data_PCOD8205713
_publ_section_title
;
Structure prediction by ZEFSAII (Michael W. Deem and Ramdas Pophale) SiO2 
 PCOD8205713
Probable space group: P B A N
;
_chemical_formula_sum "Si O2"
_cell_formula_units_Z 32
_cell_length_a 8.679277
_cell_length_b 14.162532
_cell_length_c 11.088904
_cell_angle_alpha 90.000000
_cell_angle_beta 90.000000
_cell_angle_gamma 90.000000
_cell_volume 1363.054048
_symmetry_space_group_name_H-M "P B A N"
_symmetry_group_IT_number 50
_space_group.IT_coordinate_system_code '2'
_symmetry_cell_setting 'orthorhombic'
loop_
_space_group_symop_operation_xyz
x,y,z
1/2-x,1/2-y,z
x,1/2-y,-z
1/2-x,y,-z
-x,-y,-z
1/2+x,1/2+y,-z
-x,1/2+y,z
1/2+x,-y,z
loop_
_atom_site_type_symbol
_atom_site_label
_atom_site_fract_x
_atom_site_fract_y
_atom_site_fract_z
Si Si1 0.752889 0.974217 0.857414
Si Si2 0.067087 0.896652 0.500823
Si Si3 0.539206 0.124748 0.232553
Si Si4 0.906309 0.804641 0.728101
O O1 0.582657 0.952972 0.811766
O O2 0.871669 0.895382 0.810293
O O3 0.797539 0.078511 0.804868
O O4 0.750000 0.977278 0.000000
O O5 0.250000 0.899836 0.500000
O O6 0.017100 0.852936 0.373974
O O7 0.999537 0.835846 0.609562
O O8 0.000000 0.000000 0.500000
O O9 0.506722 0.231872 0.186069
O O10 0.750000 0.750000 0.690217
#
# Coordination Sequence:
#
# PCOD8205713 Si02
#       4
#     8   8   8   8
#     4  11  24  46  71 100 139 189 240 293 349 422
#     4  12  25  44  74 106 148 186 233 298 367 433
#     4  11  24  43  69 101 139 185 233 291 357 416
#     4  10  25  43  73 104 144 186 241 291 362 427
#
# _framework density 23.476692
#
# number of rings (size 3 to 8) (size 9 to 14) (size 15 to 20)
#    0.000    1.000    2.500    3.000    3.500    9.500 
#    0.000    0.000    0.000    0.000    0.000    0.000 
#    0.000    0.000    0.000    0.000    0.000    0.000 
#
# Total GULP energy -396597.663513 kJ/mol
# GULP energy per Si atom -12393.676985 kJ/mol
# Density = 2.342326 g / cm^3
# Si number density = 23.476692 Si / 1000 Ang^3
#
#
#
# Elastic Constant Matrix: (Units=GPa)
#
#
# Indices 1 2 3 4 5 6 
#
# 1 53.7632 41.2055 35.2062 0.0000 0.0000 0.0000
# 2 41.2055 123.2761 41.5462 0.0000 0.0000 0.0000
# 3 35.2062 41.5462 139.6961 0.0000 0.0000 0.0000
# 4 0.0000 0.0000 0.0000 22.4870 0.0000 0.0000
# 5 0.0000 0.0000 0.0000 0.0000 23.5722 0.0000
# 6 0.0000 0.0000 0.0000 0.0000 0.0000 45.3628
#
#
#
# Elastic Compliance Matrix: (Units=1/GPa)
#
#
# Indices 1 2 3 4 5 6 
#
# 1 0.027492 -0.007618 -0.004663 0.000000 0.000000 0.000000
# 2 -0.007618 0.011126 -0.001389 0.000000 0.000000 0.000000
# 3 -0.004663 -0.001389 0.008747 0.000000 0.000000 0.000000
# 4 0.000000 0.000000 0.000000 0.044470 0.000000 0.000000
# 5 0.000000 0.000000 0.000000 0.000000 0.042423 0.000000
# 6 0.000000 0.000000 0.000000 0.000000 0.000000 0.022044
#
#
# Mechanical properties :
#
#
# Convention : Reuss Voigt Hill
#
# Bulk Modulus (GPa) = 49.93717 61.40570 55.67144
# Shear Modulus (GPa) = 26.27186 31.53623 28.90405
#
# Velocity S-wave (km/s) = 3.34887 3.66908 3.51262
# Velocity P-wave (km/s) = 6.02249 6.64548 6.34164
#
# Compressibility (1/GPa) = 0.02002516
#
# Stress axis : x y z
#
# Youngs Moduli (GPa) = 36.37406 89.87675 114.32869
#
# Poissons Ratio (x) = 0.68467 0.53311
# Poissons Ratio (y) = 0.27709 0.15882
# Poissons Ratio (z) = 0.16961 0.12485
#
# Static dielectric constant tensor:
#      x y z
#    x 4.388140 0.000000 0.000000 
#    y 0.000000 4.610150 0.000000 
#    z 0.000000 0.000000 4.185750 
# 
# 
# High freq. dielectric constant tensor:
#      x y z
#    x 1.935970 0.000000 0.000000 
#    y 0.000000 1.956310 0.000000 
#    z 0.000000 0.000000 1.912210 
# 
# From -- ./inp_files/18312.got.cif
#   From: 2010.03.12/outbox.cif.g09.slc.cpg/sg50_10_cif.got.tgz:18312.got - 2010.04.16 13:23:21.
