data_PCOD8205780
_publ_section_title
;
Structure prediction by ZEFSAII (Michael W. Deem and Ramdas Pophale) SiO2 
 PCOD8205780
Probable space group: P B A N
;
_chemical_formula_sum "Si O2"
_cell_formula_units_Z 56
_cell_length_a 20.602184
_cell_length_b 14.487196
_cell_length_c 9.110079
_cell_angle_alpha 90.000000
_cell_angle_beta 90.000000
_cell_angle_gamma 90.000000
_cell_volume 2719.065944
_symmetry_space_group_name_H-M "P B A N"
_symmetry_group_IT_number 50
_space_group.IT_coordinate_system_code '2'
_symmetry_cell_setting 'orthorhombic'
loop_
_space_group_symop_operation_xyz
x,y,z
1/2-x,1/2-y,z
x,1/2-y,-z
1/2-x,y,-z
-x,-y,-z
1/2+x,1/2+y,-z
-x,1/2+y,z
1/2+x,-y,z
loop_
_atom_site_type_symbol
_atom_site_label
_atom_site_fract_x
_atom_site_fract_y
_atom_site_fract_z
Si Si1 0.320300 0.231798 0.329896
Si Si2 0.940615 0.850591 0.678943
Si Si3 0.400656 0.434077 0.612814
Si Si4 0.489407 0.976354 0.830903
Si Si5 0.956805 0.269214 0.159887
Si Si6 0.821263 0.246353 0.735964
Si Si7 0.179177 0.596724 0.506625
O O1 0.250000 0.250000 0.252501
O O2 0.311687 0.250000 0.500000
O O3 0.374792 0.300809 0.265877
O O4 0.344407 0.126197 0.307955
O O5 0.940391 0.868340 0.501964
O O6 0.002570 0.786778 0.717952
O O7 0.942040 0.946968 0.764515
O O8 0.443410 0.478297 0.741066
O O9 0.373305 0.517485 0.516174
O O10 0.458041 0.877114 0.806468
O O11 0.500000 0.000000 0.000000
O O12 0.881626 0.236110 0.155546
O O13 0.987495 0.250000 0.000000
O O14 0.750000 0.250000 0.814767
O O15 0.823108 0.326054 0.616891
O O16 0.832901 0.146316 0.662011
O O17 0.250000 0.549217 0.500000
#
# Coordination Sequence:
#
# PCOD8205780 Si02
#       7
#     8   8   8   8   8   8   8
#     4   9  20  38  62  93 131 161 200 265 320 371
#     4  11  23  41  64  95 124 163 218 260 321 381
#     4  11  22  38  65  98 124 162 219 262 312 388
#     4  12  25  41  62  91 131 170 213 265 324 383
#     4  12  24  41  64  86 127 174 205 269 323 372
#     4   9  20  40  60  89 127 162 207 253 318 384
#     4   9  19  35  61  95 127 157 197 262 320 373
#
# _framework density 20.595307999999999
#
# number of rings (size 3 to 8) (size 9 to 14) (size 15 to 20)
#    0.000    1.571    2.857    3.000    4.000    2.571 
#    0.000    0.000    0.000    3.857    0.000    0.000 
#    0.000    0.000    0.000    0.000    0.000    0.000 
#
# Total GULP energy -694179.175687 kJ/mol
# GULP energy per Si atom -12396.056709 kJ/mol
# Density = 2.054843 g / cm^3
# Si number density = 20.595308 Si / 1000 Ang^3
#
#
#
# Elastic Constant Matrix: (Units=GPa)
#
#
# Indices 1 2 3 4 5 6 
#
# 1 151.9881 56.7855 40.4096 0.0000 0.0000 0.0000
# 2 56.7855 125.5299 20.4889 0.0000 0.0000 0.0000
# 3 40.4096 20.4889 72.2224 0.0000 0.0000 0.0000
# 4 0.0000 0.0000 0.0000 17.7638 0.0000 0.0000
# 5 0.0000 0.0000 0.0000 0.0000 12.4355 0.0000
# 6 0.0000 0.0000 0.0000 0.0000 0.0000 35.2104
#
#
#
# Elastic Compliance Matrix: (Units=1/GPa)
#
#
# Indices 1 2 3 4 5 6 
#
# 1 0.008911 -0.003373 -0.004029 0.000000 0.000000 0.000000
# 2 -0.003373 0.009630 -0.000844 0.000000 0.000000 0.000000
# 3 -0.004029 -0.000844 0.016340 0.000000 0.000000 0.000000
# 4 0.000000 0.000000 0.000000 0.056294 0.000000 0.000000
# 5 0.000000 0.000000 0.000000 0.000000 0.080415 0.000000
# 6 0.000000 0.000000 0.000000 0.000000 0.000000 0.028401
#
#
# Mechanical properties :
#
#
# Convention : Reuss Voigt Hill
#
# Bulk Modulus (GPa) = 54.38486 65.01205 59.69846
# Shear Modulus (GPa) = 22.46041 28.55235 25.50638
#
# Velocity S-wave (km/s) = 3.30595 3.72741 3.52299
# Velocity P-wave (km/s) = 6.40594 7.08236 6.75263
#
# Compressibility (1/GPa) = 0.01838747
#
# Stress axis : x y z
#
# Youngs Moduli (GPa) = 112.22077 103.84105 61.19990
#
# Poissons Ratio (x) = 0.35030 0.24656
# Poissons Ratio (y) = 0.37857 0.05168
# Poissons Ratio (z) = 0.45212 0.08769
#
# Static dielectric constant tensor:
#      x y z
#    x 4.093300 0.000000 0.000000 
#    y 0.000000 3.953810 0.000000 
#    z 0.000000 0.000000 3.400070 
# 
# 
# High freq. dielectric constant tensor:
#      x y z
#    x 1.809460 0.000000 0.000000 
#    y 0.000000 1.819680 0.000000 
#    z 0.000000 0.000000 1.768470 
# 
# From -- ./inp_files/15376.got.cif
#   From: 2010.03.12/outbox.cif.g09.slc.cpg/sg50_8_cif.got.tgz:15376.got - 2010.04.16 13:23:21.
