data_PCOD8205823
_publ_section_title
;
Structure prediction by ZEFSAII (Michael W. Deem and Ramdas Pophale) SiO2 
 PCOD8205823
Probable space group: P B A N
;
_chemical_formula_sum "Si O2"
_cell_formula_units_Z 24
_cell_length_a 12.490612
_cell_length_b 16.447891
_cell_length_c 4.673931
_cell_angle_alpha 90.000000
_cell_angle_beta 90.000000
_cell_angle_gamma 90.000000
_cell_volume 960.232131
_symmetry_space_group_name_H-M "P B A N"
_symmetry_group_IT_number 50
_space_group.IT_coordinate_system_code '2'
_symmetry_cell_setting 'orthorhombic'
loop_
_space_group_symop_operation_xyz
x,y,z
1/2-x,1/2-y,z
x,1/2-y,-z
1/2-x,y,-z
-x,-y,-z
1/2+x,1/2+y,-z
-x,1/2+y,z
1/2+x,-y,z
loop_
_atom_site_type_symbol
_atom_site_label
_atom_site_fract_x
_atom_site_fract_y
_atom_site_fract_z
Si Si1 0.127766 0.077243 0.518678
Si Si2 0.322762 0.910449 0.744968
Si Si3 0.524016 0.842372 0.017389
O O1 0.250000 0.107485 0.500000
O O2 0.096467 0.092323 0.847150
O O3 0.116147 0.983628 0.420009
O O4 0.041399 0.131767 0.345405
O O5 0.250000 0.866161 0.500000
O O6 0.402793 0.847497 0.897965
O O7 0.250000 0.947873 0.000000
O O8 0.563928 0.750000 0.000000
#
# Coordination Sequence:
#
# PCOD8205823 Si02
#       3
#     8   8   8
#     4  11  23  42  66  94 128 172 223 270 322 392
#     4  11  23  43  69  95 126 173 228 276 322 387
#     4  12  25  41  64  97 135 173 212 270 340 399
#
# _framework density 24.993957999999999
#
# number of rings (size 3 to 8) (size 9 to 14) (size 15 to 20)
#    0.000    0.667    0.000   10.000    0.000    4.667 
#    0.000    1.667    0.000    0.000    0.000    0.000 
#    0.000    0.000    0.000    0.000    0.000    0.000 
#
# Total GULP energy -297553.859530 kJ/mol
# GULP energy per Si atom -12398.077480 kJ/mol
# Density = 2.493707 g / cm^3
# Si number density = 24.993958 Si / 1000 Ang^3
#
#
#
# Elastic Constant Matrix: (Units=GPa)
#
#
# Indices 1 2 3 4 5 6 
#
# 1 88.6490 4.7790 15.9234 0.0000 0.0000 0.0000
# 2 4.7790 73.7664 12.4324 0.0000 0.0000 0.0000
# 3 15.9234 12.4324 84.8735 0.0000 0.0000 0.0000
# 4 0.0000 0.0000 0.0000 16.5973 0.0000 0.0000
# 5 0.0000 0.0000 0.0000 0.0000 68.6602 0.0000
# 6 0.0000 0.0000 0.0000 0.0000 0.0000 17.2120
#
#
#
# Elastic Compliance Matrix: (Units=1/GPa)
#
#
# Indices 1 2 3 4 5 6 
#
# 1 0.011685 -0.000397 -0.002134 0.000000 0.000000 0.000000
# 2 -0.000397 0.013913 -0.001963 0.000000 0.000000 0.000000
# 3 -0.002134 -0.001963 0.012470 0.000000 0.000000 0.000000
# 4 0.000000 0.000000 0.000000 0.060251 0.000000 0.000000
# 5 0.000000 0.000000 0.000000 0.000000 0.014564 0.000000
# 6 0.000000 0.000000 0.000000 0.000000 0.000000 0.058099
#
#
# Mechanical properties :
#
#
# Convention : Reuss Voigt Hill
#
# Bulk Modulus (GPa) = 34.38955 34.83984 34.61469
# Shear Modulus (GPa) = 26.36227 34.77086 30.56657
#
# Velocity S-wave (km/s) = 3.25121 3.73389 3.50088
# Velocity P-wave (km/s) = 5.28042 5.70603 5.49734
#
# Compressibility (1/GPa) = 0.02907860
#
# Stress axis : x y z
#
# Youngs Moduli (GPa) = 85.57832 71.87545 80.19096
#
# Poissons Ratio (x) = 0.02856 0.17114
# Poissons Ratio (y) = 0.03401 0.15745
# Poissons Ratio (z) = 0.18263 0.14112
#
# Static dielectric constant tensor:
#      x y z
#    x 4.610160 0.000000 0.000000 
#    y 0.000000 3.781860 0.000000 
#    z 0.000000 0.000000 4.782290 
# 
# 
# High freq. dielectric constant tensor:
#      x y z
#    x 2.006130 0.000000 0.000000 
#    y 0.000000 1.951050 0.000000 
#    z 0.000000 0.000000 2.024280 
# 
# From -- ./inp_files/1650.got.cif
#   From: 2010.03.12/outbox.cif.g09.slc.cpg/sg50_1_cif.got.tgz:1650.got - 2010.04.16 13:23:21.
