data_PCOD8205574
_publ_section_title
;
Structure prediction by ZEFSAII (Michael W. Deem and Ramdas Pophale) SiO2 
 PCOD8205574
Probable space group: P B A N
;
_chemical_formula_sum "Si O2"
_cell_formula_units_Z 48
_cell_length_a 9.098978
_cell_length_b 14.034369
_cell_length_c 17.223470
_cell_angle_alpha 90.000000
_cell_angle_beta 90.000000
_cell_angle_gamma 90.000000
_cell_volume 2199.409816
_symmetry_space_group_name_H-M "P B A N"
_symmetry_group_IT_number 50
_space_group.IT_coordinate_system_code '2'
_symmetry_cell_setting 'orthorhombic'
loop_
_space_group_symop_operation_xyz
x,y,z
1/2-x,1/2-y,z
x,1/2-y,-z
1/2-x,y,-z
-x,-y,-z
1/2+x,1/2+y,-z
-x,1/2+y,z
1/2+x,-y,z
loop_
_atom_site_type_symbol
_atom_site_label
_atom_site_fract_x
_atom_site_fract_y
_atom_site_fract_z
Si Si1 0.966155 0.897891 0.844299
Si Si2 0.655793 0.607371 0.677584
Si Si3 0.385704 0.947012 0.552822
Si Si4 0.031931 0.193524 0.663832
Si Si5 0.905924 0.205146 0.825959
Si Si6 0.273785 0.956541 0.910800
O O1 0.921446 0.926727 0.756783
O O2 0.970874 0.782512 0.852306
O O3 0.124604 0.944304 0.862315
O O4 0.839174 0.936708 0.901855
O O5 0.663697 0.518647 0.620182
O O6 0.821879 0.640060 0.692469
O O7 0.564030 0.696249 0.642029
O O8 0.250000 0.914359 0.500000
O O9 0.459341 0.852717 0.588190
O O10 0.500000 0.000000 0.500000
O O11 0.919083 0.183442 0.734925
O O12 0.750000 0.250000 0.843914
O O13 0.907577 0.109206 0.877187
O O14 0.250000 0.930725 0.000000
#
# Coordination Sequence:
#
# PCOD8205574 Si02
#       6
#     8   8   8   8   8   8
#     4  10  23  40  67  96 129 175 229 270 325 402
#     4  10  23  43  69  95 130 175 224 273 332 393
#     4  12  25  42  66  99 131 167 215 270 341 399
#     4  10  22  44  69  93 129 176 224 274 326 400
#     4   9  21  41  67  95 127 173 223 269 326 391
#     4  11  23  41  65  99 139 176 217 275 348 396
#
# _framework density 21.824038000000002
#
# number of rings (size 3 to 8) (size 9 to 14) (size 15 to 20)
#    0.000    1.667    1.667    1.500    4.667    7.667 
#    0.000    0.833    0.000    0.000    0.000    0.000 
#    0.000    0.000    0.000    0.000    0.000    0.000 
#
# Total GULP energy -595211.745082 kJ/mol
# GULP energy per Si atom -12400.244689 kJ/mol
# Density = 2.177437 g / cm^3
# Si number density = 21.824038 Si / 1000 Ang^3
#
#
#
# Elastic Constant Matrix: (Units=GPa)
#
#
# Indices 1 2 3 4 5 6 
#
# 1 85.1762 30.2945 39.8890 0.0000 0.0000 0.0000
# 2 30.2945 76.7441 45.8557 0.0000 0.0000 0.0000
# 3 39.8890 45.8557 110.2593 0.0000 0.0000 0.0000
# 4 0.0000 0.0000 0.0000 27.2823 0.0000 0.0000
# 5 0.0000 0.0000 0.0000 0.0000 38.0187 0.0000
# 6 0.0000 0.0000 0.0000 0.0000 0.0000 38.3272
#
#
#
# Elastic Compliance Matrix: (Units=1/GPa)
#
#
# Indices 1 2 3 4 5 6 
#
# 1 0.014817 -0.003521 -0.003896 0.000000 0.000000 0.000000
# 2 -0.003521 0.018176 -0.006285 0.000000 0.000000 0.000000
# 3 -0.003896 -0.006285 0.013093 0.000000 0.000000 0.000000
# 4 0.000000 0.000000 0.000000 0.036654 0.000000 0.000000
# 5 0.000000 0.000000 0.000000 0.000000 0.026303 0.000000
# 6 0.000000 0.000000 0.000000 0.000000 0.000000 0.026091
#
#
# Mechanical properties :
#
#
# Convention : Reuss Voigt Hill
#
# Bulk Modulus (GPa) = 53.52996 56.02866 54.77931
# Shear Modulus (GPa) = 29.62680 31.13500 30.38090
#
# Velocity S-wave (km/s) = 3.68847 3.78118 3.73511
# Velocity P-wave (km/s) = 6.53613 6.69267 6.61486
#
# Compressibility (1/GPa) = 0.01868113
#
# Stress axis : x y z
#
# Youngs Moduli (GPa) = 67.48861 55.01816 76.37638
#
# Poissons Ratio (x) = 0.19372 0.29757
# Poissons Ratio (y) = 0.23763 0.48005
# Poissons Ratio (z) = 0.26295 0.34581
#
# Static dielectric constant tensor:
#      x y z
#    x 3.895600 0.000000 0.000000 
#    y 0.000000 4.573830 0.000000 
#    z 0.000000 0.000000 3.731400 
# 
# 
# High freq. dielectric constant tensor:
#      x y z
#    x 1.859600 0.000000 0.000000 
#    y 0.000000 1.865520 0.000000 
#    z 0.000000 0.000000 1.847450 
# 
# From -- ./inp_files/28684.got.cif
#   From: 2010.03.12/outbox.cif.g09.slc.cpg/sg50_15_cif.got.tgz:28684.got - 2010.04.16 13:23:21.
