data_PCOD8205279
_publ_section_title
;
Structure prediction by ZEFSAII (Michael W. Deem and Ramdas Pophale) SiO2 
 PCOD8205279
Probable space group: P B A N
;
_chemical_formula_sum "Si O2"
_cell_formula_units_Z 40
_cell_length_a 23.824076
_cell_length_b 10.189614
_cell_length_c 8.842027
_cell_angle_alpha 90.000000
_cell_angle_beta 90.000000
_cell_angle_gamma 90.000000
_cell_volume 2146.474014
_symmetry_space_group_name_H-M "P B A N"
_symmetry_group_IT_number 50
_space_group.IT_coordinate_system_code '2'
_symmetry_cell_setting 'orthorhombic'
loop_
_space_group_symop_operation_xyz
x,y,z
1/2-x,1/2-y,z
x,1/2-y,-z
1/2-x,y,-z
-x,-y,-z
1/2+x,1/2+y,-z
-x,1/2+y,z
1/2+x,-y,z
loop_
_atom_site_type_symbol
_atom_site_label
_atom_site_fract_x
_atom_site_fract_y
_atom_site_fract_z
Si Si1 0.892814 0.740011 0.168104
Si Si2 0.893802 0.480636 0.683640
Si Si3 0.112075 0.514520 0.674525
Si Si4 0.009003 0.060788 0.163727
Si Si5 0.187335 0.753965 0.679596
O O1 0.862519 0.624513 0.264737
O O2 0.959429 0.702481 0.154439
O O3 0.883273 0.875954 0.251615
O O4 0.866707 0.750000 0.000000
O O5 0.895323 0.487754 0.504201
O O6 0.843392 0.385784 0.736780
O O7 0.951365 0.420029 0.746573
O O8 0.050206 0.538482 0.745049
O O9 0.153063 0.627386 0.735429
O O10 0.000000 0.000000 0.000000
O O11 0.250000 0.750000 0.748693
O O12 0.190012 0.750000 0.500000
#
# Coordination Sequence:
#
# PCOD8205279 Si02
#       5
#     8   8   8   8   8
#     4  10  21  35  54  80 116 155 189 230 293 347
#     4  11  19  36  59  87 115 152 195 249 285 356
#     4   9  21  35  58  86 117 147 201 240 294 350
#     4  10  21  33  54  80 124 157 187 226 303 349
#     4   9  20  39  62  87 116 152 195 247 301 350
#
# _framework density 18.635213
#
# number of rings (size 3 to 8) (size 9 to 14) (size 15 to 20)
#    1.200    1.000    2.000    1.200    2.800    0.000 
#    3.600    4.000    0.000   15.600    0.000    0.000 
#    0.000    0.000    0.000    0.000    0.000    0.000 
#
# Total GULP energy -495670.892955 kJ/mol
# GULP energy per Si atom -12391.772324 kJ/mol
# Density = 1.859280 g / cm^3
# Si number density = 18.635213 Si / 1000 Ang^3
#
#
#
# Elastic Constant Matrix: (Units=GPa)
#
#
# Indices 1 2 3 4 5 6 
#
# 1 131.8708 71.7437 40.9010 0.0000 0.0000 0.0000
# 2 71.7437 159.6056 50.0998 0.0000 0.0000 0.0000
# 3 40.9010 50.0998 104.1830 0.0000 0.0000 0.0000
# 4 0.0000 0.0000 0.0000 23.1568 0.0000 0.0000
# 5 0.0000 0.0000 0.0000 0.0000 5.3203 0.0000
# 6 0.0000 0.0000 0.0000 0.0000 0.0000 31.9580
#
#
#
# Elastic Compliance Matrix: (Units=1/GPa)
#
#
# Indices 1 2 3 4 5 6 
#
# 1 0.010438 -0.004011 -0.002169 0.000000 0.000000 0.000000
# 2 -0.004011 0.008921 -0.002715 0.000000 0.000000 0.000000
# 3 -0.002169 -0.002715 0.011756 0.000000 0.000000 0.000000
# 4 0.000000 0.000000 0.000000 0.043184 0.000000 0.000000
# 5 0.000000 0.000000 0.000000 0.000000 0.187961 0.000000
# 6 0.000000 0.000000 0.000000 0.000000 0.000000 0.031291
#
#
# Mechanical properties :
#
#
# Convention : Reuss Voigt Hill
#
# Bulk Modulus (GPa) = 75.05229 80.12762 77.58996
# Shear Modulus (GPa) = 15.83370 27.61466 21.72418
#
# Velocity S-wave (km/s) = 2.91806 3.85366 3.41803
# Velocity P-wave (km/s) = 7.19134 7.93046 7.56993
#
# Compressibility (1/GPa) = 0.01332404
#
# Stress axis : x y z
#
# Youngs Moduli (GPa) = 95.80210 112.09812 85.06543
#
# Poissons Ratio (x) = 0.44965 0.18451
# Poissons Ratio (y) = 0.38428 0.23096
# Poissons Ratio (z) = 0.20779 0.30436
#
# Static dielectric constant tensor:
#      x y z
#    x 3.398750 0.000000 0.000000 
#    y 0.000000 3.538000 0.000000 
#    z 0.000000 0.000000 3.375420 
# 
# 
# High freq. dielectric constant tensor:
#      x y z
#    x 1.694930 0.000000 0.000000 
#    y 0.000000 1.729720 0.000000 
#    z 0.000000 0.000000 1.721850 
# 
# From -- ./inp_files/13908.got.cif
#   From: 2010.03.12/outbox.cif.g09.slc.cpg/sg50_7_cif.got.tgz:13908.got - 2010.04.16 13:23:21.
