data_PCOD8205109
_publ_section_title
;
Structure prediction by ZEFSAII (Michael W. Deem and Ramdas Pophale) SiO2 
 PCOD8205109
Probable space group: P B A N
;
_chemical_formula_sum "Si O2"
_cell_formula_units_Z 54
_cell_length_a 5.496816
_cell_length_b 29.253918
_cell_length_c 16.143391
_cell_angle_alpha 90.000000
_cell_angle_beta 90.000000
_cell_angle_gamma 90.000000
_cell_volume 2595.912233
_symmetry_space_group_name_H-M "P B A N"
_symmetry_group_IT_number 50
_space_group.IT_coordinate_system_code '2'
_symmetry_cell_setting 'orthorhombic'
loop_
_space_group_symop_operation_xyz
x,y,z
1/2-x,1/2-y,z
x,1/2-y,-z
1/2-x,y,-z
-x,-y,-z
1/2+x,1/2+y,-z
-x,1/2+y,z
1/2+x,-y,z
loop_
_atom_site_type_symbol
_atom_site_label
_atom_site_fract_x
_atom_site_fract_y
_atom_site_fract_z
Si Si1 0.250000 0.250000 0.000000
Si Si2 0.545868 0.330422 0.346169
Si Si3 0.452961 0.472096 0.285773
Si Si4 0.933234 0.176777 0.775376
Si Si5 0.999147 0.085685 0.451550
Si Si6 0.829174 0.614374 0.193922
Si Si7 0.250000 0.250000 0.702705
Si Si8 0.912066 0.323676 0.921928
O O1 0.414366 0.218332 0.942456
O O2 0.826454 0.326386 0.318290
O O3 0.525184 0.360565 0.429079
O O4 0.424633 0.356275 0.270160
O O5 0.426620 0.280076 0.357171
O O6 0.719983 0.494564 0.279404
O O7 0.463224 0.445538 0.371828
O O8 0.402254 0.438067 0.208516
O O9 0.745295 0.193317 0.844401
O O10 0.040885 0.126985 0.803853
O O11 0.126743 0.216776 0.769058
O O12 0.750000 0.070946 0.500000
O O13 0.250000 0.078154 0.500000
O O14 0.936817 0.631354 0.106127
O O15 0.750000 0.338098 0.000000
#
# Coordination Sequence:
#
# PCOD8205109 Si02
#       8
#     2   8   8   8   8   8   4   8
#     4  12  26  38  52 102 134 180 208 272 314 382
#     4   9  21  36  60  84 119 170 215 267 314 384
#     4  11  25  43  73 104 131 162 216 275 331 405
#     4  10  21  37  61  86 121 169 220 271 321 381
#     4  11  25  42  67  94 136 173 205 258 344 413
#     4   9  22  39  62  90 125 168 213 262 328 388
#     4  10  20  35  59  87 117 160 232 276 307 362
#     4  11  24  38  58  89 138 172 217 263 326 388
#
# _framework density 20.801933999999999
#
# number of rings (size 3 to 8) (size 9 to 14) (size 15 to 20)
#    0.000    1.778    0.000    2.444   12.444   16.000 
#    0.000    0.370    0.000    0.889    0.000    0.000 
#    0.000    0.000    0.000    0.000    0.000    0.000 
#
# Total GULP energy -668981.476274 kJ/mol
# GULP energy per Si atom -12388.545857 kJ/mol
# Density = 2.075459 g / cm^3
# Si number density = 20.801934 Si / 1000 Ang^3
#
#
#
# Elastic Constant Matrix: (Units=GPa)
#
#
# Indices 1 2 3 4 5 6 
#
# 1 131.9838 48.0340 32.9626 0.0000 0.0000 0.0000
# 2 48.0340 116.1709 42.4611 0.0000 0.0000 0.0000
# 3 32.9626 42.4611 63.8388 0.0000 0.0000 0.0000
# 4 0.0000 0.0000 0.0000 29.7447 0.0000 0.0000
# 5 0.0000 0.0000 0.0000 0.0000 27.9612 0.0000
# 6 0.0000 0.0000 0.0000 0.0000 0.0000 35.8880
#
#
#
# Elastic Compliance Matrix: (Units=1/GPa)
#
#
# Indices 1 2 3 4 5 6 
#
# 1 0.009327 -0.002770 -0.002974 0.000000 0.000000 0.000000
# 2 -0.002770 0.012195 -0.006681 0.000000 0.000000 0.000000
# 3 -0.002974 -0.006681 0.021644 0.000000 0.000000 0.000000
# 4 0.000000 0.000000 0.000000 0.033619 0.000000 0.000000
# 5 0.000000 0.000000 0.000000 0.000000 0.035764 0.000000
# 6 0.000000 0.000000 0.000000 0.000000 0.000000 0.027864
#
#
# Mechanical properties :
#
#
# Convention : Reuss Voigt Hill
#
# Bulk Modulus (GPa) = 54.59480 62.10100 58.34790
# Shear Modulus (GPa) = 29.17665 31.28783 30.23224
#
# Velocity S-wave (km/s) = 3.74918 3.88246 3.81640
# Velocity P-wave (km/s) = 6.71147 7.07222 6.89421
#
# Compressibility (1/GPa) = 0.01831676
#
# Stress axis : x y z
#
# Youngs Moduli (GPa) = 107.21087 81.99901 46.20220
#
# Poissons Ratio (x) = 0.22711 0.13740
# Poissons Ratio (y) = 0.29694 0.30869
# Poissons Ratio (z) = 0.31884 0.54786
#
# Static dielectric constant tensor:
#      x y z
#    x 5.849150 0.000000 0.000000 
#    y 0.000000 4.005530 0.000000 
#    z 0.000000 0.000000 3.833100 
# 
# 
# High freq. dielectric constant tensor:
#      x y z
#    x 1.838650 0.000000 0.000000 
#    y 0.000000 1.800930 0.000000 
#    z 0.000000 0.000000 1.787780 
# 
# From -- ./inp_files/24231.got.cif
#   From: 2010.03.12/outbox.cif.g09.slc.cpg/sg50_13_cif.got.tgz:24231.got - 2010.04.16 13:23:21.
