data_PCOD8205186
_publ_section_title
;
Structure prediction by ZEFSAII (Michael W. Deem and Ramdas Pophale) SiO2 
 PCOD8205186
Probable space group: P B A N
;
_chemical_formula_sum "Si O2"
_cell_formula_units_Z 52
_cell_length_a 8.873294
_cell_length_b 14.904048
_cell_length_c 19.807096
_cell_angle_alpha 90.000000
_cell_angle_beta 90.000000
_cell_angle_gamma 90.000000
_cell_volume 2619.448826
_symmetry_space_group_name_H-M "P B A N"
_symmetry_group_IT_number 50
_space_group.IT_coordinate_system_code '2'
_symmetry_cell_setting 'orthorhombic'
loop_
_space_group_symop_operation_xyz
x,y,z
1/2-x,1/2-y,z
x,1/2-y,-z
1/2-x,y,-z
-x,-y,-z
1/2+x,1/2+y,-z
-x,1/2+y,z
1/2+x,-y,z
loop_
_atom_site_type_symbol
_atom_site_label
_atom_site_fract_x
_atom_site_fract_y
_atom_site_fract_z
Si Si1 0.414517 0.629971 0.813928
Si Si2 0.932432 0.085398 0.337733
Si Si3 0.920763 0.744197 0.420185
Si Si4 0.750000 0.002170 0.000000
Si Si5 0.502137 0.533943 0.095307
Si Si6 0.568615 0.333504 0.801852
Si Si7 0.423383 0.604717 0.344418
O O1 0.477624 0.603087 0.740214
O O2 0.484796 0.566677 0.872672
O O3 0.459946 0.732919 0.827287
O O4 0.234623 0.626441 0.813776
O O5 0.008673 0.154122 0.389349
O O6 0.754174 0.089835 0.347988
O O7 0.989931 0.987369 0.356148
O O8 0.750000 0.750000 0.392316
O O9 0.920911 0.750000 0.500000
O O10 0.023665 0.828742 0.402076
O O11 0.624396 0.944005 0.962206
O O12 0.840172 0.055222 0.940534
O O13 0.539718 0.603630 0.154268
O O14 0.526814 0.344622 0.724029
#
# Coordination Sequence:
#
# PCOD8205186 Si02
#       7
#     8   8   8   4   8   8   8
#     4  10  20  37  63  93 121 160 209 258 313 369
#     4  11  22  39  65  98 130 165 215 267 316 378
#     4  11  25  45  65  93 135 174 209 258 321 380
#     4  10  24  38  62  84 130 164 206 240 324 374
#     4  11  20  42  60  90 121 170 198 262 303 380
#     4  10  20  37  63  93 121 160 209 258 313 369
#     4  11  22  39  65  98 130 165 215 267 316 378
#
# _framework density 19.851505
#
# number of rings (size 3 to 8) (size 9 to 14) (size 15 to 20)
#    0.000    1.385    4.615    1.385    0.000    1.846 
#    2.769    5.385    0.000    0.000    0.000    0.000 
#    0.000    0.000    0.000    0.000    0.000    0.000 
#
# Total GULP energy -644522.441728 kJ/mol
# GULP energy per Si atom -12394.662341 kJ/mol
# Density = 1.980632 g / cm^3
# Si number density = 19.851505 Si / 1000 Ang^3
#
#
#
# Elastic Constant Matrix: (Units=GPa)
#
#
# Indices 1 2 3 4 5 6 
#
# 1 84.1301 31.5018 34.8164 0.0000 0.0000 0.0000
# 2 31.5018 130.2762 42.1767 0.0000 0.0000 0.0000
# 3 34.8164 42.1767 94.2610 0.0000 0.0000 0.0000
# 4 0.0000 0.0000 0.0000 20.6209 0.0000 0.0000
# 5 0.0000 0.0000 0.0000 0.0000 31.9789 0.0000
# 6 0.0000 0.0000 0.0000 0.0000 0.0000 27.3539
#
#
#
# Elastic Compliance Matrix: (Units=1/GPa)
#
#
# Indices 1 2 3 4 5 6 
#
# 1 0.014494 -0.002072 -0.004427 0.000000 0.000000 0.000000
# 2 -0.002072 0.009272 -0.003384 0.000000 0.000000 0.000000
# 3 -0.004427 -0.003384 0.013758 0.000000 0.000000 0.000000
# 4 0.000000 0.000000 0.000000 0.048494 0.000000 0.000000
# 5 0.000000 0.000000 0.000000 0.000000 0.031271 0.000000
# 6 0.000000 0.000000 0.000000 0.000000 0.000000 0.036558
#
#
# Mechanical properties :
#
#
# Convention : Reuss Voigt Hill
#
# Bulk Modulus (GPa) = 56.30510 58.40635 57.35572
# Shear Modulus (GPa) = 27.85034 29.33559 28.59296
#
# Velocity S-wave (km/s) = 3.74964 3.84832 3.79930
# Velocity P-wave (km/s) = 6.86812 7.01652 6.94272
#
# Compressibility (1/GPa) = 0.01776038
#
# Stress axis : x y z
#
# Youngs Moduli (GPa) = 68.99434 107.84677 72.68573
#
# Poissons Ratio (x) = 0.22342 0.32175
# Poissons Ratio (y) = 0.14293 0.24595
# Poissons Ratio (z) = 0.30541 0.36492
#
# Static dielectric constant tensor:
#      x y z
#    x 3.724280 0.000000 0.000000 
#    y 0.000000 3.435940 0.000000 
#    z 0.000000 0.000000 3.764340 
# 
# 
# High freq. dielectric constant tensor:
#      x y z
#    x 1.774050 0.000000 0.000000 
#    y 0.000000 1.766560 0.000000 
#    z 0.000000 0.000000 1.784740 
# 
# From -- ./inp_files/30605.got.cif
#   From: 2010.03.12/outbox.cif.g09.slc.cpg/sg50_16_cif.got.tgz:30605.got - 2010.04.16 13:23:21.
