data_PCOD8205766
_publ_section_title
;
Structure prediction by ZEFSAII (Michael W. Deem and Ramdas Pophale) SiO2 
 PCOD8205766
Probable space group: P B A N
;
_chemical_formula_sum "Si O2"
_cell_formula_units_Z 26
_cell_length_a 5.072659
_cell_length_b 29.762438
_cell_length_c 7.031873
_cell_angle_alpha 90.000000
_cell_angle_beta 90.000000
_cell_angle_gamma 90.000000
_cell_volume 1061.634909
_symmetry_space_group_name_H-M "P B A N"
_symmetry_group_IT_number 50
_space_group.IT_coordinate_system_code '2'
_symmetry_cell_setting 'orthorhombic'
loop_
_space_group_symop_operation_xyz
x,y,z
1/2-x,1/2-y,z
x,1/2-y,-z
1/2-x,y,-z
-x,-y,-z
1/2+x,1/2+y,-z
-x,1/2+y,z
1/2+x,-y,z
loop_
_atom_site_type_symbol
_atom_site_label
_atom_site_fract_x
_atom_site_fract_y
_atom_site_fract_z
Si Si1 0.750000 0.750000 0.500000
Si Si2 0.835417 0.373856 0.282715
Si Si3 0.351066 0.180551 0.800845
Si Si4 0.730517 0.474431 0.725358
O O1 0.580333 0.781293 0.357136
O O2 0.750000 0.373007 0.500000
O O3 0.621121 0.346084 0.159914
O O4 0.836228 0.424432 0.202122
O O5 0.126449 0.353220 0.273635
O O6 0.250000 0.201927 0.000000
O O7 0.750000 0.475381 0.500000
O O8 0.508356 0.508179 0.805955
#
# Coordination Sequence:
#
# PCOD8205766 Si02
#       4
#     2   8   8   8
#     4  12  26  50  72 100 128 170 226 274 332 412
#     4  11  21  42  67  97 138 180 219 272 330 391
#     4  12  26  44  70  99 135 173 217 276 335 397
#     4   9  17  30  57  95 129 170 224 267 309 377
#
# _framework density 24.490531000000001
#
# number of rings (size 3 to 8) (size 9 to 14) (size 15 to 20)
#    0.000    1.231    3.077    3.231    0.000    7.385 
#    0.000    3.077    0.000   18.462    0.000    0.000 
#    0.000    0.000    0.000    0.000    0.000    0.000 
#
# Total GULP energy -322328.203305 kJ/mol
# GULP energy per Si atom -12397.238589 kJ/mol
# Density = 2.443479 g / cm^3
# Si number density = 24.490531 Si / 1000 Ang^3
#
#
#
# Elastic Constant Matrix: (Units=GPa)
#
#
# Indices 1 2 3 4 5 6 
#
# 1 141.6853 57.8786 2.4561 0.0000 0.0000 0.0000
# 2 57.8786 169.2838 28.9975 0.0000 0.0000 0.0000
# 3 2.4561 28.9975 101.2160 0.0000 0.0000 0.0000
# 4 0.0000 0.0000 0.0000 -4.9974 0.0000 0.0000
# 5 0.0000 0.0000 0.0000 0.0000 23.7724 0.0000
# 6 0.0000 0.0000 0.0000 0.0000 0.0000 232.0260
#
#
#
# Elastic Compliance Matrix: (Units=1/GPa)
#
#
# Indices 1 2 3 4 5 6 
#
# 1 0.008243 -0.002928 0.000639 0.000000 0.000000 0.000000
# 2 -0.002928 0.007252 -0.002007 0.000000 0.000000 0.000000
# 3 0.000639 -0.002007 0.010439 0.000000 0.000000 0.000000
# 4 0.000000 0.000000 0.000000 -0.200104 0.000000 0.000000
# 5 0.000000 0.000000 0.000000 0.000000 0.042066 0.000000
# 6 0.000000 0.000000 0.000000 0.000000 0.000000 0.004310
#
#
# Mechanical properties :
#
#
# Convention : Reuss Voigt Hill
#
# Bulk Modulus (GPa) = 57.66033 65.64995 61.65514
# Shear Modulus (GPa) = -44.08292 71.68374 13.80041
#
# Velocity S-wave (km/s) = -4.24724 5.41604 2.37639
# Velocity P-wave (km/s) = 0.67605 8.12255 5.72358
#
# Compressibility (1/GPa) = 0.01734295
#
# Stress axis : x y z
#
# Youngs Moduli (GPa) = 121.31848 137.89453 95.79256
#
# Poissons Ratio (x) = 0.40370 -0.06118
# Poissons Ratio (y) = 0.35518 0.19221
# Poissons Ratio (z) = -0.07749 0.27669
#
# Static dielectric constant tensor:
#      x y z
#    x 4.398560 0.000000 0.000000 
#    y 0.000000 4.601270 0.000000 
#    z 0.000000 0.000000 4.420560 
# 
# 
# High freq. dielectric constant tensor:
#      x y z
#    x 1.964860 0.000000 0.000000 
#    y 0.000000 1.972370 0.000000 
#    z 0.000000 0.000000 1.985060 
# 
# From -- ./inp_files/7782.got.cif
#   From: 2010.03.12/outbox.cif.g09.slc.cpg/sg50_4_cif.got.tgz:7782.got - 2010.04.16 13:23:21.
