data_PCOD8205661
_publ_section_title
;
Structure prediction by ZEFSAII (Michael W. Deem and Ramdas Pophale) SiO2 
 PCOD8205661
Probable space group: P B A N
;
_chemical_formula_sum "Si O2"
_cell_formula_units_Z 46
_cell_length_a 10.254107
_cell_length_b 9.365093
_cell_length_c 22.200918
_cell_angle_alpha 90.000000
_cell_angle_beta 90.000000
_cell_angle_gamma 90.000000
_cell_volume 2131.968934
_symmetry_space_group_name_H-M "P B A N"
_symmetry_group_IT_number 50
_space_group.IT_coordinate_system_code '2'
_symmetry_cell_setting 'orthorhombic'
loop_
_space_group_symop_operation_xyz
x,y,z
1/2-x,1/2-y,z
x,1/2-y,-z
1/2-x,y,-z
-x,-y,-z
1/2+x,1/2+y,-z
-x,1/2+y,z
1/2+x,-y,z
loop_
_atom_site_type_symbol
_atom_site_label
_atom_site_fract_x
_atom_site_fract_y
_atom_site_fract_z
Si Si1 0.250000 0.750000 0.500000
Si Si2 0.398003 0.280391 0.636757
Si Si3 0.546498 0.051363 0.841577
Si Si4 0.250000 0.750000 0.000000
Si Si5 0.902916 0.787487 0.229049
Si Si6 0.750000 0.750000 0.000000
Si Si7 0.948717 0.441184 0.562307
Si Si8 0.192605 0.988713 0.081727
O O1 0.176590 0.651616 0.452474
O O2 0.250000 0.250000 0.647738
O O3 0.459526 0.267392 0.703331
O O4 0.445600 0.162176 0.590695
O O5 0.418015 0.436368 0.609587
O O6 0.502592 0.204989 0.815661
O O7 0.663690 0.047137 0.890550
O O8 0.588236 0.954762 0.785281
O O9 0.416187 0.982703 0.868173
O O10 0.157744 0.644097 0.961640
O O11 0.750000 0.750000 0.219603
O O12 0.823248 0.640122 0.045628
O O13 0.000000 0.500000 0.500000
#
# Coordination Sequence:
#
# PCOD8205661 Si02
#       8
#     2   8   8   2   8   2   8   8
#     4  12  24  40  68  98 136 172 234 274 332 418
#     4  11  25  43  68  98 135 177 223 286 340 401
#     4  12  23  45  70  98 130 189 221 277 338 409
#     4  10  24  40  56 106 128 168 224 276 322 404
#     4  11  24  45  68  98 137 171 230 286 338 397
#     4  10  24  44  64 104 140 180 212 288 338 400
#     4  12  23  44  67  98 134 180 222 275 341 415
#     4  11  24  40  69  95 139 174 222 274 338 399
#
# _framework density 21.5763
#
# number of rings (size 3 to 8) (size 9 to 14) (size 15 to 20)
#    0.000    0.696    3.478    4.174    0.000    4.870 
#    0.000    0.000    0.000    0.000    0.000    0.000 
#    0.000    0.000    0.000    0.000    0.000    0.000 
#
# Total GULP energy -570023.057598 kJ/mol
# GULP energy per Si atom -12391.805600 kJ/mol
# Density = 2.152719 g / cm^3
# Si number density = 21.576300 Si / 1000 Ang^3
#
#
#
# Elastic Constant Matrix: (Units=GPa)
#
#
# Indices 1 2 3 4 5 6 
#
# 1 81.1150 27.8381 40.1313 0.0000 0.0000 0.0000
# 2 27.8381 140.4899 50.6169 0.0000 0.0000 0.0000
# 3 40.1313 50.6169 128.4005 0.0000 0.0000 0.0000
# 4 0.0000 0.0000 0.0000 97.5398 0.0000 0.0000
# 5 0.0000 0.0000 0.0000 0.0000 20.0894 0.0000
# 6 0.0000 0.0000 0.0000 0.0000 0.0000 37.9576
#
#
#
# Elastic Compliance Matrix: (Units=1/GPa)
#
#
# Indices 1 2 3 4 5 6 
#
# 1 0.014843 -0.001480 -0.004056 0.000000 0.000000 0.000000
# 2 -0.001480 0.008444 -0.002866 0.000000 0.000000 0.000000
# 3 -0.004056 -0.002866 0.010186 0.000000 0.000000 0.000000
# 4 0.000000 0.000000 0.000000 0.010252 0.000000 0.000000
# 5 0.000000 0.000000 0.000000 0.000000 0.049777 0.000000
# 6 0.000000 0.000000 0.000000 0.000000 0.000000 0.026345
#
#
# Mechanical properties :
#
#
# Convention : Reuss Voigt Hill
#
# Bulk Modulus (GPa) = 59.99261 65.24201 62.61731
# Shear Modulus (GPa) = 35.16018 46.54529 40.85274
#
# Velocity S-wave (km/s) = 4.04118 4.64965 4.35605
# Velocity P-wave (km/s) = 7.04557 7.68955 7.37459
#
# Compressibility (1/GPa) = 0.01666872
#
# Stress axis : x y z
#
# Youngs Moduli (GPa) = 67.37381 118.42994 98.17819
#
# Poissons Ratio (x) = 0.17526 0.39817
# Poissons Ratio (y) = 0.09970 0.28139
# Poissons Ratio (z) = 0.27324 0.33943
#
# Static dielectric constant tensor:
#      x y z
#    x 3.750540 0.000000 0.000000 
#    y 0.000000 6.647550 0.000000 
#    z 0.000000 0.000000 4.486470 
# 
# 
# High freq. dielectric constant tensor:
#      x y z
#    x 1.832730 0.000000 0.000000 
#    y 0.000000 1.867240 0.000000 
#    z 0.000000 0.000000 1.865730 
# 
# From -- ./inp_files/31679.got.cif
#   From: 2010.03.12/outbox.cif.g09.slc.cpg/sg50_16_cif.got.tgz:31679.got - 2010.04.16 13:23:21.
