data_PCOD8205265
_publ_section_title
;
Structure prediction by ZEFSAII (Michael W. Deem and Ramdas Pophale) SiO2 
 PCOD8205265
Probable space group: P B A N
;
_chemical_formula_sum "Si O2"
_cell_formula_units_Z 48
_cell_length_a 9.450536
_cell_length_b 14.691475
_cell_length_c 15.313876
_cell_angle_alpha 90.000000
_cell_angle_beta 90.000000
_cell_angle_gamma 90.000000
_cell_volume 2126.213971
_symmetry_space_group_name_H-M "P B A N"
_symmetry_group_IT_number 50
_space_group.IT_coordinate_system_code '2'
_symmetry_cell_setting 'orthorhombic'
loop_
_space_group_symop_operation_xyz
x,y,z
1/2-x,1/2-y,z
x,1/2-y,-z
1/2-x,y,-z
-x,-y,-z
1/2+x,1/2+y,-z
-x,1/2+y,z
1/2+x,-y,z
loop_
_atom_site_type_symbol
_atom_site_label
_atom_site_fract_x
_atom_site_fract_y
_atom_site_fract_z
Si Si1 0.938653 0.425504 0.166032
Si Si2 0.842206 0.443777 0.911909
Si Si3 0.250000 0.250000 0.273902
Si Si4 0.895456 0.429037 0.362655
Si Si5 0.807276 0.905730 0.409371
Si Si6 0.969780 0.220942 0.177300
Si Si7 0.750000 0.250000 0.680530
O O1 0.776768 0.459182 0.161195
O O2 0.971723 0.439589 0.267739
O O3 0.945281 0.320459 0.137151
O O4 0.044617 0.475121 0.098614
O O5 0.931399 0.350997 0.898388
O O6 0.750000 0.443693 0.000000
O O7 0.192447 0.330641 0.333763
O O8 0.370247 0.290605 0.210609
O O9 0.785483 0.507490 0.383337
O O10 0.818210 0.331216 0.376228
O O11 0.029947 0.434734 0.426914
O O12 0.750000 0.864038 0.500000
O O13 0.868669 0.202523 0.259744
#
# Coordination Sequence:
#
# PCOD8205265 Si02
#       7
#     8   8   4   8   8   8   4
#     4  11  23  43  68 100 132 183 238 275 346 424
#     4  12  25  43  69 104 145 179 226 296 355 412
#     4  12  25  44  70 101 136 184 242 288 337 428
#     4  11  23  43  70 100 135 188 239 286 346 435
#     4  12  26  43  66 101 141 179 227 295 362 409
#     4  11  23  43  71  99 132 188 238 278 348 419
#     4  10  20  44  68 100 128 178 244 280 328 420
#
# _framework density 22.575337999999999
#
# number of rings (size 3 to 8) (size 9 to 14) (size 15 to 20)
#    0.000    0.667    6.667    3.250    4.667    1.333 
#    0.000    0.417    0.000    0.000    0.000    0.000 
#    0.000    0.000    0.000    0.000    0.000    0.000 
#
# Total GULP energy -595072.884274 kJ/mol
# GULP energy per Si atom -12397.351756 kJ/mol
# Density = 2.252396 g / cm^3
# Si number density = 22.575338 Si / 1000 Ang^3
#
#
#
# Elastic Constant Matrix: (Units=GPa)
#
#
# Indices 1 2 3 4 5 6 
#
# 1 171.8516 66.7023 40.4601 0.0000 0.0000 0.0000
# 2 66.7023 131.0754 30.9476 0.0000 0.0000 0.0000
# 3 40.4601 30.9476 67.8727 0.0000 0.0000 0.0000
# 4 0.0000 0.0000 0.0000 16.1044 0.0000 0.0000
# 5 0.0000 0.0000 0.0000 0.0000 34.3987 0.0000
# 6 0.0000 0.0000 0.0000 0.0000 0.0000 42.1324
#
#
#
# Elastic Compliance Matrix: (Units=1/GPa)
#
#
# Indices 1 2 3 4 5 6 
#
# 1 0.007823 -0.003227 -0.003192 0.000000 0.000000 0.000000
# 2 -0.003227 0.009881 -0.002582 0.000000 0.000000 0.000000
# 3 -0.003192 -0.002582 0.017813 0.000000 0.000000 0.000000
# 4 0.000000 0.000000 0.000000 0.062095 0.000000 0.000000
# 5 0.000000 0.000000 0.000000 0.000000 0.029071 0.000000
# 6 0.000000 0.000000 0.000000 0.000000 0.000000 0.023735
#
#
# Mechanical properties :
#
#
# Convention : Reuss Voigt Hill
#
# Bulk Modulus (GPa) = 57.09123 71.89106 64.49114
# Shear Modulus (GPa) = 28.69304 34.03975 31.36639
#
# Velocity S-wave (km/s) = 3.56896 3.88729 3.73152
# Velocity P-wave (km/s) = 6.50595 7.21541 6.86985
#
# Compressibility (1/GPa) = 0.01751583
#
# Stress axis : x y z
#
# Youngs Moduli (GPa) = 127.82539 101.20316 56.13779
#
# Poissons Ratio (x) = 0.32663 0.17919
# Poissons Ratio (y) = 0.41255 0.14492
# Poissons Ratio (z) = 0.40801 0.26126
#
# Static dielectric constant tensor:
#      x y z
#    x 4.446980 0.000000 0.000000 
#    y 0.000000 4.153430 0.000000 
#    z 0.000000 0.000000 3.868290 
# 
# 
# High freq. dielectric constant tensor:
#      x y z
#    x 1.915150 0.000000 0.000000 
#    y 0.000000 1.891650 0.000000 
#    z 0.000000 0.000000 1.866220 
# 
# From -- ./inp_files/28760.got.cif
#   From: 2010.03.12/outbox.cif.g09.slc.cpg/sg50_15_cif.got.tgz:28760.got - 2010.04.16 13:23:21.
