data_PCOD8205296
_publ_section_title
;
Structure prediction by ZEFSAII (Michael W. Deem and Ramdas Pophale) SiO2 
 PCOD8205296
Probable space group: P B A N
;
_chemical_formula_sum "Si O2"
_cell_formula_units_Z 64
_cell_length_a 19.358940
_cell_length_b 8.899206
_cell_length_c 20.229286
_cell_angle_alpha 90.000000
_cell_angle_beta 90.000000
_cell_angle_gamma 90.000000
_cell_volume 3485.085108
_symmetry_space_group_name_H-M "P B A N"
_symmetry_group_IT_number 50
_space_group.IT_coordinate_system_code '2'
_symmetry_cell_setting 'orthorhombic'
loop_
_space_group_symop_operation_xyz
x,y,z
1/2-x,1/2-y,z
x,1/2-y,-z
1/2-x,y,-z
-x,-y,-z
1/2+x,1/2+y,-z
-x,1/2+y,z
1/2+x,-y,z
loop_
_atom_site_type_symbol
_atom_site_label
_atom_site_fract_x
_atom_site_fract_y
_atom_site_fract_z
Si Si1 0.570300 0.924973 0.743404
Si Si2 0.572030 0.927188 0.895778
Si Si3 0.330286 0.573651 0.357461
Si Si4 0.830286 0.073651 0.357461
Si Si5 0.830976 0.427325 1.000000
Si Si6 0.668036 0.415777 0.500000
Si Si7 0.927970 0.927188 0.895778
Si Si8 0.429700 0.075027 0.743404
O O1 0.585637 0.965493 0.819353
O O2 0.562089 0.750000 0.732739
O O3 0.632687 0.984786 0.700144
O O4 0.500000 1.000000 0.718650
O O5 0.568778 0.750000 0.909562
O O6 0.500000 0.000000 0.919636
O O7 0.635185 0.000142 0.935118
O O8 0.250000 0.544034 0.346527
O O9 0.347398 0.750000 0.353178
O O10 0.354053 0.507624 0.430142
O O11 0.367313 0.484786 0.299856
O O12 0.854053 0.007624 0.430142
O O13 0.864815 0.499858 0.064882
O O14 0.844007 0.250000 0.000000
O O15 0.750000 0.466189 0.000000
O O16 0.635432 0.250000 0.500000
O O17 0.750000 0.400530 0.500000
O O18 0.914363 0.965493 0.819353
#
# Coordination Sequence:
#
# PCOD8205296 Si02
#       8
#     8   8   8   8   8   8   8   8
#     4  10  21  36  54  77 105 137 174 215 258 306
#     4  10  21  38  59  79 103 138 176 213 255 307
#     4   9  17  31  53  78 104 136 173 214 260 310
#     4   9  17  31  53  78 104 136 173 214 260 310
#     4  11  24  39  56  81 111 139 170 211 254 299
#     4   7  12  26  48  73 100 133 173 211 252 307
#     4  10  21  38  59  79 103 138 176 213 255 307
#     4  10  21  36  54  77 105 137 174 215 258 306
#
# _framework density 18.363970999999999
#
# number of rings (size 3 to 8) (size 9 to 14) (size 15 to 20)
#    0.000    2.500    0.000    3.750    0.000    5.500 
#    0.000    6.250    0.000    2.250    0.000    0.000 
#    0.000    0.000    0.000    0.000    0.000    0.000 
#
# Total GULP energy -793292.717909 kJ/mol
# GULP energy per Si atom -12395.198717 kJ/mol
# Density = 1.832217 g / cm^3
# Si number density = 18.363971 Si / 1000 Ang^3
#
#
#
# Elastic Constant Matrix: (Units=GPa)
#
#
# Indices 1 2 3 4 5 6 
#
# 1 92.2505 52.6250 65.0994 0.0000 0.0000 0.0000
# 2 52.6250 82.0624 53.1617 0.0000 0.0000 0.0000
# 3 65.0994 53.1617 120.3831 0.0000 0.0000 0.0000
# 4 0.0000 0.0000 0.0000 23.5688 0.0000 0.0000
# 5 0.0000 0.0000 0.0000 0.0000 5.0488 0.0000
# 6 0.0000 0.0000 0.0000 0.0000 0.0000 33.1997
#
#
#
# Elastic Compliance Matrix: (Units=1/GPa)
#
#
# Indices 1 2 3 4 5 6 
#
# 1 0.021135 -0.008613 -0.007625 0.000000 0.000000 0.000000
# 2 -0.008613 0.020579 -0.004430 0.000000 0.000000 0.000000
# 3 -0.007625 -0.004430 0.014387 0.000000 0.000000 0.000000
# 4 0.000000 0.000000 0.000000 0.042429 0.000000 0.000000
# 5 0.000000 0.000000 0.000000 0.000000 0.198066 0.000000
# 6 0.000000 0.000000 0.000000 0.000000 0.000000 0.030121
#
#
# Mechanical properties :
#
#
# Convention : Reuss Voigt Hill
#
# Bulk Modulus (GPa) = 67.73608 70.71870 69.22739
# Shear Modulus (GPa) = 13.40571 20.61745 17.01158
#
# Velocity S-wave (km/s) = 2.70478 3.35432 3.04691
# Velocity P-wave (km/s) = 6.83519 7.32087 7.08219
#
# Compressibility (1/GPa) = 0.01476318
#
# Stress axis : x y z
#
# Youngs Moduli (GPa) = 47.31575 48.59236 69.50911
#
# Poissons Ratio (x) = 0.41855 0.53002
# Poissons Ratio (y) = 0.40755 0.30793
# Poissons Ratio (z) = 0.36079 0.21527
#
# Static dielectric constant tensor:
#      x y z
#    x 3.209880 0.000000 0.000000 
#    y 0.000000 3.294880 0.000000 
#    z 0.000000 0.000000 3.694910 
# 
# 
# High freq. dielectric constant tensor:
#      x y z
#    x 1.695240 0.000000 0.000000 
#    y 0.000000 1.704470 0.000000 
#    z 0.000000 0.000000 1.730350 
# 
# From -- ./inp_files/31116.got.cif
#   From: 2010.03.12/outbox.cif.g09.slc.cpg/sg50_16_cif.got.tgz:31116.got - 2010.04.16 13:23:21.
