data_PCOD8205900
_publ_section_title
;
Structure prediction by ZEFSAII (Michael W. Deem and Ramdas Pophale) SiO2 
 PCOD8205900
Probable space group: P B A N
;
_chemical_formula_sum "Si O2"
_cell_formula_units_Z 52
_cell_length_a 25.384075
_cell_length_b 8.843834
_cell_length_c 11.928097
_cell_angle_alpha 90.000000
_cell_angle_beta 90.000000
_cell_angle_gamma 90.000000
_cell_volume 2677.768859
_symmetry_space_group_name_H-M "P B A N"
_symmetry_group_IT_number 50
_space_group.IT_coordinate_system_code '2'
_symmetry_cell_setting 'orthorhombic'
loop_
_space_group_symop_operation_xyz
x,y,z
1/2-x,1/2-y,z
x,1/2-y,-z
1/2-x,y,-z
-x,-y,-z
1/2+x,1/2+y,-z
-x,1/2+y,z
1/2+x,-y,z
loop_
_atom_site_type_symbol
_atom_site_label
_atom_site_fract_x
_atom_site_fract_y
_atom_site_fract_z
Si Si1 0.974231 0.700844 0.758549
Si Si2 0.111974 0.750000 0.500000
Si Si3 0.309217 0.012368 0.494188
Si Si4 0.046039 0.905249 0.062675
Si Si5 0.473521 0.933509 0.388194
Si Si6 0.383660 0.173583 0.890615
Si Si7 0.308943 0.254753 0.686054
O O1 0.948716 0.573295 0.679301
O O2 0.937061 0.736022 0.863438
O O3 0.028054 0.638520 0.811890
O O4 0.981722 0.851178 0.684596
O O5 0.149261 0.612547 0.535572
O O6 0.072816 0.688954 0.404033
O O7 0.250000 0.944647 0.500000
O O8 0.314454 0.144123 0.582660
O O9 0.321301 0.078741 0.368208
O O10 0.100068 0.001200 0.079337
O O11 0.060752 0.750000 0.000000
O O12 0.000000 0.000000 0.000000
O O13 0.500000 0.000000 0.500000
O O14 0.346162 0.196375 0.784652
O O15 0.357300 0.250000 0.000000
O O16 0.250000 0.250000 0.735352
#
# Coordination Sequence:
#
# PCOD8205900 Si02
#       7
#     8   4   8   8   8   8   8
#     4  12  22  39  58  78 126 168 208 249 294 365
#     4  12  23  36  56  90 128 162 197 254 308 364
#     4   9  20  42  68  92 118 155 204 256 315 381
#     4  12  21  40  59  84 118 163 213 255 290 354
#     4  12  25  38  51  86 129 170 203 246 306 366
#     4  12  24  38  63  91 120 165 209 252 309 361
#     4   9  21  43  68  92 120 154 201 259 318 379
#
# _framework density 19.419150999999999
#
# number of rings (size 3 to 8) (size 9 to 14) (size 15 to 20)
#    0.000    0.923    6.154    2.077    4.308    0.308 
#    0.000    0.000    0.000    0.000    0.000    1.077 
#    0.000    0.000    0.000    0.000    0.000    0.000 
#
# Total GULP energy -644412.514976 kJ/mol
# GULP energy per Si atom -12392.548365 kJ/mol
# Density = 1.937495 g / cm^3
# Si number density = 19.419151 Si / 1000 Ang^3
#
#
#
# Elastic Constant Matrix: (Units=GPa)
#
#
# Indices 1 2 3 4 5 6 
#
# 1 83.9298 38.8793 35.2894 0.0000 0.0000 0.0000
# 2 38.8793 112.8443 39.2229 0.0000 0.0000 0.0000
# 3 35.2894 39.2229 102.3415 0.0000 0.0000 0.0000
# 4 0.0000 0.0000 0.0000 35.0105 0.0000 0.0000
# 5 0.0000 0.0000 0.0000 0.0000 -147.0509 0.0000
# 6 0.0000 0.0000 0.0000 0.0000 0.0000 27.9715
#
#
#
# Elastic Compliance Matrix: (Units=1/GPa)
#
#
# Indices 1 2 3 4 5 6 
#
# 1 0.015340 -0.003976 -0.003766 0.000000 0.000000 0.000000
# 2 -0.003976 0.011254 -0.002942 0.000000 0.000000 0.000000
# 3 -0.003766 -0.002942 0.012197 0.000000 0.000000 0.000000
# 4 0.000000 0.000000 0.000000 0.028563 0.000000 0.000000
# 5 0.000000 0.000000 0.000000 0.000000 -0.006800 0.000000
# 6 0.000000 0.000000 0.000000 0.000000 0.000000 0.035751
#
#
# Mechanical properties :
#
#
# Convention : Reuss Voigt Hill
#
# Bulk Modulus (GPa) = 57.39397 58.43319 57.91358
# Shear Modulus (GPa) = 40.49206 -4.43219 18.02994
#
# Velocity S-wave (km/s) = 4.57131 -1.51239 3.05037
# Velocity P-wave (km/s) = 7.58169 5.20635 6.50339
#
# Compressibility (1/GPa) = 0.01742343
#
# Stress axis : x y z
#
# Youngs Moduli (GPa) = 65.18898 88.85370 81.98559
#
# Poissons Ratio (x) = 0.35332 0.30872
# Poissons Ratio (y) = 0.25922 0.24122
# Poissons Ratio (z) = 0.24547 0.26142
#
# Static dielectric constant tensor:
#      x y z
#    x 3.590700 0.000000 0.000000 
#    y 0.000000 3.760160 0.000000 
#    z 0.000000 0.000000 3.723280 
# 
# 
# High freq. dielectric constant tensor:
#      x y z
#    x 1.729120 0.000000 0.000000 
#    y 0.000000 1.767890 0.000000 
#    z 0.000000 0.000000 1.756800 
# 
# From -- ./inp_files/23097.got.cif
#   From: 2010.03.12/outbox.cif.g09.slc.cpg/sg50_12_cif.got.tgz:23097.got - 2010.04.16 13:23:21.
