data_PCOD8205131
_publ_section_title
;
Structure prediction by ZEFSAII (Michael W. Deem and Ramdas Pophale) SiO2 
 PCOD8205131
Probable space group: P B A N
;
_chemical_formula_sum "Si O2"
_cell_formula_units_Z 60
_cell_length_a 15.093958
_cell_length_b 13.996979
_cell_length_c 13.252161
_cell_angle_alpha 90.000000
_cell_angle_beta 90.000000
_cell_angle_gamma 90.000000
_cell_volume 2799.781578
_symmetry_space_group_name_H-M "P B A N"
_symmetry_group_IT_number 50
_space_group.IT_coordinate_system_code '2'
_symmetry_cell_setting 'orthorhombic'
loop_
_space_group_symop_operation_xyz
x,y,z
1/2-x,1/2-y,z
x,1/2-y,-z
1/2-x,y,-z
-x,-y,-z
1/2+x,1/2+y,-z
-x,1/2+y,z
1/2+x,-y,z
loop_
_atom_site_type_symbol
_atom_site_label
_atom_site_fract_x
_atom_site_fract_y
_atom_site_fract_z
Si Si1 0.437450 0.570505 0.607665
Si Si2 0.460087 0.890509 0.605152
Si Si3 0.062611 0.218617 0.312026
Si Si4 0.469968 0.744846 0.112020
Si Si5 0.612788 0.069218 0.817920
Si Si6 0.571800 0.042379 0.183759
Si Si7 0.239385 0.069433 0.114819
Si Si8 0.750000 0.750000 0.253692
O O1 0.404879 0.614689 0.500502
O O2 0.454981 0.458877 0.587514
O O3 0.531034 0.614270 0.651873
O O4 0.366368 0.585487 0.697644
O O5 0.499439 0.786758 0.623899
O O6 0.403888 0.929183 0.700321
O O7 0.166818 0.234172 0.328905
O O8 0.048346 0.237706 0.192368
O O9 0.397275 0.828333 0.128138
O O10 0.424571 0.641150 0.121843
O O11 0.511190 0.750000 0.000000
O O12 0.525844 0.002583 0.827386
O O13 0.695466 0.019127 0.868698
O O14 0.640160 0.965678 0.139478
O O15 0.265950 0.156925 0.185811
O O16 0.250000 0.103610 0.000000
#
# Coordination Sequence:
#
# PCOD8205131 Si02
#       8
#     8   8   8   8   8   8   8   4
#     4   9  17  34  58  79 105 145 188 232 288 346
#     4   9  17  34  58  79 105 145 188 232 288 346
#     4  10  21  34  54  84 117 151 192 242 292 354
#     4  10  20  36  58  79 107 151 199 247 299 351
#     4  10  22  39  58  85 118 153 198 251 300 354
#     4  10  22  39  58  85 118 153 198 251 300 354
#     4  12  25  39  59  86 120 162 205 247 297 356
#     4  12  23  36  53  82 126 162 195 242 297 356
#
# _framework density 21.430243000000001
#
# number of rings (size 3 to 8) (size 9 to 14) (size 15 to 20)
#    0.000    1.867    0.000    6.200    0.000    5.867 
#    0.000    3.333    0.000    9.600    0.000    5.600 
#    0.000    0.000    0.000    0.000    0.000    0.000 
#
# Total GULP energy -743700.179214 kJ/mol
# GULP energy per Si atom -12395.002987 kJ/mol
# Density = 2.138147 g / cm^3
# Si number density = 21.430243 Si / 1000 Ang^3
#
#
#
# Elastic Constant Matrix: (Units=GPa)
#
#
# Indices 1 2 3 4 5 6 
#
# 1 47.4056 -1.2921 -4.7095 0.0000 0.0000 0.0000
# 2 -1.2921 92.7025 1.4471 0.0000 0.0000 0.0000
# 3 -4.7095 1.4471 112.4763 0.0000 0.0000 0.0000
# 4 0.0000 0.0000 0.0000 20.6831 0.0000 0.0000
# 5 0.0000 0.0000 0.0000 0.0000 15.3499 0.0000
# 6 0.0000 0.0000 0.0000 0.0000 0.0000 20.2662
#
#
#
# Elastic Compliance Matrix: (Units=1/GPa)
#
#
# Indices 1 2 3 4 5 6 
#
# 1 0.021190 0.000282 0.000884 0.000000 0.000000 0.000000
# 2 0.000282 0.010793 -0.000127 0.000000 0.000000 0.000000
# 3 0.000884 -0.000127 0.008929 0.000000 0.000000 0.000000
# 4 0.000000 0.000000 0.000000 0.048349 0.000000 0.000000
# 5 0.000000 0.000000 0.000000 0.000000 0.065147 0.000000
# 6 0.000000 0.000000 0.000000 0.000000 0.000000 0.049343
#
#
# Mechanical properties :
#
#
# Convention : Reuss Voigt Hill
#
# Bulk Modulus (GPa) = 23.26192 27.05284 25.15738
# Shear Modulus (GPa) = 23.14767 28.40245 25.77506
#
# Velocity S-wave (km/s) = 3.29011 3.64448 3.47182
# Velocity P-wave (km/s) = 5.03105 5.51005 5.27599
#
# Compressibility (1/GPa) = 0.04298871
#
# Stress axis : x y z
#
# Youngs Moduli (GPa) = 47.19203 92.65176 111.98971
#
# Poissons Ratio (x) = -0.02609 -0.09896
# Poissons Ratio (y) = -0.01329 0.01423
# Poissons Ratio (z) = -0.04170 0.01177
#
# Static dielectric constant tensor:
#      x y z
#    x 3.304150 0.000000 0.000000 
#    y 0.000000 4.093820 0.000000 
#    z 0.000000 0.000000 4.175000 
# 
# 
# High freq. dielectric constant tensor:
#      x y z
#    x 1.779920 0.000000 0.000000 
#    y 0.000000 1.866450 0.000000 
#    z 0.000000 0.000000 1.852100 
# 
# From -- ./inp_files/26591.got.cif
#   From: 2010.03.12/outbox.cif.g09.slc.cpg/sg50_14_cif.got.tgz:26591.got - 2010.04.16 13:23:21.
