data_PCOD8205958
_publ_section_title
;
Structure prediction by ZEFSAII (Michael W. Deem and Ramdas Pophale) SiO2 
 PCOD8205958
Probable space group: P M M A
;
_chemical_formula_sum "Si O2"
_cell_formula_units_Z 64
_cell_length_a 27.164235
_cell_length_b 9.288183
_cell_length_c 16.941723
_cell_angle_alpha 90.000000
_cell_angle_beta 90.000000
_cell_angle_gamma 90.000000
_cell_volume 4274.504898
_symmetry_space_group_name_H-M "P M M A"
_symmetry_group_IT_number 51
_symmetry_cell_setting 'orthorhombic'
loop_
_space_group_symop_operation_xyz
x,y,z
1/2-x,-y,z
1/2+x,-y,-z
-x,y,-z
-x,-y,-z
1/2+x,y,-z
1/2-x,y,z
x,-y,z
loop_
_atom_site_type_symbol
_atom_site_label
_atom_site_fract_x
_atom_site_fract_y
_atom_site_fract_z
Si Si1 0.378769 0.168621 0.284289
Si Si2 0.070688 0.168786 0.131644
Si Si3 0.304740 0.828358 0.409075
Si Si4 0.614556 0.836950 0.468372
Si Si5 0.973350 0.668242 0.179204
Si Si6 0.037383 0.835929 0.395724
Si Si7 0.557973 0.340973 0.015120
Si Si8 0.443756 0.668866 0.646712
O O1 0.383165 0.201509 0.190704
O O2 0.329262 0.228971 0.326450
O O3 0.427322 0.228886 0.327601
O O4 0.379412 0.000000 0.301819
O O5 0.022412 0.238468 0.169849
O O6 0.061161 0.000000 0.122726
O O7 0.084424 0.232203 0.045599
O O8 0.250000 0.761785 0.416203
O O9 0.338212 0.777759 0.482918
O O10 0.302162 0.000000 0.408462
O O11 0.565697 0.830262 0.521611
O O12 0.605522 0.738924 0.390972
O O13 0.624468 0.000000 0.440642
O O14 0.988550 0.500000 0.175750
O O15 0.935298 0.703606 0.107112
O O16 0.945974 0.707296 0.260354
O O17 0.990450 0.733530 0.398736
O O18 0.020418 0.000000 0.377762
O O19 0.579689 0.500000 0.999465
O O20 0.500000 0.338858 0.000000
O O21 0.442222 0.500000 0.632067
#
# Coordination Sequence:
#
# PCOD8205958 Si02
#       8
#     8   8   8   8   8   8   8   8
#     4   8  14  23  37  59  82 103 129 164 201 232
#     4  10  16  23  38  58  79 101 131 167 199 231
#     4   8  14  27  46  63  79 102 133 164 195 241
#     4   9  18  29  42  59  78 102 132 164 202 242
#     4   9  18  29  37  49  74 110 142 166 193 227
#     4   9  16  28  40  52  77 110 135 159 197 237
#     4   8  15  27  38  48  71 105 137 165 192 224
#     4  11  20  27  38  56  79 106 139 171 197 229
#
# _framework density 14.972495
#
# number of rings (size 3 to 8) (size 9 to 14) (size 15 to 20)
#    0.000    3.000    1.250    3.375    0.000    4.750 
#    0.000    0.000    0.000    0.375    0.000    0.000 
#    0.000    1.000    0.000   10.250    0.000    1.250 
#
# Total GULP energy -792966.305162 kJ/mol
# GULP energy per Si atom -12390.098518 kJ/mol
# Density = 1.493842 g / cm^3
# Si number density = 14.972495 Si / 1000 Ang^3
#
#
#
# Elastic Constant Matrix: (Units=GPa)
#
#
# Indices 1 2 3 4 5 6 
#
# 1 70.3795 26.8833 49.0424 0.0000 0.0000 0.0000
# 2 26.8833 56.5830 43.6344 0.0000 0.0000 0.0000
# 3 49.0424 43.6344 109.3748 0.0000 0.0000 0.0000
# 4 0.0000 0.0000 0.0000 24.5601 0.0000 0.0000
# 5 0.0000 0.0000 0.0000 0.0000 13.4593 0.0000
# 6 0.0000 0.0000 0.0000 0.0000 0.0000 0.6181
#
#
#
# Elastic Compliance Matrix: (Units=1/GPa)
#
#
# Indices 1 2 3 4 5 6 
#
# 1 0.021267 -0.003973 -0.007951 0.000000 0.000000 0.000000
# 2 -0.003973 0.026268 -0.008698 0.000000 0.000000 0.000000
# 3 -0.007951 -0.008698 0.016178 0.000000 0.000000 0.000000
# 4 0.000000 0.000000 0.000000 0.040716 0.000000 0.000000
# 5 0.000000 0.000000 0.000000 0.000000 0.074298 0.000000
# 6 0.000000 0.000000 0.000000 0.000000 0.000000 1.617990
#
#
# Mechanical properties :
#
#
# Convention : Reuss Voigt Hill
#
# Bulk Modulus (GPa) = 44.50499 52.82862 48.66681
# Shear Modulus (GPa) = 2.70936 15.51264 9.11100
#
# Velocity S-wave (km/s) = 1.34666 3.22231 2.46949
# Velocity P-wave (km/s) = 5.67512 7.01461 6.38011
#
# Compressibility (1/GPa) = 0.02246939
#
# Stress axis : x y z
#
# Youngs Moduli (GPa) = 47.02230 38.06855 61.81215
#
# Poissons Ratio (x) = 0.15123 0.49145
# Poissons Ratio (y) = 0.18681 0.53766
# Poissons Ratio (z) = 0.37386 0.33113
#
# Static dielectric constant tensor:
#      x y z
#    x 2.689150 0.000000 0.000000 
#    y 0.000000 2.751170 0.000000 
#    z 0.000000 0.000000 3.250730 
# 
# 
# High freq. dielectric constant tensor:
#      x y z
#    x 1.515890 0.000000 0.000000 
#    y 0.000000 1.556130 0.000000 
#    z 0.000000 0.000000 1.581840 
# 
# From -- ./inp_files/30983.got.cif
#   From: 2010.03.12/outbox.cif.g09.slc.cpg/sg51_16_cif.got.tgz:30983.got - 2010.04.16 13:43:02.
