data_PCOD8205260
_publ_section_title
;
Structure prediction by ZEFSAII (Michael W. Deem and Ramdas Pophale) SiO2 
 PCOD8205260
Probable space group: P B A N
;
_chemical_formula_sum "Si O2"
_cell_formula_units_Z 60
_cell_length_a 19.418039
_cell_length_b 19.767191
_cell_length_c 6.908375
_cell_angle_alpha 90.000000
_cell_angle_beta 90.000000
_cell_angle_gamma 90.000000
_cell_volume 2651.711252
_symmetry_space_group_name_H-M "P B A N"
_symmetry_group_IT_number 50
_space_group.IT_coordinate_system_code '2'
_symmetry_cell_setting 'orthorhombic'
loop_
_space_group_symop_operation_xyz
x,y,z
1/2-x,1/2-y,z
x,1/2-y,-z
1/2-x,y,-z
-x,-y,-z
1/2+x,1/2+y,-z
-x,1/2+y,z
1/2+x,-y,z
loop_
_atom_site_type_symbol
_atom_site_label
_atom_site_fract_x
_atom_site_fract_y
_atom_site_fract_z
Si Si1 0.578405 0.105112 0.180331
Si Si2 0.541137 0.663102 0.666595
Si Si3 0.395058 0.825552 0.447784
Si Si4 0.443159 0.191053 0.230221
Si Si5 0.750000 0.937215 0.500000
Si Si6 0.812187 0.619505 0.882256
Si Si7 0.676647 0.324117 0.076441
Si Si8 0.632618 0.537506 0.787758
O O1 0.623582 0.135259 0.357234
O O2 0.503585 0.139119 0.165450
O O3 0.578052 0.024031 0.201232
O O4 0.619874 0.122451 0.987746
O O5 0.461497 0.639022 0.652015
O O6 0.570319 0.681642 0.456993
O O7 0.588248 0.603941 0.746756
O O8 0.542176 0.729121 0.809607
O O9 0.420117 0.750000 0.500000
O O10 0.327828 0.824030 0.310190
O O11 0.375536 0.170813 0.113246
O O12 0.709560 0.893651 0.660551
O O13 0.809123 0.978131 0.621284
O O14 0.750000 0.655171 0.000000
O O15 0.830956 0.550591 0.003576
O O16 0.658162 0.250000 0.000000
O O17 0.750000 0.348527 0.000000
#
# Coordination Sequence:
#
# PCOD8205260 Si02
#       8
#     8   8   8   8   4   8   8   8
#     4  11  25  44  69 105 135 176 230 283 345 417
#     4  10  20  42  69 102 135 176 225 290 343 408
#     4  11  21  43  69  96 132 176 224 278 352 400
#     4  10  20  42  72  96 136 179 232 283 347 400
#     4  10  22  48  67  92 149 188 218 292 342 416
#     4  10  23  43  68  98 136 184 233 280 343 416
#     4  11  24  42  66  99 135 177 230 290 339 407
#     4  11  25  41  68 104 139 179 231 279 352 420
#
# _framework density 22.626899000000002
#
# number of rings (size 3 to 8) (size 9 to 14) (size 15 to 20)
#    0.000    1.467    5.333    0.000    1.867    7.467 
#    0.000    5.333    0.000    0.000    0.000    0.000 
#    0.000    0.000    0.000    0.000    0.000    0.000 
#
# Total GULP energy -743665.811210 kJ/mol
# GULP energy per Si atom -12394.430187 kJ/mol
# Density = 2.257540 g / cm^3
# Si number density = 22.626899 Si / 1000 Ang^3
#
#
#
# Elastic Constant Matrix: (Units=GPa)
#
#
# Indices 1 2 3 4 5 6 
#
# 1 128.2941 48.3147 35.1881 0.0000 0.0000 0.0000
# 2 48.3147 120.0794 17.5418 0.0000 0.0000 0.0000
# 3 35.1881 17.5418 81.8764 0.0000 0.0000 0.0000
# 4 0.0000 0.0000 0.0000 18.9310 0.0000 0.0000
# 5 0.0000 0.0000 0.0000 0.0000 34.5817 0.0000
# 6 0.0000 0.0000 0.0000 0.0000 0.0000 24.7678
#
#
#
# Elastic Compliance Matrix: (Units=1/GPa)
#
#
# Indices 1 2 3 4 5 6 
#
# 1 0.010114 -0.003545 -0.003587 0.000000 0.000000 0.000000
# 2 -0.003545 0.009840 -0.000584 0.000000 0.000000 0.000000
# 3 -0.003587 -0.000584 0.013880 0.000000 0.000000 0.000000
# 4 0.000000 0.000000 0.000000 0.052824 0.000000 0.000000
# 5 0.000000 0.000000 0.000000 0.000000 0.028917 0.000000
# 6 0.000000 0.000000 0.000000 0.000000 0.000000 0.040375
#
#
# Mechanical properties :
#
#
# Convention : Reuss Voigt Hill
#
# Bulk Modulus (GPa) = 54.34732 59.14880 56.74806
# Shear Modulus (GPa) = 28.16651 30.93644 29.55148
#
# Velocity S-wave (km/s) = 3.53203 3.70163 3.61783
# Velocity P-wave (km/s) = 6.38003 6.66837 6.52579
#
# Compressibility (1/GPa) = 0.01840017
#
# Stress axis : x y z
#
# Youngs Moduli (GPa) = 98.87750 101.62952 72.04446
#
# Poissons Ratio (x) = 0.36030 0.25842
# Poissons Ratio (y) = 0.35054 0.04211
# Poissons Ratio (z) = 0.35467 0.05940
#
# Static dielectric constant tensor:
#      x y z
#    x 4.024520 0.000000 0.000000 
#    y 0.000000 3.739590 0.000000 
#    z 0.000000 0.000000 4.352360 
# 
# 
# High freq. dielectric constant tensor:
#      x y z
#    x 1.892680 0.000000 0.000000 
#    y 0.000000 1.859130 0.000000 
#    z 0.000000 0.000000 1.912050 
# 
# From -- ./inp_files/5475.got.cif
#   From: 2010.03.12/outbox.cif.g09.slc.cpg/sg50_3_cif.got.tgz:5475.got - 2010.04.16 13:23:21.
