data_PCOD8206805
_publ_section_title
;
Structure prediction by ZEFSAII (Michael W. Deem and Ramdas Pophale) SiO2 
 PCOD8206805
Probable space group: P M M A
;
_chemical_formula_sum "Si O2"
_cell_formula_units_Z 64
_cell_length_a 21.412028
_cell_length_b 8.903755
_cell_length_c 19.019275
_cell_angle_alpha 90.000000
_cell_angle_beta 90.000000
_cell_angle_gamma 90.000000
_cell_volume 3625.976306
_symmetry_space_group_name_H-M "P M M A"
_symmetry_group_IT_number 51
_symmetry_cell_setting 'orthorhombic'
loop_
_space_group_symop_operation_xyz
x,y,z
1/2-x,-y,z
1/2+x,-y,-z
-x,y,-z
-x,-y,-z
1/2+x,y,-z
1/2-x,y,z
x,-y,z
loop_
_atom_site_type_symbol
_atom_site_label
_atom_site_fract_x
_atom_site_fract_y
_atom_site_fract_z
Si Si1 0.061018 0.321888 0.046372
Si Si2 0.386739 0.825917 0.585270
Si Si3 0.564678 0.670831 0.540929
Si Si4 0.179555 0.667139 0.696609
Si Si5 0.321228 0.176414 0.970929
Si Si6 0.874375 0.678304 0.158059
Si Si7 0.511007 0.823968 0.666467
Si Si8 0.503532 0.178674 0.827416
O O1 0.063887 0.500000 0.057304
O O2 0.058432 0.236953 0.121786
O O3 0.126529 0.268095 0.013717
O O4 0.000000 0.277230 0.000000
O O5 0.384042 0.747400 0.509201
O O6 0.326547 0.776434 0.629728
O O7 0.444456 0.774507 0.634611
O O8 0.387231 0.000000 0.570153
O O9 0.500000 0.693619 0.500000
O O10 0.583168 0.500000 0.552054
O O11 0.563718 0.746270 0.617984
O O12 0.250000 0.666773 0.723025
O O13 0.158083 0.500000 0.674123
O O14 0.138996 0.724727 0.761895
O O15 0.250000 0.206691 0.998002
O O16 0.325098 0.235717 0.891030
O O17 0.336547 0.000000 0.974414
O O18 0.869983 0.500000 0.145118
O O19 0.943269 0.737298 0.141382
O O20 0.517438 0.770670 0.747119
O O21 0.520883 0.000000 0.660313
O O22 0.494778 0.000000 0.831908
#
# Coordination Sequence:
#
# PCOD8206805 Si02
#       8
#     8   8   8   8   8   8   8   8
#     4  11  23  38  57  83 110 143 183 225 275 327
#     4  10  18  30  47  68  96 131 170 212 256 302
#     4   9  17  28  45  69  95 127 163 200 246 297
#     4  10  21  34  47  67  99 139 180 220 261 308
#     4  11  24  40  59  82 107 141 184 228 275 327
#     4  11  21  34  53  76 106 143 182 222 267 319
#     4   9  18  31  47  71 101 131 165 206 256 308
#     4  11  21  34  54  79 109 144 179 220 271 321
#
# _framework density 17.650417999999998
#
# number of rings (size 3 to 8) (size 9 to 14) (size 15 to 20)
#    0.000    1.750    2.500    2.625    0.000    5.750 
#    0.000    0.000    0.000    0.000    0.000    0.875 
#    0.000    1.000    0.000    0.000    0.000    0.000 
#
# Total GULP energy -793464.055089 kJ/mol
# GULP energy per Si atom -12397.875861 kJ/mol
# Density = 1.761025 g / cm^3
# Si number density = 17.650418 Si / 1000 Ang^3
#
#
#
# Elastic Constant Matrix: (Units=GPa)
#
#
# Indices 1 2 3 4 5 6 
#
# 1 62.9683 24.5725 34.9975 0.0000 0.0000 0.0000
# 2 24.5725 63.8986 44.1535 0.0000 0.0000 0.0000
# 3 34.9975 44.1535 105.1349 0.0000 0.0000 0.0000
# 4 0.0000 0.0000 0.0000 33.5665 0.0000 0.0000
# 5 0.0000 0.0000 0.0000 0.0000 23.8461 0.0000
# 6 0.0000 0.0000 0.0000 0.0000 0.0000 23.8484
#
#
#
# Elastic Compliance Matrix: (Units=1/GPa)
#
#
# Indices 1 2 3 4 5 6 
#
# 1 0.020338 -0.004428 -0.004911 0.000000 0.000000 0.000000
# 2 -0.004428 0.023012 -0.008190 0.000000 0.000000 0.000000
# 3 -0.004911 -0.008190 0.014586 0.000000 0.000000 0.000000
# 4 0.000000 0.000000 0.000000 0.029792 0.000000 0.000000
# 5 0.000000 0.000000 0.000000 0.000000 0.041936 0.000000
# 6 0.000000 0.000000 0.000000 0.000000 0.000000 0.041932
#
#
# Mechanical properties :
#
#
# Convention : Reuss Voigt Hill
#
# Bulk Modulus (GPa) = 43.70943 48.82763 46.26853
# Shear Modulus (GPa) = 23.33404 24.80408 24.06906
#
# Velocity S-wave (km/s) = 3.63989 3.75280 3.69677
# Velocity P-wave (km/s) = 6.51788 6.81922 6.67025
#
# Compressibility (1/GPa) = 0.02287836
#
# Stress axis : x y z
#
# Youngs Moduli (GPa) = 49.16846 43.45537 68.55899
#
# Poissons Ratio (x) = 0.19242 0.33667
# Poissons Ratio (y) = 0.21772 0.56153
# Poissons Ratio (z) = 0.24145 0.35592
#
# Static dielectric constant tensor:
#      x y z
#    x 3.021150 0.000000 0.000000 
#    y 0.000000 3.273980 0.000000 
#    z 0.000000 0.000000 3.374250 
# 
# 
# High freq. dielectric constant tensor:
#      x y z
#    x 1.641410 0.000000 0.000000 
#    y 0.000000 1.694250 0.000000 
#    z 0.000000 0.000000 1.683420 
# 
# From -- ./inp_files/30567.got.cif
#   From: 2010.03.12/outbox.cif.g09.slc.cpg/sg51_16_cif.got.tgz:30567.got - 2010.04.16 13:43:02.
