data_PCOD8206269
_publ_section_title
;
Structure prediction by ZEFSAII (Michael W. Deem and Ramdas Pophale) SiO2 
 PCOD8206269
Probable space group: P M M A
;
_chemical_formula_sum "Si O2"
_cell_formula_units_Z 48
_cell_length_a 8.949048
_cell_length_b 21.169581
_cell_length_c 19.698309
_cell_angle_alpha 90.000000
_cell_angle_beta 90.000000
_cell_angle_gamma 90.000000
_cell_volume 3731.797295
_symmetry_space_group_name_H-M "P M M A"
_symmetry_group_IT_number 51
_symmetry_cell_setting 'orthorhombic'
loop_
_space_group_symop_operation_xyz
x,y,z
1/2-x,-y,z
1/2+x,-y,-z
-x,y,-z
-x,-y,-z
1/2+x,y,-z
1/2-x,y,z
x,-y,z
loop_
_atom_site_type_symbol
_atom_site_label
_atom_site_fract_x
_atom_site_fract_y
_atom_site_fract_z
Si Si1 0.428161 0.741407 0.074095
Si Si2 0.575132 0.573274 0.701552
Si Si3 0.577338 0.000000 0.071536
Si Si4 0.418272 0.575238 0.566426
Si Si5 0.073035 0.380393 0.155839
Si Si6 0.071958 0.500000 0.072750
Si Si7 0.073388 0.864900 0.926350
O O1 0.250000 0.744389 0.067174
O O2 0.481952 0.684950 0.122948
O O3 0.491622 0.805656 0.109751
O O4 0.500000 0.731280 0.000000
O O5 0.750000 0.581921 0.689719
O O6 0.535821 0.500000 0.714364
O O7 0.494699 0.600760 0.634925
O O8 0.516611 0.613002 0.766498
O O9 0.540463 0.066606 0.110526
O O10 0.750000 0.000000 0.053381
O O11 0.500000 0.000000 0.000000
O O12 0.500000 0.602957 0.500000
O O13 0.250000 0.600085 0.564852
O O14 0.427105 0.500000 0.565598
O O15 0.250000 0.384445 0.156073
O O16 0.011020 0.438469 0.111781
O O17 0.250000 0.500000 0.066649
O O18 0.000000 0.500000 0.000000
O O19 0.250000 0.851421 0.931342
O O20 0.000000 0.868567 0.000000
#
# Coordination Sequence:
#
# PCOD8206269 Si02
#       7
#     8   8   4   8   8   4   8
#     4  10  18  27  37  50  67  88 114 145 179 216
#     4   9  15  26  42  54  65  86 113 141 173 208
#     4   8  14  22  34  50  66  82 102 128 161 202
#     4   9  16  25  37  55  75  91 106 128 160 202
#     4   9  17  28  41  52  65  87 116 146 180 219
#     4  10  18  30  42  52  63  82 113 150 187 222
#     4   9  15  24  36  50  66  84 105 132 167 207
#
# _framework density 12.862435
#
# number of rings (size 3 to 8) (size 9 to 14) (size 15 to 20)
#    0.000    2.833    0.833    3.000    0.000    2.667 
#    0.000    3.333    0.000    0.000    0.000    0.000 
#    0.000    0.000    0.000    0.000    0.000    0.000 
#
# Total GULP energy -594637.569848 kJ/mol
# GULP energy per Si atom -12388.282705 kJ/mol
# Density = 1.283316 g / cm^3
# Si number density = 12.862435 Si / 1000 Ang^3
#
#
#
# Elastic Constant Matrix: (Units=GPa)
#
#
# Indices 1 2 3 4 5 6 
#
# 1 51.2007 31.1252 31.0103 0.0000 0.0000 0.0000
# 2 31.1252 106.0962 44.1408 0.0000 0.0000 0.0000
# 3 31.0103 44.1408 91.7220 0.0000 0.0000 0.0000
# 4 0.0000 0.0000 0.0000 4.0693 0.0000 0.0000
# 5 0.0000 0.0000 0.0000 0.0000 17.1014 0.0000
# 6 0.0000 0.0000 0.0000 0.0000 0.0000 13.9132
#
#
#
# Elastic Compliance Matrix: (Units=1/GPa)
#
#
# Indices 1 2 3 4 5 6 
#
# 1 0.026580 -0.005075 -0.006544 0.000000 0.000000 0.000000
# 2 -0.005075 0.012754 -0.004422 0.000000 0.000000 0.000000
# 3 -0.006544 -0.004422 0.015243 0.000000 0.000000 0.000000
# 4 0.000000 0.000000 0.000000 0.245743 0.000000 0.000000
# 5 0.000000 0.000000 0.000000 0.000000 0.058475 0.000000
# 6 0.000000 0.000000 0.000000 0.000000 0.000000 0.071874
#
#
# Mechanical properties :
#
#
# Convention : Reuss Voigt Hill
#
# Bulk Modulus (GPa) = 44.45505 51.28574 47.87039
# Shear Modulus (GPa) = 10.63266 16.53294 13.58280
#
# Velocity S-wave (km/s) = 2.87826 3.58909 3.25315
# Velocity P-wave (km/s) = 6.75891 7.55874 7.16998
#
# Compressibility (1/GPa) = 0.02249463
#
# Stress axis : x y z
#
# Youngs Moduli (GPa) = 37.62296 78.40684 65.60378
#
# Poissons Ratio (x) = 0.39791 0.42931
# Poissons Ratio (y) = 0.19094 0.29010
# Poissons Ratio (z) = 0.24620 0.34671
#
# Static dielectric constant tensor:
#      x y z
#    x 2.600810 0.000000 0.000000 
#    y 0.000000 3.079720 0.000000 
#    z 0.000000 0.000000 2.481350 
# 
# 
# High freq. dielectric constant tensor:
#      x y z
#    x 1.491460 0.000000 0.000000 
#    y 0.000000 1.469650 0.000000 
#    z 0.000000 0.000000 1.452860 
# 
# From -- ./inp_files/32481.got.cif
#   From: 2010.03.12/outbox.cif.g09.slc.cpg/sg51_17_cif.got.tgz:32481.got - 2010.04.16 13:43:02.
