data_PCOD8206784
_publ_section_title
;
Structure prediction by ZEFSAII (Michael W. Deem and Ramdas Pophale) SiO2 
 PCOD8206784
Probable space group: P M M A
;
_chemical_formula_sum "Si O2"
_cell_formula_units_Z 44
_cell_length_a 8.702089
_cell_length_b 14.111099
_cell_length_c 19.045705
_cell_angle_alpha 90.000000
_cell_angle_beta 90.000000
_cell_angle_gamma 90.000000
_cell_volume 2338.737141
_symmetry_space_group_name_H-M "P M M A"
_symmetry_group_IT_number 51
_symmetry_cell_setting 'orthorhombic'
loop_
_space_group_symop_operation_xyz
x,y,z
1/2-x,-y,z
1/2+x,-y,-z
-x,y,-z
-x,-y,-z
1/2+x,y,-z
1/2-x,y,z
x,-y,z
loop_
_atom_site_type_symbol
_atom_site_label
_atom_site_fract_x
_atom_site_fract_y
_atom_site_fract_z
Si Si1 0.570063 0.769628 0.206406
Si Si2 0.425800 0.733745 0.425614
Si Si3 0.431645 0.692589 0.076655
Si Si4 0.571820 0.391666 0.703144
Si Si5 0.433361 0.500000 0.922472
Si Si6 0.930981 0.891801 0.678321
O O1 0.750000 0.775671 0.192903
O O2 0.483457 0.773842 0.131047
O O3 0.530438 0.672435 0.246425
O O4 0.514878 0.860572 0.250321
O O5 0.500000 0.715109 0.500000
O O6 0.250000 0.752885 0.441098
O O7 0.452366 0.641515 0.377235
O O8 0.492354 0.827101 0.385997
O O9 0.250000 0.685382 0.069863
O O10 0.499873 0.595699 0.111762
O O11 0.500000 0.713992 0.000000
O O12 0.750000 0.379304 0.724690
O O13 0.517131 0.500000 0.709862
O O14 0.250000 0.500000 0.921205
O O15 0.500000 0.500000 0.000000
O O16 0.750000 0.875591 0.689560
O O17 0.972306 0.000000 0.661225
#
# Coordination Sequence:
#
# PCOD8206784 Si02
#       6
#     8   8   8   8   4   8
#     4  11  22  35  53  80 110 138 175 224 272 322
#     4   9  18  32  51  78 109 140 174 217 265 318
#     4  11  21  35  53  75 106 144 182 221 267 316
#     4   9  19  36  54  72 101 144 189 224 262 313
#     4  10  18  30  46  70 102 136 175 216 259 306
#     4   9  19  38  60  79 103 138 178 218 266 325
#
# _framework density 18.813569999999999
#
# number of rings (size 3 to 8) (size 9 to 14) (size 15 to 20)
#    0.000    2.182    0.000    6.273    1.273    4.364 
#    0.000    0.000    0.000    0.545    0.000    0.000 
#    0.000    0.000    0.000    0.000    0.000    0.000 
#
# Total GULP energy -545518.629835 kJ/mol
# GULP energy per Si atom -12398.150678 kJ/mol
# Density = 1.877075 g / cm^3
# Si number density = 18.813570 Si / 1000 Ang^3
#
#
#
# Elastic Constant Matrix: (Units=GPa)
#
#
# Indices 1 2 3 4 5 6 
#
# 1 102.7514 7.6847 26.1227 0.0000 0.0000 0.0000
# 2 7.6847 61.1002 -4.0182 0.0000 0.0000 0.0000
# 3 26.1227 -4.0182 76.8084 0.0000 0.0000 0.0000
# 4 0.0000 0.0000 0.0000 19.0628 0.0000 0.0000
# 5 0.0000 0.0000 0.0000 0.0000 34.3414 0.0000
# 6 0.0000 0.0000 0.0000 0.0000 0.0000 22.6407
#
#
#
# Elastic Compliance Matrix: (Units=1/GPa)
#
#
# Indices 1 2 3 4 5 6 
#
# 1 0.010808 -0.001607 -0.003760 0.000000 0.000000 0.000000
# 2 -0.001607 0.016662 0.001418 0.000000 0.000000 0.000000
# 3 -0.003760 0.001418 0.014372 0.000000 0.000000 0.000000
# 4 0.000000 0.000000 0.000000 0.052458 0.000000 0.000000
# 5 0.000000 0.000000 0.000000 0.000000 0.029119 0.000000
# 6 0.000000 0.000000 0.000000 0.000000 0.000000 0.044168
#
#
# Mechanical properties :
#
#
# Convention : Reuss Voigt Hill
#
# Bulk Modulus (GPa) = 29.45901 33.35982 31.40942
# Shear Modulus (GPa) = 26.76650 29.26702 28.01676
#
# Velocity S-wave (km/s) = 3.77599 3.94843 3.86317
# Velocity P-wave (km/s) = 5.89094 6.20944 6.05228
#
# Compressibility (1/GPa) = 0.03394547
#
# Stress axis : x y z
#
# Youngs Moduli (GPa) = 92.52153 60.01717 69.57795
#
# Poissons Ratio (x) = 0.09643 0.26161
# Poissons Ratio (y) = 0.14865 -0.09867
# Poissons Ratio (z) = 0.34788 -0.08511
#
# Static dielectric constant tensor:
#      x y z
#    x 3.346450 0.000000 0.000000 
#    y 0.000000 3.572330 0.000000 
#    z 0.000000 0.000000 3.538980 
# 
# 
# High freq. dielectric constant tensor:
#      x y z
#    x 1.729330 0.000000 0.000000 
#    y 0.000000 1.709370 0.000000 
#    z 0.000000 0.000000 1.733930 
# 
# From -- ./inp_files/27396.got.cif
#   From: 2010.03.12/outbox.cif.g09.slc.cpg/sg51_14_cif.got.tgz:27396.got - 2010.04.16 13:43:02.
