data_PCOD8206015
_publ_section_title
;
Structure prediction by ZEFSAII (Michael W. Deem and Ramdas Pophale) SiO2 
 PCOD8206015
Probable space group: P M M A
;
_chemical_formula_sum "Si O2"
_cell_formula_units_Z 56
_cell_length_a 24.568470
_cell_length_b 9.245543
_cell_length_c 16.297244
_cell_angle_alpha 90.000000
_cell_angle_beta 90.000000
_cell_angle_gamma 90.000000
_cell_volume 3701.900165
_symmetry_space_group_name_H-M "P M M A"
_symmetry_group_IT_number 51
_symmetry_cell_setting 'orthorhombic'
loop_
_space_group_symop_operation_xyz
x,y,z
1/2-x,-y,z
1/2+x,-y,-z
-x,y,-z
-x,-y,-z
1/2+x,y,-z
1/2-x,y,z
x,-y,z
loop_
_atom_site_type_symbol
_atom_site_label
_atom_site_fract_x
_atom_site_fract_y
_atom_site_fract_z
Si Si1 0.812443 0.330393 0.910964
Si Si2 0.088033 0.171404 0.020074
Si Si3 0.987094 0.829266 0.124223
Si Si4 0.406282 0.671544 0.385723
Si Si5 0.007268 0.170279 0.691790
Si Si6 0.938787 0.159514 0.467181
Si Si7 0.809526 0.328387 0.726471
O O1 0.750000 0.294465 0.935379
O O2 0.823503 0.500000 0.919510
O O3 0.853561 0.246682 0.970552
O O4 0.824198 0.275822 0.818193
O O5 0.046036 0.223864 0.091277
O O6 0.096929 0.000000 0.022218
O O7 0.062250 0.224646 0.933447
O O8 0.976579 0.776712 0.217204
O O9 0.987925 0.000000 0.118695
O O10 0.411642 0.500000 0.386442
O O11 0.455900 0.737870 0.336030
O O12 0.403695 0.726965 0.480004
O O13 0.352350 0.728208 0.340080
O O14 0.057860 0.201561 0.629608
O O15 0.992158 0.000000 0.689475
O O16 0.000000 0.158811 0.500000
O O17 0.912888 0.000000 0.477762
O O18 0.750000 0.268684 0.701298
O O19 0.808457 0.500000 0.727664
#
# Coordination Sequence:
#
# PCOD8206015 Si02
#       7
#     8   8   8   8   8   8   8
#     4   9  17  29  43  58  80 109 136 162 194 234
#     4   9  16  27  43  62  83 104 131 167 202 236
#     4   8  15  27  42  60  82 108 133 161 200 240
#     4  10  17  24  39  60  79 100 128 165 198 220
#     4   9  16  27  41  55  77 109 135 151 182 237
#     4   8  15  26  38  53  75 104 131 151 180 228
#     4   8  15  27  40  55  77 105 133 156 185 231
#
# _framework density 15.127364999999999
#
# number of rings (size 3 to 8) (size 9 to 14) (size 15 to 20)
#    0.000    3.286    0.000    3.857    0.000    2.857 
#    0.000    2.857    0.000    3.429    0.000    1.000 
#    0.000    5.714    0.000    0.000    0.000    0.000 
#
# Total GULP energy -693906.489431 kJ/mol
# GULP energy per Si atom -12391.187311 kJ/mol
# Density = 1.509293 g / cm^3
# Si number density = 15.127365 Si / 1000 Ang^3
#
#
#
# Elastic Constant Matrix: (Units=GPa)
#
#
# Indices 1 2 3 4 5 6 
#
# 1 92.7234 36.8309 56.0996 0.0000 0.0000 0.0000
# 2 36.8309 43.4716 33.8514 0.0000 0.0000 0.0000
# 3 56.0996 33.8514 125.9629 0.0000 0.0000 0.0000
# 4 0.0000 0.0000 0.0000 18.9006 0.0000 0.0000
# 5 0.0000 0.0000 0.0000 0.0000 24.3727 0.0000
# 6 0.0000 0.0000 0.0000 0.0000 0.0000 17.2567
#
#
#
# Elastic Compliance Matrix: (Units=1/GPa)
#
#
# Indices 1 2 3 4 5 6 
#
# 1 0.018529 -0.011726 -0.005101 0.000000 0.000000 0.000000
# 2 -0.011726 0.036513 -0.004590 0.000000 0.000000 0.000000
# 3 -0.005101 -0.004590 0.011444 0.000000 0.000000 0.000000
# 4 0.000000 0.000000 0.000000 0.052908 0.000000 0.000000
# 5 0.000000 0.000000 0.000000 0.000000 0.041030 0.000000
# 6 0.000000 0.000000 0.000000 0.000000 0.000000 0.057948
#
#
# Mechanical properties :
#
#
# Convention : Reuss Voigt Hill
#
# Bulk Modulus (GPa) = 42.28062 57.30239 49.79151
# Shear Modulus (GPa) = 18.58117 21.13106 19.85612
#
# Velocity S-wave (km/s) = 3.50854 3.74154 3.62691
# Velocity P-wave (km/s) = 6.66510 7.52513 7.10814
#
# Compressibility (1/GPa) = 0.02365150
#
# Stress axis : x y z
#
# Youngs Moduli (GPa) = 53.97050 27.38766 87.38178
#
# Poissons Ratio (x) = 0.32116 0.44571
# Poissons Ratio (y) = 0.63288 0.40108
# Poissons Ratio (z) = 0.27529 0.12571
#
# Static dielectric constant tensor:
#      x y z
#    x 2.883950 0.000000 0.000000 
#    y 0.000000 2.677620 0.000000 
#    z 0.000000 0.000000 3.373410 
# 
# 
# High freq. dielectric constant tensor:
#      x y z
#    x 1.551930 0.000000 0.000000 
#    y 0.000000 1.559100 0.000000 
#    z 0.000000 0.000000 1.578670 
# 
# From -- ./inp_files/30774.got.cif
#   From: 2010.03.12/outbox.cif.g09.slc.cpg/sg51_16_cif.got.tgz:30774.got - 2010.04.16 13:43:02.
