data_PCOD8206321
_publ_section_title
;
Structure prediction by ZEFSAII (Michael W. Deem and Ramdas Pophale) SiO2 
 PCOD8206321
Probable space group: P M M A
;
_chemical_formula_sum "Si O2"
_cell_formula_units_Z 64
_cell_length_a 25.954357
_cell_length_b 8.995516
_cell_length_c 18.182699
_cell_angle_alpha 90.000000
_cell_angle_beta 90.000000
_cell_angle_gamma 90.000000
_cell_volume 4245.166259
_symmetry_space_group_name_H-M "P M M A"
_symmetry_group_IT_number 51
_symmetry_cell_setting 'orthorhombic'
loop_
_space_group_symop_operation_xyz
x,y,z
1/2-x,-y,z
1/2+x,-y,-z
-x,y,-z
-x,-y,-z
1/2+x,y,-z
1/2-x,y,z
x,-y,z
loop_
_atom_site_type_symbol
_atom_site_label
_atom_site_fract_x
_atom_site_fract_y
_atom_site_fract_z
Si Si1 0.393318 0.825273 0.579634
Si Si2 0.690180 0.326833 0.327150
Si Si3 0.893817 0.324009 0.087617
Si Si4 0.511490 0.826735 0.165071
Si Si5 0.504054 0.172092 0.334684
Si Si6 0.947568 0.332656 0.545079
Si Si7 0.809826 0.172131 0.175582
Si Si8 0.950697 0.335999 0.948191
O O1 0.341739 0.745147 0.606845
O O2 0.439551 0.784005 0.635295
O O3 0.405271 0.764560 0.498005
O O4 0.383520 0.000000 0.575350
O O5 0.750000 0.298607 0.344328
O O6 0.677238 0.500000 0.320342
O O7 0.673727 0.249081 0.251394
O O8 0.890913 0.500000 0.098709
O O9 0.840102 0.248069 0.108708
O O10 0.938506 0.263101 0.140370
O O11 0.904120 0.283648 0.001609
O O12 0.500578 0.788189 0.249322
O O13 0.460971 0.778127 0.118326
O O14 0.521996 0.000000 0.152733
O O15 0.458806 0.263131 0.375014
O O16 0.493618 0.000000 0.350545
O O17 0.926778 0.500000 0.554602
O O18 0.000000 0.329081 0.500000
O O19 0.750000 0.195619 0.158613
O O20 0.824853 0.000000 0.181731
O O21 0.939463 0.500000 0.915248
O O22 0.000000 0.344601 0.000000
#
# Coordination Sequence:
#
# PCOD8206321 Si02
#       8
#     8   8   8   8   8   8   8   8
#     4  10  18  29  45  61  83 114 143 174 210 247
#     4  10  20  32  45  62  85 112 143 178 211 245
#     4  10  19  30  44  60  82 113 145 176 210 250
#     4  10  18  27  42  63  86 112 143 177 210 248
#     4   9  18  29  40  59  85 111 140 172 208 248
#     4   9  17  28  42  60  81 107 140 174 207 246
#     4  10  20  32  45  62  84 109 140 178 215 250
#     4   8  16  29  41  57  82 110 140 173 209 248
#
# _framework density 15.075970999999999
#
# number of rings (size 3 to 8) (size 9 to 14) (size 15 to 20)
#    0.000    2.500    0.000    3.750    0.000    8.250 
#    0.000    0.000    0.000    0.000    0.000    0.000 
#    0.000    1.000    0.000    7.000    0.000    5.500 
#
# Total GULP energy -793583.560013 kJ/mol
# GULP energy per Si atom -12399.743125 kJ/mol
# Density = 1.504166 g / cm^3
# Si number density = 15.075971 Si / 1000 Ang^3
#
#
#
# Elastic Constant Matrix: (Units=GPa)
#
#
# Indices 1 2 3 4 5 6 
#
# 1 58.6767 42.0643 40.4252 0.0000 0.0000 0.0000
# 2 42.0643 97.1230 50.6915 0.0000 0.0000 0.0000
# 3 40.4252 50.6915 85.3736 0.0000 0.0000 0.0000
# 4 0.0000 0.0000 0.0000 27.4179 0.0000 0.0000
# 5 0.0000 0.0000 0.0000 0.0000 26.4430 0.0000
# 6 0.0000 0.0000 0.0000 0.0000 0.0000 24.4553
#
#
#
# Elastic Compliance Matrix: (Units=1/GPa)
#
#
# Indices 1 2 3 4 5 6 
#
# 1 0.028845 -0.007773 -0.009043 0.000000 0.000000 0.000000
# 2 -0.007773 0.017015 -0.006422 0.000000 0.000000 0.000000
# 3 -0.009043 -0.006422 0.019808 0.000000 0.000000 0.000000
# 4 0.000000 0.000000 0.000000 0.036473 0.000000 0.000000
# 5 0.000000 0.000000 0.000000 0.000000 0.037817 0.000000
# 6 0.000000 0.000000 0.000000 0.000000 0.000000 0.040891
#
#
# Mechanical properties :
#
#
# Convention : Reuss Voigt Hill
#
# Bulk Modulus (GPa) = 52.10562 56.39279 54.24920
# Shear Modulus (GPa) = 21.39292 22.86273 22.12782
#
# Velocity S-wave (km/s) = 3.77106 3.89845 3.83528
# Velocity P-wave (km/s) = 7.32108 7.59940 7.46154
#
# Compressibility (1/GPa) = 0.01919179
#
# Stress axis : x y z
#
# Youngs Moduli (GPa) = 34.66791 58.77305 50.48379
#
# Poissons Ratio (x) = 0.45685 0.45653
# Poissons Ratio (y) = 0.26948 0.32421
# Poissons Ratio (z) = 0.31350 0.37744
#
# Static dielectric constant tensor:
#      x y z
#    x 2.768830 0.000000 0.000000 
#    y 0.000000 3.059490 0.000000 
#    z 0.000000 0.000000 2.952120 
# 
# 
# High freq. dielectric constant tensor:
#      x y z
#    x 1.542700 0.000000 0.000000 
#    y 0.000000 1.595240 0.000000 
#    z 0.000000 0.000000 1.563670 
# 
# From -- ./inp_files/30829.got.cif
#   From: 2010.03.12/outbox.cif.g09.slc.cpg/sg51_16_cif.got.tgz:30829.got - 2010.04.16 13:43:02.
