data_PCOD8206823
_publ_section_title
;
Structure prediction by ZEFSAII (Michael W. Deem and Ramdas Pophale) SiO2 
 PCOD8206823
Probable space group: P M M A
;
_chemical_formula_sum "Si O2"
_cell_formula_units_Z 44
_cell_length_a 9.191081
_cell_length_b 15.659475
_cell_length_c 19.848372
_cell_angle_alpha 90.000000
_cell_angle_beta 90.000000
_cell_angle_gamma 90.000000
_cell_volume 2856.726623
_symmetry_space_group_name_H-M "P M M A"
_symmetry_group_IT_number 51
_symmetry_cell_setting 'orthorhombic'
loop_
_space_group_symop_operation_xyz
x,y,z
1/2-x,-y,z
1/2+x,-y,-z
-x,y,-z
-x,-y,-z
1/2+x,y,-z
1/2-x,y,z
x,-y,z
loop_
_atom_site_type_symbol
_atom_site_label
_atom_site_fract_x
_atom_site_fract_y
_atom_site_fract_z
Si Si1 0.094151 0.402790 0.442105
Si Si2 0.913535 0.601600 0.935941
Si Si3 0.417641 0.401772 0.804618
Si Si4 0.576821 0.166829 0.428201
Si Si5 0.415576 0.328621 0.664272
Si Si6 0.926968 0.000000 0.573102
O O1 0.250000 0.355558 0.439032
O O2 0.118641 0.500000 0.462912
O O3 0.000000 0.355585 0.500000
O O4 0.015360 0.399460 0.370668
O O5 0.750000 0.637564 0.937840
O O6 0.914889 0.500000 0.939096
O O7 0.988458 0.632215 0.867052
O O8 0.000000 0.639345 0.000000
O O9 0.250000 0.397129 0.826332
O O10 0.457520 0.500000 0.784975
O O11 0.450926 0.335682 0.743616
O O12 0.500000 0.189464 0.500000
O O13 0.750000 0.150566 0.439610
O O14 0.550197 0.238445 0.371050
O O15 0.494314 0.085643 0.393862
O O16 0.250000 0.355592 0.651705
O O17 0.000000 0.000000 0.500000
O O18 0.750000 0.000000 0.572977
#
# Coordination Sequence:
#
# PCOD8206823 Si02
#       6
#     8   8   8   8   8   4
#     4  10  20  31  42  55  73 101 138 178 214 245
#     4   9  16  26  41  60  80 104 137 175 211 246
#     4   9  17  29  43  59  82 112 143 174 208 245
#     4  10  19  31  46  64  84 106 135 171 211 254
#     4  10  20  31  44  61  82 109 138 170 209 251
#     4  10  18  30  48  66  82 102 129 164 209 256
#
# _framework density 15.402244
#
# number of rings (size 3 to 8) (size 9 to 14) (size 15 to 20)
#    0.000    2.364    0.000    4.636    0.000    7.636 
#    0.000    1.818    0.000    0.000    0.000    0.000 
#    0.000    0.000    0.000    0.818    0.000    9.091 
#
# Total GULP energy -545154.676784 kJ/mol
# GULP energy per Si atom -12389.879018 kJ/mol
# Density = 1.536719 g / cm^3
# Si number density = 15.402244 Si / 1000 Ang^3
#
#
#
# Elastic Constant Matrix: (Units=GPa)
#
#
# Indices 1 2 3 4 5 6 
#
# 1 127.6276 32.5448 73.1407 0.0000 0.0000 0.0000
# 2 32.5448 50.1171 34.6046 0.0000 0.0000 0.0000
# 3 73.1407 34.6046 117.5448 0.0000 0.0000 0.0000
# 4 0.0000 0.0000 0.0000 11.9698 0.0000 0.0000
# 5 0.0000 0.0000 0.0000 0.0000 26.8476 0.0000
# 6 0.0000 0.0000 0.0000 0.0000 0.0000 14.0071
#
#
#
# Elastic Compliance Matrix: (Units=1/GPa)
#
#
# Indices 1 2 3 4 5 6 
#
# 1 0.012645 -0.003488 -0.006842 0.000000 0.000000 0.000000
# 2 -0.003488 0.026006 -0.005486 0.000000 0.000000 0.000000
# 3 -0.006842 -0.005486 0.014380 0.000000 0.000000 0.000000
# 4 0.000000 0.000000 0.000000 0.083544 0.000000 0.000000
# 5 0.000000 0.000000 0.000000 0.000000 0.037247 0.000000
# 6 0.000000 0.000000 0.000000 0.000000 0.000000 0.071392
#
#
# Mechanical properties :
#
#
# Convention : Reuss Voigt Hill
#
# Bulk Modulus (GPa) = 46.72787 63.98552 55.35670
# Shear Modulus (GPa) = 17.60696 20.89819 19.25258
#
# Velocity S-wave (km/s) = 3.38471 3.68751 3.53935
# Velocity P-wave (km/s) = 6.75864 7.73068 7.26095
#
# Compressibility (1/GPa) = 0.02140050
#
# Stress axis : x y z
#
# Youngs Moduli (GPa) = 79.07959 38.45277 69.54290
#
# Poissons Ratio (x) = 0.13411 0.47580
# Poissons Ratio (y) = 0.27580 0.38151
# Poissons Ratio (z) = 0.54104 0.21095
#
# Static dielectric constant tensor:
#      x y z
#    x 3.040970 0.000000 0.000000 
#    y 0.000000 2.988680 0.000000 
#    z 0.000000 0.000000 2.859790 
# 
# 
# High freq. dielectric constant tensor:
#      x y z
#    x 1.612080 0.000000 0.000000 
#    y 0.000000 1.547810 0.000000 
#    z 0.000000 0.000000 1.567940 
# 
# From -- ./inp_files/27853.got.cif
#   From: 2010.03.12/outbox.cif.g09.slc.cpg/sg51_14_cif.got.tgz:27853.got - 2010.04.16 13:43:02.
