data_PCOD8206176
_publ_section_title
;
Structure prediction by ZEFSAII (Michael W. Deem and Ramdas Pophale) SiO2 
 PCOD8206176
Probable space group: P M M A
;
_chemical_formula_sum "Si O2"
_cell_formula_units_Z 56
_cell_length_a 8.626508
_cell_length_b 19.276037
_cell_length_c 18.809356
_cell_angle_alpha 90.000000
_cell_angle_beta 90.000000
_cell_angle_gamma 90.000000
_cell_volume 3127.711644
_symmetry_space_group_name_H-M "P M M A"
_symmetry_group_IT_number 51
_symmetry_cell_setting 'orthorhombic'
loop_
_space_group_symop_operation_xyz
x,y,z
1/2-x,-y,z
1/2+x,-y,-z
-x,y,-z
-x,-y,-z
1/2+x,y,-z
1/2-x,y,z
x,-y,z
loop_
_atom_site_type_symbol
_atom_site_label
_atom_site_fract_x
_atom_site_fract_y
_atom_site_fract_z
Si Si1 0.432603 0.279576 0.344779
Si Si2 0.433749 0.574870 0.302755
Si Si3 0.066157 0.575861 0.143269
Si Si4 0.934400 0.716663 0.923913
Si Si5 0.566726 0.209177 0.208237
Si Si6 0.067454 0.158292 0.574894
Si Si7 0.567340 0.923593 0.289332
O O1 0.250000 0.269736 0.353651
O O2 0.484652 0.360550 0.352259
O O3 0.481939 0.256203 0.266285
O O4 0.517061 0.236865 0.406699
O O5 0.250000 0.574775 0.296678
O O6 0.491061 0.500000 0.333726
O O7 0.500399 0.584640 0.223000
O O8 0.250000 0.579823 0.144932
O O9 0.013377 0.500000 0.113010
O O10 0.003202 0.639183 0.095251
O O11 0.750000 0.720762 0.923476
O O12 0.001602 0.772679 0.868904
O O13 0.000000 0.737890 0.000000
O O14 0.750000 0.222256 0.213051
O O15 0.526330 0.128324 0.224665
O O16 0.250000 0.155605 0.570580
O O17 0.002054 0.107509 0.636397
O O18 0.000000 0.133673 0.500000
O O19 0.750000 0.930060 0.297222
O O20 0.494374 0.000000 0.275426
#
# Coordination Sequence:
#
# PCOD8206176 Si02
#       7
#     8   8   8   8   8   8   8
#     4  10  17  29  51  74  97 130 167 205 246 289
#     4   8  13  23  43  70  94 120 160 206 250 292
#     4   8  14  26  44  66  93 126 163 203 248 295
#     4  11  21  33  49  70  97 132 169 209 252 296
#     4  10  19  32  51  74 100 128 162 203 242 290
#     4  10  20  33  50  75 106 137 165 197 235 284
#     4   8  16  32  54  78 102 129 159 193 238 287
#
# _framework density 17.904463
#
# number of rings (size 3 to 8) (size 9 to 14) (size 15 to 20)
#    0.000    2.714    1.429    3.429    0.000    0.571 
#    0.000    0.000    0.000   19.714    0.000    0.000 
#    0.000    0.000    0.000    0.000    0.000    0.000 
#
# Total GULP energy -693955.991046 kJ/mol
# GULP energy per Si atom -12392.071269 kJ/mol
# Density = 1.786371 g / cm^3
# Si number density = 17.904463 Si / 1000 Ang^3
#
#
#
# Elastic Constant Matrix: (Units=GPa)
#
#
# Indices 1 2 3 4 5 6 
#
# 1 37.6573 21.2059 15.5708 0.0000 0.0000 0.0000
# 2 21.2059 149.2524 54.2645 0.0000 0.0000 0.0000
# 3 15.5708 54.2645 84.5908 0.0000 0.0000 0.0000
# 4 0.0000 0.0000 0.0000 19.9904 0.0000 0.0000
# 5 0.0000 0.0000 0.0000 0.0000 25.4703 0.0000
# 6 0.0000 0.0000 0.0000 0.0000 0.0000 17.6152
#
#
#
# Elastic Compliance Matrix: (Units=1/GPa)
#
#
# Indices 1 2 3 4 5 6 
#
# 1 0.029681 -0.002909 -0.003597 0.000000 0.000000 0.000000
# 2 -0.002909 0.009023 -0.005253 0.000000 0.000000 0.000000
# 3 -0.003597 -0.005253 0.015853 0.000000 0.000000 0.000000
# 4 0.000000 0.000000 0.000000 0.050024 0.000000 0.000000
# 5 0.000000 0.000000 0.000000 0.000000 0.039261 0.000000
# 6 0.000000 0.000000 0.000000 0.000000 0.000000 0.056769
#
#
# Mechanical properties :
#
#
# Convention : Reuss Voigt Hill
#
# Bulk Modulus (GPa) = 32.21744 50.39811 41.30777
# Shear Modulus (GPa) = 21.32403 24.64577 22.98490
#
# Velocity S-wave (km/s) = 3.45482 3.71417 3.58684
# Velocity P-wave (km/s) = 5.82645 6.82663 6.34627
#
# Compressibility (1/GPa) = 0.03103909
#
# Stress axis : x y z
#
# Youngs Moduli (GPa) = 33.69162 110.82529 63.07792
#
# Poissons Ratio (x) = 0.32242 0.22690
# Poissons Ratio (y) = 0.09802 0.33134
# Poissons Ratio (z) = 0.12119 0.58215
#
# Static dielectric constant tensor:
#      x y z
#    x 3.017710 0.000000 0.000000 
#    y 0.000000 3.886020 0.000000 
#    z 0.000000 0.000000 2.932440 
# 
# 
# High freq. dielectric constant tensor:
#      x y z
#    x 1.666970 0.000000 0.000000 
#    y 0.000000 1.698920 0.000000 
#    z 0.000000 0.000000 1.664080 
# 
# From -- ./inp_files/28160.got.cif
#   From: 2010.03.12/outbox.cif.g09.slc.cpg/sg51_15_cif.got.tgz:28160.got - 2010.04.16 13:43:02.
