data_PCOD8206395
_publ_section_title
;
Structure prediction by ZEFSAII (Michael W. Deem and Ramdas Pophale) SiO2 
 PCOD8206395
Probable space group: P M M A
;
_chemical_formula_sum "Si O2"
_cell_formula_units_Z 64
_cell_length_a 28.788299
_cell_length_b 9.007037
_cell_length_c 15.666333
_cell_angle_alpha 90.000000
_cell_angle_beta 90.000000
_cell_angle_gamma 90.000000
_cell_volume 4062.237445
_symmetry_space_group_name_H-M "P M M A"
_symmetry_group_IT_number 51
_symmetry_cell_setting 'orthorhombic'
loop_
_space_group_symop_operation_xyz
x,y,z
1/2-x,-y,z
1/2+x,-y,-z
-x,y,-z
-x,-y,-z
1/2+x,y,-z
1/2-x,y,z
x,-y,z
loop_
_atom_site_type_symbol
_atom_site_label
_atom_site_fract_x
_atom_site_fract_y
_atom_site_fract_z
Si Si1 0.699618 0.323772 0.913208
Si Si2 0.056762 0.177283 0.321715
Si Si3 0.547683 0.822582 0.311911
Si Si4 0.945048 0.837835 0.494583
Si Si5 0.107358 0.176324 0.847312
Si Si6 0.446594 0.673287 0.000558
Si Si7 0.892617 0.673847 0.829098
Si Si8 0.802386 0.673933 0.106701
O O1 0.750000 0.269047 0.878705
O O2 0.698077 0.500000 0.916271
O O3 0.658602 0.264573 0.853088
O O4 0.692368 0.268117 0.009758
O O5 0.070636 0.241095 0.416616
O O6 0.093328 0.240261 0.255342
O O7 0.005091 0.231785 0.295504
O O8 0.058904 0.000000 0.322454
O O9 0.566452 0.757196 0.403738
O O10 0.579723 0.763794 0.235489
O O11 0.548281 0.000000 0.317550
O O12 0.000000 0.857350 0.500000
O O13 0.921395 0.000000 0.492456
O O14 0.159941 0.236184 0.838170
O O15 0.107720 0.000000 0.850693
O O16 0.082395 0.236047 0.931578
O O17 0.440915 0.500000 0.978930
O O18 0.427459 0.710999 0.094047
O O19 0.500000 0.723923 0.000000
O O20 0.892060 0.500000 0.809326
O O21 0.750000 0.706887 0.139891
O O22 0.813492 0.500000 0.113392
#
# Coordination Sequence:
#
# PCOD8206395 Si02
#       8
#     8   8   8   8   8   8   8   8
#     4   8  14  27  46  61  74 102 145 183 210 245
#     4   9  16  27  45  65  85 112 147 180 209 250
#     4   8  15  27  42  63  89 116 144 173 211 257
#     4   7  11  23  43  62  80 108 146 180 206 245
#     4  11  20  28  43  67  93 116 141 183 227 262
#     4  10  20  32  43  57  85 125 160 180 202 252
#     4  10  18  28  42  61  85 112 142 177 215 255
#     4   9  17  32  51  64  80 112 152 187 217 259
#
# _framework density 15.754863
#
# number of rings (size 3 to 8) (size 9 to 14) (size 15 to 20)
#    0.000    3.000    1.250    3.375    0.000    1.000 
#    0.000    0.625    0.000    5.250    0.000    0.875 
#    0.000    5.000    0.000    0.000    0.000    0.000 
#
# Total GULP energy -792946.755575 kJ/mol
# GULP energy per Si atom -12389.793056 kJ/mol
# Density = 1.571900 g / cm^3
# Si number density = 15.754863 Si / 1000 Ang^3
#
#
#
# Elastic Constant Matrix: (Units=GPa)
#
#
# Indices 1 2 3 4 5 6 
#
# 1 96.6783 16.8259 35.3541 0.0000 0.0000 0.0000
# 2 16.8259 24.4945 16.7036 0.0000 0.0000 0.0000
# 3 35.3541 16.7036 83.2329 0.0000 0.0000 0.0000
# 4 0.0000 0.0000 0.0000 10.0826 0.0000 0.0000
# 5 0.0000 0.0000 0.0000 0.0000 13.5708 0.0000
# 6 0.0000 0.0000 0.0000 0.0000 0.0000 18.5815
#
#
#
# Elastic Compliance Matrix: (Units=1/GPa)
#
#
# Indices 1 2 3 4 5 6 
#
# 1 0.012956 -0.005963 -0.004307 0.000000 0.000000 0.000000
# 2 -0.005963 0.050043 -0.007510 0.000000 0.000000 0.000000
# 3 -0.004307 -0.007510 0.015351 0.000000 0.000000 0.000000
# 4 0.000000 0.000000 0.000000 0.099180 0.000000 0.000000
# 5 0.000000 0.000000 0.000000 0.000000 0.073688 0.000000
# 6 0.000000 0.000000 0.000000 0.000000 0.000000 0.053817
#
#
# Mechanical properties :
#
#
# Convention : Reuss Voigt Hill
#
# Bulk Modulus (GPa) = 23.36954 38.01920 30.69437
# Shear Modulus (GPa) = 14.09012 17.48179 15.78596
#
# Velocity S-wave (km/s) = 2.99379 3.33470 3.16883
# Velocity P-wave (km/s) = 5.17839 6.24588 5.73702
#
# Compressibility (1/GPa) = 0.04279075
#
# Stress axis : x y z
#
# Youngs Moduli (GPa) = 77.18255 19.98277 65.14280
#
# Poissons Ratio (x) = 0.11916 0.28054
# Poissons Ratio (y) = 0.46026 0.48922
# Poissons Ratio (z) = 0.33239 0.15007
#
# Static dielectric constant tensor:
#      x y z
#    x 3.165360 0.000000 0.000000 
#    y 0.000000 2.631260 0.000000 
#    z 0.000000 0.000000 3.233520 
# 
# 
# High freq. dielectric constant tensor:
#      x y z
#    x 1.591960 0.000000 0.000000 
#    y 0.000000 1.569160 0.000000 
#    z 0.000000 0.000000 1.599720 
# 
# From -- ./inp_files/26563.got.cif
#   From: 2010.03.12/outbox.cif.g09.slc.cpg/sg51_14_cif.got.tgz:26563.got - 2010.04.16 13:43:02.
