data_PCOD8206489
_publ_section_title
;
Structure prediction by ZEFSAII (Michael W. Deem and Ramdas Pophale) SiO2 
 PCOD8206489
Probable space group: P M M A
;
_chemical_formula_sum "Si O2"
_cell_formula_units_Z 56
_cell_length_a 18.493290
_cell_length_b 9.218119
_cell_length_c 19.213484
_cell_angle_alpha 90.000000
_cell_angle_beta 90.000000
_cell_angle_gamma 90.000000
_cell_volume 3275.386943
_symmetry_space_group_name_H-M "P M M A"
_symmetry_group_IT_number 51
_symmetry_cell_setting 'orthorhombic'
loop_
_space_group_symop_operation_xyz
x,y,z
1/2-x,-y,z
1/2+x,-y,-z
-x,y,-z
-x,-y,-z
1/2+x,y,-z
1/2-x,y,z
x,-y,z
loop_
_atom_site_type_symbol
_atom_site_label
_atom_site_fract_x
_atom_site_fract_y
_atom_site_fract_z
Si Si1 0.596487 0.172551 0.226964
Si Si2 0.663836 0.838772 0.936146
Si Si3 0.668431 0.330053 0.350235
Si Si4 0.036325 0.668837 0.285633
Si Si5 0.029153 0.330131 0.571198
Si Si6 0.330823 0.331095 0.196750
Si Si7 0.169793 0.172295 0.912997
O O1 0.654443 0.241102 0.279934
O O2 0.516918 0.234347 0.239620
O O3 0.617684 0.222052 0.149146
O O4 0.597304 0.000000 0.236185
O O5 0.750000 0.842390 0.937071
O O6 0.635967 0.740478 0.872748
O O7 0.632444 0.000000 0.924045
O O8 0.638501 0.775856 0.011605
O O9 0.750000 0.299396 0.376820
O O10 0.656649 0.500000 0.333930
O O11 0.610469 0.277494 0.408704
O O12 0.017280 0.500000 0.273452
O O13 0.118150 0.704975 0.262599
O O14 0.026570 0.709413 0.366806
O O15 0.032215 0.500000 0.558607
O O16 0.000000 0.254786 0.500000
O O17 0.250000 0.272832 0.214032
O O18 0.328628 0.500000 0.181402
O O19 0.250000 0.237146 0.899830
O O20 0.175555 0.000000 0.915749
#
# Coordination Sequence:
#
# PCOD8206489 Si02
#       7
#     8   8   8   8   8   8   8
#     4  10  18  28  45  67  90 118 152 187 221 262
#     4   8  14  26  44  63  83 110 144 182 223 262
#     4   9  17  29  45  67  95 124 152 184 224 267
#     4   9  18  32  47  64  90 119 144 178 226 273
#     4   8  14  27  47  67  88 117 149 178 212 258
#     4   9  17  30  47  65  85 111 145 184 224 266
#     4   8  14  25  41  62  87 113 144 184 224 257
#
# _framework density 17.097218000000002
#
# number of rings (size 3 to 8) (size 9 to 14) (size 15 to 20)
#    0.000    3.286    0.000    2.571    0.000    1.429 
#    0.000    2.857    0.000   18.857    0.000    0.000 
#    0.000    4.571    0.000    0.000    0.000    0.000 
#
# Total GULP energy -693922.106681 kJ/mol
# GULP energy per Si atom -12391.466191 kJ/mol
# Density = 1.705830 g / cm^3
# Si number density = 17.097218 Si / 1000 Ang^3
#
#
#
# Elastic Constant Matrix: (Units=GPa)
#
#
# Indices 1 2 3 4 5 6 
#
# 1 99.8903 27.0932 76.7423 0.0000 0.0000 0.0000
# 2 27.0932 35.4106 31.0519 0.0000 0.0000 0.0000
# 3 76.7423 31.0519 145.7391 0.0000 0.0000 0.0000
# 4 0.0000 0.0000 0.0000 10.8565 0.0000 0.0000
# 5 0.0000 0.0000 0.0000 0.0000 25.0251 0.0000
# 6 0.0000 0.0000 0.0000 0.0000 0.0000 17.3291
#
#
#
# Elastic Compliance Matrix: (Units=1/GPa)
#
#
# Indices 1 2 3 4 5 6 
#
# 1 0.018027 -0.006725 -0.008060 0.000000 0.000000 0.000000
# 2 -0.006725 0.037238 -0.004393 0.000000 0.000000 0.000000
# 3 -0.008060 -0.004393 0.012041 0.000000 0.000000 0.000000
# 4 0.000000 0.000000 0.000000 0.092111 0.000000 0.000000
# 5 0.000000 0.000000 0.000000 0.000000 0.039960 0.000000
# 6 0.000000 0.000000 0.000000 0.000000 0.000000 0.057706
#
#
# Mechanical properties :
#
#
# Convention : Reuss Voigt Hill
#
# Bulk Modulus (GPa) = 34.54098 61.20163 47.87130
# Shear Modulus (GPa) = 16.38868 20.38564 18.38716
#
# Velocity S-wave (km/s) = 3.09942 3.45677 3.28296
# Velocity P-wave (km/s) = 5.74935 7.19766 6.51388
#
# Compressibility (1/GPa) = 0.02895112
#
# Stress axis : x y z
#
# Youngs Moduli (GPa) = 55.47238 26.85444 83.04619
#
# Poissons Ratio (x) = 0.18060 0.66932
# Poissons Ratio (y) = 0.37306 0.36480
# Poissons Ratio (z) = 0.44709 0.11796
#
# Static dielectric constant tensor:
#      x y z
#    x 3.206670 0.000000 0.000000 
#    y 0.000000 2.969320 0.000000 
#    z 0.000000 0.000000 3.493870 
# 
# 
# High freq. dielectric constant tensor:
#      x y z
#    x 1.645680 0.000000 0.000000 
#    y 0.000000 1.628910 0.000000 
#    z 0.000000 0.000000 1.657320 
# 
# From -- ./inp_files/33683.got.cif
#   From: 2010.03.12/outbox.cif.g09.slc.cpg/sg51_17_cif.got.tgz:33683.got - 2010.04.16 13:43:02.
