data_PCOD8206319
_publ_section_title
;
Structure prediction by ZEFSAII (Michael W. Deem and Ramdas Pophale) SiO2 
 PCOD8206319
Probable space group: P M M A
;
_chemical_formula_sum "Si O2"
_cell_formula_units_Z 64
_cell_length_a 9.617629
_cell_length_b 14.569850
_cell_length_c 28.693337
_cell_angle_alpha 90.000000
_cell_angle_beta 90.000000
_cell_angle_gamma 90.000000
_cell_volume 4020.723052
_symmetry_space_group_name_H-M "P M M A"
_symmetry_group_IT_number 51
_symmetry_cell_setting 'orthorhombic'
loop_
_space_group_symop_operation_xyz
x,y,z
1/2-x,-y,z
1/2+x,-y,-z
-x,y,-z
-x,-y,-z
1/2+x,y,-z
1/2-x,y,z
x,-y,z
loop_
_atom_site_type_symbol
_atom_site_label
_atom_site_fract_x
_atom_site_fract_y
_atom_site_fract_z
Si Si1 0.404385 0.890999 0.540686
Si Si2 0.084705 0.897448 0.642976
Si Si3 0.910300 0.603232 0.222820
Si Si4 0.088088 0.785863 0.730694
Si Si5 0.586147 0.281794 0.955802
Si Si6 0.408245 0.393421 0.134669
Si Si7 0.408941 0.893277 0.195635
Si Si8 0.414697 0.900237 0.091061
O O1 0.500000 0.848252 0.500000
O O2 0.250000 0.849164 0.534776
O O3 0.468190 0.866300 0.591673
O O4 0.396875 0.000000 0.536091
O O5 0.250000 0.901168 0.640713
O O6 0.032347 0.823198 0.680943
O O7 0.028693 0.000000 0.655611
O O8 0.750000 0.604858 0.207462
O O9 0.953484 0.500000 0.239090
O O10 0.936751 0.675718 0.264818
O O11 0.998508 0.635880 0.178350
O O12 0.250000 0.810286 0.736184
O O13 0.007448 0.836090 0.771323
O O14 0.750000 0.290491 0.966126
O O15 0.541616 0.341610 0.911472
O O16 0.538755 0.177047 0.945494
O O17 0.500000 0.317733 0.000000
O O18 0.250000 0.366258 0.146847
O O19 0.424030 0.500000 0.123798
O O20 0.250000 0.859955 0.201742
O O21 0.463782 0.874865 0.143214
O O22 0.421489 0.000000 0.208224
O O23 0.250000 0.906155 0.093205
O O24 0.475527 0.000000 0.075822
#
# Coordination Sequence:
#
# PCOD8206319 Si02
#       8
#     8   8   8   8   8   8   8   8
#     4   8  13  22  36  52  72 102 139 175 207 239
#     4   8  14  24  37  55  81 112 143 171 202 245
#     4   9  18  31  46  66  89 110 136 173 212 244
#     4  10  18  27  42  62  86 116 143 169 206 252
#     4  10  20  32  46  64  84 104 128 160 196 236
#     4   9  18  33  51  67  82 104 134 163 195 244
#     4   9  17  29  45  64  85 110 140 172 204 239
#     4   8  15  29  46  60  77 105 136 161 190 231
#
# _framework density 15.917536
#
# number of rings (size 3 to 8) (size 9 to 14) (size 15 to 20)
#    0.000    3.125    0.000    2.625    0.000    3.250 
#    0.000    1.250    0.000    3.000    0.000    0.000 
#    0.000    0.500    0.000    0.375    0.000    0.750 
#
# Total GULP energy -793186.101410 kJ/mol
# GULP energy per Si atom -12393.532835 kJ/mol
# Density = 1.588131 g / cm^3
# Si number density = 15.917536 Si / 1000 Ang^3
#
#
#
# Elastic Constant Matrix: (Units=GPa)
#
#
# Indices 1 2 3 4 5 6 
#
# 1 36.6394 25.2473 32.9667 0.0000 0.0000 0.0000
# 2 25.2473 66.4635 56.5985 0.0000 0.0000 0.0000
# 3 32.9667 56.5985 103.3262 0.0000 0.0000 0.0000
# 4 0.0000 0.0000 0.0000 17.5651 0.0000 0.0000
# 5 0.0000 0.0000 0.0000 0.0000 22.4300 0.0000
# 6 0.0000 0.0000 0.0000 0.0000 0.0000 15.5480
#
#
#
# Elastic Compliance Matrix: (Units=1/GPa)
#
#
# Indices 1 2 3 4 5 6 
#
# 1 0.040545 -0.008220 -0.008434 0.000000 0.000000 0.000000
# 2 -0.008220 0.029867 -0.013737 0.000000 0.000000 0.000000
# 3 -0.008434 -0.013737 0.019894 0.000000 0.000000 0.000000
# 4 0.000000 0.000000 0.000000 0.056931 0.000000 0.000000
# 5 0.000000 0.000000 0.000000 0.000000 0.044583 0.000000
# 6 0.000000 0.000000 0.000000 0.000000 0.000000 0.064317
#
#
# Mechanical properties :
#
#
# Convention : Reuss Voigt Hill
#
# Bulk Modulus (GPa) = 33.87077 48.45045 41.16061
# Shear Modulus (GPa) = 15.30174 17.21639 16.25907
#
# Velocity S-wave (km/s) = 3.10387 3.29233 3.19949
# Velocity P-wave (km/s) = 5.84555 6.70501 6.28997
#
# Compressibility (1/GPa) = 0.02952398
#
# Stress axis : x y z
#
# Youngs Moduli (GPa) = 24.66365 33.48210 50.26734
#
# Poissons Ratio (x) = 0.27523 0.42393
# Poissons Ratio (y) = 0.20274 0.69054
# Poissons Ratio (z) = 0.20800 0.45995
#
# Static dielectric constant tensor:
#      x y z
#    x 2.887560 0.000000 0.000000 
#    y 0.000000 3.223210 0.000000 
#    z 0.000000 0.000000 3.130720 
# 
# 
# High freq. dielectric constant tensor:
#      x y z
#    x 1.588230 0.000000 0.000000 
#    y 0.000000 1.598350 0.000000 
#    z 0.000000 0.000000 1.599300 
# 
# From -- ./inp_files/37604.got.cif
#   From: 2010.03.12/outbox.cif.g09.slc.cpg/sg51_19_cif.got.tgz:37604.got - 2010.04.16 13:43:02.
