data_PCOD8206129
_publ_section_title
;
Structure prediction by ZEFSAII (Michael W. Deem and Ramdas Pophale) SiO2 
 PCOD8206129
Probable space group: P M M A
;
_chemical_formula_sum "Si O2"
_cell_formula_units_Z 64
_cell_length_a 19.853056
_cell_length_b 8.956281
_cell_length_c 19.918853
_cell_angle_alpha 90.000000
_cell_angle_beta 90.000000
_cell_angle_gamma 90.000000
_cell_volume 3541.762253
_symmetry_space_group_name_H-M "P M M A"
_symmetry_group_IT_number 51
_symmetry_cell_setting 'orthorhombic'
loop_
_space_group_symop_operation_xyz
x,y,z
1/2-x,-y,z
1/2+x,-y,-z
-x,y,-z
-x,-y,-z
1/2+x,y,-z
1/2-x,y,z
x,-y,z
loop_
_atom_site_type_symbol
_atom_site_label
_atom_site_fract_x
_atom_site_fract_y
_atom_site_fract_z
Si Si1 0.172833 0.174049 0.468394
Si Si2 0.563287 0.822524 0.300426
Si Si3 0.961876 0.323941 0.160522
Si Si4 0.177217 0.826911 0.232695
Si Si5 0.593225 0.829362 0.891376
Si Si6 0.081491 0.822749 0.345711
Si Si7 0.172174 0.673489 0.608208
Si Si8 0.078243 0.664777 0.981795
O O1 0.250000 0.202141 0.444083
O O2 0.119526 0.231593 0.412894
O O3 0.155865 0.267582 0.534210
O O4 0.161995 0.000000 0.484557
O O5 0.566191 0.761380 0.224897
O O6 0.495724 0.766615 0.339612
O O7 0.628265 0.762449 0.338377
O O8 0.565781 0.000000 0.297279
O O9 0.963436 0.500000 0.174641
O O10 0.913672 0.286916 0.096242
O O11 0.036476 0.271055 0.142757
O O12 0.250000 0.750392 0.244008
O O13 0.158536 0.808835 0.154768
O O14 0.121957 0.754392 0.282175
O O15 0.182261 0.000000 0.251917
O O16 0.568014 0.000000 0.893283
O O17 0.613996 0.778324 0.966631
O O18 0.081630 0.000000 0.343334
O O19 0.250000 0.702317 0.626290
O O20 0.153699 0.500000 0.611387
O O21 0.109159 0.500000 0.992364
O O22 0.000000 0.663207 0.000000
#
# Coordination Sequence:
#
# PCOD8206129 Si02
#       8
#     8   8   8   8   8   8   8   8
#     4   9  17  32  56  80 102 136 180 218 250 293
#     4  11  21  34  55  82 109 133 169 219 264 309
#     4  10  19  32  49  71 102 137 170 208 263 319
#     4   9  16  27  45  71 105 142 177 213 256 306
#     4  10  17  27  46  73 100 130 175 223 262 301
#     4   9  17  30  49  78 109 135 170 216 260 301
#     4  10  22  40  58  76 102 136 171 208 260 324
#     4   8  16  29  45  66  94 131 169 206 254 311
#
# _framework density 18.070101000000001
#
# number of rings (size 3 to 8) (size 9 to 14) (size 15 to 20)
#    0.000    2.500    1.250    2.625    0.000    5.500 
#    0.000    3.750    0.000    2.250    0.000    3.500 
#    0.000    0.000    0.000    0.000    0.000    0.000 
#
# Total GULP energy -793255.084115 kJ/mol
# GULP energy per Si atom -12394.610689 kJ/mol
# Density = 1.802897 g / cm^3
# Si number density = 18.070101 Si / 1000 Ang^3
#
#
#
# Elastic Constant Matrix: (Units=GPa)
#
#
# Indices 1 2 3 4 5 6 
#
# 1 80.8297 35.7790 63.4349 0.0000 0.0000 0.0000
# 2 35.7790 70.6053 53.9971 0.0000 0.0000 0.0000
# 3 63.4349 53.9971 141.3984 0.0000 0.0000 0.0000
# 4 0.0000 0.0000 0.0000 22.6118 0.0000 0.0000
# 5 0.0000 0.0000 0.0000 0.0000 16.1680 0.0000
# 6 0.0000 0.0000 0.0000 0.0000 0.0000 11.8129
#
#
#
# Elastic Compliance Matrix: (Units=1/GPa)
#
#
# Indices 1 2 3 4 5 6 
#
# 1 0.020121 -0.004651 -0.007250 0.000000 0.000000 0.000000
# 2 -0.004651 0.021081 -0.005964 0.000000 0.000000 0.000000
# 3 -0.007250 -0.005964 0.012602 0.000000 0.000000 0.000000
# 4 0.000000 0.000000 0.000000 0.044225 0.000000 0.000000
# 5 0.000000 0.000000 0.000000 0.000000 0.061850 0.000000
# 6 0.000000 0.000000 0.000000 0.000000 0.000000 0.084654
#
#
# Mechanical properties :
#
#
# Convention : Reuss Voigt Hill
#
# Bulk Modulus (GPa) = 55.32999 66.58394 60.95697
# Shear Modulus (GPa) = 17.46491 19.42669 18.44580
#
# Velocity S-wave (km/s) = 3.11225 3.28239 3.19845
# Velocity P-wave (km/s) = 6.60310 7.16191 6.88817
#
# Compressibility (1/GPa) = 0.01807338
#
# Stress axis : x y z
#
# Youngs Moduli (GPa) = 49.70023 47.43567 79.34976
#
# Poissons Ratio (x) = 0.22063 0.57532
# Poissons Ratio (y) = 0.23116 0.47323
# Poissons Ratio (z) = 0.36035 0.28290
#
# Static dielectric constant tensor:
#      x y z
#    x 3.227110 0.000000 0.000000 
#    y 0.000000 3.210340 0.000000 
#    z 0.000000 0.000000 3.677910 
# 
# 
# High freq. dielectric constant tensor:
#      x y z
#    x 1.671550 0.000000 0.000000 
#    y 0.000000 1.681460 0.000000 
#    z 0.000000 0.000000 1.711410 
# 
# From -- ./inp_files/33858.got.cif
#   From: 2010.03.12/outbox.cif.g09.slc.cpg/sg51_17_cif.got.tgz:33858.got - 2010.04.16 13:43:02.
