data_PCOD8206329
_publ_section_title
;
Structure prediction by ZEFSAII (Michael W. Deem and Ramdas Pophale) SiO2 
 PCOD8206329
Probable space group: P M M A
;
_chemical_formula_sum "Si O2"
_cell_formula_units_Z 48
_cell_length_a 8.834915
_cell_length_b 24.468788
_cell_length_c 13.634230
_cell_angle_alpha 90.000000
_cell_angle_beta 90.000000
_cell_angle_gamma 90.000000
_cell_volume 2947.443235
_symmetry_space_group_name_H-M "P M M A"
_symmetry_group_IT_number 51
_symmetry_cell_setting 'orthorhombic'
loop_
_space_group_symop_operation_xyz
x,y,z
1/2-x,-y,z
1/2+x,-y,-z
-x,y,-z
-x,-y,-z
1/2+x,y,-z
1/2-x,y,z
x,-y,z
loop_
_atom_site_type_symbol
_atom_site_label
_atom_site_fract_x
_atom_site_fract_y
_atom_site_fract_z
Si Si1 0.928856 0.722188 0.702599
Si Si2 0.070592 0.176355 0.607685
Si Si3 0.425260 0.336738 0.101201
Si Si4 0.926552 0.057641 0.395157
Si Si5 0.429321 0.379664 0.601998
Si Si6 0.573978 0.438078 0.777157
O O1 0.750000 0.721392 0.684951
O O2 0.970787 0.706118 0.814070
O O3 0.996297 0.781732 0.683293
O O4 0.004048 0.679576 0.628163
O O5 0.250000 0.186119 0.600779
O O6 0.029432 0.115968 0.653506
O O7 0.000000 0.184140 0.500000
O O8 0.250000 0.335164 0.080598
O O9 0.475429 0.397758 0.134708
O O10 0.500000 0.319225 0.000000
O O11 0.750000 0.058484 0.413470
O O12 0.000000 0.055830 0.500000
O O13 0.971125 0.000000 0.338541
O O14 0.500000 0.399372 0.500000
O O15 0.250000 0.375751 0.594006
O O16 0.475327 0.424990 0.681688
O O17 0.750000 0.427779 0.750689
O O18 0.543549 0.500000 0.811168
#
# Coordination Sequence:
#
# PCOD8206329 Si02
#       6
#     8   8   8   8   8   8
#     4  10  20  34  48  65  91 119 149 185 225 267
#     4  10  18  27  42  65  92 124 159 191 223 259
#     4   9  19  34  52  71  90 114 141 176 223 270
#     4   8  14  24  37  55  83 119 156 190 221 254
#     4  11  21  33  49  68  91 120 153 186 221 260
#     4   9  19  36  53  70  94 120 146 177 214 259
#
# _framework density 16.285299999999999
#
# number of rings (size 3 to 8) (size 9 to 14) (size 15 to 20)
#    0.000    2.500    0.000    4.000    0.000    5.000 
#    0.000    0.000    0.000    0.000    0.000    0.000 
#    0.000    0.667    0.000    1.500    0.000    2.667 
#
# Total GULP energy -594778.566579 kJ/mol
# GULP energy per Si atom -12391.220137 kJ/mol
# Density = 1.624823 g / cm^3
# Si number density = 16.285300 Si / 1000 Ang^3
#
#
#
# Elastic Constant Matrix: (Units=GPa)
#
#
# Indices 1 2 3 4 5 6 
#
# 1 72.2322 40.0433 34.5690 0.0000 0.0000 0.0000
# 2 40.0433 137.4210 40.1525 0.0000 0.0000 0.0000
# 3 34.5690 40.1525 83.6209 0.0000 0.0000 0.0000
# 4 0.0000 0.0000 0.0000 7.5040 0.0000 0.0000
# 5 0.0000 0.0000 0.0000 0.0000 25.2038 0.0000
# 6 0.0000 0.0000 0.0000 0.0000 0.0000 19.2998
#
#
#
# Elastic Compliance Matrix: (Units=1/GPa)
#
#
# Indices 1 2 3 4 5 6 
#
# 1 0.018766 -0.003724 -0.005970 0.000000 0.000000 0.000000
# 2 -0.003724 0.009203 -0.002880 0.000000 0.000000 0.000000
# 3 -0.005970 -0.002880 0.015809 0.000000 0.000000 0.000000
# 4 0.000000 0.000000 0.000000 0.133263 0.000000 0.000000
# 5 0.000000 0.000000 0.000000 0.000000 0.039677 0.000000
# 6 0.000000 0.000000 0.000000 0.000000 0.000000 0.051814
#
#
# Mechanical properties :
#
#
# Convention : Reuss Voigt Hill
#
# Bulk Modulus (GPa) = 53.67156 58.08930 55.88043
# Shear Modulus (GPa) = 16.67284 22.30212 19.48748
#
# Velocity S-wave (km/s) = 3.20315 3.70464 3.46299
# Velocity P-wave (km/s) = 6.83439 7.35162 7.09772
#
# Compressibility (1/GPa) = 0.01863184
#
# Stress axis : x y z
#
# Youngs Moduli (GPa) = 53.28896 108.65482 63.25359
#
# Poissons Ratio (x) = 0.40462 0.37760
# Poissons Ratio (y) = 0.19844 0.18216
# Poissons Ratio (z) = 0.31811 0.31290
#
# Static dielectric constant tensor:
#      x y z
#    x 3.105270 0.000000 0.000000 
#    y 0.000000 3.597660 0.000000 
#    z 0.000000 0.000000 2.874570 
# 
# 
# High freq. dielectric constant tensor:
#      x y z
#    x 1.636320 0.000000 0.000000 
#    y 0.000000 1.635820 0.000000 
#    z 0.000000 0.000000 1.583560 
# 
# From -- ./inp_files/14423.got.cif
#   From: 2010.03.12/outbox.cif.g09.slc.cpg/sg51_8_cif.got.tgz:14423.got - 2010.04.16 13:43:02.
