data_PCOD8206920
_publ_section_title
;
Structure prediction by ZEFSAII (Michael W. Deem and Ramdas Pophale) SiO2 
 PCOD8206920
Probable space group: P M M A
;
_chemical_formula_sum "Si O2"
_cell_formula_units_Z 64
_cell_length_a 8.687795
_cell_length_b 19.961882
_cell_length_c 20.595057
_cell_angle_alpha 90.000000
_cell_angle_beta 90.000000
_cell_angle_gamma 90.000000
_cell_volume 3571.692377
_symmetry_space_group_name_H-M "P M M A"
_symmetry_group_IT_number 51
_symmetry_cell_setting 'orthorhombic'
loop_
_space_group_symop_operation_xyz
x,y,z
1/2-x,-y,z
1/2+x,-y,-z
-x,y,-z
-x,-y,-z
1/2+x,y,-z
1/2-x,y,z
x,-y,z
loop_
_atom_site_type_symbol
_atom_site_label
_atom_site_fract_x
_atom_site_fract_y
_atom_site_fract_z
Si Si1 0.430601 0.213470 0.256160
Si Si2 0.570488 0.422491 0.430812
Si Si3 0.927495 0.784137 0.115734
Si Si4 0.428964 0.644771 0.308486
Si Si5 0.571542 0.070591 0.731187
Si Si6 0.069307 0.576613 0.815061
Si Si7 0.574619 0.071565 0.132849
Si Si8 0.929462 0.656564 0.933867
O O1 0.250000 0.208367 0.237428
O O2 0.527692 0.224092 0.191005
O O3 0.461457 0.275770 0.303382
O O4 0.485746 0.144183 0.293397
O O5 0.500000 0.403868 0.500000
O O6 0.750000 0.405402 0.430868
O O7 0.540703 0.500000 0.413823
O O8 0.484053 0.377107 0.378914
O O9 0.750000 0.763225 0.107772
O O10 0.957506 0.861030 0.091029
O O11 0.028497 0.735024 0.071684
O O12 0.250000 0.628352 0.298989
O O13 0.522920 0.604658 0.254680
O O14 0.750000 0.065349 0.716341
O O15 0.543689 0.071612 0.808052
O O16 0.496270 0.000000 0.702949
O O17 0.250000 0.584031 0.823560
O O18 0.015725 0.500000 0.819774
O O19 0.988913 0.617520 0.871640
O O20 0.750000 0.076682 0.159721
O O21 0.554237 0.000000 0.094397
O O22 0.750000 0.647263 0.937880
O O23 0.000000 0.626459 0.000000
#
# Coordination Sequence:
#
# PCOD8206920 Si02
#       8
#     8   8   8   8   8   8   8   8
#     4   9  17  28  44  70 102 136 172 211 254 299
#     4  10  21  37  56  78 106 141 180 220 260 307
#     4  10  18  30  50  73  99 131 167 209 256 307
#     4  11  21  33  53  81 113 146 177 213 254 303
#     4   8  13  22  37  59  91 130 169 207 247 292
#     4  11  24  41  60  82 106 132 167 211 258 310
#     4   8  14  24  40  65  95 126 160 199 246 299
#     4  12  25  41  59  77  99 129 167 213 263 319
#
# _framework density 17.918676000000001
#
# number of rings (size 3 to 8) (size 9 to 14) (size 15 to 20)
#    0.000    2.125    1.250    3.000    0.000    4.500 
#    0.000    0.000    0.000    0.375    0.000    0.000 
#    0.000    0.500    0.000    0.875    0.000    1.500 
#
# Total GULP energy -792914.086820 kJ/mol
# GULP energy per Si atom -12389.282607 kJ/mol
# Density = 1.787789 g / cm^3
# Si number density = 17.918676 Si / 1000 Ang^3
#
#
#
# Elastic Constant Matrix: (Units=GPa)
#
#
# Indices 1 2 3 4 5 6 
#
# 1 50.7192 34.5345 16.5828 0.0000 0.0000 0.0000
# 2 34.5345 125.8194 36.3431 0.0000 0.0000 0.0000
# 3 16.5828 36.3431 63.4740 0.0000 0.0000 0.0000
# 4 0.0000 0.0000 0.0000 3.1601 0.0000 0.0000
# 5 0.0000 0.0000 0.0000 0.0000 25.5669 0.0000
# 6 0.0000 0.0000 0.0000 0.0000 0.0000 17.6361
#
#
#
# Elastic Compliance Matrix: (Units=1/GPa)
#
#
# Indices 1 2 3 4 5 6 
#
# 1 0.024743 -0.005900 -0.003086 0.000000 0.000000 0.000000
# 2 -0.005900 0.010930 -0.004717 0.000000 0.000000 0.000000
# 3 -0.003086 -0.004717 0.019261 0.000000 0.000000 0.000000
# 4 0.000000 0.000000 0.000000 0.316445 0.000000 0.000000
# 5 0.000000 0.000000 0.000000 0.000000 0.039113 0.000000
# 6 0.000000 0.000000 0.000000 0.000000 0.000000 0.056702
#
#
# Mechanical properties :
#
#
# Convention : Reuss Voigt Hill
#
# Bulk Modulus (GPa) = 36.32589 46.10370 41.21480
# Shear Modulus (GPa) = 9.92508 19.44279 14.68394
#
# Velocity S-wave (km/s) = 2.35605 3.29759 2.86576
# Velocity P-wave (km/s) = 5.26479 6.34698 5.83104
#
# Compressibility (1/GPa) = 0.02752857
#
# Stress axis : x y z
#
# Youngs Moduli (GPa) = 40.41622 91.49401 51.91757
#
# Poissons Ratio (x) = 0.53980 0.16022
# Poissons Ratio (y) = 0.23845 0.24488
# Poissons Ratio (z) = 0.12472 0.43154
#
# Static dielectric constant tensor:
#      x y z
#    x 3.082130 0.000000 0.000000 
#    y 0.000000 4.031910 0.000000 
#    z 0.000000 0.000000 2.875340 
# 
# 
# High freq. dielectric constant tensor:
#      x y z
#    x 1.700820 0.000000 0.000000 
#    y 0.000000 1.720440 0.000000 
#    z 0.000000 0.000000 1.633550 
# 
# From -- ./inp_files/32634.got.cif
#   From: 2010.03.12/outbox.cif.g09.slc.cpg/sg51_17_cif.got.tgz:32634.got - 2010.04.16 13:43:02.
