data_PCOD8206432
_publ_section_title
;
Structure prediction by ZEFSAII (Michael W. Deem and Ramdas Pophale) SiO2 
 PCOD8206432
Probable space group: P M M A
;
_chemical_formula_sum "Si O2"
_cell_formula_units_Z 48
_cell_length_a 8.633465
_cell_length_b 24.506104
_cell_length_c 13.712212
_cell_angle_alpha 90.000000
_cell_angle_beta 90.000000
_cell_angle_gamma 90.000000
_cell_volume 2901.128224
_symmetry_space_group_name_H-M "P M M A"
_symmetry_group_IT_number 51
_symmetry_cell_setting 'orthorhombic'
loop_
_space_group_symop_operation_xyz
x,y,z
1/2-x,-y,z
1/2+x,-y,-z
-x,y,-z
-x,-y,-z
1/2+x,y,-z
1/2-x,y,z
x,-y,z
loop_
_atom_site_type_symbol
_atom_site_label
_atom_site_fract_x
_atom_site_fract_y
_atom_site_fract_z
Si Si1 0.931564 0.057519 0.106129
Si Si2 0.566141 0.666132 0.395820
Si Si3 0.067159 0.376647 0.897921
Si Si4 0.932992 0.559857 0.290867
Si Si5 0.433940 0.176165 0.891378
Si Si6 0.432929 0.277560 0.211951
O O1 0.750000 0.058046 0.093899
O O2 0.979069 0.115863 0.152927
O O3 0.981701 0.000000 0.161008
O O4 0.000000 0.055809 0.000000
O O5 0.500000 0.682862 0.500000
O O6 0.750000 0.668405 0.396726
O O7 0.506325 0.605028 0.367702
O O8 0.505824 0.709069 0.316869
O O9 0.250000 0.368578 0.903870
O O10 0.019960 0.421748 0.817938
O O11 0.992531 0.318786 0.870796
O O12 0.000000 0.397521 0.000000
O O13 0.750000 0.556142 0.298565
O O14 0.006385 0.500000 0.312710
O O15 0.250000 0.186017 0.894050
O O16 0.514523 0.217329 0.817168
O O17 0.500000 0.184110 0.000000
O O18 0.250000 0.281245 0.219708
#
# Coordination Sequence:
#
# PCOD8206432 Si02
#       6
#     8   8   8   8   8   8
#     4   8  14  24  38  57  84 120 158 192 224 259
#     4  10  20  35  54  73  93 116 143 178 225 275
#     4  10  19  31  47  66  91 122 154 187 225 267
#     4   8  16  31  49  69  93 119 147 180 217 262
#     4  10  18  28  43  65  94 126 160 194 228 266
#     4  11  21  33  48  66  90 118 153 192 229 270
#
# _framework density 16.545286000000001
#
# number of rings (size 3 to 8) (size 9 to 14) (size 15 to 20)
#    0.000    2.500    0.000    4.500    0.000    1.333 
#    0.000    0.000    0.000   17.000    0.000    0.000 
#    0.000    0.667    0.000    1.833    0.000    3.000 
#
# Total GULP energy -594722.568874 kJ/mol
# GULP energy per Si atom -12390.053518 kJ/mol
# Density = 1.650763 g / cm^3
# Si number density = 16.545286 Si / 1000 Ang^3
#
#
#
# Elastic Constant Matrix: (Units=GPa)
#
#
# Indices 1 2 3 4 5 6 
#
# 1 71.4243 30.0570 27.5530 0.0000 0.0000 0.0000
# 2 30.0570 133.5212 39.1008 0.0000 0.0000 0.0000
# 3 27.5530 39.1008 86.9706 0.0000 0.0000 0.0000
# 4 0.0000 0.0000 0.0000 -5.1054 0.0000 0.0000
# 5 0.0000 0.0000 0.0000 0.0000 23.7653 0.0000
# 6 0.0000 0.0000 0.0000 0.0000 0.0000 15.4820
#
#
#
# Elastic Compliance Matrix: (Units=1/GPa)
#
#
# Indices 1 2 3 4 5 6 
#
# 1 0.016666 -0.002540 -0.004138 0.000000 0.000000 0.000000
# 2 -0.002540 0.009012 -0.003247 0.000000 0.000000 0.000000
# 3 -0.004138 -0.003247 0.014269 0.000000 0.000000 0.000000
# 4 0.000000 0.000000 0.000000 -0.195871 0.000000 0.000000
# 5 0.000000 0.000000 0.000000 0.000000 0.042078 0.000000
# 6 0.000000 0.000000 0.000000 0.000000 0.000000 0.064591
#
#
# Mechanical properties :
#
#
# Convention : Reuss Voigt Hill
#
# Bulk Modulus (GPa) = 49.75851 53.92642 51.84247
# Shear Modulus (GPa) = -220.20469 19.84208 -100.18131
#
# Velocity S-wave (km/s) = -11.54907 3.46679 -7.78981
# Velocity P-wave (km/s) = 12.15327 6.97774 7.03609
#
# Compressibility (1/GPa) = 0.02009706
#
# Stress axis : x y z
#
# Youngs Moduli (GPa) = 60.00247 110.96211 70.08238
#
# Poissons Ratio (x) = 0.28183 0.29000
# Poissons Ratio (y) = 0.15240 0.22756
# Poissons Ratio (z) = 0.24829 0.36030
#
# Static dielectric constant tensor:
#      x y z
#    x 3.060790 0.000000 0.000000 
#    y 0.000000 3.761550 0.000000 
#    z 0.000000 0.000000 2.839660 
# 
# 
# High freq. dielectric constant tensor:
#      x y z
#    x 1.639530 0.000000 0.000000 
#    y 0.000000 1.646410 0.000000 
#    z 0.000000 0.000000 1.598030 
# 
# From -- ./inp_files/21964.got.cif
#   From: 2010.03.12/outbox.cif.g09.slc.cpg/sg51_11_cif.got.tgz:21964.got - 2010.04.16 13:43:02.
