data_PCOD8206917
_publ_section_title
;
Structure prediction by ZEFSAII (Michael W. Deem and Ramdas Pophale) SiO2 
 PCOD8206917
Probable space group: P M M A
;
_chemical_formula_sum "Si O2"
_cell_formula_units_Z 64
_cell_length_a 9.136585
_cell_length_b 14.265611
_cell_length_c 31.174185
_cell_angle_alpha 90.000000
_cell_angle_beta 90.000000
_cell_angle_gamma 90.000000
_cell_volume 4063.211085
_symmetry_space_group_name_H-M "P M M A"
_symmetry_group_IT_number 51
_symmetry_cell_setting 'orthorhombic'
loop_
_space_group_symop_operation_xyz
x,y,z
1/2-x,-y,z
1/2+x,-y,-z
-x,y,-z
-x,-y,-z
1/2+x,y,-z
1/2-x,y,z
x,-y,z
loop_
_atom_site_type_symbol
_atom_site_label
_atom_site_fract_x
_atom_site_fract_y
_atom_site_fract_z
Si Si1 0.418584 0.393108 0.079300
Si Si2 0.076113 0.105287 0.875262
Si Si3 0.415515 0.888211 0.541762
Si Si4 0.079708 0.605419 0.178442
Si Si5 0.584819 0.111597 0.624762
Si Si6 0.423207 0.781691 0.793239
Si Si7 0.579490 0.108520 0.290914
Si Si8 0.423419 0.222588 0.957277
O O1 0.250000 0.364289 0.071865
O O2 0.444462 0.500000 0.064932
O O3 0.462061 0.380532 0.128848
O O4 0.523505 0.328589 0.050873
O O5 0.250000 0.102393 0.873172
O O6 0.014651 0.160493 0.833931
O O7 0.023627 0.156985 0.918306
O O8 0.012038 0.000000 0.875068
O O9 0.500000 0.850130 0.500000
O O10 0.250000 0.849764 0.541084
O O11 0.496605 0.848742 0.583927
O O12 0.415611 0.000000 0.542013
O O13 0.250000 0.624353 0.185600
O O14 0.038829 0.500000 0.192925
O O15 0.988601 0.677428 0.207281
O O16 0.750000 0.150205 0.623017
O O17 0.508507 0.147282 0.668190
O O18 0.582847 0.000000 0.623585
O O19 0.250000 0.774206 0.795719
O O20 0.473996 0.833887 0.750263
O O21 0.750000 0.123420 0.300400
O O22 0.544740 0.000000 0.281831
O O23 0.250000 0.221712 0.963102
O O24 0.500000 0.182888 0.000000
#
# Coordination Sequence:
#
# PCOD8206917 Si02
#       8
#     8   8   8   8   8   8   8   8
#     4   9  18  34  54  73  94 118 141 169 208 253
#     4   9  18  33  51  70  91 115 144 178 214 251
#     4   9  15  22  33  49  70  99 139 186 233 276
#     4   9  18  32  50  71  95 119 138 165 211 259
#     4   9  16  25  36  51  75 107 144 186 227 266
#     4  10  18  30  50  73  91 112 145 181 214 253
#     4   9  17  28  42  61  86 116 147 181 223 265
#     4  11  22  35  52  72  93 118 145 175 211 252
#
# _framework density 15.751089
#
# number of rings (size 3 to 8) (size 9 to 14) (size 15 to 20)
#    0.000    2.625    1.250    2.250    0.000    6.000 
#    0.000    1.250    0.000    3.750    0.000    0.000 
#    0.000    0.000    0.000    0.000    0.000    0.625 
#
# Total GULP energy -793609.752662 kJ/mol
# GULP energy per Si atom -12400.152385 kJ/mol
# Density = 1.571524 g / cm^3
# Si number density = 15.751089 Si / 1000 Ang^3
#
#
#
# Elastic Constant Matrix: (Units=GPa)
#
#
# Indices 1 2 3 4 5 6 
#
# 1 71.1828 26.8723 58.1564 0.0000 0.0000 0.0000
# 2 26.8723 69.1143 45.6956 0.0000 0.0000 0.0000
# 3 58.1564 45.6956 140.0812 0.0000 0.0000 0.0000
# 4 0.0000 0.0000 0.0000 8.5379 0.0000 0.0000
# 5 0.0000 0.0000 0.0000 0.0000 27.7653 0.0000
# 6 0.0000 0.0000 0.0000 0.0000 0.0000 16.5676
#
#
#
# Elastic Compliance Matrix: (Units=1/GPa)
#
#
# Indices 1 2 3 4 5 6 
#
# 1 0.021793 -0.003176 -0.008011 0.000000 0.000000 0.000000
# 2 -0.003176 0.018910 -0.004850 0.000000 0.000000 0.000000
# 3 -0.008011 -0.004850 0.012047 0.000000 0.000000 0.000000
# 4 0.000000 0.000000 0.000000 0.117125 0.000000 0.000000
# 5 0.000000 0.000000 0.000000 0.000000 0.036016 0.000000
# 6 0.000000 0.000000 0.000000 0.000000 0.000000 0.060359
#
#
# Mechanical properties :
#
#
# Convention : Reuss Voigt Hill
#
# Bulk Modulus (GPa) = 48.36888 60.20299 54.28594
# Shear Modulus (GPa) = 16.38178 20.55111 18.46644
#
# Velocity S-wave (km/s) = 3.22847 3.61604 3.42774
# Velocity P-wave (km/s) = 6.68373 7.46584 7.08559
#
# Compressibility (1/GPa) = 0.02067445
#
# Stress axis : x y z
#
# Youngs Moduli (GPa) = 45.88682 52.88089 83.00945
#
# Poissons Ratio (x) = 0.16797 0.66502
# Poissons Ratio (y) = 0.14576 0.40260
# Poissons Ratio (z) = 0.36761 0.25647
#
# Static dielectric constant tensor:
#      x y z
#    x 2.925410 0.000000 0.000000 
#    y 0.000000 2.744870 0.000000 
#    z 0.000000 0.000000 3.060620 
# 
# 
# High freq. dielectric constant tensor:
#      x y z
#    x 1.601250 0.000000 0.000000 
#    y 0.000000 1.562780 0.000000 
#    z 0.000000 0.000000 1.602010 
# 
# From -- ./inp_files/37661.got.cif
#   From: 2010.03.12/outbox.cif.g09.slc.cpg/sg51_19_cif.got.tgz:37661.got - 2010.04.16 13:43:02.
