data_PCOD8206724
_publ_section_title
;
Structure prediction by ZEFSAII (Michael W. Deem and Ramdas Pophale) SiO2 
 PCOD8206724
Probable space group: P M M A
;
_chemical_formula_sum "Si O2"
_cell_formula_units_Z 56
_cell_length_a 8.845129
_cell_length_b 15.591466
_cell_length_c 20.428406
_cell_angle_alpha 90.000000
_cell_angle_beta 90.000000
_cell_angle_gamma 90.000000
_cell_volume 2817.251402
_symmetry_space_group_name_H-M "P M M A"
_symmetry_group_IT_number 51
_symmetry_cell_setting 'orthorhombic'
loop_
_space_group_symop_operation_xyz
x,y,z
1/2-x,-y,z
1/2+x,-y,-z
-x,y,-z
-x,-y,-z
1/2+x,y,-z
1/2-x,y,z
x,-y,z
loop_
_atom_site_type_symbol
_atom_site_label
_atom_site_fract_x
_atom_site_fract_y
_atom_site_fract_z
Si Si1 0.077928 0.351876 0.241271
Si Si2 0.075954 0.405646 0.632096
Si Si3 0.571582 0.769331 0.431669
Si Si4 0.569991 0.223834 0.933988
Si Si5 0.429147 0.905296 0.673792
Si Si6 0.073600 0.816261 0.802495
Si Si7 0.922737 0.590866 0.900207
O O1 0.250000 0.318726 0.250009
O O2 0.065986 0.411849 0.178086
O O3 0.026287 0.406098 0.303406
O O4 0.965358 0.272618 0.232543
O O5 0.250000 0.390842 0.652283
O O6 0.054918 0.500000 0.598749
O O7 0.023392 0.328878 0.584328
O O8 0.500000 0.797104 0.500000
O O9 0.750000 0.778165 0.437668
O O10 0.505428 0.833518 0.375945
O O11 0.750000 0.221316 0.936267
O O12 0.516875 0.170285 0.870527
O O13 0.503317 0.321736 0.928314
O O14 0.500000 0.183063 0.000000
O O15 0.250000 0.901736 0.668481
O O16 0.474881 0.887949 0.749451
O O17 0.490168 0.000000 0.654622
O O18 0.250000 0.819798 0.819261
O O19 0.750000 0.592104 0.922901
O O20 0.997262 0.500000 0.925079
#
# Coordination Sequence:
#
# PCOD8206724 Si02
#       7
#     8   8   8   8   8   8   8
#     4  10  18  29  49  76 107 141 182 228 277 329
#     4  10  20  34  52  75 106 146 190 233 276 325
#     4  10  21  38  56  80 113 150 186 227 275 330
#     4  10  20  33  50  75 106 145 187 229 276 331
#     4   9  18  35  61  88 112 141 179 222 277 343
#     4  10  18  33  57  81 108 142 180 225 278 332
#     4   8  15  27  42  64  97 134 173 220 268 313
#
# _framework density 19.877531000000001
#
# number of rings (size 3 to 8) (size 9 to 14) (size 15 to 20)
#    0.000    2.429    1.429    2.571    0.000    2.286 
#    0.000    0.000    0.000   12.000    0.000    0.000 
#    0.000    0.000    0.000    0.000    0.000    0.000 
#
# Total GULP energy -693945.521240 kJ/mol
# GULP energy per Si atom -12391.884308 kJ/mol
# Density = 1.983229 g / cm^3
# Si number density = 19.877531 Si / 1000 Ang^3
#
#
#
# Elastic Constant Matrix: (Units=GPa)
#
#
# Indices 1 2 3 4 5 6 
#
# 1 48.9703 16.9626 37.5436 0.0000 0.0000 0.0000
# 2 16.9626 105.9798 53.6536 0.0000 0.0000 0.0000
# 3 37.5436 53.6536 134.3908 0.0000 0.0000 0.0000
# 4 0.0000 0.0000 0.0000 7.2348 0.0000 0.0000
# 5 0.0000 0.0000 0.0000 0.0000 32.3365 0.0000
# 6 0.0000 0.0000 0.0000 0.0000 0.0000 10.7575
#
#
#
# Elastic Compliance Matrix: (Units=1/GPa)
#
#
# Indices 1 2 3 4 5 6 
#
# 1 0.026017 -0.000607 -0.007026 0.000000 0.000000 0.000000
# 2 -0.000607 0.011840 -0.004557 0.000000 0.000000 0.000000
# 3 -0.007026 -0.004557 0.011223 0.000000 0.000000 0.000000
# 4 0.000000 0.000000 0.000000 0.138222 0.000000 0.000000
# 5 0.000000 0.000000 0.000000 0.000000 0.030925 0.000000
# 6 0.000000 0.000000 0.000000 0.000000 0.000000 0.092958
#
#
# Mechanical properties :
#
#
# Convention : Reuss Voigt Hill
#
# Bulk Modulus (GPa) = 40.48623 56.18449 48.33536
# Shear Modulus (GPa) = 14.54335 22.14449 18.34392
#
# Velocity S-wave (km/s) = 2.70783 3.34135 3.04114
# Velocity P-wave (km/s) = 5.49441 6.57365 6.05811
#
# Compressibility (1/GPa) = 0.02469975
#
# Stress axis : x y z
#
# Youngs Moduli (GPa) = 38.43600 84.45808 89.10133
#
# Poissons Ratio (x) = 0.05129 0.62600
# Poissons Ratio (y) = 0.02334 0.40607
# Poissons Ratio (z) = 0.27004 0.38491
#
# Static dielectric constant tensor:
#      x y z
#    x 3.307490 0.000000 0.000000 
#    y 0.000000 3.672510 0.000000 
#    z 0.000000 0.000000 3.597950 
# 
# 
# High freq. dielectric constant tensor:
#      x y z
#    x 1.746540 0.000000 0.000000 
#    y 0.000000 1.758560 0.000000 
#    z 0.000000 0.000000 1.772300 
# 
# From -- ./inp_files/32016.got.cif
#   From: 2010.03.12/outbox.cif.g09.slc.cpg/sg51_17_cif.got.tgz:32016.got - 2010.04.16 13:43:02.
