data_PCOD8206152
_publ_section_title
;
Structure prediction by ZEFSAII (Michael W. Deem and Ramdas Pophale) SiO2 
 PCOD8206152
Probable space group: P M M A
;
_chemical_formula_sum "Si O2"
_cell_formula_units_Z 64
_cell_length_a 18.623193
_cell_length_b 19.328614
_cell_length_c 10.423762
_cell_angle_alpha 90.000000
_cell_angle_beta 90.000000
_cell_angle_gamma 90.000000
_cell_volume 3752.142675
_symmetry_space_group_name_H-M "P M M A"
_symmetry_group_IT_number 51
_symmetry_cell_setting 'orthorhombic'
loop_
_space_group_symop_operation_xyz
x,y,z
1/2-x,-y,z
1/2+x,-y,-z
-x,y,-z
-x,-y,-z
1/2+x,y,-z
1/2-x,y,z
x,-y,z
loop_
_atom_site_type_symbol
_atom_site_label
_atom_site_fract_x
_atom_site_fract_y
_atom_site_fract_z
Si Si1 0.664565 0.924242 0.089871
Si Si2 0.835157 0.215002 0.487163
Si Si3 0.580220 0.578673 0.347951
Si Si4 0.335556 0.292841 0.263229
Si Si5 0.164590 0.075272 0.620174
Si Si6 0.834917 0.301741 0.241826
Si Si7 0.335322 0.219150 0.007657
Si Si8 0.413922 0.420864 0.357607
O O1 0.750000 0.922539 0.090700
O O2 0.636415 0.913569 0.234961
O O3 0.635598 0.860279 0.003456
O O4 0.638561 0.000000 0.037708
O O5 0.750000 0.214773 0.494503
O O6 0.866011 0.248783 0.616566
O O7 0.864764 0.136304 0.471938
O O8 0.860776 0.257690 0.363895
O O9 0.593084 0.500000 0.306258
O O10 0.626291 0.624406 0.249892
O O11 0.606994 0.589973 0.493678
O O12 0.496814 0.597732 0.336266
O O13 0.250000 0.297704 0.263303
O O14 0.366226 0.370517 0.269629
O O15 0.365164 0.254628 0.136399
O O16 0.250000 0.078559 0.623324
O O17 0.139029 0.000000 0.568018
O O18 0.750000 0.313410 0.240871
O O19 0.861688 0.263248 0.114114
O O20 0.250000 0.217958 0.010752
O O21 0.398097 0.500000 0.316715
#
# Coordination Sequence:
#
# PCOD8206152 Si02
#       8
#     8   8   8   8   8   8   8   8
#     4   8  12  20  36  57  84 121 157 182 215 267
#     4   9  15  24  39  62  89 115 148 187 223 259
#     4   9  18  32  50  71  92 115 147 190 232 268
#     4  10  19  30  45  67  94 123 152 184 227 276
#     4   8  12  19  34  57  86 119 151 184 223 264
#     4  10  17  28  47  69  93 119 150 188 226 264
#     4   9  17  28  41  63  96 127 152 186 229 266
#     4   9  18  33  50  68  92 118 147 187 232 275
#
# _framework density 17.056922
#
# number of rings (size 3 to 8) (size 9 to 14) (size 15 to 20)
#    0.000    3.000    2.500    1.500    0.000    0.500 
#    0.000    3.125    0.000    7.500    0.000    0.000 
#    0.000    6.000    0.000    0.000    0.000    0.000 
#
# Total GULP energy -793142.508509 kJ/mol
# GULP energy per Si atom -12392.851695 kJ/mol
# Density = 1.701810 g / cm^3
# Si number density = 17.056922 Si / 1000 Ang^3
#
#
#
# Elastic Constant Matrix: (Units=GPa)
#
#
# Indices 1 2 3 4 5 6 
#
# 1 17.6555 30.4371 18.2363 0.0000 0.0000 0.0000
# 2 30.4371 157.6805 71.7666 0.0000 0.0000 0.0000
# 3 18.2363 71.7666 110.0387 0.0000 0.0000 0.0000
# 4 0.0000 0.0000 0.0000 29.9959 0.0000 0.0000
# 5 0.0000 0.0000 0.0000 0.0000 10.7971 0.0000
# 6 0.0000 0.0000 0.0000 0.0000 0.0000 2.1653
#
#
#
# Elastic Compliance Matrix: (Units=1/GPa)
#
#
# Indices 1 2 3 4 5 6 
#
# 1 0.086716 -0.014503 -0.004912 0.000000 0.000000 0.000000
# 2 -0.014503 0.011445 -0.005061 0.000000 0.000000 0.000000
# 3 -0.004912 -0.005061 0.013202 0.000000 0.000000 0.000000
# 4 0.000000 0.000000 0.000000 0.033338 0.000000 0.000000
# 5 0.000000 0.000000 0.000000 0.000000 0.092618 0.000000
# 6 0.000000 0.000000 0.000000 0.000000 0.000000 0.461836
#
#
# Mechanical properties :
#
#
# Convention : Reuss Voigt Hill
#
# Bulk Modulus (GPa) = 16.02287 58.47274 37.24780
# Shear Modulus (GPa) = 6.50272 19.58730 13.04501
#
# Velocity S-wave (km/s) = 1.95465 3.39241 2.76849
# Velocity P-wave (km/s) = 3.80898 7.04982 5.66605
#
# Compressibility (1/GPa) = 0.06241078
#
# Stress axis : x y z
#
# Youngs Moduli (GPa) = 11.53196 87.37627 75.74392
#
# Poissons Ratio (x) = 1.26721 0.37208
# Poissons Ratio (y) = 0.16725 0.38332
# Poissons Ratio (z) = 0.05665 0.44218
#
# Static dielectric constant tensor:
#      x y z
#    x 2.586410 0.000000 0.000000 
#    y 0.000000 3.546530 0.000000 
#    z 0.000000 0.000000 3.173410 
# 
# 
# High freq. dielectric constant tensor:
#      x y z
#    x 1.595060 0.000000 0.000000 
#    y 0.000000 1.678250 0.000000 
#    z 0.000000 0.000000 1.636710 
# 
# From -- ./inp_files/18391.got.cif
#   From: 2010.03.12/outbox.cif.g09.slc.cpg/sg51_10_cif.got.tgz:18391.got - 2010.04.16 13:43:02.
