data_PCOD8206715
_publ_section_title
;
Structure prediction by ZEFSAII (Michael W. Deem and Ramdas Pophale) SiO2 
 PCOD8206715
Probable space group: P M M A
;
_chemical_formula_sum "Si O2"
_cell_formula_units_Z 56
_cell_length_a 14.391037
_cell_length_b 9.240884
_cell_length_c 22.893898
_cell_angle_alpha 90.000000
_cell_angle_beta 90.000000
_cell_angle_gamma 90.000000
_cell_volume 3044.565711
_symmetry_space_group_name_H-M "P M M A"
_symmetry_group_IT_number 51
_symmetry_cell_setting 'orthorhombic'
loop_
_space_group_symop_operation_xyz
x,y,z
1/2-x,-y,z
1/2+x,-y,-z
-x,y,-z
-x,-y,-z
1/2+x,y,-z
1/2-x,y,z
x,-y,z
loop_
_atom_site_type_symbol
_atom_site_label
_atom_site_fract_x
_atom_site_fract_y
_atom_site_fract_z
Si Si1 0.649651 0.834542 0.413189
Si Si2 0.396213 0.339236 0.478082
Si Si3 0.351654 0.328400 0.902607
Si Si4 0.142223 0.830118 0.248960
Si Si5 0.957777 0.328362 0.856041
Si Si6 0.143563 0.665862 0.031293
Si Si7 0.047773 0.830236 0.369074
O O1 0.750000 0.817112 0.380036
O O2 0.660729 0.743235 0.472302
O O3 0.562177 0.786102 0.373003
O O4 0.633083 0.000000 0.431979
O O5 0.500000 0.349384 0.500000
O O6 0.354615 0.500000 0.468599
O O7 0.391602 0.252317 0.417482
O O8 0.250000 0.271211 0.881115
O O9 0.346324 0.500000 0.909866
O O10 0.432204 0.286829 0.856524
O O11 0.374431 0.263477 0.967366
O O12 0.250000 0.784524 0.253996
O O13 0.093593 0.747810 0.196542
O O14 0.087402 0.781676 0.306871
O O15 0.132462 0.000000 0.238048
O O16 0.942099 0.500000 0.850063
O O17 0.917176 0.264589 0.916869
O O18 0.250000 0.684417 0.049687
O O19 0.113487 0.500000 0.027600
O O20 0.062221 0.000000 0.379172
#
# Coordination Sequence:
#
# PCOD8206715 Si02
#       7
#     8   8   8   8   8   8   8
#     4   9  17  30  50  74  97 123 157 195 234 280
#     4   9  17  29  47  73 103 129 152 185 232 279
#     4   8  14  25  43  70 102 130 155 189 237 289
#     4  10  22  38  52  67  92 127 163 200 245 291
#     4  10  18  29  49  74  97 123 160 203 239 277
#     4   8  13  22  40  69 100 125 153 193 238 281
#     4   9  18  34  52  68  91 126 166 201 232 275
#
# _framework density 18.393428
#
# number of rings (size 3 to 8) (size 9 to 14) (size 15 to 20)
#    0.000    3.000    0.000    2.143    0.000    5.714 
#    0.000    2.143    0.000    3.000    0.000    2.000 
#    0.000    0.000    0.000    0.000    0.000    0.000 
#
# Total GULP energy -693848.034115 kJ/mol
# GULP energy per Si atom -12390.143466 kJ/mol
# Density = 1.835156 g / cm^3
# Si number density = 18.393428 Si / 1000 Ang^3
#
#
#
# Elastic Constant Matrix: (Units=GPa)
#
#
# Indices 1 2 3 4 5 6 
#
# 1 135.9743 31.2285 77.8339 0.0000 0.0000 0.0000
# 2 31.2285 38.3001 33.0042 0.0000 0.0000 0.0000
# 3 77.8339 33.0042 96.5405 0.0000 0.0000 0.0000
# 4 0.0000 0.0000 0.0000 -26.6497 0.0000 0.0000
# 5 0.0000 0.0000 0.0000 0.0000 26.3392 0.0000
# 6 0.0000 0.0000 0.0000 0.0000 0.0000 14.0830
#
#
#
# Elastic Compliance Matrix: (Units=1/GPa)
#
#
# Indices 1 2 3 4 5 6 
#
# 1 0.013806 -0.002361 -0.010324 0.000000 0.000000 0.000000
# 2 -0.002361 0.037417 -0.010889 0.000000 0.000000 0.000000
# 3 -0.010324 -0.010889 0.022404 0.000000 0.000000 0.000000
# 4 0.000000 0.000000 0.000000 -0.037524 0.000000 0.000000
# 5 0.000000 0.000000 0.000000 0.000000 0.037966 0.000000
# 6 0.000000 0.000000 0.000000 0.000000 0.000000 0.071008
#
#
# Mechanical properties :
#
#
# Convention : Reuss Voigt Hill
#
# Bulk Modulus (GPa) = 37.76227 61.66092 49.71159
# Shear Modulus (GPa) = 24.86933 11.33772 18.10352
#
# Velocity S-wave (km/s) = 3.68105 2.48544 3.14066
# Velocity P-wave (km/s) = 6.21624 6.46782 6.34328
#
# Compressibility (1/GPa) = 0.02648146
#
# Stress axis : x y z
#
# Youngs Moduli (GPa) = 72.43234 26.72553 44.63451
#
# Poissons Ratio (x) = 0.06309 0.46080
# Poissons Ratio (y) = 0.17099 0.48601
# Poissons Ratio (z) = 0.74778 0.29101
#
# Static dielectric constant tensor:
#      x y z
#    x 3.686510 0.000000 0.000000 
#    y 0.000000 3.143340 0.000000 
#    z 0.000000 0.000000 3.334800 
# 
# 
# High freq. dielectric constant tensor:
#      x y z
#    x 1.730760 0.000000 0.000000 
#    y 0.000000 1.671450 0.000000 
#    z 0.000000 0.000000 1.691450 
# 
# From -- ./inp_files/33287.got.cif
#   From: 2010.03.12/outbox.cif.g09.slc.cpg/sg51_17_cif.got.tgz:33287.got - 2010.04.16 13:43:02.
