data_PCOD8206004
_publ_section_title
;
Structure prediction by ZEFSAII (Michael W. Deem and Ramdas Pophale) SiO2 
 PCOD8206004
Probable space group: P M M A
;
_chemical_formula_sum "Si O2"
_cell_formula_units_Z 56
_cell_length_a 20.402607
_cell_length_b 9.098639
_cell_length_c 17.908352
_cell_angle_alpha 90.000000
_cell_angle_beta 90.000000
_cell_angle_gamma 90.000000
_cell_volume 3324.434039
_symmetry_space_group_name_H-M "P M M A"
_symmetry_group_IT_number 51
_symmetry_cell_setting 'orthorhombic'
loop_
_space_group_symop_operation_xyz
x,y,z
1/2-x,-y,z
1/2+x,-y,-z
-x,y,-z
-x,-y,-z
1/2+x,y,-z
1/2-x,y,z
x,-y,z
loop_
_atom_site_type_symbol
_atom_site_label
_atom_site_fract_x
_atom_site_fract_y
_atom_site_fract_z
Si Si1 0.176593 0.827015 0.925797
Si Si2 0.889587 0.333409 0.203695
Si Si3 0.076316 0.336876 0.478208
Si Si4 0.542558 0.327575 0.809050
Si Si5 0.553568 0.172716 0.661542
Si Si6 0.079695 0.330524 0.637521
Si Si7 0.567345 0.826828 0.959465
O O1 0.250000 0.775114 0.946264
O O2 0.157339 0.767919 0.844607
O O3 0.171798 0.000000 0.920068
O O4 0.126942 0.770031 0.989009
O O5 0.876788 0.500000 0.178843
O O6 0.871784 0.309749 0.291752
O O7 0.965377 0.291212 0.190742
O O8 0.094309 0.500000 0.450276
O O9 0.095334 0.226259 0.411129
O O10 0.114454 0.301377 0.556844
O O11 0.000000 0.326313 0.500000
O O12 0.556435 0.500000 0.806492
O O13 0.577308 0.252515 0.737351
O O14 0.574893 0.259059 0.882387
O O15 0.478751 0.215397 0.646794
O O16 0.562114 0.000000 0.671108
O O17 0.052114 0.500000 0.639785
O O18 0.570641 0.000000 0.943572
O O19 0.500000 0.783423 0.000000
#
# Coordination Sequence:
#
# PCOD8206004 Si02
#       7
#     8   8   8   8   8   8   8
#     4  10  21  35  49  67  94 124 151 186 237 286
#     4   9  17  29  45  65  88 116 154 193 226 268
#     4   8  13  23  36  50  78 117 151 181 221 270
#     4  10  19  30  45  65  89 118 154 192 234 278
#     4  10  17  23  35  57  86 116 149 187 227 269
#     4   8  15  26  38  55  81 116 152 186 224 266
#     4  10  19  32  50  70  91 117 154 195 233 277
#
# _framework density 16.844971999999999
#
# number of rings (size 3 to 8) (size 9 to 14) (size 15 to 20)
#    0.000    2.714    1.429    3.429    0.000    6.000 
#    0.000    0.000    0.000    0.000    0.000    0.000 
#    0.000    1.143    0.000    8.286    0.000    6.286 
#
# Total GULP energy -693951.579873 kJ/mol
# GULP energy per Si atom -12391.992498 kJ/mol
# Density = 1.680663 g / cm^3
# Si number density = 16.844972 Si / 1000 Ang^3
#
#
#
# Elastic Constant Matrix: (Units=GPa)
#
#
# Indices 1 2 3 4 5 6 
#
# 1 55.3910 20.8183 44.9804 0.0000 0.0000 0.0000
# 2 20.8183 69.8734 62.8981 0.0000 0.0000 0.0000
# 3 44.9804 62.8981 174.2618 0.0000 0.0000 0.0000
# 4 0.0000 0.0000 0.0000 33.0662 0.0000 0.0000
# 5 0.0000 0.0000 0.0000 0.0000 10.9896 0.0000
# 6 0.0000 0.0000 0.0000 0.0000 0.0000 10.1592
#
#
#
# Elastic Compliance Matrix: (Units=1/GPa)
#
#
# Indices 1 2 3 4 5 6 
#
# 1 0.023076 -0.002242 -0.005147 0.000000 0.000000 0.000000
# 2 -0.002242 0.021417 -0.007152 0.000000 0.000000 0.000000
# 3 -0.005147 -0.007152 0.009648 0.000000 0.000000 0.000000
# 4 0.000000 0.000000 0.000000 0.030242 0.000000 0.000000
# 5 0.000000 0.000000 0.000000 0.000000 0.090995 0.000000
# 6 0.000000 0.000000 0.000000 0.000000 0.000000 0.098433
#
#
# Mechanical properties :
#
#
# Convention : Reuss Voigt Hill
#
# Bulk Modulus (GPa) = 39.90429 61.87999 50.89214
# Shear Modulus (GPa) = 16.06442 22.23164 19.14803
#
# Velocity S-wave (km/s) = 3.09149 3.63682 3.37519
# Velocity P-wave (km/s) = 6.04017 7.37902 6.74291
#
# Compressibility (1/GPa) = 0.02505996
#
# Stress axis : x y z
#
# Youngs Moduli (GPa) = 43.33542 46.69122 103.64443
#
# Poissons Ratio (x) = 0.10468 0.53347
# Poissons Ratio (y) = 0.09716 0.74123
# Poissons Ratio (z) = 0.22305 0.33392
#
# Static dielectric constant tensor:
#      x y z
#    x 2.656570 0.000000 0.000000 
#    y 0.000000 3.054700 0.000000 
#    z 0.000000 0.000000 3.745380 
# 
# 
# High freq. dielectric constant tensor:
#      x y z
#    x 1.565610 0.000000 0.000000 
#    y 0.000000 1.647180 0.000000 
#    z 0.000000 0.000000 1.676740 
# 
# From -- ./inp_files/30403.got.cif
#   From: 2010.03.12/outbox.cif.g09.slc.cpg/sg51_16_cif.got.tgz:30403.got - 2010.04.16 13:43:02.
