data_PCOD8206013
_publ_section_title
;
Structure prediction by ZEFSAII (Michael W. Deem and Ramdas Pophale) SiO2 
 PCOD8206013
Probable space group: P M M A
;
_chemical_formula_sum "Si O2"
_cell_formula_units_Z 56
_cell_length_a 19.285028
_cell_length_b 9.166796
_cell_length_c 18.135320
_cell_angle_alpha 90.000000
_cell_angle_beta 90.000000
_cell_angle_gamma 90.000000
_cell_volume 3205.996645
_symmetry_space_group_name_H-M "P M M A"
_symmetry_group_IT_number 51
_symmetry_cell_setting 'orthorhombic'
loop_
_space_group_symop_operation_xyz
x,y,z
1/2-x,-y,z
1/2+x,-y,-z
-x,y,-z
-x,-y,-z
1/2+x,y,-z
1/2-x,y,z
x,-y,z
loop_
_atom_site_type_symbol
_atom_site_label
_atom_site_fract_x
_atom_site_fract_y
_atom_site_fract_z
Si Si1 0.066034 0.831939 0.146997
Si Si2 0.826805 0.671870 0.580970
Si Si3 0.917224 0.161802 0.009397
Si Si4 0.576075 0.671871 0.148632
Si Si5 0.583992 0.829828 0.293281
Si Si6 0.331054 0.666689 0.585999
Si Si7 0.077914 0.164896 0.307229
O O1 0.107790 0.811431 0.223705
O O2 0.003846 0.717084 0.146782
O O3 0.036716 0.000000 0.144780
O O4 0.112775 0.803240 0.073430
O O5 0.750000 0.734452 0.599135
O O6 0.825264 0.500000 0.588849
O O7 0.847698 0.714130 0.497782
O O8 0.883037 0.731315 0.637096
O O9 0.888977 0.272418 0.071793
O O10 0.894637 0.000000 0.034087
O O11 0.000000 0.171957 0.000000
O O12 0.585321 0.500000 0.154143
O O13 0.611146 0.745898 0.220192
O O14 0.626601 0.775177 0.362932
O O15 0.503291 0.796411 0.307545
O O16 0.597511 0.000000 0.281555
O O17 0.250000 0.683625 0.602639
O O18 0.354535 0.500000 0.600010
O O19 0.090339 0.000000 0.333535
#
# Coordination Sequence:
#
# PCOD8206013 Si02
#       7
#     8   8   8   8   8   8   8
#     4   8  15  27  40  58  89 125 156 189 233 278
#     4   9  19  35  52  70  94 124 156 191 234 284
#     4   8  13  23  38  55  83 123 157 187 229 276
#     4  10  17  24  38  62  91 121 155 193 232 274
#     4  10  20  33  48  69  98 127 157 193 235 282
#     4   9  19  36  54  71  93 121 155 194 234 279
#     4   9  18  31  47  70  98 126 158 196 233 272
#
# _framework density 17.467267
#
# number of rings (size 3 to 8) (size 9 to 14) (size 15 to 20)
#    0.000    3.000    0.000    4.286    0.000    7.143 
#    0.000    4.286    0.000    0.000    0.000    1.000 
#    0.000    5.714    0.000    0.000    0.000    0.000 
#
# Total GULP energy -693891.079566 kJ/mol
# GULP energy per Si atom -12390.912135 kJ/mol
# Density = 1.742751 g / cm^3
# Si number density = 17.467267 Si / 1000 Ang^3
#
#
#
# Elastic Constant Matrix: (Units=GPa)
#
#
# Indices 1 2 3 4 5 6 
#
# 1 30.5311 27.3824 45.3063 0.0000 0.0000 0.0000
# 2 27.3824 94.1878 71.5455 0.0000 0.0000 0.0000
# 3 45.3063 71.5455 162.6337 0.0000 0.0000 0.0000
# 4 0.0000 0.0000 0.0000 34.3463 0.0000 0.0000
# 5 0.0000 0.0000 0.0000 0.0000 -4.8220 0.0000
# 6 0.0000 0.0000 0.0000 0.0000 0.0000 18.0170
#
#
#
# Elastic Compliance Matrix: (Units=1/GPa)
#
#
# Indices 1 2 3 4 5 6 
#
# 1 0.058739 -0.006979 -0.013293 0.000000 0.000000 0.000000
# 2 -0.006979 0.016775 -0.005435 0.000000 0.000000 0.000000
# 3 -0.013293 -0.005435 0.012243 0.000000 0.000000 0.000000
# 4 0.000000 0.000000 0.000000 0.029115 0.000000 0.000000
# 5 0.000000 0.000000 0.000000 0.000000 -0.207384 0.000000
# 6 0.000000 0.000000 0.000000 0.000000 0.000000 0.055503
#
#
# Mechanical properties :
#
#
# Convention : Reuss Voigt Hill
#
# Bulk Modulus (GPa) = 27.51662 63.98010 45.74836
# Shear Modulus (GPa) = 175.31112 19.04948 97.18030
#
# Velocity S-wave (km/s) = 10.02913 3.30598 7.46702
# Velocity P-wave (km/s) = 12.24331 7.16106 10.02944
#
# Compressibility (1/GPa) = 0.03634167
#
# Stress axis : x y z
#
# Youngs Moduli (GPa) = 17.02444 59.61347 81.67884
#
# Poissons Ratio (x) = 0.41605 1.08577
# Poissons Ratio (y) = 0.11882 0.44395
# Poissons Ratio (z) = 0.22631 0.32402
#
# Static dielectric constant tensor:
#      x y z
#    x 2.726430 0.000000 0.000000 
#    y 0.000000 3.126430 0.000000 
#    z 0.000000 0.000000 3.825080 
# 
# 
# High freq. dielectric constant tensor:
#      x y z
#    x 1.606990 0.000000 0.000000 
#    y 0.000000 1.671790 0.000000 
#    z 0.000000 0.000000 1.702370 
# 
# From -- ./inp_files/30439.got.cif
#   From: 2010.03.12/outbox.cif.g09.slc.cpg/sg51_16_cif.got.tgz:30439.got - 2010.04.16 13:43:02.
