data_PCOD8206781
_publ_section_title
;
Structure prediction by ZEFSAII (Michael W. Deem and Ramdas Pophale) SiO2 
 PCOD8206781
Probable space group: P M M A
;
_chemical_formula_sum "Si O2"
_cell_formula_units_Z 64
_cell_length_a 30.441059
_cell_length_b 9.135790
_cell_length_c 14.534171
_cell_angle_alpha 90.000000
_cell_angle_beta 90.000000
_cell_angle_gamma 90.000000
_cell_volume 4041.998337
_symmetry_space_group_name_H-M "P M M A"
_symmetry_group_IT_number 51
_symmetry_cell_setting 'orthorhombic'
loop_
_space_group_symop_operation_xyz
x,y,z
1/2-x,-y,z
1/2+x,-y,-z
-x,y,-z
-x,-y,-z
1/2+x,y,-z
1/2-x,y,z
x,-y,z
loop_
_atom_site_type_symbol
_atom_site_label
_atom_site_fract_x
_atom_site_fract_y
_atom_site_fract_z
Si Si1 0.888087 0.327130 0.420821
Si Si2 0.972335 0.837449 0.751481
Si Si3 0.955127 0.173620 0.548456
Si Si4 0.702118 0.673184 0.349932
Si Si5 0.039095 0.331485 0.064142
Si Si6 0.297722 0.327089 0.856476
Si Si7 0.924715 0.164591 0.249509
Si Si8 0.389624 0.330637 0.920075
O O1 0.894874 0.500000 0.431301
O O2 0.912556 0.245848 0.502905
O O3 0.836317 0.281058 0.421017
O O4 0.905955 0.277123 0.322783
O O5 0.952933 0.778014 0.655083
O O6 0.957716 0.738841 0.836044
O O7 0.023827 0.841470 0.736833
O O8 0.954410 0.000000 0.771426
O O9 0.000000 0.230263 0.500000
O O10 0.951957 0.000000 0.536511
O O11 0.750000 0.731148 0.384160
O O12 0.703076 0.500000 0.342916
O O13 0.692452 0.733691 0.246583
O O14 0.027722 0.500000 0.080142
O O15 0.086947 0.308614 0.018217
O O16 0.000000 0.263957 0.000000
O O17 0.250000 0.265562 0.891086
O O18 0.294434 0.500000 0.852938
O O19 0.338129 0.281706 0.923548
O O20 0.915195 0.226462 0.149183
O O21 0.905300 0.000000 0.261188
O O22 0.393723 0.500000 0.888194
#
# Coordination Sequence:
#
# PCOD8206781 Si02
#       8
#     8   8   8   8   8   8   8   8
#     4  11  20  30  48  73  95 123 160 195 230 276
#     4  10  21  35  49  63  88 128 163 189 220 272
#     4  10  20  36  50  65  93 126 159 194 233 276
#     4   8  14  25  43  68  96 123 150 184 228 278
#     4  10  20  31  46  69  96 120 147 194 240 266
#     4   8  13  23  42  66  91 120 152 184 220 270
#     4  11  20  30  45  66  94 128 160 190 225 270
#     4  10  18  30  46  68  94 123 155 189 230 270
#
# _framework density 15.833753
#
# number of rings (size 3 to 8) (size 9 to 14) (size 15 to 20)
#    0.000    2.250    3.750    1.500    0.000    2.000 
#    0.000    0.000    0.000    2.625    0.000    0.875 
#    0.000    5.000    0.000    0.000    0.000    0.000 
#
# Total GULP energy -793087.159386 kJ/mol
# GULP energy per Si atom -12391.986865 kJ/mol
# Density = 1.579771 g / cm^3
# Si number density = 15.833753 Si / 1000 Ang^3
#
#
#
# Elastic Constant Matrix: (Units=GPa)
#
#
# Indices 1 2 3 4 5 6 
#
# 1 118.4582 26.1239 55.0614 0.0000 0.0000 0.0000
# 2 26.1239 35.3651 35.2471 0.0000 0.0000 0.0000
# 3 55.0614 35.2471 101.0989 0.0000 0.0000 0.0000
# 4 0.0000 0.0000 0.0000 18.1076 0.0000 0.0000
# 5 0.0000 0.0000 0.0000 0.0000 23.3797 0.0000
# 6 0.0000 0.0000 0.0000 0.0000 0.0000 6.4823
#
#
#
# Elastic Compliance Matrix: (Units=1/GPa)
#
#
# Indices 1 2 3 4 5 6 
#
# 1 0.011575 -0.003475 -0.005093 0.000000 0.000000 0.000000
# 2 -0.003475 0.044377 -0.013579 0.000000 0.000000 0.000000
# 3 -0.005093 -0.013579 0.017399 0.000000 0.000000 0.000000
# 4 0.000000 0.000000 0.000000 0.055225 0.000000 0.000000
# 5 0.000000 0.000000 0.000000 0.000000 0.042772 0.000000
# 6 0.000000 0.000000 0.000000 0.000000 0.000000 0.154266
#
#
# Mechanical properties :
#
#
# Convention : Reuss Voigt Hill
#
# Bulk Modulus (GPa) = 34.41370 54.19854 44.30612
# Shear Modulus (GPa) = 13.17193 18.82658 15.99926
#
# Velocity S-wave (km/s) = 2.88738 3.45195 3.18221
# Velocity P-wave (km/s) = 5.73564 7.08463 6.44552
#
# Compressibility (1/GPa) = 0.02905819
#
# Stress axis : x y z
#
# Youngs Moduli (GPa) = 86.39064 22.53411 57.47381
#
# Poissons Ratio (x) = 0.07830 0.29270
# Poissons Ratio (y) = 0.30019 0.78045
# Poissons Ratio (z) = 0.43997 0.30599
#
# Static dielectric constant tensor:
#      x y z
#    x 2.912410 0.000000 0.000000 
#    y 0.000000 2.889870 0.000000 
#    z 0.000000 0.000000 2.846080 
# 
# 
# High freq. dielectric constant tensor:
#      x y z
#    x 1.607550 0.000000 0.000000 
#    y 0.000000 1.589660 0.000000 
#    z 0.000000 0.000000 1.580780 
# 
# From -- ./inp_files/26585.got.cif
#   From: 2010.03.12/outbox.cif.g09.slc.cpg/sg51_14_cif.got.tgz:26585.got - 2010.04.16 13:43:02.
