data_PCOD8206481
_publ_section_title
;
Structure prediction by ZEFSAII (Michael W. Deem and Ramdas Pophale) SiO2 
 PCOD8206481
Probable space group: P M M A
;
_chemical_formula_sum "Si O2"
_cell_formula_units_Z 40
_cell_length_a 24.927442
_cell_length_b 8.409425
_cell_length_c 10.354666
_cell_angle_alpha 90.000000
_cell_angle_beta 90.000000
_cell_angle_gamma 90.000000
_cell_volume 2170.601561
_symmetry_space_group_name_H-M "P M M A"
_symmetry_group_IT_number 51
_symmetry_cell_setting 'orthorhombic'
loop_
_space_group_symop_operation_xyz
x,y,z
1/2-x,-y,z
1/2+x,-y,-z
-x,y,-z
-x,-y,-z
1/2+x,y,-z
1/2-x,y,z
x,-y,z
loop_
_atom_site_type_symbol
_atom_site_label
_atom_site_fract_x
_atom_site_fract_y
_atom_site_fract_z
Si Si1 0.026341 0.686585 0.628066
Si Si2 0.750000 0.816060 0.971304
Si Si3 0.750000 0.314084 0.249622
Si Si4 0.134823 0.314004 0.734764
Si Si5 0.638291 0.686998 0.970437
Si Si6 0.468497 0.185026 0.127189
O O1 0.031571 0.500000 0.605560
O O2 0.086195 0.762130 0.651631
O O3 0.000000 0.765253 0.500000
O O4 0.989494 0.717769 0.751000
O O5 0.696696 0.732825 0.913727
O O6 0.750000 0.000000 0.933476
O O7 0.750000 0.795762 0.124902
O O8 0.750000 0.500000 0.204611
O O9 0.805673 0.277534 0.326932
O O10 0.124487 0.500000 0.739580
O O11 0.133253 0.251113 0.881838
O O12 0.628952 0.500000 0.958469
O O13 0.594310 0.778857 0.886524
O O14 0.478504 0.000000 0.151729
O O15 0.500000 0.244540 0.000000
#
# Coordination Sequence:
#
# PCOD8206481 Si02
#       6
#     8   4   4   8   8   8
#     4  10  20  34  52  74 102 139 181 220 265 320
#     4  10  18  28  44  73 110 135 162 210 268 314
#     4   8  14  26  44  67  94 129 170 208 256 310
#     4   8  14  26  46  71  96 125 165 216 260 303
#     4  10  18  31  52  74 101 136 177 215 259 312
#     4  11  22  34  51  77 106 136 173 218 270 318
#
# _framework density 18.428072
#
# number of rings (size 3 to 8) (size 9 to 14) (size 15 to 20)
#    0.000    2.400    2.000    3.300    0.000    1.200 
#    0.000    0.000    0.000    1.200    0.000    4.200 
#    0.000    0.000    0.000    0.000    0.000    0.000 
#
# Total GULP energy -495681.458504 kJ/mol
# GULP energy per Si atom -12392.036463 kJ/mol
# Density = 1.838613 g / cm^3
# Si number density = 18.428072 Si / 1000 Ang^3
#
#
#
# Elastic Constant Matrix: (Units=GPa)
#
#
# Indices 1 2 3 4 5 6 
#
# 1 189.4478 2.0478 52.0635 0.0000 0.0000 0.0000
# 2 2.0478 26.3301 0.9769 0.0000 0.0000 0.0000
# 3 52.0635 0.9769 71.7797 0.0000 0.0000 0.0000
# 4 0.0000 0.0000 0.0000 11.0372 0.0000 0.0000
# 5 0.0000 0.0000 0.0000 0.0000 19.8242 0.0000
# 6 0.0000 0.0000 0.0000 0.0000 0.0000 15.7725
#
#
#
# Elastic Compliance Matrix: (Units=1/GPa)
#
#
# Indices 1 2 3 4 5 6 
#
# 1 0.006596 -0.000336 -0.004779 0.000000 0.000000 0.000000
# 2 -0.000336 0.038016 -0.000274 0.000000 0.000000 0.000000
# 3 -0.004779 -0.000274 0.017402 0.000000 0.000000 0.000000
# 4 0.000000 0.000000 0.000000 0.090603 0.000000 0.000000
# 5 0.000000 0.000000 0.000000 0.000000 0.050444 0.000000
# 6 0.000000 0.000000 0.000000 0.000000 0.000000 0.063401
#
#
# Mechanical properties :
#
#
# Convention : Reuss Voigt Hill
#
# Bulk Modulus (GPa) = 19.51781 44.19264 31.85522
# Shear Modulus (GPa) = 16.98850 24.82474 20.90662
#
# Velocity S-wave (km/s) = 3.03954 3.67429 3.37189
# Velocity P-wave (km/s) = 4.78882 6.48334 5.69941
#
# Compressibility (1/GPa) = 0.05123525
#
# Stress axis : x y z
#
# Youngs Moduli (GPa) = 151.61685 26.30494 57.46525
#
# Poissons Ratio (x) = 0.00883 0.27465
# Poissons Ratio (y) = 0.05089 0.01574
# Poissons Ratio (z) = 0.72463 0.00721
#
# Static dielectric constant tensor:
#      x y z
#    x 4.060110 0.000000 0.000000 
#    y 0.000000 3.083970 0.000000 
#    z 0.000000 0.000000 3.037010 
# 
# 
# High freq. dielectric constant tensor:
#      x y z
#    x 1.745950 0.000000 0.000000 
#    y 0.000000 1.693410 0.000000 
#    z 0.000000 0.000000 1.650560 
# 
# From -- ./inp_files/12134.got.cif
#   From: 2010.03.12/outbox.cif.g09.slc.cpg/sg51_7_cif.got.tgz:12134.got - 2010.04.16 13:43:02.
