data_PCOD8206168
_publ_section_title
;
Structure prediction by ZEFSAII (Michael W. Deem and Ramdas Pophale) SiO2 
 PCOD8206168
Probable space group: P M M A
;
_chemical_formula_sum "Si O2"
_cell_formula_units_Z 64
_cell_length_a 30.335604
_cell_length_b 8.463793
_cell_length_c 14.141021
_cell_angle_alpha 90.000000
_cell_angle_beta 90.000000
_cell_angle_gamma 90.000000
_cell_volume 3630.767563
_symmetry_space_group_name_H-M "P M M A"
_symmetry_group_IT_number 51
_symmetry_cell_setting 'orthorhombic'
loop_
_space_group_symop_operation_xyz
x,y,z
1/2-x,-y,z
1/2+x,-y,-z
-x,y,-z
-x,-y,-z
1/2+x,y,-z
1/2-x,y,z
x,-y,z
loop_
_atom_site_type_symbol
_atom_site_label
_atom_site_fract_x
_atom_site_fract_y
_atom_site_fract_z
Si Si1 0.142226 0.182127 0.676069
Si Si2 0.929890 0.683244 0.457588
Si Si3 0.122018 0.185567 0.384823
Si Si4 0.572734 0.814662 0.789526
Si Si5 0.511506 0.816295 0.317030
Si Si6 0.083663 0.682466 0.816735
Si Si7 0.298806 0.188054 0.511017
Si Si8 0.551588 0.813287 0.994485
O O1 0.102093 0.206314 0.604035
O O2 0.132574 0.280137 0.772862
O O3 0.185332 0.239571 0.616616
O O4 0.146894 0.000000 0.704173
O O5 0.919145 0.500000 0.442721
O O6 0.920910 0.734204 0.565547
O O7 0.978530 0.722905 0.415813
O O8 0.117293 0.222588 0.271757
O O9 0.167829 0.252276 0.428915
O O10 0.118585 0.000000 0.402815
O O11 0.532313 0.743700 0.729519
O O12 0.572593 0.747551 0.896044
O O13 0.564636 0.000000 0.799931
O O14 0.549606 0.791677 0.239470
O O15 0.506371 0.000000 0.340753
O O16 0.072386 0.500000 0.800921
O O17 0.080660 0.725683 0.926748
O O18 0.250000 0.258640 0.492891
O O19 0.297830 0.000000 0.505221
O O20 0.557228 0.000000 0.007126
O O21 0.500000 0.766152 0.000000
#
# Coordination Sequence:
#
# PCOD8206168 Si02
#       8
#     8   8   8   8   8   8   8   8
#     4   9  16  28  47  68  91 121 151 180 220 272
#     4  10  18  28  41  61  89 119 151 186 224 264
#     4   9  17  31  47  64  88 118 150 182 220 270
#     4   9  18  30  46  64  82 113 159 199 224 261
#     4  10  17  29  45  61  82 116 159 194 226 262
#     4  11  20  29  43  66  94 120 151 193 238 276
#     4   8  14  26  48  76  98 114 138 177 224 272
#     4  10  18  32  49  64  84 117 163 206 234 266
#
# _framework density 17.627126000000001
#
# number of rings (size 3 to 8) (size 9 to 14) (size 15 to 20)
#    0.000    2.500    1.250    5.250    0.000    0.750 
#    0.000    4.375    0.000    9.375    0.000    0.875 
#    0.000    5.000    0.000    0.000    0.000    0.000 
#
# Total GULP energy -792853.544334 kJ/mol
# GULP energy per Si atom -12388.336630 kJ/mol
# Density = 1.758701 g / cm^3
# Si number density = 17.627126 Si / 1000 Ang^3
#
#
#
# Elastic Constant Matrix: (Units=GPa)
#
#
# Indices 1 2 3 4 5 6 
#
# 1 63.3189 9.9725 51.0875 0.0000 0.0000 0.0000
# 2 9.9725 37.4529 20.5772 0.0000 0.0000 0.0000
# 3 51.0875 20.5772 136.9870 0.0000 0.0000 0.0000
# 4 0.0000 0.0000 0.0000 7.7509 0.0000 0.0000
# 5 0.0000 0.0000 0.0000 0.0000 20.0531 0.0000
# 6 0.0000 0.0000 0.0000 0.0000 0.0000 2.8132
#
#
#
# Elastic Compliance Matrix: (Units=1/GPa)
#
#
# Indices 1 2 3 4 5 6 
#
# 1 0.022669 -0.001516 -0.008226 0.000000 0.000000 0.000000
# 2 -0.001516 0.029203 -0.003821 0.000000 0.000000 0.000000
# 3 -0.008226 -0.003821 0.010942 0.000000 0.000000 0.000000
# 4 0.000000 0.000000 0.000000 0.129017 0.000000 0.000000
# 5 0.000000 0.000000 0.000000 0.000000 0.049868 0.000000
# 6 0.000000 0.000000 0.000000 0.000000 0.000000 0.355464
#
#
# Mechanical properties :
#
#
# Convention : Reuss Voigt Hill
#
# Bulk Modulus (GPa) = 28.02179 44.55925 36.29052
# Shear Modulus (GPa) = 7.85933 16.53156 12.19544
#
# Velocity S-wave (km/s) = 2.11384 3.06575 2.63317
# Velocity P-wave (km/s) = 4.67860 6.15349 5.46602
#
# Compressibility (1/GPa) = 0.03568652
#
# Stress axis : x y z
#
# Youngs Moduli (GPa) = 44.11281 34.24255 91.39196
#
# Poissons Ratio (x) = 0.05192 0.75182
# Poissons Ratio (y) = 0.06689 0.34923
# Poissons Ratio (z) = 0.36289 0.13085
#
# Static dielectric constant tensor:
#      x y z
#    x 3.327900 0.000000 0.000000 
#    y 0.000000 2.951430 0.000000 
#    z 0.000000 0.000000 3.606480 
# 
# 
# High freq. dielectric constant tensor:
#      x y z
#    x 1.636010 0.000000 0.000000 
#    y 0.000000 1.659560 0.000000 
#    z 0.000000 0.000000 1.681820 
# 
# From -- ./inp_files/26647.got.cif
#   From: 2010.03.12/outbox.cif.g09.slc.cpg/sg51_14_cif.got.tgz:26647.got - 2010.04.16 13:43:02.
