data_PCOD8207655
_publ_section_title
;
Structure prediction by ZEFSAII (Michael W. Deem and Ramdas Pophale) SiO2 
 PCOD8207655
Probable space group: P M M A
;
_chemical_formula_sum "Si O2"
_cell_formula_units_Z 56
_cell_length_a 8.874634
_cell_length_b 21.277729
_cell_length_c 18.466181
_cell_angle_alpha 90.000000
_cell_angle_beta 90.000000
_cell_angle_gamma 90.000000
_cell_volume 3487.006947
_symmetry_space_group_name_H-M "P M M A"
_symmetry_group_IT_number 51
_symmetry_cell_setting 'orthorhombic'
loop_
_space_group_symop_operation_xyz
x,y,z
1/2-x,-y,z
1/2+x,-y,-z
-x,y,-z
-x,-y,-z
1/2+x,y,-z
1/2-x,y,z
x,-y,z
loop_
_atom_site_type_symbol
_atom_site_label
_atom_site_fract_x
_atom_site_fract_y
_atom_site_fract_z
Si Si1 0.921678 0.826780 0.837346
Si Si2 0.425665 0.252898 0.292966
Si Si3 0.426026 0.700880 0.077504
Si Si4 0.569501 0.308606 0.421603
Si Si5 0.427583 0.568510 0.662390
Si Si6 0.425369 0.640175 0.797903
Si Si7 0.073505 0.928677 0.925821
O O1 0.750000 0.844021 0.855524
O O2 0.940638 0.812957 0.751025
O O3 0.971305 0.766012 0.883856
O O4 0.023812 0.885871 0.858511
O O5 0.250000 0.273773 0.293748
O O6 0.495896 0.251862 0.373794
O O7 0.529952 0.300924 0.250457
O O8 0.250000 0.693870 0.068361
O O9 0.483846 0.642328 0.126564
O O10 0.500000 0.697365 0.000000
O O11 0.500000 0.301090 0.500000
O O12 0.750000 0.302671 0.422770
O O13 0.511382 0.375735 0.389269
O O14 0.250000 0.567524 0.652303
O O15 0.495821 0.500000 0.640595
O O16 0.465560 0.580045 0.747639
O O17 0.250000 0.643103 0.816749
O O18 0.250000 0.923918 0.935680
O O19 0.021289 0.000000 0.910010
O O20 0.000000 0.903427 0.000000
#
# Coordination Sequence:
#
# PCOD8207655 Si02
#       7
#     8   8   8   8   8   8   8
#     4   9  18  30  45  64  85 113 146 182 220 257
#     4   9  17  30  46  64  87 113 144 180 217 258
#     4  10  19  29  42  62  86 109 139 180 224 266
#     4  10  19  30  46  67  92 120 145 173 214 258
#     4   8  15  28  45  64  85 111 144 177 209 252
#     4   9  16  27  44  63  83 109 139 173 218 264
#     4  10  20  31  43  61  88 123 158 190 222 255
#
# _framework density 16.059616999999999
#
# number of rings (size 3 to 8) (size 9 to 14) (size 15 to 20)
#    0.000    2.714    0.000    4.286    0.000    5.714 
#    0.000    0.000    0.000   15.429    0.000    0.000 
#    0.000    0.571    0.000    1.857    0.000    2.714 
#
# Total GULP energy -693909.770320 kJ/mol
# GULP energy per Si atom -12391.245899 kJ/mol
# Density = 1.602306 g / cm^3
# Si number density = 16.059617 Si / 1000 Ang^3
#
#
#
# Elastic Constant Matrix: (Units=GPa)
#
#
# Indices 1 2 3 4 5 6 
#
# 1 48.2312 22.1470 41.7151 0.0000 0.0000 0.0000
# 2 22.1470 50.1797 41.7437 0.0000 0.0000 0.0000
# 3 41.7151 41.7437 130.0328 0.0000 0.0000 0.0000
# 4 0.0000 0.0000 0.0000 22.3420 0.0000 0.0000
# 5 0.0000 0.0000 0.0000 0.0000 29.7712 0.0000
# 6 0.0000 0.0000 0.0000 0.0000 0.0000 16.1919
#
#
#
# Elastic Compliance Matrix: (Units=1/GPa)
#
#
# Indices 1 2 3 4 5 6 
#
# 1 0.030521 -0.007266 -0.007459 0.000000 0.000000 0.000000
# 2 -0.007266 0.028919 -0.006953 0.000000 0.000000 0.000000
# 3 -0.007459 -0.006953 0.012315 0.000000 0.000000 0.000000
# 4 0.000000 0.000000 0.000000 0.044759 0.000000 0.000000
# 5 0.000000 0.000000 0.000000 0.000000 0.033589 0.000000
# 6 0.000000 0.000000 0.000000 0.000000 0.000000 0.061759
#
#
# Mechanical properties :
#
#
# Convention : Reuss Voigt Hill
#
# Bulk Modulus (GPa) = 35.21060 48.85058 42.03059
# Shear Modulus (GPa) = 18.89045 21.85022 20.37033
#
# Velocity S-wave (km/s) = 3.43340 3.69259 3.56535
# Velocity P-wave (km/s) = 6.13923 6.97600 6.57095
#
# Compressibility (1/GPa) = 0.02840054
#
# Stress axis : x y z
#
# Youngs Moduli (GPa) = 32.76453 34.57920 81.20032
#
# Poissons Ratio (x) = 0.25124 0.60565
# Poissons Ratio (y) = 0.23806 0.56458
# Poissons Ratio (z) = 0.24438 0.24043
#
# Static dielectric constant tensor:
#      x y z
#    x 3.091480 0.000000 0.000000 
#    y 0.000000 3.027260 0.000000 
#    z 0.000000 0.000000 3.091320 
# 
# 
# High freq. dielectric constant tensor:
#      x y z
#    x 1.622730 0.000000 0.000000 
#    y 0.000000 1.577760 0.000000 
#    z 0.000000 0.000000 1.612170 
# 
# From -- ./inp_files/28182.got.cif
#   From: 2010.03.12/outbox.cif.g09.slc.cpg/sg51_15_cif.got.tgz:28182.got - 2010.04.16 13:43:02.
