data_PCOD8207192
_publ_section_title
;
Structure prediction by ZEFSAII (Michael W. Deem and Ramdas Pophale) SiO2 
 PCOD8207192
Probable space group: P M M A
;
_chemical_formula_sum "Si O2"
_cell_formula_units_Z 36
_cell_length_a 14.421142
_cell_length_b 9.793336
_cell_length_c 14.523387
_cell_angle_alpha 90.000000
_cell_angle_beta 90.000000
_cell_angle_gamma 90.000000
_cell_volume 2051.153764
_symmetry_space_group_name_H-M "P M M A"
_symmetry_group_IT_number 51
_symmetry_cell_setting 'orthorhombic'
loop_
_space_group_symop_operation_xyz
x,y,z
1/2-x,-y,z
1/2+x,-y,-z
-x,y,-z
-x,-y,-z
1/2+x,y,-z
1/2-x,y,z
x,-y,z
loop_
_atom_site_type_symbol
_atom_site_label
_atom_site_fract_x
_atom_site_fract_y
_atom_site_fract_z
Si Si1 0.438757 0.654693 0.910095
Si Si2 0.078175 0.156350 0.427098
Si Si3 0.750000 0.342642 0.605129
Si Si4 0.250000 0.341798 0.988059
Si Si5 0.750000 0.247771 0.806775
Si Si6 0.951289 0.149639 0.780625
O O1 0.428007 0.500000 0.873878
O O2 0.340481 0.722456 0.939156
O O3 0.486450 0.738567 0.829764
O O4 0.500000 0.657773 0.000000
O O5 0.161815 0.263371 0.436338
O O6 0.031839 0.170262 0.327247
O O7 0.000000 0.197188 0.500000
O O8 0.113544 0.000000 0.442369
O O9 0.750000 0.500000 0.571517
O O10 0.750000 0.344911 0.716827
O O11 0.250000 0.500000 0.965993
O O12 0.250000 0.330443 0.098301
O O13 0.842113 0.156521 0.804078
O O14 0.985079 0.000000 0.812243
#
# Coordination Sequence:
#
# PCOD8207192 Si02
#       6
#     8   8   4   4   4   8
#     4  10  20  34  52  73 101 141 177 207 252 314
#     4   9  19  37  58  77 104 144 181 215 262 323
#     4  10  20  31  53  86 112 131 166 225 277 312
#     4  10  19  33  50  71 101 138 179 209 244 310
#     4  10  18  32  51  77 105 137 167 210 265 316
#     4  10  20  34  53  79 106 132 172 221 264 303
#
# _framework density 17.551098
#
# number of rings (size 3 to 8) (size 9 to 14) (size 15 to 20)
#    0.000    2.222    2.222    1.000    0.000    7.111 
#    0.000    1.667    0.000    4.000    0.000    0.000 
#    0.000    0.000    0.000    0.000    0.000    0.000 
#
# Total GULP energy -446251.021143 kJ/mol
# GULP energy per Si atom -12395.861698 kJ/mol
# Density = 1.751115 g / cm^3
# Si number density = 17.551098 Si / 1000 Ang^3
#
#
#
# Elastic Constant Matrix: (Units=GPa)
#
#
# Indices 1 2 3 4 5 6 
#
# 1 131.3172 61.5520 68.3169 0.0000 0.0000 0.0000
# 2 61.5520 112.5541 49.1458 0.0000 0.0000 0.0000
# 3 68.3169 49.1458 87.9945 0.0000 0.0000 0.0000
# 4 0.0000 0.0000 0.0000 23.6844 0.0000 0.0000
# 5 0.0000 0.0000 0.0000 0.0000 31.5618 0.0000
# 6 0.0000 0.0000 0.0000 0.0000 0.0000 23.5111
#
#
#
# Elastic Compliance Matrix: (Units=1/GPa)
#
#
# Indices 1 2 3 4 5 6 
#
# 1 0.013919 -0.003826 -0.008669 0.000000 0.000000 0.000000
# 2 -0.003826 0.012802 -0.004179 0.000000 0.000000 0.000000
# 3 -0.008669 -0.004179 0.020429 0.000000 0.000000 0.000000
# 4 0.000000 0.000000 0.000000 0.042222 0.000000 0.000000
# 5 0.000000 0.000000 0.000000 0.000000 0.031684 0.000000
# 6 0.000000 0.000000 0.000000 0.000000 0.000000 0.042533
#
#
# Mechanical properties :
#
#
# Convention : Reuss Voigt Hill
#
# Bulk Modulus (GPa) = 72.46310 76.65503 74.55907
# Shear Modulus (GPa) = 24.80916 25.94151 25.37533
#
# Velocity S-wave (km/s) = 3.76378 3.84872 3.80649
# Velocity P-wave (km/s) = 7.76303 7.96997 7.86718
#
# Compressibility (1/GPa) = 0.01380013
#
# Stress axis : x y z
#
# Youngs Moduli (GPa) = 71.84565 78.11273 48.94994
#
# Poissons Ratio (x) = 0.29889 0.42435
# Poissons Ratio (y) = 0.27491 0.20458
# Poissons Ratio (z) = 0.62284 0.32646
#
# Static dielectric constant tensor:
#      x y z
#    x 3.411230 0.000000 0.000000 
#    y 0.000000 3.209270 0.000000 
#    z 0.000000 0.000000 3.178080 
# 
# 
# High freq. dielectric constant tensor:
#      x y z
#    x 1.679570 0.000000 0.000000 
#    y 0.000000 1.671400 0.000000 
#    z 0.000000 0.000000 1.666040 
# 
# From -- ./inp_files/23625.got.cif
#   From: 2010.03.12/outbox.cif.g09.slc.cpg/sg51_12_cif.got.tgz:23625.got - 2010.04.16 13:43:02.
