data_PCOD8207997
_publ_section_title
;
Structure prediction by ZEFSAII (Michael W. Deem and Ramdas Pophale) SiO2 
 PCOD8207997
Probable space group: P M M A
;
_chemical_formula_sum "Si O2"
_cell_formula_units_Z 48
_cell_length_a 30.033633
_cell_length_b 9.097652
_cell_length_c 10.306015
_cell_angle_alpha 90.000000
_cell_angle_beta 90.000000
_cell_angle_gamma 90.000000
_cell_volume 2815.969587
_symmetry_space_group_name_H-M "P M M A"
_symmetry_group_IT_number 51
_symmetry_cell_setting 'orthorhombic'
loop_
_space_group_symop_operation_xyz
x,y,z
1/2-x,-y,z
1/2+x,-y,-z
-x,y,-z
-x,-y,-z
1/2+x,y,-z
1/2-x,y,z
x,-y,z
loop_
_atom_site_type_symbol
_atom_site_label
_atom_site_fract_x
_atom_site_fract_y
_atom_site_fract_z
Si Si1 0.107938 0.666741 0.018109
Si Si2 0.112914 0.672707 0.714201
Si Si3 0.200893 0.828437 0.722311
Si Si4 0.797217 0.665806 0.015367
Si Si5 0.526118 0.173097 0.370355
Si Si6 0.972221 0.826627 0.878226
O O1 0.091839 0.500000 0.034079
O O2 0.158673 0.690646 0.071529
O O3 0.077592 0.766060 0.109651
O O4 0.106404 0.712898 0.866251
O O5 0.112726 0.500000 0.689913
O O6 0.159874 0.737548 0.659592
O O7 0.073224 0.744752 0.631882
O O8 0.250000 0.794205 0.659118
O O9 0.189821 0.000000 0.710346
O O10 0.203656 0.785602 0.872531
O O11 0.750000 0.678072 0.936820
O O12 0.801579 0.500000 0.076159
O O13 0.500000 0.215502 0.500000
O O14 0.495499 0.229909 0.252173
O O15 0.535312 0.000000 0.360214
O O16 0.969166 0.000000 0.879764
O O17 0.000000 0.765586 0.000000
#
# Coordination Sequence:
#
# PCOD8207997 Si02
#       6
#     8   8   8   8   8   8
#     4   9  17  27  43  68  93 122 155 191 233 274
#     4  10  19  30  46  68  95 126 158 194 237 280
#     4   9  16  25  40  64  93 124 157 192 232 279
#     4   8  14  25  39  59  91 125 154 186 230 280
#     4  10  21  36  51  68  93 125 159 198 244 287
#     4  10  19  31  48  69  91 120 156 193 233 278
#
# _framework density 17.045639000000001
#
# number of rings (size 3 to 8) (size 9 to 14) (size 15 to 20)
#    0.000    2.667    1.667    2.000    0.000    5.000 
#    0.000    0.000    0.000    0.000    0.000    1.167 
#    0.000    6.667    0.000    0.000    0.000    0.000 
#
# Total GULP energy -594724.207515 kJ/mol
# GULP energy per Si atom -12390.087657 kJ/mol
# Density = 1.700684 g / cm^3
# Si number density = 17.045639 Si / 1000 Ang^3
#
#
#
# Elastic Constant Matrix: (Units=GPa)
#
#
# Indices 1 2 3 4 5 6 
#
# 1 183.5611 57.6686 47.2609 0.0000 0.0000 0.0000
# 2 57.6686 55.4389 23.9841 0.0000 0.0000 0.0000
# 3 47.2609 23.9841 60.9558 0.0000 0.0000 0.0000
# 4 0.0000 0.0000 0.0000 11.3906 0.0000 0.0000
# 5 0.0000 0.0000 0.0000 0.0000 14.7620 0.0000
# 6 0.0000 0.0000 0.0000 0.0000 0.0000 33.0269
#
#
#
# Elastic Compliance Matrix: (Units=1/GPa)
#
#
# Indices 1 2 3 4 5 6 
#
# 1 0.008793 -0.007468 -0.003879 0.000000 0.000000 0.000000
# 2 -0.007468 0.028082 -0.005259 0.000000 0.000000 0.000000
# 3 -0.003879 -0.005259 0.021482 0.000000 0.000000 0.000000
# 4 0.000000 0.000000 0.000000 0.087792 0.000000 0.000000
# 5 0.000000 0.000000 0.000000 0.000000 0.067741 0.000000
# 6 0.000000 0.000000 0.000000 0.000000 0.000000 0.030278
#
#
# Mechanical properties :
#
#
# Convention : Reuss Voigt Hill
#
# Bulk Modulus (GPa) = 39.77013 61.97590 50.87301
# Shear Modulus (GPa) = 17.49713 23.23870 20.36791
#
# Velocity S-wave (km/s) = 3.20736 3.69632 3.46049
# Velocity P-wave (km/s) = 6.09085 7.39289 6.77323
#
# Compressibility (1/GPa) = 0.02514450
#
# Stress axis : x y z
#
# Youngs Moduli (GPa) = 113.73044 35.61045 46.55109
#
# Poissons Ratio (x) = 0.26595 0.18056
# Poissons Ratio (y) = 0.84938 0.24480
# Poissons Ratio (z) = 0.44113 0.18727
#
# Static dielectric constant tensor:
#      x y z
#    x 3.698610 0.000000 0.000000 
#    y 0.000000 3.127720 0.000000 
#    z 0.000000 0.000000 2.658490 
# 
# 
# High freq. dielectric constant tensor:
#      x y z
#    x 1.687400 0.000000 0.000000 
#    y 0.000000 1.660110 0.000000 
#    z 0.000000 0.000000 1.578310 
# 
# From -- ./inp_files/12835.got.cif
#   From: 2010.03.12/outbox.cif.g09.slc.cpg/sg51_7_cif.got.tgz:12835.got - 2010.04.16 13:43:02.
