data_PCOD8207546
_publ_section_title
;
Structure prediction by ZEFSAII (Michael W. Deem and Ramdas Pophale) SiO2 
 PCOD8207546
Probable space group: P M M A
;
_chemical_formula_sum "Si O2"
_cell_formula_units_Z 52
_cell_length_a 9.406912
_cell_length_b 12.634868
_cell_length_c 29.831852
_cell_angle_alpha 90.000000
_cell_angle_beta 90.000000
_cell_angle_gamma 90.000000
_cell_volume 3545.667496
_symmetry_space_group_name_H-M "P M M A"
_symmetry_group_IT_number 51
_symmetry_cell_setting 'orthorhombic'
loop_
_space_group_symop_operation_xyz
x,y,z
1/2-x,-y,z
1/2+x,-y,-z
-x,y,-z
-x,-y,-z
1/2+x,y,-z
1/2-x,y,z
x,-y,z
loop_
_atom_site_type_symbol
_atom_site_label
_atom_site_fract_x
_atom_site_fract_y
_atom_site_fract_z
Si Si1 0.589523 0.126282 0.042253
Si Si2 0.585817 0.620146 0.543188
Si Si3 0.090121 0.874136 0.124827
Si Si4 0.415506 0.000000 0.454273
Si Si5 0.915164 0.805498 0.608179
Si Si6 0.909056 0.125640 0.776055
Si Si7 0.084409 0.875613 0.692008
O O1 0.750000 0.170025 0.039229
O O2 0.517633 0.171468 0.087658
O O3 0.589816 0.000000 0.042490
O O4 0.500000 0.168826 0.000000
O O5 0.500000 0.659963 0.500000
O O6 0.750000 0.630475 0.530129
O O7 0.544206 0.500000 0.555975
O O8 0.549939 0.692945 0.585660
O O9 0.250000 0.835134 0.113901
O O10 0.044055 0.833916 0.174455
O O11 0.086674 0.000000 0.123478
O O12 0.500000 0.000000 0.500000
O O13 0.459284 0.897168 0.426173
O O14 0.250000 0.000000 0.466169
O O15 0.750000 0.816551 0.621622
O O16 0.009647 0.812018 0.652355
O O17 0.750000 0.166659 0.764788
O O18 0.018992 0.166890 0.738751
O O19 0.908789 0.000000 0.776381
O O20 0.250000 0.849071 0.692086
O O21 0.054963 0.000000 0.685549
#
# Coordination Sequence:
#
# PCOD8207546 Si02
#       7
#     8   8   8   4   8   8   8
#     4   9  15  20  26  36  51  72  98 133 177 221
#     4   9  18  32  49  67  84 103 128 157 188 221
#     4   8  13  21  31  42  55  74 103 136 172 216
#     4  10  20  30  42  60  80 104 128 150 179 218
#     4  10  19  31  45  60  81 107 130 152 183 227
#     4   8  14  24  37  49  64  89 116 143 178 223
#     4  10  19  28  39  57  78  99 124 155 187 220
#
# _framework density 14.665786000000001
#
# number of rings (size 3 to 8) (size 9 to 14) (size 15 to 20)
#    0.000    2.923    0.769    2.308    0.000    4.308 
#    0.000    3.077    0.000    0.000    0.000    0.000 
#    0.000    0.000    0.000    0.000    0.000    0.000 
#
# Total GULP energy -644625.107361 kJ/mol
# GULP energy per Si atom -12396.636680 kJ/mol
# Density = 1.463241 g / cm^3
# Si number density = 14.665786 Si / 1000 Ang^3
#
#
#
# Elastic Constant Matrix: (Units=GPa)
#
#
# Indices 1 2 3 4 5 6 
#
# 1 101.0468 21.0928 84.2166 0.0000 0.0000 0.0000
# 2 21.0928 30.9132 26.4424 0.0000 0.0000 0.0000
# 3 84.2166 26.4424 144.1505 0.0000 0.0000 0.0000
# 4 0.0000 0.0000 0.0000 6.7516 0.0000 0.0000
# 5 0.0000 0.0000 0.0000 0.0000 33.6083 0.0000
# 6 0.0000 0.0000 0.0000 0.0000 0.0000 7.9414
#
#
#
# Elastic Compliance Matrix: (Units=1/GPa)
#
#
# Indices 1 2 3 4 5 6 
#
# 1 0.019754 -0.004278 -0.010756 0.000000 0.000000 0.000000
# 2 -0.004278 0.039296 -0.004709 0.000000 0.000000 0.000000
# 3 -0.010756 -0.004709 0.014085 0.000000 0.000000 0.000000
# 4 0.000000 0.000000 0.000000 0.148114 0.000000 0.000000
# 5 0.000000 0.000000 0.000000 0.000000 0.029755 0.000000
# 6 0.000000 0.000000 0.000000 0.000000 0.000000 0.125922
#
#
# Mechanical properties :
#
#
# Convention : Reuss Voigt Hill
#
# Bulk Modulus (GPa) = 29.71904 59.95710 44.83807
# Shear Modulus (GPa) = 11.69242 19.28416 15.48829
#
# Velocity S-wave (km/s) = 2.82664 3.63010 3.25327
# Velocity P-wave (km/s) = 5.56430 7.65122 6.68964
#
# Compressibility (1/GPa) = 0.03364846
#
# Stress axis : x y z
#
# Youngs Moduli (GPa) = 50.62277 25.44817 70.99799
#
# Poissons Ratio (x) = 0.10887 0.76366
# Poissons Ratio (y) = 0.21657 0.33432
# Poissons Ratio (z) = 0.54450 0.11983
#
# Static dielectric constant tensor:
#      x y z
#    x 2.960850 0.000000 0.000000 
#    y 0.000000 2.362840 0.000000 
#    z 0.000000 0.000000 3.079090 
# 
# 
# High freq. dielectric constant tensor:
#      x y z
#    x 1.568770 0.000000 0.000000 
#    y 0.000000 1.483090 0.000000 
#    z 0.000000 0.000000 1.571780 
# 
# From -- ./inp_files/37321.got.cif
#   From: 2010.03.12/outbox.cif.g09.slc.cpg/sg51_19_cif.got.tgz:37321.got - 2010.04.16 13:43:02.
