data_PCOD8207813
_publ_section_title
;
Structure prediction by ZEFSAII (Michael W. Deem and Ramdas Pophale) SiO2 
 PCOD8207813
Probable space group: P M M A
;
_chemical_formula_sum "Si O2"
_cell_formula_units_Z 44
_cell_length_a 8.860356
_cell_length_b 18.460745
_cell_length_c 19.509042
_cell_angle_alpha 90.000000
_cell_angle_beta 90.000000
_cell_angle_gamma 90.000000
_cell_volume 3191.070057
_symmetry_space_group_name_H-M "P M M A"
_symmetry_group_IT_number 51
_symmetry_cell_setting 'orthorhombic'
loop_
_space_group_symop_operation_xyz
x,y,z
1/2-x,-y,z
1/2+x,-y,-z
-x,y,-z
-x,-y,-z
1/2+x,y,-z
1/2-x,y,z
x,-y,z
loop_
_atom_site_type_symbol
_atom_site_label
_atom_site_fract_x
_atom_site_fract_y
_atom_site_fract_z
Si Si1 0.574117 0.576374 0.573041
Si Si2 0.071265 0.733908 0.425001
Si Si3 0.072004 0.000000 0.573934
Si Si4 0.420010 0.913866 0.932197
Si Si5 0.571090 0.861000 0.341041
Si Si6 0.927047 0.084253 0.792881
O O1 0.500000 0.573693 0.500000
O O2 0.750000 0.577586 0.559760
O O3 0.530353 0.500000 0.612843
O O4 0.530434 0.653771 0.606829
O O5 0.250000 0.746807 0.430813
O O6 0.000000 0.745006 0.500000
O O7 0.000050 0.789261 0.372114
O O8 0.015823 0.929458 0.614534
O O9 0.000000 0.000000 0.500000
O O10 0.250000 0.000000 0.565602
O O11 0.250000 0.883391 0.927812
O O12 0.513789 0.888000 0.866197
O O13 0.418027 0.000000 0.936061
O O14 0.500000 0.881953 0.000000
O O15 0.750000 0.854578 0.340355
O O16 0.512031 0.869170 0.264097
O O17 0.750000 0.098452 0.788332
O O18 0.967133 0.000000 0.782258
#
# Coordination Sequence:
#
# PCOD8207813 Si02
#       6
#     8   8   4   8   8   8
#     4   8  14  25  41  59  78  98 120 150 190 237
#     4  10  19  30  43  60  79 100 129 164 203 243
#     4  10  22  34  44  54  67  92 129 170 208 244
#     4   9  16  26  41  60  81 102 125 157 194 235
#     4  11  21  33  44  56  75 102 134 168 207 244
#     4  10  19  30  44  60  77 100 130 165 203 242
#
# _framework density 13.788478
#
# number of rings (size 3 to 8) (size 9 to 14) (size 15 to 20)
#    0.000    2.364    0.909    2.727    0.000    6.545 
#    0.000    0.000    0.000    0.000    0.000    0.000 
#    0.000    0.000    0.000    0.000    0.000    0.909 
#
# Total GULP energy -545219.913301 kJ/mol
# GULP energy per Si atom -12391.361666 kJ/mol
# Density = 1.375709 g / cm^3
# Si number density = 13.788478 Si / 1000 Ang^3
#
#
#
# Elastic Constant Matrix: (Units=GPa)
#
#
# Indices 1 2 3 4 5 6 
#
# 1 61.7058 36.2742 33.5448 0.0000 0.0000 0.0000
# 2 36.2742 102.1740 46.0385 0.0000 0.0000 0.0000
# 3 33.5448 46.0385 93.5312 0.0000 0.0000 0.0000
# 4 0.0000 0.0000 0.0000 3.3763 0.0000 0.0000
# 5 0.0000 0.0000 0.0000 0.0000 26.0579 0.0000
# 6 0.0000 0.0000 0.0000 0.0000 0.0000 12.9853
#
#
#
# Elastic Compliance Matrix: (Units=1/GPa)
#
#
# Indices 1 2 3 4 5 6 
#
# 1 0.022340 -0.005552 -0.005279 0.000000 0.000000 0.000000
# 2 -0.005552 0.013957 -0.004878 0.000000 0.000000 0.000000
# 3 -0.005279 -0.004878 0.014986 0.000000 0.000000 0.000000
# 4 0.000000 0.000000 0.000000 0.296178 0.000000 0.000000
# 5 0.000000 0.000000 0.000000 0.000000 0.038376 0.000000
# 6 0.000000 0.000000 0.000000 0.000000 0.000000 0.077010
#
#
# Mechanical properties :
#
#
# Convention : Reuss Voigt Hill
#
# Bulk Modulus (GPa) = 50.34549 54.34734 52.34641
# Shear Modulus (GPa) = 9.98227 17.92080 13.95154
#
# Velocity S-wave (km/s) = 2.69356 3.60904 3.18437
# Velocity P-wave (km/s) = 6.80189 7.54105 7.18099
#
# Compressibility (1/GPa) = 0.01986275
#
# Stress axis : x y z
#
# Youngs Moduli (GPa) = 44.76313 71.65024 66.72782
#
# Poissons Ratio (x) = 0.39784 0.35226
# Poissons Ratio (y) = 0.24855 0.32553
# Poissons Ratio (z) = 0.23631 0.34954
#
# Static dielectric constant tensor:
#      x y z
#    x 2.871880 0.000000 0.000000 
#    y 0.000000 2.997560 0.000000 
#    z 0.000000 0.000000 2.533750 
# 
# 
# High freq. dielectric constant tensor:
#      x y z
#    x 1.544140 0.000000 0.000000 
#    y 0.000000 1.500000 0.000000 
#    z 0.000000 0.000000 1.499740 
# 
# From -- ./inp_files/27845.got.cif
#   From: 2010.03.12/outbox.cif.g09.slc.cpg/sg51_14_cif.got.tgz:27845.got - 2010.04.16 13:43:02.
