data_PCOD8207581
_publ_section_title
;
Structure prediction by ZEFSAII (Michael W. Deem and Ramdas Pophale) SiO2 
 PCOD8207581
Probable space group: P M M A
;
_chemical_formula_sum "Si O2"
_cell_formula_units_Z 56
_cell_length_a 9.115219
_cell_length_b 18.124753
_cell_length_c 21.619302
_cell_angle_alpha 90.000000
_cell_angle_beta 90.000000
_cell_angle_gamma 90.000000
_cell_volume 3571.748511
_symmetry_space_group_name_H-M "P M M A"
_symmetry_group_IT_number 51
_symmetry_cell_setting 'orthorhombic'
loop_
_space_group_symop_operation_xyz
x,y,z
1/2-x,-y,z
1/2+x,-y,-z
-x,y,-z
-x,-y,-z
1/2+x,y,-z
1/2-x,y,z
x,-y,z
loop_
_atom_site_type_symbol
_atom_site_label
_atom_site_fract_x
_atom_site_fract_y
_atom_site_fract_z
Si Si1 0.076449 0.156580 0.687820
Si Si2 0.915429 0.202094 0.126236
Si Si3 0.076273 0.673809 0.061497
Si Si4 0.078101 0.582654 0.182268
Si Si5 0.418878 0.913861 0.198776
Si Si6 0.088193 0.700846 0.751326
Si Si7 0.421568 0.915636 0.561175
O O1 0.250000 0.144540 0.699125
O O2 0.034720 0.243316 0.697136
O O3 0.028389 0.133811 0.619075
O O4 0.990827 0.104747 0.735413
O O5 0.750000 0.186373 0.102253
O O6 0.910340 0.250662 0.187364
O O7 0.007637 0.245577 0.074368
O O8 0.997592 0.126020 0.142204
O O9 0.250000 0.680806 0.052440
O O10 0.035022 0.617655 0.116442
O O11 0.000000 0.641523 0.000000
O O12 0.250000 0.581585 0.191077
O O13 0.013059 0.500000 0.184962
O O14 0.015741 0.630319 0.239579
O O15 0.250000 0.887704 0.199894
O O16 0.432752 0.000000 0.186174
O O17 0.250000 0.670321 0.736435
O O18 0.500000 0.884688 0.500000
O O19 0.250000 0.909311 0.549854
O O20 0.468752 0.000000 0.574209
#
# Coordination Sequence:
#
# PCOD8207581 Si02
#       7
#     8   8   8   8   8   8   8
#     4   9  17  29  44  61  84 115 150 183 215 255
#     4   9  17  30  46  62  82 109 141 175 213 256
#     4  10  19  31  47  65  86 112 143 175 205 244
#     4   9  18  31  45  63  89 117 140 166 205 251
#     4  10  19  28  41  64  89 110 137 177 221 260
#     4   8  15  27  43  63  83 106 139 176 211 249
#     4   9  17  28  41  58  84 119 154 186 219 253
#
# _framework density 15.678595
#
# number of rings (size 3 to 8) (size 9 to 14) (size 15 to 20)
#    0.000    2.857    0.000    2.571    0.000    6.857 
#    0.000    1.429    0.000    0.429    0.000    0.000 
#    0.000    0.571    0.000    1.286    0.000    2.286 
#
# Total GULP energy -694233.099140 kJ/mol
# GULP energy per Si atom -12397.019628 kJ/mol
# Density = 1.564291 g / cm^3
# Si number density = 15.678595 Si / 1000 Ang^3
#
#
#
# Elastic Constant Matrix: (Units=GPa)
#
#
# Indices 1 2 3 4 5 6 
#
# 1 66.2352 44.0436 26.2275 0.0000 0.0000 0.0000
# 2 44.0436 100.3457 46.5355 0.0000 0.0000 0.0000
# 3 26.2275 46.5355 63.4058 0.0000 0.0000 0.0000
# 4 0.0000 0.0000 0.0000 17.9415 0.0000 0.0000
# 5 0.0000 0.0000 0.0000 0.0000 24.5833 0.0000
# 6 0.0000 0.0000 0.0000 0.0000 0.0000 23.8391
#
#
#
# Elastic Compliance Matrix: (Units=1/GPa)
#
#
# Indices 1 2 3 4 5 6 
#
# 1 0.021693 -0.008126 -0.003009 0.000000 0.000000 0.000000
# 2 -0.008126 0.018151 -0.009961 0.000000 0.000000 0.000000
# 3 -0.003009 -0.009961 0.024327 0.000000 0.000000 0.000000
# 4 0.000000 0.000000 0.000000 0.055737 0.000000 0.000000
# 5 0.000000 0.000000 0.000000 0.000000 0.040678 0.000000
# 6 0.000000 0.000000 0.000000 0.000000 0.000000 0.041948
#
#
# Mechanical properties :
#
#
# Convention : Reuss Voigt Hill
#
# Bulk Modulus (GPa) = 45.49758 51.51110 48.50434
# Shear Modulus (GPa) = 19.83725 20.81812 20.32768
#
# Velocity S-wave (km/s) = 3.56089 3.64786 3.60463
# Velocity P-wave (km/s) = 6.78148 7.11816 6.95186
#
# Compressibility (1/GPa) = 0.02197919
#
# Stress axis : x y z
#
# Youngs Moduli (GPa) = 46.09877 55.09229 41.10707
#
# Poissons Ratio (x) = 0.44766 0.12370
# Poissons Ratio (y) = 0.37458 0.40946
# Poissons Ratio (z) = 0.13873 0.54876
#
# Static dielectric constant tensor:
#      x y z
#    x 3.097530 0.000000 0.000000 
#    y 0.000000 3.070860 0.000000 
#    z 0.000000 0.000000 2.900640 
# 
# 
# High freq. dielectric constant tensor:
#      x y z
#    x 1.609740 0.000000 0.000000 
#    y 0.000000 1.587050 0.000000 
#    z 0.000000 0.000000 1.571560 
# 
# From -- ./inp_files/35077.got.cif
#   From: 2010.03.12/outbox.cif.g09.slc.cpg/sg51_18_cif.got.tgz:35077.got - 2010.04.16 13:43:02.
