data_PCOD8207384
_publ_section_title
;
Structure prediction by ZEFSAII (Michael W. Deem and Ramdas Pophale) SiO2 
 PCOD8207384
Probable space group: P M M A
;
_chemical_formula_sum "Si O2"
_cell_formula_units_Z 64
_cell_length_a 20.240601
_cell_length_b 16.815407
_cell_length_c 10.037311
_cell_angle_alpha 90.000000
_cell_angle_beta 90.000000
_cell_angle_gamma 90.000000
_cell_volume 3416.238383
_symmetry_space_group_name_H-M "P M M A"
_symmetry_group_IT_number 51
_symmetry_cell_setting 'orthorhombic'
loop_
_space_group_symop_operation_xyz
x,y,z
1/2-x,-y,z
1/2+x,-y,-z
-x,y,-z
-x,-y,-z
1/2+x,y,-z
1/2-x,y,z
x,-y,z
loop_
_atom_site_type_symbol
_atom_site_label
_atom_site_fract_x
_atom_site_fract_y
_atom_site_fract_z
Si Si1 0.327854 0.274443 0.953258
Si Si2 0.106316 0.413060 0.812871
Si Si3 0.504361 0.322025 0.339998
Si Si4 0.826229 0.758554 0.519208
Si Si5 0.673990 0.586079 0.452597
Si Si6 0.995645 0.908675 0.845024
Si Si7 0.106412 0.223136 0.223291
Si Si8 0.394156 0.185286 0.725660
O O1 0.250000 0.294102 0.963448
O O2 0.372947 0.352446 0.929032
O O3 0.340541 0.211056 0.836104
O O4 0.354238 0.237319 0.088899
O O5 0.100271 0.500000 0.878808
O O6 0.036942 0.397674 0.734119
O O7 0.165846 0.409747 0.706359
O O8 0.500000 0.333610 0.500000
O O9 0.434264 0.300803 0.272431
O O10 0.551176 0.251056 0.296678
O O11 0.750000 0.751638 0.485462
O O12 0.858067 0.668134 0.509174
O O13 0.838531 0.793748 0.664639
O O14 0.857093 0.822200 0.415435
O O15 0.750000 0.584723 0.491983
O O16 0.642955 0.500000 0.503420
O O17 0.938497 0.855094 0.782557
O O18 0.066767 0.893407 0.773725
O O19 0.976330 0.000000 0.823216
O O20 0.000000 0.886221 0.000000
#
# Coordination Sequence:
#
# PCOD8207384 Si02
#       8
#     8   8   8   8   8   8   8   8
#     4  11  21  36  56  81 112 149 194 237 278 332
#     4  10  20  32  51  79 111 149 195 243 291 333
#     4  10  18  33  55  78 112 149 188 239 287 334
#     4  11  20  35  57  84 118 156 195 236 281 333
#     4   9  16  28  49  77 108 146 196 242 275 319
#     4  10  21  39  65  91 115 144 180 231 285 339
#     4  11  22  37  58  86 113 148 189 232 281 349
#     4  10  19  34  58  87 110 144 187 231 275 336
#
# _framework density 18.734054
#
# number of rings (size 3 to 8) (size 9 to 14) (size 15 to 20)
#    0.000    1.750    5.000    1.125    0.000    1.000 
#    0.000    3.750    0.000    6.000    0.000    0.000 
#    0.000    0.000    0.000    0.000    0.000    0.000 
#
# Total GULP energy -792901.645517 kJ/mol
# GULP energy per Si atom -12389.088211 kJ/mol
# Density = 1.869141 g / cm^3
# Si number density = 18.734054 Si / 1000 Ang^3
#
#
#
# Elastic Constant Matrix: (Units=GPa)
#
#
# Indices 1 2 3 4 5 6 
#
# 1 64.9198 19.5206 28.0444 0.0000 0.0000 0.0000
# 2 19.5206 77.8452 31.3642 0.0000 0.0000 0.0000
# 3 28.0444 31.3642 101.0468 0.0000 0.0000 0.0000
# 4 0.0000 0.0000 0.0000 16.9196 0.0000 0.0000
# 5 0.0000 0.0000 0.0000 0.0000 29.3557 0.0000
# 6 0.0000 0.0000 0.0000 0.0000 0.0000 16.2022
#
#
#
# Elastic Compliance Matrix: (Units=1/GPa)
#
#
# Indices 1 2 3 4 5 6 
#
# 1 0.018044 -0.002865 -0.004119 0.000000 0.000000 0.000000
# 2 -0.002865 0.015137 -0.003903 0.000000 0.000000 0.000000
# 3 -0.004119 -0.003903 0.012251 0.000000 0.000000 0.000000
# 4 0.000000 0.000000 0.000000 0.059103 0.000000 0.000000
# 5 0.000000 0.000000 0.000000 0.000000 0.034065 0.000000
# 6 0.000000 0.000000 0.000000 0.000000 0.000000 0.061720
#
#
# Mechanical properties :
#
#
# Convention : Reuss Voigt Hill
#
# Bulk Modulus (GPa) = 42.26887 44.63003 43.44945
# Shear Modulus (GPa) = 21.74089 23.48766 22.61427
#
# Velocity S-wave (km/s) = 3.41031 3.54466 3.47813
# Velocity P-wave (km/s) = 6.17402 6.37397 6.27479
#
# Compressibility (1/GPa) = 0.02365807
#
# Stress axis : x y z
#
# Youngs Moduli (GPa) = 55.41887 66.06258 81.62598
#
# Poissons Ratio (x) = 0.18930 0.33619
# Poissons Ratio (y) = 0.15880 0.31860
# Poissons Ratio (z) = 0.22825 0.25785
#
# Static dielectric constant tensor:
#      x y z
#    x 3.620940 0.000000 0.000000 
#    y 0.000000 3.444320 0.000000 
#    z 0.000000 0.000000 3.394370 
# 
# 
# High freq. dielectric constant tensor:
#      x y z
#    x 1.728270 0.000000 0.000000 
#    y 0.000000 1.699100 0.000000 
#    z 0.000000 0.000000 1.720700 
# 
# From -- ./inp_files/11215.got.cif
#   From: 2010.03.12/outbox.cif.g09.slc.cpg/sg51_6_cif.got.tgz:11215.got - 2010.04.16 13:43:02.
