data_PCOD8207937
_publ_section_title
;
Structure prediction by ZEFSAII (Michael W. Deem and Ramdas Pophale) SiO2 
 PCOD8207937
Probable space group: P M M A
;
_chemical_formula_sum "Si O2"
_cell_formula_units_Z 64
_cell_length_a 9.490787
_cell_length_b 22.726227
_cell_length_c 16.191290
_cell_angle_alpha 90.000000
_cell_angle_beta 90.000000
_cell_angle_gamma 90.000000
_cell_volume 3492.295774
_symmetry_space_group_name_H-M "P M M A"
_symmetry_group_IT_number 51
_symmetry_cell_setting 'orthorhombic'
loop_
_space_group_symop_operation_xyz
x,y,z
1/2-x,-y,z
1/2+x,-y,-z
-x,y,-z
-x,-y,-z
1/2+x,y,-z
1/2-x,y,z
x,-y,z
loop_
_atom_site_type_symbol
_atom_site_label
_atom_site_fract_x
_atom_site_fract_y
_atom_site_fract_z
Si Si1 0.593260 0.671343 0.707562
Si Si2 0.907938 0.280616 0.889261
Si Si3 0.087274 0.566048 0.748877
Si Si4 0.412185 0.761382 0.424544
Si Si5 0.585721 0.066675 0.762496
Si Si6 0.413195 0.611657 0.928550
Si Si7 0.416912 0.144905 0.082796
Si Si8 0.584911 0.897513 0.581797
O O1 0.750000 0.651769 0.682445
O O2 0.591849 0.702372 0.794636
O O3 0.499687 0.613067 0.696680
O O4 0.532760 0.722524 0.650573
O O5 0.750000 0.291747 0.925463
O O6 0.952378 0.213090 0.901002
O O7 0.026687 0.321600 0.929699
O O8 0.250000 0.575486 0.728036
O O9 0.038764 0.500000 0.726421
O O10 0.057821 0.576645 0.845189
O O11 0.500000 0.737202 0.500000
O O12 0.250000 0.750982 0.443960
O O13 0.443456 0.828920 0.406056
O O14 0.750000 0.080164 0.754874
O O15 0.527112 0.108754 0.836176
O O16 0.525646 0.075981 0.668765
O O17 0.553068 0.000000 0.789702
O O18 0.250000 0.613772 0.951107
O O19 0.500000 0.577315 0.000000
O O20 0.250000 0.134236 0.069571
O O21 0.500000 0.124089 0.000000
O O22 0.500000 0.920634 0.500000
O O23 0.750000 0.912720 0.567978
#
# Coordination Sequence:
#
# PCOD8207937 Si02
#       8
#     8   8   8   8   8   8   8   8
#     4   9  17  30  49  71  93 120 155 194 232 275
#     4   9  17  30  48  69  93 120 152 193 242 290
#     4   9  19  34  48  64  89 121 155 190 230 274
#     4   9  17  29  47  73 102 126 150 184 229 281
#     4   9  18  33  52  72  96 131 172 206 240 290
#     4  10  19  30  45  66  92 120 150 186 229 278
#     4  10  20  33  50  71  95 127 167 209 251 293
#     4   9  17  31  52  77 104 132 160 194 240 294
#
# _framework density 18.326053000000002
#
# number of rings (size 3 to 8) (size 9 to 14) (size 15 to 20)
#    0.000    2.750    0.000    1.500    0.000    6.500 
#    0.000    0.625    0.000    4.125    0.000    0.000 
#    0.000    0.000    0.000    0.000    0.000    0.000 
#
# Total GULP energy -793050.947620 kJ/mol
# GULP energy per Si atom -12391.421057 kJ/mol
# Density = 1.828434 g / cm^3
# Si number density = 18.326053 Si / 1000 Ang^3
#
#
#
# Elastic Constant Matrix: (Units=GPa)
#
#
# Indices 1 2 3 4 5 6 
#
# 1 50.1277 20.5828 21.6313 0.0000 0.0000 0.0000
# 2 20.5828 66.7402 27.9222 0.0000 0.0000 0.0000
# 3 21.6313 27.9222 69.0774 0.0000 0.0000 0.0000
# 4 0.0000 0.0000 0.0000 49.2918 0.0000 0.0000
# 5 0.0000 0.0000 0.0000 0.0000 29.9644 0.0000
# 6 0.0000 0.0000 0.0000 0.0000 0.0000 -15.2736
#
#
#
# Elastic Compliance Matrix: (Units=1/GPa)
#
#
# Indices 1 2 3 4 5 6 
#
# 1 0.024494 -0.005229 -0.005556 0.000000 0.000000 0.000000
# 2 -0.005229 0.019150 -0.006103 0.000000 0.000000 0.000000
# 3 -0.005556 -0.006103 0.018683 0.000000 0.000000 0.000000
# 4 0.000000 0.000000 0.000000 0.020287 0.000000 0.000000
# 5 0.000000 0.000000 0.000000 0.000000 0.033373 0.000000
# 6 0.000000 0.000000 0.000000 0.000000 0.000000 -0.065472
#
#
# Mechanical properties :
#
#
# Convention : Reuss Voigt Hill
#
# Bulk Modulus (GPa) = 35.02697 36.24641 35.63669
# Shear Modulus (GPa) = 53.29986 20.51710 36.90848
#
# Velocity S-wave (km/s) = 5.39883 3.34961 4.49262
# Velocity P-wave (km/s) = 7.61694 5.89758 6.81173
#
# Compressibility (1/GPa) = 0.02854943
#
# Stress axis : x y z
#
# Youngs Moduli (GPa) = 40.82642 52.22057 53.52345
#
# Poissons Ratio (x) = 0.27308 0.29740
# Poissons Ratio (y) = 0.21350 0.32665
# Poissons Ratio (z) = 0.22685 0.31870
#
# Static dielectric constant tensor:
#      x y z
#    x 3.313650 0.000000 0.000000 
#    y 0.000000 3.335360 0.000000 
#    z 0.000000 0.000000 3.744130 
# 
# 
# High freq. dielectric constant tensor:
#      x y z
#    x 1.690280 0.000000 0.000000 
#    y 0.000000 1.705230 0.000000 
#    z 0.000000 0.000000 1.709670 
# 
# From -- ./inp_files/28453.got.cif
#   From: 2010.03.12/outbox.cif.g09.slc.cpg/sg51_15_cif.got.tgz:28453.got - 2010.04.16 13:43:02.
