data_PCOD8207609
_publ_section_title
;
Structure prediction by ZEFSAII (Michael W. Deem and Ramdas Pophale) SiO2 
 PCOD8207609
Probable space group: P M M A
;
_chemical_formula_sum "Si O2"
_cell_formula_units_Z 64
_cell_length_a 17.207781
_cell_length_b 13.986987
_cell_length_c 15.527844
_cell_angle_alpha 90.000000
_cell_angle_beta 90.000000
_cell_angle_gamma 90.000000
_cell_volume 3737.319275
_symmetry_space_group_name_H-M "P M M A"
_symmetry_group_IT_number 51
_symmetry_cell_setting 'orthorhombic'
loop_
_space_group_symop_operation_xyz
x,y,z
1/2-x,-y,z
1/2+x,-y,-z
-x,y,-z
-x,-y,-z
1/2+x,y,-z
1/2-x,y,z
x,-y,z
loop_
_atom_site_type_symbol
_atom_site_label
_atom_site_fract_x
_atom_site_fract_y
_atom_site_fract_z
Si Si1 0.075083 0.108725 0.177733
Si Si2 0.159633 0.708006 0.789047
Si Si3 0.160441 0.111098 0.351650
Si Si4 0.834273 0.891740 0.988299
Si Si5 0.545277 0.236207 0.081823
Si Si6 0.842687 0.210254 0.476621
Si Si7 0.157974 0.605259 0.614817
Si Si8 0.841000 0.104647 0.310708
O O1 0.106769 0.137813 0.271192
O O2 0.011396 0.186589 0.150685
O O3 0.041498 0.000000 0.177971
O O4 0.147506 0.114532 0.112918
O O5 0.250000 0.692241 0.814903
O O6 0.101101 0.686975 0.869248
O O7 0.135354 0.639577 0.710724
O O8 0.143184 0.819098 0.764686
O O9 0.250000 0.136833 0.331239
O O10 0.127600 0.174135 0.431047
O O11 0.153389 0.000000 0.376381
O O12 0.750000 0.842678 0.004171
O O13 0.901157 0.845750 0.043679
O O14 0.830178 0.000000 0.019589
O O15 0.500000 0.284466 0.000000
O O16 0.750000 0.206939 0.473589
O O17 0.871937 0.318910 0.456831
O O18 0.876375 0.142044 0.401216
O O19 0.250000 0.600218 0.609665
O O20 0.121708 0.500000 0.597532
O O21 0.750000 0.094199 0.323561
O O22 0.877322 0.000000 0.288304
#
# Coordination Sequence:
#
# PCOD8207609 Si02
#       8
#     8   8   8   8   8   8   8   8
#     4   9  17  27  37  53  80 115 151 180 208 243
#     4   9  17  28  43  64  85 107 139 172 204 249
#     4   9  15  23  38  59  84 115 148 178 204 236
#     4   9  16  26  40  56  76 106 146 187 218 245
#     4  10  19  29  40  55  79 110 140 175 217 254
#     4   8  13  21  36  61  87 108 134 166 201 243
#     4   8  14  26  45  68  91 109 128 167 218 255
#     4   8  13  21  34  54  80 106 132 166 203 234
#
# _framework density 17.124573999999999
#
# number of rings (size 3 to 8) (size 9 to 14) (size 15 to 20)
#    0.000    3.250    0.000    3.000    0.000    5.500 
#    0.000    1.250    0.000    3.375    0.000    9.625 
#    0.000    1.000    0.000   29.000    0.000    0.000 
#
# Total GULP energy -792928.306172 kJ/mol
# GULP energy per Si atom -12389.504784 kJ/mol
# Density = 1.708560 g / cm^3
# Si number density = 17.124574 Si / 1000 Ang^3
#
#
#
# Elastic Constant Matrix: (Units=GPa)
#
#
# Indices 1 2 3 4 5 6 
#
# 1 50.6232 9.7430 34.7557 0.0000 0.0000 0.0000
# 2 9.7430 69.8351 29.2839 0.0000 0.0000 0.0000
# 3 34.7557 29.2839 102.5458 0.0000 0.0000 0.0000
# 4 0.0000 0.0000 0.0000 15.0657 0.0000 0.0000
# 5 0.0000 0.0000 0.0000 0.0000 22.0302 0.0000
# 6 0.0000 0.0000 0.0000 0.0000 0.0000 6.1778
#
#
#
# Elastic Compliance Matrix: (Units=1/GPa)
#
#
# Indices 1 2 3 4 5 6 
#
# 1 0.025745 0.000076 -0.008747 0.000000 0.000000 0.000000
# 2 0.000076 0.016268 -0.004671 0.000000 0.000000 0.000000
# 3 -0.008747 -0.004671 0.014050 0.000000 0.000000 0.000000
# 4 0.000000 0.000000 0.000000 0.066376 0.000000 0.000000
# 5 0.000000 0.000000 0.000000 0.000000 0.045392 0.000000
# 6 0.000000 0.000000 0.000000 0.000000 0.000000 0.161869
#
#
# Mechanical properties :
#
#
# Convention : Reuss Voigt Hill
#
# Bulk Modulus (GPa) = 34.03927 41.17436 37.60682
# Shear Modulus (GPa) = 13.65457 18.60285 16.12871
#
# Velocity S-wave (km/s) = 2.82683 3.29952 3.07228
# Velocity P-wave (km/s) = 5.52949 6.21386 5.88163
#
# Compressibility (1/GPa) = 0.02937783
#
# Stress axis : x y z
#
# Youngs Moduli (GPa) = 38.84296 61.47171 71.17191
#
# Poissons Ratio (x) = -0.00469 0.62257
# Poissons Ratio (y) = -0.00296 0.33247
# Poissons Ratio (z) = 0.33978 0.28716
#
# Static dielectric constant tensor:
#      x y z
#    x 3.013600 0.000000 0.000000 
#    y 0.000000 3.180470 0.000000 
#    z 0.000000 0.000000 3.343340 
# 
# 
# High freq. dielectric constant tensor:
#      x y z
#    x 1.633530 0.000000 0.000000 
#    y 0.000000 1.614910 0.000000 
#    z 0.000000 0.000000 1.665300 
# 
# From -- ./inp_files/25339.got.cif
#   From: 2010.03.12/outbox.cif.g09.slc.cpg/sg51_13_cif.got.tgz:25339.got - 2010.04.16 13:43:02.
