data_PCOD8207785
_publ_section_title
;
Structure prediction by ZEFSAII (Michael W. Deem and Ramdas Pophale) SiO2 
 PCOD8207785
Probable space group: P M M A
;
_chemical_formula_sum "Si O2"
_cell_formula_units_Z 64
_cell_length_a 15.045221
_cell_length_b 18.259591
_cell_length_c 12.789152
_cell_angle_alpha 90.000000
_cell_angle_beta 90.000000
_cell_angle_gamma 90.000000
_cell_volume 3513.430491
_symmetry_space_group_name_H-M "P M M A"
_symmetry_group_IT_number 51
_symmetry_cell_setting 'orthorhombic'
loop_
_space_group_symop_operation_xyz
x,y,z
1/2-x,-y,z
1/2+x,-y,-z
-x,y,-z
-x,-y,-z
1/2+x,y,-z
1/2-x,y,z
x,-y,z
loop_
_atom_site_type_symbol
_atom_site_label
_atom_site_fract_x
_atom_site_fract_y
_atom_site_fract_z
Si Si1 0.412210 0.082842 0.568685
Si Si2 0.148201 0.360544 0.612141
Si Si3 0.850450 0.365202 0.626779
Si Si4 0.652104 0.921689 0.643638
Si Si5 0.507950 0.272367 0.121786
Si Si6 0.007202 0.581152 0.763415
Si Si7 0.854401 0.790899 0.279911
Si Si8 0.148172 0.221398 0.254939
O O1 0.500000 0.101420 0.500000
O O2 0.336171 0.091707 0.480875
O O3 0.394057 0.136633 0.665600
O O4 0.415247 0.000000 0.613953
O O5 0.250000 0.382154 0.632925
O O6 0.120876 0.375101 0.492852
O O7 0.131699 0.275530 0.639362
O O8 0.087909 0.412469 0.682312
O O9 0.750000 0.393414 0.645820
O O10 0.914497 0.410584 0.702048
O O11 0.857731 0.278925 0.650503
O O12 0.750000 0.926765 0.691165
O O13 0.604942 0.854454 0.702320
O O14 0.601562 0.000000 0.663791
O O15 0.519069 0.358885 0.145470
O O16 0.588891 0.226738 0.174672
O O17 0.411774 0.246741 0.160065
O O18 0.500000 0.257984 0.000000
O O19 0.009745 0.500000 0.813645
O O20 0.750000 0.801198 0.250736
O O21 0.250000 0.213376 0.216430
#
# Coordination Sequence:
#
# PCOD8207785 Si02
#       8
#     8   8   8   8   8   8   8   8
#     4  10  19  29  46  77 115 149 176 203 240 291
#     4   9  18  31  48  73 104 138 171 198 232 290
#     4   9  17  29  47  73 104 136 166 193 229 290
#     4   9  16  26  44  73 106 136 164 193 230 282
#     4  10  22  39  57  74  91 120 168 223 274 319
#     4  10  21  35  51  73  99 125 157 202 256 311
#     4  10  20  34  53  76 105 141 180 221 260 304
#     4   9  17  31  52  75 100 131 167 210 257 302
#
# _framework density 18.215816
#
# number of rings (size 3 to 8) (size 9 to 14) (size 15 to 20)
#    0.000    2.500    0.000    2.250    0.000    7.000 
#    0.000    1.250    0.000    1.500    0.000    8.750 
#    0.000    0.000    0.000    0.000    0.000    0.000 
#
# Total GULP energy -793051.429608 kJ/mol
# GULP energy per Si atom -12391.428588 kJ/mol
# Density = 1.817436 g / cm^3
# Si number density = 18.215816 Si / 1000 Ang^3
#
#
#
# Elastic Constant Matrix: (Units=GPa)
#
#
# Indices 1 2 3 4 5 6 
#
# 1 90.8107 34.5714 33.3919 0.0000 0.0000 0.0000
# 2 34.5714 123.9506 40.7930 0.0000 0.0000 0.0000
# 3 33.3919 40.7930 88.7534 0.0000 0.0000 0.0000
# 4 0.0000 0.0000 0.0000 14.3857 0.0000 0.0000
# 5 0.0000 0.0000 0.0000 0.0000 18.7688 0.0000
# 6 0.0000 0.0000 0.0000 0.0000 0.0000 17.3549
#
#
#
# Elastic Compliance Matrix: (Units=1/GPa)
#
#
# Indices 1 2 3 4 5 6 
#
# 1 0.013381 -0.002445 -0.003910 0.000000 0.000000 0.000000
# 2 -0.002445 0.009952 -0.003654 0.000000 0.000000 0.000000
# 3 -0.003910 -0.003654 0.014418 0.000000 0.000000 0.000000
# 4 0.000000 0.000000 0.000000 0.069513 0.000000 0.000000
# 5 0.000000 0.000000 0.000000 0.000000 0.053280 0.000000
# 6 0.000000 0.000000 0.000000 0.000000 0.000000 0.057621
#
#
# Mechanical properties :
#
#
# Convention : Reuss Voigt Hill
#
# Bulk Modulus (GPa) = 56.39759 57.89191 57.14475
# Shear Modulus (GPa) = 20.48380 23.08577 21.78478
#
# Velocity S-wave (km/s) = 3.35700 3.56384 3.46197
# Velocity P-wave (km/s) = 6.78631 6.98461 6.88617
#
# Compressibility (1/GPa) = 0.01773125
#
# Stress axis : x y z
#
# Youngs Moduli (GPa) = 74.73471 100.47839 69.35751
#
# Poissons Ratio (x) = 0.24568 0.27122
# Poissons Ratio (y) = 0.18273 0.25346
# Poissons Ratio (z) = 0.29224 0.36719
#
# Static dielectric constant tensor:
#      x y z
#    x 3.712030 0.000000 0.000000 
#    y 0.000000 3.464730 0.000000 
#    z 0.000000 0.000000 2.929840 
# 
# 
# High freq. dielectric constant tensor:
#      x y z
#    x 1.722070 0.000000 0.000000 
#    y 0.000000 1.708760 0.000000 
#    z 0.000000 0.000000 1.656350 
# 
# From -- ./inp_files/16897.got.cif
#   From: 2010.03.12/outbox.cif.g09.slc.cpg/sg51_9_cif.got.tgz:16897.got - 2010.04.16 13:43:02.
