data_PCOD8207480
_publ_section_title
;
Structure prediction by ZEFSAII (Michael W. Deem and Ramdas Pophale) SiO2 
 PCOD8207480
Probable space group: P M M A
;
_chemical_formula_sum "Si O2"
_cell_formula_units_Z 56
_cell_length_a 14.797515
_cell_length_b 8.876994
_cell_length_c 22.015510
_cell_angle_alpha 90.000000
_cell_angle_beta 90.000000
_cell_angle_gamma 90.000000
_cell_volume 2891.901295
_symmetry_space_group_name_H-M "P M M A"
_symmetry_group_IT_number 51
_symmetry_cell_setting 'orthorhombic'
loop_
_space_group_symop_operation_xyz
x,y,z
1/2-x,-y,z
1/2+x,-y,-z
-x,y,-z
-x,-y,-z
1/2+x,y,-z
1/2-x,y,z
x,-y,z
loop_
_atom_site_type_symbol
_atom_site_label
_atom_site_fract_x
_atom_site_fract_y
_atom_site_fract_z
Si Si1 0.554257 0.826258 0.438760
Si Si2 0.854070 0.327998 0.136362
Si Si3 0.151462 0.176423 0.117380
Si Si4 0.495817 0.178773 0.209657
Si Si5 0.105028 0.830991 0.987945
Si Si6 0.750000 0.174737 0.484698
Si Si7 0.941714 0.322212 0.664447
Si Si8 0.250000 0.321973 0.385307
O O1 0.500000 0.792341 0.500000
O O2 0.660264 0.785271 0.446267
O O3 0.512686 0.720282 0.387604
O O4 0.542513 0.000000 0.419449
O O5 0.750000 0.311372 0.153678
O O6 0.886652 0.500000 0.140822
O O7 0.870434 0.273510 0.068073
O O8 0.906553 0.228904 0.185953
O O9 0.250000 0.209611 0.145609
O O10 0.077380 0.246957 0.162182
O O11 0.131078 0.000000 0.111469
O O12 0.148292 0.241508 0.048882
O O13 0.475219 0.244555 0.274887
O O14 0.491375 0.000000 0.213671
O O15 0.141827 0.000000 0.974685
O O16 0.000000 0.837104 0.000000
O O17 0.750000 0.267541 0.546090
O O18 0.750000 0.000000 0.503086
O O19 0.942252 0.500000 0.673262
O O20 0.840496 0.263202 0.648529
O O21 0.250000 0.500000 0.386964
#
# Coordination Sequence:
#
# PCOD8207480 Si02
#       8
#     8   8   8   8   8   4   8   4
#     4  10  20  37  62  91 121 154 197 247 296 345
#     4  11  24  41  61  86 118 156 200 249 306 365
#     4   9  18  33  55  85 117 148 187 238 293 348
#     4  11  23  41  63  86 115 155 203 249 296 350
#     4  10  18  34  60  88 117 150 195 246 297 353
#     4  10  20  36  62  94 124 152 195 250 297 344
#     4  11  24  41  60  87 124 163 200 242 295 356
#     4  10  22  38  60  90 126 162 197 232 289 362
#
# _framework density 19.364424
#
# number of rings (size 3 to 8) (size 9 to 14) (size 15 to 20)
#    0.000    1.714    2.857    1.714    1.000    3.429 
#    1.286    0.000    0.000    0.857    0.000    0.000 
#    0.000    0.000    0.000    0.000    0.000    0.000 
#
# Total GULP energy -694428.452903 kJ/mol
# GULP energy per Si atom -12400.508088 kJ/mol
# Density = 1.932035 g / cm^3
# Si number density = 19.364424 Si / 1000 Ang^3
#
#
#
# Elastic Constant Matrix: (Units=GPa)
#
#
# Indices 1 2 3 4 5 6 
#
# 1 134.0487 35.0229 59.8181 0.0000 0.0000 0.0000
# 2 35.0229 54.2644 44.2087 0.0000 0.0000 0.0000
# 3 59.8181 44.2087 126.5222 0.0000 0.0000 0.0000
# 4 0.0000 0.0000 0.0000 28.5144 0.0000 0.0000
# 5 0.0000 0.0000 0.0000 0.0000 15.0900 0.0000
# 6 0.0000 0.0000 0.0000 0.0000 0.0000 40.4842
#
#
#
# Elastic Compliance Matrix: (Units=1/GPa)
#
#
# Indices 1 2 3 4 5 6 
#
# 1 0.009937 -0.003615 -0.003435 0.000000 0.000000 0.000000
# 2 -0.003615 0.027077 -0.007752 0.000000 0.000000 0.000000
# 3 -0.003435 -0.007752 0.012236 0.000000 0.000000 0.000000
# 4 0.000000 0.000000 0.000000 0.035070 0.000000 0.000000
# 5 0.000000 0.000000 0.000000 0.000000 0.066269 0.000000
# 6 0.000000 0.000000 0.000000 0.000000 0.000000 0.024701
#
#
# Mechanical properties :
#
#
# Convention : Reuss Voigt Hill
#
# Bulk Modulus (GPa) = 50.89960 65.88164 58.39062
# Shear Modulus (GPa) = 23.64693 28.53677 26.09185
#
# Velocity S-wave (km/s) = 3.49829 3.84301 3.67469
# Velocity P-wave (km/s) = 6.53143 7.33399 6.94431
#
# Compressibility (1/GPa) = 0.01964652
#
# Stress axis : x y z
#
# Youngs Moduli (GPa) = 100.63002 36.93171 81.72315
#
# Poissons Ratio (x) = 0.13352 0.28073
# Poissons Ratio (y) = 0.36380 0.63351
# Poissons Ratio (z) = 0.34567 0.28629
#
# Static dielectric constant tensor:
#      x y z
#    x 3.840400 0.000000 0.000000 
#    y 0.000000 3.418280 0.000000 
#    z 0.000000 0.000000 3.359280 
# 
# 
# High freq. dielectric constant tensor:
#      x y z
#    x 1.771100 0.000000 0.000000 
#    y 0.000000 1.735870 0.000000 
#    z 0.000000 0.000000 1.750650 
# 
# From -- ./inp_files/33525.got.cif
#   From: 2010.03.12/outbox.cif.g09.slc.cpg/sg51_17_cif.got.tgz:33525.got - 2010.04.16 13:43:02.
