data_PCOD8207831
_publ_section_title
;
Structure prediction by ZEFSAII (Michael W. Deem and Ramdas Pophale) SiO2 
 PCOD8207831
Probable space group: P M M A
;
_chemical_formula_sum "Si O2"
_cell_formula_units_Z 56
_cell_length_a 9.402483
_cell_length_b 18.413350
_cell_length_c 21.241463
_cell_angle_alpha 90.000000
_cell_angle_beta 90.000000
_cell_angle_gamma 90.000000
_cell_volume 3677.560199
_symmetry_space_group_name_H-M "P M M A"
_symmetry_group_IT_number 51
_symmetry_cell_setting 'orthorhombic'
loop_
_space_group_symop_operation_xyz
x,y,z
1/2-x,-y,z
1/2+x,-y,-z
-x,y,-z
-x,-y,-z
1/2+x,y,-z
1/2-x,y,z
x,-y,z
loop_
_atom_site_type_symbol
_atom_site_label
_atom_site_fract_x
_atom_site_fract_y
_atom_site_fract_z
Si Si1 0.092193 0.801214 0.250470
Si Si2 0.084320 0.917670 0.687776
Si Si3 0.082936 0.164594 0.560085
Si Si4 0.908748 0.283944 0.619309
Si Si5 0.580659 0.339413 0.813462
Si Si6 0.584281 0.415817 0.938525
Si Si7 0.419181 0.580422 0.308610
O O1 0.250000 0.829144 0.232970
O O2 0.097632 0.756876 0.314717
O O3 0.034334 0.744995 0.197187
O O4 0.991541 0.871051 0.257695
O O5 0.250000 0.912358 0.701608
O O6 0.049124 0.888196 0.618251
O O7 0.028884 0.000000 0.691642
O O8 0.250000 0.170034 0.546081
O O9 0.000000 0.131658 0.500000
O O10 0.020664 0.245134 0.573221
O O11 0.750000 0.283067 0.588915
O O12 0.961867 0.366182 0.633590
O O13 0.750000 0.344206 0.811327
O O14 0.524417 0.368493 0.880295
O O15 0.518146 0.390110 0.757673
O O16 0.750000 0.401387 0.950409
O O17 0.555198 0.500000 0.923211
O O18 0.500000 0.390173 0.000000
O O19 0.250000 0.578595 0.303651
O O20 0.481057 0.500000 0.321784
#
# Coordination Sequence:
#
# PCOD8207831 Si02
#       7
#     8   8   8   8   8   8   8
#     4   8  14  25  41  60  79 101 131 163 193 228
#     4   9  18  31  44  60  84 108 125 147 187 236
#     4  10  19  30  44  59  76 101 131 158 184 221
#     4   8  14  25  40  58  79  99 122 157 197 233
#     4   8  13  22  37  57  81 107 136 169 200 231
#     4   9  16  25  37  54  80 115 149 177 204 232
#     4   8  12  19  36  61  81  97 124 163 202 237
#
# _framework density 15.227487999999999
#
# number of rings (size 3 to 8) (size 9 to 14) (size 15 to 20)
#    0.000    3.429    0.000    2.571    0.000    2.857 
#    0.000    0.714    0.000    1.714    0.000    0.000 
#    0.000    0.571    0.000    1.286    0.000    2.286 
#
# Total GULP energy -693980.254755 kJ/mol
# GULP energy per Si atom -12392.504549 kJ/mol
# Density = 1.519283 g / cm^3
# Si number density = 15.227488 Si / 1000 Ang^3
#
#
#
# Elastic Constant Matrix: (Units=GPa)
#
#
# Indices 1 2 3 4 5 6 
#
# 1 44.1193 35.4960 24.7225 0.0000 0.0000 0.0000
# 2 35.4960 119.3199 39.5251 0.0000 0.0000 0.0000
# 3 24.7225 39.5251 53.0020 0.0000 0.0000 0.0000
# 4 0.0000 0.0000 0.0000 18.5240 0.0000 0.0000
# 5 0.0000 0.0000 0.0000 0.0000 19.2332 0.0000
# 6 0.0000 0.0000 0.0000 0.0000 0.0000 17.1916
#
#
#
# Elastic Compliance Matrix: (Units=1/GPa)
#
#
# Indices 1 2 3 4 5 6 
#
# 1 0.034074 -0.006470 -0.011069 0.000000 0.000000 0.000000
# 2 -0.006470 0.012359 -0.006198 0.000000 0.000000 0.000000
# 3 -0.011069 -0.006198 0.028652 0.000000 0.000000 0.000000
# 4 0.000000 0.000000 0.000000 0.053984 0.000000 0.000000
# 5 0.000000 0.000000 0.000000 0.000000 0.051993 0.000000
# 6 0.000000 0.000000 0.000000 0.000000 0.000000 0.058168
#
#
# Mechanical properties :
#
#
# Convention : Reuss Voigt Hill
#
# Bulk Modulus (GPa) = 36.21768 46.21427 41.21598
# Shear Modulus (GPa) = 16.89715 18.76959 17.83337
#
# Velocity S-wave (km/s) = 3.33475 3.51467 3.42589
# Velocity P-wave (km/s) = 6.21800 6.84731 6.54023
#
# Compressibility (1/GPa) = 0.02761082
#
# Stress axis : x y z
#
# Youngs Moduli (GPa) = 29.34830 80.91408 34.90099
#
# Poissons Ratio (x) = 0.52350 0.38631
# Poissons Ratio (y) = 0.18988 0.21633
# Poissons Ratio (z) = 0.32485 0.50154
#
# Static dielectric constant tensor:
#      x y z
#    x 2.741130 0.000000 0.000000 
#    y 0.000000 3.156700 0.000000 
#    z 0.000000 0.000000 2.856030 
# 
# 
# High freq. dielectric constant tensor:
#      x y z
#    x 1.558090 0.000000 0.000000 
#    y 0.000000 1.576070 0.000000 
#    z 0.000000 0.000000 1.553740 
# 
# From -- ./inp_files/35038.got.cif
#   From: 2010.03.12/outbox.cif.g09.slc.cpg/sg51_18_cif.got.tgz:35038.got - 2010.04.16 13:43:02.
