data_PCOD8207468
_publ_section_title
;
Structure prediction by ZEFSAII (Michael W. Deem and Ramdas Pophale) SiO2 
 PCOD8207468
Probable space group: P M M A
;
_chemical_formula_sum "Si O2"
_cell_formula_units_Z 64
_cell_length_a 14.565148
_cell_length_b 8.936603
_cell_length_c 26.140436
_cell_angle_alpha 90.000000
_cell_angle_beta 90.000000
_cell_angle_gamma 90.000000
_cell_volume 3402.516142
_symmetry_space_group_name_H-M "P M M A"
_symmetry_group_IT_number 51
_symmetry_cell_setting 'orthorhombic'
loop_
_space_group_symop_operation_xyz
x,y,z
1/2-x,-y,z
1/2+x,-y,-z
-x,y,-z
-x,-y,-z
1/2+x,y,-z
1/2-x,y,z
x,-y,z
loop_
_atom_site_type_symbol
_atom_site_label
_atom_site_fract_x
_atom_site_fract_y
_atom_site_fract_z
Si Si1 0.354701 0.332584 0.108448
Si Si2 0.350403 0.174550 0.894972
Si Si3 0.854970 0.676134 0.368123
Si Si4 0.644241 0.824521 0.637387
Si Si5 0.993202 0.177348 0.821624
Si Si6 0.990579 0.824432 0.442389
Si Si7 0.508394 0.323621 0.711969
Si Si8 0.107541 0.167422 0.005112
O O1 0.250000 0.337487 0.125218
O O2 0.397116 0.500000 0.110875
O O3 0.401129 0.222832 0.149229
O O4 0.362738 0.272786 0.051032
O O5 0.250000 0.205055 0.871628
O O6 0.423572 0.243454 0.855921
O O7 0.372941 0.000000 0.900752
O O8 0.355422 0.241173 0.952358
O O9 0.750000 0.733984 0.360983
O O10 0.855970 0.500000 0.376206
O O11 0.916327 0.721835 0.319062
O O12 0.900827 0.748765 0.418005
O O13 0.750000 0.773475 0.629295
O O14 0.584850 0.782846 0.587143
O O15 0.600317 0.738997 0.685411
O O16 0.639038 0.000000 0.649016
O O17 0.000879 0.253086 0.767169
O O18 0.997195 0.000000 0.814590
O O19 0.000000 0.764124 0.500000
O O20 0.972472 0.000000 0.441334
O O21 0.519005 0.500000 0.716686
O O22 0.147801 0.000000 0.014255
O O23 0.000000 0.157932 0.000000
#
# Coordination Sequence:
#
# PCOD8207468 Si02
#       8
#     8   8   8   8   8   8   8   8
#     4  11  24  39  55  79 110 142 177 218 265 316
#     4   9  18  33  54  80 108 136 169 211 257 310
#     4   9  19  36  56  78 108 148 189 224 264 320
#     4   9  18  34  55  78 106 143 184 221 262 316
#     4  11  22  38  58  80 106 137 177 220 268 323
#     4   9  18  32  52  82 117 148 181 225 272 314
#     4  10  21  37  56  78 105 137 175 224 277 320
#     4  10  18  34  59  83 106 139 177 212 257 313
#
# _framework density 18.809611
#
# number of rings (size 3 to 8) (size 9 to 14) (size 15 to 20)
#    0.000    2.250    1.250    1.500    0.000    4.500 
#    0.000    1.250    0.000    1.875    0.000    0.000 
#    0.000    0.000    0.000    0.000    0.000    0.000 
#
# Total GULP energy -793536.881071 kJ/mol
# GULP energy per Si atom -12399.013767 kJ/mol
# Density = 1.876680 g / cm^3
# Si number density = 18.809611 Si / 1000 Ang^3
#
#
#
# Elastic Constant Matrix: (Units=GPa)
#
#
# Indices 1 2 3 4 5 6 
#
# 1 138.4609 35.4866 63.0448 0.0000 0.0000 0.0000
# 2 35.4866 41.5475 38.9313 0.0000 0.0000 0.0000
# 3 63.0448 38.9313 156.1769 0.0000 0.0000 0.0000
# 4 0.0000 0.0000 0.0000 24.8401 0.0000 0.0000
# 5 0.0000 0.0000 0.0000 0.0000 -189.5020 0.0000
# 6 0.0000 0.0000 0.0000 0.0000 0.0000 30.8230
#
#
#
# Elastic Compliance Matrix: (Units=1/GPa)
#
#
# Indices 1 2 3 4 5 6 
#
# 1 0.009927 -0.006164 -0.002471 0.000000 0.000000 0.000000
# 2 -0.006164 0.035231 -0.006294 0.000000 0.000000 0.000000
# 3 -0.002471 -0.006294 0.008969 0.000000 0.000000 0.000000
# 4 0.000000 0.000000 0.000000 0.040257 0.000000 0.000000
# 5 0.000000 0.000000 0.000000 0.000000 -0.005277 0.000000
# 6 0.000000 0.000000 0.000000 0.000000 0.000000 0.032443
#
#
# Mechanical properties :
#
#
# Convention : Reuss Voigt Hill
#
# Bulk Modulus (GPa) = 41.20269 67.90119 54.55194
# Shear Modulus (GPa) = 31.34822 -13.51959 8.91431
#
# Velocity S-wave (km/s) = 4.08684 -2.68388 2.17934
# Velocity P-wave (km/s) = 6.64999 5.15493 5.94961
#
# Compressibility (1/GPa) = 0.02427026
#
# Stress axis : x y z
#
# Youngs Moduli (GPa) = 100.73561 28.38395 111.49001
#
# Poissons Ratio (x) = 0.17495 0.27547
# Poissons Ratio (y) = 0.62089 0.70174
# Poissons Ratio (z) = 0.24890 0.17865
#
# Static dielectric constant tensor:
#      x y z
#    x 3.626200 0.000000 0.000000 
#    y 0.000000 3.356730 0.000000 
#    z 0.000000 0.000000 3.557090 
# 
# 
# High freq. dielectric constant tensor:
#      x y z
#    x 1.739080 0.000000 0.000000 
#    y 0.000000 1.715620 0.000000 
#    z 0.000000 0.000000 1.730260 
# 
# From -- ./inp_files/35818.got.cif
#   From: 2010.03.12/outbox.cif.g09.slc.cpg/sg51_18_cif.got.tgz:35818.got - 2010.04.16 13:43:02.
