data_PCOD8207221
_publ_section_title
;
Structure prediction by ZEFSAII (Michael W. Deem and Ramdas Pophale) SiO2 
 PCOD8207221
Probable space group: P M M A
;
_chemical_formula_sum "Si O2"
_cell_formula_units_Z 52
_cell_length_a 8.656442
_cell_length_b 22.401060
_cell_length_c 15.345802
_cell_angle_alpha 90.000000
_cell_angle_beta 90.000000
_cell_angle_gamma 90.000000
_cell_volume 2975.757817
_symmetry_space_group_name_H-M "P M M A"
_symmetry_group_IT_number 51
_symmetry_cell_setting 'orthorhombic'
loop_
_space_group_symop_operation_xyz
x,y,z
1/2-x,-y,z
1/2+x,-y,-z
-x,y,-z
-x,-y,-z
1/2+x,y,-z
1/2-x,y,z
x,-y,z
loop_
_atom_site_type_symbol
_atom_site_label
_atom_site_fract_x
_atom_site_fract_y
_atom_site_fract_z
Si Si1 0.932092 0.285601 0.729008
Si Si2 0.081965 0.148315 0.916472
Si Si3 0.928243 0.930878 0.593055
Si Si4 0.432928 0.378664 0.596263
Si Si5 0.933730 0.500000 0.596494
Si Si6 0.422135 0.289596 0.913000
Si Si7 0.933631 0.157216 0.271220
O O1 0.750000 0.293730 0.718280
O O2 0.021019 0.325132 0.659000
O O3 0.979633 0.304890 0.826817
O O4 0.979068 0.218082 0.705921
O O5 0.250000 0.119351 0.917594
O O6 0.089000 0.219199 0.925860
O O7 0.004455 0.133661 0.823057
O O8 0.000000 0.119188 0.000000
O O9 0.750000 0.911062 0.594236
O O10 0.000000 0.916903 0.500000
O O11 0.027759 0.893451 0.660433
O O12 0.946567 0.000000 0.617522
O O13 0.500000 0.366916 0.500000
O O14 0.250000 0.383869 0.588780
O O15 0.501695 0.439368 0.639993
O O16 0.750000 0.500000 0.598117
O O17 0.000000 0.500000 0.500000
O O18 0.250000 0.316537 0.902508
O O19 0.500000 0.317683 0.000000
O O20 0.750000 0.169906 0.267148
#
# Coordination Sequence:
#
# PCOD8207221 Si02
#       7
#     8   8   8   8   4   8   8
#     4  11  21  33  49  74 105 136 168 206 252 301
#     4   8  15  26  43  67  95 125 157 192 233 282
#     4  10  21  37  56  76  96 123 162 205 247 294
#     4  11  21  35  52  73 101 134 170 209 250 296
#     4  10  18  32  52  74  97 128 169 208 246 292
#     4   9  16  28  45  68  97 131 167 205 246 292
#     4  10  20  34  51  74 102 131 163 202 248 297
#
# _framework density 17.474540000000001
#
# number of rings (size 3 to 8) (size 9 to 14) (size 15 to 20)
#    0.000    2.154    0.000    6.692    0.000    5.846 
#    0.000    3.077    0.000    0.462    0.000    0.538 
#    0.000    0.000    0.000    0.000    0.000    0.000 
#
# Total GULP energy -644555.702662 kJ/mol
# GULP energy per Si atom -12395.301974 kJ/mol
# Density = 1.743477 g / cm^3
# Si number density = 17.474540 Si / 1000 Ang^3
#
#
#
# Elastic Constant Matrix: (Units=GPa)
#
#
# Indices 1 2 3 4 5 6 
#
# 1 117.4356 26.2473 37.4606 0.0000 0.0000 0.0000
# 2 26.2473 54.9061 53.4848 0.0000 0.0000 0.0000
# 3 37.4606 53.4848 108.2266 0.0000 0.0000 0.0000
# 4 0.0000 0.0000 0.0000 -8.1843 0.0000 0.0000
# 5 0.0000 0.0000 0.0000 0.0000 29.7412 0.0000
# 6 0.0000 0.0000 0.0000 0.0000 0.0000 21.5205
#
#
#
# Elastic Compliance Matrix: (Units=1/GPa)
#
#
# Indices 1 2 3 4 5 6 
#
# 1 0.009769 -0.002653 -0.002070 0.000000 0.000000 0.000000
# 2 -0.002653 0.035840 -0.016793 0.000000 0.000000 0.000000
# 3 -0.002070 -0.016793 0.018256 0.000000 0.000000 0.000000
# 4 0.000000 0.000000 0.000000 -0.122185 0.000000 0.000000
# 5 0.000000 0.000000 0.000000 0.000000 0.033623 0.000000
# 6 0.000000 0.000000 0.000000 0.000000 0.000000 0.046467
#
#
# Mechanical properties :
#
#
# Convention : Reuss Voigt Hill
#
# Bulk Modulus (GPa) = 48.00626 57.21708 52.61167
# Shear Modulus (GPa) = 69.68854 19.50717 44.59786
#
# Velocity S-wave (km/s) = 6.32192 3.34476 5.05737
# Velocity P-wave (km/s) = 8.99003 6.90875 8.01721
#
# Compressibility (1/GPa) = 0.02083062
#
# Stress axis : x y z
#
# Youngs Moduli (GPa) = 102.36830 27.90165 54.77789
#
# Poissons Ratio (x) = 0.07404 0.11339
# Poissons Ratio (y) = 0.27163 0.91991
# Poissons Ratio (z) = 0.21189 0.46857
#
# Static dielectric constant tensor:
#      x y z
#    x 3.472370 0.000000 0.000000 
#    y 0.000000 3.128750 0.000000 
#    z 0.000000 0.000000 3.430330 
# 
# 
# High freq. dielectric constant tensor:
#      x y z
#    x 1.693550 0.000000 0.000000 
#    y 0.000000 1.634780 0.000000 
#    z 0.000000 0.000000 1.678260 
# 
# From -- ./inp_files/21523.got.cif
#   From: 2010.03.12/outbox.cif.g09.slc.cpg/sg51_11_cif.got.tgz:21523.got - 2010.04.16 13:43:02.
