data_PCOD8207573
_publ_section_title
;
Structure prediction by ZEFSAII (Michael W. Deem and Ramdas Pophale) SiO2 
 PCOD8207573
Probable space group: P M M A
;
_chemical_formula_sum "Si O2"
_cell_formula_units_Z 64
_cell_length_a 13.980374
_cell_length_b 9.164463
_cell_length_c 31.110761
_cell_angle_alpha 90.000000
_cell_angle_beta 90.000000
_cell_angle_gamma 90.000000
_cell_volume 3985.992217
_symmetry_space_group_name_H-M "P M M A"
_symmetry_group_IT_number 51
_symmetry_cell_setting 'orthorhombic'
loop_
_space_group_symop_operation_xyz
x,y,z
1/2-x,-y,z
1/2+x,-y,-z
-x,y,-z
-x,-y,-z
1/2+x,y,-z
1/2-x,y,z
x,-y,z
loop_
_atom_site_type_symbol
_atom_site_label
_atom_site_fract_x
_atom_site_fract_y
_atom_site_fract_z
Si Si1 0.958379 0.172741 0.066600
Si Si2 0.362996 0.163618 0.529830
Si Si3 0.860718 0.671041 0.144337
Si Si4 0.855809 0.172873 0.980793
Si Si5 0.863254 0.160791 0.227114
Si Si6 0.141376 0.169161 0.431961
Si Si7 0.969591 0.327645 0.397398
Si Si8 0.360748 0.829450 0.677273
O O1 0.926991 0.253309 0.109365
O O2 0.067671 0.220455 0.055494
O O3 0.950432 0.000000 0.073633
O O4 0.890307 0.225757 0.027710
O O5 0.250000 0.177381 0.533945
O O6 0.394328 0.193965 0.480856
O O7 0.410358 0.280667 0.560799
O O8 0.395312 0.000000 0.543431
O O9 0.750000 0.714686 0.136655
O O10 0.875968 0.500000 0.141706
O O11 0.896679 0.724586 0.191077
O O12 0.750000 0.238058 0.970853
O O13 0.851909 0.000000 0.981807
O O14 0.750000 0.151965 0.229119
O O15 0.898131 0.208026 0.274571
O O16 0.903834 0.000000 0.215375
O O17 0.250000 0.222679 0.426525
O O18 0.076814 0.264930 0.400304
O O19 0.132273 0.000000 0.419558
O O20 0.973183 0.500000 0.395056
O O21 0.922210 0.267773 0.354432
O O22 0.250000 0.786879 0.671486
O O23 0.375486 0.000000 0.667119
#
# Coordination Sequence:
#
# PCOD8207573 Si02
#       8
#     8   8   8   8   8   8   8   8
#     4   9  16  26  43  64  84 113 152 188 221 259
#     4   9  18  33  51  68  88 118 155 190 220 254
#     4  10  19  28  40  62  92 121 145 175 219 266
#     4   8  14  25  41  62  87 114 148 190 228 257
#     4   8  15  29  48  67  86 112 147 183 217 255
#     4   9  19  36  54  67  82 113 157 197 227 256
#     4  12  23  30  43  70  99 124 147 176 221 272
#     4   9  18  33  51  69  91 120 152 183 214 256
#
# _framework density 16.056228000000001
#
# number of rings (size 3 to 8) (size 9 to 14) (size 15 to 20)
#    0.000    2.750    0.000    4.875    0.000    6.000 
#    0.000    3.750    0.000    1.125    0.000    0.875 
#    0.000    3.000    0.000    0.000    0.000    0.000 
#
# Total GULP energy -793393.628481 kJ/mol
# GULP energy per Si atom -12396.775445 kJ/mol
# Density = 1.601968 g / cm^3
# Si number density = 16.056228 Si / 1000 Ang^3
#
#
#
# Elastic Constant Matrix: (Units=GPa)
#
#
# Indices 1 2 3 4 5 6 
#
# 1 79.9531 40.9870 56.4237 0.0000 0.0000 0.0000
# 2 40.9870 77.9097 59.7127 0.0000 0.0000 0.0000
# 3 56.4237 59.7127 108.0122 0.0000 0.0000 0.0000
# 4 0.0000 0.0000 0.0000 0.0989 0.0000 0.0000
# 5 0.0000 0.0000 0.0000 0.0000 23.5932 0.0000
# 6 0.0000 0.0000 0.0000 0.0000 0.0000 13.4175
#
#
#
# Elastic Compliance Matrix: (Units=1/GPa)
#
#
# Indices 1 2 3 4 5 6 
#
# 1 0.020686 -0.004512 -0.008311 0.000000 0.000000 0.000000
# 2 -0.004512 0.023257 -0.010500 0.000000 0.000000 0.000000
# 3 -0.008311 -0.010500 0.019405 0.000000 0.000000 0.000000
# 4 0.000000 0.000000 0.000000 10.111795 0.000000 0.000000
# 5 0.000000 0.000000 0.000000 0.000000 0.042385 0.000000
# 6 0.000000 0.000000 0.000000 0.000000 0.000000 0.074529
#
#
# Mechanical properties :
#
#
# Convention : Reuss Voigt Hill
#
# Bulk Modulus (GPa) = 59.88034 64.45800 62.16917
# Shear Modulus (GPa) = 0.48336 14.67202 7.57769
#
# Velocity S-wave (km/s) = 0.54927 3.02618 2.17479
# Velocity P-wave (km/s) = 6.14633 7.24173 6.71640
#
# Compressibility (1/GPa) = 0.01669997
#
# Stress axis : x y z
#
# Youngs Moduli (GPa) = 48.34187 42.99823 51.53399
#
# Poissons Ratio (x) = 0.19403 0.42832
# Poissons Ratio (y) = 0.21814 0.54110
# Poissons Ratio (z) = 0.40179 0.45148
#
# Static dielectric constant tensor:
#      x y z
#    x 3.108770 0.000000 0.000000 
#    y 0.000000 2.863290 0.000000 
#    z 0.000000 0.000000 3.070550 
# 
# 
# High freq. dielectric constant tensor:
#      x y z
#    x 1.600020 0.000000 0.000000 
#    y 0.000000 1.600820 0.000000 
#    z 0.000000 0.000000 1.608760 
# 
# From -- ./inp_files/37809.got.cif
#   From: 2010.03.12/outbox.cif.g09.slc.cpg/sg51_19_cif.got.tgz:37809.got - 2010.04.16 13:43:02.
