data_PCOD8207261
_publ_section_title
;
Structure prediction by ZEFSAII (Michael W. Deem and Ramdas Pophale) SiO2 
 PCOD8207261
Probable space group: P M M A
;
_chemical_formula_sum "Si O2"
_cell_formula_units_Z 44
_cell_length_a 8.805964
_cell_length_b 18.058316
_cell_length_c 14.389266
_cell_angle_alpha 90.000000
_cell_angle_beta 90.000000
_cell_angle_gamma 90.000000
_cell_volume 2288.193750
_symmetry_space_group_name_H-M "P M M A"
_symmetry_group_IT_number 51
_symmetry_cell_setting 'orthorhombic'
loop_
_space_group_symop_operation_xyz
x,y,z
1/2-x,-y,z
1/2+x,-y,-z
-x,y,-z
-x,-y,-z
1/2+x,y,-z
1/2-x,y,z
x,-y,z
loop_
_atom_site_type_symbol
_atom_site_label
_atom_site_fract_x
_atom_site_fract_y
_atom_site_fract_z
Si Si1 0.575205 0.415688 0.212684
Si Si2 0.572871 0.350494 0.408049
Si Si3 0.070281 0.855892 0.208066
Si Si4 0.929562 0.809093 0.593922
Si Si5 0.928953 0.712476 0.899382
Si Si6 0.568777 0.000000 0.898313
O O1 0.750000 0.397218 0.190178
O O2 0.535485 0.500000 0.187255
O O3 0.542462 0.404295 0.321755
O O4 0.470238 0.363786 0.150829
O O5 0.500000 0.387857 0.500000
O O6 0.750000 0.335933 0.424705
O O7 0.491310 0.272899 0.389084
O O8 0.250000 0.854721 0.200443
O O9 0.021817 0.857871 0.316617
O O10 0.005348 0.781925 0.159166
O O11 0.006114 0.928333 0.156579
O O12 0.750000 0.805509 0.582978
O O13 0.000000 0.844447 0.500000
O O14 0.750000 0.717262 0.909213
O O15 0.000000 0.715100 0.000000
O O16 0.750000 0.000000 0.904777
O O17 0.500000 0.000000 0.000000
#
# Coordination Sequence:
#
# PCOD8207261 Si02
#       6
#     8   8   8   8   8   4
#     4  10  22  39  56  78 109 144 184 229 275 326
#     4  10  19  32  53  80 109 143 180 224 272 323
#     4   9  19  35  58  83 113 146 181 221 271 328
#     4  10  18  32  53  81 111 144 183 223 265 321
#     4  11  22  38  58  82 107 140 184 229 276 331
#     4  10  20  38  59  84 114 148 181 224 277 324
#
# _framework density 19.229142
#
# number of rings (size 3 to 8) (size 9 to 14) (size 15 to 20)
#    0.000    2.000    1.818    3.273    0.000    1.818 
#    0.000    3.182    0.000    0.000    0.000    0.000 
#    0.000    0.000    0.000    0.000    0.000    0.000 
#
# Total GULP energy -545593.082252 kJ/mol
# GULP energy per Si atom -12399.842778 kJ/mol
# Density = 1.918538 g / cm^3
# Si number density = 19.229142 Si / 1000 Ang^3
#
#
#
# Elastic Constant Matrix: (Units=GPa)
#
#
# Indices 1 2 3 4 5 6 
#
# 1 73.0786 31.9214 50.2813 0.0000 0.0000 0.0000
# 2 31.9214 117.6163 75.3611 0.0000 0.0000 0.0000
# 3 50.2813 75.3611 163.7217 0.0000 0.0000 0.0000
# 4 0.0000 0.0000 0.0000 27.3166 0.0000 0.0000
# 5 0.0000 0.0000 0.0000 0.0000 34.1696 0.0000
# 6 0.0000 0.0000 0.0000 0.0000 0.0000 19.2101
#
#
#
# Elastic Compliance Matrix: (Units=1/GPa)
#
#
# Indices 1 2 3 4 5 6 
#
# 1 0.017634 -0.001866 -0.004557 0.000000 0.000000 0.000000
# 2 -0.001866 0.012256 -0.005068 0.000000 0.000000 0.000000
# 3 -0.004557 -0.005068 0.009840 0.000000 0.000000 0.000000
# 4 0.000000 0.000000 0.000000 0.036608 0.000000 0.000000
# 5 0.000000 0.000000 0.000000 0.000000 0.029266 0.000000
# 6 0.000000 0.000000 0.000000 0.000000 0.000000 0.052056
#
#
# Mechanical properties :
#
#
# Convention : Reuss Voigt Hill
#
# Bulk Modulus (GPa) = 59.70835 74.39379 67.05107
# Shear Modulus (GPa) = 26.84912 29.26279 28.05596
#
# Velocity S-wave (km/s) = 3.74073 3.90525 3.82387
# Velocity P-wave (km/s) = 7.05519 7.68809 7.37843
#
# Compressibility (1/GPa) = 0.01674808
#
# Stress axis : x y z
#
# Youngs Moduli (GPa) = 56.70761 81.59101 101.62283
#
# Poissons Ratio (x) = 0.15228 0.46306
# Poissons Ratio (y) = 0.10584 0.51506
# Poissons Ratio (z) = 0.25840 0.41353
#
# Static dielectric constant tensor:
#      x y z
#    x 3.392990 0.000000 0.000000 
#    y 0.000000 3.559450 0.000000 
#    z 0.000000 0.000000 3.756170 
# 
# 
# High freq. dielectric constant tensor:
#      x y z
#    x 1.736560 0.000000 0.000000 
#    y 0.000000 1.732240 0.000000 
#    z 0.000000 0.000000 1.766550 
# 
# From -- ./inp_files/20914.got.cif
#   From: 2010.03.12/outbox.cif.g09.slc.cpg/sg51_11_cif.got.tgz:20914.got - 2010.04.16 13:43:02.
