data_PCOD8207234
_publ_section_title
;
Structure prediction by ZEFSAII (Michael W. Deem and Ramdas Pophale) SiO2 
 PCOD8207234
Probable space group: P M M A
;
_chemical_formula_sum "Si O2"
_cell_formula_units_Z 64
_cell_length_a 23.020435
_cell_length_b 8.826537
_cell_length_c 17.695134
_cell_angle_alpha 90.000000
_cell_angle_beta 90.000000
_cell_angle_gamma 90.000000
_cell_volume 3595.487041
_symmetry_space_group_name_H-M "P M M A"
_symmetry_group_IT_number 51
_symmetry_cell_setting 'orthorhombic'
loop_
_space_group_symop_operation_xyz
x,y,z
1/2-x,-y,z
1/2+x,-y,-z
-x,y,-z
-x,-y,-z
1/2+x,y,-z
1/2-x,y,z
x,-y,z
loop_
_atom_site_type_symbol
_atom_site_label
_atom_site_fract_x
_atom_site_fract_y
_atom_site_fract_z
Si Si1 0.589742 0.177612 0.823633
Si Si2 0.989451 0.330288 0.088143
Si Si3 0.567651 0.664682 0.513830
Si Si4 0.859327 0.679891 0.089043
Si Si5 0.584164 0.681545 0.352695
Si Si6 0.182574 0.676513 0.071983
Si Si7 0.454134 0.681039 0.325410
Si Si8 0.814130 0.680150 0.246304
O O1 0.533999 0.216836 0.873726
O O2 0.647811 0.238223 0.862842
O O3 0.583952 0.251145 0.741437
O O4 0.594776 0.000000 0.814227
O O5 0.997028 0.500000 0.122735
O O6 0.925215 0.266611 0.102589
O O7 0.000000 0.337197 0.000000
O O8 0.500000 0.640515 0.500000
O O9 0.597918 0.500000 0.519762
O O10 0.592969 0.748192 0.438610
O O11 0.573964 0.746207 0.595706
O O12 0.856440 0.500000 0.083940
O O13 0.822741 0.740052 0.160574
O O14 0.833865 0.744936 0.010516
O O15 0.585850 0.500000 0.356693
O O16 0.521871 0.732300 0.318182
O O17 0.636261 0.747848 0.301276
O O18 0.250000 0.703926 0.087366
O O19 0.165830 0.500000 0.075453
O O20 0.450384 0.500000 0.324695
O O21 0.750000 0.731564 0.273827
O O22 0.819495 0.500000 0.246370
#
# Coordination Sequence:
#
# PCOD8207234 Si02
#       8
#     8   8   8   8   8   8   8   8
#     4  12  24  34  47  71 105 133 159 197 249 302
#     4  10  18  32  53  72  93 122 162 204 244 288
#     4   7  11  21  41  68  90 113 151 198 241 284
#     4   9  16  28  47  71  94 119 156 202 241 279
#     4   8  13  23  42  68  95 122 155 196 242 288
#     4  10  20  36  56  72  89 122 171 215 245 281
#     4   9  16  29  50  71  92 122 164 204 243 291
#     4   9  15  21  33  60  98 130 150 178 231 292
#
# _framework density 17.800090999999998
#
# number of rings (size 3 to 8) (size 9 to 14) (size 15 to 20)
#    0.000    2.750    1.250    3.750    0.000    4.000 
#    0.000    0.000    0.000    4.125    0.000    3.500 
#    0.000    4.500    0.000    0.000    0.000    0.000 
#
# Total GULP energy -793001.666961 kJ/mol
# GULP energy per Si atom -12390.651046 kJ/mol
# Density = 1.775958 g / cm^3
# Si number density = 17.800091 Si / 1000 Ang^3
#
#
#
# Elastic Constant Matrix: (Units=GPa)
#
#
# Indices 1 2 3 4 5 6 
#
# 1 92.2668 20.6973 63.9632 0.0000 0.0000 0.0000
# 2 20.6973 31.3428 26.1094 0.0000 0.0000 0.0000
# 3 63.9632 26.1094 154.6485 0.0000 0.0000 0.0000
# 4 0.0000 0.0000 0.0000 2.1878 0.0000 0.0000
# 5 0.0000 0.0000 0.0000 0.0000 21.3779 0.0000
# 6 0.0000 0.0000 0.0000 0.0000 0.0000 8.4799
#
#
#
# Elastic Compliance Matrix: (Units=1/GPa)
#
#
# Indices 1 2 3 4 5 6 
#
# 1 0.016084 -0.005911 -0.005654 0.000000 0.000000 0.000000
# 2 -0.005911 0.039299 -0.004190 0.000000 0.000000 0.000000
# 3 -0.005654 -0.004190 0.009512 0.000000 0.000000 0.000000
# 4 0.000000 0.000000 0.000000 0.457082 0.000000 0.000000
# 5 0.000000 0.000000 0.000000 0.000000 0.046777 0.000000
# 6 0.000000 0.000000 0.000000 0.000000 0.000000 0.117925
#
#
# Mechanical properties :
#
#
# Convention : Reuss Voigt Hill
#
# Bulk Modulus (GPa) = 29.95393 55.53309 42.74351
# Shear Modulus (GPa) = 6.85571 17.57500 12.21536
#
# Velocity S-wave (km/s) = 1.96465 3.14563 2.62248
# Velocity P-wave (km/s) = 4.69159 6.66778 5.76499
#
# Compressibility (1/GPa) = 0.03338460
#
# Stress axis : x y z
#
# Youngs Moduli (GPa) = 62.17379 25.44592 105.12582
#
# Poissons Ratio (x) = 0.15040 0.59443
# Poissons Ratio (y) = 0.36749 0.44050
# Poissons Ratio (z) = 0.35156 0.10662
#
# Static dielectric constant tensor:
#      x y z
#    x 3.228020 0.000000 0.000000 
#    y 0.000000 2.698090 0.000000 
#    z 0.000000 0.000000 3.796830 
# 
# 
# High freq. dielectric constant tensor:
#      x y z
#    x 1.671230 0.000000 0.000000 
#    y 0.000000 1.621300 0.000000 
#    z 0.000000 0.000000 1.704400 
# 
# From -- ./inp_files/30655.got.cif
#   From: 2010.03.12/outbox.cif.g09.slc.cpg/sg51_16_cif.got.tgz:30655.got - 2010.04.16 13:43:02.
