data_PCOD8207458
_publ_section_title
;
Structure prediction by ZEFSAII (Michael W. Deem and Ramdas Pophale) SiO2 
 PCOD8207458
Probable space group: P M M A
;
_chemical_formula_sum "Si O2"
_cell_formula_units_Z 64
_cell_length_a 30.946537
_cell_length_b 8.809663
_cell_length_c 12.136790
_cell_angle_alpha 90.000000
_cell_angle_beta 90.000000
_cell_angle_gamma 90.000000
_cell_volume 3308.835605
_symmetry_space_group_name_H-M "P M M A"
_symmetry_group_IT_number 51
_symmetry_cell_setting 'orthorhombic'
loop_
_space_group_symop_operation_xyz
x,y,z
1/2-x,-y,z
1/2+x,-y,-z
-x,y,-z
-x,-y,-z
1/2+x,y,-z
1/2-x,y,z
x,-y,z
loop_
_atom_site_type_symbol
_atom_site_label
_atom_site_fract_x
_atom_site_fract_y
_atom_site_fract_z
Si Si1 0.451321 0.319271 0.514716
Si Si2 0.887714 0.177632 0.866490
Si Si3 0.200374 0.177357 0.507508
Si Si4 0.440127 0.320418 0.756757
Si Si5 0.135161 0.678023 0.911225
Si Si6 0.699727 0.829471 0.240789
Si Si7 0.373304 0.320625 0.364104
Si Si8 0.477471 0.328554 0.117086
O O1 0.500000 0.253757 0.500000
O O2 0.453455 0.500000 0.512823
O O3 0.432793 0.261716 0.632471
O O4 0.417834 0.260881 0.421659
O O5 0.868677 0.249932 0.756121
O O6 0.938071 0.213989 0.879702
O O7 0.880451 0.000000 0.860530
O O8 0.861685 0.242072 0.970718
O O9 0.250000 0.218233 0.478387
O O10 0.190441 0.220356 0.633926
O O11 0.168772 0.275397 0.432685
O O12 0.192045 0.000000 0.487047
O O13 0.435535 0.500000 0.762910
O O14 0.404837 0.252086 0.840645
O O15 0.488373 0.272948 0.791973
O O16 0.129681 0.500000 0.931526
O O17 0.178096 0.711305 0.842340
O O18 0.750000 0.824202 0.215852
O O19 0.682092 0.000000 0.220617
O O20 0.374824 0.500000 0.354042
O O21 0.461025 0.500000 0.142666
O O22 0.500000 0.324519 0.000000
#
# Coordination Sequence:
#
# PCOD8207458 Si02
#       8
#     8   8   8   8   8   8   8   8
#     4   9  17  30  51  80 112 146 185 229 280 340
#     4  12  25  39  55  78 113 154 196 238 290 351
#     4   9  19  38  63  89 120 156 189 227 286 355
#     4   9  17  30  52  81 111 142 179 228 284 333
#     4  11  21  36  57  83 112 144 190 238 283 332
#     4   9  19  37  60  87 120 154 183 219 278 346
#     4  11  22  37  59  85 114 151 199 250 296 341
#     4  10  18  34  57  80 109 148 191 235 283 334
#
# _framework density 19.342151000000001
#
# number of rings (size 3 to 8) (size 9 to 14) (size 15 to 20)
#    0.000    2.000    1.250    4.125    0.000    4.250 
#    0.000    1.875    0.000   12.000    0.000    0.000 
#    0.000    0.000    0.000    0.000    0.000    0.000 
#
# Total GULP energy -793606.733952 kJ/mol
# GULP energy per Si atom -12400.105218 kJ/mol
# Density = 1.929813 g / cm^3
# Si number density = 19.342151 Si / 1000 Ang^3
#
#
#
# Elastic Constant Matrix: (Units=GPa)
#
#
# Indices 1 2 3 4 5 6 
#
# 1 91.2401 37.3652 58.8062 0.0000 0.0000 0.0000
# 2 37.3652 69.7357 45.8742 0.0000 0.0000 0.0000
# 3 58.8062 45.8742 141.5164 0.0000 0.0000 0.0000
# 4 0.0000 0.0000 0.0000 24.3431 0.0000 0.0000
# 5 0.0000 0.0000 0.0000 0.0000 29.9053 0.0000
# 6 0.0000 0.0000 0.0000 0.0000 0.0000 27.9272
#
#
#
# Elastic Compliance Matrix: (Units=1/GPa)
#
#
# Indices 1 2 3 4 5 6 
#
# 1 0.016475 -0.005496 -0.005065 0.000000 0.000000 0.000000
# 2 -0.005496 0.020060 -0.004219 0.000000 0.000000 0.000000
# 3 -0.005065 -0.004219 0.010538 0.000000 0.000000 0.000000
# 4 0.000000 0.000000 0.000000 0.041079 0.000000 0.000000
# 5 0.000000 0.000000 0.000000 0.000000 0.033439 0.000000
# 6 0.000000 0.000000 0.000000 0.000000 0.000000 0.035807
#
#
# Mechanical properties :
#
#
# Convention : Reuss Voigt Hill
#
# Bulk Modulus (GPa) = 57.09464 65.17593 61.13529
# Shear Modulus (GPa) = 25.93416 27.13156 26.53286
#
# Velocity S-wave (km/s) = 3.66568 3.74935 3.70775
# Velocity P-wave (km/s) = 6.89192 7.24658 7.07148
#
# Compressibility (1/GPa) = 0.01751478
#
# Stress axis : x y z
#
# Youngs Moduli (GPa) = 60.69806 49.85063 94.89077
#
# Poissons Ratio (x) = 0.27397 0.48057
# Poissons Ratio (y) = 0.33359 0.40033
# Poissons Ratio (z) = 0.30741 0.21031
#
# Static dielectric constant tensor:
#      x y z
#    x 3.251740 0.000000 0.000000 
#    y 0.000000 3.285410 0.000000 
#    z 0.000000 0.000000 3.752560 
# 
# 
# High freq. dielectric constant tensor:
#      x y z
#    x 1.748400 0.000000 0.000000 
#    y 0.000000 1.722540 0.000000 
#    z 0.000000 0.000000 1.765090 
# 
# From -- ./inp_files/19533.got.cif
#   From: 2010.03.12/outbox.cif.g09.slc.cpg/sg51_10_cif.got.tgz:19533.got - 2010.04.16 13:43:02.
