data_PCOD8207415
_publ_section_title
;
Structure prediction by ZEFSAII (Michael W. Deem and Ramdas Pophale) SiO2 
 PCOD8207415
Probable space group: P M M A
;
_chemical_formula_sum "Si O2"
_cell_formula_units_Z 64
_cell_length_a 23.941878
_cell_length_b 8.867604
_cell_length_c 15.449068
_cell_angle_alpha 90.000000
_cell_angle_beta 90.000000
_cell_angle_gamma 90.000000
_cell_volume 3279.946718
_symmetry_space_group_name_H-M "P M M A"
_symmetry_group_IT_number 51
_symmetry_cell_setting 'orthorhombic'
loop_
_space_group_symop_operation_xyz
x,y,z
1/2-x,-y,z
1/2+x,-y,-z
-x,y,-z
-x,-y,-z
1/2+x,y,-z
1/2-x,y,z
x,-y,z
loop_
_atom_site_type_symbol
_atom_site_label
_atom_site_fract_x
_atom_site_fract_y
_atom_site_fract_z
Si Si1 0.121055 0.173334 0.101535
Si Si2 0.615358 0.172902 0.597248
Si Si3 0.115906 0.178681 0.910311
Si Si4 0.312457 0.179524 0.750900
Si Si5 0.686269 0.677634 0.744272
Si Si6 0.000904 0.172872 0.831238
Si Si7 0.002848 0.677059 0.350871
Si Si8 0.608948 0.173321 0.402833
O O1 0.154193 0.272061 0.170032
O O2 0.054818 0.189019 0.113191
O O3 0.139812 0.000000 0.112597
O O4 0.134273 0.236947 0.005287
O O5 0.659506 0.254278 0.658280
O O6 0.554251 0.243125 0.602572
O O7 0.635922 0.188169 0.498121
O O8 0.611641 0.000000 0.627288
O O9 0.157711 0.243384 0.837340
O O10 0.052696 0.228847 0.889214
O O11 0.118656 0.000000 0.912109
O O12 0.250000 0.246483 0.746581
O O13 0.346238 0.234577 0.666526
O O14 0.310668 0.000000 0.753310
O O15 0.750000 0.732720 0.750399
O O16 0.681698 0.500000 0.736873
O O17 0.997593 0.280473 0.749283
O O18 0.009894 0.000000 0.800284
O O19 0.010321 0.500000 0.361132
O O20 0.946483 0.727463 0.397847
O O21 0.593064 0.000000 0.382477
#
# Coordination Sequence:
#
# PCOD8207415 Si02
#       8
#     8   8   8   8   8   8   8   8
#     4  10  20  34  59  90 115 149 194 241 288 339
#     4  11  23  39  62  88 113 147 193 246 294 340
#     4   9  17  31  55  88 121 150 186 236 290 340
#     4   9  17  31  54  84 115 146 185 236 286 331
#     4  11  25  43  60  81 116 160 198 238 291 346
#     4  10  18  33  57  84 118 153 189 237 290 343
#     4  12  23  35  57  87 120 154 188 230 286 355
#     4  10  21  38  60  86 116 150 191 238 290 346
#
# _framework density 19.512512000000001
#
# number of rings (size 3 to 8) (size 9 to 14) (size 15 to 20)
#    0.000    1.750    2.500    2.625    0.000    6.000 
#    0.000    3.125    0.000    1.875    0.000    0.000 
#    0.000    0.000    0.000    0.000    0.000    0.000 
#
# Total GULP energy -793704.686116 kJ/mol
# GULP energy per Si atom -12401.635721 kJ/mol
# Density = 1.946810 g / cm^3
# Si number density = 19.512512 Si / 1000 Ang^3
#
#
#
# Elastic Constant Matrix: (Units=GPa)
#
#
# Indices 1 2 3 4 5 6 
#
# 1 136.9386 35.5171 57.3228 0.0000 0.0000 0.0000
# 2 35.5171 44.8386 28.8481 0.0000 0.0000 0.0000
# 3 57.3228 28.8481 148.0025 0.0000 0.0000 0.0000
# 4 0.0000 0.0000 0.0000 2.6170 0.0000 0.0000
# 5 0.0000 0.0000 0.0000 0.0000 14.0726 0.0000
# 6 0.0000 0.0000 0.0000 0.0000 0.0000 21.0349
#
#
#
# Elastic Compliance Matrix: (Units=1/GPa)
#
#
# Indices 1 2 3 4 5 6 
#
# 1 0.010038 -0.006231 -0.002673 0.000000 0.000000 0.000000
# 2 -0.006231 0.029368 -0.003311 0.000000 0.000000 0.000000
# 3 -0.002673 -0.003311 0.008437 0.000000 0.000000 0.000000
# 4 0.000000 0.000000 0.000000 0.382114 0.000000 0.000000
# 5 0.000000 0.000000 0.000000 0.000000 0.071060 0.000000
# 6 0.000000 0.000000 0.000000 0.000000 0.000000 0.047540
#
#
# Mechanical properties :
#
#
# Convention : Reuss Voigt Hill
#
# Bulk Modulus (GPa) = 42.71182 63.68396 53.19789
# Shear Modulus (GPa) = 8.60894 21.41769 15.01331
#
# Velocity S-wave (km/s) = 2.10276 3.31666 2.77685
# Velocity P-wave (km/s) = 5.27564 6.88297 6.13220
#
# Compressibility (1/GPa) = 0.02341272
#
# Stress axis : x y z
#
# Youngs Moduli (GPa) = 99.62494 34.05055 118.52079
#
# Poissons Ratio (x) = 0.21217 0.31682
# Poissons Ratio (y) = 0.62077 0.39242
# Poissons Ratio (z) = 0.26631 0.11274
#
# Static dielectric constant tensor:
#      x y z
#    x 3.687180 0.000000 0.000000 
#    y 0.000000 3.260810 0.000000 
#    z 0.000000 0.000000 3.782390 
# 
# 
# High freq. dielectric constant tensor:
#      x y z
#    x 1.759340 0.000000 0.000000 
#    y 0.000000 1.725690 0.000000 
#    z 0.000000 0.000000 1.777020 
# 
# From -- ./inp_files/26286.got.cif
#   From: 2010.03.12/outbox.cif.g09.slc.cpg/sg51_14_cif.got.tgz:26286.got - 2010.04.16 13:43:02.
