data_PCOD8207428
_publ_section_title
;
Structure prediction by ZEFSAII (Michael W. Deem and Ramdas Pophale) SiO2 
 PCOD8207428
Probable space group: P M M A
;
_chemical_formula_sum "Si O2"
_cell_formula_units_Z 56
_cell_length_a 15.168345
_cell_length_b 9.124006
_cell_length_c 21.502904
_cell_angle_alpha 90.000000
_cell_angle_beta 90.000000
_cell_angle_gamma 90.000000
_cell_volume 2975.917424
_symmetry_space_group_name_H-M "P M M A"
_symmetry_group_IT_number 51
_symmetry_cell_setting 'orthorhombic'
loop_
_space_group_symop_operation_xyz
x,y,z
1/2-x,-y,z
1/2+x,-y,-z
-x,y,-z
-x,-y,-z
1/2+x,y,-z
1/2-x,y,z
x,-y,z
loop_
_atom_site_type_symbol
_atom_site_label
_atom_site_fract_x
_atom_site_fract_y
_atom_site_fract_z
Si Si1 0.148449 0.828328 0.567305
Si Si2 0.846376 0.326252 0.871815
Si Si3 0.603897 0.666136 0.006120
Si Si4 0.992710 0.673171 0.208935
Si Si5 0.351107 0.832466 0.870265
Si Si6 0.149864 0.669995 0.441130
Si Si7 0.492723 0.329042 0.648071
O O1 0.250000 0.791302 0.582609
O O2 0.120815 0.761060 0.501244
O O3 0.089107 0.760124 0.621059
O O4 0.131281 0.000000 0.564093
O O5 0.750000 0.278718 0.846525
O O6 0.856145 0.500000 0.873063
O O7 0.921723 0.262350 0.826837
O O8 0.856749 0.268597 0.942241
O O9 0.636552 0.500000 0.018387
O O10 0.636938 0.766504 0.061549
O O11 0.500000 0.669988 0.000000
O O12 0.984058 0.500000 0.199548
O O13 0.905710 0.745933 0.181403
O O14 0.003459 0.716272 0.280541
O O15 0.250000 0.820071 0.849758
O O16 0.382943 0.000000 0.872005
O O17 0.250000 0.708235 0.420536
O O18 0.141206 0.500000 0.458778
O O19 0.084466 0.712945 0.385383
O O20 0.471705 0.500000 0.640230
#
# Coordination Sequence:
#
# PCOD8207428 Si02
#       7
#     8   8   8   8   8   8   8
#     4  10  21  36  55  80 109 142 180 222 267 316
#     4   9  17  31  54  82 108 136 173 218 267 318
#     4  10  18  33  59  85 109 137 175 223 272 322
#     4  10  21  38  56  78 108 143 183 225 266 317
#     4  11  24  39  55  78 109 145 183 225 275 324
#     4   9  18  34  56  83 114 143 173 215 267 320
#     4  10  21  35  55  81 109 142 180 221 270 320
#
# _framework density 18.817727000000001
#
# number of rings (size 3 to 8) (size 9 to 14) (size 15 to 20)
#    0.000    2.143    1.429    1.714    0.000    6.857 
#    0.000    5.714    0.000    0.429    0.000    2.000 
#    0.000    0.000    0.000    0.000    0.000    0.000 
#
# Total GULP energy -694498.572900 kJ/mol
# GULP energy per Si atom -12401.760230 kJ/mol
# Density = 1.877490 g / cm^3
# Si number density = 18.817727 Si / 1000 Ang^3
#
#
#
# Elastic Constant Matrix: (Units=GPa)
#
#
# Indices 1 2 3 4 5 6 
#
# 1 116.0737 43.0021 74.0234 0.0000 0.0000 0.0000
# 2 43.0021 57.6182 57.1177 0.0000 0.0000 0.0000
# 3 74.0234 57.1177 144.6169 0.0000 0.0000 0.0000
# 4 0.0000 0.0000 0.0000 -215.7812 0.0000 0.0000
# 5 0.0000 0.0000 0.0000 0.0000 15.8381 0.0000
# 6 0.0000 0.0000 0.0000 0.0000 0.0000 20.5333
#
#
#
# Elastic Compliance Matrix: (Units=1/GPa)
#
#
# Indices 1 2 3 4 5 6 
#
# 1 0.013740 -0.005395 -0.004902 0.000000 0.000000 0.000000
# 2 -0.005395 0.030642 -0.009341 0.000000 0.000000 0.000000
# 3 -0.004902 -0.009341 0.013113 0.000000 0.000000 0.000000
# 4 0.000000 0.000000 0.000000 -0.004634 0.000000 0.000000
# 5 0.000000 0.000000 0.000000 0.000000 0.063139 0.000000
# 6 0.000000 0.000000 0.000000 0.000000 0.000000 0.048701
#
#
# Mechanical properties :
#
#
# Convention : Reuss Voigt Hill
#
# Bulk Modulus (GPa) = 54.88719 74.06611 64.47665
# Shear Modulus (GPa) = 23.80385 -26.27091 -1.23353
#
# Velocity S-wave (km/s) = 3.56050 -3.74046 -0.81052
# Velocity P-wave (km/s) = 6.79220 4.55966 5.78466
#
# Compressibility (1/GPa) = 0.01821919
#
# Stress axis : x y z
#
# Youngs Moduli (GPa) = 72.77904 32.63531 76.25883
#
# Poissons Ratio (x) = 0.17607 0.37384
# Poissons Ratio (y) = 0.39265 0.71231
# Poissons Ratio (z) = 0.35678 0.30484
#
# Static dielectric constant tensor:
#      x y z
#    x 3.459090 0.000000 0.000000 
#    y 0.000000 3.290540 0.000000 
#    z 0.000000 0.000000 3.532970 
# 
# 
# High freq. dielectric constant tensor:
#      x y z
#    x 1.746430 0.000000 0.000000 
#    y 0.000000 1.707950 0.000000 
#    z 0.000000 0.000000 1.728370 
# 
# From -- ./inp_files/33325.got.cif
#   From: 2010.03.12/outbox.cif.g09.slc.cpg/sg51_17_cif.got.tgz:33325.got - 2010.04.16 13:43:02.
