data_PCOD8207911
_publ_section_title
;
Structure prediction by ZEFSAII (Michael W. Deem and Ramdas Pophale) SiO2 
 PCOD8207911
Probable space group: P M M A
;
_chemical_formula_sum "Si O2"
_cell_formula_units_Z 56
_cell_length_a 24.520765
_cell_length_b 9.106288
_cell_length_c 15.881647
_cell_angle_alpha 90.000000
_cell_angle_beta 90.000000
_cell_angle_gamma 90.000000
_cell_volume 3546.262955
_symmetry_space_group_name_H-M "P M M A"
_symmetry_group_IT_number 51
_symmetry_cell_setting 'orthorhombic'
loop_
_space_group_symop_operation_xyz
x,y,z
1/2-x,-y,z
1/2+x,-y,-z
-x,y,-z
-x,-y,-z
1/2+x,y,-z
1/2-x,y,z
x,-y,z
loop_
_atom_site_type_symbol
_atom_site_label
_atom_site_fract_x
_atom_site_fract_y
_atom_site_fract_z
Si Si1 0.810907 0.326886 0.913374
Si Si2 0.087437 0.169859 0.020434
Si Si3 0.987611 0.828920 0.134930
Si Si4 0.400844 0.172813 0.377957
Si Si5 0.006493 0.673794 0.693245
Si Si6 0.056451 0.162003 0.549339
Si Si7 0.813159 0.333606 0.721589
O O1 0.750000 0.272344 0.938629
O O2 0.813959 0.500000 0.923377
O O3 0.855863 0.256108 0.973710
O O4 0.823347 0.282022 0.817204
O O5 0.044923 0.218781 0.092827
O O6 0.100788 0.000000 0.031351
O O7 0.061463 0.201541 0.929618
O O8 0.975739 0.728719 0.215197
O O9 0.989491 0.000000 0.160257
O O10 0.448365 0.257675 0.329203
O O11 0.399726 0.210661 0.478201
O O12 0.343572 0.223034 0.340517
O O13 0.410130 0.000000 0.363988
O O14 0.002221 0.500000 0.692061
O O15 0.052917 0.723907 0.626326
O O16 0.000000 0.155474 0.500000
O O17 0.070353 0.000000 0.585635
O O18 0.750000 0.324236 0.698633
O O19 0.834461 0.500000 0.709006
#
# Coordination Sequence:
#
# PCOD8207911 Si02
#       7
#     8   8   8   8   8   8   8
#     4   9  18  31  45  63  90 121 149 181 221 261
#     4   9  18  31  47  66  87 116 152 185 219 263
#     4   9  18  32  46  63  91 120 146 182 226 267
#     4  10  19  30  45  64  88 119 150 180 217 257
#     4  11  20  28  43  67  90 115 148 180 215 261
#     4   8  16  30  44  60  85 115 144 175 212 252
#     4   9  18  31  45  64  91 120 149 180 215 256
#
# _framework density 15.791271999999999
#
# number of rings (size 3 to 8) (size 9 to 14) (size 15 to 20)
#    0.000    2.714    0.000    5.143    0.000    7.714 
#    0.000    2.857    0.000    0.000    0.000    1.000 
#    0.000    8.000    0.000    0.000    0.000    0.000 
#
# Total GULP energy -694243.890931 kJ/mol
# GULP energy per Si atom -12397.212338 kJ/mol
# Density = 1.575533 g / cm^3
# Si number density = 15.791272 Si / 1000 Ang^3
#
#
#
# Elastic Constant Matrix: (Units=GPa)
#
#
# Indices 1 2 3 4 5 6 
#
# 1 81.6716 39.3963 41.9583 0.0000 0.0000 0.0000
# 2 39.3963 83.9339 54.5622 0.0000 0.0000 0.0000
# 3 41.9583 54.5622 94.3729 0.0000 0.0000 0.0000
# 4 0.0000 0.0000 0.0000 22.7560 0.0000 0.0000
# 5 0.0000 0.0000 0.0000 0.0000 22.8926 0.0000
# 6 0.0000 0.0000 0.0000 0.0000 0.0000 26.7007
#
#
#
# Elastic Compliance Matrix: (Units=1/GPa)
#
#
# Indices 1 2 3 4 5 6 
#
# 1 0.017052 -0.004927 -0.004733 0.000000 0.000000 0.000000
# 2 -0.004927 0.020512 -0.009668 0.000000 0.000000 0.000000
# 3 -0.004733 -0.009668 0.018290 0.000000 0.000000 0.000000
# 4 0.000000 0.000000 0.000000 0.043944 0.000000 0.000000
# 5 0.000000 0.000000 0.000000 0.000000 0.043682 0.000000
# 6 0.000000 0.000000 0.000000 0.000000 0.000000 0.037452
#
#
# Mechanical properties :
#
#
# Convention : Reuss Voigt Hill
#
# Bulk Modulus (GPa) = 58.14748 59.09024 58.61886
# Shear Modulus (GPa) = 22.19035 22.74063 22.46549
#
# Velocity S-wave (km/s) = 3.75270 3.79895 3.77590
# Velocity P-wave (km/s) = 7.46187 7.53283 7.49743
#
# Compressibility (1/GPa) = 0.01719765
#
# Stress axis : x y z
#
# Youngs Moduli (GPa) = 58.64273 48.75196 54.67381
#
# Poissons Ratio (x) = 0.24022 0.25876
# Poissons Ratio (y) = 0.28896 0.52861
# Poissons Ratio (z) = 0.27754 0.47135
#
# Static dielectric constant tensor:
#      x y z
#    x 2.902660 0.000000 0.000000 
#    y 0.000000 2.959320 0.000000 
#    z 0.000000 0.000000 3.080710 
# 
# 
# High freq. dielectric constant tensor:
#      x y z
#    x 1.580190 0.000000 0.000000 
#    y 0.000000 1.607450 0.000000 
#    z 0.000000 0.000000 1.598190 
# 
# From -- ./inp_files/30772.got.cif
#   From: 2010.03.12/outbox.cif.g09.slc.cpg/sg51_16_cif.got.tgz:30772.got - 2010.04.16 13:43:02.
