data_PCOD8207041
_publ_section_title
;
Structure prediction by ZEFSAII (Michael W. Deem and Ramdas Pophale) SiO2 
 PCOD8207041
Probable space group: P M M A
;
_chemical_formula_sum "Si O2"
_cell_formula_units_Z 48
_cell_length_a 17.363866
_cell_length_b 13.755717
_cell_length_c 12.107436
_cell_angle_alpha 90.000000
_cell_angle_beta 90.000000
_cell_angle_gamma 90.000000
_cell_volume 2891.890470
_symmetry_space_group_name_H-M "P M M A"
_symmetry_group_IT_number 51
_symmetry_cell_setting 'orthorhombic'
loop_
_space_group_symop_operation_xyz
x,y,z
1/2-x,-y,z
1/2+x,-y,-z
-x,y,-z
-x,-y,-z
1/2+x,y,-z
1/2-x,y,z
x,-y,z
loop_
_atom_site_type_symbol
_atom_site_label
_atom_site_fract_x
_atom_site_fract_y
_atom_site_fract_z
Si Si1 0.838718 0.744788 0.546433
Si Si2 0.414425 0.885920 0.303924
Si Si3 0.064294 0.221455 0.671066
Si Si4 0.465088 0.607370 0.379504
Si Si5 0.838161 0.888518 0.154278
Si Si6 0.924943 0.887617 0.942311
O O1 0.750000 0.717536 0.527312
O O2 0.845787 0.838603 0.625351
O O3 0.876895 0.771108 0.429707
O O4 0.880681 0.655015 0.607901
O O5 0.496814 0.855841 0.356797
O O6 0.409012 0.843112 0.178519
O O7 0.402663 0.000000 0.309864
O O8 0.109734 0.186655 0.778793
O O9 0.022452 0.325444 0.693711
O O10 0.500000 0.598816 0.500000
O O11 0.458021 0.500000 0.325296
O O12 0.750000 0.866163 0.180801
O O13 0.859494 0.000000 0.186567
O O14 0.852327 0.872639 0.023527
O O15 0.943669 0.000000 0.920917
O O16 0.000000 0.839414 0.000000
#
# Coordination Sequence:
#
# PCOD8207041 Si02
#       6
#     8   8   8   8   8   8
#     4  10  21  32  44  69 100 127 155 191 238 289
#     4  10  19  31  48  66  92 131 169 199 229 271
#     4  10  18  31  49  69  96 125 159 197 234 286
#     4   8  16  32  52  70  88 116 156 197 235 283
#     4  10  19  29  45  71 100 130 162 198 240 278
#     4   9  16  29  47  65  88 122 168 208 233 266
#
# _framework density 16.598137999999999
#
# number of rings (size 3 to 8) (size 9 to 14) (size 15 to 20)
#    0.000    2.500    1.667    2.500    0.000    3.333 
#    0.000    1.667    0.000    1.500    0.000    9.333 
#    0.000    0.000    0.000    0.000    0.000    0.000 
#
# Total GULP energy -594915.833022 kJ/mol
# GULP energy per Si atom -12394.079855 kJ/mol
# Density = 1.656036 g / cm^3
# Si number density = 16.598138 Si / 1000 Ang^3
#
#
#
# Elastic Constant Matrix: (Units=GPa)
#
#
# Indices 1 2 3 4 5 6 
#
# 1 96.6786 39.2664 41.7795 0.0000 0.0000 0.0000
# 2 39.2664 98.4067 38.3994 0.0000 0.0000 0.0000
# 3 41.7795 38.3994 63.6222 0.0000 0.0000 0.0000
# 4 0.0000 0.0000 0.0000 6.5713 0.0000 0.0000
# 5 0.0000 0.0000 0.0000 0.0000 23.4623 0.0000
# 6 0.0000 0.0000 0.0000 0.0000 0.0000 15.5598
#
#
#
# Elastic Compliance Matrix: (Units=1/GPa)
#
#
# Indices 1 2 3 4 5 6 
#
# 1 0.015011 -0.002803 -0.008165 0.000000 0.000000 0.000000
# 2 -0.002803 0.013816 -0.006498 0.000000 0.000000 0.000000
# 3 -0.008165 -0.006498 0.025002 0.000000 0.000000 0.000000
# 4 0.000000 0.000000 0.000000 0.152176 0.000000 0.000000
# 5 0.000000 0.000000 0.000000 0.000000 0.042622 0.000000
# 6 0.000000 0.000000 0.000000 0.000000 0.000000 0.064268
#
#
# Mechanical properties :
#
#
# Convention : Reuss Voigt Hill
#
# Bulk Modulus (GPa) = 52.92293 55.28867 54.10580
# Shear Modulus (GPa) = 14.11929 18.40285 16.26107
#
# Velocity S-wave (km/s) = 2.91976 3.33337 3.13340
# Velocity P-wave (km/s) = 6.58185 6.94245 6.76455
#
# Compressibility (1/GPa) = 0.01889540
#
# Stress axis : x y z
#
# Youngs Moduli (GPa) = 66.61875 72.37967 39.99759
#
# Poissons Ratio (x) = 0.20291 0.32659
# Poissons Ratio (y) = 0.18676 0.25989
# Poissons Ratio (z) = 0.54396 0.47030
#
# Static dielectric constant tensor:
#      x y z
#    x 3.075720 0.000000 0.000000 
#    y 0.000000 3.200270 0.000000 
#    z 0.000000 0.000000 3.129070 
# 
# 
# High freq. dielectric constant tensor:
#      x y z
#    x 1.639210 0.000000 0.000000 
#    y 0.000000 1.607250 0.000000 
#    z 0.000000 0.000000 1.629470 
# 
# From -- ./inp_files/17368.got.cif
#   From: 2010.03.12/outbox.cif.g09.slc.cpg/sg51_9_cif.got.tgz:17368.got - 2010.04.16 13:43:02.
