data_PCOD8207186
_publ_section_title
;
Structure prediction by ZEFSAII (Michael W. Deem and Ramdas Pophale) SiO2 
 PCOD8207186
Probable space group: P M M A
;
_chemical_formula_sum "Si O2"
_cell_formula_units_Z 64
_cell_length_a 17.623198
_cell_length_b 14.739988
_cell_length_c 12.733892
_cell_angle_alpha 90.000000
_cell_angle_beta 90.000000
_cell_angle_gamma 90.000000
_cell_volume 3307.828713
_symmetry_space_group_name_H-M "P M M A"
_symmetry_group_IT_number 51
_symmetry_cell_setting 'orthorhombic'
loop_
_space_group_symop_operation_xyz
x,y,z
1/2-x,-y,z
1/2+x,-y,-z
-x,y,-z
-x,-y,-z
1/2+x,y,-z
1/2-x,y,z
x,-y,z
loop_
_atom_site_type_symbol
_atom_site_label
_atom_site_fract_x
_atom_site_fract_y
_atom_site_fract_z
Si Si1 0.830579 0.601256 0.923117
Si Si2 0.068893 0.796663 0.312291
Si Si3 0.085304 0.099966 0.700785
Si Si4 0.947809 0.605189 0.752805
Si Si5 0.562418 0.332007 0.084998
Si Si6 0.163360 0.105668 0.487574
Si Si7 0.838756 0.160979 0.101059
Si Si8 0.838574 0.103728 0.863778
O O1 0.750000 0.656245 0.932183
O O2 0.809762 0.500000 0.896157
O O3 0.879388 0.637674 0.827267
O O4 0.877358 0.601827 0.030548
O O5 0.059562 0.686853 0.331515
O O6 0.107952 0.836241 0.414860
O O7 0.115207 0.825933 0.207997
O O8 0.984039 0.831170 0.295548
O O9 0.142288 0.127641 0.607296
O O10 0.134273 0.093000 0.807942
O O11 0.051688 0.000000 0.679020
O O12 0.940979 0.500000 0.710333
O O13 0.025859 0.613313 0.818160
O O14 0.610203 0.247878 0.126087
O O15 0.500000 0.299900 0.000000
O O16 0.250000 0.135661 0.467689
O O17 0.152816 0.000000 0.459961
O O18 0.750000 0.182611 0.112574
O O19 0.857007 0.122331 0.985785
O O20 0.750000 0.117522 0.840189
O O21 0.862474 0.000000 0.837940
#
# Coordination Sequence:
#
# PCOD8207186 Si02
#       8
#     8   8   8   8   8   8   8   8
#     4   9  17  29  48  75 106 145 194 244 289 334
#     4  12  22  37  60  89 116 149 198 243 293 343
#     4  11  23  39  60  87 118 152 192 239 283 340
#     4  10  21  36  54  78 114 150 188 241 300 349
#     4  10  18  32  50  75 109 150 199 238 283 329
#     4  10  22  41  65  90 116 148 188 237 292 345
#     4  11  22  35  54  83 120 163 198 231 278 342
#     4  10  21  35  53  83 126 168 199 233 285 350
#
# _framework density 19.348039
#
# number of rings (size 3 to 8) (size 9 to 14) (size 15 to 20)
#    0.000    1.625    1.250    4.875    0.000    6.750 
#    0.000    1.250    0.000    1.500    0.000    0.000 
#    0.000    0.000    0.000    0.000    0.000    0.000 
#
# Total GULP energy -793002.354899 kJ/mol
# GULP energy per Si atom -12390.661795 kJ/mol
# Density = 1.930400 g / cm^3
# Si number density = 19.348039 Si / 1000 Ang^3
#
#
#
# Elastic Constant Matrix: (Units=GPa)
#
#
# Indices 1 2 3 4 5 6 
#
# 1 90.3470 28.2441 15.2137 0.0000 0.0000 0.0000
# 2 28.2441 110.9620 25.6223 0.0000 0.0000 0.0000
# 3 15.2137 25.6223 79.5962 0.0000 0.0000 0.0000
# 4 0.0000 0.0000 0.0000 15.6171 0.0000 0.0000
# 5 0.0000 0.0000 0.0000 0.0000 37.2597 0.0000
# 6 0.0000 0.0000 0.0000 0.0000 0.0000 23.5388
#
#
#
# Elastic Compliance Matrix: (Units=1/GPa)
#
#
# Indices 1 2 3 4 5 6 
#
# 1 0.012175 -0.002767 -0.001436 0.000000 0.000000 0.000000
# 2 -0.002767 0.010365 -0.002808 0.000000 0.000000 0.000000
# 3 -0.001436 -0.002808 0.013742 0.000000 0.000000 0.000000
# 4 0.000000 0.000000 0.000000 0.064032 0.000000 0.000000
# 5 0.000000 0.000000 0.000000 0.000000 0.026839 0.000000
# 6 0.000000 0.000000 0.000000 0.000000 0.000000 0.042483
#
#
# Mechanical properties :
#
#
# Convention : Reuss Voigt Hill
#
# Bulk Modulus (GPa) = 44.92486 46.56283 45.74384
# Shear Modulus (GPa) = 26.16728 29.40481 27.78605
#
# Velocity S-wave (km/s) = 3.68156 3.90267 3.79372
# Velocity P-wave (km/s) = 6.42974 6.66528 6.54857
#
# Compressibility (1/GPa) = 0.02225939
#
# Stress axis : x y z
#
# Youngs Moduli (GPa) = 82.13247 96.48039 72.77128
#
# Poissons Ratio (x) = 0.26701 0.10452
# Poissons Ratio (y) = 0.22730 0.20431
# Poissons Ratio (z) = 0.11797 0.27087
#
# Static dielectric constant tensor:
#      x y z
#    x 1.267180 0.000000 0.000000 
#    y 0.000000 3.627220 0.000000 
#    z 0.000000 0.000000 3.348060 
# 
# 
# High freq. dielectric constant tensor:
#      x y z
#    x 1.769130 0.000000 0.000000 
#    y 0.000000 1.748680 0.000000 
#    z 0.000000 0.000000 1.725990 
# 
# From -- ./inp_files/17608.got.cif
#   From: 2010.03.12/outbox.cif.g09.slc.cpg/sg51_9_cif.got.tgz:17608.got - 2010.04.16 13:43:02.
