data_PCOD8207459
_publ_section_title
;
Structure prediction by ZEFSAII (Michael W. Deem and Ramdas Pophale) SiO2 
 PCOD8207459
Probable space group: P M M A
;
_chemical_formula_sum "Si O2"
_cell_formula_units_Z 56
_cell_length_a 18.455333
_cell_length_b 16.654537
_cell_length_c 9.780713
_cell_angle_alpha 90.000000
_cell_angle_beta 90.000000
_cell_angle_gamma 90.000000
_cell_volume 3006.249108
_symmetry_space_group_name_H-M "P M M A"
_symmetry_group_IT_number 51
_symmetry_cell_setting 'orthorhombic'
loop_
_space_group_symop_operation_xyz
x,y,z
1/2-x,-y,z
1/2+x,-y,-z
-x,y,-z
-x,-y,-z
1/2+x,y,-z
1/2-x,y,z
x,-y,z
loop_
_atom_site_type_symbol
_atom_site_label
_atom_site_fract_x
_atom_site_fract_y
_atom_site_fract_z
Si Si1 0.836020 0.912534 0.677125
Si Si2 0.165533 0.260548 0.251566
Si Si3 0.167254 0.763084 0.786583
Si Si4 0.913633 0.331791 0.994489
Si Si5 0.331069 0.349180 0.529233
Si Si6 0.834702 0.088466 0.372609
Si Si7 0.428197 0.500000 0.909231
Si Si8 0.427518 0.500000 0.584200
O O1 0.750000 0.912533 0.664956
O O2 0.859365 0.833544 0.763064
O O3 0.868826 0.905011 0.524082
O O4 0.860967 0.000000 0.739879
O O5 0.250000 0.270575 0.211634
O O6 0.150686 0.288599 0.406115
O O7 0.115708 0.316992 0.157723
O O8 0.250000 0.773378 0.837133
O O9 0.118663 0.738678 0.913914
O O10 0.161437 0.697456 0.669733
O O11 0.132516 0.846244 0.731059
O O12 0.885147 0.418860 0.048723
O O13 0.000000 0.327899 0.000000
O O14 0.250000 0.383304 0.511820
O O15 0.385113 0.422583 0.533808
O O16 0.750000 0.108288 0.384931
O O17 0.848830 0.000000 0.311252
O O18 0.443135 0.500000 0.746793
O O19 0.500000 0.500000 0.000000
O O20 0.500000 0.500000 0.500000
#
# Coordination Sequence:
#
# PCOD8207459 Si02
#       8
#     8   8   8   8   8   8   4   4
#     4   8  13  25  50  83 114 142 175 222 277 325
#     4  10  20  36  57  86 115 145 181 227 279 331
#     4  10  18  34  57  84 112 143 180 225 275 328
#     4  11  24  40  58  75 108 150 189 228 270 328
#     4  10  21  36  57  86 117 139 174 235 287 324
#     4   8  13  24  49  84 115 141 174 222 275 323
#     4  10  24  43  55  77 108 144 186 230 273 320
#     4  12  25  39  63  85 108 148 191 230 275 327
#
# _framework density 18.627863999999999
#
# number of rings (size 3 to 8) (size 9 to 14) (size 15 to 20)
#    0.000    2.286    2.857    1.500    4.000    0.000 
#    0.000    2.857    0.000    5.143    0.000    2.000 
#    0.000    0.000    0.000    0.000    0.000    0.000 
#
# Total GULP energy -694004.538481 kJ/mol
# GULP energy per Si atom -12392.938187 kJ/mol
# Density = 1.858547 g / cm^3
# Si number density = 18.627864 Si / 1000 Ang^3
#
#
#
# Elastic Constant Matrix: (Units=GPa)
#
#
# Indices 1 2 3 4 5 6 
#
# 1 55.7270 32.9615 22.1166 0.0000 0.0000 0.0000
# 2 32.9615 124.6116 23.0004 0.0000 0.0000 0.0000
# 3 22.1166 23.0004 64.6398 0.0000 0.0000 0.0000
# 4 0.0000 0.0000 0.0000 22.9507 0.0000 0.0000
# 5 0.0000 0.0000 0.0000 0.0000 27.1647 0.0000
# 6 0.0000 0.0000 0.0000 0.0000 0.0000 8.3187
#
#
#
# Elastic Compliance Matrix: (Units=1/GPa)
#
#
# Indices 1 2 3 4 5 6 
#
# 1 0.023391 -0.005041 -0.006209 0.000000 0.000000 0.000000
# 2 -0.005041 0.009675 -0.001718 0.000000 0.000000 0.000000
# 3 -0.006209 -0.001718 0.018206 0.000000 0.000000 0.000000
# 4 0.000000 0.000000 0.000000 0.043572 0.000000 0.000000
# 5 0.000000 0.000000 0.000000 0.000000 0.036812 0.000000
# 6 0.000000 0.000000 0.000000 0.000000 0.000000 0.120211
#
#
# Mechanical properties :
#
#
# Convention : Reuss Voigt Hill
#
# Bulk Modulus (GPa) = 39.47035 44.57059 42.02047
# Shear Modulus (GPa) = 17.46731 22.81350 20.14040
#
# Velocity S-wave (km/s) = 3.06551 3.50336 3.29172
# Velocity P-wave (km/s) = 5.81074 6.35166 6.08721
#
# Compressibility (1/GPa) = 0.02533547
#
# Stress axis : x y z
#
# Youngs Moduli (GPa) = 42.75211 103.35439 54.92634
#
# Poissons Ratio (x) = 0.52101 0.34106
# Poissons Ratio (y) = 0.21551 0.09436
# Poissons Ratio (z) = 0.26547 0.17756
#
# Static dielectric constant tensor:
#      x y z
#    x 3.031940 0.000000 0.000000 
#    y 0.000000 3.972800 0.000000 
#    z 0.000000 0.000000 3.321950 
# 
# 
# High freq. dielectric constant tensor:
#      x y z
#    x 1.674910 0.000000 0.000000 
#    y 0.000000 1.744090 0.000000 
#    z 0.000000 0.000000 1.713740 
# 
# From -- ./inp_files/11048.got.cif
#   From: 2010.03.12/outbox.cif.g09.slc.cpg/sg51_6_cif.got.tgz:11048.got - 2010.04.16 13:43:02.
