data_PCOD8207211
_publ_section_title
;
Structure prediction by ZEFSAII (Michael W. Deem and Ramdas Pophale) SiO2 
 PCOD8207211
Probable space group: P M M A
;
_chemical_formula_sum "Si O2"
_cell_formula_units_Z 64
_cell_length_a 18.766052
_cell_length_b 14.114855
_cell_length_c 15.104916
_cell_angle_alpha 90.000000
_cell_angle_beta 90.000000
_cell_angle_gamma 90.000000
_cell_volume 4000.991704
_symmetry_space_group_name_H-M "P M M A"
_symmetry_group_IT_number 51
_symmetry_cell_setting 'orthorhombic'
loop_
_space_group_symop_operation_xyz
x,y,z
1/2-x,-y,z
1/2+x,-y,-z
-x,y,-z
-x,-y,-z
1/2+x,y,-z
1/2-x,y,z
x,-y,z
loop_
_atom_site_type_symbol
_atom_site_label
_atom_site_fract_x
_atom_site_fract_y
_atom_site_fract_z
Si Si1 0.419599 0.784024 0.310042
Si Si2 0.941437 0.112013 0.867952
Si Si3 0.666299 0.607608 0.637191
Si Si4 0.415041 0.773159 0.648658
Si Si5 0.410003 0.108178 0.943623
Si Si6 0.416145 0.894467 0.483994
Si Si7 0.923933 0.393763 0.464328
Si Si8 0.168820 0.893960 0.778711
O O1 0.407248 0.835759 0.216528
O O2 0.378431 0.683094 0.304558
O O3 0.502794 0.775265 0.326977
O O4 0.390358 0.845278 0.392858
O O5 0.022957 0.145827 0.885529
O O6 0.934735 0.000000 0.848729
O O7 0.899884 0.149110 0.956966
O O8 0.750000 0.633478 0.637810
O O9 0.654395 0.500000 0.673583
O O10 0.637072 0.613098 0.537569
O O11 0.386782 0.837188 0.567510
O O12 0.397929 0.665261 0.620877
O O13 0.371636 0.808252 0.732591
O O14 0.339452 0.122606 0.884557
O O15 0.428952 0.000000 0.962617
O O16 0.500000 0.898095 0.500000
O O17 0.383846 0.000000 0.483742
O O18 0.937030 0.500000 0.431283
O O19 0.000000 0.351596 0.500000
O O20 0.250000 0.888331 0.751556
O O21 0.138334 0.000000 0.755004
#
# Coordination Sequence:
#
# PCOD8207211 Si02
#       8
#     8   8   8   8   8   8   8   8
#     4  11  18  29  49  73  97 129 165 206 246 287
#     4   9  16  27  49  75  98 126 165 211 248 286
#     4  10  21  36  52  70  96 130 166 208 256 302
#     4  11  18  29  46  72  98 129 168 204 238 286
#     4   8  15  29  46  70  99 128 165 208 250 286
#     4   9  17  26  39  64  98 129 158 189 226 275
#     4  10  18  32  52  73  96 125 166 211 251 289
#     4  10  20  32  47  70 103 138 168 202 245 294
#
# _framework density 15.996034
#
# number of rings (size 3 to 8) (size 9 to 14) (size 15 to 20)
#    0.000    2.250    3.750    1.875    0.000    1.500 
#    0.000    0.625    0.000    2.250    0.000    2.625 
#    0.000    0.000    0.000    0.000    0.000    0.000 
#
# Total GULP energy -792880.425947 kJ/mol
# GULP energy per Si atom -12388.756655 kJ/mol
# Density = 1.595963 g / cm^3
# Si number density = 15.996034 Si / 1000 Ang^3
#
#
#
# Elastic Constant Matrix: (Units=GPa)
#
#
# Indices 1 2 3 4 5 6 
#
# 1 57.4452 32.7285 28.7767 0.0000 0.0000 0.0000
# 2 32.7285 95.5497 49.0383 0.0000 0.0000 0.0000
# 3 28.7767 49.0383 101.1026 0.0000 0.0000 0.0000
# 4 0.0000 0.0000 0.0000 15.2602 0.0000 0.0000
# 5 0.0000 0.0000 0.0000 0.0000 15.7801 0.0000
# 6 0.0000 0.0000 0.0000 0.0000 0.0000 20.5429
#
#
#
# Elastic Compliance Matrix: (Units=1/GPa)
#
#
# Indices 1 2 3 4 5 6 
#
# 1 0.022551 -0.005898 -0.003558 0.000000 0.000000 0.000000
# 2 -0.005898 0.015477 -0.005828 0.000000 0.000000 0.000000
# 3 -0.003558 -0.005828 0.013730 0.000000 0.000000 0.000000
# 4 0.000000 0.000000 0.000000 0.065530 0.000000 0.000000
# 5 0.000000 0.000000 0.000000 0.000000 0.063371 0.000000
# 6 0.000000 0.000000 0.000000 0.000000 0.000000 0.048679
#
#
# Mechanical properties :
#
#
# Convention : Reuss Voigt Hill
#
# Bulk Modulus (GPa) = 47.19224 52.79829 49.99526
# Shear Modulus (GPa) = 18.72876 19.88692 19.30784
#
# Velocity S-wave (km/s) = 3.42546 3.52979 3.47802
# Velocity P-wave (km/s) = 6.72395 7.04921 6.88850
#
# Compressibility (1/GPa) = 0.02118992
#
# Stress axis : x y z
#
# Youngs Moduli (GPa) = 44.34481 64.61094 72.83096
#
# Poissons Ratio (x) = 0.38110 0.25911
# Poissons Ratio (y) = 0.26156 0.42447
# Poissons Ratio (z) = 0.15776 0.37656
#
# Static dielectric constant tensor:
#      x y z
#    x 2.844710 0.000000 0.000000 
#    y 0.000000 3.076450 0.000000 
#    z 0.000000 0.000000 3.073430 
# 
# 
# High freq. dielectric constant tensor:
#      x y z
#    x 1.588940 0.000000 0.000000 
#    y 0.000000 1.597910 0.000000 
#    z 0.000000 0.000000 1.605240 
# 
# From -- ./inp_files/25363.got.cif
#   From: 2010.03.12/outbox.cif.g09.slc.cpg/sg51_13_cif.got.tgz:25363.got - 2010.04.16 13:43:02.
