data_PCOD8207394
_publ_section_title
;
Structure prediction by ZEFSAII (Michael W. Deem and Ramdas Pophale) SiO2 
 PCOD8207394
Probable space group: P M M A
;
_chemical_formula_sum "Si O2"
_cell_formula_units_Z 64
_cell_length_a 14.651111
_cell_length_b 8.923054
_cell_length_c 26.259423
_cell_angle_alpha 90.000000
_cell_angle_beta 90.000000
_cell_angle_gamma 90.000000
_cell_volume 3432.964077
_symmetry_space_group_name_H-M "P M M A"
_symmetry_group_IT_number 51
_symmetry_cell_setting 'orthorhombic'
loop_
_space_group_symop_operation_xyz
x,y,z
1/2-x,-y,z
1/2+x,-y,-z
-x,y,-z
-x,-y,-z
1/2+x,y,-z
1/2-x,y,z
x,-y,z
loop_
_atom_site_type_symbol
_atom_site_label
_atom_site_fract_x
_atom_site_fract_y
_atom_site_fract_z
Si Si1 0.650091 0.324502 0.105512
Si Si2 0.354014 0.832739 0.107048
Si Si3 0.144843 0.322248 0.629055
Si Si4 0.107151 0.667740 0.004232
Si Si5 0.355010 0.677563 0.371963
Si Si6 0.499562 0.174041 0.559706
Si Si7 0.500904 0.323383 0.710028
Si Si8 0.492861 0.321614 0.176616
O O1 0.750000 0.292124 0.128274
O O2 0.629177 0.500000 0.100403
O O3 0.577631 0.253841 0.144506
O O4 0.643461 0.258425 0.048368
O O5 0.250000 0.836125 0.123955
O O6 0.361756 0.770853 0.050175
O O7 0.401630 0.727633 0.148385
O O8 0.395973 0.000000 0.108190
O O9 0.250000 0.266708 0.631852
O O10 0.140454 0.500000 0.621985
O O11 0.090989 0.272336 0.680359
O O12 0.092709 0.248588 0.581515
O O13 0.146929 0.500000 0.012720
O O14 0.000000 0.660000 0.000000
O O15 0.250000 0.733251 0.369374
O O16 0.359622 0.500000 0.379555
O O17 0.407482 0.752881 0.418992
O O18 0.408005 0.726566 0.320413
O O19 0.500000 0.201878 0.500000
O O20 0.498884 0.000000 0.574113
O O21 0.500041 0.500000 0.715452
O O22 0.502917 0.252109 0.766486
O O23 0.496093 0.500000 0.178755
#
# Coordination Sequence:
#
# PCOD8207394 Si02
#       8
#     8   8   8   8   8   8   8   8
#     4   9  17  29  48  76 104 126 155 201 252 300
#     4  11  24  38  51  72 103 137 172 210 255 306
#     4   9  18  34  56  81 108 140 178 218 263 315
#     4  10  18  33  56  77  98 127 167 209 250 304
#     4   9  18  34  55  78 104 136 177 222 266 313
#     4  10  21  35  51  76 111 146 180 219 260 306
#     4   8  16  31  53  79 105 131 166 215 262 306
#     4  10  19  34  55  78 103 133 169 209 256 307
#
# _framework density 18.642782
#
# number of rings (size 3 to 8) (size 9 to 14) (size 15 to 20)
#    0.000    2.500    1.250    1.875    0.000    4.750 
#    0.000    8.750    0.000    0.375    0.000    0.000 
#    0.000    0.000    0.000    0.000    0.000    0.000 
#
# Total GULP energy -793380.662772 kJ/mol
# GULP energy per Si atom -12396.572856 kJ/mol
# Density = 1.860035 g / cm^3
# Si number density = 18.642782 Si / 1000 Ang^3
#
#
#
# Elastic Constant Matrix: (Units=GPa)
#
#
# Indices 1 2 3 4 5 6 
#
# 1 152.8565 28.1807 69.1684 0.0000 0.0000 0.0000
# 2 28.1807 32.2707 31.5370 0.0000 0.0000 0.0000
# 3 69.1684 31.5370 147.4679 0.0000 0.0000 0.0000
# 4 0.0000 0.0000 0.0000 9.0328 0.0000 0.0000
# 5 0.0000 0.0000 0.0000 0.0000 7.3016 0.0000
# 6 0.0000 0.0000 0.0000 0.0000 0.0000 18.5294
#
#
#
# Elastic Compliance Matrix: (Units=1/GPa)
#
#
# Indices 1 2 3 4 5 6 
#
# 1 0.008819 -0.004626 -0.003147 0.000000 0.000000 0.000000
# 2 -0.004626 0.041601 -0.006727 0.000000 0.000000 0.000000
# 3 -0.003147 -0.006727 0.009696 0.000000 0.000000 0.000000
# 4 0.000000 0.000000 0.000000 0.110707 0.000000 0.000000
# 5 0.000000 0.000000 0.000000 0.000000 0.136957 0.000000
# 6 0.000000 0.000000 0.000000 0.000000 0.000000 0.053968
#
#
# Mechanical properties :
#
#
# Convention : Reuss Voigt Hill
#
# Bulk Modulus (GPa) = 32.13741 65.59638 48.86689
# Shear Modulus (GPa) = 12.46508 20.55337 16.50922
#
# Velocity S-wave (km/s) = 2.58859 3.32397 2.97906
# Velocity P-wave (km/s) = 5.11960 7.07064 6.17270
#
# Compressibility (1/GPa) = 0.03111639
#
# Stress axis : x y z
#
# Youngs Moduli (GPa) = 113.39137 24.03766 103.13552
#
# Poissons Ratio (x) = 0.11119 0.32459
# Poissons Ratio (y) = 0.52450 0.69381
# Poissons Ratio (z) = 0.35687 0.16170
#
# Static dielectric constant tensor:
#      x y z
#    x 3.575170 0.000000 0.000000 
#    y 0.000000 3.154390 0.000000 
#    z 0.000000 0.000000 3.665900 
# 
# 
# High freq. dielectric constant tensor:
#      x y z
#    x 1.733100 0.000000 0.000000 
#    y 0.000000 1.688540 0.000000 
#    z 0.000000 0.000000 1.724610 
# 
# From -- ./inp_files/35850.got.cif
#   From: 2010.03.12/outbox.cif.g09.slc.cpg/sg51_18_cif.got.tgz:35850.got - 2010.04.16 13:43:02.
