data_PCOD8207628
_publ_section_title
;
Structure prediction by ZEFSAII (Michael W. Deem and Ramdas Pophale) SiO2 
 PCOD8207628
Probable space group: P M M A
;
_chemical_formula_sum "Si O2"
_cell_formula_units_Z 48
_cell_length_a 9.024421
_cell_length_b 15.355016
_cell_length_c 25.647533
_cell_angle_alpha 90.000000
_cell_angle_beta 90.000000
_cell_angle_gamma 90.000000
_cell_volume 3553.981952
_symmetry_space_group_name_H-M "P M M A"
_symmetry_group_IT_number 51
_symmetry_cell_setting 'orthorhombic'
loop_
_space_group_symop_operation_xyz
x,y,z
1/2-x,-y,z
1/2+x,-y,-z
-x,y,-z
-x,-y,-z
1/2+x,y,-z
1/2-x,y,z
x,-y,z
loop_
_atom_site_type_symbol
_atom_site_label
_atom_site_fract_x
_atom_site_fract_y
_atom_site_fract_z
Si Si1 0.923782 0.905404 0.444138
Si Si2 0.082901 0.396114 0.153412
Si Si3 0.582862 0.603830 0.051123
Si Si4 0.577626 0.599244 0.641706
Si Si5 0.083205 0.603681 0.744915
Si Si6 0.074951 0.738076 0.444082
O O1 0.750000 0.885233 0.450167
O O2 0.000000 0.910114 0.500000
O O3 0.005295 0.824399 0.415692
O O4 0.947273 0.000000 0.416057
O O5 0.250000 0.360700 0.152189
O O6 0.080604 0.500000 0.153640
O O7 0.998547 0.360193 0.102546
O O8 0.003823 0.358953 0.205102
O O9 0.750000 0.639473 0.050868
O O10 0.581487 0.500000 0.051043
O O11 0.500000 0.639949 0.000000
O O12 0.750000 0.605681 0.655132
O O13 0.530794 0.500000 0.629360
O O14 0.491944 0.636887 0.691794
O O15 0.535138 0.655681 0.591487
O O16 0.250000 0.639371 0.747070
O O17 0.079222 0.500000 0.746356
O O18 0.250000 0.750036 0.450858
O O19 0.000000 0.721919 0.500000
#
# Coordination Sequence:
#
# PCOD8207628 Si02
#       6
#     8   8   8   8   8   8
#     4   9  16  26  41  59  77  95 113 135 165 202
#     4   9  15  22  32  44  58  77 100 128 164 204
#     4   9  15  21  28  39  56  76  98 125 159 201
#     4   9  18  31  42  52  69  93 119 146 177 212
#     4   9  16  25  37  51  63  78 105 140 174 205
#     4  10  19  29  42  58  75  95 117 142 173 210
#
# _framework density 13.505978000000001
#
# number of rings (size 3 to 8) (size 9 to 14) (size 15 to 20)
#    0.000    2.833    0.000    3.500    0.000    8.667 
#    0.000    0.000    0.000    0.000    0.000    0.000 
#    0.000    0.000    0.000    0.000    0.000    0.000 
#
# Total GULP energy -594886.023228 kJ/mol
# GULP energy per Si atom -12393.458817 kJ/mol
# Density = 1.347524 g / cm^3
# Si number density = 13.505978 Si / 1000 Ang^3
#
#
#
# Elastic Constant Matrix: (Units=GPa)
#
#
# Indices 1 2 3 4 5 6 
#
# 1 113.1441 30.0532 60.6700 0.0000 0.0000 0.0000
# 2 30.0532 46.3274 33.7588 0.0000 0.0000 0.0000
# 3 60.6700 33.7588 100.4309 0.0000 0.0000 0.0000
# 4 0.0000 0.0000 0.0000 0.4593 0.0000 0.0000
# 5 0.0000 0.0000 0.0000 0.0000 26.3482 0.0000
# 6 0.0000 0.0000 0.0000 0.0000 0.0000 12.4761
#
#
#
# Elastic Compliance Matrix: (Units=1/GPa)
#
#
# Indices 1 2 3 4 5 6 
#
# 1 0.013545 -0.003741 -0.006925 0.000000 0.000000 0.000000
# 2 -0.003741 0.029621 -0.007697 0.000000 0.000000 0.000000
# 3 -0.006925 -0.007697 0.016728 0.000000 0.000000 0.000000
# 4 0.000000 0.000000 0.000000 2.177183 0.000000 0.000000
# 5 0.000000 0.000000 0.000000 0.000000 0.037953 0.000000
# 6 0.000000 0.000000 0.000000 0.000000 0.000000 0.080153
#
#
# Mechanical properties :
#
#
# Convention : Reuss Voigt Hill
#
# Bulk Modulus (GPa) = 43.16257 56.54072 49.85164
# Shear Modulus (GPa) = 2.08365 16.88474 9.48420
#
# Velocity S-wave (km/s) = 1.24343 3.53961 2.65282
# Velocity P-wave (km/s) = 5.83858 7.65895 6.80986
#
# Compressibility (1/GPa) = 0.02316822
#
# Stress axis : x y z
#
# Youngs Moduli (GPa) = 73.82603 33.75997 59.77998
#
# Poissons Ratio (x) = 0.12628 0.41400
# Poissons Ratio (y) = 0.27615 0.46013
# Poissons Ratio (z) = 0.51127 0.25985
#
# Static dielectric constant tensor:
#      x y z
#    x 2.904480 0.000000 0.000000 
#    y 0.000000 2.595960 0.000000 
#    z 0.000000 0.000000 2.669290 
# 
# 
# High freq. dielectric constant tensor:
#      x y z
#    x 1.536450 0.000000 0.000000 
#    y 0.000000 1.448200 0.000000 
#    z 0.000000 0.000000 1.502420 
# 
# From -- ./inp_files/34638.got.cif
#   From: 2010.03.12/outbox.cif.g09.slc.cpg/sg51_18_cif.got.tgz:34638.got - 2010.04.16 13:43:02.
