data_PCOD8207297
_publ_section_title
;
Structure prediction by ZEFSAII (Michael W. Deem and Ramdas Pophale) SiO2 
 PCOD8207297
Probable space group: P M M A
;
_chemical_formula_sum "Si O2"
_cell_formula_units_Z 48
_cell_length_a 9.281936
_cell_length_b 14.257211
_cell_length_c 20.716860
_cell_angle_alpha 90.000000
_cell_angle_beta 90.000000
_cell_angle_gamma 90.000000
_cell_volume 2741.555725
_symmetry_space_group_name_H-M "P M M A"
_symmetry_group_IT_number 51
_symmetry_cell_setting 'orthorhombic'
loop_
_space_group_symop_operation_xyz
x,y,z
1/2-x,-y,z
1/2+x,-y,-z
-x,y,-z
-x,-y,-z
1/2+x,y,-z
1/2-x,y,z
x,-y,z
loop_
_atom_site_type_symbol
_atom_site_label
_atom_site_fract_x
_atom_site_fract_y
_atom_site_fract_z
Si Si1 0.578763 0.605148 0.690558
Si Si2 0.420476 0.724734 0.187440
Si Si3 0.418069 0.607499 0.063270
Si Si4 0.918036 0.893064 0.236293
Si Si5 0.914005 0.104797 0.633661
Si Si6 0.917047 0.288590 0.563610
O O1 0.750000 0.602917 0.692089
O O2 0.515913 0.500000 0.695549
O O3 0.523386 0.665521 0.751109
O O4 0.524289 0.651758 0.624196
O O5 0.250000 0.740956 0.190085
O O6 0.467641 0.669755 0.123488
O O7 0.500327 0.825003 0.186424
O O8 0.250000 0.618371 0.049899
O O9 0.458765 0.500000 0.078899
O O10 0.500000 0.643967 0.000000
O O11 0.750000 0.869011 0.237438
O O12 0.979894 0.875827 0.307480
O O13 0.945909 0.000000 0.214116
O O14 0.750000 0.119520 0.658931
O O15 0.946854 0.178436 0.576938
O O16 0.935957 0.000000 0.605702
O O17 0.750000 0.308955 0.551787
O O18 0.000000 0.320995 0.500000
#
# Coordination Sequence:
#
# PCOD8207297 Si02
#       6
#     8   8   8   8   8   8
#     4   9  17  31  51  73  96 125 166 211 250 291
#     4  10  18  32  55  79 101 133 174 209 243 291
#     4   9  18  32  52  80 112 143 173 206 247 296
#     4  10  20  32  49  76 106 132 160 203 259 306
#     4   9  17  32  52  71  93 124 165 208 250 304
#     4  10  20  33  48  69  95 129 166 205 254 302
#
# _framework density 17.508306999999999
#
# number of rings (size 3 to 8) (size 9 to 14) (size 15 to 20)
#    0.000    2.500    1.667    1.000    0.000    5.000 
#    0.000    0.000    0.000    3.000    0.000    0.000 
#    0.000    0.000    0.000    0.000    0.000    0.000 
#
# Total GULP energy -595205.297342 kJ/mol
# GULP energy per Si atom -12400.110361 kJ/mol
# Density = 1.746846 g / cm^3
# Si number density = 17.508307 Si / 1000 Ang^3
#
#
#
# Elastic Constant Matrix: (Units=GPa)
#
#
# Indices 1 2 3 4 5 6 
#
# 1 51.6009 40.0872 46.8651 0.0000 0.0000 0.0000
# 2 40.0872 108.2284 62.7380 0.0000 0.0000 0.0000
# 3 46.8651 62.7380 135.1431 0.0000 0.0000 0.0000
# 4 0.0000 0.0000 0.0000 28.3257 0.0000 0.0000
# 5 0.0000 0.0000 0.0000 0.0000 28.2824 0.0000
# 6 0.0000 0.0000 0.0000 0.0000 0.0000 20.5167
#
#
#
# Elastic Compliance Matrix: (Units=1/GPa)
#
#
# Indices 1 2 3 4 5 6 
#
# 1 0.032153 -0.007451 -0.007691 0.000000 0.000000 0.000000
# 2 -0.007451 0.014368 -0.004086 0.000000 0.000000 0.000000
# 3 -0.007691 -0.004086 0.011964 0.000000 0.000000 0.000000
# 4 0.000000 0.000000 0.000000 0.035304 0.000000 0.000000
# 5 0.000000 0.000000 0.000000 0.000000 0.035358 0.000000
# 6 0.000000 0.000000 0.000000 0.000000 0.000000 0.048741
#
#
# Mechanical properties :
#
#
# Convention : Reuss Voigt Hill
#
# Bulk Modulus (GPa) = 49.92947 66.03924 57.98435
# Shear Modulus (GPa) = 22.41947 25.11044 23.76495
#
# Velocity S-wave (km/s) = 3.58230 3.79119 3.68822
# Velocity P-wave (km/s) = 6.75943 7.54751 7.16432
#
# Compressibility (1/GPa) = 0.02002825
#
# Stress axis : x y z
#
# Youngs Moduli (GPa) = 31.10114 69.59753 83.58584
#
# Poissons Ratio (x) = 0.51857 0.64287
# Poissons Ratio (y) = 0.23173 0.34157
# Poissons Ratio (z) = 0.23920 0.28440
#
# Static dielectric constant tensor:
#      x y z
#    x 3.057040 0.000000 0.000000 
#    y 0.000000 3.503020 0.000000 
#    z 0.000000 0.000000 3.104610 
# 
# 
# High freq. dielectric constant tensor:
#      x y z
#    x 1.655140 0.000000 0.000000 
#    y 0.000000 1.684870 0.000000 
#    z 0.000000 0.000000 1.658350 
# 
# From -- ./inp_files/27577.got.cif
#   From: 2010.03.12/outbox.cif.g09.slc.cpg/sg51_14_cif.got.tgz:27577.got - 2010.04.16 13:43:02.
