data_PCOD8207068
_publ_section_title
;
Structure prediction by ZEFSAII (Michael W. Deem and Ramdas Pophale) SiO2 
 PCOD8207068
Probable space group: P M M A
;
_chemical_formula_sum "Si O2"
_cell_formula_units_Z 64
_cell_length_a 9.009750
_cell_length_b 20.175568
_cell_length_c 19.615430
_cell_angle_alpha 90.000000
_cell_angle_beta 90.000000
_cell_angle_gamma 90.000000
_cell_volume 3565.630563
_symmetry_space_group_name_H-M "P M M A"
_symmetry_group_IT_number 51
_symmetry_cell_setting 'orthorhombic'
loop_
_space_group_symop_operation_xyz
x,y,z
1/2-x,-y,z
1/2+x,-y,-z
-x,y,-z
-x,-y,-z
1/2+x,y,-z
1/2-x,y,z
x,-y,z
loop_
_atom_site_type_symbol
_atom_site_label
_atom_site_fract_x
_atom_site_fract_y
_atom_site_fract_z
Si Si1 0.416677 0.725120 0.066097
Si Si2 0.423826 0.314404 0.652971
Si Si3 0.424097 0.881657 0.797839
Si Si4 0.425818 0.195240 0.426797
Si Si5 0.922710 0.422828 0.570369
Si Si6 0.919999 0.270007 0.198386
Si Si7 0.418173 0.883123 0.066702
Si Si8 0.419040 0.925952 0.333703
O O1 0.250000 0.698819 0.062961
O O2 0.488381 0.698262 0.136091
O O3 0.425984 0.804069 0.065816
O O4 0.500000 0.696033 0.000000
O O5 0.250000 0.310356 0.634340
O O6 0.509389 0.254527 0.617692
O O7 0.494583 0.383664 0.630042
O O8 0.448680 0.312409 0.734006
O O9 0.250000 0.891704 0.806109
O O10 0.469059 0.805233 0.786377
O O11 0.501170 0.910308 0.865778
O O12 0.479072 0.921906 0.732747
O O13 0.500000 0.196318 0.500000
O O14 0.250000 0.204320 0.434213
O O15 0.469625 0.125912 0.391282
O O16 0.750000 0.403344 0.566464
O O17 0.944715 0.500000 0.585850
O O18 0.000000 0.402037 0.500000
O O19 0.750000 0.271150 0.175362
O O20 0.250000 0.908892 0.066434
O O21 0.500000 0.911878 0.000000
O O22 0.250000 0.910936 0.311646
O O23 0.435206 0.000000 0.364338
#
# Coordination Sequence:
#
# PCOD8207068 Si02
#       8
#     8   8   8   8   8   8   8   8
#     4   9  16  25  40  63  95 133 170 207 250 300
#     4  11  21  35  55  80 110 141 175 215 259 306
#     4  10  18  31  50  72  98 128 165 208 255 308
#     4  11  23  38  57  78 103 132 167 211 261 314
#     4  10  21  37  56  79 108 143 181 218 257 305
#     4   9  18  30  46  70 101 133 167 210 255 301
#     4   9  16  26  42  67  96 128 164 203 249 300
#     4  10  22  39  56  74  97 128 167 212 262 316
#
# _framework density 17.94914
#
# number of rings (size 3 to 8) (size 9 to 14) (size 15 to 20)
#    0.000    2.125    1.250    2.625    0.000    6.250 
#    0.000    0.000    0.000    0.375    0.000    0.000 
#    0.000    0.500    0.000    1.625    0.000    2.375 
#
# Total GULP energy -793726.066146 kJ/mol
# GULP energy per Si atom -12401.969784 kJ/mol
# Density = 1.790829 g / cm^3
# Si number density = 17.949140 Si / 1000 Ang^3
#
#
#
# Elastic Constant Matrix: (Units=GPa)
#
#
# Indices 1 2 3 4 5 6 
#
# 1 117.9816 32.4847 64.6819 0.0000 0.0000 0.0000
# 2 32.4847 55.3386 34.6042 0.0000 0.0000 0.0000
# 3 64.6819 34.6042 115.9134 0.0000 0.0000 0.0000
# 4 0.0000 0.0000 0.0000 12.0106 0.0000 0.0000
# 5 0.0000 0.0000 0.0000 0.0000 35.6154 0.0000
# 6 0.0000 0.0000 0.0000 0.0000 0.0000 18.0604
#
#
#
# Elastic Compliance Matrix: (Units=1/GPa)
#
#
# Indices 1 2 3 4 5 6 
#
# 1 0.012815 -0.003751 -0.006031 0.000000 0.000000 0.000000
# 2 -0.003751 0.023316 -0.004867 0.000000 0.000000 0.000000
# 3 -0.006031 -0.004867 0.013446 0.000000 0.000000 0.000000
# 4 0.000000 0.000000 0.000000 0.083260 0.000000 0.000000
# 5 0.000000 0.000000 0.000000 0.000000 0.028078 0.000000
# 6 0.000000 0.000000 0.000000 0.000000 0.000000 0.055370
#
#
# Mechanical properties :
#
#
# Convention : Reuss Voigt Hill
#
# Bulk Modulus (GPa) = 49.31605 61.41945 55.36775
# Shear Modulus (GPa) = 19.81420 23.63481 21.72451
#
# Velocity S-wave (km/s) = 3.32612 3.63266 3.48276
# Velocity P-wave (km/s) = 6.50275 7.20332 6.86199
#
# Compressibility (1/GPa) = 0.02027738
#
# Stress axis : x y z
#
# Youngs Moduli (GPa) = 78.03124 42.88834 74.37260
#
# Poissons Ratio (x) = 0.16089 0.44856
# Poissons Ratio (y) = 0.29272 0.36200
# Poissons Ratio (z) = 0.47063 0.20876
#
# Static dielectric constant tensor:
#      x y z
#    x 3.469650 0.000000 0.000000 
#    y 0.000000 2.966400 0.000000 
#    z 0.000000 0.000000 3.407460 
# 
# 
# High freq. dielectric constant tensor:
#      x y z
#    x 1.710370 0.000000 0.000000 
#    y 0.000000 1.648390 0.000000 
#    z 0.000000 0.000000 1.702170 
# 
# From -- ./inp_files/28386.got.cif
#   From: 2010.03.12/outbox.cif.g09.slc.cpg/sg51_15_cif.got.tgz:28386.got - 2010.04.16 13:43:02.
