data_PCOD8207924
_publ_section_title
;
Structure prediction by ZEFSAII (Michael W. Deem and Ramdas Pophale) SiO2 
 PCOD8207924
Probable space group: P M M A
;
_chemical_formula_sum "Si O2"
_cell_formula_units_Z 44
_cell_length_a 8.731779
_cell_length_b 21.831212
_cell_length_c 13.725909
_cell_angle_alpha 90.000000
_cell_angle_beta 90.000000
_cell_angle_gamma 90.000000
_cell_volume 2616.505775
_symmetry_space_group_name_H-M "P M M A"
_symmetry_group_IT_number 51
_symmetry_cell_setting 'orthorhombic'
loop_
_space_group_symop_operation_xyz
x,y,z
1/2-x,-y,z
1/2+x,-y,-z
-x,y,-z
-x,-y,-z
1/2+x,y,-z
1/2-x,y,z
x,-y,z
loop_
_atom_site_type_symbol
_atom_site_label
_atom_site_fract_x
_atom_site_fract_y
_atom_site_fract_z
Si Si1 0.568655 0.751642 0.214815
Si Si2 0.569822 0.067081 0.709702
Si Si3 0.569435 0.138969 0.898436
Si Si4 0.569666 0.631972 0.106349
Si Si5 0.432023 0.813744 0.396281
Si Si6 0.570610 0.500000 0.104790
O O1 0.750000 0.757836 0.226346
O O2 0.510313 0.797956 0.132333
O O3 0.515700 0.683989 0.181633
O O4 0.489615 0.764271 0.318353
O O5 0.750000 0.062810 0.696783
O O6 0.529885 0.086636 0.819806
O O7 0.507039 0.118467 0.634901
O O8 0.495897 0.000000 0.688423
O O9 0.750000 0.150218 0.906639
O O10 0.500000 0.116168 0.000000
O O11 0.750000 0.636381 0.091941
O O12 0.521203 0.565194 0.153368
O O13 0.500000 0.642754 0.000000
O O14 0.500000 0.795910 0.500000
O O15 0.250000 0.811831 0.399242
O O16 0.750000 0.500000 0.092369
O O17 0.500000 0.500000 0.000000
#
# Coordination Sequence:
#
# PCOD8207924 Si02
#       6
#     8   8   8   8   8   4
#     4  10  19  31  47  68  92 119 153 189 226 268
#     4   8  16  31  48  66  89 116 147 182 221 268
#     4  10  19  30  45  65  91 123 155 188 225 263
#     4   9  17  27  43  66  94 127 157 186 218 256
#     4  10  20  34  52  71  91 115 143 182 230 275
#     4   8  14  26  40  60  91 124 157 186 215 252
#
# _framework density 16.816320000000001
#
# number of rings (size 3 to 8) (size 9 to 14) (size 15 to 20)
#    0.000    2.727    0.000    3.273    0.000    3.636 
#    0.000    0.000    0.000   18.545    0.000    0.636 
#    0.000    0.000    0.000    0.000    0.000    0.000 
#
# Total GULP energy -545232.414941 kJ/mol
# GULP energy per Si atom -12391.645794 kJ/mol
# Density = 1.677805 g / cm^3
# Si number density = 16.816320 Si / 1000 Ang^3
#
#
#
# Elastic Constant Matrix: (Units=GPa)
#
#
# Indices 1 2 3 4 5 6 
#
# 1 47.6027 28.6106 26.5048 0.0000 0.0000 0.0000
# 2 28.6106 146.2699 49.3799 0.0000 0.0000 0.0000
# 3 26.5048 49.3799 100.4846 0.0000 0.0000 0.0000
# 4 0.0000 0.0000 0.0000 12.1833 0.0000 0.0000
# 5 0.0000 0.0000 0.0000 0.0000 25.8856 0.0000
# 6 0.0000 0.0000 0.0000 0.0000 0.0000 17.4884
#
#
#
# Elastic Compliance Matrix: (Units=1/GPa)
#
#
# Indices 1 2 3 4 5 6 
#
# 1 0.025893 -0.003308 -0.005204 0.000000 0.000000 0.000000
# 2 -0.003308 0.008619 -0.003363 0.000000 0.000000 0.000000
# 3 -0.005204 -0.003363 0.012977 0.000000 0.000000 0.000000
# 4 0.000000 0.000000 0.000000 0.082080 0.000000 0.000000
# 5 0.000000 0.000000 0.000000 0.000000 0.038632 0.000000
# 6 0.000000 0.000000 0.000000 0.000000 0.000000 0.057181
#
#
# Mechanical properties :
#
#
# Convention : Reuss Voigt Hill
#
# Bulk Modulus (GPa) = 42.12482 55.92752 49.02617
# Shear Modulus (GPa) = 19.45188 23.76890 21.61039
#
# Velocity S-wave (km/s) = 3.40476 3.76366 3.58870
# Velocity P-wave (km/s) = 6.36874 7.22613 6.81094
#
# Compressibility (1/GPa) = 0.02373898
#
# Stress axis : x y z
#
# Youngs Moduli (GPa) = 38.62048 116.02231 77.05837
#
# Poissons Ratio (x) = 0.38377 0.40103
# Poissons Ratio (y) = 0.12775 0.25915
# Poissons Ratio (z) = 0.20099 0.39019
#
# Static dielectric constant tensor:
#      x y z
#    x 3.060640 0.000000 0.000000 
#    y 0.000000 3.767960 0.000000 
#    z 0.000000 0.000000 2.799510 
# 
# 
# High freq. dielectric constant tensor:
#      x y z
#    x 1.643980 0.000000 0.000000 
#    y 0.000000 1.652360 0.000000 
#    z 0.000000 0.000000 1.622870 
# 
# From -- ./inp_files/21411.got.cif
#   From: 2010.03.12/outbox.cif.g09.slc.cpg/sg51_11_cif.got.tgz:21411.got - 2010.04.16 13:43:02.
