data_PCOD8207322
_publ_section_title
;
Structure prediction by ZEFSAII (Michael W. Deem and Ramdas Pophale) SiO2 
 PCOD8207322
Probable space group: P M M A
;
_chemical_formula_sum "Si O2"
_cell_formula_units_Z 64
_cell_length_a 17.734520
_cell_length_b 20.039411
_cell_length_c 9.565701
_cell_angle_alpha 90.000000
_cell_angle_beta 90.000000
_cell_angle_gamma 90.000000
_cell_volume 3399.548119
_symmetry_space_group_name_H-M "P M M A"
_symmetry_group_IT_number 51
_symmetry_cell_setting 'orthorhombic'
loop_
_space_group_symop_operation_xyz
x,y,z
1/2-x,-y,z
1/2+x,-y,-z
-x,y,-z
-x,-y,-z
1/2+x,y,-z
1/2-x,y,z
x,-y,z
loop_
_atom_site_type_symbol
_atom_site_label
_atom_site_fract_x
_atom_site_fract_y
_atom_site_fract_z
Si Si1 0.839419 0.830795 0.837714
Si Si2 0.573942 0.798169 0.088904
Si Si3 0.839100 0.924844 0.587117
Si Si4 0.337617 0.670474 0.803403
Si Si5 0.913173 0.311525 0.472029
Si Si6 0.163143 0.426673 0.044178
Si Si7 0.161044 0.684287 0.246002
Si Si8 0.930137 0.837895 0.401963
O O1 0.750000 0.833273 0.851057
O O2 0.868360 0.883158 0.721662
O O3 0.870387 0.757346 0.793964
O O4 0.875595 0.846800 0.989724
O O5 0.621896 0.731593 0.118035
O O6 0.553265 0.836397 0.234579
O O7 0.500000 0.779296 0.000000
O O8 0.750000 0.923965 0.581996
O O9 0.867025 0.892529 0.441089
O O10 0.870269 0.000000 0.600881
O O11 0.250000 0.690284 0.778423
O O12 0.381162 0.650799 0.662418
O O13 0.344302 0.602355 0.889244
O O14 0.862674 0.335678 0.599422
O O15 0.899218 0.233483 0.448563
O O16 0.000000 0.328955 0.500000
O O17 0.250000 0.434344 0.086329
O O18 0.124216 0.500000 0.052809
O O19 0.124818 0.373196 0.148621
O O20 0.250000 0.686106 0.228914
O O21 0.000000 0.857798 0.500000
#
# Coordination Sequence:
#
# PCOD8207322 Si02
#       8
#     8   8   8   8   8   8   8   8
#     4  10  19  34  56  83 111 141 183 232 280 333
#     4  11  22  33  56  84 114 145 185 239 284 335
#     4  10  21  37  58  82 111 148 183 223 281 340
#     4  10  20  34  54  82 112 144 185 232 286 336
#     4  10  21  33  54  82 111 143 184 235 280 328
#     4   9  18  33  54  80 109 142 182 227 276 334
#     4  10  18  32  56  81 107 140 182 230 279 328
#     4  10  21  36  54  79 110 145 188 228 275 328
#
# _framework density 18.826032000000001
#
# number of rings (size 3 to 8) (size 9 to 14) (size 15 to 20)
#    0.000    2.000    2.500    1.500    3.500    2.750 
#    0.000    1.250    0.000   10.125    0.000    0.000 
#    0.000    0.000    0.000    0.000    0.000    0.000 
#
# Total GULP energy -793305.864418 kJ/mol
# GULP energy per Si atom -12395.404132 kJ/mol
# Density = 1.878318 g / cm^3
# Si number density = 18.826032 Si / 1000 Ang^3
#
#
#
# Elastic Constant Matrix: (Units=GPa)
#
#
# Indices 1 2 3 4 5 6 
#
# 1 46.1335 30.5684 41.5824 0.0000 0.0000 0.0000
# 2 30.5684 100.8230 55.8562 0.0000 0.0000 0.0000
# 3 41.5824 55.8562 148.7614 0.0000 0.0000 0.0000
# 4 0.0000 0.0000 0.0000 20.1138 0.0000 0.0000
# 5 0.0000 0.0000 0.0000 0.0000 38.5263 0.0000
# 6 0.0000 0.0000 0.0000 0.0000 0.0000 10.4534
#
#
#
# Elastic Compliance Matrix: (Units=1/GPa)
#
#
# Indices 1 2 3 4 5 6 
#
# 1 0.031537 -0.005906 -0.006597 0.000000 0.000000 0.000000
# 2 -0.005906 0.013630 -0.003467 0.000000 0.000000 0.000000
# 3 -0.006597 -0.003467 0.009868 0.000000 0.000000 0.000000
# 4 0.000000 0.000000 0.000000 0.049717 0.000000 0.000000
# 5 0.000000 0.000000 0.000000 0.000000 0.025956 0.000000
# 6 0.000000 0.000000 0.000000 0.000000 0.000000 0.095663
#
#
# Mechanical properties :
#
#
# Convention : Reuss Voigt Hill
#
# Bulk Modulus (GPa) = 43.30312 61.30354 52.30333
# Shear Modulus (GPa) = 18.79636 24.99944 21.89790
#
# Velocity S-wave (km/s) = 3.16321 3.64802 3.41423
# Velocity P-wave (km/s) = 6.03265 7.09774 6.58676
#
# Compressibility (1/GPa) = 0.02309302
#
# Stress axis : x y z
#
# Youngs Moduli (GPa) = 31.70922 73.36948 101.33824
#
# Poissons Ratio (x) = 0.43336 0.66858
# Poissons Ratio (y) = 0.18729 0.35130
# Poissons Ratio (z) = 0.20920 0.25434
#
# Static dielectric constant tensor:
#      x y z
#    x 3.374740 0.000000 0.000000 
#    y 0.000000 3.443930 0.000000 
#    z 0.000000 0.000000 3.742680 
# 
# 
# High freq. dielectric constant tensor:
#      x y z
#    x 1.723110 0.000000 0.000000 
#    y 0.000000 1.699130 0.000000 
#    z 0.000000 0.000000 1.743480 
# 
# From -- ./inp_files/10034.got.cif
#   From: 2010.03.12/outbox.cif.g09.slc.cpg/sg51_6_cif.got.tgz:10034.got - 2010.04.16 13:43:02.
