data_PCOD8207665
_publ_section_title
;
Structure prediction by ZEFSAII (Michael W. Deem and Ramdas Pophale) SiO2 
 PCOD8207665
Probable space group: P M M A
;
_chemical_formula_sum "Si O2"
_cell_formula_units_Z 64
_cell_length_a 13.821012
_cell_length_b 9.176888
_cell_length_c 31.564828
_cell_angle_alpha 90.000000
_cell_angle_beta 90.000000
_cell_angle_gamma 90.000000
_cell_volume 4003.489581
_symmetry_space_group_name_H-M "P M M A"
_symmetry_group_IT_number 51
_symmetry_cell_setting 'orthorhombic'
loop_
_space_group_symop_operation_xyz
x,y,z
1/2-x,-y,z
1/2+x,-y,-z
-x,y,-z
-x,-y,-z
1/2+x,y,-z
1/2-x,y,z
x,-y,z
loop_
_atom_site_type_symbol
_atom_site_label
_atom_site_fract_x
_atom_site_fract_y
_atom_site_fract_z
Si Si1 0.864497 0.336525 0.973865
Si Si2 0.137411 0.171258 0.355525
Si Si3 0.456167 0.672537 0.433687
Si Si4 0.544854 0.831917 0.897362
Si Si5 0.141438 0.832397 0.944276
Si Si6 0.635135 0.335775 0.727972
Si Si7 0.862314 0.169644 0.810641
Si Si8 0.856328 0.672360 0.480721
O O1 0.750000 0.334092 0.975602
O O2 0.905690 0.500000 0.973515
O O3 0.895545 0.256820 0.931516
O O4 0.902922 0.257453 0.016323
O O5 0.250000 0.207430 0.363375
O O6 0.074671 0.237996 0.392980
O O7 0.098996 0.244417 0.312381
O O8 0.119223 0.000000 0.352400
O O9 0.445936 0.500000 0.425140
O O10 0.389665 0.724520 0.472827
O O11 0.566882 0.717810 0.444667
O O12 0.429589 0.808192 0.904237
O O13 0.574246 0.778253 0.850675
O O14 0.574372 0.000000 0.902762
O O15 0.250000 0.781541 0.931508
O O16 0.142157 0.000000 0.958578
O O17 0.750000 0.335917 0.728683
O O18 0.594082 0.500000 0.725387
O O19 0.597285 0.259523 0.770699
O O20 0.750000 0.204111 0.820043
O O21 0.877093 0.000000 0.800528
O O22 0.750000 0.738221 0.470392
O O23 0.852318 0.500000 0.482206
#
# Coordination Sequence:
#
# PCOD8207665 Si02
#       8
#     8   8   8   8   8   8   8   8
#     4  10  20  31  43  62  88 115 142 175 214 251
#     4  10  19  29  42  62  89 118 145 177 219 260
#     4   9  16  26  43  65  86 114 153 189 218 254
#     4  10  19  30  46  66  86 113 146 174 206 251
#     4   9  18  32  47  62  83 112 146 181 212 245
#     4   9  17  29  45  64  86 112 140 170 207 255
#     4   9  17  29  44  63  88 113 135 164 206 256
#     4   8  14  25  41  62  89 119 150 185 223 259
#
# _framework density 15.986055
#
# number of rings (size 3 to 8) (size 9 to 14) (size 15 to 20)
#    0.000    2.750    0.000    3.000    0.000    6.500 
#    0.000    2.500    0.000    1.125    0.000    0.875 
#    0.000    3.000    0.000    0.000    0.000    0.000 
#
# Total GULP energy -793445.227269 kJ/mol
# GULP energy per Si atom -12397.581676 kJ/mol
# Density = 1.594967 g / cm^3
# Si number density = 15.986055 Si / 1000 Ang^3
#
#
#
# Elastic Constant Matrix: (Units=GPa)
#
#
# Indices 1 2 3 4 5 6 
#
# 1 70.4030 32.2056 58.3350 0.0000 0.0000 0.0000
# 2 32.2056 72.4687 62.1797 0.0000 0.0000 0.0000
# 3 58.3350 62.1797 147.1511 0.0000 0.0000 0.0000
# 4 0.0000 0.0000 0.0000 20.5040 0.0000 0.0000
# 5 0.0000 0.0000 0.0000 0.0000 24.0358 0.0000
# 6 0.0000 0.0000 0.0000 0.0000 0.0000 13.8406
#
#
#
# Elastic Compliance Matrix: (Units=1/GPa)
#
#
# Indices 1 2 3 4 5 6 
#
# 1 0.021720 -0.003553 -0.007109 0.000000 0.000000 0.000000
# 2 -0.003553 0.022229 -0.007985 0.000000 0.000000 0.000000
# 3 -0.007109 -0.007985 0.012988 0.000000 0.000000 0.000000
# 4 0.000000 0.000000 0.000000 0.048771 0.000000 0.000000
# 5 0.000000 0.000000 0.000000 0.000000 0.041605 0.000000
# 6 0.000000 0.000000 0.000000 0.000000 0.000000 0.072251
#
#
# Mechanical properties :
#
#
# Convention : Reuss Voigt Hill
#
# Bulk Modulus (GPa) = 50.90669 66.16258 58.53464
# Shear Modulus (GPa) = 18.98230 20.82959 19.90595
#
# Velocity S-wave (km/s) = 3.44965 3.61360 3.53258
# Velocity P-wave (km/s) = 6.91233 7.67388 7.30304
#
# Compressibility (1/GPa) = 0.01964378
#
# Stress axis : x y z
#
# Youngs Moduli (GPa) = 46.04143 44.98670 76.99458
#
# Poissons Ratio (x) = 0.15982 0.54736
# Poissons Ratio (y) = 0.16356 0.61477
# Poissons Ratio (z) = 0.32731 0.35920
#
# Static dielectric constant tensor:
#      x y z
#    x 3.157790 0.000000 0.000000 
#    y 0.000000 3.032590 0.000000 
#    z 0.000000 0.000000 3.007630 
# 
# 
# High freq. dielectric constant tensor:
#      x y z
#    x 1.592940 0.000000 0.000000 
#    y 0.000000 1.608280 0.000000 
#    z 0.000000 0.000000 1.605500 
# 
# From -- ./inp_files/37790.got.cif
#   From: 2010.03.12/outbox.cif.g09.slc.cpg/sg51_19_cif.got.tgz:37790.got - 2010.04.16 13:43:02.
