data_PCOD8208602
_publ_section_title
;
Structure prediction by ZEFSAII (Michael W. Deem and Ramdas Pophale) SiO2 
 PCOD8208602
Probable space group: P M M A
;
_chemical_formula_sum "Si O2"
_cell_formula_units_Z 56
_cell_length_a 9.015459
_cell_length_b 14.689197
_cell_length_c 23.122883
_cell_angle_alpha 90.000000
_cell_angle_beta 90.000000
_cell_angle_gamma 90.000000
_cell_volume 3062.160003
_symmetry_space_group_name_H-M "P M M A"
_symmetry_group_IT_number 51
_symmetry_cell_setting 'orthorhombic'
loop_
_space_group_symop_operation_xyz
x,y,z
1/2-x,-y,z
1/2+x,-y,-z
-x,y,-z
-x,-y,-z
1/2+x,y,-z
1/2-x,y,z
x,-y,z
loop_
_atom_site_type_symbol
_atom_site_label
_atom_site_fract_x
_atom_site_fract_y
_atom_site_fract_z
Si Si1 0.575016 0.500000 0.062688
Si Si2 0.921863 0.649331 0.153330
Si Si3 0.575198 0.603577 0.725787
Si Si4 0.924351 0.103055 0.438864
Si Si5 0.418414 0.232335 0.350186
Si Si6 0.576091 0.000000 0.939440
Si Si7 0.419814 0.855627 0.864841
Si Si8 0.912972 0.900061 0.755338
O O1 0.750000 0.500000 0.052103
O O2 0.522737 0.414073 0.100959
O O3 0.500000 0.500000 0.000000
O O4 0.750000 0.631493 0.166980
O O5 0.952022 0.749345 0.129073
O O6 0.005835 0.632294 0.213184
O O7 0.750000 0.614788 0.733829
O O8 0.530042 0.500000 0.710355
O O9 0.524424 0.667875 0.671591
O O10 0.750000 0.113962 0.446445
O O11 0.000000 0.119146 0.500000
O O12 0.978942 0.184595 0.397650
O O13 0.962813 0.000000 0.416184
O O14 0.250000 0.237559 0.374101
O O15 0.429264 0.172682 0.293675
O O16 0.527766 0.091439 0.907319
O O17 0.750000 0.000000 0.947085
O O18 0.500000 0.000000 0.000000
O O19 0.250000 0.880200 0.878881
O O20 0.454810 0.886417 0.800037
O O21 0.750000 0.890086 0.785286
O O22 0.928803 0.000000 0.727409
#
# Coordination Sequence:
#
# PCOD8208602 Si02
#       8
#     4   8   8   8   8   4   8   8
#     4  10  22  40  58  80 108 140 179 226 283 344
#     4  10  21  37  58  82 112 144 180 228 286 342
#     4  10  20  34  56  86 116 149 191 234 283 340
#     4  10  21  37  58  85 118 157 198 238 283 335
#     4  10  20  34  54  83 118 153 191 234 280 334
#     4  12  26  44  62  78 104 144 187 232 281 340
#     4  11  22  36  56  83 110 141 181 228 277 333
#     4  10  19  31  50  78 111 147 183 222 274 331
#
# _framework density 18.287742999999999
#
# number of rings (size 3 to 8) (size 9 to 14) (size 15 to 20)
#    0.000    1.714    2.857    1.929    0.000    4.286 
#    0.000    1.429    0.000    0.429    0.000    0.000 
#    0.000    0.000    0.000    0.000    0.000    0.000 
#
# Total GULP energy -694172.172495 kJ/mol
# GULP energy per Si atom -12395.931652 kJ/mol
# Density = 1.824612 g / cm^3
# Si number density = 18.287743 Si / 1000 Ang^3
#
#
#
# Elastic Constant Matrix: (Units=GPa)
#
#
# Indices 1 2 3 4 5 6 
#
# 1 87.8478 53.6125 50.9056 0.0000 0.0000 0.0000
# 2 53.6125 137.1046 55.0855 0.0000 0.0000 0.0000
# 3 50.9056 55.0855 91.8715 0.0000 0.0000 0.0000
# 4 0.0000 0.0000 0.0000 15.0182 0.0000 0.0000
# 5 0.0000 0.0000 0.0000 0.0000 35.6788 0.0000
# 6 0.0000 0.0000 0.0000 0.0000 0.0000 31.3419
#
#
#
# Elastic Compliance Matrix: (Units=1/GPa)
#
#
# Indices 1 2 3 4 5 6 
#
# 1 0.018342 -0.004069 -0.007723 0.000000 0.000000 0.000000
# 2 -0.004069 0.010511 -0.004048 0.000000 0.000000 0.000000
# 3 -0.007723 -0.004048 0.017591 0.000000 0.000000 0.000000
# 4 0.000000 0.000000 0.000000 0.066586 0.000000 0.000000
# 5 0.000000 0.000000 0.000000 0.000000 0.028028 0.000000
# 6 0.000000 0.000000 0.000000 0.000000 0.000000 0.031906
#
#
# Mechanical properties :
#
#
# Convention : Reuss Voigt Hill
#
# Bulk Modulus (GPa) = 67.73282 70.67012 69.20147
# Shear Modulus (GPa) = 23.85872 26.88912 25.37392
#
# Velocity S-wave (km/s) = 3.61588 3.83866 3.72893
# Velocity P-wave (km/s) = 7.38583 7.64031 7.51415
#
# Compressibility (1/GPa) = 0.01476389
#
# Stress axis : x y z
#
# Youngs Moduli (GPa) = 54.51858 95.13655 56.84654
#
# Poissons Ratio (x) = 0.38715 0.43905
# Poissons Ratio (y) = 0.22186 0.23009
# Poissons Ratio (z) = 0.42107 0.38508
#
# Static dielectric constant tensor:
#      x y z
#    x 3.441680 0.000000 0.000000 
#    y 0.000000 3.838960 0.000000 
#    z 0.000000 0.000000 3.263090 
# 
# 
# High freq. dielectric constant tensor:
#      x y z
#    x 1.709240 0.000000 0.000000 
#    y 0.000000 1.723310 0.000000 
#    z 0.000000 0.000000 1.689870 
# 
# From -- ./inp_files/32146.got.cif
#   From: 2010.03.12/outbox.cif.g09.slc.cpg/sg51_17_cif.got.tgz:32146.got - 2010.04.16 13:43:02.
