data_PCOD8208859
_publ_section_title
;
Structure prediction by ZEFSAII (Michael W. Deem and Ramdas Pophale) SiO2 
 PCOD8208859
Probable space group: P M M A
;
_chemical_formula_sum "Si O2"
_cell_formula_units_Z 64
_cell_length_a 26.352420
_cell_length_b 26.291698
_cell_length_c 5.164126
_cell_angle_alpha 90.000000
_cell_angle_beta 90.000000
_cell_angle_gamma 90.000000
_cell_volume 3577.964019
_symmetry_space_group_name_H-M "P M M A"
_symmetry_group_IT_number 51
_symmetry_cell_setting 'orthorhombic'
loop_
_space_group_symop_operation_xyz
x,y,z
1/2-x,-y,z
1/2+x,-y,-z
-x,y,-z
-x,-y,-z
1/2+x,y,-z
1/2-x,y,z
x,-y,z
loop_
_atom_site_type_symbol
_atom_site_label
_atom_site_fract_x
_atom_site_fract_y
_atom_site_fract_z
Si Si1 0.904360 0.059623 0.469111
Si Si2 0.690281 0.289475 0.017160
Si Si3 0.442171 0.886128 0.030756
Si Si4 0.154513 0.178520 0.028604
Si Si5 0.117055 0.559771 0.503733
Si Si6 0.307725 0.876152 0.528598
Si Si7 0.308906 0.647638 0.487680
Si Si8 0.055711 0.440139 0.011268
O O1 0.936545 0.086603 0.693317
O O2 0.845230 0.075627 0.484446
O O3 0.907849 0.000000 0.509979
O O4 0.928201 0.073927 0.193334
O O5 0.750000 0.275714 0.019483
O O6 0.656998 0.238949 0.991775
O O7 0.672275 0.316662 0.279310
O O8 0.676246 0.326208 0.780986
O O9 0.500000 0.866995 0.000000
O O10 0.404652 0.837714 0.014547
O O11 0.186025 0.153392 0.797091
O O12 0.180024 0.162469 0.297509
O O13 0.130296 0.500000 0.489101
O O14 0.168688 0.591175 0.507184
O O15 0.085733 0.574653 0.755977
O O16 0.084780 0.580052 0.261889
O O17 0.250000 0.896023 0.506055
O O18 0.250000 0.638365 0.514150
O O19 0.049843 0.500000 0.039426
O O20 0.000000 0.414887 0.000000
#
# Coordination Sequence:
#
# PCOD8208859 Si02
#       8
#     8   8   8   8   8   8   8   8
#     4  10  21  34  50  76 105 136 174 208 245 295
#     4  10  19  33  53  74 100 131 163 207 257 298
#     4  10  21  36  54  75 100 133 172 212 251 293
#     4  10  20  34  54  78  99 126 168 212 254 304
#     4  10  19  32  51  74 103 138 170 204 247 294
#     4  10  19  32  51  76 105 132 164 207 253 305
#     4  10  21  34  50  76 105 134 168 202 243 300
#     4   9  17  30  50  74  96 124 166 210 247 282
#
# _framework density 17.887266
#
# number of rings (size 3 to 8) (size 9 to 14) (size 15 to 20)
#    0.000    2.125    0.000    3.750    0.000    4.500 
#    0.000    0.000    0.000   13.500    0.000    0.000 
#    0.000    0.000    0.000    0.000    0.000    0.000 
#
# Total GULP energy -793724.933396 kJ/mol
# GULP energy per Si atom -12401.952084 kJ/mol
# Density = 1.784655 g / cm^3
# Si number density = 17.887266 Si / 1000 Ang^3
#
#
#
# Elastic Constant Matrix: (Units=GPa)
#
#
# Indices 1 2 3 4 5 6 
#
# 1 97.5748 43.3162 9.6904 0.0000 0.0000 0.0000
# 2 43.3162 76.7489 13.6012 0.0000 0.0000 0.0000
# 3 9.6904 13.6012 78.7062 0.0000 0.0000 0.0000
# 4 0.0000 0.0000 0.0000 21.9794 0.0000 0.0000
# 5 0.0000 0.0000 0.0000 0.0000 13.7742 0.0000
# 6 0.0000 0.0000 0.0000 0.0000 0.0000 17.7216
#
#
#
# Elastic Compliance Matrix: (Units=1/GPa)
#
#
# Indices 1 2 3 4 5 6 
#
# 1 0.013685 -0.007659 -0.000361 0.000000 0.000000 0.000000
# 2 -0.007659 0.017728 -0.002121 0.000000 0.000000 0.000000
# 3 -0.000361 -0.002121 0.013116 0.000000 0.000000 0.000000
# 4 0.000000 0.000000 0.000000 0.045497 0.000000 0.000000
# 5 0.000000 0.000000 0.000000 0.000000 0.072599 0.000000
# 6 0.000000 0.000000 0.000000 0.000000 0.000000 0.056428
#
#
# Mechanical properties :
#
#
# Convention : Reuss Voigt Hill
#
# Bulk Modulus (GPa) = 41.24262 42.91616 42.07939
# Shear Modulus (GPa) = 20.20864 23.12318 21.66591
#
# Velocity S-wave (km/s) = 3.36486 3.59934 3.48407
# Velocity P-wave (km/s) = 6.18089 6.42793 6.30562
#
# Compressibility (1/GPa) = 0.02424676
#
# Stress axis : x y z
#
# Youngs Moduli (GPa) = 73.07449 56.40730 76.24035
#
# Poissons Ratio (x) = 0.43205 0.02754
# Poissons Ratio (y) = 0.55971 0.16167
# Poissons Ratio (z) = 0.02640 0.11962
#
# Static dielectric constant tensor:
#      x y z
#    x 3.466460 0.000000 0.000000 
#    y 0.000000 3.027020 0.000000 
#    z 0.000000 0.000000 3.714170 
# 
# 
# High freq. dielectric constant tensor:
#      x y z
#    x 1.687170 0.000000 0.000000 
#    y 0.000000 1.666700 0.000000 
#    z 0.000000 0.000000 1.719370 
# 
# From -- ./inp_files/3190.got.cif
#   From: 2010.03.12/outbox.cif.g09.slc.cpg/sg51_2_cif.got.tgz:3190.got - 2010.04.16 13:43:02.
