data_PCOD8208749
_publ_section_title
;
Structure prediction by ZEFSAII (Michael W. Deem and Ramdas Pophale) SiO2 
 PCOD8208749
Probable space group: P M M A
;
_chemical_formula_sum "Si O2"
_cell_formula_units_Z 64
_cell_length_a 8.884384
_cell_length_b 23.627251
_cell_length_c 19.204248
_cell_angle_alpha 90.000000
_cell_angle_beta 90.000000
_cell_angle_gamma 90.000000
_cell_volume 4031.232271
_symmetry_space_group_name_H-M "P M M A"
_symmetry_group_IT_number 51
_symmetry_cell_setting 'orthorhombic'
loop_
_space_group_symop_operation_xyz
x,y,z
1/2-x,-y,z
1/2+x,-y,-z
-x,y,-z
-x,-y,-z
1/2+x,y,-z
1/2-x,y,z
x,-y,z
loop_
_atom_site_type_symbol
_atom_site_label
_atom_site_fract_x
_atom_site_fract_y
_atom_site_fract_z
Si Si1 0.572609 0.737885 0.219231
Si Si2 0.575353 0.065563 0.215423
Si Si3 0.575369 0.757199 0.067992
Si Si4 0.071868 0.562976 0.573825
Si Si5 0.428118 0.161003 0.298189
Si Si6 0.929143 0.782033 0.425530
Si Si7 0.927097 0.670215 0.347834
Si Si8 0.073318 0.113474 0.930539
O O1 0.750000 0.751758 0.227798
O O2 0.533507 0.723266 0.138910
O O3 0.482436 0.793335 0.241658
O O4 0.524855 0.684962 0.268338
O O5 0.750000 0.083195 0.222914
O O6 0.476654 0.099361 0.271419
O O7 0.518829 0.079150 0.137143
O O8 0.550118 0.000000 0.231198
O O9 0.750000 0.754879 0.053548
O O10 0.519906 0.821572 0.078003
O O11 0.500000 0.728809 0.000000
O O12 0.250000 0.567565 0.565346
O O13 0.025273 0.500000 0.599470
O O14 0.007044 0.609306 0.628619
O O15 0.000000 0.577019 0.500000
O O16 0.250000 0.164308 0.307442
O O17 0.507476 0.171381 0.372338
O O18 0.750000 0.786852 0.429105
O O19 0.982688 0.720022 0.399176
O O20 0.000000 0.794218 0.500000
O O21 0.750000 0.666433 0.352634
O O22 0.250000 0.108711 0.939511
O O23 0.000000 0.086824 0.000000
#
# Coordination Sequence:
#
# PCOD8208749 Si02
#       8
#     8   8   8   8   8   8   8   8
#     4   9  16  30  47  62  85 117 150 182 222 267
#     4  10  20  35  52  66  85 116 150 181 215 260
#     4   9  16  26  42  61  85 113 142 177 218 266
#     4   9  16  26  40  60  88 122 156 186 216 252
#     4  11  21  32  48  69  92 114 142 179 222 266
#     4  10  19  32  50  70  93 117 146 180 220 265
#     4   8  15  26  43  65  89 119 151 185 219 255
#     4   9  17  29  44  64  87 113 145 177 215 257
#
# _framework density 15.876039
#
# number of rings (size 3 to 8) (size 9 to 14) (size 15 to 20)
#    0.000    2.625    1.250    2.625    0.000    1.500 
#    0.000    2.500    0.000    0.375    0.000    0.000 
#    0.000    0.500    0.000    0.375    0.000    0.750 
#
# Total GULP energy -793320.608068 kJ/mol
# GULP energy per Si atom -12395.634501 kJ/mol
# Density = 1.583990 g / cm^3
# Si number density = 15.876039 Si / 1000 Ang^3
#
#
#
# Elastic Constant Matrix: (Units=GPa)
#
#
# Indices 1 2 3 4 5 6 
#
# 1 49.6633 25.5989 42.1552 0.0000 0.0000 0.0000
# 2 25.5989 85.6972 60.3086 0.0000 0.0000 0.0000
# 3 42.1552 60.3086 143.6759 0.0000 0.0000 0.0000
# 4 0.0000 0.0000 0.0000 24.5358 0.0000 0.0000
# 5 0.0000 0.0000 0.0000 0.0000 27.0089 0.0000
# 6 0.0000 0.0000 0.0000 0.0000 0.0000 11.7394
#
#
#
# Elastic Compliance Matrix: (Units=1/GPa)
#
#
# Indices 1 2 3 4 5 6 
#
# 1 0.027579 -0.003610 -0.006576 0.000000 0.000000 0.000000
# 2 -0.003610 0.017034 -0.006091 0.000000 0.000000 0.000000
# 3 -0.006576 -0.006091 0.011446 0.000000 0.000000 0.000000
# 4 0.000000 0.000000 0.000000 0.040757 0.000000 0.000000
# 5 0.000000 0.000000 0.000000 0.000000 0.037025 0.000000
# 6 0.000000 0.000000 0.000000 0.000000 0.000000 0.085183
#
#
# Mechanical properties :
#
#
# Convention : Reuss Voigt Hill
#
# Bulk Modulus (GPa) = 42.54562 59.46244 51.00403
# Shear Modulus (GPa) = 19.27434 22.72174 20.99804
#
# Velocity S-wave (km/s) = 3.48811 3.78722 3.64074
# Velocity P-wave (km/s) = 6.56348 7.52725 7.06183
#
# Compressibility (1/GPa) = 0.02350418
#
# Stress axis : x y z
#
# Youngs Moduli (GPa) = 36.26007 58.70726 87.36467
#
# Poissons Ratio (x) = 0.21193 0.57454
# Poissons Ratio (y) = 0.13090 0.53212
# Poissons Ratio (z) = 0.23846 0.35757
#
# Static dielectric constant tensor:
#      x y z
#    x 2.898560 0.000000 0.000000 
#    y 0.000000 3.017470 0.000000 
#    z 0.000000 0.000000 3.220010 
# 
# 
# High freq. dielectric constant tensor:
#      x y z
#    x 1.599350 0.000000 0.000000 
#    y 0.000000 1.575130 0.000000 
#    z 0.000000 0.000000 1.612360 
# 
# From -- ./inp_files/32715.got.cif
#   From: 2010.03.12/outbox.cif.g09.slc.cpg/sg51_17_cif.got.tgz:32715.got - 2010.04.16 13:43:02.
