data_PCOD8208739
_publ_section_title
;
Structure prediction by ZEFSAII (Michael W. Deem and Ramdas Pophale) SiO2 
 PCOD8208739
Probable space group: P M M A
;
_chemical_formula_sum "Si O2"
_cell_formula_units_Z 56
_cell_length_a 15.513123
_cell_length_b 18.918850
_cell_length_c 11.055166
_cell_angle_alpha 90.000000
_cell_angle_beta 90.000000
_cell_angle_gamma 90.000000
_cell_volume 3244.585612
_symmetry_space_group_name_H-M "P M M A"
_symmetry_group_IT_number 51
_symmetry_cell_setting 'orthorhombic'
loop_
_space_group_symop_operation_xyz
x,y,z
1/2-x,-y,z
1/2+x,-y,-z
-x,y,-z
-x,-y,-z
1/2+x,y,-z
1/2-x,y,z
x,-y,z
loop_
_atom_site_type_symbol
_atom_site_label
_atom_site_fract_x
_atom_site_fract_y
_atom_site_fract_z
Si Si1 0.497554 0.079168 0.855241
Si Si2 0.073674 0.318042 0.174752
Si Si3 0.118344 0.323562 0.912125
Si Si4 0.250000 0.416429 0.521830
Si Si5 0.073826 0.416249 0.404059
Si Si6 0.750000 0.583322 0.209747
Si Si7 0.349594 0.828154 0.174253
Si Si8 0.342421 0.171668 0.888905
O O1 0.584866 0.108352 0.789965
O O2 0.416656 0.128934 0.817846
O O3 0.483005 0.000000 0.805525
O O4 0.500000 0.077656 0.000000
O O5 0.067047 0.378855 0.274790
O O6 0.113495 0.245372 0.229687
O O7 0.979001 0.309265 0.123538
O O8 0.131155 0.336909 0.056655
O O9 0.162002 0.391686 0.852979
O O10 0.164514 0.254397 0.857088
O O11 0.250000 0.500000 0.527768
O O12 0.164947 0.389792 0.454684
O O13 0.250000 0.385257 0.655749
O O14 0.069103 0.500000 0.381554
O O15 0.000000 0.393235 0.500000
O O16 0.750000 0.500000 0.207558
O O17 0.250000 0.841535 0.215922
O O18 0.359430 0.827080 0.031208
O O19 0.250000 0.135899 0.857934
#
# Coordination Sequence:
#
# PCOD8208739 Si02
#       8
#     8   8   8   4   8   4   8   8
#     4   9  16  26  41  64  96 134 171 203 234 288
#     4  10  20  32  52  73  99 132 172 208 258 309
#     4  10  19  32  49  74 101 134 164 207 260 310
#     4   9  20  37  53  69  93 127 163 204 260 309
#     4  10  21  37  54  71  95 130 170 215 264 306
#     4  11  22  35  53  75 100 131 171 210 257 317
#     4   9  17  27  43  66  95 129 164 203 244 296
#     4   9  15  27  43  62  94 131 169 196 243 299
#
# _framework density 17.259522
#
# number of rings (size 3 to 8) (size 9 to 14) (size 15 to 20)
#    0.000    2.429    2.143    0.857    2.000    2.857 
#    0.000    5.000    0.000    0.000    0.000    0.000 
#    0.000    0.571    0.000    0.571    0.000    1.286 
#
# Total GULP energy -693744.547899 kJ/mol
# GULP energy per Si atom -12388.295498 kJ/mol
# Density = 1.722024 g / cm^3
# Si number density = 17.259522 Si / 1000 Ang^3
#
#
#
# Elastic Constant Matrix: (Units=GPa)
#
#
# Indices 1 2 3 4 5 6 
#
# 1 122.7068 45.6627 25.6984 0.0000 0.0000 0.0000
# 2 45.6627 91.3093 32.0019 0.0000 0.0000 0.0000
# 3 25.6984 32.0019 58.9443 0.0000 0.0000 0.0000
# 4 0.0000 0.0000 0.0000 4.9112 0.0000 0.0000
# 5 0.0000 0.0000 0.0000 0.0000 11.3600 0.0000
# 6 0.0000 0.0000 0.0000 0.0000 0.0000 23.1870
#
#
#
# Elastic Compliance Matrix: (Units=1/GPa)
#
#
# Indices 1 2 3 4 5 6 
#
# 1 0.010214 -0.004381 -0.002075 0.000000 0.000000 0.000000
# 2 -0.004381 0.015404 -0.006453 0.000000 0.000000 0.000000
# 3 -0.002075 -0.006453 0.021373 0.000000 0.000000 0.000000
# 4 0.000000 0.000000 0.000000 0.203615 0.000000 0.000000
# 5 0.000000 0.000000 0.000000 0.000000 0.088028 0.000000
# 6 0.000000 0.000000 0.000000 0.000000 0.000000 0.043128
#
#
# Mechanical properties :
#
#
# Convention : Reuss Voigt Hill
#
# Bulk Modulus (GPa) = 47.22761 53.29851 50.26306
# Shear Modulus (GPa) = 12.05869 19.19814 15.62842
#
# Velocity S-wave (km/s) = 2.64610 3.33877 3.01241
# Velocity P-wave (km/s) = 6.06287 6.76837 6.42531
#
# Compressibility (1/GPa) = 0.02117405
#
# Stress axis : x y z
#
# Youngs Moduli (GPa) = 97.90225 64.91670 46.78729
#
# Poissons Ratio (x) = 0.28439 0.09707
# Poissons Ratio (y) = 0.42890 0.30193
# Poissons Ratio (z) = 0.20312 0.41893
#
# Static dielectric constant tensor:
#      x y z
#    x 3.479130 0.000000 0.000000 
#    y 0.000000 3.199070 0.000000 
#    z 0.000000 0.000000 2.824640 
# 
# 
# High freq. dielectric constant tensor:
#      x y z
#    x 1.689630 0.000000 0.000000 
#    y 0.000000 1.655190 0.000000 
#    z 0.000000 0.000000 1.605380 
# 
# From -- ./inp_files/8608.got.cif
#   From: 2010.03.12/outbox.cif.g09.slc.cpg/sg51_5_cif.got.tgz:8608.got - 2010.04.16 13:43:02.
