data_PCOD8208849
_publ_section_title
;
Structure prediction by ZEFSAII (Michael W. Deem and Ramdas Pophale) SiO2 
 PCOD8208849
Probable space group: P M M A
;
_chemical_formula_sum "Si O2"
_cell_formula_units_Z 64
_cell_length_a 8.861887
_cell_length_b 28.008437
_cell_length_c 14.116221
_cell_angle_alpha 90.000000
_cell_angle_beta 90.000000
_cell_angle_gamma 90.000000
_cell_volume 3503.753388
_symmetry_space_group_name_H-M "P M M A"
_symmetry_group_IT_number 51
_symmetry_cell_setting 'orthorhombic'
loop_
_space_group_symop_operation_xyz
x,y,z
1/2-x,-y,z
1/2+x,-y,-z
-x,y,-z
-x,-y,-z
1/2+x,y,-z
1/2-x,y,z
x,-y,z
loop_
_atom_site_type_symbol
_atom_site_label
_atom_site_fract_x
_atom_site_fract_y
_atom_site_fract_z
Si Si1 0.928191 0.553692 0.598457
Si Si2 0.572270 0.277150 0.240697
Si Si3 0.922258 0.552330 0.099287
Si Si4 0.072177 0.054422 0.401819
Si Si5 0.571974 0.192044 0.103794
Si Si6 0.073048 0.377833 0.235962
Si Si7 0.577136 0.778345 0.600227
Si Si8 0.576958 0.865929 0.738569
O O1 0.750000 0.554872 0.589327
O O2 0.980819 0.500000 0.628160
O O3 0.984427 0.593978 0.671228
O O4 0.000000 0.568854 0.500000
O O5 0.750000 0.275587 0.251832
O O6 0.520877 0.240711 0.157256
O O7 0.517516 0.329695 0.216208
O O8 0.500132 0.264063 0.341450
O O9 0.750000 0.571913 0.093325
O O10 0.921278 0.500000 0.148724
O O11 0.034397 0.588003 0.150347
O O12 0.000000 0.546356 0.000000
O O13 0.250000 0.060193 0.414125
O O14 0.017841 0.085231 0.310781
O O15 0.000000 0.072941 0.500000
O O16 0.023199 0.000000 0.381902
O O17 0.750000 0.189195 0.091813
O O18 0.518720 0.146975 0.167692
O O19 0.500000 0.190336 0.000000
O O20 0.250000 0.366577 0.239499
O O21 0.500000 0.784982 0.500000
O O22 0.750000 0.764505 0.584463
O O23 0.556906 0.826807 0.657558
O O24 0.750000 0.870465 0.771242
#
# Coordination Sequence:
#
# PCOD8208849 Si02
#       8
#     8   8   8   8   8   8   8   8
#     4   9  19  35  54  76 101 131 168 207 246 290
#     4  10  22  38  53  74 103 133 169 210 254 309
#     4  10  21  37  57  80 104 131 164 202 246 298
#     4   9  17  29  47  75 112 151 185 218 260 308
#     4  10  21  37  58  79 100 130 169 217 268 316
#     4  11  22  36  55  78 106 137 167 205 254 306
#     4  10  19  32  51  74 101 135 173 213 258 304
#     4   9  18  32  51  76 106 139 177 219 260 307
#
# _framework density 18.266127000000001
#
# number of rings (size 3 to 8) (size 9 to 14) (size 15 to 20)
#    0.000    2.250    0.000    2.625    0.000    5.750 
#    0.000    3.750    0.000    0.375    0.000    0.000 
#    0.000    0.000    0.000    0.000    0.000    0.000 
#
# Total GULP energy -793473.562958 kJ/mol
# GULP energy per Si atom -12398.024421 kJ/mol
# Density = 1.822455 g / cm^3
# Si number density = 18.266127 Si / 1000 Ang^3
#
#
#
# Elastic Constant Matrix: (Units=GPa)
#
#
# Indices 1 2 3 4 5 6 
#
# 1 61.9970 28.0198 45.5049 0.0000 0.0000 0.0000
# 2 28.0198 94.7861 53.0742 0.0000 0.0000 0.0000
# 3 45.5049 53.0742 120.1533 0.0000 0.0000 0.0000
# 4 0.0000 0.0000 0.0000 25.6736 0.0000 0.0000
# 5 0.0000 0.0000 0.0000 0.0000 35.7027 0.0000
# 6 0.0000 0.0000 0.0000 0.0000 0.0000 28.0787
#
#
#
# Elastic Compliance Matrix: (Units=1/GPa)
#
#
# Indices 1 2 3 4 5 6 
#
# 1 0.022787 -0.002530 -0.007513 0.000000 0.000000 0.000000
# 2 -0.002530 0.014298 -0.005358 0.000000 0.000000 0.000000
# 3 -0.007513 -0.005358 0.013535 0.000000 0.000000 0.000000
# 4 0.000000 0.000000 0.000000 0.038951 0.000000 0.000000
# 5 0.000000 0.000000 0.000000 0.000000 0.028009 0.000000
# 6 0.000000 0.000000 0.000000 0.000000 0.000000 0.035614
#
#
# Mechanical properties :
#
#
# Convention : Reuss Voigt Hill
#
# Bulk Modulus (GPa) = 50.45460 58.90382 54.67921
# Shear Modulus (GPa) = 26.23298 27.91350 27.07324
#
# Velocity S-wave (km/s) = 3.79377 3.91340 3.85405
# Velocity P-wave (km/s) = 6.84633 7.26204 7.05725
#
# Compressibility (1/GPa) = 0.01981980
#
# Stress axis : x y z
#
# Youngs Moduli (GPa) = 43.88409 69.94101 73.88503
#
# Poissons Ratio (x) = 0.17692 0.55508
# Poissons Ratio (y) = 0.11101 0.39585
# Poissons Ratio (z) = 0.32969 0.37472
#
# Static dielectric constant tensor:
#      x y z
#    x 4.521350 0.000000 0.000000 
#    y 0.000000 3.527650 0.000000 
#    z 0.000000 0.000000 4.145250 
# 
# 
# High freq. dielectric constant tensor:
#      x y z
#    x 1.713430 0.000000 0.000000 
#    y 0.000000 1.702220 0.000000 
#    z 0.000000 0.000000 1.703550 
# 
# From -- ./inp_files/14827.got.cif
#   From: 2010.03.12/outbox.cif.g09.slc.cpg/sg51_8_cif.got.tgz:14827.got - 2010.04.16 13:43:02.
