data_PCOD8208339
_publ_section_title
;
Structure prediction by ZEFSAII (Michael W. Deem and Ramdas Pophale) SiO2 
 PCOD8208339
Probable space group: P M M A
;
_chemical_formula_sum "Si O2"
_cell_formula_units_Z 64
_cell_length_a 17.873328
_cell_length_b 14.585165
_cell_length_c 15.096815
_cell_angle_alpha 90.000000
_cell_angle_beta 90.000000
_cell_angle_gamma 90.000000
_cell_volume 3935.519830
_symmetry_space_group_name_H-M "P M M A"
_symmetry_group_IT_number 51
_symmetry_cell_setting 'orthorhombic'
loop_
_space_group_symop_operation_xyz
x,y,z
1/2-x,-y,z
1/2+x,-y,-z
-x,y,-z
-x,-y,-z
1/2+x,y,-z
1/2-x,y,z
x,-y,z
loop_
_atom_site_type_symbol
_atom_site_label
_atom_site_fract_x
_atom_site_fract_y
_atom_site_fract_z
Si Si1 0.333270 0.100401 0.468554
Si Si2 0.334088 0.606875 0.606918
Si Si3 0.662787 0.400335 0.873407
Si Si4 0.334089 0.101671 0.258819
Si Si5 0.935848 0.390927 0.226864
Si Si6 0.583530 0.277550 0.530513
Si Si7 0.915638 0.718764 0.739461
Si Si8 0.166798 0.391133 0.934861
O O1 0.250000 0.124231 0.504637
O O2 0.330335 0.098863 0.363700
O O3 0.392995 0.175481 0.500914
O O4 0.358193 0.000000 0.504259
O O5 0.250000 0.639238 0.629271
O O6 0.336754 0.500000 0.589610
O O7 0.386864 0.634474 0.688007
O O8 0.361366 0.651787 0.516189
O O9 0.750000 0.413851 0.884214
O O10 0.624757 0.500000 0.857542
O O11 0.648071 0.337928 0.788988
O O12 0.635330 0.358788 0.968530
O O13 0.250000 0.127715 0.223924
O O14 0.398388 0.175521 0.231738
O O15 0.356514 0.000000 0.222935
O O16 0.956865 0.500000 0.225902
O O17 0.890236 0.359511 0.140677
O O18 0.006216 0.322538 0.227238
O O19 0.500000 0.297243 0.500000
O O20 0.592553 0.293672 0.634704
O O21 0.250000 0.350628 0.915408
O O22 0.172312 0.500000 0.934618
#
# Coordination Sequence:
#
# PCOD8208339 Si02
#       8
#     8   8   8   8   8   8   8   8
#     4   8  15  29  49  69  88 114 151 196 242 286
#     4  10  21  35  49  64  86 127 178 210 223 255
#     4   9  18  31  47  71 100 125 151 188 236 293
#     4   8  15  29  48  68  91 122 159 195 231 278
#     4  10  19  31  48  69  94 126 161 198 237 278
#     4  11  21  33  45  66  97 130 161 196 240 277
#     4  11  20  30  46  70 100 126 153 189 242 287
#     4   8  15  30  50  69  92 122 157 199 242 282
#
# _framework density 16.262146999999999
#
# number of rings (size 3 to 8) (size 9 to 14) (size 15 to 20)
#    0.000    2.625    1.250    3.000    0.000    5.000 
#    0.000    3.125    0.000    0.000    0.000    1.750 
#    0.000    2.500    0.000    0.500    0.000    0.250 
#
# Total GULP energy -792950.578601 kJ/mol
# GULP energy per Si atom -12389.852791 kJ/mol
# Density = 1.622513 g / cm^3
# Si number density = 16.262147 Si / 1000 Ang^3
#
#
#
# Elastic Constant Matrix: (Units=GPa)
#
#
# Indices 1 2 3 4 5 6 
#
# 1 74.5223 49.9743 27.7939 0.0000 0.0000 0.0000
# 2 49.9743 71.8604 37.9200 0.0000 0.0000 0.0000
# 3 27.7939 37.9200 83.9467 0.0000 0.0000 0.0000
# 4 0.0000 0.0000 0.0000 4.7734 0.0000 0.0000
# 5 0.0000 0.0000 0.0000 0.0000 17.9172 0.0000
# 6 0.0000 0.0000 0.0000 0.0000 0.0000 26.5037
#
#
#
# Elastic Compliance Matrix: (Units=1/GPa)
#
#
# Indices 1 2 3 4 5 6 
#
# 1 0.025166 -0.017206 -0.000560 0.000000 0.000000 0.000000
# 2 -0.017206 0.030034 -0.007870 0.000000 0.000000 0.000000
# 3 -0.000560 -0.007870 0.015653 0.000000 0.000000 0.000000
# 4 0.000000 0.000000 0.000000 0.209493 0.000000 0.000000
# 5 0.000000 0.000000 0.000000 0.000000 0.055812 0.000000
# 6 0.000000 0.000000 0.000000 0.000000 0.000000 0.037731
#
#
# Mechanical properties :
#
#
# Convention : Reuss Voigt Hill
#
# Bulk Modulus (GPa) = 51.07023 51.30067 51.18545
# Shear Modulus (GPa) = 11.58244 17.48163 14.53203
#
# Velocity S-wave (km/s) = 2.67167 3.28226 2.99258
# Velocity P-wave (km/s) = 6.40231 6.78077 6.59426
#
# Compressibility (1/GPa) = 0.01958088
#
# Stress axis : x y z
#
# Youngs Moduli (GPa) = 39.73674 33.29524 63.88578
#
# Poissons Ratio (x) = 0.57286 0.03578
# Poissons Ratio (y) = 0.68369 0.50281
# Poissons Ratio (z) = 0.02226 0.26205
#
# Static dielectric constant tensor:
#      x y z
#    x 3.167090 0.000000 0.000000 
#    y 0.000000 3.206310 0.000000 
#    z 0.000000 0.000000 3.071480 
# 
# 
# High freq. dielectric constant tensor:
#      x y z
#    x 1.626900 0.000000 0.000000 
#    y 0.000000 1.604290 0.000000 
#    z 0.000000 0.000000 1.606830 
# 
# From -- ./inp_files/25332.got.cif
#   From: 2010.03.12/outbox.cif.g09.slc.cpg/sg51_13_cif.got.tgz:25332.got - 2010.04.16 13:43:02.
