data_PCOD8208715
_publ_section_title
;
Structure prediction by ZEFSAII (Michael W. Deem and Ramdas Pophale) SiO2 
 PCOD8208715
Probable space group: P M M A
;
_chemical_formula_sum "Si O2"
_cell_formula_units_Z 56
_cell_length_a 8.964633
_cell_length_b 21.262323
_cell_length_c 18.594708
_cell_angle_alpha 90.000000
_cell_angle_beta 90.000000
_cell_angle_gamma 90.000000
_cell_volume 3544.317255
_symmetry_space_group_name_H-M "P M M A"
_symmetry_group_IT_number 51
_symmetry_cell_setting 'orthorhombic'
loop_
_space_group_symop_operation_xyz
x,y,z
1/2-x,-y,z
1/2+x,-y,-z
-x,y,-z
-x,-y,-z
1/2+x,y,-z
1/2-x,y,z
x,-y,z
loop_
_atom_site_type_symbol
_atom_site_label
_atom_site_fract_x
_atom_site_fract_y
_atom_site_fract_z
Si Si1 0.576375 0.427263 0.074316
Si Si2 0.913782 0.872835 0.790285
Si Si3 0.578767 0.072414 0.335946
Si Si4 0.087439 0.255612 0.295422
Si Si5 0.070883 0.178948 0.423402
Si Si6 0.573723 0.799272 0.924264
Si Si7 0.428664 0.322927 0.161099
O O1 0.750000 0.411810 0.067763
O O2 0.546508 0.500000 0.091684
O O3 0.503760 0.388189 0.138940
O O4 0.500000 0.407117 0.000000
O O5 0.750000 0.905274 0.794466
O O6 0.894440 0.807311 0.750111
O O7 0.974466 0.855881 0.870098
O O8 0.025991 0.917586 0.746571
O O9 0.750000 0.093712 0.341838
O O10 0.481738 0.111860 0.392695
O O11 0.558626 0.000000 0.356985
O O12 0.250000 0.282552 0.315112
O O13 0.009574 0.235419 0.370778
O O14 0.009321 0.306379 0.242214
O O15 0.250000 0.178231 0.427281
O O16 0.000000 0.192310 0.500000
O O17 0.750000 0.798871 0.933139
O O18 0.520323 0.731508 0.894221
O O19 0.500000 0.813468 0.000000
O O20 0.250000 0.329001 0.162379
#
# Coordination Sequence:
#
# PCOD8208715 Si02
#       7
#     8   8   8   8   8   8   8
#     4  10  20  31  41  57  85 120 155 188 220 252
#     4   8  15  29  45  60  81 109 139 171 212 258
#     4  10  20  32  46  65  86 109 141 177 210 248
#     4   7  13  27  45  63  84 110 137 169 208 249
#     4  10  19  32  49  68  92 118 141 167 204 249
#     4   9  17  27  41  63  87 109 136 175 220 262
#     4   9  16  28  45  63  84 111 145 179 211 251
#
# _framework density 15.799939999999999
#
# number of rings (size 3 to 8) (size 9 to 14) (size 15 to 20)
#    0.000    3.000    0.000    4.286    0.000    4.571 
#    0.000    6.429    0.000    0.429    0.000    0.000 
#    0.000    0.571    0.000    1.286    0.000    2.286 
#
# Total GULP energy -693804.126007 kJ/mol
# GULP energy per Si atom -12389.359393 kJ/mol
# Density = 1.576398 g / cm^3
# Si number density = 15.799940 Si / 1000 Ang^3
#
#
#
# Elastic Constant Matrix: (Units=GPa)
#
#
# Indices 1 2 3 4 5 6 
#
# 1 60.1956 30.0173 43.8530 0.0000 0.0000 0.0000
# 2 30.0173 55.7063 49.5546 0.0000 0.0000 0.0000
# 3 43.8530 49.5546 140.5719 0.0000 0.0000 0.0000
# 4 0.0000 0.0000 0.0000 21.0153 0.0000 0.0000
# 5 0.0000 0.0000 0.0000 0.0000 24.8405 0.0000
# 6 0.0000 0.0000 0.0000 0.0000 0.0000 20.0251
#
#
#
# Elastic Compliance Matrix: (Units=1/GPa)
#
#
# Indices 1 2 3 4 5 6 
#
# 1 0.024407 -0.009292 -0.004338 0.000000 0.000000 0.000000
# 2 -0.009292 0.029690 -0.007568 0.000000 0.000000 0.000000
# 3 -0.004338 -0.007568 0.011135 0.000000 0.000000 0.000000
# 4 0.000000 0.000000 0.000000 0.047584 0.000000 0.000000
# 5 0.000000 0.000000 0.000000 0.000000 0.040257 0.000000
# 6 0.000000 0.000000 0.000000 0.000000 0.000000 0.049937
#
#
# Mechanical properties :
#
#
# Convention : Reuss Voigt Hill
#
# Bulk Modulus (GPa) = 43.79135 55.92484 49.85809
# Shear Modulus (GPa) = 19.76139 22.04613 20.90376
#
# Velocity S-wave (km/s) = 3.54040 3.73946 3.64129
# Velocity P-wave (km/s) = 6.67000 7.35644 7.02161
#
# Compressibility (1/GPa) = 0.02283556
#
# Stress axis : x y z
#
# Youngs Moduli (GPa) = 40.97247 33.68093 89.80790
#
# Poissons Ratio (x) = 0.31298 0.38960
# Poissons Ratio (y) = 0.38073 0.67963
# Poissons Ratio (z) = 0.17774 0.25488
#
# Static dielectric constant tensor:
#      x y z
#    x 2.975860 0.000000 0.000000 
#    y 0.000000 2.832460 0.000000 
#    z 0.000000 0.000000 3.338810 
# 
# 
# High freq. dielectric constant tensor:
#      x y z
#    x 1.598920 0.000000 0.000000 
#    y 0.000000 1.572090 0.000000 
#    z 0.000000 0.000000 1.603510 
# 
# From -- ./inp_files/28276.got.cif
#   From: 2010.03.12/outbox.cif.g09.slc.cpg/sg51_15_cif.got.tgz:28276.got - 2010.04.16 13:43:02.
