data_PCOD8208911
_publ_section_title
;
Structure prediction by ZEFSAII (Michael W. Deem and Ramdas Pophale) SiO2 
 PCOD8208911
Probable space group: P M M A
;
_chemical_formula_sum "Si O2"
_cell_formula_units_Z 64
_cell_length_a 19.850865
_cell_length_b 9.379599
_cell_length_c 19.776080
_cell_angle_alpha 90.000000
_cell_angle_beta 90.000000
_cell_angle_gamma 90.000000
_cell_volume 3682.170699
_symmetry_space_group_name_H-M "P M M A"
_symmetry_group_IT_number 51
_symmetry_cell_setting 'orthorhombic'
loop_
_space_group_symop_operation_xyz
x,y,z
1/2-x,-y,z
1/2+x,-y,-z
-x,y,-z
-x,-y,-z
1/2+x,y,-z
1/2-x,y,z
x,-y,z
loop_
_atom_site_type_symbol
_atom_site_label
_atom_site_fract_x
_atom_site_fract_y
_atom_site_fract_z
Si Si1 0.673253 0.162567 0.422488
Si Si2 0.328236 0.166086 0.093446
Si Si3 0.108315 0.664822 0.690015
Si Si4 0.571287 0.333150 0.815169
Si Si5 0.430222 0.832263 0.466572
Si Si6 0.672415 0.666008 0.041455
Si Si7 0.078801 0.668970 0.837044
Si Si8 0.455042 0.661969 0.338704
O O1 0.750000 0.177336 0.445218
O O2 0.662028 0.249831 0.353970
O O3 0.629025 0.221896 0.484374
O O4 0.652831 0.000000 0.407093
O O5 0.250000 0.189134 0.110691
O O6 0.370567 0.237798 0.152822
O O7 0.346390 0.000000 0.087308
O O8 0.347236 0.242539 0.023544
O O9 0.129172 0.500000 0.689081
O O10 0.109383 0.726889 0.766518
O O11 0.034742 0.688304 0.658707
O O12 0.584223 0.500000 0.830216
O O13 0.499040 0.283747 0.845926
O O14 0.573249 0.302051 0.735372
O O15 0.500000 0.782687 0.500000
O O16 0.419192 0.761118 0.393674
O O17 0.427969 0.000000 0.454867
O O18 0.750000 0.690057 0.062639
O O19 0.658473 0.500000 0.025758
O O20 0.624767 0.723662 0.101474
O O21 0.079712 0.500000 0.831827
O O22 0.438215 0.500000 0.357473
#
# Coordination Sequence:
#
# PCOD8208911 Si02
#       8
#     8   8   8   8   8   8   8   8
#     4  10  21  35  48  68 101 134 165 205 249 292
#     4  10  21  36  52  72 100 132 168 211 256 301
#     4   9  17  31  51  74 100 129 162 200 244 294
#     4   9  18  34  54  76 103 132 164 205 253 303
#     4  10  19  32  52  74  95 130 175 207 238 292
#     4   9  17  31  52  74  97 132 174 208 243 295
#     4   8  16  31  51  77 105 131 164 206 247 290
#     4   9  18  32  52  78 102 125 159 206 253 293
#
# _framework density 17.381050999999999
#
# number of rings (size 3 to 8) (size 9 to 14) (size 15 to 20)
#    0.000    2.750    1.250    1.875    0.000    3.250 
#    0.000    7.500    0.000    3.750    0.000    0.000 
#    0.000    0.000    0.000    0.000    0.000    0.000 
#
# Total GULP energy -793586.894008 kJ/mol
# GULP energy per Si atom -12399.795219 kJ/mol
# Density = 1.734149 g / cm^3
# Si number density = 17.381051 Si / 1000 Ang^3
#
#
#
# Elastic Constant Matrix: (Units=GPa)
#
#
# Indices 1 2 3 4 5 6 
#
# 1 85.1518 40.8622 64.1286 0.0000 0.0000 0.0000
# 2 40.8622 63.2990 55.7744 0.0000 0.0000 0.0000
# 3 64.1286 55.7744 120.1792 0.0000 0.0000 0.0000
# 4 0.0000 0.0000 0.0000 8.5417 0.0000 0.0000
# 5 0.0000 0.0000 0.0000 0.0000 32.4190 0.0000
# 6 0.0000 0.0000 0.0000 0.0000 0.0000 22.7068
#
#
#
# Elastic Compliance Matrix: (Units=1/GPa)
#
#
# Indices 1 2 3 4 5 6 
#
# 1 0.020991 -0.006228 -0.008311 0.000000 0.000000 0.000000
# 2 -0.006228 0.028575 -0.009938 0.000000 0.000000 0.000000
# 3 -0.008311 -0.009938 0.017368 0.000000 0.000000 0.000000
# 4 0.000000 0.000000 0.000000 0.117072 0.000000 0.000000
# 5 0.000000 0.000000 0.000000 0.000000 0.030846 0.000000
# 6 0.000000 0.000000 0.000000 0.000000 0.000000 0.044040
#
#
# Mechanical properties :
#
#
# Convention : Reuss Voigt Hill
#
# Bulk Modulus (GPa) = 55.61596 65.57338 60.59467
# Shear Modulus (GPa) = 15.93166 19.92448 17.92807
#
# Velocity S-wave (km/s) = 3.03084 3.38943 3.21514
# Velocity P-wave (km/s) = 6.65699 7.28879 6.98004
#
# Compressibility (1/GPa) = 0.01798045
#
# Stress axis : x y z
#
# Youngs Moduli (GPa) = 47.63879 34.99504 57.57726
#
# Poissons Ratio (x) = 0.21795 0.47851
# Poissons Ratio (y) = 0.29669 0.57223
# Poissons Ratio (z) = 0.39591 0.34780
#
# Static dielectric constant tensor:
#      x y z
#    x 3.176090 0.000000 0.000000 
#    y 0.000000 3.054210 0.000000 
#    z 0.000000 0.000000 3.280260 
# 
# 
# High freq. dielectric constant tensor:
#      x y z
#    x 1.661980 0.000000 0.000000 
#    y 0.000000 1.654360 0.000000 
#    z 0.000000 0.000000 1.675870 
# 
# From -- ./inp_files/33894.got.cif
#   From: 2010.03.12/outbox.cif.g09.slc.cpg/sg51_17_cif.got.tgz:33894.got - 2010.04.16 13:43:02.
