data_PCOD8208295
_publ_section_title
;
Structure prediction by ZEFSAII (Michael W. Deem and Ramdas Pophale) SiO2 
 PCOD8208295
Probable space group: P M M A
;
_chemical_formula_sum "Si O2"
_cell_formula_units_Z 52
_cell_length_a 29.923543
_cell_length_b 14.085186
_cell_length_c 6.497618
_cell_angle_alpha 90.000000
_cell_angle_beta 90.000000
_cell_angle_gamma 90.000000
_cell_volume 2738.607386
_symmetry_space_group_name_H-M "P M M A"
_symmetry_group_IT_number 51
_symmetry_cell_setting 'orthorhombic'
loop_
_space_group_symop_operation_xyz
x,y,z
1/2-x,-y,z
1/2+x,-y,-z
-x,y,-z
-x,-y,-z
1/2+x,y,-z
1/2-x,y,z
x,-y,z
loop_
_atom_site_type_symbol
_atom_site_label
_atom_site_fract_x
_atom_site_fract_y
_atom_site_fract_z
Si Si1 0.139595 0.766727 0.690459
Si Si2 0.199584 0.737020 0.303345
Si Si3 0.958183 0.766423 0.378934
Si Si4 0.853418 0.387976 0.967385
Si Si5 0.565090 0.604737 0.684768
Si Si6 0.301038 0.891139 0.975732
Si Si7 0.500000 0.320286 0.000000
O O1 0.165920 0.730178 0.492395
O O2 0.091276 0.813942 0.626833
O O3 0.132980 0.672331 0.830731
O O4 0.166943 0.849161 0.801465
O O5 0.250000 0.726496 0.385986
O O6 0.192016 0.653675 0.132691
O O7 0.192108 0.838153 0.192223
O O8 0.950072 0.667978 0.495875
O O9 0.971656 0.750179 0.143963
O O10 0.000000 0.819651 0.500000
O O11 0.849530 0.500000 0.022952
O O12 0.888017 0.366635 0.784282
O O13 0.566878 0.500000 0.592537
O O14 0.530148 0.609780 0.869284
O O15 0.250000 0.880143 0.898744
O O16 0.314053 0.000000 0.012609
#
# Coordination Sequence:
#
# PCOD8208295 Si02
#       7
#     8   8   8   8   8   8   4
#     4  11  20  36  58  82 111 149 187 227 276 332
#     4  10  21  37  57  80 109 142 179 225 276 332
#     4  10  21  32  49  76 108 145 190 228 276 327
#     4  10  21  35  52  75 110 151 193 233 268 316
#     4  10  19  31  47  70 102 143 188 236 279 316
#     4   9  20  38  61  89 113 133 169 225 287 344
#     4  10  19  32  46  70 103 140 188 240 281 320
#
# _framework density 18.987753999999999
#
# number of rings (size 3 to 8) (size 9 to 14) (size 15 to 20)
#    0.000    2.000    3.077    0.692    0.000    6.154 
#    0.000    1.538    0.000    0.462    0.000    1.615 
#    0.000    0.000    0.000    0.000    0.000    0.000 
#
# Total GULP energy -644390.569495 kJ/mol
# GULP energy per Si atom -12392.126336 kJ/mol
# Density = 1.894454 g / cm^3
# Si number density = 18.987754 Si / 1000 Ang^3
#
#
#
# Elastic Constant Matrix: (Units=GPa)
#
#
# Indices 1 2 3 4 5 6 
#
# 1 115.8219 21.0503 35.4840 0.0000 0.0000 0.0000
# 2 21.0503 73.1163 15.2095 0.0000 0.0000 0.0000
# 3 35.4840 15.2095 76.7621 0.0000 0.0000 0.0000
# 4 0.0000 0.0000 0.0000 18.4422 0.0000 0.0000
# 5 0.0000 0.0000 0.0000 0.0000 31.0291 0.0000
# 6 0.0000 0.0000 0.0000 0.0000 0.0000 19.9230
#
#
#
# Elastic Compliance Matrix: (Units=1/GPa)
#
#
# Indices 1 2 3 4 5 6 
#
# 1 0.010350 -0.002070 -0.004374 0.000000 0.000000 0.000000
# 2 -0.002070 0.014679 -0.001952 0.000000 0.000000 0.000000
# 3 -0.004374 -0.001952 0.015436 0.000000 0.000000 0.000000
# 4 0.000000 0.000000 0.000000 0.054224 0.000000 0.000000
# 5 0.000000 0.000000 0.000000 0.000000 0.032228 0.000000
# 6 0.000000 0.000000 0.000000 0.000000 0.000000 0.050193
#
#
# Mechanical properties :
#
#
# Convention : Reuss Voigt Hill
#
# Bulk Modulus (GPa) = 42.24168 45.46533 43.85350
# Shear Modulus (GPa) = 24.77792 26.80930 25.79361
#
# Velocity S-wave (km/s) = 3.61632 3.76164 3.68969
# Velocity P-wave (km/s) = 6.30334 6.54699 6.42632
#
# Compressibility (1/GPa) = 0.02367330
#
# Stress axis : x y z
#
# Youngs Moduli (GPa) = 96.61540 68.12579 64.78340
#
# Poissons Ratio (x) = 0.14101 0.28339
# Poissons Ratio (y) = 0.19999 0.12643
# Poissons Ratio (z) = 0.42263 0.13295
#
# Static dielectric constant tensor:
#      x y z
#    x 3.955020 0.000000 0.000000 
#    y 0.000000 3.076880 0.000000 
#    z 0.000000 0.000000 3.489850 
# 
# 
# High freq. dielectric constant tensor:
#      x y z
#    x 1.757210 0.000000 0.000000 
#    y 0.000000 1.691120 0.000000 
#    z 0.000000 0.000000 1.746680 
# 
# From -- ./inp_files/4005.got.cif
#   From: 2010.03.12/outbox.cif.g09.slc.cpg/sg51_3_cif.got.tgz:4005.got - 2010.04.16 13:43:02.
