data_PCOD8208101
_publ_section_title
;
Structure prediction by ZEFSAII (Michael W. Deem and Ramdas Pophale) SiO2 
 PCOD8208101
Probable space group: P M M A
;
_chemical_formula_sum "Si O2"
_cell_formula_units_Z 48
_cell_length_a 9.168416
_cell_length_b 19.457128
_cell_length_c 15.476456
_cell_angle_alpha 90.000000
_cell_angle_beta 90.000000
_cell_angle_gamma 90.000000
_cell_volume 2760.861138
_symmetry_space_group_name_H-M "P M M A"
_symmetry_group_IT_number 51
_symmetry_cell_setting 'orthorhombic'
loop_
_space_group_symop_operation_xyz
x,y,z
1/2-x,-y,z
1/2+x,-y,-z
-x,y,-z
-x,-y,-z
1/2+x,y,-z
1/2-x,y,z
x,-y,z
loop_
_atom_site_type_symbol
_atom_site_label
_atom_site_fract_x
_atom_site_fract_y
_atom_site_fract_z
Si Si1 0.409454 0.328811 0.078543
Si Si2 0.576807 0.824619 0.256926
Si Si3 0.414494 0.165829 0.082488
Si Si4 0.579501 0.421946 0.585750
Si Si5 0.080149 0.078480 0.585043
Si Si6 0.423496 0.682753 0.266746
O O1 0.250000 0.361002 0.068669
O O2 0.404752 0.247068 0.071117
O O3 0.472501 0.347320 0.173233
O O4 0.500000 0.361624 0.000000
O O5 0.750000 0.817858 0.242666
O O6 0.503367 0.852452 0.169134
O O7 0.535090 0.878023 0.331542
O O8 0.510915 0.751977 0.286759
O O9 0.250000 0.135232 0.087290
O O10 0.500000 0.134020 0.000000
O O11 0.500000 0.395568 0.500000
O O12 0.750000 0.415971 0.568766
O O13 0.533621 0.500000 0.608060
O O14 0.529882 0.373882 0.664027
O O15 0.250000 0.085094 0.566279
O O16 0.000000 0.107503 0.500000
O O17 0.033287 0.000000 0.603055
O O18 0.250000 0.698636 0.266417
#
# Coordination Sequence:
#
# PCOD8208101 Si02
#       6
#     8   8   8   8   8   8
#     4   8  14  24  39  60  86 116 146 177 215 259
#     4  10  19  30  47  72  98 123 154 194 238 279
#     4   9  16  27  44  67  96 127 157 190 230 276
#     4   9  18  33  51  68  88 119 157 193 232 280
#     4   9  19  35  52  69  91 122 159 196 235 282
#     4   9  18  31  46  67  95 123 152 189 233 278
#
# _framework density 17.385878999999999
#
# number of rings (size 3 to 8) (size 9 to 14) (size 15 to 20)
#    0.000    3.000    0.000    2.000    0.000    6.667 
#    0.000    3.333    0.000    1.000    0.000    0.000 
#    0.000    0.000    0.000    0.000    0.000    1.833 
#
# Total GULP energy -595023.902510 kJ/mol
# GULP energy per Si atom -12396.331302 kJ/mol
# Density = 1.734631 g / cm^3
# Si number density = 17.385879 Si / 1000 Ang^3
#
#
#
# Elastic Constant Matrix: (Units=GPa)
#
#
# Indices 1 2 3 4 5 6 
#
# 1 78.1022 35.9523 71.6587 0.0000 0.0000 0.0000
# 2 35.9523 53.8319 69.2142 0.0000 0.0000 0.0000
# 3 71.6587 69.2142 182.0808 0.0000 0.0000 0.0000
# 4 0.0000 0.0000 0.0000 3.1234 0.0000 0.0000
# 5 0.0000 0.0000 0.0000 0.0000 35.6092 0.0000
# 6 0.0000 0.0000 0.0000 0.0000 0.0000 15.3619
#
#
#
# Elastic Compliance Matrix: (Units=1/GPa)
#
#
# Indices 1 2 3 4 5 6 
#
# 1 0.021212 -0.006715 -0.005795 0.000000 0.000000 0.000000
# 2 -0.006715 0.038461 -0.011977 0.000000 0.000000 0.000000
# 3 -0.005795 -0.011977 0.012326 0.000000 0.000000 0.000000
# 4 0.000000 0.000000 0.000000 0.320169 0.000000 0.000000
# 5 0.000000 0.000000 0.000000 0.000000 0.028083 0.000000
# 6 0.000000 0.000000 0.000000 0.000000 0.000000 0.065096
#
#
# Mechanical properties :
#
#
# Convention : Reuss Voigt Hill
#
# Bulk Modulus (GPa) = 43.43509 74.18505 58.81007
# Shear Modulus (GPa) = 9.22514 19.96487 14.59500
#
# Velocity S-wave (km/s) = 2.30600 3.39239 2.90051
# Velocity P-wave (km/s) = 5.66810 7.62278 6.71692
#
# Compressibility (1/GPa) = 0.02302286
#
# Stress axis : x y z
#
# Youngs Moduli (GPa) = 47.14238 26.00036 81.13051
#
# Poissons Ratio (x) = 0.17460 0.47019
# Poissons Ratio (y) = 0.31658 0.97172
# Poissons Ratio (z) = 0.27321 0.31141
#
# Static dielectric constant tensor:
#      x y z
#    x 3.353440 0.000000 0.000000 
#    y 0.000000 2.902730 0.000000 
#    z 0.000000 0.000000 3.518040 
# 
# 
# High freq. dielectric constant tensor:
#      x y z
#    x 1.674770 0.000000 0.000000 
#    y 0.000000 1.624200 0.000000 
#    z 0.000000 0.000000 1.687560 
# 
# From -- ./inp_files/21065.got.cif
#   From: 2010.03.12/outbox.cif.g09.slc.cpg/sg51_11_cif.got.tgz:21065.got - 2010.04.16 13:43:02.
