data_PCOD8208125
_publ_section_title
;
Structure prediction by ZEFSAII (Michael W. Deem and Ramdas Pophale) SiO2 
 PCOD8208125
Probable space group: P M M A
;
_chemical_formula_sum "Si O2"
_cell_formula_units_Z 64
_cell_length_a 8.861172
_cell_length_b 20.101257
_cell_length_c 19.776291
_cell_angle_alpha 90.000000
_cell_angle_beta 90.000000
_cell_angle_gamma 90.000000
_cell_volume 3522.566711
_symmetry_space_group_name_H-M "P M M A"
_symmetry_group_IT_number 51
_symmetry_cell_setting 'orthorhombic'
loop_
_space_group_symop_operation_xyz
x,y,z
1/2-x,-y,z
1/2+x,-y,-z
-x,y,-z
-x,-y,-z
1/2+x,y,-z
1/2-x,y,z
x,-y,z
loop_
_atom_site_type_symbol
_atom_site_label
_atom_site_fract_x
_atom_site_fract_y
_atom_site_fract_z
Si Si1 0.572395 0.190574 0.927376
Si Si2 0.574150 0.879994 0.564276
Si Si3 0.576841 0.924871 0.155590
Si Si4 0.574491 0.737034 0.288652
Si Si5 0.575482 0.577646 0.070269
Si Si6 0.073318 0.119708 0.286703
Si Si7 0.576172 0.263402 0.437004
Si Si8 0.427850 0.682726 0.162519
O O1 0.750000 0.185387 0.936502
O O2 0.515239 0.122733 0.893913
O O3 0.525789 0.252626 0.880746
O O4 0.500000 0.201709 0.000000
O O5 0.500000 0.919567 0.500000
O O6 0.750000 0.875110 0.550321
O O7 0.543353 0.912069 0.638417
O O8 0.503010 0.807527 0.566615
O O9 0.750000 0.901633 0.156444
O O10 0.513179 0.924052 0.231796
O O11 0.561254 0.000000 0.128055
O O12 0.750000 0.751979 0.274571
O O13 0.482496 0.804924 0.281919
O O14 0.553512 0.703453 0.363183
O O15 0.508095 0.685336 0.235179
O O16 0.750000 0.598611 0.067721
O O17 0.555239 0.500000 0.085084
O O18 0.489189 0.616091 0.128810
O O19 0.500000 0.598332 0.000000
O O20 0.250000 0.119615 0.269439
O O21 0.500000 0.304103 0.500000
O O22 0.750000 0.253622 0.454166
O O23 0.250000 0.677436 0.172082
#
# Coordination Sequence:
#
# PCOD8208125 Si02
#       8
#     8   8   8   8   8   8   8   8
#     4  11  24  40  59  82 106 134 169 211 262 315
#     4   9  16  25  41  66  95 126 162 203 249 303
#     4  11  24  40  58  78  99 129 170 216 267 321
#     4  10  19  30  48  73 104 139 175 217 262 309
#     4  10  21  37  57  81 111 148 186 222 262 308
#     4  10  19  32  50  73 100 131 168 211 260 314
#     4   9  16  25  39  63  95 134 172 209 256 304
#     4  11  22  35  55  83 112 143 180 219 262 310
#
# _framework density 18.168569999999999
#
# number of rings (size 3 to 8) (size 9 to 14) (size 15 to 20)
#    0.000    1.875    1.250    4.125    0.000    7.500 
#    0.000    0.000    0.000    0.375    0.000    0.000 
#    0.000    0.500    0.000    1.625    0.000    2.250 
#
# Total GULP energy -793365.824172 kJ/mol
# GULP energy per Si atom -12396.341003 kJ/mol
# Density = 1.812722 g / cm^3
# Si number density = 18.168570 Si / 1000 Ang^3
#
#
#
# Elastic Constant Matrix: (Units=GPa)
#
#
# Indices 1 2 3 4 5 6 
#
# 1 96.2856 21.6660 57.8927 0.0000 0.0000 0.0000
# 2 21.6660 41.5712 29.5192 0.0000 0.0000 0.0000
# 3 57.8927 29.5192 132.8180 0.0000 0.0000 0.0000
# 4 0.0000 0.0000 0.0000 15.7413 0.0000 0.0000
# 5 0.0000 0.0000 0.0000 0.0000 37.1929 0.0000
# 6 0.0000 0.0000 0.0000 0.0000 0.0000 21.1398
#
#
#
# Elastic Compliance Matrix: (Units=1/GPa)
#
#
# Indices 1 2 3 4 5 6 
#
# 1 0.014526 -0.003651 -0.005520 0.000000 0.000000 0.000000
# 2 -0.003651 0.029481 -0.004961 0.000000 0.000000 0.000000
# 3 -0.005520 -0.004961 0.011038 0.000000 0.000000 0.000000
# 4 0.000000 0.000000 0.000000 0.063527 0.000000 0.000000
# 5 0.000000 0.000000 0.000000 0.000000 0.026887 0.000000
# 6 0.000000 0.000000 0.000000 0.000000 0.000000 0.047304
#
#
# Mechanical properties :
#
#
# Convention : Reuss Voigt Hill
#
# Bulk Modulus (GPa) = 37.34033 54.31453 45.82743
# Shear Modulus (GPa) = 21.74348 25.58792 23.66570
#
# Velocity S-wave (km/s) = 3.46318 3.75689 3.61302
# Velocity P-wave (km/s) = 6.04882 6.98417 6.53326
#
# Compressibility (1/GPa) = 0.02678070
#
# Stress axis : x y z
#
# Youngs Moduli (GPa) = 68.83981 33.92071 90.59723
#
# Poissons Ratio (x) = 0.12384 0.50013
# Poissons Ratio (y) = 0.25133 0.44943
# Poissons Ratio (z) = 0.38002 0.16827
#
# Static dielectric constant tensor:
#      x y z
#    x 3.546010 0.000000 0.000000 
#    y 0.000000 2.886900 0.000000 
#    z 0.000000 0.000000 4.159330 
# 
# 
# High freq. dielectric constant tensor:
#      x y z
#    x 1.725990 0.000000 0.000000 
#    y 0.000000 1.645860 0.000000 
#    z 0.000000 0.000000 1.724620 
# 
# From -- ./inp_files/32437.got.cif
#   From: 2010.03.12/outbox.cif.g09.slc.cpg/sg51_17_cif.got.tgz:32437.got - 2010.04.16 13:43:02.
