data_PCOD8208909
_publ_section_title
;
Structure prediction by ZEFSAII (Michael W. Deem and Ramdas Pophale) SiO2 
 PCOD8208909
Probable space group: P M M A
;
_chemical_formula_sum "Si O2"
_cell_formula_units_Z 64
_cell_length_a 17.271787
_cell_length_b 14.664753
_cell_length_c 14.248300
_cell_angle_alpha 90.000000
_cell_angle_beta 90.000000
_cell_angle_gamma 90.000000
_cell_volume 3608.901899
_symmetry_space_group_name_H-M "P M M A"
_symmetry_group_IT_number 51
_symmetry_cell_setting 'orthorhombic'
loop_
_space_group_symop_operation_xyz
x,y,z
1/2-x,-y,z
1/2+x,-y,-z
-x,y,-z
-x,-y,-z
1/2+x,y,-z
1/2-x,y,z
x,-y,z
loop_
_atom_site_type_symbol
_atom_site_label
_atom_site_fract_x
_atom_site_fract_y
_atom_site_fract_z
Si Si1 0.559900 0.598168 0.641715
Si Si2 0.496404 0.102700 0.390946
Si Si3 0.334679 0.678004 0.493216
Si Si4 0.164844 0.167357 0.337269
Si Si5 0.587660 0.395433 0.979877
Si Si6 0.838757 0.324066 0.799121
Si Si7 0.921066 0.273235 0.329006
Si Si8 0.840298 0.604533 0.179540
O O1 0.518956 0.500000 0.649653
O O2 0.606118 0.601301 0.542945
O O3 0.618276 0.607896 0.728517
O O4 0.498242 0.677437 0.638239
O O5 0.500000 0.135312 0.500000
O O6 0.407551 0.100448 0.353205
O O7 0.552054 0.166911 0.326165
O O8 0.528871 0.000000 0.382387
O O9 0.250000 0.633677 0.498087
O O10 0.337203 0.760100 0.420313
O O11 0.353664 0.714842 0.595916
O O12 0.250000 0.117785 0.338363
O O13 0.154825 0.220215 0.238274
O O14 0.589717 0.500000 0.944573
O O15 0.621266 0.329240 0.900446
O O16 0.500000 0.365089 0.000000
O O17 0.640843 0.383159 0.070747
O O18 0.750000 0.355866 0.806363
O O19 0.890990 0.318535 0.232779
O O20 0.750000 0.623549 0.196698
O O21 0.861248 0.500000 0.211057
#
# Coordination Sequence:
#
# PCOD8208909 Si02
#       8
#     8   8   8   8   8   8   8   8
#     4  11  21  31  48  74 103 137 176 216 260 313
#     4  11  21  36  58  82 107 140 178 220 277 332
#     4  10  20  33  49  68 100 139 175 213 260 311
#     4   9  18  34  53  78 105 134 171 215 267 326
#     4  10  20  33  50  77 109 141 182 227 264 306
#     4  10  19  32  52  74 104 140 172 211 264 313
#     4  12  20  36  53  73 104 142 177 225 267 310
#     4  10  22  37  53  76 109 151 193 224 259 311
#
# _framework density 17.733927000000001
#
# number of rings (size 3 to 8) (size 9 to 14) (size 15 to 20)
#    0.000    1.625    3.750    3.750    0.000    5.000 
#    0.000    0.000    0.000    1.500    0.000    1.750 
#    0.000    2.000    0.000    0.000    0.000    0.000 
#
# Total GULP energy -793291.736556 kJ/mol
# GULP energy per Si atom -12395.183384 kJ/mol
# Density = 1.769356 g / cm^3
# Si number density = 17.733927 Si / 1000 Ang^3
#
#
#
# Elastic Constant Matrix: (Units=GPa)
#
#
# Indices 1 2 3 4 5 6 
#
# 1 86.8123 20.6088 28.4990 0.0000 0.0000 0.0000
# 2 20.6088 70.3096 22.0095 0.0000 0.0000 0.0000
# 3 28.4990 22.0095 76.7892 0.0000 0.0000 0.0000
# 4 0.0000 0.0000 0.0000 13.1748 0.0000 0.0000
# 5 0.0000 0.0000 0.0000 0.0000 30.6281 0.0000
# 6 0.0000 0.0000 0.0000 0.0000 0.0000 10.9529
#
#
#
# Elastic Compliance Matrix: (Units=1/GPa)
#
#
# Indices 1 2 3 4 5 6 
#
# 1 0.013547 -0.002633 -0.004273 0.000000 0.000000 0.000000
# 2 -0.002633 0.016137 -0.003648 0.000000 0.000000 0.000000
# 3 -0.004273 -0.003648 0.015654 0.000000 0.000000 0.000000
# 4 0.000000 0.000000 0.000000 0.075902 0.000000 0.000000
# 5 0.000000 0.000000 0.000000 0.000000 0.032650 0.000000
# 6 0.000000 0.000000 0.000000 0.000000 0.000000 0.091300
#
#
# Mechanical properties :
#
#
# Convention : Reuss Voigt Hill
#
# Bulk Modulus (GPa) = 41.27197 41.79397 41.53297
# Shear Modulus (GPa) = 18.22328 21.80408 20.01368
#
# Velocity S-wave (km/s) = 3.20909 3.51024 3.36304
# Velocity P-wave (km/s) = 6.08723 6.32831 6.20894
#
# Compressibility (1/GPa) = 0.02422952
#
# Stress axis : x y z
#
# Youngs Moduli (GPa) = 73.81724 61.97115 63.88120
#
# Poissons Ratio (x) = 0.16318 0.27296
# Poissons Ratio (y) = 0.19438 0.23303
# Poissons Ratio (z) = 0.31542 0.22606
#
# Static dielectric constant tensor:
#      x y z
#    x 3.546930 0.000000 0.000000 
#    y 0.000000 2.983380 0.000000 
#    z 0.000000 0.000000 3.225660 
# 
# 
# High freq. dielectric constant tensor:
#      x y z
#    x 1.703900 0.000000 0.000000 
#    y 0.000000 1.646720 0.000000 
#    z 0.000000 0.000000 1.672670 
# 
# From -- ./inp_files/17538.got.cif
#   From: 2010.03.12/outbox.cif.g09.slc.cpg/sg51_9_cif.got.tgz:17538.got - 2010.04.16 13:43:02.
