data_PCOD8208197
_publ_section_title
;
Structure prediction by ZEFSAII (Michael W. Deem and Ramdas Pophale) SiO2 
 PCOD8208197
Probable space group: P M M A
;
_chemical_formula_sum "Si O2"
_cell_formula_units_Z 64
_cell_length_a 9.246536
_cell_length_b 14.223249
_cell_length_c 30.847868
_cell_angle_alpha 90.000000
_cell_angle_beta 90.000000
_cell_angle_gamma 90.000000
_cell_volume 4056.981542
_symmetry_space_group_name_H-M "P M M A"
_symmetry_group_IT_number 51
_symmetry_cell_setting 'orthorhombic'
loop_
_space_group_symop_operation_xyz
x,y,z
1/2-x,-y,z
1/2+x,-y,-z
-x,y,-z
-x,-y,-z
1/2+x,y,-z
1/2-x,y,z
x,-y,z
loop_
_atom_site_type_symbol
_atom_site_label
_atom_site_fract_x
_atom_site_fract_y
_atom_site_fract_z
Si Si1 0.918622 0.396054 0.830983
Si Si2 0.415744 0.395673 0.744062
Si Si3 0.916641 0.108938 0.207051
Si Si4 0.919040 0.109561 0.626739
Si Si5 0.413757 0.888204 0.541412
Si Si6 0.083113 0.206609 0.703333
Si Si7 0.581130 0.891480 0.957264
Si Si8 0.419748 0.205616 0.129446
O O1 0.750000 0.395216 0.821034
O O2 0.967801 0.500000 0.847502
O O3 0.958226 0.316673 0.866448
O O4 0.993723 0.369022 0.786206
O O5 0.250000 0.391141 0.758997
O O6 0.456217 0.500000 0.726485
O O7 0.443606 0.319076 0.706497
O O8 0.750000 0.127721 0.195978
O O9 0.961067 0.161149 0.251042
O O10 0.009193 0.146387 0.167430
O O11 0.950350 0.000000 0.214012
O O12 0.750000 0.129381 0.620101
O O13 0.003187 0.145588 0.584320
O O14 0.977175 0.167530 0.667179
O O15 0.949433 0.000000 0.635210
O O16 0.500000 0.847614 0.500000
O O17 0.250000 0.848432 0.541602
O O18 0.410913 0.000000 0.539171
O O19 0.250000 0.183000 0.691663
O O20 0.750000 0.876207 0.965060
O O21 0.523025 0.830273 0.916916
O O22 0.544093 0.000000 0.947619
O O23 0.500000 0.855365 0.000000
O O24 0.250000 0.187060 0.132993
#
# Coordination Sequence:
#
# PCOD8208197 Si02
#       8
#     8   8   8   8   8   8   8   8
#     4   9  17  29  46  68  91 114 142 178 221 266
#     4   9  17  30  48  67  87 114 149 188 227 266
#     4  10  20  31  43  63  91 121 152 184 218 260
#     4  10  20  31  43  62  89 123 162 197 229 269
#     4   9  16  27  44  64  87 117 154 196 238 276
#     4  10  19  31  45  62  89 122 153 185 224 269
#     4   9  18  32  48  66  87 112 143 179 219 262
#     4  10  19  31  48  68  90 115 146 182 220 263
#
# _framework density 15.775276
#
# number of rings (size 3 to 8) (size 9 to 14) (size 15 to 20)
#    0.000    2.500    1.250    1.500    0.000    5.000 
#    0.000    1.250    0.000    0.375    0.000    0.000 
#    0.000    0.500    0.000    1.375    0.000    2.000 
#
# Total GULP energy -793519.332630 kJ/mol
# GULP energy per Si atom -12398.739572 kJ/mol
# Density = 1.573937 g / cm^3
# Si number density = 15.775276 Si / 1000 Ang^3
#
#
#
# Elastic Constant Matrix: (Units=GPa)
#
#
# Indices 1 2 3 4 5 6 
#
# 1 62.7684 34.7392 52.3195 0.0000 0.0000 0.0000
# 2 34.7392 78.5939 51.3471 0.0000 0.0000 0.0000
# 3 52.3195 51.3471 115.7744 0.0000 0.0000 0.0000
# 4 0.0000 0.0000 0.0000 6.0076 0.0000 0.0000
# 5 0.0000 0.0000 0.0000 0.0000 30.9090 0.0000
# 6 0.0000 0.0000 0.0000 0.0000 0.0000 17.8972
#
#
#
# Elastic Compliance Matrix: (Units=1/GPa)
#
#
# Indices 1 2 3 4 5 6 
#
# 1 0.027217 -0.005624 -0.009805 0.000000 0.000000 0.000000
# 2 -0.005624 0.019077 -0.005919 0.000000 0.000000 0.000000
# 3 -0.009805 -0.005919 0.015694 0.000000 0.000000 0.000000
# 4 0.000000 0.000000 0.000000 0.166456 0.000000 0.000000
# 5 0.000000 0.000000 0.000000 0.000000 0.032353 0.000000
# 6 0.000000 0.000000 0.000000 0.000000 0.000000 0.055875
#
#
# Mechanical properties :
#
#
# Convention : Reuss Voigt Hill
#
# Bulk Modulus (GPa) = 51.83901 59.32760 55.58330
# Shear Modulus (GPa) = 13.66869 18.87814 16.27341
#
# Velocity S-wave (km/s) = 2.94677 3.46308 3.21530
# Velocity P-wave (km/s) = 6.67159 7.32667 7.00679
#
# Compressibility (1/GPa) = 0.01929049
#
# Stress axis : x y z
#
# Youngs Moduli (GPa) = 36.74110 52.42004 63.71959
#
# Poissons Ratio (x) = 0.29483 0.62479
# Poissons Ratio (y) = 0.20664 0.37716
# Poissons Ratio (z) = 0.36026 0.31028
#
# Static dielectric constant tensor:
#      x y z
#    x 3.127190 0.000000 0.000000 
#    y 0.000000 3.139390 0.000000 
#    z 0.000000 0.000000 2.958150 
# 
# 
# High freq. dielectric constant tensor:
#      x y z
#    x 1.610760 0.000000 0.000000 
#    y 0.000000 1.589910 0.000000 
#    z 0.000000 0.000000 1.590840 
# 
# From -- ./inp_files/37567.got.cif
#   From: 2010.03.12/outbox.cif.g09.slc.cpg/sg51_19_cif.got.tgz:37567.got - 2010.04.16 13:43:02.
