data_PCOD8208314
_publ_section_title
;
Structure prediction by ZEFSAII (Michael W. Deem and Ramdas Pophale) SiO2 
 PCOD8208314
Probable space group: P M M A
;
_chemical_formula_sum "Si O2"
_cell_formula_units_Z 64
_cell_length_a 8.758010
_cell_length_b 23.305047
_cell_length_c 19.012333
_cell_angle_alpha 90.000000
_cell_angle_beta 90.000000
_cell_angle_gamma 90.000000
_cell_volume 3880.528096
_symmetry_space_group_name_H-M "P M M A"
_symmetry_group_IT_number 51
_symmetry_cell_setting 'orthorhombic'
loop_
_space_group_symop_operation_xyz
x,y,z
1/2-x,-y,z
1/2+x,-y,-z
-x,y,-z
-x,-y,-z
1/2+x,y,-z
1/2-x,y,z
x,-y,z
loop_
_atom_site_type_symbol
_atom_site_label
_atom_site_fract_x
_atom_site_fract_y
_atom_site_fract_z
Si Si1 0.430834 0.778063 0.424000
Si Si2 0.070230 0.166157 0.705795
Si Si3 0.928955 0.564595 0.427234
Si Si4 0.430686 0.752043 0.927827
Si Si5 0.926058 0.662592 0.653232
Si Si6 0.073354 0.934085 0.215693
Si Si7 0.071495 0.269460 0.211064
Si Si8 0.071052 0.123589 0.070583
O O1 0.500000 0.788765 0.500000
O O2 0.250000 0.785810 0.425016
O O3 0.502230 0.825156 0.371992
O O4 0.477004 0.714790 0.397094
O O5 0.250000 0.175968 0.704270
O O6 0.030663 0.102238 0.731213
O O7 0.995172 0.210090 0.760273
O O8 0.750000 0.566441 0.436020
O O9 0.986233 0.500000 0.410535
O O10 0.000000 0.587224 0.500000
O O11 0.977772 0.606030 0.364001
O O12 0.250000 0.749787 0.931766
O O13 0.490352 0.713985 0.862255
O O14 0.487546 0.816479 0.914946
O O15 0.500000 0.726687 0.000000
O O16 0.750000 0.648118 0.641132
O O17 0.959134 0.679230 0.734028
O O18 0.250000 0.921605 0.232652
O O19 0.037850 0.918967 0.134695
O O20 0.030687 0.000000 0.227890
O O21 0.250000 0.259606 0.198856
O O22 0.250000 0.135387 0.059737
O O23 0.000000 0.095435 0.000000
#
# Coordination Sequence:
#
# PCOD8208314 Si02
#       8
#     8   8   8   8   8   8   8   8
#     4  10  20  34  52  75 101 126 155 194 240 288
#     4  11  21  33  51  73  95 122 156 193 238 290
#     4  10  20  32  47  68  98 137 176 210 242 279
#     4  11  20  30  47  70  96 128 161 195 238 289
#     4   9  19  32  49  72  99 131 164 202 243 280
#     4  10  21  36  52  68  91 125 159 195 240 286
#     4  10  19  33  50  70  97 127 160 201 245 289
#     4  10  19  31  48  67  93 124 157 195 234 280
#
# _framework density 16.492599999999999
#
# number of rings (size 3 to 8) (size 9 to 14) (size 15 to 20)
#    0.000    1.875    1.250    5.625    0.000    5.750 
#    0.000    0.000    0.000    0.375    0.000    0.000 
#    0.000    0.500    0.000    1.625    0.000    2.375 
#
# Total GULP energy -793750.707959 kJ/mol
# GULP energy per Si atom -12402.354812 kJ/mol
# Density = 1.645506 g / cm^3
# Si number density = 16.492600 Si / 1000 Ang^3
#
#
#
# Elastic Constant Matrix: (Units=GPa)
#
#
# Indices 1 2 3 4 5 6 
#
# 1 108.3533 36.8668 56.5353 0.0000 0.0000 0.0000
# 2 36.8668 70.9383 45.9846 0.0000 0.0000 0.0000
# 3 56.5353 45.9846 132.7892 0.0000 0.0000 0.0000
# 4 0.0000 0.0000 0.0000 21.0373 0.0000 0.0000
# 5 0.0000 0.0000 0.0000 0.0000 33.1311 0.0000
# 6 0.0000 0.0000 0.0000 0.0000 0.0000 21.6839
#
#
#
# Elastic Compliance Matrix: (Units=1/GPa)
#
#
# Indices 1 2 3 4 5 6 
#
# 1 0.012682 -0.003986 -0.004019 0.000000 0.000000 0.000000
# 2 -0.003986 0.019430 -0.005032 0.000000 0.000000 0.000000
# 3 -0.004019 -0.005032 0.010984 0.000000 0.000000 0.000000
# 4 0.000000 0.000000 0.000000 0.047535 0.000000 0.000000
# 5 0.000000 0.000000 0.000000 0.000000 0.030183 0.000000
# 6 0.000000 0.000000 0.000000 0.000000 0.000000 0.046117
#
#
# Mechanical properties :
#
#
# Convention : Reuss Voigt Hill
#
# Bulk Modulus (GPa) = 58.74254 65.65046 62.19650
# Shear Modulus (GPa) = 25.16625 26.68339 25.92482
#
# Velocity S-wave (km/s) = 3.91053 4.02668 3.96903
# Velocity P-wave (km/s) = 7.48896 7.84291 7.66798
#
# Compressibility (1/GPa) = 0.01702344
#
# Stress axis : x y z
#
# Youngs Moduli (GPa) = 78.85012 51.46752 91.03810
#
# Poissons Ratio (x) = 0.20513 0.36591
# Poissons Ratio (y) = 0.31426 0.45807
# Poissons Ratio (z) = 0.31692 0.25897
#
# Static dielectric constant tensor:
#      x y z
#    x 3.184660 0.000000 0.000000 
#    y 0.000000 2.866570 0.000000 
#    z 0.000000 0.000000 3.339010 
# 
# 
# High freq. dielectric constant tensor:
#      x y z
#    x 1.649890 0.000000 0.000000 
#    y 0.000000 1.595120 0.000000 
#    z 0.000000 0.000000 1.638560 
# 
# From -- ./inp_files/28333.got.cif
#   From: 2010.03.12/outbox.cif.g09.slc.cpg/sg51_15_cif.got.tgz:28333.got - 2010.04.16 13:43:02.
