data_PCOD8208883
_publ_section_title
;
Structure prediction by ZEFSAII (Michael W. Deem and Ramdas Pophale) SiO2 
 PCOD8208883
Probable space group: P M M A
;
_chemical_formula_sum "Si O2"
_cell_formula_units_Z 56
_cell_length_a 8.742994
_cell_length_b 22.730733
_cell_length_c 14.894550
_cell_angle_alpha 90.000000
_cell_angle_beta 90.000000
_cell_angle_gamma 90.000000
_cell_volume 2960.063363
_symmetry_space_group_name_H-M "P M M A"
_symmetry_group_IT_number 51
_symmetry_cell_setting 'orthorhombic'
loop_
_space_group_symop_operation_xyz
x,y,z
1/2-x,-y,z
1/2+x,-y,-z
-x,y,-z
-x,-y,-z
1/2+x,y,-z
1/2-x,y,z
x,-y,z
loop_
_atom_site_type_symbol
_atom_site_label
_atom_site_fract_x
_atom_site_fract_y
_atom_site_fract_z
Si Si1 0.430645 0.235700 0.592714
Si Si2 0.429394 0.434133 0.407287
Si Si3 0.069108 0.846469 0.093026
Si Si4 0.068285 0.890776 0.406139
Si Si5 0.070820 0.329526 0.281944
Si Si6 0.428027 0.712872 0.091217
Si Si7 0.073872 0.934110 0.766335
O O1 0.500000 0.260925 0.500000
O O2 0.250000 0.227039 0.582536
O O3 0.509283 0.174331 0.616800
O O4 0.468078 0.280366 0.671836
O O5 0.500000 0.409712 0.500000
O O6 0.250000 0.434576 0.421489
O O7 0.490889 0.500000 0.386543
O O8 0.474711 0.392697 0.323581
O O9 0.250000 0.851582 0.089947
O O10 0.013939 0.779392 0.110387
O O11 0.007840 0.887320 0.171102
O O12 0.000000 0.869852 0.000000
O O13 0.250000 0.890893 0.410915
O O14 0.000000 0.913232 0.500000
O O15 0.008879 0.934323 0.329749
O O16 0.250000 0.315286 0.297224
O O17 0.030404 0.328706 0.175919
O O18 0.250000 0.714269 0.073926
O O19 0.500000 0.686729 0.000000
O O20 0.250000 0.915928 0.754999
O O21 0.058477 0.000000 0.806315
#
# Coordination Sequence:
#
# PCOD8208883 Si02
#       7
#     8   8   8   8   8   8   8
#     4  11  21  33  51  77 108 138 170 210 260 316
#     4   9  18  32  50  73 104 143 183 221 261 307
#     4  10  20  36  58  81 106 136 171 213 267 325
#     4  11  22  38  58  78 104 138 175 215 262 314
#     4  10  19  32  51  76 106 138 176 220 265 312
#     4   9  19  34  53  77 103 132 166 210 260 313
#     4  11  24  40  57  79 106 136 174 218 262 313
#
# _framework density 18.918513999999998
#
# number of rings (size 3 to 8) (size 9 to 14) (size 15 to 20)
#    0.000    1.857    0.000    5.571    0.000    5.714 
#    0.000    0.000    0.000    0.429    0.000    0.000 
#    0.000    0.000    0.000    0.000    0.000    0.000 
#
# Total GULP energy -694488.628826 kJ/mol
# GULP energy per Si atom -12401.582658 kJ/mol
# Density = 1.887545 g / cm^3
# Si number density = 18.918514 Si / 1000 Ang^3
#
#
#
# Elastic Constant Matrix: (Units=GPa)
#
#
# Indices 1 2 3 4 5 6 
#
# 1 93.5708 26.0714 39.0871 0.0000 0.0000 0.0000
# 2 26.0714 69.1153 58.4843 0.0000 0.0000 0.0000
# 3 39.0871 58.4843 140.8216 0.0000 0.0000 0.0000
# 4 0.0000 0.0000 0.0000 22.9488 0.0000 0.0000
# 5 0.0000 0.0000 0.0000 0.0000 35.6745 0.0000
# 6 0.0000 0.0000 0.0000 0.0000 0.0000 17.1379
#
#
#
# Elastic Compliance Matrix: (Units=1/GPa)
#
#
# Indices 1 2 3 4 5 6 
#
# 1 0.012413 -0.002724 -0.002314 0.000000 0.000000 0.000000
# 2 -0.002724 0.022906 -0.008757 0.000000 0.000000 0.000000
# 3 -0.002314 -0.008757 0.011380 0.000000 0.000000 0.000000
# 4 0.000000 0.000000 0.000000 0.043575 0.000000 0.000000
# 5 0.000000 0.000000 0.000000 0.000000 0.028031 0.000000
# 6 0.000000 0.000000 0.000000 0.000000 0.000000 0.058350
#
#
# Mechanical properties :
#
#
# Convention : Reuss Voigt Hill
#
# Bulk Modulus (GPa) = 52.33159 61.19924 56.76542
# Shear Modulus (GPa) = 23.73990 27.14325 25.44157
#
# Velocity S-wave (km/s) = 3.54623 3.79191 3.67113
# Velocity P-wave (km/s) = 6.67003 7.18266 6.93108
#
# Compressibility (1/GPa) = 0.01910892
#
# Stress axis : x y z
#
# Youngs Moduli (GPa) = 80.56245 43.65623 87.87120
#
# Poissons Ratio (x) = 0.11893 0.20333
# Poissons Ratio (y) = 0.21947 0.76949
# Poissons Ratio (z) = 0.18642 0.38230
#
# Static dielectric constant tensor:
#      x y z
#    x 3.539160 0.000000 0.000000 
#    y 0.000000 3.471720 0.000000 
#    z 0.000000 0.000000 3.648100 
# 
# 
# High freq. dielectric constant tensor:
#      x y z
#    x 1.740980 0.000000 0.000000 
#    y 0.000000 1.716030 0.000000 
#    z 0.000000 0.000000 1.737680 
# 
# From -- ./inp_files/21723.got.cif
#   From: 2010.03.12/outbox.cif.g09.slc.cpg/sg51_11_cif.got.tgz:21723.got - 2010.04.16 13:43:02.
