data_PCOD8208546
_publ_section_title
;
Structure prediction by ZEFSAII (Michael W. Deem and Ramdas Pophale) SiO2 
 PCOD8208546
Probable space group: P M M A
;
_chemical_formula_sum "Si O2"
_cell_formula_units_Z 48
_cell_length_a 30.668951
_cell_length_b 8.990005
_cell_length_c 9.260580
_cell_angle_alpha 90.000000
_cell_angle_beta 90.000000
_cell_angle_gamma 90.000000
_cell_volume 2553.271766
_symmetry_space_group_name_H-M "P M M A"
_symmetry_group_IT_number 51
_symmetry_cell_setting 'orthorhombic'
loop_
_space_group_symop_operation_xyz
x,y,z
1/2-x,-y,z
1/2+x,-y,-z
-x,y,-z
-x,-y,-z
1/2+x,y,-z
1/2-x,y,z
x,-y,z
loop_
_atom_site_type_symbol
_atom_site_label
_atom_site_fract_x
_atom_site_fract_y
_atom_site_fract_z
Si Si1 0.458155 0.177443 0.586861
Si Si2 0.876437 0.824180 0.590900
Si Si3 0.300281 0.673763 0.906122
Si Si4 0.958206 0.822899 0.086581
Si Si5 0.700472 0.827174 0.390247
Si Si6 0.373313 0.823037 0.084422
O O1 0.500000 0.236609 0.500000
O O2 0.415485 0.241376 0.506484
O O3 0.459302 0.239459 0.750242
O O4 0.457668 0.000000 0.590262
O O5 0.830234 0.776979 0.521974
O O6 0.879655 0.762188 0.753061
O O7 0.881238 0.000000 0.595784
O O8 0.250000 0.710512 0.939963
O O9 0.309899 0.500000 0.909605
O O10 0.313345 0.734412 0.749304
O O11 0.328706 0.754776 0.026289
O O12 0.959436 0.000000 0.086699
O O13 0.914215 0.766397 0.009538
O O14 0.000000 0.760313 0.000000
O O15 0.750000 0.793526 0.437491
O O16 0.693607 0.000000 0.351789
O O17 0.369241 0.000000 0.080221
#
# Coordination Sequence:
#
# PCOD8208546 Si02
#       6
#     8   8   8   8   8   8
#     4   9  15  23  37  60  95 133 162 193 236 283
#     4   9  17  28  44  70 100 127 159 199 242 287
#     4  10  21  36  52  71  97 129 165 205 249 297
#     4   9  16  26  43  70 102 132 163 200 242 287
#     4   9  17  31  51  72  94 122 157 198 244 293
#     4  10  19  31  50  75 102 132 166 204 245 291
#
# _framework density 18.799409000000001
#
# number of rings (size 3 to 8) (size 9 to 14) (size 15 to 20)
#    0.000    2.667    0.000    2.500    0.000    8.333 
#    0.000    2.500    0.000    2.500    0.000    0.000 
#    0.000    6.000    0.000    0.000    0.000    0.000 
#
# Total GULP energy -595209.064673 kJ/mol
# GULP energy per Si atom -12400.188847 kJ/mol
# Density = 1.875662 g / cm^3
# Si number density = 18.799409 Si / 1000 Ang^3
#
#
#
# Elastic Constant Matrix: (Units=GPa)
#
#
# Indices 1 2 3 4 5 6 
#
# 1 138.8184 23.1848 100.1508 0.0000 0.0000 0.0000
# 2 23.1848 21.6917 22.9330 0.0000 0.0000 0.0000
# 3 100.1508 22.9330 192.6861 0.0000 0.0000 0.0000
# 4 0.0000 0.0000 0.0000 3.2134 0.0000 0.0000
# 5 0.0000 0.0000 0.0000 0.0000 43.5331 0.0000
# 6 0.0000 0.0000 0.0000 0.0000 0.0000 9.7043
#
#
#
# Elastic Compliance Matrix: (Units=1/GPa)
#
#
# Indices 1 2 3 4 5 6 
#
# 1 0.012489 -0.007419 -0.005608 0.000000 0.000000 0.000000
# 2 -0.007419 0.057144 -0.002945 0.000000 0.000000 0.000000
# 3 -0.005608 -0.002945 0.008455 0.000000 0.000000 0.000000
# 4 0.000000 0.000000 0.000000 0.311194 0.000000 0.000000
# 5 0.000000 0.000000 0.000000 0.000000 0.022971 0.000000
# 6 0.000000 0.000000 0.000000 0.000000 0.000000 0.103048
#
#
# Mechanical properties :
#
#
# Convention : Reuss Voigt Hill
#
# Bulk Modulus (GPa) = 21.67166 71.74818 46.70992
# Shear Modulus (GPa) = 8.88689 25.08532 16.98611
#
# Velocity S-wave (km/s) = 2.17658 3.65686 3.00916
# Velocity P-wave (km/s) = 4.22723 7.48854 6.08061
#
# Compressibility (1/GPa) = 0.04614321
#
# Stress axis : x y z
#
# Youngs Moduli (GPa) = 80.07144 17.49966 118.27045
#
# Poissons Ratio (x) = 0.12984 0.66328
# Poissons Ratio (y) = 0.59408 0.34829
# Poissons Ratio (z) = 0.44906 0.05153
#
# Static dielectric constant tensor:
#      x y z
#    x 3.627770 0.000000 0.000000 
#    y 0.000000 2.847970 0.000000 
#    z 0.000000 0.000000 3.659410 
# 
# 
# High freq. dielectric constant tensor:
#      x y z
#    x 1.746430 0.000000 0.000000 
#    y 0.000000 1.663380 0.000000 
#    z 0.000000 0.000000 1.740330 
# 
# From -- ./inp_files/12814.got.cif
#   From: 2010.03.12/outbox.cif.g09.slc.cpg/sg51_7_cif.got.tgz:12814.got - 2010.04.16 13:43:02.
