data_PCOD8209084
_publ_section_title
;
Structure prediction by ZEFSAII (Michael W. Deem and Ramdas Pophale) SiO2 
 PCOD8209084
Probable space group: P M M A
;
_chemical_formula_sum "Si O2"
_cell_formula_units_Z 64
_cell_length_a 17.874834
_cell_length_b 8.617232
_cell_length_c 21.623147
_cell_angle_alpha 90.000000
_cell_angle_beta 90.000000
_cell_angle_gamma 90.000000
_cell_volume 3330.647747
_symmetry_space_group_name_H-M "P M M A"
_symmetry_group_IT_number 51
_symmetry_cell_setting 'orthorhombic'
loop_
_space_group_symop_operation_xyz
x,y,z
1/2-x,-y,z
1/2+x,-y,-z
-x,y,-z
-x,-y,-z
1/2+x,y,-z
1/2-x,y,z
x,-y,z
loop_
_atom_site_type_symbol
_atom_site_label
_atom_site_fract_x
_atom_site_fract_y
_atom_site_fract_z
Si Si1 0.666709 0.315729 0.222537
Si Si2 0.665612 0.178194 0.630720
Si Si3 0.663629 0.680604 0.998070
Si Si4 0.970694 0.685039 0.565639
Si Si5 0.453941 0.680860 0.686823
Si Si6 0.393268 0.319552 0.248333
Si Si7 0.593182 0.181537 0.880489
Si Si8 0.421228 0.818993 0.890473
O O1 0.750000 0.244818 0.225195
O O2 0.669316 0.500000 0.226167
O O3 0.620289 0.247251 0.281397
O O4 0.627916 0.272912 0.158701
O O5 0.750000 0.195719 0.605942
O O6 0.612161 0.251044 0.578447
O O7 0.659813 0.266877 0.695864
O O8 0.643461 0.000000 0.641422
O O9 0.750000 0.721806 0.011009
O O10 0.648321 0.500000 0.010028
O O11 0.643610 0.723031 0.928033
O O12 0.610602 0.781942 0.041968
O O13 0.966165 0.500000 0.567119
O O14 0.000000 0.747276 0.500000
O O15 0.027190 0.749697 0.618905
O O16 0.442011 0.500000 0.677965
O O17 0.521416 0.715592 0.733390
O O18 0.379594 0.500000 0.234989
O O19 0.375155 0.221619 0.187264
O O20 0.507124 0.235571 0.886982
O O21 0.602134 0.000000 0.893629
O O22 0.414561 0.000000 0.876341
#
# Coordination Sequence:
#
# PCOD8209084 Si02
#       8
#     8   8   8   8   8   8   8   8
#     4  10  19  32  53  79 107 141 182 226 274 329
#     4  10  21  36  55  82 117 153 190 234 283 334
#     4  11  25  42  58  78 105 141 185 229 276 331
#     4   9  18  34  57  84 114 150 194 239 279 326
#     4   8  15  30  51  77 108 140 176 221 269 318
#     4  10  19  34  58  82 108 144 183 228 278 327
#     4  11  23  38  58  84 111 142 181 226 279 337
#     4  11  23  38  57  81 109 140 179 226 276 332
#
# _framework density 19.215482000000002
#
# number of rings (size 3 to 8) (size 9 to 14) (size 15 to 20)
#    0.000    2.000    1.250    3.375    0.000    7.500 
#    0.000    0.625    0.000    2.250    0.000    0.000 
#    0.000    0.000    0.000    0.000    0.000    0.000 
#
# Total GULP energy -793648.448789 kJ/mol
# GULP energy per Si atom -12400.757012 kJ/mol
# Density = 1.917175 g / cm^3
# Si number density = 19.215482 Si / 1000 Ang^3
#
#
#
# Elastic Constant Matrix: (Units=GPa)
#
#
# Indices 1 2 3 4 5 6 
#
# 1 77.5408 14.8064 35.9873 0.0000 0.0000 0.0000
# 2 14.8064 -0.5981 15.1041 0.0000 0.0000 0.0000
# 3 35.9873 15.1041 114.9948 0.0000 0.0000 0.0000
# 4 0.0000 0.0000 0.0000 19.3182 0.0000 0.0000
# 5 0.0000 0.0000 0.0000 0.0000 20.0795 0.0000
# 6 0.0000 0.0000 0.0000 0.0000 0.0000 23.7570
#
#
#
# Elastic Compliance Matrix: (Units=1/GPa)
#
#
# Indices 1 2 3 4 5 6 
#
# 1 0.009467 0.036959 -0.007817 0.000000 0.000000 0.000000
# 2 0.036959 -0.243023 0.020354 0.000000 0.000000 0.000000
# 3 -0.007817 0.020354 0.008469 0.000000 0.000000 0.000000
# 4 0.000000 0.000000 0.000000 0.051765 0.000000 0.000000
# 5 0.000000 0.000000 0.000000 0.000000 0.049802 0.000000
# 6 0.000000 0.000000 0.000000 0.000000 0.000000 0.042093
#
#
# Mechanical properties :
#
#
# Convention : Reuss Voigt Hill
#
# Bulk Modulus (GPa) = -7.93049 35.97034 14.01992
# Shear Modulus (GPa) = -22.47696 21.03359 -0.72168
#
# Velocity S-wave (km/s) = -3.42384 3.31209 -0.61351
# Velocity P-wave (km/s) = 4.44594 5.77812 2.60963
#
# Compressibility (1/GPa) = -0.12609560
#
# Stress axis : x y z
#
# Youngs Moduli (GPa) = 105.62804 -4.11484 118.07830
#
# Poissons Ratio (x) = 0.15208 0.92303
# Poissons Ratio (y) = -3.90386 -2.40337
# Poissons Ratio (z) = 0.82570 0.08375
#
# Static dielectric constant tensor:
#      x y z
#    x 3.682990 0.000000 0.000000 
#    y 0.000000 3.352600 0.000000 
#    z 0.000000 0.000000 3.668430 
# 
# 
# High freq. dielectric constant tensor:
#      x y z
#    x 1.746360 0.000000 0.000000 
#    y 0.000000 1.736510 0.000000 
#    z 0.000000 0.000000 1.745830 
# 
# From -- ./inp_files/33896.got.cif
#   From: 2010.03.12/outbox.cif.g09.slc.cpg/sg51_17_cif.got.tgz:33896.got - 2010.04.16 13:43:02.
