data_PCOD8209073
_publ_section_title
;
Structure prediction by ZEFSAII (Michael W. Deem and Ramdas Pophale) SiO2 
 PCOD8209073
Probable space group: P M M A
;
_chemical_formula_sum "Si O2"
_cell_formula_units_Z 48
_cell_length_a 23.123713
_cell_length_b 9.209594
_cell_length_c 12.776653
_cell_angle_alpha 90.000000
_cell_angle_beta 90.000000
_cell_angle_gamma 90.000000
_cell_volume 2720.916132
_symmetry_space_group_name_H-M "P M M A"
_symmetry_group_IT_number 51
_symmetry_cell_setting 'orthorhombic'
loop_
_space_group_symop_operation_xyz
x,y,z
1/2-x,-y,z
1/2+x,-y,-z
-x,y,-z
-x,-y,-z
1/2+x,y,-z
1/2-x,y,z
x,-y,z
loop_
_atom_site_type_symbol
_atom_site_label
_atom_site_fract_x
_atom_site_fract_y
_atom_site_fract_z
Si Si1 0.491347 0.330804 0.620760
Si Si2 0.316722 0.329606 0.107670
Si Si3 0.182944 0.666667 0.508671
Si Si4 0.815973 0.831248 0.099802
Si Si5 0.116595 0.670426 0.308047
Si Si6 0.122035 0.171311 0.688380
O O1 0.500000 0.287032 0.500000
O O2 0.475153 0.500000 0.628915
O O3 0.548801 0.293106 0.686462
O O4 0.441151 0.236550 0.671517
O O5 0.250000 0.291942 0.131550
O O6 0.326228 0.500000 0.094049
O O7 0.355479 0.264883 0.202325
O O8 0.338143 0.255052 0.001362
O O9 0.250000 0.678558 0.482231
O O10 0.164369 0.500000 0.530221
O O11 0.148176 0.733989 0.410581
O O12 0.168344 0.761234 0.609458
O O13 0.750000 0.788044 0.127674
O O14 0.857071 0.787717 0.195587
O O15 0.820549 0.000000 0.073611
O O16 0.128420 0.500000 0.308683
O O17 0.120186 0.000000 0.670889
#
# Coordination Sequence:
#
# PCOD8209073 Si02
#       6
#     8   8   8   8   8   8
#     4  10  19  35  56  75 102 141 179 213 255 311
#     4   9  17  31  54  81 104 129 167 214 260 309
#     4  10  19  32  53  79 106 136 170 210 260 318
#     4   9  19  36  54  72 101 140 173 208 260 311
#     4   9  17  32  53  78 106 134 167 212 264 308
#     4  11  22  35  52  75 106 139 176 218 261 306
#
# _framework density 17.641117000000001
#
# number of rings (size 3 to 8) (size 9 to 14) (size 15 to 20)
#    0.000    2.333    1.667    1.500    0.000    4.667 
#    0.000    4.167    0.000    7.000    0.000    0.000 
#    0.000    0.000    0.000    0.000    0.000    0.000 
#
# Total GULP energy -595273.808277 kJ/mol
# GULP energy per Si atom -12401.537672 kJ/mol
# Density = 1.760096 g / cm^3
# Si number density = 17.641117 Si / 1000 Ang^3
#
#
#
# Elastic Constant Matrix: (Units=GPa)
#
#
# Indices 1 2 3 4 5 6 
#
# 1 91.8156 34.6234 59.6506 0.0000 0.0000 0.0000
# 2 34.6234 48.7362 51.4125 0.0000 0.0000 0.0000
# 3 59.6506 51.4125 141.2677 0.0000 0.0000 0.0000
# 4 0.0000 0.0000 0.0000 -2.7239 0.0000 0.0000
# 5 0.0000 0.0000 0.0000 0.0000 31.2425 0.0000
# 6 0.0000 0.0000 0.0000 0.0000 0.0000 22.3145
#
#
#
# Elastic Compliance Matrix: (Units=1/GPa)
#
#
# Indices 1 2 3 4 5 6 
#
# 1 0.016374 -0.007043 -0.004351 0.000000 0.000000 0.000000
# 2 -0.007043 0.036334 -0.010250 0.000000 0.000000 0.000000
# 3 -0.004351 -0.010250 0.012646 0.000000 0.000000 0.000000
# 4 0.000000 0.000000 0.000000 -0.367117 0.000000 0.000000
# 5 0.000000 0.000000 0.000000 0.000000 0.032008 0.000000
# 6 0.000000 0.000000 0.000000 0.000000 0.000000 0.044814
#
#
# Mechanical properties :
#
#
# Convention : Reuss Voigt Hill
#
# Bulk Modulus (GPa) = 45.31419 63.68806 54.50113
# Shear Modulus (GPa) = -28.68633 19.24214 -4.72209
#
# Velocity S-wave (km/s) = -4.03688 3.30624 -1.63785
# Velocity P-wave (km/s) = 2.00349 7.12428 5.23304
#
# Compressibility (1/GPa) = 0.02206814
#
# Stress axis : x y z
#
# Youngs Moduli (GPa) = 61.07339 27.52214 79.07557
#
# Poissons Ratio (x) = 0.19383 0.34404
# Poissons Ratio (y) = 0.43011 0.81050
# Poissons Ratio (z) = 0.26572 0.28209
#
# Static dielectric constant tensor:
#      x y z
#    x 3.278120 0.000000 0.000000 
#    y 0.000000 3.075330 0.000000 
#    z 0.000000 0.000000 3.387980 
# 
# 
# High freq. dielectric constant tensor:
#      x y z
#    x 1.684150 0.000000 0.000000 
#    y 0.000000 1.659520 0.000000 
#    z 0.000000 0.000000 1.685930 
# 
# From -- ./inp_files/18537.got.cif
#   From: 2010.03.12/outbox.cif.g09.slc.cpg/sg51_10_cif.got.tgz:18537.got - 2010.04.16 13:43:02.
