data_PCOD8209389
_publ_section_title
;
Structure prediction by ZEFSAII (Michael W. Deem and Ramdas Pophale) SiO2 
 PCOD8209389
Probable space group: P M M A
;
_chemical_formula_sum "Si O2"
_cell_formula_units_Z 48
_cell_length_a 30.825038
_cell_length_b 8.774085
_cell_length_c 9.609820
_cell_angle_alpha 90.000000
_cell_angle_beta 90.000000
_cell_angle_gamma 90.000000
_cell_volume 2599.086366
_symmetry_space_group_name_H-M "P M M A"
_symmetry_group_IT_number 51
_symmetry_cell_setting 'orthorhombic'
loop_
_space_group_symop_operation_xyz
x,y,z
1/2-x,-y,z
1/2+x,-y,-z
-x,y,-z
-x,-y,-z
1/2+x,y,-z
1/2-x,y,z
x,-y,z
loop_
_atom_site_type_symbol
_atom_site_label
_atom_site_fract_x
_atom_site_fract_y
_atom_site_fract_z
Si Si1 0.894028 0.820278 0.708589
Si Si2 0.013207 0.678785 0.344003
Si Si3 0.863427 0.320235 0.443097
Si Si4 0.068933 0.822452 0.752111
Si Si5 0.364958 0.823752 0.988587
Si Si6 0.701447 0.319908 0.207647
O O1 0.938738 0.732880 0.688200
O O2 0.860229 0.767703 0.589644
O O3 0.873422 0.769567 0.854825
O O4 0.902311 0.000000 0.702654
O O5 0.009767 0.500000 0.317450
O O6 0.000000 0.724074 0.500000
O O7 0.980613 0.765878 0.238703
O O8 0.863129 0.500000 0.469739
O O9 0.908277 0.274976 0.369071
O O10 0.823342 0.265262 0.347221
O O11 0.071336 0.000000 0.712863
O O12 0.091865 0.788831 0.899255
O O13 0.352930 0.000000 0.981844
O O14 0.323498 0.735093 0.929487
O O15 0.750000 0.251532 0.209639
O O16 0.702703 0.500000 0.203435
#
# Coordination Sequence:
#
# PCOD8209389 Si02
#       6
#     8   8   8   8   8   8
#     4  11  22  36  54  77 109 145 181 219 267 318
#     4  11  22  34  51  77 109 142 184 229 269 311
#     4  10  19  33  54  80 109 137 174 221 264 310
#     4  10  19  34  55  76 103 142 185 223 265 312
#     4   9  21  38  55  80 111 143 178 221 269 319
#     4   9  19  37  61  85 107 136 174 215 264 324
#
# _framework density 18.468029000000001
#
# number of rings (size 3 to 8) (size 9 to 14) (size 15 to 20)
#    0.000    2.000    1.667    2.000    0.000    4.333 
#    0.000    4.167    0.000    3.000    0.000    0.000 
#    0.000    0.000    0.000    0.000    0.000    0.000 
#
# Total GULP energy -595333.426601 kJ/mol
# GULP energy per Si atom -12402.779721 kJ/mol
# Density = 1.842600 g / cm^3
# Si number density = 18.468029 Si / 1000 Ang^3
#
#
#
# Elastic Constant Matrix: (Units=GPa)
#
#
# Indices 1 2 3 4 5 6 
#
# 1 124.0297 23.9608 57.6341 0.0000 0.0000 0.0000
# 2 23.9608 42.6915 31.2419 0.0000 0.0000 0.0000
# 3 57.6341 31.2419 137.9074 0.0000 0.0000 0.0000
# 4 0.0000 0.0000 0.0000 26.9462 0.0000 0.0000
# 5 0.0000 0.0000 0.0000 0.0000 19.5091 0.0000
# 6 0.0000 0.0000 0.0000 0.0000 0.0000 24.3974
#
#
#
# Elastic Compliance Matrix: (Units=1/GPa)
#
#
# Indices 1 2 3 4 5 6 
#
# 1 0.010351 -0.003169 -0.003608 0.000000 0.000000 0.000000
# 2 -0.003169 0.029049 -0.005256 0.000000 0.000000 0.000000
# 3 -0.003608 -0.005256 0.009950 0.000000 0.000000 0.000000
# 4 0.000000 0.000000 0.000000 0.037111 0.000000 0.000000
# 5 0.000000 0.000000 0.000000 0.000000 0.051258 0.000000
# 6 0.000000 0.000000 0.000000 0.000000 0.000000 0.040988
#
#
# Mechanical properties :
#
#
# Convention : Reuss Voigt Hill
#
# Bulk Modulus (GPa) = 39.55220 58.92248 49.23734
# Shear Modulus (GPa) = 23.67387 26.95664 25.31526
#
# Velocity S-wave (km/s) = 3.58423 3.82467 3.70640
# Velocity P-wave (km/s) = 6.21224 7.17485 6.71083
#
# Compressibility (1/GPa) = 0.02528304
#
# Stress axis : x y z
#
# Youngs Moduli (GPa) = 96.60461 34.42422 100.50342
#
# Poissons Ratio (x) = 0.10910 0.36262
# Poissons Ratio (y) = 0.30618 0.52828
# Poissons Ratio (z) = 0.34856 0.18095
#
# Static dielectric constant tensor:
#      x y z
#    x 3.460190 0.000000 0.000000 
#    y 0.000000 3.368390 0.000000 
#    z 0.000000 0.000000 3.561850 
# 
# 
# High freq. dielectric constant tensor:
#      x y z
#    x 1.705300 0.000000 0.000000 
#    y 0.000000 1.721830 0.000000 
#    z 0.000000 0.000000 1.712840 
# 
# From -- ./inp_files/12762.got.cif
#   From: 2010.03.12/outbox.cif.g09.slc.cpg/sg51_7_cif.got.tgz:12762.got - 2010.04.16 13:43:02.
