data_PCOD8209628
_publ_section_title
;
Structure prediction by ZEFSAII (Michael W. Deem and Ramdas Pophale) SiO2 
 PCOD8209628
Probable space group: P M M A
;
_chemical_formula_sum "Si O2"
_cell_formula_units_Z 56
_cell_length_a 18.652241
_cell_length_b 8.807060
_cell_length_c 17.161486
_cell_angle_alpha 90.000000
_cell_angle_beta 90.000000
_cell_angle_gamma 90.000000
_cell_volume 2819.141428
_symmetry_space_group_name_H-M "P M M A"
_symmetry_group_IT_number 51
_symmetry_cell_setting 'orthorhombic'
loop_
_space_group_symop_operation_xyz
x,y,z
1/2-x,-y,z
1/2+x,-y,-z
-x,y,-z
-x,-y,-z
1/2+x,y,-z
1/2-x,y,z
x,-y,z
loop_
_atom_site_type_symbol
_atom_site_label
_atom_site_fract_x
_atom_site_fract_y
_atom_site_fract_z
Si Si1 0.944880 0.678243 0.673024
Si Si2 0.920592 0.679955 0.098268
Si Si3 0.559088 0.820985 0.840933
Si Si4 0.669231 0.680397 0.550218
Si Si5 0.093349 0.320698 0.603194
Si Si6 0.167696 0.320971 0.052670
Si Si7 0.829833 0.318971 0.244014
O O1 0.947079 0.500000 0.693014
O O2 0.953146 0.767823 0.752871
O O3 0.871718 0.726529 0.629533
O O4 0.009914 0.721225 0.614545
O O5 0.930618 0.500000 0.099357
O O6 0.877241 0.740777 0.172829
O O7 0.998859 0.754661 0.100799
O O8 0.876957 0.732794 0.022579
O O9 0.635778 0.761200 0.871226
O O10 0.556828 0.000000 0.843825
O O11 0.750000 0.746764 0.552802
O O12 0.671408 0.500000 0.543223
O O13 0.626033 0.749246 0.476235
O O14 0.102722 0.500000 0.599971
O O15 0.137925 0.254384 0.675858
O O16 0.250000 0.270914 0.041936
O O17 0.161819 0.500000 0.065016
O O18 0.750000 0.254569 0.234073
O O19 0.829611 0.500000 0.244058
#
# Coordination Sequence:
#
# PCOD8209628 Si02
#       7
#     8   8   8   8   8   8   8
#     4  10  19  34  55  79 108 146 190 234 281 332
#     4  10  19  36  60  87 115 143 181 229 281 340
#     4  12  25  39  57  82 114 154 196 234 277 333
#     4   9  17  28  47  80 115 141 174 228 289 341
#     4   9  15  26  47  78 113 142 173 222 284 341
#     4  10  22  40  63  89 115 145 185 235 287 337
#     4   9  15  24  46  81 115 142 171 217 276 334
#
# _framework density 19.864203
#
# number of rings (size 3 to 8) (size 9 to 14) (size 15 to 20)
#    0.000    2.143    1.429    3.000    0.000    8.286 
#    0.000    1.429    0.000    3.000    0.000    0.000 
#    0.000    0.000    0.000    0.000    0.000    0.000 
#
# Total GULP energy -694400.290602 kJ/mol
# GULP energy per Si atom -12400.005189 kJ/mol
# Density = 1.981899 g / cm^3
# Si number density = 19.864203 Si / 1000 Ang^3
#
#
#
# Elastic Constant Matrix: (Units=GPa)
#
#
# Indices 1 2 3 4 5 6 
#
# 1 150.9701 32.1728 58.9130 0.0000 0.0000 0.0000
# 2 32.1728 34.9667 22.2747 0.0000 0.0000 0.0000
# 3 58.9130 22.2747 80.4657 0.0000 0.0000 0.0000
# 4 0.0000 0.0000 0.0000 6.0969 0.0000 0.0000
# 5 0.0000 0.0000 0.0000 0.0000 37.4247 0.0000
# 6 0.0000 0.0000 0.0000 0.0000 0.0000 3.8186
#
#
#
# Elastic Compliance Matrix: (Units=1/GPa)
#
#
# Indices 1 2 3 4 5 6 
#
# 1 0.010091 -0.005558 -0.005849 0.000000 0.000000 0.000000
# 2 -0.005558 0.037783 -0.006390 0.000000 0.000000 0.000000
# 3 -0.005849 -0.006390 0.018479 0.000000 0.000000 0.000000
# 4 0.000000 0.000000 0.000000 0.164017 0.000000 0.000000
# 5 0.000000 0.000000 0.000000 0.000000 0.026720 0.000000
# 6 0.000000 0.000000 0.000000 0.000000 0.000000 0.261873
#
#
# Mechanical properties :
#
#
# Convention : Reuss Voigt Hill
#
# Bulk Modulus (GPa) = 32.51142 54.79150 43.65146
# Shear Modulus (GPa) = 8.85250 19.67084 14.26167
#
# Velocity S-wave (km/s) = 2.11333 3.15026 2.68238
# Velocity P-wave (km/s) = 4.72835 6.39337 5.62283
#
# Compressibility (1/GPa) = 0.03075842
#
# Stress axis : x y z
#
# Youngs Moduli (GPa) = 99.09818 26.46663 54.11517
#
# Poissons Ratio (x) = 0.14711 0.31654
# Poissons Ratio (y) = 0.55084 0.34578
# Poissons Ratio (z) = 0.57967 0.16911
#
# Static dielectric constant tensor:
#      x y z
#    x 3.900690 0.000000 0.000000 
#    y 0.000000 2.961960 0.000000 
#    z 0.000000 0.000000 3.746510 
# 
# 
# High freq. dielectric constant tensor:
#      x y z
#    x 1.790580 0.000000 0.000000 
#    y 0.000000 1.704930 0.000000 
#    z 0.000000 0.000000 1.785940 
# 
# From -- ./inp_files/25692.got.cif
#   From: 2010.03.12/outbox.cif.g09.slc.cpg/sg51_13_cif.got.tgz:25692.got - 2010.04.16 13:43:02.
