data_PCOD8209945
_publ_section_title
;
Structure prediction by ZEFSAII (Michael W. Deem and Ramdas Pophale) SiO2 
 PCOD8209945
Probable space group: P M M A
;
_chemical_formula_sum "Si O2"
_cell_formula_units_Z 40
_cell_length_a 25.861676
_cell_length_b 8.634476
_cell_length_c 8.992588
_cell_angle_alpha 90.000000
_cell_angle_beta 90.000000
_cell_angle_gamma 90.000000
_cell_volume 2008.063072
_symmetry_space_group_name_H-M "P M M A"
_symmetry_group_IT_number 51
_symmetry_cell_setting 'orthorhombic'
loop_
_space_group_symop_operation_xyz
x,y,z
1/2-x,-y,z
1/2+x,-y,-z
-x,y,-z
-x,-y,-z
1/2+x,y,-z
1/2-x,y,z
x,-y,z
loop_
_atom_site_type_symbol
_atom_site_label
_atom_site_fract_x
_atom_site_fract_y
_atom_site_fract_z
Si Si1 0.349782 0.816273 0.593099
Si Si2 0.750000 0.183544 0.585907
Si Si3 0.450409 0.183627 0.414976
Si Si4 0.151668 0.680996 0.918156
Si Si5 0.250000 0.183009 0.080662
Si Si6 0.054140 0.181254 0.078296
O O1 0.300274 0.758141 0.501456
O O2 0.399372 0.761911 0.500152
O O3 0.350628 0.730273 0.748181
O O4 0.349298 0.000000 0.620336
O O5 0.750000 0.252906 0.752368
O O6 0.750000 0.000000 0.594908
O O7 0.500000 0.254321 0.500000
O O8 0.449076 0.244543 0.246393
O O9 0.454522 0.000000 0.412243
O O10 0.161147 0.500000 0.930214
O O11 0.198919 0.765385 0.996628
O O12 0.098147 0.724753 0.994958
O O13 0.250000 0.000000 0.087049
O O14 0.068217 0.000000 0.072365
O O15 0.000000 0.215385 0.000000
#
# Coordination Sequence:
#
# PCOD8209945 Si02
#       6
#     8   4   8   8   4   8
#     4  10  19  35  58  82 110 147 191 234 279 333
#     4   9  19  35  60  88 108 135 184 243 288 330
#     4   9  17  31  55  86 113 140 186 244 288 328
#     4  12  25  39  56  85 123 157 191 233 287 345
#     4  11  22  41  66  88 112 147 194 241 288 342
#     4  10  20  37  63  90 115 150 196 241 287 340
#
# _framework density 19.919694
#
# number of rings (size 3 to 8) (size 9 to 14) (size 15 to 20)
#    0.000    1.800    0.000    5.100    0.000    7.600 
#    0.000    5.000    0.000    2.400    0.000    0.000 
#    0.000    0.000    0.000    0.000    0.000    0.000 
#
# Total GULP energy -496139.425678 kJ/mol
# GULP energy per Si atom -12403.485642 kJ/mol
# Density = 1.987436 g / cm^3
# Si number density = 19.919694 Si / 1000 Ang^3
#
#
#
# Elastic Constant Matrix: (Units=GPa)
#
#
# Indices 1 2 3 4 5 6 
#
# 1 166.6021 29.6144 87.9419 0.0000 0.0000 0.0000
# 2 29.6144 51.6109 32.5599 0.0000 0.0000 0.0000
# 3 87.9419 32.5599 194.7738 0.0000 0.0000 0.0000
# 4 0.0000 0.0000 0.0000 -1.2028 0.0000 0.0000
# 5 0.0000 0.0000 0.0000 0.0000 37.8361 0.0000
# 6 0.0000 0.0000 0.0000 0.0000 0.0000 4.9506
#
#
#
# Elastic Compliance Matrix: (Units=1/GPa)
#
#
# Indices 1 2 3 4 5 6 
#
# 1 0.008191 -0.002646 -0.003256 0.000000 0.000000 0.000000
# 2 -0.002646 0.022515 -0.002569 0.000000 0.000000 0.000000
# 3 -0.003256 -0.002569 0.007034 0.000000 0.000000 0.000000
# 4 0.000000 0.000000 0.000000 -0.831389 0.000000 0.000000
# 5 0.000000 0.000000 0.000000 0.000000 0.026430 0.000000
# 6 0.000000 0.000000 0.000000 0.000000 0.000000 0.201996
#
#
# Mechanical properties :
#
#
# Convention : Reuss Voigt Hill
#
# Bulk Modulus (GPa) = 48.08261 79.24659 63.66460
# Shear Modulus (GPa) = -9.23620 25.84148 8.30264
#
# Velocity S-wave (km/s) = -2.15564 3.60569 2.04380
# Velocity P-wave (km/s) = 4.24204 7.56334 6.13184
#
# Compressibility (1/GPa) = 0.02079754
#
# Stress axis : x y z
#
# Youngs Moduli (GPa) = 122.07832 44.41530 142.17047
#
# Poissons Ratio (x) = 0.11752 0.46293
# Poissons Ratio (y) = 0.32302 0.36524
# Poissons Ratio (z) = 0.39751 0.11410
#
# Static dielectric constant tensor:
#      x y z
#    x 3.973900 0.000000 0.000000 
#    y 0.000000 3.210950 0.000000 
#    z 0.000000 0.000000 3.946100 
# 
# 
# High freq. dielectric constant tensor:
#      x y z
#    x 1.798650 0.000000 0.000000 
#    y 0.000000 1.735370 0.000000 
#    z 0.000000 0.000000 1.800560 
# 
# From -- ./inp_files/12153.got.cif
#   From: 2010.03.12/outbox.cif.g09.slc.cpg/sg51_7_cif.got.tgz:12153.got - 2010.04.16 13:43:02.
