data_PCOD8209307
_publ_section_title
;
Structure prediction by ZEFSAII (Michael W. Deem and Ramdas Pophale) SiO2 
 PCOD8209307
Probable space group: P M M A
;
_chemical_formula_sum "Si O2"
_cell_formula_units_Z 48
_cell_length_a 17.221088
_cell_length_b 12.792539
_cell_length_c 12.290744
_cell_angle_alpha 90.000000
_cell_angle_beta 90.000000
_cell_angle_gamma 90.000000
_cell_volume 2707.668600
_symmetry_space_group_name_H-M "P M M A"
_symmetry_group_IT_number 51
_symmetry_cell_setting 'orthorhombic'
loop_
_space_group_symop_operation_xyz
x,y,z
1/2-x,-y,z
1/2+x,-y,-z
-x,y,-z
-x,-y,-z
1/2+x,y,-z
1/2-x,y,z
x,-y,z
loop_
_atom_site_type_symbol
_atom_site_label
_atom_site_fract_x
_atom_site_fract_y
_atom_site_fract_z
Si Si1 0.587797 0.381812 0.475290
Si Si2 0.659377 0.621308 0.061534
Si Si3 0.603079 0.380005 0.825434
Si Si4 0.513380 0.119292 0.626962
Si Si5 0.163659 0.238658 0.354240
Si Si6 0.437807 0.695233 0.749203
O O1 0.500000 0.344595 0.500000
O O2 0.601211 0.500000 0.514567
O O3 0.646592 0.309046 0.540263
O O4 0.601756 0.372067 0.346721
O O5 0.750000 0.645283 0.048193
O O6 0.644780 0.500000 0.092387
O O7 0.624360 0.697796 0.153545
O O8 0.615202 0.650638 0.950707
O O9 0.626189 0.500000 0.806598
O O10 0.659620 0.310028 0.752802
O O11 0.514530 0.362541 0.791076
O O12 0.500000 0.141884 0.500000
O O13 0.603217 0.143407 0.654074
O O14 0.457030 0.189456 0.702509
O O15 0.495043 0.000000 0.656993
O O16 0.250000 0.191787 0.364708
#
# Coordination Sequence:
#
# PCOD8209307 Si02
#       6
#     8   8   8   8   8   8
#     4  11  19  31  49  76 111 144 174 209 256 314
#     4  10  21  34  50  78 115 149 180 218 262 311
#     4  10  19  33  53  77 108 148 190 217 245 307
#     4  10  20  39  60  77 100 133 178 229 272 318
#     4  11  21  33  52  80 110 140 174 219 273 324
#     4  11  19  34  55  79 101 143 183 224 265 320
#
# _framework density 17.727429000000001
#
# number of rings (size 3 to 8) (size 9 to 14) (size 15 to 20)
#    0.000    1.500    5.000    3.000    0.000    4.333 
#    0.000    0.000    0.000    8.500    0.000    0.000 
#    0.000    0.000    0.000    0.000    0.000    0.000 
#
# Total GULP energy -595266.695415 kJ/mol
# GULP energy per Si atom -12401.389488 kJ/mol
# Density = 1.768708 g / cm^3
# Si number density = 17.727429 Si / 1000 Ang^3
#
#
#
# Elastic Constant Matrix: (Units=GPa)
#
#
# Indices 1 2 3 4 5 6 
#
# 1 49.5778 22.0444 25.8663 0.0000 0.0000 0.0000
# 2 22.0444 84.0990 38.6747 0.0000 0.0000 0.0000
# 3 25.8663 38.6747 125.9748 0.0000 0.0000 0.0000
# 4 0.0000 0.0000 0.0000 21.2746 0.0000 0.0000
# 5 0.0000 0.0000 0.0000 0.0000 24.1350 0.0000
# 6 0.0000 0.0000 0.0000 0.0000 0.0000 13.9421
#
#
#
# Elastic Compliance Matrix: (Units=1/GPa)
#
#
# Indices 1 2 3 4 5 6 
#
# 1 0.024089 -0.004704 -0.003502 0.000000 0.000000 0.000000
# 2 -0.004704 0.014764 -0.003567 0.000000 0.000000 0.000000
# 3 -0.003502 -0.003567 0.009752 0.000000 0.000000 0.000000
# 4 0.000000 0.000000 0.000000 0.047004 0.000000 0.000000
# 5 0.000000 0.000000 0.000000 0.000000 0.041434 0.000000
# 6 0.000000 0.000000 0.000000 0.000000 0.000000 0.071725
#
#
# Mechanical properties :
#
#
# Convention : Reuss Voigt Hill
#
# Bulk Modulus (GPa) = 39.90448 48.09138 43.99793
# Shear Modulus (GPa) = 20.77560 23.40810 22.09185
#
# Velocity S-wave (km/s) = 3.42708 3.63774 3.53398
# Velocity P-wave (km/s) = 6.18213 6.69562 6.44399
#
# Compressibility (1/GPa) = 0.02505984
#
# Stress axis : x y z
#
# Youngs Moduli (GPa) = 41.51279 67.73238 102.54114
#
# Poissons Ratio (x) = 0.31860 0.35911
# Poissons Ratio (y) = 0.19527 0.36574
# Poissons Ratio (z) = 0.14538 0.24159
#
# Static dielectric constant tensor:
#      x y z
#    x 3.178370 0.000000 0.000000 
#    y 0.000000 3.056730 0.000000 
#    z 0.000000 0.000000 3.461850 
# 
# 
# High freq. dielectric constant tensor:
#      x y z
#    x 1.675600 0.000000 0.000000 
#    y 0.000000 1.658010 0.000000 
#    z 0.000000 0.000000 1.695090 
# 
# From -- ./inp_files/17284.got.cif
#   From: 2010.03.12/outbox.cif.g09.slc.cpg/sg51_9_cif.got.tgz:17284.got - 2010.04.16 13:43:02.
