data_PCOD8209450
_publ_section_title
;
Structure prediction by ZEFSAII (Michael W. Deem and Ramdas Pophale) SiO2 
 PCOD8209450
Probable space group: P M M A
;
_chemical_formula_sum "Si O2"
_cell_formula_units_Z 56
_cell_length_a 14.076415
_cell_length_b 9.276082
_cell_length_c 23.037684
_cell_angle_alpha 90.000000
_cell_angle_beta 90.000000
_cell_angle_gamma 90.000000
_cell_volume 3008.122085
_symmetry_space_group_name_H-M "P M M A"
_symmetry_group_IT_number 51
_symmetry_cell_setting 'orthorhombic'
loop_
_space_group_symop_operation_xyz
x,y,z
1/2-x,-y,z
1/2+x,-y,-z
-x,y,-z
-x,-y,-z
1/2+x,y,-z
1/2-x,y,z
x,-y,z
loop_
_atom_site_type_symbol
_atom_site_label
_atom_site_fract_x
_atom_site_fract_y
_atom_site_fract_z
Si Si1 0.146885 0.340904 0.412494
Si Si2 0.607845 0.160790 0.481271
Si Si3 0.545985 0.829080 0.914464
Si Si4 0.972812 0.327588 0.694507
Si Si5 0.361858 0.169505 0.204699
Si Si6 0.858958 0.832743 0.351734
Si Si7 0.644276 0.171513 0.030509
O O1 0.250000 0.347344 0.381836
O O2 0.111307 0.500000 0.430068
O O3 0.162216 0.251887 0.470977
O O4 0.074183 0.274764 0.366055
O O5 0.500000 0.163565 0.500000
O O6 0.624448 0.225936 0.417257
O O7 0.650145 0.000000 0.481732
O O8 0.589683 0.772925 0.854432
O O9 0.435644 0.777804 0.922589
O O10 0.549308 0.000000 0.915604
O O11 0.611114 0.771240 0.967311
O O12 0.975410 0.500000 0.700792
O O13 0.910613 0.261178 0.745337
O O14 0.078709 0.260956 0.693426
O O15 0.250000 0.202335 0.202619
O O16 0.380711 0.000000 0.214670
O O17 0.750000 0.811330 0.333401
O O18 0.889581 0.000000 0.347473
O O19 0.750000 0.233413 0.045320
O O20 0.648866 0.000000 0.029651
#
# Coordination Sequence:
#
# PCOD8209450 Si02
#       7
#     8   8   8   8   8   8   8
#     4  10  21  35  51  73 101 132 166 206 253 305
#     4  10  19  33  55  80 105 130 159 201 253 311
#     4   8  14  24  40  67 102 136 171 212 259 315
#     4  11  23  38  55  74 102 136 175 219 260 307
#     4  10  20  34  53  76 103 137 176 218 265 315
#     4  10  21  38  58  79 104 134 170 212 258 311
#     4   8  12  20  38  66 101 137 169 207 259 313
#
# _framework density 18.616266
#
# number of rings (size 3 to 8) (size 9 to 14) (size 15 to 20)
#    0.000    2.429    1.429    2.571    0.000    5.143 
#    0.000    0.714    0.000    2.571    0.000    2.000 
#    0.000    1.143    0.000    0.000    0.000    0.000 
#
# Total GULP energy -694033.877317 kJ/mol
# GULP energy per Si atom -12393.462095 kJ/mol
# Density = 1.857389 g / cm^3
# Si number density = 18.616266 Si / 1000 Ang^3
#
#
#
# Elastic Constant Matrix: (Units=GPa)
#
#
# Indices 1 2 3 4 5 6 
#
# 1 147.1801 38.8704 60.9188 0.0000 0.0000 0.0000
# 2 38.8704 50.9423 42.4993 0.0000 0.0000 0.0000
# 3 60.9188 42.4993 103.1498 0.0000 0.0000 0.0000
# 4 0.0000 0.0000 0.0000 6.7802 0.0000 0.0000
# 5 0.0000 0.0000 0.0000 0.0000 29.2908 0.0000
# 6 0.0000 0.0000 0.0000 0.0000 0.0000 13.5370
#
#
#
# Elastic Compliance Matrix: (Units=1/GPa)
#
#
# Indices 1 2 3 4 5 6 
#
# 1 0.009476 -0.003903 -0.003988 0.000000 0.000000 0.000000
# 2 -0.003903 0.031519 -0.010681 0.000000 0.000000 0.000000
# 3 -0.003988 -0.010681 0.016451 0.000000 0.000000 0.000000
# 4 0.000000 0.000000 0.000000 0.147487 0.000000 0.000000
# 5 0.000000 0.000000 0.000000 0.000000 0.034140 0.000000
# 6 0.000000 0.000000 0.000000 0.000000 0.000000 0.073872
#
#
# Mechanical properties :
#
#
# Convention : Reuss Voigt Hill
#
# Bulk Modulus (GPa) = 49.25917 65.09435 57.17676
# Shear Modulus (GPa) = 14.01117 20.52052 17.26585
#
# Velocity S-wave (km/s) = 2.74639 3.32368 3.04873
# Velocity P-wave (km/s) = 6.04769 7.05488 6.57062
#
# Compressibility (1/GPa) = 0.02030079
#
# Stress axis : x y z
#
# Youngs Moduli (GPa) = 105.53006 31.72660 60.78719
#
# Poissons Ratio (x) = 0.12384 0.24243
# Poissons Ratio (y) = 0.41191 0.64928
# Poissons Ratio (z) = 0.42087 0.33888
#
# Static dielectric constant tensor:
#      x y z
#    x 3.684130 0.000000 0.000000 
#    y 0.000000 3.080260 0.000000 
#    z 0.000000 0.000000 3.402290 
# 
# 
# High freq. dielectric constant tensor:
#      x y z
#    x 1.741810 0.000000 0.000000 
#    y 0.000000 1.680320 0.000000 
#    z 0.000000 0.000000 1.704350 
# 
# From -- ./inp_files/33469.got.cif
#   From: 2010.03.12/outbox.cif.g09.slc.cpg/sg51_17_cif.got.tgz:33469.got - 2010.04.16 13:43:02.
