data_PCOD8209496
_publ_section_title
;
Structure prediction by ZEFSAII (Michael W. Deem and Ramdas Pophale) SiO2 
 PCOD8209496
Probable space group: P M M A
;
_chemical_formula_sum "Si O2"
_cell_formula_units_Z 48
_cell_length_a 21.484909
_cell_length_b 9.238052
_cell_length_c 12.394679
_cell_angle_alpha 90.000000
_cell_angle_beta 90.000000
_cell_angle_gamma 90.000000
_cell_volume 2460.079856
_symmetry_space_group_name_H-M "P M M A"
_symmetry_group_IT_number 51
_symmetry_cell_setting 'orthorhombic'
loop_
_space_group_symop_operation_xyz
x,y,z
1/2-x,-y,z
1/2+x,-y,-z
-x,y,-z
-x,-y,-z
1/2+x,y,-z
1/2-x,y,z
x,-y,z
loop_
_atom_site_type_symbol
_atom_site_label
_atom_site_fract_x
_atom_site_fract_y
_atom_site_fract_z
Si Si1 0.319723 0.336410 0.075285
Si Si2 0.916658 0.328216 0.747946
Si Si3 0.989608 0.161898 0.120324
Si Si4 0.818532 0.171262 0.371534
Si Si5 0.345166 0.161299 0.862379
Si Si6 0.071370 0.171854 0.472071
O O1 0.250000 0.327482 0.120890
O O2 0.340086 0.500000 0.050135
O O3 0.363821 0.273190 0.168673
O O4 0.323658 0.252396 0.963853
O O5 0.916648 0.500000 0.731789
O O6 0.981845 0.274342 0.795559
O O7 0.905545 0.251122 0.634912
O O8 0.918410 0.155087 0.148753
O O9 0.019158 0.000000 0.131413
O O10 0.000000 0.222087 0.000000
O O11 0.750000 0.214416 0.420528
O O12 0.820539 0.232056 0.248970
O O13 0.878075 0.227806 0.439651
O O14 0.825241 0.000000 0.365474
O O15 0.318062 0.000000 0.878214
O O16 0.000000 0.217482 0.500000
O O17 0.074832 0.000000 0.455227
#
# Coordination Sequence:
#
# PCOD8209496 Si02
#       6
#     8   8   8   8   8   8
#     4  10  22  38  53  75 113 155 187 221 273 331
#     4  11  23  37  56  82 113 147 186 229 276 332
#     4  10  19  33  55  83 114 145 181 224 276 337
#     4   9  18  33  55  83 110 139 182 235 286 333
#     4  10  19  34  58  85 112 143 182 231 281 334
#     4  10  21  39  61  81 108 145 185 232 288 341
#
# _framework density 19.511562000000001
#
# number of rings (size 3 to 8) (size 9 to 14) (size 15 to 20)
#    0.000    2.000    1.667    2.000    0.000    6.333 
#    0.000    0.833    0.000    1.000    0.000    0.000 
#    0.000    0.000    0.000    0.000    0.000    0.000 
#
# Total GULP energy -595015.802649 kJ/mol
# GULP energy per Si atom -12396.162555 kJ/mol
# Density = 1.946715 g / cm^3
# Si number density = 19.511562 Si / 1000 Ang^3
#
#
#
# Elastic Constant Matrix: (Units=GPa)
#
#
# Indices 1 2 3 4 5 6 
#
# 1 122.7834 22.3846 54.7709 0.0000 0.0000 0.0000
# 2 22.3846 44.0511 37.4369 0.0000 0.0000 0.0000
# 3 54.7709 37.4369 139.2090 0.0000 0.0000 0.0000
# 4 0.0000 0.0000 0.0000 19.7477 0.0000 0.0000
# 5 0.0000 0.0000 0.0000 0.0000 23.1382 0.0000
# 6 0.0000 0.0000 0.0000 0.0000 0.0000 17.9644
#
#
#
# Elastic Compliance Matrix: (Units=1/GPa)
#
#
# Indices 1 2 3 4 5 6 
#
# 1 0.010049 -0.002264 -0.003345 0.000000 0.000000 0.000000
# 2 -0.002264 0.029936 -0.007160 0.000000 0.000000 0.000000
# 3 -0.003345 -0.007160 0.010425 0.000000 0.000000 0.000000
# 4 0.000000 0.000000 0.000000 0.050639 0.000000 0.000000
# 5 0.000000 0.000000 0.000000 0.000000 0.043219 0.000000
# 6 0.000000 0.000000 0.000000 0.000000 0.000000 0.055666
#
#
# Mechanical properties :
#
#
# Convention : Reuss Voigt Hill
#
# Bulk Modulus (GPa) = 40.20432 59.46981 49.83707
# Shear Modulus (GPa) = 21.38929 24.93347 23.16138
#
# Velocity S-wave (km/s) = 3.31454 3.57863 3.44911
# Velocity P-wave (km/s) = 5.94124 6.90079 6.43891
#
# Compressibility (1/GPa) = 0.02487295
#
# Stress axis : x y z
#
# Youngs Moduli (GPa) = 99.50970 33.40443 95.92310
#
# Poissons Ratio (x) = 0.07562 0.32087
# Poissons Ratio (y) = 0.22527 0.68680
# Poissons Ratio (z) = 0.33286 0.23917
#
# Static dielectric constant tensor:
#      x y z
#    x 3.800300 0.000000 0.000000 
#    y 0.000000 3.357980 0.000000 
#    z 0.000000 0.000000 3.639630 
# 
# 
# High freq. dielectric constant tensor:
#      x y z
#    x 1.774500 0.000000 0.000000 
#    y 0.000000 1.728530 0.000000 
#    z 0.000000 0.000000 1.762690 
# 
# From -- ./inp_files/18621.got.cif
#   From: 2010.03.12/outbox.cif.g09.slc.cpg/sg51_10_cif.got.tgz:18621.got - 2010.04.16 13:43:02.
