data_PCOD8209025
_publ_section_title
;
Structure prediction by ZEFSAII (Michael W. Deem and Ramdas Pophale) SiO2 
 PCOD8209025
Probable space group: P M M A
;
_chemical_formula_sum "Si O2"
_cell_formula_units_Z 48
_cell_length_a 18.284168
_cell_length_b 7.866000
_cell_length_c 17.452863
_cell_angle_alpha 90.000000
_cell_angle_beta 90.000000
_cell_angle_gamma 90.000000
_cell_volume 2510.127749
_symmetry_space_group_name_H-M "P M M A"
_symmetry_group_IT_number 51
_symmetry_cell_setting 'orthorhombic'
loop_
_space_group_symop_operation_xyz
x,y,z
1/2-x,-y,z
1/2+x,-y,-z
-x,y,-z
-x,-y,-z
1/2+x,y,-z
1/2-x,y,z
x,-y,z
loop_
_atom_site_type_symbol
_atom_site_label
_atom_site_fract_x
_atom_site_fract_y
_atom_site_fract_z
Si Si1 0.403392 0.308856 0.216648
Si Si2 0.835931 0.691071 0.076530
Si Si3 0.332609 0.196657 0.758912
Si Si4 0.466180 0.312894 0.675245
Si Si5 0.163790 0.000000 0.307187
Si Si6 0.067171 0.807868 0.049455
Si Si7 0.476262 0.000000 0.412623
O O1 0.373221 0.500000 0.234549
O O2 0.484254 0.283940 0.250065
O O3 0.350334 0.167730 0.254989
O O4 0.412328 0.294238 0.125561
O O5 0.750000 0.693055 0.072854
O O6 0.867032 0.500000 0.071009
O O7 0.862849 0.774754 0.155549
O O8 0.863007 0.802916 0.005735
O O9 0.250000 0.265713 0.750936
O O10 0.381770 0.300248 0.699542
O O11 0.337696 0.000000 0.737918
O O12 0.479360 0.500000 0.639173
O O13 0.485245 0.170919 0.614461
O O14 0.250000 0.000000 0.332371
O O15 0.109672 0.000000 0.383033
O O16 0.048354 0.000000 0.073661
O O17 0.000000 0.728196 0.000000
O O18 0.500000 0.000000 0.500000
#
# Coordination Sequence:
#
# PCOD8209025 Si02
#       7
#     8   8   8   8   4   8   4
#     4  10  21  37  58  84 112 151 201 248 295 347
#     4  10  21  34  47  68 102 144 188 235 288 339
#     4  10  19  32  52  79 112 152 194 237 286 338
#     4  10  20  36  61  87 115 151 189 230 277 336
#     4  10  22  42  65  89 118 153 192 239 294 351
#     4  11  22  34  51  75 107 150 199 251 300 344
#     4  10  22  42  66  93 124 151 182 225 277 347
#
# _framework density 19.122533000000001
#
# number of rings (size 3 to 8) (size 9 to 14) (size 15 to 20)
#    0.000    1.833    1.667    2.500    0.000    7.333 
#    0.000    0.833    0.000    0.000    0.000    0.000 
#    0.000    0.000    0.000    0.000    0.000    0.000 
#
# Total GULP energy -594959.419699 kJ/mol
# GULP energy per Si atom -12394.987910 kJ/mol
# Density = 1.907901 g / cm^3
# Si number density = 19.122533 Si / 1000 Ang^3
#
#
#
# Elastic Constant Matrix: (Units=GPa)
#
#
# Indices 1 2 3 4 5 6 
#
# 1 85.5488 43.0717 55.2500 0.0000 0.0000 0.0000
# 2 43.0717 118.3596 46.8162 0.0000 0.0000 0.0000
# 3 55.2500 46.8162 108.9991 0.0000 0.0000 0.0000
# 4 0.0000 0.0000 0.0000 264.1380 0.0000 0.0000
# 5 0.0000 0.0000 0.0000 0.0000 19.8827 0.0000
# 6 0.0000 0.0000 0.0000 0.0000 0.0000 20.5366
#
#
#
# Elastic Compliance Matrix: (Units=1/GPa)
#
#
# Indices 1 2 3 4 5 6 
#
# 1 0.018610 -0.003663 -0.007859 0.000000 0.000000 0.000000
# 2 -0.003663 0.010899 -0.002824 0.000000 0.000000 0.000000
# 3 -0.007859 -0.002824 0.014371 0.000000 0.000000 0.000000
# 4 0.000000 0.000000 0.000000 0.003786 0.000000 0.000000
# 5 0.000000 0.000000 0.000000 0.000000 0.050295 0.000000
# 6 0.000000 0.000000 0.000000 0.000000 0.000000 0.048694
#
#
# Mechanical properties :
#
#
# Convention : Reuss Voigt Hill
#
# Bulk Modulus (GPa) = 65.85189 67.02037 66.43613
# Shear Modulus (GPa) = 27.71454 72.09608 49.90531
#
# Velocity S-wave (km/s) = 3.81111 6.14687 5.11413
# Velocity P-wave (km/s) = 7.34014 9.24676 8.34806
#
# Compressibility (1/GPa) = 0.01518559
#
# Stress axis : x y z
#
# Youngs Moduli (GPa) = 53.73593 91.75059 69.58307
#
# Poissons Ratio (x) = 0.33612 0.54688
# Poissons Ratio (y) = 0.19686 0.19653
# Poissons Ratio (z) = 0.42233 0.25914
#
# Static dielectric constant tensor:
#      x y z
#    x 3.476650 0.000000 0.000000 
#    y 0.000000 3.897040 0.000000 
#    z 0.000000 0.000000 3.257910 
# 
# 
# High freq. dielectric constant tensor:
#      x y z
#    x 1.736960 0.000000 0.000000 
#    y 0.000000 1.761590 0.000000 
#    z 0.000000 0.000000 1.710170 
# 
# From -- ./inp_files/24995.got.cif
#   From: 2010.03.12/outbox.cif.g09.slc.cpg/sg51_13_cif.got.tgz:24995.got - 2010.04.16 13:43:02.
