data_PCOD8209652
_publ_section_title
;
Structure prediction by ZEFSAII (Michael W. Deem and Ramdas Pophale) SiO2 
 PCOD8209652
Probable space group: P M M A
;
_chemical_formula_sum "Si O2"
_cell_formula_units_Z 48
_cell_length_a 15.580933
_cell_length_b 8.691133
_cell_length_c 17.979744
_cell_angle_alpha 90.000000
_cell_angle_beta 90.000000
_cell_angle_gamma 90.000000
_cell_volume 2434.744312
_symmetry_space_group_name_H-M "P M M A"
_symmetry_group_IT_number 51
_symmetry_cell_setting 'orthorhombic'
loop_
_space_group_symop_operation_xyz
x,y,z
1/2-x,-y,z
1/2+x,-y,-z
-x,y,-z
-x,-y,-z
1/2+x,y,-z
1/2-x,y,z
x,-y,z
loop_
_atom_site_type_symbol
_atom_site_label
_atom_site_fract_x
_atom_site_fract_y
_atom_site_fract_z
Si Si1 0.750000 0.816470 0.539681
Si Si2 0.250000 0.318503 0.956681
Si Si3 0.924085 0.819621 0.287516
Si Si4 0.750000 0.817942 0.708344
Si Si5 0.912955 0.318609 0.790183
Si Si6 0.584104 0.316702 0.959272
Si Si7 0.250000 0.177471 0.797252
Si Si8 0.917399 0.816962 0.456788
O O1 0.750000 0.755399 0.624014
O O2 0.833236 0.750649 0.497357
O O3 0.750000 0.000000 0.538291
O O4 0.250000 0.500000 0.965578
O O5 0.250000 0.279222 0.870461
O O6 0.333741 0.249513 0.997135
O O7 0.833060 0.781150 0.250939
O O8 0.920088 0.760347 0.372041
O O9 0.996980 0.724874 0.246018
O O10 0.946096 0.000000 0.283396
O O11 0.664932 0.760175 0.748070
O O12 0.750000 0.000000 0.709364
O O13 0.899471 0.500000 0.786978
O O14 0.913389 0.257883 0.874749
O O15 0.583068 0.500000 0.961535
O O16 0.500000 0.249914 0.000000
O O17 0.250000 0.000000 0.820822
O O18 0.000000 0.751720 0.500000
O O19 0.915800 0.000000 0.459407
#
# Coordination Sequence:
#
# PCOD8209652 Si02
#       8
#     4   4   8   4   8   8   4   8
#     4   9  17  30  52  80 104 135 182 226 260 303
#     4  10  19  34  56  76  97 132 180 226 264 310
#     4  10  20  35  55  81 113 145 178 222 273 320
#     4  11  22  37  58  83 112 143 178 224 274 323
#     4  11  22  37  58  82 109 142 181 224 270 323
#     4   9  18  33  53  76 101 134 179 225 262 304
#     4  10  21  35  52  79 115 146 172 214 276 332
#     4   9  16  28  49  76 103 133 175 222 260 300
#
# _framework density 19.714596
#
# number of rings (size 3 to 8) (size 9 to 14) (size 15 to 20)
#    0.000    2.167    0.000    3.750    0.000    8.000 
#    0.000    2.500    0.000   10.000    0.000    0.000 
#    0.000    0.000    0.000    0.000    0.000    0.000 
#
# Total GULP energy -595314.323184 kJ/mol
# GULP energy per Si atom -12402.381733 kJ/mol
# Density = 1.966972 g / cm^3
# Si number density = 19.714596 Si / 1000 Ang^3
#
#
#
# Elastic Constant Matrix: (Units=GPa)
#
#
# Indices 1 2 3 4 5 6 
#
# 1 179.2876 18.6218 84.4840 0.0000 0.0000 0.0000
# 2 18.6218 26.7248 21.3807 0.0000 0.0000 0.0000
# 3 84.4840 21.3807 183.8891 0.0000 0.0000 0.0000
# 4 0.0000 0.0000 0.0000 1.9089 0.0000 0.0000
# 5 0.0000 0.0000 0.0000 0.0000 48.5946 0.0000
# 6 0.0000 0.0000 0.0000 0.0000 0.0000 19.9981
#
#
#
# Elastic Compliance Matrix: (Units=1/GPa)
#
#
# Indices 1 2 3 4 5 6 
#
# 1 0.007284 -0.002644 -0.003039 0.000000 0.000000 0.000000
# 2 -0.002644 0.042216 -0.003694 0.000000 0.000000 0.000000
# 3 -0.003039 -0.003694 0.007264 0.000000 0.000000 0.000000
# 4 0.000000 0.000000 0.000000 0.523865 0.000000 0.000000
# 5 0.000000 0.000000 0.000000 0.000000 0.020578 0.000000
# 6 0.000000 0.000000 0.000000 0.000000 0.000000 0.050005
#
#
# Mechanical properties :
#
#
# Convention : Reuss Voigt Hill
#
# Bulk Modulus (GPa) = 26.30888 70.98607 48.64747
# Shear Modulus (GPa) = 7.32454 31.79465 19.55960
#
# Velocity S-wave (km/s) = 1.92960 4.02026 3.15324
# Velocity P-wave (km/s) = 4.28233 7.59177 6.16333
#
# Compressibility (1/GPa) = 0.03800999
#
# Stress axis : x y z
#
# Youngs Moduli (GPa) = 137.27915 23.68775 137.66855
#
# Poissons Ratio (x) = 0.06264 0.41841
# Poissons Ratio (y) = 0.36301 0.50849
# Poissons Ratio (z) = 0.41722 0.08749
#
# Static dielectric constant tensor:
#      x y z
#    x 3.788130 0.000000 0.000000 
#    y 0.000000 3.096580 0.000000 
#    z 0.000000 0.000000 3.829560 
# 
# 
# High freq. dielectric constant tensor:
#      x y z
#    x 1.791090 0.000000 0.000000 
#    y 0.000000 1.718830 0.000000 
#    z 0.000000 0.000000 1.788560 
# 
# From -- ./inp_files/29704.got.cif
#   From: 2010.03.12/outbox.cif.g09.slc.cpg/sg51_15_cif.got.tgz:29704.got - 2010.04.16 13:43:02.
