data_PCOD8209241
_publ_section_title
;
Structure prediction by ZEFSAII (Michael W. Deem and Ramdas Pophale) SiO2 
 PCOD8209241
Probable space group: P M M A
;
_chemical_formula_sum "Si O2"
_cell_formula_units_Z 52
_cell_length_a 8.820856
_cell_length_b 23.445812
_cell_length_c 14.460442
_cell_angle_alpha 90.000000
_cell_angle_beta 90.000000
_cell_angle_gamma 90.000000
_cell_volume 2990.594832
_symmetry_space_group_name_H-M "P M M A"
_symmetry_group_IT_number 51
_symmetry_cell_setting 'orthorhombic'
loop_
_space_group_symop_operation_xyz
x,y,z
1/2-x,-y,z
1/2+x,-y,-z
-x,y,-z
-x,-y,-z
1/2+x,y,-z
1/2-x,y,z
x,-y,z
loop_
_atom_site_type_symbol
_atom_site_label
_atom_site_fract_x
_atom_site_fract_y
_atom_site_fract_z
Si Si1 0.428349 0.877096 0.100087
Si Si2 0.072951 0.000000 0.098623
Si Si3 0.425953 0.610634 0.593398
Si Si4 0.429982 0.229820 0.218080
Si Si5 0.072357 0.743917 0.594826
Si Si6 0.569788 0.669900 0.099890
Si Si7 0.930113 0.436732 0.215205
O O1 0.250000 0.872547 0.086187
O O2 0.484969 0.827976 0.168418
O O3 0.473993 0.939322 0.145564
O O4 0.500000 0.867591 0.000000
O O5 0.250000 0.000000 0.083457
O O6 0.000000 0.000000 0.000000
O O7 0.500000 0.586144 0.500000
O O8 0.250000 0.598141 0.584585
O O9 0.460907 0.677108 0.605500
O O10 0.495145 0.579121 0.683315
O O11 0.250000 0.238372 0.214500
O O12 0.487085 0.223924 0.322682
O O13 0.511369 0.282758 0.169994
O O14 0.250000 0.757715 0.597050
O O15 0.000000 0.767047 0.500000
O O16 0.750000 0.673875 0.093717
O O17 0.514523 0.608313 0.138142
O O18 0.500000 0.680514 0.000000
O O19 0.750000 0.434174 0.220983
O O20 0.987339 0.500000 0.187284
#
# Coordination Sequence:
#
# PCOD8209241 Si02
#       7
#     8   4   8   8   8   8   8
#     4   9  18  30  47  72 102 136 172 205 244 287
#     4   8  14  28  46  66  97 134 169 206 241 284
#     4   9  17  31  50  73  96 122 153 189 239 294
#     4  11  21  33  51  77 104 133 166 204 246 295
#     4  10  19  33  52  76 102 132 163 201 248 298
#     4  11  22  37  53  72  96 128 166 207 255 299
#     4   9  18  34  53  70  93 126 162 200 246 300
#
# _framework density 17.387844999999999
#
# number of rings (size 3 to 8) (size 9 to 14) (size 15 to 20)
#    0.000    2.308    1.538    1.846    0.000    3.692 
#    0.000    0.000    0.000    3.231    0.000    0.538 
#    0.000    0.000    0.000    0.000    0.000    0.000 
#
# Total GULP energy -644534.915989 kJ/mol
# GULP energy per Si atom -12394.902231 kJ/mol
# Density = 1.734827 g / cm^3
# Si number density = 17.387845 Si / 1000 Ang^3
#
#
#
# Elastic Constant Matrix: (Units=GPa)
#
#
# Indices 1 2 3 4 5 6 
#
# 1 43.7125 33.3082 29.8030 0.0000 0.0000 0.0000
# 2 33.3082 117.3556 52.2782 0.0000 0.0000 0.0000
# 3 29.8030 52.2782 115.4946 0.0000 0.0000 0.0000
# 4 0.0000 0.0000 0.0000 -51.4769 0.0000 0.0000
# 5 0.0000 0.0000 0.0000 0.0000 29.3656 0.0000
# 6 0.0000 0.0000 0.0000 0.0000 0.0000 16.9500
#
#
#
# Elastic Compliance Matrix: (Units=1/GPa)
#
#
# Indices 1 2 3 4 5 6 
#
# 1 0.031417 -0.006645 -0.005099 0.000000 0.000000 0.000000
# 2 -0.006645 0.012079 -0.003753 0.000000 0.000000 0.000000
# 3 -0.005099 -0.003753 0.011673 0.000000 0.000000 0.000000
# 4 0.000000 0.000000 0.000000 -0.019426 0.000000 0.000000
# 5 0.000000 0.000000 0.000000 0.000000 0.034053 0.000000
# 6 0.000000 0.000000 0.000000 0.000000 0.000000 0.058997
#
#
# Mechanical properties :
#
#
# Convention : Reuss Voigt Hill
#
# Bulk Modulus (GPa) = 41.36584 56.37128 48.86856
# Shear Modulus (GPa) = 29.78934 9.71264 19.75099
#
# Velocity S-wave (km/s) = 4.14361 2.36601 3.37398
# Velocity P-wave (km/s) = 6.83625 6.32094 6.58364
#
# Compressibility (1/GPa) = 0.02417454
#
# Stress axis : x y z
#
# Youngs Moduli (GPa) = 31.82996 82.78895 85.66915
#
# Poissons Ratio (x) = 0.55017 0.43683
# Poissons Ratio (y) = 0.21152 0.32149
# Poissons Ratio (z) = 0.16230 0.31068
#
# Static dielectric constant tensor:
#      x y z
#    x 3.129860 0.000000 0.000000 
#    y 0.000000 3.627840 0.000000 
#    z 0.000000 0.000000 3.338030 
# 
# 
# High freq. dielectric constant tensor:
#      x y z
#    x 1.663700 0.000000 0.000000 
#    y 0.000000 1.664580 0.000000 
#    z 0.000000 0.000000 1.663940 
# 
# From -- ./inp_files/21574.got.cif
#   From: 2010.03.12/outbox.cif.g09.slc.cpg/sg51_11_cif.got.tgz:21574.got - 2010.04.16 13:43:02.
