data_PCOD8209620
_publ_section_title
;
Structure prediction by ZEFSAII (Michael W. Deem and Ramdas Pophale) SiO2 
 PCOD8209620
Probable space group: P M M A
;
_chemical_formula_sum "Si O2"
_cell_formula_units_Z 48
_cell_length_a 25.140525
_cell_length_b 8.916504
_cell_length_c 11.829333
_cell_angle_alpha 90.000000
_cell_angle_beta 90.000000
_cell_angle_gamma 90.000000
_cell_volume 2651.729432
_symmetry_space_group_name_H-M "P M M A"
_symmetry_group_IT_number 51
_symmetry_cell_setting 'orthorhombic'
loop_
_space_group_symop_operation_xyz
x,y,z
1/2-x,-y,z
1/2+x,-y,-z
-x,y,-z
-x,-y,-z
1/2+x,y,-z
1/2-x,y,z
x,-y,z
loop_
_atom_site_type_symbol
_atom_site_label
_atom_site_fract_x
_atom_site_fract_y
_atom_site_fract_z
Si Si1 0.688404 0.174178 0.377374
Si Si2 0.689969 0.326885 0.608451
Si Si3 0.496517 0.825612 0.631986
Si Si4 0.599697 0.322153 0.240717
Si Si5 0.907749 0.674880 0.758684
Si Si6 0.559494 0.322848 0.002909
O O1 0.750000 0.208888 0.354979
O O2 0.671285 0.231158 0.501005
O O3 0.656058 0.258598 0.280488
O O4 0.674878 0.000000 0.371544
O O5 0.750000 0.284173 0.645573
O O6 0.686229 0.500000 0.572646
O O7 0.651388 0.291027 0.713264
O O8 0.500000 0.792509 0.500000
O O9 0.446945 0.733708 0.678550
O O10 0.550655 0.771788 0.689029
O O11 0.487817 0.000000 0.657955
O O12 0.601302 0.500000 0.246068
O O13 0.590103 0.261880 0.113199
O O14 0.922955 0.500000 0.745787
O O15 0.908913 0.724372 0.889919
O O16 0.555031 0.500000 0.012780
O O17 0.500000 0.253876 0.000000
#
# Coordination Sequence:
#
# PCOD8209620 Si02
#       6
#     8   8   8   8   8   8
#     4  10  21  37  56  78 109 145 176 214 266 317
#     4   9  18  33  55  82 108 136 175 220 264 316
#     4  11  23  35  49  75 110 140 171 217 269 320
#     4  11  21  35  57  80 105 139 179 221 264 314
#     4  10  19  34  55  77 104 139 178 218 265 317
#     4   9  17  33  54  77 106 140 176 217 265 313
#
# _framework density 18.101395
#
# number of rings (size 3 to 8) (size 9 to 14) (size 15 to 20)
#    0.000    2.000    1.667    2.500    0.000    5.667 
#    0.000    3.333    0.000    3.000    0.000    2.333 
#    0.000    0.000    0.000    0.000    0.000    0.000 
#
# Total GULP energy -595299.273420 kJ/mol
# GULP energy per Si atom -12402.068196 kJ/mol
# Density = 1.806019 g / cm^3
# Si number density = 18.101395 Si / 1000 Ang^3
#
#
#
# Elastic Constant Matrix: (Units=GPa)
#
#
# Indices 1 2 3 4 5 6 
#
# 1 108.9768 40.0703 81.1511 0.0000 0.0000 0.0000
# 2 40.0703 63.3645 54.6683 0.0000 0.0000 0.0000
# 3 81.1511 54.6683 161.1721 0.0000 0.0000 0.0000
# 4 0.0000 0.0000 0.0000 5.7173 0.0000 0.0000
# 5 0.0000 0.0000 0.0000 0.0000 31.0846 0.0000
# 6 0.0000 0.0000 0.0000 0.0000 0.0000 25.9278
#
#
#
# Elastic Compliance Matrix: (Units=1/GPa)
#
#
# Indices 1 2 3 4 5 6 
#
# 1 0.015478 -0.004332 -0.006324 0.000000 0.000000 0.000000
# 2 -0.004332 0.023523 -0.005798 0.000000 0.000000 0.000000
# 3 -0.006324 -0.005798 0.011355 0.000000 0.000000 0.000000
# 4 0.000000 0.000000 0.000000 0.174909 0.000000 0.000000
# 5 0.000000 0.000000 0.000000 0.000000 0.032170 0.000000
# 6 0.000000 0.000000 0.000000 0.000000 0.000000 0.038569
#
#
# Mechanical properties :
#
#
# Convention : Reuss Voigt Hill
#
# Bulk Modulus (GPa) = 57.30888 76.14365 66.72626
# Shear Modulus (GPa) = 14.93746 23.05418 18.99582
#
# Velocity S-wave (km/s) = 2.87576 3.57264 3.24298
# Velocity P-wave (km/s) = 6.53876 7.69251 7.13898
#
# Compressibility (1/GPa) = 0.01744930
#
# Stress axis : x y z
#
# Youngs Moduli (GPa) = 64.60583 42.51120 88.06467
#
# Poissons Ratio (x) = 0.18416 0.55693
# Poissons Ratio (y) = 0.27988 0.51057
# Poissons Ratio (z) = 0.40857 0.24647
#
# Static dielectric constant tensor:
#      x y z
#    x 3.444530 0.000000 0.000000 
#    y 0.000000 3.262730 0.000000 
#    z 0.000000 0.000000 3.534420 
# 
# 
# High freq. dielectric constant tensor:
#      x y z
#    x 1.702800 0.000000 0.000000 
#    y 0.000000 1.690620 0.000000 
#    z 0.000000 0.000000 1.703550 
# 
# From -- ./inp_files/18580.got.cif
#   From: 2010.03.12/outbox.cif.g09.slc.cpg/sg51_10_cif.got.tgz:18580.got - 2010.04.16 13:43:02.
