data_PCOD8209205
_publ_section_title
;
Structure prediction by ZEFSAII (Michael W. Deem and Ramdas Pophale) SiO2 
 PCOD8209205
Probable space group: P M M A
;
_chemical_formula_sum "Si O2"
_cell_formula_units_Z 64
_cell_length_a 9.659951
_cell_length_b 15.094312
_cell_length_c 23.800378
_cell_angle_alpha 90.000000
_cell_angle_beta 90.000000
_cell_angle_gamma 90.000000
_cell_volume 3470.340597
_symmetry_space_group_name_H-M "P M M A"
_symmetry_group_IT_number 51
_symmetry_cell_setting 'orthorhombic'
loop_
_space_group_symop_operation_xyz
x,y,z
1/2-x,-y,z
1/2+x,-y,-z
-x,y,-z
-x,-y,-z
1/2+x,y,-z
1/2-x,y,z
x,-y,z
loop_
_atom_site_type_symbol
_atom_site_label
_atom_site_fract_x
_atom_site_fract_y
_atom_site_fract_z
Si Si1 0.406488 0.104339 0.051186
Si Si2 0.403488 0.652212 0.169429
Si Si3 0.407159 0.401269 0.739326
Si Si4 0.909410 0.399348 0.554022
Si Si5 0.586104 0.096510 0.707352
Si Si6 0.905649 0.146403 0.826453
Si Si7 0.912253 0.281399 0.659672
Si Si8 0.593487 0.601074 0.951836
O O1 0.250000 0.144868 0.046729
O O2 0.475816 0.127313 0.112616
O O3 0.398920 0.000000 0.044674
O O4 0.500000 0.143425 0.000000
O O5 0.250000 0.610208 0.179629
O O6 0.522097 0.594898 0.199369
O O7 0.407556 0.751594 0.191645
O O8 0.434537 0.657454 0.103521
O O9 0.250000 0.365663 0.743649
O O10 0.407874 0.500000 0.713607
O O11 0.499414 0.336771 0.703042
O O12 0.750000 0.391936 0.536247
O O13 0.940283 0.500000 0.576346
O O14 0.946676 0.323022 0.598971
O O15 0.000000 0.377621 0.500000
O O16 0.750000 0.102412 0.713507
O O17 0.523541 0.101777 0.771219
O O18 0.541259 0.177681 0.665839
O O19 0.541483 0.000000 0.681958
O O20 0.750000 0.109918 0.833457
O O21 0.750000 0.294054 0.673499
O O22 0.750000 0.607789 0.972563
O O23 0.550579 0.500000 0.939266
O O24 0.500000 0.643816 0.000000
#
# Coordination Sequence:
#
# PCOD8209205 Si02
#       8
#     8   8   8   8   8   8   8   8
#     4   9  17  29  45  65  90 120 156 201 254 313
#     4  10  19  33  51  70  93 125 168 213 256 311
#     4  11  23  35  49  74 107 140 171 210 264 317
#     4   9  18  32  52  80 113 148 184 219 257 302
#     4   9  16  28  51  81 106 131 172 225 270 307
#     4   9  16  28  47  71  95 122 161 210 259 308
#     4  10  19  34  56  82 109 141 182 223 259 302
#     4   9  18  31  46  63  84 115 157 204 254 309
#
# _framework density 18.441994000000001
#
# number of rings (size 3 to 8) (size 9 to 14) (size 15 to 20)
#    0.000    2.500    1.250    1.500    0.000    5.000 
#    0.000    3.125    0.000    0.750    0.000    0.000 
#    0.000    0.000    0.000    0.000    0.000    0.000 
#
# Total GULP energy -792972.431360 kJ/mol
# GULP energy per Si atom -12390.194240 kJ/mol
# Density = 1.840002 g / cm^3
# Si number density = 18.441994 Si / 1000 Ang^3
#
#
#
# Elastic Constant Matrix: (Units=GPa)
#
#
# Indices 1 2 3 4 5 6 
#
# 1 65.3112 30.5328 47.8394 0.0000 0.0000 0.0000
# 2 30.5328 101.5509 52.6818 0.0000 0.0000 0.0000
# 3 47.8394 52.6818 108.2343 0.0000 0.0000 0.0000
# 4 0.0000 0.0000 0.0000 27.5487 0.0000 0.0000
# 5 0.0000 0.0000 0.0000 0.0000 27.5839 0.0000
# 6 0.0000 0.0000 0.0000 0.0000 0.0000 11.1556
#
#
#
# Elastic Compliance Matrix: (Units=1/GPa)
#
#
# Indices 1 2 3 4 5 6 
#
# 1 0.023002 -0.002196 -0.009098 0.000000 0.000000 0.000000
# 2 -0.002196 0.013383 -0.005544 0.000000 0.000000 0.000000
# 3 -0.009098 -0.005544 0.015959 0.000000 0.000000 0.000000
# 4 0.000000 0.000000 0.000000 0.036299 0.000000 0.000000
# 5 0.000000 0.000000 0.000000 0.000000 0.036253 0.000000
# 6 0.000000 0.000000 0.000000 0.000000 0.000000 0.089641
#
#
# Mechanical properties :
#
#
# Convention : Reuss Voigt Hill
#
# Bulk Modulus (GPa) = 53.56474 59.68939 56.62706
# Shear Modulus (GPa) = 19.65129 22.86046 21.25588
#
# Velocity S-wave (km/s) = 3.26785 3.52460 3.39865
# Velocity P-wave (km/s) = 6.58381 7.00000 6.79509
#
# Compressibility (1/GPa) = 0.01866900
#
# Stress axis : x y z
#
# Youngs Moduli (GPa) = 43.47433 74.71938 62.66168
#
# Poissons Ratio (x) = 0.16410 0.57009
# Poissons Ratio (y) = 0.09548 0.34737
# Poissons Ratio (z) = 0.39553 0.41421
#
# Static dielectric constant tensor:
#      x y z
#    x 3.239010 0.000000 0.000000 
#    y 0.000000 3.503900 0.000000 
#    z 0.000000 0.000000 3.365130 
# 
# 
# High freq. dielectric constant tensor:
#      x y z
#    x 1.677390 0.000000 0.000000 
#    y 0.000000 1.716120 0.000000 
#    z 0.000000 0.000000 1.700540 
# 
# From -- ./inp_files/34991.got.cif
#   From: 2010.03.12/outbox.cif.g09.slc.cpg/sg51_18_cif.got.tgz:34991.got - 2010.04.16 13:43:02.
