data_PCOD8209723
_publ_section_title
;
Structure prediction by ZEFSAII (Michael W. Deem and Ramdas Pophale) SiO2 
 PCOD8209723
Probable space group: P M M A
;
_chemical_formula_sum "Si O2"
_cell_formula_units_Z 48
_cell_length_a 13.692828
_cell_length_b 8.661836
_cell_length_c 20.920591
_cell_angle_alpha 90.000000
_cell_angle_beta 90.000000
_cell_angle_gamma 90.000000
_cell_volume 2481.287334
_symmetry_space_group_name_H-M "P M M A"
_symmetry_group_IT_number 51
_symmetry_cell_setting 'orthorhombic'
loop_
_space_group_symop_operation_xyz
x,y,z
1/2-x,-y,z
1/2+x,-y,-z
-x,y,-z
-x,-y,-z
1/2+x,y,-z
1/2-x,y,z
x,-y,z
loop_
_atom_site_type_symbol
_atom_site_label
_atom_site_fract_x
_atom_site_fract_y
_atom_site_fract_z
Si Si1 0.544313 0.815178 0.753453
Si Si2 0.856203 0.184108 0.013997
Si Si3 0.360561 0.182738 0.670594
Si Si4 0.750000 0.675236 0.563259
Si Si5 0.023070 0.183245 0.103829
Si Si6 0.393241 0.171113 0.526418
Si Si7 0.750000 0.180208 0.697704
O O1 0.448439 0.751226 0.715346
O O2 0.536381 0.748577 0.825445
O O3 0.648380 0.750881 0.726554
O O4 0.544423 0.000000 0.750613
O O5 0.750000 0.254418 0.025904
O O6 0.922861 0.244525 0.072062
O O7 0.856704 0.000000 0.014490
O O8 0.891488 0.239276 0.943906
O O9 0.250000 0.242510 0.688956
O O10 0.386589 0.234616 0.598597
O O11 0.361534 0.000000 0.676602
O O12 0.750000 0.500000 0.587751
O O13 0.843086 0.706798 0.519660
O O14 0.750000 0.789731 0.622729
O O15 0.021924 0.000000 0.108999
O O16 0.500000 0.156613 0.500000
O O17 0.344273 0.000000 0.523768
O O18 0.750000 0.000000 0.711528
#
# Coordination Sequence:
#
# PCOD8209723 Si02
#       7
#     8   8   8   4   8   8   4
#     4   9  17  27  42  64  89 120 160 206 247 285
#     4   8  13  20  31  46  75 118 158 190 227 280
#     4   9  16  27  43  65  88 111 147 197 250 297
#     4  12  24  36  52  76 106 133 164 208 256 315
#     4   8  14  22  31  51  78 111 159 197 226 277
#     4  10  19  34  57  77  97 128 167 211 258 308
#     4  10  20  34  50  70  96 127 170 212 248 299
#
# _framework density 19.344795999999999
#
# number of rings (size 3 to 8) (size 9 to 14) (size 15 to 20)
#    0.000    2.833    0.833    2.750    1.167    3.667 
#    0.000    3.333    0.000    0.000    0.000    0.000 
#    0.000    0.000    0.000    3.000    0.000    6.333 
#
# Total GULP energy -594664.322158 kJ/mol
# GULP energy per Si atom -12388.840045 kJ/mol
# Density = 1.930077 g / cm^3
# Si number density = 19.344796 Si / 1000 Ang^3
#
#
#
# Elastic Constant Matrix: (Units=GPa)
#
#
# Indices 1 2 3 4 5 6 
#
# 1 172.3355 6.5991 75.2947 0.0000 0.0000 0.0000
# 2 6.5991 9.5802 1.3644 0.0000 0.0000 0.0000
# 3 75.2947 1.3644 155.8444 0.0000 0.0000 0.0000
# 4 0.0000 0.0000 0.0000 1.4441 0.0000 0.0000
# 5 0.0000 0.0000 0.0000 0.0000 18.7692 0.0000
# 6 0.0000 0.0000 0.0000 0.0000 0.0000 4.6244
#
#
#
# Elastic Compliance Matrix: (Units=1/GPa)
#
#
# Indices 1 2 3 4 5 6 
#
# 1 0.007560 -0.004693 -0.003612 0.000000 0.000000 0.000000
# 2 -0.004693 0.107426 0.001327 0.000000 0.000000 0.000000
# 3 -0.003612 0.001327 0.008150 0.000000 0.000000 0.000000
# 4 0.000000 0.000000 0.000000 0.692475 0.000000 0.000000
# 5 0.000000 0.000000 0.000000 0.000000 0.053279 0.000000
# 6 0.000000 0.000000 0.000000 0.000000 0.000000 0.216242
#
#
# Mechanical properties :
#
#
# Convention : Reuss Voigt Hill
#
# Bulk Modulus (GPa) = 9.15915 56.03070 32.59493
# Shear Modulus (GPa) = 4.40342 21.93434 13.16888
#
# Velocity S-wave (km/s) = 1.51037 3.37094 2.61194
# Velocity P-wave (km/s) = 2.79045 6.64666 5.09729
#
# Compressibility (1/GPa) = 0.10918040
#
# Stress axis : x y z
#
# Youngs Moduli (GPa) = 132.27020 9.30874 122.70030
#
# Poissons Ratio (x) = 0.04369 0.44314
# Poissons Ratio (y) = 0.62079 -0.16283
# Poissons Ratio (z) = 0.47771 -0.01235
#
# Static dielectric constant tensor:
#      x y z
#    x 3.987510 0.000000 0.000000 
#    y 0.000000 2.690200 0.000000 
#    z 0.000000 0.000000 3.724380 
# 
# 
# High freq. dielectric constant tensor:
#      x y z
#    x 1.772250 0.000000 0.000000 
#    y 0.000000 1.663390 0.000000 
#    z 0.000000 0.000000 1.759210 
# 
# From -- ./inp_files/29508.got.cif
#   From: 2010.03.12/outbox.cif.g09.slc.cpg/sg51_15_cif.got.tgz:29508.got - 2010.04.16 13:43:02.
