data_PCOD8209179
_publ_section_title
;
Structure prediction by ZEFSAII (Michael W. Deem and Ramdas Pophale) SiO2 
 PCOD8209179
Probable space group: P M M A
;
_chemical_formula_sum "Si O2"
_cell_formula_units_Z 64
_cell_length_a 8.831457
_cell_length_b 31.059089
_cell_length_c 14.422259
_cell_angle_alpha 90.000000
_cell_angle_beta 90.000000
_cell_angle_gamma 90.000000
_cell_volume 3955.982506
_symmetry_space_group_name_H-M "P M M A"
_symmetry_group_IT_number 51
_symmetry_cell_setting 'orthorhombic'
loop_
_space_group_symop_operation_xyz
x,y,z
1/2-x,-y,z
1/2+x,-y,-z
-x,y,-z
-x,-y,-z
1/2+x,y,-z
1/2-x,y,z
x,-y,z
loop_
_atom_site_type_symbol
_atom_site_label
_atom_site_fract_x
_atom_site_fract_y
_atom_site_fract_z
Si Si1 0.572091 0.954560 0.900139
Si Si2 0.071698 0.861707 0.100144
Si Si3 0.570352 0.622129 0.790934
Si Si4 0.427939 0.345664 0.407000
Si Si5 0.073645 0.550057 0.902794
Si Si6 0.070286 0.700912 0.899538
Si Si7 0.928219 0.778693 0.790753
Si Si8 0.926109 0.248138 0.591260
O O1 0.750000 0.954136 0.913564
O O2 0.523709 0.908543 0.854856
O O3 0.525268 0.000000 0.847679
O O4 0.500000 0.955631 0.000000
O O5 0.250000 0.859010 0.086249
O O6 0.017245 0.824539 0.169558
O O7 0.000000 0.854042 0.000000
O O8 0.750000 0.626067 0.802933
O O9 0.521475 0.627969 0.683831
O O10 0.510883 0.575449 0.821143
O O11 0.492215 0.657453 0.855141
O O12 0.500000 0.366246 0.500000
O O13 0.250000 0.347201 0.418926
O O14 0.486965 0.296765 0.393961
O O15 0.250000 0.562080 0.905742
O O16 0.047293 0.500000 0.882312
O O17 0.000000 0.563742 0.000000
O O18 0.250000 0.698136 0.907328
O O19 0.023918 0.741358 0.837733
O O20 0.000000 0.707539 0.000000
O O21 0.750000 0.769687 0.807232
O O22 0.966808 0.779790 0.681584
O O23 0.750000 0.249172 0.573115
O O24 0.000000 0.226839 0.500000
#
# Coordination Sequence:
#
# PCOD8209179 Si02
#       8
#     8   8   8   8   8   8   8   8
#     4   8  13  22  36  55  78 106 144 186 225 266
#     4   9  17  27  41  59  84 120 153 185 226 270
#     4  11  21  36  55  76 101 127 159 196 235 276
#     4   9  18  32  51  73  97 123 152 191 235 276
#     4  10  21  37  56  79 105 132 162 196 234 276
#     4  12  24  35  48  67  94 128 162 193 228 268
#     4  10  19  33  47  63  91 122 154 190 230 276
#     4   9  17  31  48  66  89 116 149 190 233 274
#
# _framework density 16.178028000000001
#
# number of rings (size 3 to 8) (size 9 to 14) (size 15 to 20)
#    0.000    2.250    1.250    2.625    0.000    3.750 
#    0.000    0.000    0.000    0.375    0.000    0.000 
#    0.000    0.500    0.000    0.375    0.000    1.000 
#
# Total GULP energy -793164.574140 kJ/mol
# GULP energy per Si atom -12393.196471 kJ/mol
# Density = 1.614121 g / cm^3
# Si number density = 16.178028 Si / 1000 Ang^3
#
#
#
# Elastic Constant Matrix: (Units=GPa)
#
#
# Indices 1 2 3 4 5 6 
#
# 1 53.5134 28.6913 32.9352 0.0000 0.0000 0.0000
# 2 28.6913 98.0162 50.0038 0.0000 0.0000 0.0000
# 3 32.9352 50.0038 107.3211 0.0000 0.0000 0.0000
# 4 0.0000 0.0000 0.0000 5.8073 0.0000 0.0000
# 5 0.0000 0.0000 0.0000 0.0000 25.9662 0.0000
# 6 0.0000 0.0000 0.0000 0.0000 0.0000 14.7361
#
#
#
# Elastic Compliance Matrix: (Units=1/GPa)
#
#
# Indices 1 2 3 4 5 6 
#
# 1 0.024377 -0.004354 -0.005452 0.000000 0.000000 0.000000
# 2 -0.004354 0.014161 -0.005262 0.000000 0.000000 0.000000
# 3 -0.005452 -0.005262 0.013443 0.000000 0.000000 0.000000
# 4 0.000000 0.000000 0.000000 0.172198 0.000000 0.000000
# 5 0.000000 0.000000 0.000000 0.000000 0.038512 0.000000
# 6 0.000000 0.000000 0.000000 0.000000 0.000000 0.067860
#
#
# Mechanical properties :
#
#
# Convention : Reuss Voigt Hill
#
# Bulk Modulus (GPa) = 45.77815 53.56792 49.67304
# Shear Modulus (GPa) = 13.58808 19.11660 16.35234
#
# Velocity S-wave (km/s) = 2.90126 3.44123 3.18272
# Velocity P-wave (km/s) = 6.29135 6.99806 6.65409
#
# Compressibility (1/GPa) = 0.02184448
#
# Stress axis : x y z
#
# Youngs Moduli (GPa) = 41.02228 70.61464 74.38967
#
# Poissons Ratio (x) = 0.30746 0.40559
# Poissons Ratio (y) = 0.17862 0.39143
# Poissons Ratio (z) = 0.22366 0.37157
#
# Static dielectric constant tensor:
#      x y z
#    x 3.065420 0.000000 0.000000 
#    y 0.000000 3.464510 0.000000 
#    z 0.000000 0.000000 2.986230 
# 
# 
# High freq. dielectric constant tensor:
#      x y z
#    x 1.626470 0.000000 0.000000 
#    y 0.000000 1.616790 0.000000 
#    z 0.000000 0.000000 1.600980 
# 
# From -- ./inp_files/22617.got.cif
#   From: 2010.03.12/outbox.cif.g09.slc.cpg/sg51_12_cif.got.tgz:22617.got - 2010.04.16 13:43:02.
