data_PCOD8209190
_publ_section_title
;
Structure prediction by ZEFSAII (Michael W. Deem and Ramdas Pophale) SiO2 
 PCOD8209190
Probable space group: P M M A
;
_chemical_formula_sum "Si O2"
_cell_formula_units_Z 38
_cell_length_a 15.237562
_cell_length_b 12.735378
_cell_length_c 11.747881
_cell_angle_alpha 90.000000
_cell_angle_beta 90.000000
_cell_angle_gamma 90.000000
_cell_volume 2279.748110
_symmetry_space_group_name_H-M "P M M A"
_symmetry_group_IT_number 51
_symmetry_cell_setting 'orthorhombic'
loop_
_space_group_symop_operation_xyz
x,y,z
1/2-x,-y,z
1/2+x,-y,-z
-x,y,-z
-x,-y,-z
1/2+x,y,-z
1/2-x,y,z
x,-y,z
loop_
_atom_site_type_symbol
_atom_site_label
_atom_site_fract_x
_atom_site_fract_y
_atom_site_fract_z
Si Si1 0.351310 0.381259 0.737638
Si Si2 0.402630 0.000000 0.544991
Si Si3 0.598209 0.375356 0.015010
Si Si4 0.403900 0.225668 0.550597
Si Si5 0.250000 0.230355 0.370534
Si Si6 0.750000 0.000000 0.630534
Si Si7 0.750000 0.374715 0.846474
O O1 0.250000 0.376802 0.705742
O O2 0.387570 0.500000 0.729218
O O3 0.365733 0.335621 0.863882
O O4 0.403251 0.312185 0.647872
O O5 0.500000 0.000000 0.500000
O O6 0.385573 0.110572 0.610205
O O7 0.338764 0.000000 0.438871
O O8 0.597455 0.500000 0.013435
O O9 0.500000 0.329718 0.000000
O O10 0.663353 0.336888 0.915316
O O11 0.500000 0.228774 0.500000
O O12 0.334802 0.247090 0.450122
O O13 0.250000 0.114618 0.306933
O O14 0.250000 0.319758 0.275452
O O15 0.750000 0.500000 0.828469
#
# Coordination Sequence:
#
# PCOD8209190 Si02
#       7
#     8   4   8   8   4   2   4
#     4  10  19  33  50  70 101 133 161 199 244 289
#     4   8  16  32  50  69  94 124 166 203 229 281
#     4   9  18  33  51  69  92 129 169 197 231 284
#     4  10  20  33  51  75 100 130 162 197 246 293
#     4  10  20  33  49  74 100 129 160 199 242 287
#     4   8  16  32  50  64  92 132 166 188 230 292
#     4  10  20  33  50  73  99 124 160 206 239 276
#
# _framework density 16.668507999999999
#
# number of rings (size 3 to 8) (size 9 to 14) (size 15 to 20)
#    0.000    2.526    2.105    0.000    2.947    1.263 
#    0.000    0.000    0.000    1.263    0.000    1.474 
#    0.000    0.000    0.000    0.000    0.000    0.000 
#
# Total GULP energy -470755.954450 kJ/mol
# GULP energy per Si atom -12388.314591 kJ/mol
# Density = 1.663057 g / cm^3
# Si number density = 16.668508 Si / 1000 Ang^3
#
#
#
# Elastic Constant Matrix: (Units=GPa)
#
#
# Indices 1 2 3 4 5 6 
#
# 1 112.8503 25.0465 34.8976 0.0000 0.0000 0.0000
# 2 25.0465 84.7132 52.0656 0.0000 0.0000 0.0000
# 3 34.8976 52.0656 87.5235 0.0000 0.0000 0.0000
# 4 0.0000 0.0000 0.0000 1.2038 0.0000 0.0000
# 5 0.0000 0.0000 0.0000 0.0000 17.8094 0.0000
# 6 0.0000 0.0000 0.0000 0.0000 0.0000 18.5255
#
#
#
# Elastic Compliance Matrix: (Units=1/GPa)
#
#
# Indices 1 2 3 4 5 6 
#
# 1 0.010143 -0.000809 -0.003563 0.000000 0.000000 0.000000
# 2 -0.000809 0.018672 -0.010785 0.000000 0.000000 0.000000
# 3 -0.003563 -0.010785 0.019262 0.000000 0.000000 0.000000
# 4 0.000000 0.000000 0.000000 0.830734 0.000000 0.000000
# 5 0.000000 0.000000 0.000000 0.000000 0.056150 0.000000
# 6 0.000000 0.000000 0.000000 0.000000 0.000000 0.053980
#
#
# Mechanical properties :
#
#
# Convention : Reuss Voigt Hill
#
# Bulk Modulus (GPa) = 56.29718 56.56737 56.43227
# Shear Modulus (GPa) = 4.87721 19.04622 11.96172
#
# Velocity S-wave (km/s) = 1.71241 3.38397 2.68176
# Velocity P-wave (km/s) = 6.14473 7.01988 6.59683
#
# Compressibility (1/GPa) = 0.01776288
#
# Stress axis : x y z
#
# Youngs Moduli (GPa) = 98.59385 53.55490 51.91595
#
# Poissons Ratio (x) = 0.04333 0.18497
# Poissons Ratio (y) = 0.07977 0.55992
# Poissons Ratio (z) = 0.35127 0.57760
#
# Static dielectric constant tensor:
#      x y z
#    x 2.185420 0.000000 0.000000 
#    y 0.000000 3.392230 0.000000 
#    z 0.000000 0.000000 2.882860 
# 
# 
# High freq. dielectric constant tensor:
#      x y z
#    x 1.662800 0.000000 0.000000 
#    y 0.000000 1.628020 0.000000 
#    z 0.000000 0.000000 1.611280 
# 
# From -- ./inp_files/16257.got.cif
#   From: 2010.03.12/outbox.cif.g09.slc.cpg/sg51_9_cif.got.tgz:16257.got - 2010.04.16 13:43:02.
