data_PCOD8209792
_publ_section_title
;
Structure prediction by ZEFSAII (Michael W. Deem and Ramdas Pophale) SiO2 
 PCOD8209792
Probable space group: P M M A
;
_chemical_formula_sum "Si O2"
_cell_formula_units_Z 56
_cell_length_a 15.066497
_cell_length_b 9.343063
_cell_length_c 21.340810
_cell_angle_alpha 90.000000
_cell_angle_beta 90.000000
_cell_angle_gamma 90.000000
_cell_volume 3004.086724
_symmetry_space_group_name_H-M "P M M A"
_symmetry_group_IT_number 51
_symmetry_cell_setting 'orthorhombic'
loop_
_space_group_symop_operation_xyz
x,y,z
1/2-x,-y,z
1/2+x,-y,-z
-x,y,-z
-x,-y,-z
1/2+x,y,-z
1/2-x,y,z
x,-y,z
loop_
_atom_site_type_symbol
_atom_site_label
_atom_site_fract_x
_atom_site_fract_y
_atom_site_fract_z
Si Si1 0.002356 0.168695 0.290858
Si Si2 0.646980 0.666898 0.061450
Si Si3 0.651530 0.163678 0.381998
Si Si4 0.014698 0.833572 0.852271
Si Si5 0.149092 0.336319 0.360959
Si Si6 0.850735 0.164362 0.937341
Si Si7 0.896315 0.665041 0.501429
O O1 0.986232 0.214546 0.219631
O O2 0.091643 0.241965 0.314345
O O3 0.918985 0.224121 0.331871
O O4 0.015306 0.000000 0.296485
O O5 0.750000 0.693775 0.076982
O O6 0.624090 0.500000 0.057751
O O7 0.589915 0.739497 0.115466
O O8 0.621285 0.736827 0.995250
O O9 0.750000 0.178444 0.352563
O O10 0.650281 0.248670 0.446590
O O11 0.628723 0.000000 0.397630
O O12 0.917298 0.801840 0.880574
O O13 0.039815 0.000000 0.859903
O O14 0.250000 0.322767 0.338329
O O15 0.115325 0.500000 0.358134
O O16 0.140626 0.279846 0.432128
O O17 0.750000 0.197759 0.915006
O O18 0.859463 0.000000 0.959303
O O19 0.872142 0.500000 0.491106
O O20 0.000000 0.694298 0.500000
#
# Coordination Sequence:
#
# PCOD8209792 Si02
#       7
#     8   8   8   8   8   8   8
#     4  10  22  38  55  78 109 144 182 224 266 315
#     4  10  21  36  55  82 113 142 176 220 269 319
#     4  10  21  36  54  78 108 141 178 222 273 325
#     4  10  21  36  56  81 108 144 185 221 263 315
#     4  10  21  37  56  79 108 141 179 223 271 323
#     4   9  18  34  56  81 109 140 177 222 268 316
#     4  10  19  34  58  82 105 136 176 224 273 322
#
# _framework density 18.641272000000001
#
# number of rings (size 3 to 8) (size 9 to 14) (size 15 to 20)
#    0.000    2.143    1.429    1.286    0.000    6.857 
#    0.000    2.857    0.000    1.714    0.000    0.000 
#    0.000    0.000    0.000    0.000    0.000    0.000 
#
# Total GULP energy -694580.519273 kJ/mol
# GULP energy per Si atom -12403.223558 kJ/mol
# Density = 1.859884 g / cm^3
# Si number density = 18.641272 Si / 1000 Ang^3
#
#
#
# Elastic Constant Matrix: (Units=GPa)
#
#
# Indices 1 2 3 4 5 6 
#
# 1 87.7215 41.2257 51.4578 0.0000 0.0000 0.0000
# 2 41.2257 61.6628 51.1558 0.0000 0.0000 0.0000
# 3 51.4578 51.1558 120.0572 0.0000 0.0000 0.0000
# 4 0.0000 0.0000 0.0000 9.8131 0.0000 0.0000
# 5 0.0000 0.0000 0.0000 0.0000 22.5255 0.0000
# 6 0.0000 0.0000 0.0000 0.0000 0.0000 30.4204
#
#
#
# Elastic Compliance Matrix: (Units=1/GPa)
#
#
# Indices 1 2 3 4 5 6 
#
# 1 0.017755 -0.008595 -0.003947 0.000000 0.000000 0.000000
# 2 -0.008595 0.029246 -0.008777 0.000000 0.000000 0.000000
# 3 -0.003947 -0.008777 0.013761 0.000000 0.000000 0.000000
# 4 0.000000 0.000000 0.000000 0.101905 0.000000 0.000000
# 5 0.000000 0.000000 0.000000 0.000000 0.044394 0.000000
# 6 0.000000 0.000000 0.000000 0.000000 0.000000 0.032873
#
#
# Mechanical properties :
#
#
# Convention : Reuss Voigt Hill
#
# Bulk Modulus (GPa) = 55.18379 61.90222 58.54301
# Shear Modulus (GPa) = 17.32417 20.92528 19.12473
#
# Velocity S-wave (km/s) = 3.05182 3.35404 3.20650
# Velocity P-wave (km/s) = 6.48733 6.94828 6.72176
#
# Compressibility (1/GPa) = 0.01812126
#
# Stress axis : x y z
#
# Youngs Moduli (GPa) = 56.32277 34.19322 72.66800
#
# Poissons Ratio (x) = 0.29391 0.28685
# Poissons Ratio (y) = 0.48412 0.63783
# Poissons Ratio (z) = 0.22233 0.30012
#
# Static dielectric constant tensor:
#      x y z
#    x 3.550450 0.000000 0.000000 
#    y 0.000000 3.386120 0.000000 
#    z 0.000000 0.000000 3.360840 
# 
# 
# High freq. dielectric constant tensor:
#      x y z
#    x 1.737240 0.000000 0.000000 
#    y 0.000000 1.716340 0.000000 
#    z 0.000000 0.000000 1.715900 
# 
# From -- ./inp_files/33352.got.cif
#   From: 2010.03.12/outbox.cif.g09.slc.cpg/sg51_17_cif.got.tgz:33352.got - 2010.04.16 13:43:02.
