data_PCOD8209548
_publ_section_title
;
Structure prediction by ZEFSAII (Michael W. Deem and Ramdas Pophale) SiO2 
 PCOD8209548
Probable space group: P M M A
;
_chemical_formula_sum "Si O2"
_cell_formula_units_Z 64
_cell_length_a 25.479873
_cell_length_b 9.004199
_cell_length_c 14.279542
_cell_angle_alpha 90.000000
_cell_angle_beta 90.000000
_cell_angle_gamma 90.000000
_cell_volume 3276.096018
_symmetry_space_group_name_H-M "P M M A"
_symmetry_group_IT_number 51
_symmetry_cell_setting 'orthorhombic'
loop_
_space_group_symop_operation_xyz
x,y,z
1/2-x,-y,z
1/2+x,-y,-z
-x,y,-z
-x,-y,-z
1/2+x,y,-z
1/2-x,y,z
x,-y,z
loop_
_atom_site_type_symbol
_atom_site_label
_atom_site_fract_x
_atom_site_fract_y
_atom_site_fract_z
Si Si1 0.307922 0.323834 0.274483
Si Si2 0.361130 0.323978 0.087797
Si Si3 0.969495 0.830213 0.908542
Si Si4 0.100336 0.673574 0.603672
Si Si5 0.908019 0.326320 0.612806
Si Si6 0.810505 0.825864 0.291764
Si Si7 0.688713 0.670562 0.102314
Si Si8 0.494157 0.829230 0.705787
O O1 0.250000 0.259307 0.299563
O O2 0.305277 0.500000 0.272710
O O3 0.324582 0.264121 0.171959
O O4 0.350677 0.273141 0.351523
O O5 0.359785 0.500000 0.086615
O O6 0.419595 0.272012 0.107192
O O7 0.340509 0.263015 0.988466
O O8 0.006729 0.813958 0.818154
O O9 0.951161 0.000000 0.922157
O O10 0.000000 0.772870 0.000000
O O11 0.105625 0.500000 0.622686
O O12 0.086928 0.707754 0.496515
O O13 0.155661 0.749558 0.627326
O O14 0.054507 0.736939 0.667842
O O15 0.917041 0.500000 0.634656
O O16 0.951601 0.232589 0.665887
O O17 0.750000 0.783980 0.310140
O O18 0.829328 0.766284 0.191081
O O19 0.820285 0.000000 0.294072
O O20 0.750000 0.686927 0.082939
O O21 0.673269 0.500000 0.121535
O O22 0.488324 0.000000 0.674765
#
# Coordination Sequence:
#
# PCOD8209548 Si02
#       8
#     8   8   8   8   8   8   8   8
#     4   9  17  32  57  87 118 152 190 234 286 346
#     4  10  19  33  57  86 114 148 189 235 285 339
#     4  10  23  40  56  80 115 154 189 231 289 347
#     4  11  24  39  61  89 116 150 195 246 296 348
#     4  10  21  39  61  87 117 151 193 244 297 348
#     4  10  22  40  60  84 117 157 196 236 288 347
#     4   9  18  33  54  83 116 148 186 231 278 332
#     4  11  23  40  62  86 116 155 195 239 292 351
#
# _framework density 19.535446
#
# number of rings (size 3 to 8) (size 9 to 14) (size 15 to 20)
#    0.000    2.000    1.250    1.875    1.750    6.500 
#    0.000    1.250    0.000    2.250    0.000    0.000 
#    0.000    0.000    0.000    0.000    0.000    0.000 
#
# Total GULP energy -793758.610176 kJ/mol
# GULP energy per Si atom -12402.478284 kJ/mol
# Density = 1.949098 g / cm^3
# Si number density = 19.535446 Si / 1000 Ang^3
#
#
#
# Elastic Constant Matrix: (Units=GPa)
#
#
# Indices 1 2 3 4 5 6 
#
# 1 103.6599 28.0344 41.4238 0.0000 0.0000 0.0000
# 2 28.0344 51.8076 37.5320 0.0000 0.0000 0.0000
# 3 41.4238 37.5320 99.7553 0.0000 0.0000 0.0000
# 4 0.0000 0.0000 0.0000 23.9444 0.0000 0.0000
# 5 0.0000 0.0000 0.0000 0.0000 33.6714 0.0000
# 6 0.0000 0.0000 0.0000 0.0000 0.0000 27.6888
#
#
#
# Elastic Compliance Matrix: (Units=1/GPa)
#
#
# Indices 1 2 3 4 5 6 
#
# 1 0.012144 -0.004012 -0.003533 0.000000 0.000000 0.000000
# 2 -0.004012 0.027860 -0.008816 0.000000 0.000000 0.000000
# 3 -0.003533 -0.008816 0.014809 0.000000 0.000000 0.000000
# 4 0.000000 0.000000 0.000000 0.041763 0.000000 0.000000
# 5 0.000000 0.000000 0.000000 0.000000 0.029699 0.000000
# 6 0.000000 0.000000 0.000000 0.000000 0.000000 0.036116
#
#
# Mechanical properties :
#
#
# Convention : Reuss Voigt Hill
#
# Bulk Modulus (GPa) = 45.26913 52.13367 48.70140
# Shear Modulus (GPa) = 24.69428 26.94310 25.81869
#
# Velocity S-wave (km/s) = 3.55924 3.71777 3.63937
# Velocity P-wave (km/s) = 6.33357 6.72114 6.53023
#
# Compressibility (1/GPa) = 0.02209011
#
# Stress axis : x y z
#
# Youngs Moduli (GPa) = 82.34615 35.89403 67.52729
#
# Poissons Ratio (x) = 0.14399 0.23861
# Poissons Ratio (y) = 0.33033 0.59533
# Poissons Ratio (z) = 0.29097 0.31645
#
# Static dielectric constant tensor:
#      x y z
#    x 3.648750 0.000000 0.000000 
#    y 0.000000 3.404110 0.000000 
#    z 0.000000 0.000000 3.767330 
# 
# 
# High freq. dielectric constant tensor:
#      x y z
#    x 1.765830 0.000000 0.000000 
#    y 0.000000 1.743800 0.000000 
#    z 0.000000 0.000000 1.771520 
# 
# From -- ./inp_files/26291.got.cif
#   From: 2010.03.12/outbox.cif.g09.slc.cpg/sg51_14_cif.got.tgz:26291.got - 2010.04.16 13:43:02.
