data_PCOD8209061
_publ_section_title
;
Structure prediction by ZEFSAII (Michael W. Deem and Ramdas Pophale) SiO2 
 PCOD8209061
Probable space group: P M M A
;
_chemical_formula_sum "Si O2"
_cell_formula_units_Z 64
_cell_length_a 23.895997
_cell_length_b 9.321040
_cell_length_c 15.084793
_cell_angle_alpha 90.000000
_cell_angle_beta 90.000000
_cell_angle_gamma 90.000000
_cell_volume 3359.919573
_symmetry_space_group_name_H-M "P M M A"
_symmetry_group_IT_number 51
_symmetry_cell_setting 'orthorhombic'
loop_
_space_group_symop_operation_xyz
x,y,z
1/2-x,-y,z
1/2+x,-y,-z
-x,y,-z
-x,-y,-z
1/2+x,y,-z
1/2-x,y,z
x,-y,z
loop_
_atom_site_type_symbol
_atom_site_label
_atom_site_fract_x
_atom_site_fract_y
_atom_site_fract_z
Si Si1 0.887809 0.170892 0.652078
Si Si2 0.127479 0.829236 0.689138
Si Si3 0.184338 0.665220 0.847128
Si Si4 0.496111 0.169046 0.722032
Si Si5 0.188824 0.161913 0.190393
Si Si6 0.686160 0.170771 0.490446
Si Si7 0.145218 0.668751 0.040283
Si Si8 0.963295 0.836689 0.913283
O O1 0.951985 0.227864 0.661622
O O2 0.855711 0.223606 0.739803
O O3 0.854945 0.233462 0.566782
O O4 0.886545 0.000000 0.646571
O O5 0.159323 0.765939 0.772582
O O6 0.159929 0.775957 0.601950
O O7 0.063302 0.770983 0.686689
O O8 0.128608 0.000000 0.697794
O O9 0.250000 0.691998 0.855041
O O10 0.171078 0.500000 0.824663
O O11 0.155803 0.712131 0.939001
O O12 0.502714 0.211140 0.825570
O O13 0.495788 0.000000 0.711931
O O14 0.250000 0.165427 0.235601
O O15 0.191660 0.259064 0.102635
O O16 0.172690 0.000000 0.163044
O O17 0.750000 0.229344 0.500364
O O18 0.687180 0.000000 0.494462
O O19 0.148124 0.500000 0.052683
O O20 0.086771 0.727613 0.075049
O O21 0.941422 0.000000 0.901452
O O22 0.000000 0.822754 0.000000
#
# Coordination Sequence:
#
# PCOD8209061 Si02
#       8
#     8   8   8   8   8   8   8   8
#     4   9  16  29  50  76 110 143 173 213 264 323
#     4  10  20  34  55  82 108 136 175 224 272 312
#     4  10  22  39  55  73 103 143 180 215 265 325
#     4   9  17  30  49  76 109 142 175 214 264 318
#     4  10  19  32  53  78 104 139 181 218 259 319
#     4   9  17  29  48  79 113 139 170 220 275 317
#     4  11  22  35  52  76 107 140 176 222 273 323
#     4  10  19  33  53  75 105 143 183 226 265 311
#
# _framework density 19.048074
#
# number of rings (size 3 to 8) (size 9 to 14) (size 15 to 20)
#    0.000    2.250    1.250    2.250    0.000    5.750 
#    0.000    3.125    0.000    0.750    0.000    0.875 
#    0.000    0.000    0.000    0.000    0.000    0.000 
#
# Total GULP energy -793336.409451 kJ/mol
# GULP energy per Si atom -12395.881398 kJ/mol
# Density = 1.900472 g / cm^3
# Si number density = 19.048074 Si / 1000 Ang^3
#
#
#
# Elastic Constant Matrix: (Units=GPa)
#
#
# Indices 1 2 3 4 5 6 
#
# 1 90.8404 15.0201 49.2659 0.0000 0.0000 0.0000
# 2 15.0201 31.3734 34.1179 0.0000 0.0000 0.0000
# 3 49.2659 34.1179 132.6649 0.0000 0.0000 0.0000
# 4 0.0000 0.0000 0.0000 5.0037 0.0000 0.0000
# 5 0.0000 0.0000 0.0000 0.0000 37.8554 0.0000
# 6 0.0000 0.0000 0.0000 0.0000 0.0000 36.4209
#
#
#
# Elastic Compliance Matrix: (Units=1/GPa)
#
#
# Indices 1 2 3 4 5 6 
#
# 1 0.013831 -0.001438 -0.004766 0.000000 0.000000 0.000000
# 2 -0.001438 0.044399 -0.010884 0.000000 0.000000 0.000000
# 3 -0.004766 -0.010884 0.012107 0.000000 0.000000 0.000000
# 4 0.000000 0.000000 0.000000 0.199851 0.000000 0.000000
# 5 0.000000 0.000000 0.000000 0.000000 0.026416 0.000000
# 6 0.000000 0.000000 0.000000 0.000000 0.000000 0.027457
#
#
# Mechanical properties :
#
#
# Convention : Reuss Voigt Hill
#
# Bulk Modulus (GPa) = 27.65536 50.18739 38.92138
# Shear Modulus (GPa) = 13.50288 26.28767 19.89527
#
# Velocity S-wave (km/s) = 2.66538 3.71896 3.23534
# Velocity P-wave (km/s) = 4.90128 6.69670 5.86806
#
# Compressibility (1/GPa) = 0.03615935
#
# Stress axis : x y z
#
# Youngs Moduli (GPa) = 72.30077 22.52304 82.59750
#
# Poissons Ratio (x) = 0.03240 0.39369
# Poissons Ratio (y) = 0.10400 0.89900
# Poissons Ratio (z) = 0.34461 0.24514
#
# Static dielectric constant tensor:
#      x y z
#    x 3.934580 0.000000 0.000000 
#    y 0.000000 3.014880 0.000000 
#    z 0.000000 0.000000 3.686730 
# 
# 
# High freq. dielectric constant tensor:
#      x y z
#    x 1.759760 0.000000 0.000000 
#    y 0.000000 1.684110 0.000000 
#    z 0.000000 0.000000 1.746750 
# 
# From -- ./inp_files/26271.got.cif
#   From: 2010.03.12/outbox.cif.g09.slc.cpg/sg51_14_cif.got.tgz:26271.got - 2010.04.16 13:43:02.
