data_PCOD8209500
_publ_section_title
;
Structure prediction by ZEFSAII (Michael W. Deem and Ramdas Pophale) SiO2 
 PCOD8209500
Probable space group: P M M A
;
_chemical_formula_sum "Si O2"
_cell_formula_units_Z 48
_cell_length_a 9.582322
_cell_length_b 7.936595
_cell_length_c 32.147651
_cell_angle_alpha 90.000000
_cell_angle_beta 90.000000
_cell_angle_gamma 90.000000
_cell_volume 2444.861291
_symmetry_space_group_name_H-M "P M M A"
_symmetry_group_IT_number 51
_symmetry_cell_setting 'orthorhombic'
loop_
_space_group_symop_operation_xyz
x,y,z
1/2-x,-y,z
1/2+x,-y,-z
-x,y,-z
-x,-y,-z
1/2+x,y,-z
1/2-x,y,z
x,-y,z
loop_
_atom_site_type_symbol
_atom_site_label
_atom_site_fract_x
_atom_site_fract_y
_atom_site_fract_z
Si Si1 0.085778 0.000000 0.326543
Si Si2 0.409056 0.318617 0.185014
Si Si3 0.412860 0.197363 0.540765
Si Si4 0.411241 0.309718 0.383176
Si Si5 0.464063 0.808068 0.096346
Si Si6 0.750000 0.302450 0.969546
Si Si7 0.917783 0.000000 0.766779
Si Si8 0.750000 0.299274 0.063069
O O1 0.037271 0.828989 0.349739
O O2 0.250000 0.000000 0.322744
O O3 0.023046 0.000000 0.280137
O O4 0.250000 0.325412 0.199588
O O5 0.479526 0.500000 0.196227
O O6 0.412723 0.298794 0.135371
O O7 0.481047 0.164682 0.209862
O O8 0.500000 0.246545 0.500000
O O9 0.250000 0.250315 0.535965
O O10 0.485926 0.298588 0.577748
O O11 0.425688 0.000000 0.550190
O O12 0.250000 0.272641 0.396351
O O13 0.423305 0.500000 0.364753
O O14 0.387318 0.756193 0.054156
O O15 0.624539 0.776070 0.089026
O O16 0.430993 0.000000 0.107086
O O17 0.750000 0.500000 0.973346
O O18 0.750000 0.227039 0.016074
O O19 0.750000 0.000000 0.768992
O O20 0.750000 0.500000 0.063812
#
# Coordination Sequence:
#
# PCOD8209500 Si02
#       8
#     4   8   8   8   8   4   4   4
#     4   9  18  34  54  80 117 146 180 236 289 345
#     4  10  19  33  55  84 115 146 184 229 280 337
#     4  10  20  34  55  83 115 156 203 248 293 337
#     4  10  20  34  55  82 114 155 194 233 288 344
#     4  12  23  37  58  83 113 148 191 234 277 334
#     4  11  23  39  59  81 111 151 193 232 279 331
#     4   9  18  32  54  85 114 144 180 228 290 342
#     4  11  25  41  55  79 113 151 191 234 281 333
#
# _framework density 19.633016000000001
#
# number of rings (size 3 to 8) (size 9 to 14) (size 15 to 20)
#    0.000    1.667    2.500    3.000    0.000    5.333 
#    0.000    3.333    0.000    0.000    4.333    0.000 
#    0.000    0.000    0.000    0.000    0.000    0.000 
#
# Total GULP energy -595098.689350 kJ/mol
# GULP energy per Si atom -12397.889361 kJ/mol
# Density = 1.958833 g / cm^3
# Si number density = 19.633016 Si / 1000 Ang^3
#
#
#
# Elastic Constant Matrix: (Units=GPa)
#
#
# Indices 1 2 3 4 5 6 
#
# 1 71.6492 17.3829 15.4936 0.0000 0.0000 0.0000
# 2 17.3829 148.4624 60.3115 0.0000 0.0000 0.0000
# 3 15.4936 60.3115 106.7781 0.0000 0.0000 0.0000
# 4 0.0000 0.0000 0.0000 18.3358 0.0000 0.0000
# 5 0.0000 0.0000 0.0000 0.0000 12.4862 0.0000
# 6 0.0000 0.0000 0.0000 0.0000 0.0000 21.9405
#
#
#
# Elastic Compliance Matrix: (Units=1/GPa)
#
#
# Indices 1 2 3 4 5 6 
#
# 1 0.014546 -0.001098 -0.001491 0.000000 0.000000 0.000000
# 2 -0.001098 0.008824 -0.004825 0.000000 0.000000 0.000000
# 3 -0.001491 -0.004825 0.012307 0.000000 0.000000 0.000000
# 4 0.000000 0.000000 0.000000 0.054538 0.000000 0.000000
# 5 0.000000 0.000000 0.000000 0.000000 0.080089 0.000000
# 6 0.000000 0.000000 0.000000 0.000000 0.000000 0.045578
#
#
# Mechanical properties :
#
#
# Convention : Reuss Voigt Hill
#
# Bulk Modulus (GPa) = 47.96091 57.02954 52.49522
# Shear Modulus (GPa) = 21.03864 26.13259 23.58562
#
# Velocity S-wave (km/s) = 3.27707 3.65232 3.46977
# Velocity P-wave (km/s) = 6.22902 6.84812 6.54589
#
# Compressibility (1/GPa) = 0.02085031
#
# Stress axis : x y z
#
# Youngs Moduli (GPa) = 68.74975 113.32309 81.25580
#
# Poissons Ratio (x) = 0.12437 0.12112
# Poissons Ratio (y) = 0.07545 0.39206
# Poissons Ratio (z) = 0.10248 0.54678
#
# Static dielectric constant tensor:
#      x y z
#    x 3.293690 0.000000 0.000000 
#    y 0.000000 3.864780 0.000000 
#    z 0.000000 0.000000 3.606610 
# 
# 
# High freq. dielectric constant tensor:
#      x y z
#    x 1.730410 0.000000 0.000000 
#    y 0.000000 1.782330 0.000000 
#    z 0.000000 0.000000 1.754020 
# 
# From -- ./inp_files/37282.got.cif
#   From: 2010.03.12/outbox.cif.g09.slc.cpg/sg51_19_cif.got.tgz:37282.got - 2010.04.16 13:43:02.
