data_PCOD8209407
_publ_section_title
;
Structure prediction by ZEFSAII (Michael W. Deem and Ramdas Pophale) SiO2 
 PCOD8209407
Probable space group: P M M A
;
_chemical_formula_sum "Si O2"
_cell_formula_units_Z 48
_cell_length_a 8.680990
_cell_length_b 31.656398
_cell_length_c 9.129940
_cell_angle_alpha 90.000000
_cell_angle_beta 90.000000
_cell_angle_gamma 90.000000
_cell_volume 2508.988535
_symmetry_space_group_name_H-M "P M M A"
_symmetry_group_IT_number 51
_symmetry_cell_setting 'orthorhombic'
loop_
_space_group_symop_operation_xyz
x,y,z
1/2-x,-y,z
1/2+x,-y,-z
-x,y,-z
-x,-y,-z
1/2+x,y,-z
1/2-x,y,z
x,-y,z
loop_
_atom_site_type_symbol
_atom_site_label
_atom_site_fract_x
_atom_site_fract_y
_atom_site_fract_z
Si Si1 0.930543 0.045677 0.160754
Si Si2 0.569587 0.455491 0.658695
Si Si3 0.566969 0.636465 0.662736
Si Si4 0.432499 0.788744 0.340094
Si Si5 0.567431 0.712180 0.159916
Si Si6 0.569199 0.870747 0.839496
O O1 0.750000 0.053463 0.149958
O O2 0.006922 0.086246 0.240242
O O3 0.965534 0.000000 0.238203
O O4 0.000000 0.044219 0.000000
O O5 0.500000 0.457081 0.500000
O O6 0.750000 0.454940 0.638550
O O7 0.520776 0.500000 0.741942
O O8 0.522156 0.410319 0.728534
O O9 0.500000 0.643295 0.500000
O O10 0.750000 0.643870 0.656793
O O11 0.489886 0.667992 0.776138
O O12 0.500000 0.792667 0.500000
O O13 0.250000 0.782202 0.343894
O O14 0.510101 0.749175 0.263608
O O15 0.481884 0.831105 0.256494
O O16 0.750000 0.712430 0.151366
O O17 0.500000 0.719550 0.000000
O O18 0.750000 0.874038 0.853879
O O19 0.500000 0.864873 0.000000
#
# Coordination Sequence:
#
# PCOD8209407 Si02
#       6
#     8   8   8   8   8   8
#     4   9  16  26  44  72 105 140 177 217 260 306
#     4   8  14  25  44  72 105 140 177 217 260 306
#     4  10  19  33  54  81 113 146 181 222 267 315
#     4  11  24  41  60  83 109 140 178 219 268 321
#     4  12  25  41  60  81 107 139 177 221 269 322
#     4  10  20  33  53  80 109 141 177 218 264 314
#
# _framework density 19.131214
#
# number of rings (size 3 to 8) (size 9 to 14) (size 15 to 20)
#    0.000    2.000    0.000    5.500    0.000    5.667 
#    0.000    0.000    0.000    1.000    0.000    0.000 
#    0.000    0.000    0.000    0.000    0.000    0.000 
#
# Total GULP energy -594654.321091 kJ/mol
# GULP energy per Si atom -12388.631689 kJ/mol
# Density = 1.908767 g / cm^3
# Si number density = 19.131214 Si / 1000 Ang^3
#
#
#
# Elastic Constant Matrix: (Units=GPa)
#
#
# Indices 1 2 3 4 5 6 
#
# 1 90.7901 63.2111 31.3485 0.0000 0.0000 0.0000
# 2 63.2111 196.7330 51.5808 0.0000 0.0000 0.0000
# 3 31.3485 51.5808 71.1136 0.0000 0.0000 0.0000
# 4 0.0000 0.0000 0.0000 23.2761 0.0000 0.0000
# 5 0.0000 0.0000 0.0000 0.0000 26.0204 0.0000
# 6 0.0000 0.0000 0.0000 0.0000 0.0000 27.3044
#
#
#
# Elastic Compliance Matrix: (Units=1/GPa)
#
#
# Indices 1 2 3 4 5 6 
#
# 1 0.014995 -0.003809 -0.003847 0.000000 0.000000 0.000000
# 2 -0.003809 0.007244 -0.003575 0.000000 0.000000 0.000000
# 3 -0.003847 -0.003575 0.018351 0.000000 0.000000 0.000000
# 4 0.000000 0.000000 0.000000 0.042963 0.000000 0.000000
# 5 0.000000 0.000000 0.000000 0.000000 0.038431 0.000000
# 6 0.000000 0.000000 0.000000 0.000000 0.000000 0.036624
#
#
# Mechanical properties :
#
#
# Convention : Reuss Voigt Hill
#
# Bulk Modulus (GPa) = 55.16624 72.32415 63.74520
# Shear Modulus (GPa) = 26.72161 29.48659 28.10410
#
# Velocity S-wave (km/s) = 3.74137 3.93017 3.83694
# Velocity P-wave (km/s) = 6.89653 7.64731 7.28160
#
# Compressibility (1/GPa) = 0.01812703
#
# Stress axis : x y z
#
# Youngs Moduli (GPa) = 66.68930 138.03826 54.49229
#
# Poissons Ratio (x) = 0.52582 0.20964
# Poissons Ratio (y) = 0.25404 0.19483
# Poissons Ratio (z) = 0.25656 0.49354
#
# Static dielectric constant tensor:
#      x y z
#    x 3.653210 0.000000 0.000000 
#    y 0.000000 4.678530 0.000000 
#    z 0.000000 0.000000 3.190210 
# 
# 
# High freq. dielectric constant tensor:
#      x y z
#    x 1.759520 0.000000 0.000000 
#    y 0.000000 1.784490 0.000000 
#    z 0.000000 0.000000 1.690260 
# 
# From -- ./inp_files/6063.got.cif
#   From: 2010.03.12/outbox.cif.g09.slc.cpg/sg51_4_cif.got.tgz:6063.got - 2010.04.16 13:43:02.
