data_PCOD8209244
_publ_section_title
;
Structure prediction by ZEFSAII (Michael W. Deem and Ramdas Pophale) SiO2 
 PCOD8209244
Probable space group: P M M A
;
_chemical_formula_sum "Si O2"
_cell_formula_units_Z 48
_cell_length_a 14.435011
_cell_length_b 13.792883
_cell_length_c 12.232540
_cell_angle_alpha 90.000000
_cell_angle_beta 90.000000
_cell_angle_gamma 90.000000
_cell_volume 2435.503825
_symmetry_space_group_name_H-M "P M M A"
_symmetry_group_IT_number 51
_symmetry_cell_setting 'orthorhombic'
loop_
_space_group_symop_operation_xyz
x,y,z
1/2-x,-y,z
1/2+x,-y,-z
-x,y,-z
-x,-y,-z
1/2+x,y,-z
1/2-x,y,z
x,-y,z
loop_
_atom_site_type_symbol
_atom_site_label
_atom_site_fract_x
_atom_site_fract_y
_atom_site_fract_z
Si Si1 0.038257 0.387769 0.165576
Si Si2 0.008229 0.885501 0.378250
Si Si3 0.391841 0.108391 0.016238
Si Si4 0.144591 0.218433 0.237845
Si Si5 0.353281 0.612313 0.942402
Si Si6 0.148657 0.886387 0.780714
O O1 0.039727 0.500000 0.204023
O O2 0.083753 0.316509 0.254817
O O3 0.932765 0.350887 0.142210
O O4 0.105723 0.372522 0.062409
O O5 0.106849 0.858929 0.325508
O O6 0.000000 0.841227 0.500000
O O7 0.927085 0.841046 0.301054
O O8 0.998314 0.000000 0.384293
O O9 0.363069 0.176490 0.115533
O O10 0.351630 0.000000 0.036916
O O11 0.500000 0.102743 0.000000
O O12 0.353649 0.157240 0.904099
O O13 0.250000 0.241534 0.266970
O O14 0.250000 0.660587 0.928726
O O15 0.341721 0.500000 0.919161
O O16 0.250000 0.867650 0.729346
O O17 0.127162 0.000000 0.795357
#
# Coordination Sequence:
#
# PCOD8209244 Si02
#       6
#     8   8   8   8   8   8
#     4   9  19  33  48  73 111 148 185 233 282 329
#     4  10  22  40  58  77 105 139 179 231 281 324
#     4  10  19  33  52  76 112 146 172 214 269 328
#     4  12  24  35  55  84 111 145 189 229 275 336
#     4   8  14  27  48  72 103 148 193 227 269 329
#     4   9  17  31  52  76 103 139 176 209 260 328
#
# _framework density 19.708447
#
# number of rings (size 3 to 8) (size 9 to 14) (size 15 to 20)
#    0.000    2.333    1.667    2.500    2.333    3.667 
#    0.000    2.500    0.000    0.500    0.000    0.000 
#    0.000    0.000    0.000    0.333    0.000    0.000 
#
# Total GULP energy -594810.762950 kJ/mol
# GULP energy per Si atom -12391.890895 kJ/mol
# Density = 1.966359 g / cm^3
# Si number density = 19.708447 Si / 1000 Ang^3
#
#
#
# Elastic Constant Matrix: (Units=GPa)
#
#
# Indices 1 2 3 4 5 6 
#
# 1 160.1335 17.8099 35.2283 0.0000 0.0000 0.0000
# 2 17.8099 39.9807 17.2455 0.0000 0.0000 0.0000
# 3 35.2283 17.2455 99.7823 0.0000 0.0000 0.0000
# 4 0.0000 0.0000 0.0000 12.2459 0.0000 0.0000
# 5 0.0000 0.0000 0.0000 0.0000 6.4615 0.0000
# 6 0.0000 0.0000 0.0000 0.0000 0.0000 -12.1535
#
#
#
# Elastic Compliance Matrix: (Units=1/GPa)
#
#
# Indices 1 2 3 4 5 6 
#
# 1 0.006945 -0.002200 -0.002072 0.000000 0.000000 0.000000
# 2 -0.002200 0.027724 -0.004015 0.000000 0.000000 0.000000
# 3 -0.002072 -0.004015 0.011447 0.000000 0.000000 0.000000
# 4 0.000000 0.000000 0.000000 0.081660 0.000000 0.000000
# 5 0.000000 0.000000 0.000000 0.000000 0.154764 0.000000
# 6 0.000000 0.000000 0.000000 0.000000 0.000000 -0.082281
#
#
# Mechanical properties :
#
#
# Convention : Reuss Voigt Hill
#
# Bulk Modulus (GPa) = 33.84915 48.94043 41.39479
# Shear Modulus (GPa) = 22.05751 16.61830 19.33791
#
# Velocity S-wave (km/s) = 3.34906 2.90695 3.13581
# Velocity P-wave (km/s) = 5.67161 6.01276 5.84467
#
# Compressibility (1/GPa) = 0.02954284
#
# Stress axis : x y z
#
# Youngs Moduli (GPa) = 143.98291 36.06988 87.35807
#
# Poissons Ratio (x) = 0.07936 0.18099
# Poissons Ratio (y) = 0.31679 0.35072
# Poissons Ratio (z) = 0.29830 0.14481
#
# Static dielectric constant tensor:
#      x y z
#    x 3.972020 0.000000 0.000000 
#    y 0.000000 3.526180 0.000000 
#    z 0.000000 0.000000 3.414860 
# 
# 
# High freq. dielectric constant tensor:
#      x y z
#    x 1.787070 0.000000 0.000000 
#    y 0.000000 1.756050 0.000000 
#    z 0.000000 0.000000 1.708950 
# 
# From -- ./inp_files/16393.got.cif
#   From: 2010.03.12/outbox.cif.g09.slc.cpg/sg51_9_cif.got.tgz:16393.got - 2010.04.16 13:43:02.
