data_PCOD8210178
_publ_section_title
;
Structure prediction by ZEFSAII (Michael W. Deem and Ramdas Pophale) SiO2 
 PCOD8210178
Probable space group: P M M A
;
_chemical_formula_sum "Si O2"
_cell_formula_units_Z 56
_cell_length_a 28.549330
_cell_length_b 8.866674
_cell_length_c 13.693396
_cell_angle_alpha 90.000000
_cell_angle_beta 90.000000
_cell_angle_gamma 90.000000
_cell_volume 3466.313427
_symmetry_space_group_name_H-M "P M M A"
_symmetry_group_IT_number 51
_symmetry_cell_setting 'orthorhombic'
loop_
_space_group_symop_operation_xyz
x,y,z
1/2-x,-y,z
1/2+x,-y,-z
-x,y,-z
-x,-y,-z
1/2+x,y,-z
1/2-x,y,z
x,-y,z
loop_
_atom_site_type_symbol
_atom_site_label
_atom_site_fract_x
_atom_site_fract_y
_atom_site_fract_z
Si Si1 0.984465 0.175776 0.602075
Si Si2 0.528287 0.175526 0.199060
Si Si3 0.301443 0.825653 0.211648
Si Si4 0.389297 0.825908 0.929698
Si Si5 0.602209 0.826096 0.718768
Si Si6 0.802666 0.322748 0.993558
Si Si7 0.554948 0.323033 0.897192
O O1 0.928859 0.207477 0.621864
O O2 0.000000 0.254829 0.500000
O O3 0.016245 0.237304 0.692124
O O4 0.994633 0.000000 0.592744
O O5 0.583298 0.198334 0.173418
O O6 0.498156 0.267125 0.119119
O O7 0.514013 0.000000 0.191172
O O8 0.250000 0.774985 0.251487
O O9 0.341690 0.796712 0.294150
O O10 0.300251 0.000000 0.182045
O O11 0.315051 0.736022 0.114230
O O12 0.338965 0.743767 0.927445
O O13 0.379791 0.000000 0.950567
O O14 0.422547 0.762174 0.012787
O O15 0.584938 0.714267 0.801773
O O16 0.593492 0.000000 0.750468
O O17 0.750000 0.274839 0.023676
O O18 0.808612 0.500000 0.991775
O O19 0.555425 0.500000 0.917981
#
# Coordination Sequence:
#
# PCOD8210178 Si02
#       7
#     8   8   8   8   8   8   8
#     4   8  14  27  47  67  85 108 143 184 224 267
#     4   9  19  32  45  63  86 114 148 182 217 264
#     4   9  16  26  41  60  84 116 149 177 211 259
#     4  11  20  30  44  61  86 120 153 182 213 255
#     4   9  16  27  43  63  87 116 147 180 218 265
#     4  10  20  31  43  62  88 117 151 187 219 252
#     4  11  20  28  41  62  89 119 148 180 217 255
#
# _framework density 16.155491999999999
#
# number of rings (size 3 to 8) (size 9 to 14) (size 15 to 20)
#    0.000    2.429    1.429    3.429    0.000    3.714 
#    0.000    0.000    0.000    6.857    0.000    1.000 
#    0.000    5.714    0.000    3.857    0.000    3.714 
#
# Total GULP energy -693867.161745 kJ/mol
# GULP energy per Si atom -12390.485031 kJ/mol
# Density = 1.611872 g / cm^3
# Si number density = 16.155492 Si / 1000 Ang^3
#
#
#
# Elastic Constant Matrix: (Units=GPa)
#
#
# Indices 1 2 3 4 5 6 
#
# 1 148.0608 28.2080 54.0464 0.0000 0.0000 0.0000
# 2 28.2080 39.2070 9.8653 0.0000 0.0000 0.0000
# 3 54.0464 9.8653 59.9466 0.0000 0.0000 0.0000
# 4 0.0000 0.0000 0.0000 0.9013 0.0000 0.0000
# 5 0.0000 0.0000 0.0000 0.0000 18.9840 0.0000
# 6 0.0000 0.0000 0.0000 0.0000 0.0000 20.3147
#
#
#
# Elastic Compliance Matrix: (Units=1/GPa)
#
#
# Indices 1 2 3 4 5 6 
#
# 1 0.011185 -0.005748 -0.009138 0.000000 0.000000 0.000000
# 2 -0.005748 0.029561 0.000317 0.000000 0.000000 0.000000
# 3 -0.009138 0.000317 0.024868 0.000000 0.000000 0.000000
# 4 0.000000 0.000000 0.000000 1.109466 0.000000 0.000000
# 5 0.000000 0.000000 0.000000 0.000000 0.052676 0.000000
# 6 0.000000 0.000000 0.000000 0.000000 0.000000 0.049225
#
#
# Mechanical properties :
#
#
# Convention : Reuss Voigt Hill
#
# Bulk Modulus (GPa) = 27.41478 47.93929 37.67703
# Shear Modulus (GPa) = 3.79283 18.37965 11.08624
#
# Velocity S-wave (km/s) = 1.53388 3.37660 2.62242
# Velocity P-wave (km/s) = 4.48812 6.70373 5.70453
#
# Compressibility (1/GPa) = 0.03647668
#
# Stress axis : x y z
#
# Youngs Moduli (GPa) = 89.40885 33.82830 40.21262
#
# Poissons Ratio (x) = 0.19443 0.36746
# Poissons Ratio (y) = 0.51389 -0.01275
# Poissons Ratio (z) = 0.81701 -0.01073
#
# Static dielectric constant tensor:
#      x y z
#    x 3.455820 0.000000 0.000000 
#    y 0.000000 2.952680 0.000000 
#    z 0.000000 0.000000 2.942010 
# 
# 
# High freq. dielectric constant tensor:
#      x y z
#    x 1.632170 0.000000 0.000000 
#    y 0.000000 1.612000 0.000000 
#    z 0.000000 0.000000 1.567530 
# 
# From -- ./inp_files/26544.got.cif
#   From: 2010.03.12/outbox.cif.g09.slc.cpg/sg51_14_cif.got.tgz:26544.got - 2010.04.16 13:43:02.
