data_PCOD8210470
_publ_section_title
;
Structure prediction by ZEFSAII (Michael W. Deem and Ramdas Pophale) SiO2 
 PCOD8210470
Probable space group: P M M A
;
_chemical_formula_sum "Si O2"
_cell_formula_units_Z 52
_cell_length_a 8.946522
_cell_length_b 18.412179
_cell_length_c 18.348442
_cell_angle_alpha 90.000000
_cell_angle_beta 90.000000
_cell_angle_gamma 90.000000
_cell_volume 3022.446457
_symmetry_space_group_name_H-M "P M M A"
_symmetry_group_IT_number 51
_symmetry_cell_setting 'orthorhombic'
loop_
_space_group_symop_operation_xyz
x,y,z
1/2-x,-y,z
1/2+x,-y,-z
-x,y,-z
-x,-y,-z
1/2+x,y,-z
1/2-x,y,z
x,-y,z
loop_
_atom_site_type_symbol
_atom_site_label
_atom_site_fract_x
_atom_site_fract_y
_atom_site_fract_z
Si Si1 0.074366 0.364820 0.344396
Si Si2 0.072216 0.500000 0.579103
Si Si3 0.081222 0.837472 0.279606
Si Si4 0.078249 0.919429 0.142141
Si Si5 0.074702 0.219387 0.925251
Si Si6 0.918648 0.782481 0.573497
Si Si7 0.577778 0.705290 0.218406
O O1 0.250000 0.382085 0.347609
O O2 0.028731 0.293377 0.390354
O O3 0.980277 0.429898 0.377247
O O4 0.024778 0.354259 0.259578
O O5 0.250000 0.500000 0.571301
O O6 0.000000 0.500000 0.500000
O O7 0.250000 0.803711 0.268799
O O8 0.065652 0.909519 0.230508
O O9 0.058436 0.847625 0.366885
O O10 0.953175 0.783441 0.253215
O O11 0.250000 0.912246 0.117716
O O12 0.986576 0.859233 0.098741
O O13 0.016833 0.000000 0.123835
O O14 0.250000 0.210133 0.935997
O O15 0.038574 0.283883 0.867282
O O16 0.000000 0.244744 0.000000
O O17 0.750000 0.773611 0.549260
O O18 0.000000 0.803673 0.500000
O O19 0.750000 0.683842 0.229495
#
# Coordination Sequence:
#
# PCOD8210470 Si02
#       7
#     8   4   8   8   8   8   8
#     4  10  20  34  50  69  95 129 164 196 234 282
#     4  12  24  36  50  72 105 140 171 204 238 276
#     4   8  15  28  43  61  85 113 149 192 235 281
#     4   9  17  30  48  66  86 118 157 193 233 284
#     4  10  20  32  48  71  99 126 153 190 235 282
#     4   9  17  27  42  63  86 113 147 189 233 275
#     4   9  17  30  48  70  92 118 155 196 235 275
#
# _framework density 17.204605999999998
#
# number of rings (size 3 to 8) (size 9 to 14) (size 15 to 20)
#    0.000    2.615    0.000    3.462    0.000    6.769 
#    0.000    0.000    0.000    0.462    0.000    0.538 
#    0.000    0.000    0.000    0.000    0.000    0.923 
#
# Total GULP energy -644249.513444 kJ/mol
# GULP energy per Si atom -12389.413720 kJ/mol
# Density = 1.716545 g / cm^3
# Si number density = 17.204606 Si / 1000 Ang^3
#
#
#
# Elastic Constant Matrix: (Units=GPa)
#
#
# Indices 1 2 3 4 5 6 
#
# 1 79.1004 25.3100 50.6482 0.0000 0.0000 0.0000
# 2 25.3100 39.7557 30.2857 0.0000 0.0000 0.0000
# 3 50.6482 30.2857 130.0338 0.0000 0.0000 0.0000
# 4 0.0000 0.0000 0.0000 20.0766 0.0000 0.0000
# 5 0.0000 0.0000 0.0000 0.0000 31.1543 0.0000
# 6 0.0000 0.0000 0.0000 0.0000 0.0000 21.0136
#
#
#
# Elastic Compliance Matrix: (Units=1/GPa)
#
#
# Indices 1 2 3 4 5 6 
#
# 1 0.018591 -0.007683 -0.005452 0.000000 0.000000 0.000000
# 2 -0.007683 0.033754 -0.004869 0.000000 0.000000 0.000000
# 3 -0.005452 -0.004869 0.010948 0.000000 0.000000 0.000000
# 4 0.000000 0.000000 0.000000 0.049809 0.000000 0.000000
# 5 0.000000 0.000000 0.000000 0.000000 0.032098 0.000000
# 6 0.000000 0.000000 0.000000 0.000000 0.000000 0.047588
#
#
# Mechanical properties :
#
#
# Convention : Reuss Voigt Hill
#
# Bulk Modulus (GPa) = 36.64926 51.26420 43.95673
# Shear Modulus (GPa) = 21.01798 23.95864 22.48831
#
# Velocity S-wave (km/s) = 3.49900 3.73577 3.61932
# Velocity P-wave (km/s) = 6.13777 6.96200 6.56284
#
# Compressibility (1/GPa) = 0.02728568
#
# Stress axis : x y z
#
# Youngs Moduli (GPa) = 53.78861 29.62620 91.34163
#
# Poissons Ratio (x) = 0.22761 0.49799
# Poissons Ratio (y) = 0.41324 0.44475
# Poissons Ratio (z) = 0.29325 0.14425
#
# Static dielectric constant tensor:
#      x y z
#    x 3.255950 0.000000 0.000000 
#    y 0.000000 2.955480 0.000000 
#    z 0.000000 0.000000 3.497020 
# 
# 
# High freq. dielectric constant tensor:
#      x y z
#    x 1.671710 0.000000 0.000000 
#    y 0.000000 1.617880 0.000000 
#    z 0.000000 0.000000 1.670330 
# 
# From -- ./inp_files/27978.got.cif
#   From: 2010.03.12/outbox.cif.g09.slc.cpg/sg51_14_cif.got.tgz:27978.got - 2010.04.16 13:43:02.
