data_PCOD8210727
_publ_section_title
;
Structure prediction by ZEFSAII (Michael W. Deem and Ramdas Pophale) SiO2 
 PCOD8210727
Probable space group: P M M A
;
_chemical_formula_sum "Si O2"
_cell_formula_units_Z 56
_cell_length_a 9.376163
_cell_length_b 18.873950
_cell_length_c 18.634382
_cell_angle_alpha 90.000000
_cell_angle_beta 90.000000
_cell_angle_gamma 90.000000
_cell_volume 3297.637727
_symmetry_space_group_name_H-M "P M M A"
_symmetry_group_IT_number 51
_symmetry_cell_setting 'orthorhombic'
loop_
_space_group_symop_operation_xyz
x,y,z
1/2-x,-y,z
1/2+x,-y,-z
-x,y,-z
-x,-y,-z
1/2+x,y,-z
1/2-x,y,z
x,-y,z
loop_
_atom_site_type_symbol
_atom_site_label
_atom_site_fract_x
_atom_site_fract_y
_atom_site_fract_z
Si Si1 0.913957 0.081771 0.357031
Si Si2 0.085064 0.160420 0.787363
Si Si3 0.080588 0.422430 0.221103
Si Si4 0.093477 0.416586 0.063357
Si Si5 0.083077 0.918355 0.930214
Si Si6 0.081903 0.201114 0.430177
Si Si7 0.416274 0.279287 0.286212
O O1 0.750000 0.097611 0.378374
O O2 0.941935 0.102679 0.274691
O O3 0.018416 0.124653 0.409443
O O4 0.952167 0.000000 0.366645
O O5 0.250000 0.181483 0.791472
O O6 0.031732 0.126953 0.861876
O O7 0.997620 0.231387 0.771486
O O8 0.250000 0.427631 0.215347
O O9 0.021162 0.500000 0.245817
O O10 0.022946 0.402445 0.141529
O O11 0.034146 0.361100 0.276629
O O12 0.250000 0.381497 0.058833
O O13 0.106537 0.500000 0.050938
O O14 0.000000 0.381576 0.000000
O O15 0.250000 0.908813 0.944123
O O16 0.044589 0.000000 0.914785
O O17 0.000000 0.890201 0.000000
O O18 0.250000 0.193911 0.444908
O O19 0.047527 0.257081 0.367321
O O20 0.000000 0.230092 0.500000
O O21 0.250000 0.269995 0.269889
#
# Coordination Sequence:
#
# PCOD8210727 Si02
#       7
#     8   8   8   8   8   8   8
#     4   9  17  30  49  71  93 119 151 186 224 265
#     4   9  17  30  47  66  91 122 153 187 230 276
#     4   8  14  27  48  70  90 115 149 188 227 265
#     4   8  13  22  38  60  85 112 140 171 209 252
#     4   9  17  29  45  65  89 120 160 201 236 270
#     4  10  20  33  49  69  93 121 150 180 218 265
#     4   9  18  32  50  71  91 114 149 188 223 267
#
# _framework density 16.981853000000001
#
# number of rings (size 3 to 8) (size 9 to 14) (size 15 to 20)
#    0.000    3.143    0.000    1.714    0.000    3.429 
#    0.000    1.429    0.000    7.714    0.000    0.000 
#    0.000    0.000    0.000    0.000    0.000    0.429 
#
# Total GULP energy -694172.090531 kJ/mol
# GULP energy per Si atom -12395.930188 kJ/mol
# Density = 1.694320 g / cm^3
# Si number density = 16.981853 Si / 1000 Ang^3
#
#
#
# Elastic Constant Matrix: (Units=GPa)
#
#
# Indices 1 2 3 4 5 6 
#
# 1 56.2094 38.4810 48.4410 0.0000 0.0000 0.0000
# 2 38.4810 108.8782 64.5410 0.0000 0.0000 0.0000
# 3 48.4410 64.5410 119.9260 0.0000 0.0000 0.0000
# 4 0.0000 0.0000 0.0000 18.2823 0.0000 0.0000
# 5 0.0000 0.0000 0.0000 0.0000 28.5135 0.0000
# 6 0.0000 0.0000 0.0000 0.0000 0.0000 16.5331
#
#
#
# Elastic Compliance Matrix: (Units=1/GPa)
#
#
# Indices 1 2 3 4 5 6 
#
# 1 0.028931 -0.004843 -0.009080 0.000000 0.000000 0.000000
# 2 -0.004843 0.014298 -0.005739 0.000000 0.000000 0.000000
# 3 -0.009080 -0.005739 0.015094 0.000000 0.000000 0.000000
# 4 0.000000 0.000000 0.000000 0.054698 0.000000 0.000000
# 5 0.000000 0.000000 0.000000 0.000000 0.035071 0.000000
# 6 0.000000 0.000000 0.000000 0.000000 0.000000 0.060485
#
#
# Mechanical properties :
#
#
# Convention : Reuss Voigt Hill
#
# Bulk Modulus (GPa) = 52.62892 65.32661 58.97777
# Shear Modulus (GPa) = 19.66705 21.56915 20.61810
#
# Velocity S-wave (km/s) = 3.40681 3.56775 3.48821
# Velocity P-wave (km/s) = 6.82156 7.45143 7.14344
#
# Compressibility (1/GPa) = 0.01900096
#
# Stress axis : x y z
#
# Youngs Moduli (GPa) = 34.56530 69.94011 66.25028
#
# Poissons Ratio (x) = 0.33871 0.60152
# Poissons Ratio (y) = 0.16740 0.38019
# Poissons Ratio (z) = 0.31384 0.40136
#
# Static dielectric constant tensor:
#      x y z
#    x 3.138710 0.000000 0.000000 
#    y 0.000000 3.123270 0.000000 
#    z 0.000000 0.000000 3.253090 
# 
# 
# High freq. dielectric constant tensor:
#      x y z
#    x 1.640010 0.000000 0.000000 
#    y 0.000000 1.632800 0.000000 
#    z 0.000000 0.000000 1.652950 
# 
# From -- ./inp_files/28186.got.cif
#   From: 2010.03.12/outbox.cif.g09.slc.cpg/sg51_15_cif.got.tgz:28186.got - 2010.04.16 13:43:02.
