data_PCOD8210219
_publ_section_title
;
Structure prediction by ZEFSAII (Michael W. Deem and Ramdas Pophale) SiO2 
 PCOD8210219
Probable space group: P M M A
;
_chemical_formula_sum "Si O2"
_cell_formula_units_Z 32
_cell_length_a 18.075605
_cell_length_b 7.716890
_cell_length_c 12.897131
_cell_angle_alpha 90.000000
_cell_angle_beta 90.000000
_cell_angle_gamma 90.000000
_cell_volume 1798.987986
_symmetry_space_group_name_H-M "P M M A"
_symmetry_group_IT_number 51
_symmetry_cell_setting 'orthorhombic'
loop_
_space_group_symop_operation_xyz
x,y,z
1/2-x,-y,z
1/2+x,-y,-z
-x,y,-z
-x,-y,-z
1/2+x,y,-z
1/2-x,y,z
x,-y,z
loop_
_atom_site_type_symbol
_atom_site_label
_atom_site_fract_x
_atom_site_fract_y
_atom_site_fract_z
Si Si1 0.669030 0.199530 0.898179
Si Si2 0.598210 0.308072 0.107548
Si Si3 0.981264 0.500000 0.380687
Si Si4 0.667540 0.500000 0.278187
Si Si5 0.534334 0.198711 0.765075
O O1 0.750000 0.290986 0.886875
O O2 0.610598 0.272551 0.814717
O O3 0.678356 0.000000 0.873618
O O4 0.640204 0.215740 0.015037
O O5 0.571106 0.500000 0.072540
O O6 0.654277 0.329844 0.205745
O O7 0.526889 0.199677 0.143591
O O8 0.892129 0.500000 0.370979
O O9 0.000000 0.500000 0.500000
O O10 0.013836 0.673408 0.328456
O O11 0.750000 0.500000 0.325326
O O12 0.541786 0.000000 0.724778
#
# Coordination Sequence:
#
# PCOD8210219 Si02
#       5
#     8   8   4   4   8
#     4  10  20  31  46  75 113 146 176 205 239 300
#     4   9  18  29  50  77 105 141 173 211 240 302
#     4  10  22  39  57  79  99 125 178 227 267 318
#     4   8  16  31  51  75 103 133 164 215 263 300
#     4  10  20  36  55  75 103 139 174 213 262 308
#
# _framework density 17.787777999999999
#
# number of rings (size 3 to 8) (size 9 to 14) (size 15 to 20)
#    0.750    1.750    1.250    2.250    1.750    3.500 
#    0.000    1.250    0.000    6.750    0.000    0.000 
#    0.000    0.000    0.000    0.000    0.000    0.000 
#
# Total GULP energy -396439.883404 kJ/mol
# GULP energy per Si atom -12388.746356 kJ/mol
# Density = 1.774729 g / cm^3
# Si number density = 17.787778 Si / 1000 Ang^3
#
#
#
# Elastic Constant Matrix: (Units=GPa)
#
#
# Indices 1 2 3 4 5 6 
#
# 1 160.7377 31.2978 80.9869 0.0000 0.0000 0.0000
# 2 31.2978 63.3589 26.5443 0.0000 0.0000 0.0000
# 3 80.9869 26.5443 100.3294 0.0000 0.0000 0.0000
# 4 0.0000 0.0000 0.0000 18.1966 0.0000 0.0000
# 5 0.0000 0.0000 0.0000 0.0000 16.0074 0.0000
# 6 0.0000 0.0000 0.0000 0.0000 0.0000 14.4726
#
#
#
# Elastic Compliance Matrix: (Units=1/GPa)
#
#
# Indices 1 2 3 4 5 6 
#
# 1 0.010680 -0.001871 -0.008126 0.000000 0.000000 0.000000
# 2 -0.001871 0.018078 -0.003273 0.000000 0.000000 0.000000
# 3 -0.008126 -0.003273 0.017392 0.000000 0.000000 0.000000
# 4 0.000000 0.000000 0.000000 0.054955 0.000000 0.000000
# 5 0.000000 0.000000 0.000000 0.000000 0.062471 0.000000
# 6 0.000000 0.000000 0.000000 0.000000 0.000000 0.069096
#
#
# Mechanical properties :
#
#
# Convention : Reuss Voigt Hill
#
# Bulk Modulus (GPa) = 50.99092 66.89821 58.94456
# Shear Modulus (GPa) = 18.81473 22.10846 20.46160
#
# Velocity S-wave (km/s) = 3.25581 3.52931 3.39531
# Velocity P-wave (km/s) = 6.54693 7.36877 6.96997
#
# Compressibility (1/GPa) = 0.01961134
#
# Stress axis : x y z
#
# Youngs Moduli (GPa) = 93.63474 55.31437 57.49712
#
# Poissons Ratio (x) = 0.10351 0.46721
# Poissons Ratio (y) = 0.17522 0.18816
# Poissons Ratio (z) = 0.76085 0.18102
#
# Static dielectric constant tensor:
#      x y z
#    x 3.706410 0.000000 0.000000 
#    y 0.000000 3.151520 0.000000 
#    z 0.000000 0.000000 2.852780 
# 
# 
# High freq. dielectric constant tensor:
#      x y z
#    x 1.697510 0.000000 0.000000 
#    y 0.000000 1.679620 0.000000 
#    z 0.000000 0.000000 1.644680 
# 
# From -- ./inp_files/17012.got.cif
#   From: 2010.03.12/outbox.cif.g09.slc.cpg/sg51_9_cif.got.tgz:17012.got - 2010.04.16 13:43:02.
