data_PCOD8210845
_publ_section_title
;
Structure prediction by ZEFSAII (Michael W. Deem and Ramdas Pophale) SiO2 
 PCOD8210845
Probable space group: P M M A
;
_chemical_formula_sum "Si O2"
_cell_formula_units_Z 64
_cell_length_a 9.042055
_cell_length_b 15.294192
_cell_length_c 23.165677
_cell_angle_alpha 90.000000
_cell_angle_beta 90.000000
_cell_angle_gamma 90.000000
_cell_volume 3203.602906
_symmetry_space_group_name_H-M "P M M A"
_symmetry_group_IT_number 51
_symmetry_cell_setting 'orthorhombic'
loop_
_space_group_symop_operation_xyz
x,y,z
1/2-x,-y,z
1/2+x,-y,-z
-x,y,-z
-x,-y,-z
1/2+x,y,-z
1/2-x,y,z
x,-y,z
loop_
_atom_site_type_symbol
_atom_site_label
_atom_site_fract_x
_atom_site_fract_y
_atom_site_fract_z
Si Si1 0.082637 0.902870 0.386769
Si Si2 0.909820 0.599443 0.773481
Si Si3 0.575493 0.252634 0.442529
Si Si4 0.414698 0.670121 0.677031
Si Si5 0.423287 0.397542 0.884921
Si Si6 0.574904 0.761210 0.941534
Si Si7 0.079583 0.099868 0.156553
Si Si8 0.917677 0.139060 0.274519
O O1 0.250000 0.866118 0.383436
O O2 0.986426 0.843576 0.429522
O O3 0.015833 0.908173 0.322648
O O4 0.081224 0.000000 0.413056
O O5 0.750000 0.648761 0.777906
O O6 0.880043 0.500000 0.787536
O O7 0.973955 0.605029 0.708713
O O8 0.024696 0.634036 0.821199
O O9 0.500000 0.291336 0.500000
O O10 0.750000 0.245214 0.451116
O O11 0.534862 0.315717 0.389059
O O12 0.250000 0.630420 0.677870
O O13 0.421707 0.758213 0.713898
O O14 0.250000 0.379326 0.889882
O O15 0.458720 0.500000 0.897400
O O16 0.510661 0.335790 0.929104
O O17 0.750000 0.753206 0.949244
O O18 0.531842 0.832576 0.893249
O O19 0.500000 0.795621 0.000000
O O20 0.250000 0.114586 0.173590
O O21 0.980366 0.118510 0.211959
O O22 0.053632 0.000000 0.135286
O O23 0.750000 0.103885 0.278601
#
# Coordination Sequence:
#
# PCOD8210845 Si02
#       8
#     8   8   8   8   8   8   8   8
#     4  10  20  33  50  73 102 136 172 212 261 316
#     4  10  20  33  53  84 116 142 171 210 258 313
#     4  10  21  36  53  73  98 132 176 221 263 310
#     4   9  19  34  52  76 106 140 176 216 264 318
#     4  10  21  38  61  88 118 150 181 218 268 327
#     4  11  24  41  61  83 110 146 187 232 276 322
#     4  10  22  39  57  79 109 146 187 230 278 330
#     4  10  20  33  52  80 109 136 173 221 271 322
#
# _framework density 19.977508
#
# number of rings (size 3 to 8) (size 9 to 14) (size 15 to 20)
#    0.000    2.000    0.000    4.125    0.000   11.000 
#    0.000    0.000    0.000    0.375    0.000    0.000 
#    0.000    0.000    0.000    0.000    0.000    0.000 
#
# Total GULP energy -793497.528062 kJ/mol
# GULP energy per Si atom -12398.398876 kJ/mol
# Density = 1.993204 g / cm^3
# Si number density = 19.977508 Si / 1000 Ang^3
#
#
#
# Elastic Constant Matrix: (Units=GPa)
#
#
# Indices 1 2 3 4 5 6 
#
# 1 103.9589 23.5858 40.1819 0.0000 0.0000 0.0000
# 2 23.5858 46.0505 25.7275 0.0000 0.0000 0.0000
# 3 40.1819 25.7275 103.1387 0.0000 0.0000 0.0000
# 4 0.0000 0.0000 0.0000 14.1325 0.0000 0.0000
# 5 0.0000 0.0000 0.0000 0.0000 38.7260 0.0000
# 6 0.0000 0.0000 0.0000 0.0000 0.0000 23.8960
#
#
#
# Elastic Compliance Matrix: (Units=1/GPa)
#
#
# Indices 1 2 3 4 5 6 
#
# 1 0.011953 -0.004090 -0.003636 0.000000 0.000000 0.000000
# 2 -0.004090 0.026631 -0.005050 0.000000 0.000000 0.000000
# 3 -0.003636 -0.005050 0.012372 0.000000 0.000000 0.000000
# 4 0.000000 0.000000 0.000000 0.070759 0.000000 0.000000
# 5 0.000000 0.000000 0.000000 0.000000 0.025822 0.000000
# 6 0.000000 0.000000 0.000000 0.000000 0.000000 0.041848
#
#
# Mechanical properties :
#
#
# Convention : Reuss Voigt Hill
#
# Bulk Modulus (GPa) = 39.36450 48.01541 43.68996
# Shear Modulus (GPa) = 22.38084 26.26111 24.32098
#
# Velocity S-wave (km/s) = 3.35072 3.62958 3.49294
# Velocity P-wave (km/s) = 5.89211 6.45384 6.17936
#
# Compressibility (1/GPa) = 0.02540360
#
# Stress axis : x y z
#
# Youngs Moduli (GPa) = 83.66322 37.54985 80.82803
#
# Poissons Ratio (x) = 0.15359 0.29392
# Poissons Ratio (y) = 0.34221 0.40814
# Poissons Ratio (z) = 0.30423 0.18961
#
# Static dielectric constant tensor:
#      x y z
#    x 3.876680 0.000000 0.000000 
#    y 0.000000 3.483780 0.000000 
#    z 0.000000 0.000000 3.611510 
# 
# 
# High freq. dielectric constant tensor:
#      x y z
#    x 1.792690 0.000000 0.000000 
#    y 0.000000 1.761800 0.000000 
#    z 0.000000 0.000000 1.774560 
# 
# From -- ./inp_files/34928.got.cif
#   From: 2010.03.12/outbox.cif.g09.slc.cpg/sg51_18_cif.got.tgz:34928.got - 2010.04.16 13:43:02.
