data_PCOD8210849
_publ_section_title
;
Structure prediction by ZEFSAII (Michael W. Deem and Ramdas Pophale) SiO2 
 PCOD8210849
Probable space group: P M M A
;
_chemical_formula_sum "Si O2"
_cell_formula_units_Z 40
_cell_length_a 18.483883
_cell_length_b 12.681732
_cell_length_c 8.717633
_cell_angle_alpha 90.000000
_cell_angle_beta 90.000000
_cell_angle_gamma 90.000000
_cell_volume 2043.479870
_symmetry_space_group_name_H-M "P M M A"
_symmetry_group_IT_number 51
_symmetry_cell_setting 'orthorhombic'
loop_
_space_group_symop_operation_xyz
x,y,z
1/2-x,-y,z
1/2+x,-y,-z
-x,y,-z
-x,-y,-z
1/2+x,y,-z
1/2-x,y,z
x,-y,z
loop_
_atom_site_type_symbol
_atom_site_label
_atom_site_fract_x
_atom_site_fract_y
_atom_site_fract_z
Si Si1 0.164864 0.376058 0.358853
Si Si2 0.931562 0.759849 0.413179
Si Si3 0.040406 0.617197 0.854606
Si Si4 0.667520 0.880401 0.185220
Si Si5 0.667722 0.311449 0.978696
O O1 0.250000 0.356857 0.383898
O O2 0.145981 0.500000 0.371190
O O3 0.121916 0.310030 0.484617
O O4 0.139474 0.330962 0.193646
O O5 0.973510 0.682612 0.297191
O O6 0.885134 0.847375 0.324264
O O7 0.000000 0.813671 0.500000
O O8 0.010865 0.500000 0.825408
O O9 0.125366 0.615996 0.899257
O O10 0.000000 0.670543 0.000000
O O11 0.750000 0.869043 0.244329
O O12 0.656331 0.810249 0.031768
O O13 0.649542 0.000000 0.138311
O O14 0.750000 0.348348 0.989965
#
# Coordination Sequence:
#
# PCOD8210849 Si02
#       5
#     8   8   8   8   8
#     4  10  20  34  53  80 114 146 175 212 261 318
#     4  11  22  34  52  78 111 143 176 217 266 320
#     4  10  20  33  50  73 104 143 183 217 254 307
#     4   9  19  38  60  78 100 134 178 226 270 312
#     4   9  18  33  54  77 100 131 174 221 265 311
#
# _framework density 19.574452999999998
#
# number of rings (size 3 to 8) (size 9 to 14) (size 15 to 20)
#    0.000    2.200    0.000    3.000    0.000    5.600 
#    0.000    1.000    0.000   24.000    0.000    0.000 
#    0.000    0.000    0.000    0.000    0.000    0.000 
#
# Total GULP energy -495844.543173 kJ/mol
# GULP energy per Si atom -12396.113579 kJ/mol
# Density = 1.952990 g / cm^3
# Si number density = 19.574453 Si / 1000 Ang^3
#
#
#
# Elastic Constant Matrix: (Units=GPa)
#
#
# Indices 1 2 3 4 5 6 
#
# 1 38.3402 13.8407 11.5588 0.0000 0.0000 0.0000
# 2 13.8407 82.6035 18.5281 0.0000 0.0000 0.0000
# 3 11.5588 18.5281 69.1604 0.0000 0.0000 0.0000
# 4 0.0000 0.0000 0.0000 21.6289 0.0000 0.0000
# 5 0.0000 0.0000 0.0000 0.0000 39.9712 0.0000
# 6 0.0000 0.0000 0.0000 0.0000 0.0000 15.9813
#
#
#
# Elastic Compliance Matrix: (Units=1/GPa)
#
#
# Indices 1 2 3 4 5 6 
#
# 1 0.028636 -0.003963 -0.003724 0.000000 0.000000 0.000000
# 2 -0.003963 0.013428 -0.002935 0.000000 0.000000 0.000000
# 3 -0.003724 -0.002935 0.015868 0.000000 0.000000 0.000000
# 4 0.000000 0.000000 0.000000 0.046234 0.000000 0.000000
# 5 0.000000 0.000000 0.000000 0.000000 0.025018 0.000000
# 6 0.000000 0.000000 0.000000 0.000000 0.000000 0.062573
#
#
# Mechanical properties :
#
#
# Convention : Reuss Voigt Hill
#
# Bulk Modulus (GPa) = 27.25716 30.88435 29.07076
# Shear Modulus (GPa) = 22.19943 25.26137 23.73040
#
# Velocity S-wave (km/s) = 3.37130 3.59629 3.48561
# Velocity P-wave (km/s) = 5.39530 5.74948 5.57520
#
# Compressibility (1/GPa) = 0.03668761
#
# Stress axis : x y z
#
# Youngs Moduli (GPa) = 34.92155 74.46921 63.02022
#
# Poissons Ratio (x) = 0.29510 0.23470
# Poissons Ratio (y) = 0.13838 0.18498
# Poissons Ratio (z) = 0.13006 0.21858
#
# Static dielectric constant tensor:
#      x y z
#    x 3.729900 0.000000 0.000000 
#    y 0.000000 3.352410 0.000000 
#    z 0.000000 0.000000 3.640520 
# 
# 
# High freq. dielectric constant tensor:
#      x y z
#    x 1.782880 0.000000 0.000000 
#    y 0.000000 1.734280 0.000000 
#    z 0.000000 0.000000 1.762660 
# 
# From -- ./inp_files/9256.got.cif
#   From: 2010.03.12/outbox.cif.g09.slc.cpg/sg51_5_cif.got.tgz:9256.got - 2010.04.16 13:43:02.
