data_PCOD8210825
_publ_section_title
;
Structure prediction by ZEFSAII (Michael W. Deem and Ramdas Pophale) SiO2 
 PCOD8210825
Probable space group: P M M A
;
_chemical_formula_sum "Si O2"
_cell_formula_units_Z 64
_cell_length_a 29.416154
_cell_length_b 8.897127
_cell_length_c 14.893978
_cell_angle_alpha 90.000000
_cell_angle_beta 90.000000
_cell_angle_gamma 90.000000
_cell_volume 3898.040871
_symmetry_space_group_name_H-M "P M M A"
_symmetry_group_IT_number 51
_symmetry_cell_setting 'orthorhombic'
loop_
_space_group_symop_operation_xyz
x,y,z
1/2-x,-y,z
1/2+x,-y,-z
-x,y,-z
-x,-y,-z
1/2+x,y,-z
1/2-x,y,z
x,-y,z
loop_
_atom_site_type_symbol
_atom_site_label
_atom_site_fract_x
_atom_site_fract_y
_atom_site_fract_z
Si Si1 0.883658 0.175454 0.293186
Si Si2 0.533109 0.673090 0.632141
Si Si3 0.103528 0.172606 0.029591
Si Si4 0.198473 0.328175 0.784430
Si Si5 0.464192 0.174811 0.183333
Si Si6 0.942527 0.322264 0.138403
Si Si7 0.933558 0.673278 0.441636
Si Si8 0.800013 0.828082 0.028859
O O1 0.831661 0.223262 0.279037
O O2 0.915820 0.261620 0.224053
O O3 0.896588 0.220560 0.394677
O O4 0.889710 0.000000 0.277932
O O5 0.539192 0.500000 0.659485
O O6 0.547249 0.774976 0.715773
O O7 0.481516 0.705679 0.605238
O O8 0.564844 0.713792 0.547170
O O9 0.080509 0.210791 0.124489
O O10 0.158055 0.202951 0.039184
O O11 0.094272 0.000000 0.002459
O O12 0.082214 0.274984 0.952558
O O13 0.250000 0.308960 0.751553
O O14 0.182094 0.500000 0.776911
O O15 0.192840 0.280025 0.887158
O O16 0.506162 0.262525 0.139681
O O17 0.476467 0.000000 0.183081
O O18 0.944042 0.500000 0.144556
O O19 0.919916 0.500000 0.428929
O O20 0.750000 0.796873 0.984324
O O21 0.802094 0.000000 0.063206
#
# Coordination Sequence:
#
# PCOD8210825 Si02
#       8
#     8   8   8   8   8   8   8   8
#     4  12  22  32  50  75 102 133 166 201 248 300
#     4   9  18  33  52  72  96 127 163 205 247 289
#     4  10  21  35  49  70 100 132 165 206 251 293
#     4  10  20  33  50  73 100 130 164 203 246 292
#     4  11  22  34  49  70 100 134 168 209 251 292
#     4  12  23  34  48  68  97 135 175 208 239 288
#     4   9  18  33  52  73  97 126 161 203 248 292
#     4   9  17  31  51  71  93 126 165 203 245 292
#
# _framework density 16.418503999999999
#
# number of rings (size 3 to 8) (size 9 to 14) (size 15 to 20)
#    0.000    1.750    2.500    4.125    0.000    3.750 
#    0.000    1.250    0.000    0.000    0.000    0.875 
#    0.000    3.000    0.000    0.000    0.000    0.000 
#
# Total GULP energy -793580.576956 kJ/mol
# GULP energy per Si atom -12399.696515 kJ/mol
# Density = 1.638113 g / cm^3
# Si number density = 16.418504 Si / 1000 Ang^3
#
#
#
# Elastic Constant Matrix: (Units=GPa)
#
#
# Indices 1 2 3 4 5 6 
#
# 1 112.8677 50.5343 55.1399 0.0000 0.0000 0.0000
# 2 50.5343 96.2829 42.0801 0.0000 0.0000 0.0000
# 3 55.1399 42.0801 85.1863 0.0000 0.0000 0.0000
# 4 0.0000 0.0000 0.0000 26.0804 0.0000 0.0000
# 5 0.0000 0.0000 0.0000 0.0000 21.8808 0.0000
# 6 0.0000 0.0000 0.0000 0.0000 0.0000 21.2166
#
#
#
# Elastic Compliance Matrix: (Units=1/GPa)
#
#
# Indices 1 2 3 4 5 6 
#
# 1 0.014288 -0.004409 -0.007071 0.000000 0.000000 0.000000
# 2 -0.004409 0.014606 -0.004361 0.000000 0.000000 0.000000
# 3 -0.007071 -0.004361 0.018470 0.000000 0.000000 0.000000
# 4 0.000000 0.000000 0.000000 0.038343 0.000000 0.000000
# 5 0.000000 0.000000 0.000000 0.000000 0.045702 0.000000
# 6 0.000000 0.000000 0.000000 0.000000 0.000000 0.047133
#
#
# Mechanical properties :
#
#
# Convention : Reuss Voigt Hill
#
# Bulk Modulus (GPa) = 63.76441 65.53838 64.65139
# Shear Modulus (GPa) = 23.20704 23.60773 23.40739
#
# Velocity S-wave (km/s) = 3.76369 3.79604 3.77990
# Velocity P-wave (km/s) = 7.60318 7.69528 7.64937
#
# Compressibility (1/GPa) = 0.01568273
#
# Stress axis : x y z
#
# Youngs Moduli (GPa) = 69.98766 68.46397 54.14173
#
# Poissons Ratio (x) = 0.30186 0.38281
# Poissons Ratio (y) = 0.30858 0.23613
# Poissons Ratio (z) = 0.49486 0.29859
#
# Static dielectric constant tensor:
#      x y z
#    x 3.263340 0.000000 0.000000 
#    y 0.000000 3.158030 0.000000 
#    z 0.000000 0.000000 3.034700 
# 
# 
# High freq. dielectric constant tensor:
#      x y z
#    x 1.622850 0.000000 0.000000 
#    y 0.000000 1.641110 0.000000 
#    z 0.000000 0.000000 1.607820 
# 
# From -- ./inp_files/26671.got.cif
#   From: 2010.03.12/outbox.cif.g09.slc.cpg/sg51_14_cif.got.tgz:26671.got - 2010.04.16 13:43:02.
