data_PCOD8210238
_publ_section_title
;
Structure prediction by ZEFSAII (Michael W. Deem and Ramdas Pophale) SiO2 
 PCOD8210238
Probable space group: P M M A
;
_chemical_formula_sum "Si O2"
_cell_formula_units_Z 52
_cell_length_a 9.303205
_cell_length_b 15.996999
_cell_length_c 24.887488
_cell_angle_alpha 90.000000
_cell_angle_beta 90.000000
_cell_angle_gamma 90.000000
_cell_volume 3703.839613
_symmetry_space_group_name_H-M "P M M A"
_symmetry_group_IT_number 51
_symmetry_cell_setting 'orthorhombic'
loop_
_space_group_symop_operation_xyz
x,y,z
1/2-x,-y,z
1/2+x,-y,-z
-x,y,-z
-x,-y,-z
1/2+x,y,-z
1/2-x,y,z
x,-y,z
loop_
_atom_site_type_symbol
_atom_site_label
_atom_site_fract_x
_atom_site_fract_y
_atom_site_fract_z
Si Si1 0.407894 0.094969 0.453036
Si Si2 0.413550 0.500000 0.553395
Si Si3 0.911279 0.099743 0.050958
Si Si4 0.417381 0.681312 0.556397
Si Si5 0.919062 0.903098 0.728930
Si Si6 0.079445 0.169626 0.634100
Si Si7 0.408662 0.099003 0.150078
O O1 0.500000 0.141355 0.500000
O O2 0.250000 0.137786 0.446967
O O3 0.500705 0.096166 0.398778
O O4 0.382783 0.000000 0.469996
O O5 0.250000 0.500000 0.535369
O O6 0.500000 0.500000 0.500000
O O7 0.447375 0.588578 0.582780
O O8 0.750000 0.134925 0.047173
O O9 0.981707 0.135166 0.105823
O O10 0.910858 0.000000 0.051209
O O11 0.000000 0.133604 0.000000
O O12 0.500000 0.694125 0.500000
O O13 0.250000 0.694810 0.543612
O O14 0.466412 0.745221 0.603214
O O15 0.750000 0.890853 0.717506
O O16 0.958336 0.877322 0.789894
O O17 0.012915 0.838436 0.693513
O O18 0.961628 0.000000 0.718133
O O19 0.250000 0.156879 0.636347
O O20 0.250000 0.136041 0.138544
O O21 0.400449 0.000000 0.145148
#
# Coordination Sequence:
#
# PCOD8210238 Si02
#       7
#     8   4   8   8   8   8   8
#     4  10  20  32  43  53  67  89 116 144 176 213
#     4   8  14  28  46  60  76  94 110 130 163 210
#     4   9  15  21  31  48  68  88 111 142 182 223
#     4   9  18  30  44  61  77  93 112 137 172 215
#     4   9  18  31  43  53  68  95 128 157 186 218
#     4  11  21  29  39  57  76  92 115 146 178 212
#     4   8  14  25  38  49  63  85 115 150 184 216
#
# _framework density 14.039485000000001
#
# number of rings (size 3 to 8) (size 9 to 14) (size 15 to 20)
#    0.000    2.769    0.000    3.231    0.000    8.000 
#    0.000    1.538    0.000    0.000    0.000    0.000 
#    0.000    0.000    0.000    0.000    0.000    0.000 
#
# Total GULP energy -644184.228735 kJ/mol
# GULP energy per Si atom -12388.158245 kJ/mol
# Density = 1.400753 g / cm^3
# Si number density = 14.039485 Si / 1000 Ang^3
#
#
#
# Elastic Constant Matrix: (Units=GPa)
#
#
# Indices 1 2 3 4 5 6 
#
# 1 95.4360 25.2876 63.2087 0.0000 0.0000 0.0000
# 2 25.2876 46.6737 27.2280 0.0000 0.0000 0.0000
# 3 63.2087 27.2280 111.4606 0.0000 0.0000 0.0000
# 4 0.0000 0.0000 0.0000 7.0903 0.0000 0.0000
# 5 0.0000 0.0000 0.0000 0.0000 27.2059 0.0000
# 6 0.0000 0.0000 0.0000 0.0000 0.0000 9.1453
#
#
#
# Elastic Compliance Matrix: (Units=1/GPa)
#
#
# Indices 1 2 3 4 5 6 
#
# 1 0.017492 -0.004304 -0.008868 0.000000 0.000000 0.000000
# 2 -0.004304 0.026045 -0.003922 0.000000 0.000000 0.000000
# 3 -0.008868 -0.003922 0.014959 0.000000 0.000000 0.000000
# 4 0.000000 0.000000 0.000000 0.141038 0.000000 0.000000
# 5 0.000000 0.000000 0.000000 0.000000 0.036757 0.000000
# 6 0.000000 0.000000 0.000000 0.000000 0.000000 0.109346
#
#
# Mechanical properties :
#
#
# Convention : Reuss Voigt Hill
#
# Bulk Modulus (GPa) = 41.13793 53.89098 47.51445
# Shear Modulus (GPa) = 12.88900 17.87801 15.38351
#
# Velocity S-wave (km/s) = 3.03323 3.57236 3.31377
# Velocity P-wave (km/s) = 6.45232 7.44878 6.96838
#
# Compressibility (1/GPa) = 0.02430847
#
# Stress axis : x y z
#
# Youngs Moduli (GPa) = 57.16803 38.39526 66.84909
#
# Poissons Ratio (x) = 0.16524 0.59285
# Poissons Ratio (y) = 0.24603 0.26216
# Poissons Ratio (z) = 0.50699 0.15058
#
# Static dielectric constant tensor:
#      x y z
#    x 3.000750 0.000000 0.000000 
#    y 0.000000 2.766870 0.000000 
#    z 0.000000 0.000000 2.779340 
# 
# 
# High freq. dielectric constant tensor:
#      x y z
#    x 1.551720 0.000000 0.000000 
#    y 0.000000 1.478300 0.000000 
#    z 0.000000 0.000000 1.522190 
# 
# From -- ./inp_files/35067.got.cif
#   From: 2010.03.12/outbox.cif.g09.slc.cpg/sg51_18_cif.got.tgz:35067.got - 2010.04.16 13:43:02.
