data_PCOD8210643
_publ_section_title
;
Structure prediction by ZEFSAII (Michael W. Deem and Ramdas Pophale) SiO2 
 PCOD8210643
Probable space group: P M M A
;
_chemical_formula_sum "Si O2"
_cell_formula_units_Z 48
_cell_length_a 17.441474
_cell_length_b 15.086105
_cell_length_c 9.975492
_cell_angle_alpha 90.000000
_cell_angle_beta 90.000000
_cell_angle_gamma 90.000000
_cell_volume 2624.790440
_symmetry_space_group_name_H-M "P M M A"
_symmetry_group_IT_number 51
_symmetry_cell_setting 'orthorhombic'
loop_
_space_group_symop_operation_xyz
x,y,z
1/2-x,-y,z
1/2+x,-y,-z
-x,y,-z
-x,-y,-z
1/2+x,y,-z
1/2-x,y,z
x,-y,z
loop_
_atom_site_type_symbol
_atom_site_label
_atom_site_fract_x
_atom_site_fract_y
_atom_site_fract_z
Si Si1 0.039828 0.102999 0.860482
Si Si2 0.159004 0.598732 0.984791
Si Si3 0.437732 0.099129 0.385196
Si Si4 0.658753 0.401260 0.715274
Si Si5 0.340195 0.745944 0.483738
Si Si6 0.158964 0.753348 0.790613
O O1 0.117881 0.158333 0.844027
O O2 0.977545 0.131685 0.750658
O O3 0.062752 0.000000 0.845106
O O4 0.000000 0.124090 0.000000
O O5 0.250000 0.597337 0.980932
O O6 0.128312 0.500000 0.947629
O O7 0.128616 0.670022 0.877572
O O8 0.131067 0.625088 0.134641
O O9 0.500000 0.103033 0.500000
O O10 0.367411 0.161526 0.422404
O O11 0.404445 0.000000 0.368936
O O12 0.750000 0.398951 0.710593
O O13 0.629506 0.500000 0.679720
O O14 0.624205 0.333932 0.605077
O O15 0.250000 0.745828 0.471814
O O16 0.365535 0.734081 0.637591
O O17 0.250000 0.768164 0.805073
#
# Coordination Sequence:
#
# PCOD8210643 Si02
#       6
#     8   8   8   8   8   8
#     4  10  22  39  56  76 103 140 180 212 257 320
#     4   8  15  29  49  73 103 139 174 209 256 311
#     4  10  20  37  56  73 102 142 176 207 254 317
#     4   8  15  29  49  74 105 139 172 208 255 309
#     4  10  20  32  52  83 109 134 174 220 261 301
#     4  10  20  33  53  82 109 134 171 220 265 302
#
# _framework density 18.287174
#
# number of rings (size 3 to 8) (size 9 to 14) (size 15 to 20)
#    0.000    2.667    1.667    1.000    2.333    1.333 
#    0.000    5.000    0.000    5.000    0.000    0.000 
#    0.000    0.000    0.000    0.000    0.000    0.000 
#
# Total GULP energy -595049.382009 kJ/mol
# GULP energy per Si atom -12396.862125 kJ/mol
# Density = 1.824555 g / cm^3
# Si number density = 18.287174 Si / 1000 Ang^3
#
#
#
# Elastic Constant Matrix: (Units=GPa)
#
#
# Indices 1 2 3 4 5 6 
#
# 1 21.7636 37.7393 37.1755 0.0000 0.0000 0.0000
# 2 37.7393 128.8189 74.9259 0.0000 0.0000 0.0000
# 3 37.1755 74.9259 143.2241 0.0000 0.0000 0.0000
# 4 0.0000 0.0000 0.0000 39.6016 0.0000 0.0000
# 5 0.0000 0.0000 0.0000 0.0000 19.8559 0.0000
# 6 0.0000 0.0000 0.0000 0.0000 0.0000 12.1445
#
#
#
# Elastic Compliance Matrix: (Units=1/GPa)
#
#
# Indices 1 2 3 4 5 6 
#
# 1 0.119316 -0.024352 -0.018231 0.000000 0.000000 0.000000
# 2 -0.024352 0.016128 -0.002116 0.000000 0.000000 0.000000
# 3 -0.018231 -0.002116 0.012821 0.000000 0.000000 0.000000
# 4 0.000000 0.000000 0.000000 0.025251 0.000000 0.000000
# 5 0.000000 0.000000 0.000000 0.000000 0.050363 0.000000
# 6 0.000000 0.000000 0.000000 0.000000 0.000000 0.082341
#
#
# Mechanical properties :
#
#
# Convention : Reuss Voigt Hill
#
# Bulk Modulus (GPa) = 16.98720 65.94309 41.46514
# Shear Modulus (GPa) = 12.04121 23.91815 17.97968
#
# Velocity S-wave (km/s) = 2.56881 3.62044 3.13898
# Velocity P-wave (km/s) = 4.25531 7.32221 5.98843
#
# Compressibility (1/GPa) = 0.05886787
#
# Stress axis : x y z
#
# Youngs Moduli (GPa) = 8.38111 62.00404 77.99597
#
# Poissons Ratio (x) = 1.50990 1.42191
# Poissons Ratio (y) = 0.20409 0.16507
# Poissons Ratio (z) = 0.15279 0.13122
#
# Static dielectric constant tensor:
#      x y z
#    x 2.855810 0.000000 0.000000 
#    y 0.000000 3.660740 0.000000 
#    z 0.000000 0.000000 3.741580 
# 
# 
# High freq. dielectric constant tensor:
#      x y z
#    x 1.664650 0.000000 0.000000 
#    y 0.000000 1.715370 0.000000 
#    z 0.000000 0.000000 1.724890 
# 
# From -- ./inp_files/9556.got.cif
#   From: 2010.03.12/outbox.cif.g09.slc.cpg/sg51_5_cif.got.tgz:9556.got - 2010.04.16 13:43:02.
