data_PCOD8210781
_publ_section_title
;
Structure prediction by ZEFSAII (Michael W. Deem and Ramdas Pophale) SiO2 
 PCOD8210781
Probable space group: P M M A
;
_chemical_formula_sum "Si O2"
_cell_formula_units_Z 40
_cell_length_a 9.490546
_cell_length_b 7.809080
_cell_length_c 29.247826
_cell_angle_alpha 90.000000
_cell_angle_beta 90.000000
_cell_angle_gamma 90.000000
_cell_volume 2167.627544
_symmetry_space_group_name_H-M "P M M A"
_symmetry_group_IT_number 51
_symmetry_cell_setting 'orthorhombic'
loop_
_space_group_symop_operation_xyz
x,y,z
1/2-x,-y,z
1/2+x,-y,-z
-x,y,-z
-x,-y,-z
1/2+x,y,-z
1/2-x,y,z
x,-y,z
loop_
_atom_site_type_symbol
_atom_site_label
_atom_site_fract_x
_atom_site_fract_y
_atom_site_fract_z
Si Si1 0.912798 0.194286 0.544831
Si Si2 0.916670 0.189290 0.233507
Si Si3 0.410054 0.699542 0.862095
Si Si4 0.407734 0.798372 0.958915
Si Si5 0.085698 0.500000 0.388250
Si Si6 0.581851 0.500000 0.295294
O O1 0.750000 0.214387 0.531571
O O2 0.954202 0.328479 0.584017
O O3 0.000000 0.241028 0.500000
O O4 0.946102 0.000000 0.561611
O O5 0.750000 0.214700 0.229377
O O6 0.981517 0.212129 0.182341
O O7 0.973753 0.331904 0.268411
O O8 0.956743 0.000000 0.251878
O O9 0.250000 0.765459 0.866193
O O10 0.418932 0.500000 0.853013
O O11 0.482058 0.750245 0.910355
O O12 0.250000 0.719157 0.961863
O O13 0.400658 0.000000 0.964228
O O14 0.500000 0.718403 0.000000
O O15 0.250000 0.500000 0.374783
O O16 0.989617 0.500000 0.344092
O O17 0.750000 0.500000 0.301369
#
# Coordination Sequence:
#
# PCOD8210781 Si02
#       6
#     8   8   8   8   4   4
#     4   9  18  33  53  77 104 135 172 209 243 283
#     4   9  16  28  47  70  96 122 152 199 252 290
#     4   9  15  25  43  66  90 115 148 191 235 282
#     4   9  17  28  42  62  88 117 148 182 224 277
#     4  10  21  35  51  72 104 141 169 198 244 296
#     4  10  20  33  49  74 100 123 161 208 247 286
#
# _framework density 18.453354000000001
#
# number of rings (size 3 to 8) (size 9 to 14) (size 15 to 20)
#    0.000    2.800    1.000    0.900    0.000    4.400 
#    0.000    0.000    0.000    1.200    0.000    0.000 
#    0.000    0.000    0.000    0.000    0.000    0.000 
#
# Total GULP energy -495772.115667 kJ/mol
# GULP energy per Si atom -12394.302892 kJ/mol
# Density = 1.841135 g / cm^3
# Si number density = 18.453354 Si / 1000 Ang^3
#
#
#
# Elastic Constant Matrix: (Units=GPa)
#
#
# Indices 1 2 3 4 5 6 
#
# 1 34.2104 27.1023 47.7119 0.0000 0.0000 0.0000
# 2 27.1023 113.8900 78.2777 0.0000 0.0000 0.0000
# 3 47.7119 78.2777 168.8585 0.0000 0.0000 0.0000
# 4 0.0000 0.0000 0.0000 27.7284 0.0000 0.0000
# 5 0.0000 0.0000 0.0000 0.0000 26.8769 0.0000
# 6 0.0000 0.0000 0.0000 0.0000 0.0000 10.2021
#
#
#
# Elastic Compliance Matrix: (Units=1/GPa)
#
#
# Indices 1 2 3 4 5 6 
#
# 1 0.048998 -0.003147 -0.012386 0.000000 0.000000 0.000000
# 2 -0.003147 0.013088 -0.005178 0.000000 0.000000 0.000000
# 3 -0.012386 -0.005178 0.011822 0.000000 0.000000 0.000000
# 4 0.000000 0.000000 0.000000 0.036064 0.000000 0.000000
# 5 0.000000 0.000000 0.000000 0.000000 0.037207 0.000000
# 6 0.000000 0.000000 0.000000 0.000000 0.000000 0.098019
#
#
# Mechanical properties :
#
#
# Convention : Reuss Voigt Hill
#
# Bulk Modulus (GPa) = 30.78202 69.23808 50.01005
# Shear Modulus (GPa) = 16.80960 23.88595 20.34778
#
# Velocity S-wave (km/s) = 3.02143 3.60168 3.32423
# Velocity P-wave (km/s) = 5.37487 7.40933 6.47253
#
# Compressibility (1/GPa) = 0.03248649
#
# Stress axis : x y z
#
# Youngs Moduli (GPa) = 20.40901 76.40424 84.58674
#
# Poissons Ratio (x) = 0.24046 1.04767
# Poissons Ratio (y) = 0.06423 0.43800
# Poissons Ratio (z) = 0.25278 0.39563
#
# Static dielectric constant tensor:
#      x y z
#    x 3.027430 0.000000 0.000000 
#    y 0.000000 3.506510 0.000000 
#    z 0.000000 0.000000 3.455560 
# 
# 
# High freq. dielectric constant tensor:
#      x y z
#    x 1.653570 0.000000 0.000000 
#    y 0.000000 1.728140 0.000000 
#    z 0.000000 0.000000 1.720330 
# 
# From -- ./inp_files/36025.got.cif
#   From: 2010.03.12/outbox.cif.g09.slc.cpg/sg51_19_cif.got.tgz:36025.got - 2010.04.16 13:43:02.
