data_PCOD8210401
_publ_section_title
;
Structure prediction by ZEFSAII (Michael W. Deem and Ramdas Pophale) SiO2 
 PCOD8210401
Probable space group: P M M A
;
_chemical_formula_sum "Si O2"
_cell_formula_units_Z 52
_cell_length_a 9.240071
_cell_length_b 10.239034
_cell_length_c 30.115723
_cell_angle_alpha 90.000000
_cell_angle_beta 90.000000
_cell_angle_gamma 90.000000
_cell_volume 2849.230518
_symmetry_space_group_name_H-M "P M M A"
_symmetry_group_IT_number 51
_symmetry_cell_setting 'orthorhombic'
loop_
_space_group_symop_operation_xyz
x,y,z
1/2-x,-y,z
1/2+x,-y,-z
-x,y,-z
-x,-y,-z
1/2+x,y,-z
1/2-x,y,z
x,-y,z
loop_
_atom_site_type_symbol
_atom_site_label
_atom_site_fract_x
_atom_site_fract_y
_atom_site_fract_z
Si Si1 0.420841 0.246011 0.609444
Si Si2 0.412680 0.655912 0.042401
Si Si3 0.919247 0.000000 0.452445
Si Si4 0.588604 0.345401 0.223402
Si Si5 0.092534 0.646274 0.461844
Si Si6 0.919981 0.653360 0.691011
Si Si7 0.586851 0.655129 0.125616
O O1 0.250000 0.267036 0.613972
O O2 0.500023 0.362730 0.583226
O O3 0.492654 0.250409 0.657970
O O4 0.461808 0.120769 0.579512
O O5 0.250000 0.709083 0.039308
O O6 0.415770 0.500000 0.042832
O O7 0.482864 0.713110 0.087613
O O8 0.500000 0.709464 0.000000
O O9 0.000000 0.000000 0.500000
O O10 0.750000 0.000000 0.463118
O O11 0.750000 0.292263 0.235123
O O12 0.596034 0.500000 0.221435
O O13 0.472400 0.301682 0.260207
O O14 0.539432 0.293771 0.174667
O O15 0.250000 0.715402 0.455723
O O16 0.121404 0.500000 0.478304
O O17 0.000000 0.722109 0.500000
O O18 0.750000 0.679641 0.686397
O O19 0.956135 0.500000 0.682467
O O20 0.750000 0.701164 0.115451
O O21 0.578482 0.500000 0.124445
#
# Coordination Sequence:
#
# PCOD8210401 Si02
#       7
#     8   8   4   8   8   8   8
#     4  11  22  36  53  71  92 117 146 177 211 251
#     4   9  15  20  26  37  55  82 119 164 212 256
#     4  10  24  42  58  76  94 116 146 180 213 248
#     4   8  14  25  40  57  78 106 137 168 208 258
#     4  10  20  33  49  71  97 120 143 171 204 244
#     4  10  20  32  47  70  97 120 144 177 216 258
#     4   8  13  21  32  45  63  89 123 163 206 252
#
# _framework density 18.250541999999999
#
# number of rings (size 3 to 8) (size 9 to 14) (size 15 to 20)
#    0.000    2.615    0.000    3.692    0.000    8.615 
#    0.000    3.077    0.000    0.000    0.000    0.000 
#    0.000    0.000    0.000    0.000    0.000    0.000 
#
# Total GULP energy -644248.895105 kJ/mol
# GULP energy per Si atom -12389.401829 kJ/mol
# Density = 1.820900 g / cm^3
# Si number density = 18.250542 Si / 1000 Ang^3
#
#
#
# Elastic Constant Matrix: (Units=GPa)
#
#
# Indices 1 2 3 4 5 6 
#
# 1 153.6394 21.2832 98.5709 0.0000 0.0000 0.0000
# 2 21.2832 23.8861 22.1526 0.0000 0.0000 0.0000
# 3 98.5709 22.1526 173.5100 0.0000 0.0000 0.0000
# 4 0.0000 0.0000 0.0000 7.7359 0.0000 0.0000
# 5 0.0000 0.0000 0.0000 0.0000 41.5830 0.0000
# 6 0.0000 0.0000 0.0000 0.0000 0.0000 9.1925
#
#
#
# Elastic Compliance Matrix: (Units=1/GPa)
#
#
# Indices 1 2 3 4 5 6 
#
# 1 0.010633 -0.004392 -0.005480 0.000000 0.000000 0.000000
# 2 -0.004392 0.049303 -0.003799 0.000000 0.000000 0.000000
# 3 -0.005480 -0.003799 0.009361 0.000000 0.000000 0.000000
# 4 0.000000 0.000000 0.000000 0.129267 0.000000 0.000000
# 5 0.000000 0.000000 0.000000 0.000000 0.024048 0.000000
# 6 0.000000 0.000000 0.000000 0.000000 0.000000 0.108785
#
#
# Mechanical properties :
#
#
# Convention : Reuss Voigt Hill
#
# Bulk Modulus (GPa) = 23.83547 70.56100 47.19824
# Shear Modulus (GPa) = 13.41474 25.63753 19.52614
#
# Velocity S-wave (km/s) = 2.71409 3.75207 3.27447
# Velocity P-wave (km/s) = 4.78646 7.58400 6.34142
#
# Compressibility (1/GPa) = 0.04195427
#
# Stress axis : x y z
#
# Youngs Moduli (GPa) = 94.04828 20.28290 106.82055
#
# Poissons Ratio (x) = 0.08908 0.58535
# Poissons Ratio (y) = 0.41307 0.40586
# Poissons Ratio (z) = 0.51536 0.07706
#
# Static dielectric constant tensor:
#      x y z
#    x 3.609600 0.000000 0.000000 
#    y 0.000000 2.717870 0.000000 
#    z 0.000000 0.000000 3.763480 
# 
# 
# High freq. dielectric constant tensor:
#      x y z
#    x 1.720020 0.000000 0.000000 
#    y 0.000000 1.621070 0.000000 
#    z 0.000000 0.000000 1.722040 
# 
# From -- ./inp_files/37341.got.cif
#   From: 2010.03.12/outbox.cif.g09.slc.cpg/sg51_19_cif.got.tgz:37341.got - 2010.04.16 13:43:02.
