data_PCOD8210617
_publ_section_title
;
Structure prediction by ZEFSAII (Michael W. Deem and Ramdas Pophale) SiO2 
 PCOD8210617
Probable space group: P M M A
;
_chemical_formula_sum "Si O2"
_cell_formula_units_Z 64
_cell_length_a 28.659631
_cell_length_b 9.014792
_cell_length_c 12.518089
_cell_angle_alpha 90.000000
_cell_angle_beta 90.000000
_cell_angle_gamma 90.000000
_cell_volume 3234.181138
_symmetry_space_group_name_H-M "P M M A"
_symmetry_group_IT_number 51
_symmetry_cell_setting 'orthorhombic'
loop_
_space_group_symop_operation_xyz
x,y,z
1/2-x,-y,z
1/2+x,-y,-z
-x,y,-z
-x,-y,-z
1/2+x,y,-z
1/2-x,y,z
x,-y,z
loop_
_atom_site_type_symbol
_atom_site_label
_atom_site_fract_x
_atom_site_fract_y
_atom_site_fract_z
Si Si1 0.046109 0.824638 0.745625
Si Si2 0.301300 0.830158 0.661573
Si Si3 0.648041 0.674676 0.765239
Si Si4 0.955184 0.675734 0.704061
Si Si5 0.328284 0.165158 0.436318
Si Si6 0.196941 0.323412 0.021614
Si Si7 0.364784 0.324939 0.822787
Si Si8 0.933691 0.832878 0.495772
O O1 0.085016 0.755080 0.824066
O O2 0.057662 0.778022 0.624271
O O3 0.995858 0.752836 0.774047
O O4 0.044675 0.000000 0.763252
O O5 0.250000 0.812537 0.713319
O O6 0.295759 0.790176 0.535896
O O7 0.336903 0.718049 0.716273
O O8 0.319757 0.000000 0.674030
O O9 0.649570 0.500000 0.766948
O O10 0.594374 0.728966 0.753810
O O11 0.678685 0.727308 0.664213
O O12 0.671706 0.739162 0.872112
O O13 0.960647 0.500000 0.708774
O O14 0.960312 0.729377 0.581052
O O15 0.379403 0.176682 0.484653
O O16 0.316972 0.000000 0.395330
O O17 0.250000 0.261353 0.013821
O O18 0.198360 0.500000 0.023194
O O19 0.165993 0.267399 0.922366
O O20 0.372839 0.500000 0.826369
O O21 0.952579 0.000000 0.512105
#
# Coordination Sequence:
#
# PCOD8210617 Si02
#       8
#     8   8   8   8   8   8   8   8
#     4  11  21  35  54  77 110 152 190 221 272 340
#     4  10  20  35  54  77 111 151 183 219 278 346
#     4   9  19  36  57  81 111 145 183 231 281 330
#     4  10  20  32  50  81 114 144 184 231 276 321
#     4   9  17  32  51  76 110 146 180 218 268 327
#     4   9  19  38  62  84 107 141 185 232 284 337
#     4  11  22  36  57  83 110 140 185 240 285 326
#     4   9  17  31  50  72 105 149 188 218 260 325
#
# _framework density 19.788625
#
# number of rings (size 3 to 8) (size 9 to 14) (size 15 to 20)
#    0.000    2.250    1.250    1.875    0.000    4.750 
#    0.000    1.875    0.000    5.250    0.000    0.000 
#    0.000    0.000    0.000    0.000    0.000    0.000 
#
# Total GULP energy -793470.634447 kJ/mol
# GULP energy per Si atom -12397.978663 kJ/mol
# Density = 1.974359 g / cm^3
# Si number density = 19.788625 Si / 1000 Ang^3
#
#
#
# Elastic Constant Matrix: (Units=GPa)
#
#
# Indices 1 2 3 4 5 6 
#
# 1 84.5982 28.7629 47.4023 0.0000 0.0000 0.0000
# 2 28.7629 53.3362 26.8227 0.0000 0.0000 0.0000
# 3 47.4023 26.8227 94.1885 0.0000 0.0000 0.0000
# 4 0.0000 0.0000 0.0000 8.2690 0.0000 0.0000
# 5 0.0000 0.0000 0.0000 0.0000 23.9415 0.0000
# 6 0.0000 0.0000 0.0000 0.0000 0.0000 20.2031
#
#
#
# Elastic Compliance Matrix: (Units=1/GPa)
#
#
# Indices 1 2 3 4 5 6 
#
# 1 0.017972 -0.006003 -0.007335 0.000000 0.000000 0.000000
# 2 -0.006003 0.023888 -0.003782 0.000000 0.000000 0.000000
# 3 -0.007335 -0.003782 0.015385 0.000000 0.000000 0.000000
# 4 0.000000 0.000000 0.000000 0.120934 0.000000 0.000000
# 5 0.000000 0.000000 0.000000 0.000000 0.041768 0.000000
# 6 0.000000 0.000000 0.000000 0.000000 0.000000 0.049497
#
#
# Mechanical properties :
#
#
# Convention : Reuss Voigt Hill
#
# Bulk Modulus (GPa) = 43.46731 48.67764 46.07248
# Shear Modulus (GPa) = 16.05899 19.09173 17.57536
#
# Velocity S-wave (km/s) = 2.85182 3.10947 2.98343
# Velocity P-wave (km/s) = 5.73213 6.12731 5.93301
#
# Compressibility (1/GPa) = 0.02300579
#
# Stress axis : x y z
#
# Youngs Moduli (GPa) = 55.64361 41.86205 64.99633
#
# Poissons Ratio (x) = 0.25129 0.47675
# Poissons Ratio (y) = 0.33402 0.24580
# Poissons Ratio (z) = 0.40815 0.15831
#
# Static dielectric constant tensor:
#      x y z
#    x 3.876380 0.000000 0.000000 
#    y 0.000000 3.383770 0.000000 
#    z 0.000000 0.000000 3.588660 
# 
# 
# High freq. dielectric constant tensor:
#      x y z
#    x 1.785960 0.000000 0.000000 
#    y 0.000000 1.750430 0.000000 
#    z 0.000000 0.000000 1.749680 
# 
# From -- ./inp_files/19460.got.cif
#   From: 2010.03.12/outbox.cif.g09.slc.cpg/sg51_10_cif.got.tgz:19460.got - 2010.04.16 13:43:02.
