data_PCOD8210690
_publ_section_title
;
Structure prediction by ZEFSAII (Michael W. Deem and Ramdas Pophale) SiO2 
 PCOD8210690
Probable space group: P M M A
;
_chemical_formula_sum "Si O2"
_cell_formula_units_Z 40
_cell_length_a 9.266435
_cell_length_b 13.690285
_cell_length_c 18.576084
_cell_angle_alpha 90.000000
_cell_angle_beta 90.000000
_cell_angle_gamma 90.000000
_cell_volume 2356.564544
_symmetry_space_group_name_H-M "P M M A"
_symmetry_group_IT_number 51
_symmetry_cell_setting 'orthorhombic'
loop_
_space_group_symop_operation_xyz
x,y,z
1/2-x,-y,z
1/2+x,-y,-z
-x,y,-z
-x,-y,-z
1/2+x,y,-z
1/2-x,y,z
x,-y,z
loop_
_atom_site_type_symbol
_atom_site_label
_atom_site_fract_x
_atom_site_fract_y
_atom_site_fract_z
Si Si1 0.580429 0.722207 0.070371
Si Si2 0.580598 0.112155 0.570850
Si Si3 0.082498 0.224180 0.288138
Si Si4 0.418463 0.389034 0.785290
Si Si5 0.416860 0.112676 0.144132
O O1 0.750000 0.730965 0.055669
O O2 0.544210 0.647758 0.134623
O O3 0.517243 0.828900 0.088743
O O4 0.500000 0.680782 0.000000
O O5 0.500000 0.150940 0.500000
O O6 0.750000 0.123548 0.558448
O O7 0.526916 0.176800 0.637833
O O8 0.539119 0.000000 0.586772
O O9 0.250000 0.249967 0.292619
O O10 0.050890 0.146473 0.225341
O O11 0.998992 0.324965 0.274536
O O12 0.250000 0.379484 0.770057
O O13 0.472237 0.500000 0.778317
O O14 0.250000 0.131301 0.124145
O O15 0.458821 0.000000 0.137666
#
# Coordination Sequence:
#
# PCOD8210690 Si02
#       5
#     8   8   8   8   8
#     4  10  20  33  48  67  92 120 151 189 232 278
#     4   9  17  29  46  71 103 134 160 187 222 266
#     4   9  17  30  49  72  96 122 155 194 231 270
#     4   9  19  35  52  70  92 118 150 191 239 284
#     4   9  17  30  48  68  91 122 157 190 227 272
#
# _framework density 16.973862
#
# number of rings (size 3 to 8) (size 9 to 14) (size 15 to 20)
#    0.000    2.800    0.000    1.200    0.000    5.600 
#    0.000    0.000    0.000    4.200    0.000    0.000 
#    0.000    0.000    0.000    0.000    0.000    0.000 
#
# Total GULP energy -496075.102147 kJ/mol
# GULP energy per Si atom -12401.877554 kJ/mol
# Density = 1.693523 g / cm^3
# Si number density = 16.973862 Si / 1000 Ang^3
#
#
#
# Elastic Constant Matrix: (Units=GPa)
#
#
# Indices 1 2 3 4 5 6 
#
# 1 55.9366 42.1684 47.1781 0.0000 0.0000 0.0000
# 2 42.1684 114.2521 52.0683 0.0000 0.0000 0.0000
# 3 47.1781 52.0683 115.7571 0.0000 0.0000 0.0000
# 4 0.0000 0.0000 0.0000 18.8104 0.0000 0.0000
# 5 0.0000 0.0000 0.0000 0.0000 31.2848 0.0000
# 6 0.0000 0.0000 0.0000 0.0000 0.0000 27.1339
#
#
#
# Elastic Compliance Matrix: (Units=1/GPa)
#
#
# Indices 1 2 3 4 5 6 
#
# 1 0.031370 -0.007234 -0.009531 0.000000 0.000000 0.000000
# 2 -0.007234 0.012678 -0.002754 0.000000 0.000000 0.000000
# 3 -0.009531 -0.002754 0.013762 0.000000 0.000000 0.000000
# 4 0.000000 0.000000 0.000000 0.053162 0.000000 0.000000
# 5 0.000000 0.000000 0.000000 0.000000 0.031964 0.000000
# 6 0.000000 0.000000 0.000000 0.000000 0.000000 0.036854
#
#
# Mechanical properties :
#
#
# Convention : Reuss Voigt Hill
#
# Bulk Modulus (GPa) = 53.27485 63.19726 58.23606
# Shear Modulus (GPa) = 22.21370 25.08123 23.64747
#
# Velocity S-wave (km/s) = 3.62152 3.84818 3.73657
# Velocity P-wave (km/s) = 6.99584 7.55364 7.28009
#
# Compressibility (1/GPa) = 0.01877058
#
# Stress axis : x y z
#
# Youngs Moduli (GPa) = 31.87779 78.87810 72.66359
#
# Poissons Ratio (x) = 0.57064 0.69256
# Poissons Ratio (y) = 0.23062 0.20012
# Poissons Ratio (z) = 0.30383 0.21724
#
# Static dielectric constant tensor:
#      x y z
#    x 3.133540 0.000000 0.000000 
#    y 0.000000 3.127230 0.000000 
#    z 0.000000 0.000000 3.202690 
# 
# 
# High freq. dielectric constant tensor:
#      x y z
#    x 1.652950 0.000000 0.000000 
#    y 0.000000 1.643530 0.000000 
#    z 0.000000 0.000000 1.649610 
# 
# From -- ./inp_files/27017.got.cif
#   From: 2010.03.12/outbox.cif.g09.slc.cpg/sg51_14_cif.got.tgz:27017.got - 2010.04.16 13:43:02.
