data_PCOD8210834
_publ_section_title
;
Structure prediction by ZEFSAII (Michael W. Deem and Ramdas Pophale) SiO2 
 PCOD8210834
Probable space group: P M M A
;
_chemical_formula_sum "Si O2"
_cell_formula_units_Z 48
_cell_length_a 9.242675
_cell_length_b 13.700204
_cell_length_c 20.534272
_cell_angle_alpha 90.000000
_cell_angle_beta 90.000000
_cell_angle_gamma 90.000000
_cell_volume 2600.183671
_symmetry_space_group_name_H-M "P M M A"
_symmetry_group_IT_number 51
_symmetry_cell_setting 'orthorhombic'
loop_
_space_group_symop_operation_xyz
x,y,z
1/2-x,-y,z
1/2+x,-y,-z
-x,y,-z
-x,-y,-z
1/2+x,y,-z
1/2-x,y,z
x,-y,z
loop_
_atom_site_type_symbol
_atom_site_label
_atom_site_fract_x
_atom_site_fract_y
_atom_site_fract_z
Si Si1 0.585866 0.883598 0.563224
Si Si2 0.418739 0.112165 0.065102
Si Si3 0.911367 0.112923 0.313967
Si Si4 0.095689 0.611212 0.945683
Si Si5 0.078512 0.797585 0.202250
Si Si6 0.578719 0.608089 0.199944
O O1 0.500000 0.845702 0.500000
O O2 0.750000 0.842592 0.562253
O O3 0.502082 0.840644 0.626234
O O4 0.590008 0.000000 0.564757
O O5 0.250000 0.122537 0.051579
O O6 0.464493 0.179438 0.127038
O O7 0.459605 0.000000 0.081503
O O8 0.500000 0.147870 0.000000
O O9 0.750000 0.160697 0.309057
O O10 0.001547 0.122709 0.247323
O O11 0.891549 0.000000 0.328639
O O12 0.250000 0.665644 0.944486
O O13 0.119236 0.500000 0.968186
O O14 0.025792 0.612082 0.874723
O O15 0.000000 0.666488 0.000000
O O16 0.250000 0.801883 0.211876
O O17 0.016212 0.694454 0.230729
O O18 0.750000 0.627627 0.206693
O O19 0.542084 0.500000 0.228690
#
# Coordination Sequence:
#
# PCOD8210834 Si02
#       6
#     8   8   8   8   8   8
#     4   9  16  27  45  70 102 138 171 201 234 276
#     4   9  19  35  52  69  91 121 158 201 249 299
#     4  10  20  33  50  73 101 134 170 204 240 286
#     4   8  14  25  41  59  78 102 133 172 222 279
#     4  11  22  34  50  72  97 125 160 205 254 302
#     4   9  19  35  50  64  87 119 154 195 243 295
#
# _framework density 18.460234
#
# number of rings (size 3 to 8) (size 9 to 14) (size 15 to 20)
#    0.000    2.667    0.000    3.000    0.000    6.667 
#    0.000    6.667    0.000    0.000    0.000    0.000 
#    0.000    0.667    0.000    2.500    0.000    3.833 
#
# Total GULP energy -594767.118504 kJ/mol
# GULP energy per Si atom -12390.981636 kJ/mol
# Density = 1.841822 g / cm^3
# Si number density = 18.460234 Si / 1000 Ang^3
#
#
#
# Elastic Constant Matrix: (Units=GPa)
#
#
# Indices 1 2 3 4 5 6 
#
# 1 113.2719 24.5237 52.8106 0.0000 0.0000 0.0000
# 2 24.5237 53.3743 7.5574 0.0000 0.0000 0.0000
# 3 52.8106 7.5574 96.4459 0.0000 0.0000 0.0000
# 4 0.0000 0.0000 0.0000 3.7395 0.0000 0.0000
# 5 0.0000 0.0000 0.0000 0.0000 33.1940 0.0000
# 6 0.0000 0.0000 0.0000 0.0000 0.0000 20.8231
#
#
#
# Elastic Compliance Matrix: (Units=1/GPa)
#
#
# Indices 1 2 3 4 5 6 
#
# 1 0.013075 -0.005050 -0.006764 0.000000 0.000000 0.000000
# 2 -0.005050 0.020896 0.001128 0.000000 0.000000 0.000000
# 3 -0.006764 0.001128 0.013984 0.000000 0.000000 0.000000
# 4 0.000000 0.000000 0.000000 0.267415 0.000000 0.000000
# 5 0.000000 0.000000 0.000000 0.000000 0.030126 0.000000
# 6 0.000000 0.000000 0.000000 0.000000 0.000000 0.048024
#
#
# Mechanical properties :
#
#
# Convention : Reuss Voigt Hill
#
# Bulk Modulus (GPa) = 37.61775 48.09729 42.85752
# Shear Modulus (GPa) = 11.79933 23.43133 17.61533
#
# Velocity S-wave (km/s) = 2.53094 3.56657 3.09241
# Velocity P-wave (km/s) = 5.38171 6.56290 6.00144
#
# Compressibility (1/GPa) = 0.02658320
#
# Stress axis : x y z
#
# Youngs Moduli (GPa) = 76.48115 47.85564 71.51143
#
# Poissons Ratio (x) = 0.24167 0.48369
# Poissons Ratio (y) = 0.38622 -0.08065
# Poissons Ratio (z) = 0.51730 -0.05397
#
# Static dielectric constant tensor:
#      x y z
#    x 3.599600 0.000000 0.000000 
#    y 0.000000 3.155470 0.000000 
#    z 0.000000 0.000000 3.223830 
# 
# 
# High freq. dielectric constant tensor:
#      x y z
#    x 1.725920 0.000000 0.000000 
#    y 0.000000 1.678070 0.000000 
#    z 0.000000 0.000000 1.689800 
# 
# From -- ./inp_files/27562.got.cif
#   From: 2010.03.12/outbox.cif.g09.slc.cpg/sg51_14_cif.got.tgz:27562.got - 2010.04.16 13:43:02.
