data_PCOD8210356
_publ_section_title
;
Structure prediction by ZEFSAII (Michael W. Deem and Ramdas Pophale) SiO2 
 PCOD8210356
Probable space group: P M M A
;
_chemical_formula_sum "Si O2"
_cell_formula_units_Z 56
_cell_length_a 9.189471
_cell_length_b 14.774664
_cell_length_c 20.439228
_cell_angle_alpha 90.000000
_cell_angle_beta 90.000000
_cell_angle_gamma 90.000000
_cell_volume 2775.061504
_symmetry_space_group_name_H-M "P M M A"
_symmetry_group_IT_number 51
_symmetry_cell_setting 'orthorhombic'
loop_
_space_group_symop_operation_xyz
x,y,z
1/2-x,-y,z
1/2+x,-y,-z
-x,y,-z
-x,-y,-z
1/2+x,y,-z
1/2-x,y,z
x,-y,z
loop_
_atom_site_type_symbol
_atom_site_label
_atom_site_fract_x
_atom_site_fract_y
_atom_site_fract_z
Si Si1 0.578314 0.896506 0.198048
Si Si2 0.087769 0.875644 0.060993
Si Si3 0.094545 0.668392 0.056732
Si Si4 0.080955 0.896623 0.437052
Si Si5 0.907676 0.600149 0.162015
Si Si6 0.577271 0.217431 0.689074
Si Si7 0.082811 0.600566 0.685427
O O1 0.750000 0.873348 0.192401
O O2 0.503654 0.888783 0.127290
O O3 0.504777 0.823747 0.247545
O O4 0.556572 0.000000 0.223550
O O5 0.250000 0.919296 0.068799
O O6 0.112333 0.772719 0.041499
O O7 0.000000 0.921000 0.000000
O O8 0.250000 0.619066 0.057210
O O9 0.026375 0.662662 0.128603
O O10 0.000000 0.620786 0.000000
O O11 0.250000 0.887063 0.451417
O O12 0.036183 0.845664 0.371475
O O13 0.000000 0.854340 0.500000
O O14 0.032434 0.000000 0.426942
O O15 0.750000 0.642956 0.146952
O O16 0.917688 0.500000 0.131594
O O17 0.935696 0.594900 0.237749
O O18 0.750000 0.220586 0.703249
O O19 0.522295 0.316969 0.665370
O O20 0.250000 0.621380 0.665391
O O21 0.038128 0.500000 0.657094
#
# Coordination Sequence:
#
# PCOD8210356 Si02
#       7
#     8   8   8   8   8   8   8
#     4  11  24  39  56  81 112 148 191 236 284 342
#     4  10  21  37  56  76 100 135 180 230 284 341
#     4  10  20  32  47  67  89 118 159 207 262 324
#     4   9  19  36  58  86 121 159 196 233 277 333
#     4   9  18  32  48  66  91 124 162 208 264 322
#     4  11  22  36  58  88 121 154 188 234 290 342
#     4   9  19  36  57  81 110 146 187 230 277 331
#
# _framework density 20.179732000000001
#
# number of rings (size 3 to 8) (size 9 to 14) (size 15 to 20)
#    0.000    2.143    0.000    3.857    0.000    8.571 
#    0.000    2.857    0.000    0.429    0.000    0.000 
#    0.000    0.000    0.000    0.000    0.000    0.000 
#
# Total GULP energy -693868.717945 kJ/mol
# GULP energy per Si atom -12390.512820 kJ/mol
# Density = 2.013380 g / cm^3
# Si number density = 20.179732 Si / 1000 Ang^3
#
#
#
# Elastic Constant Matrix: (Units=GPa)
#
#
# Indices 1 2 3 4 5 6 
#
# 1 129.6451 36.4305 57.5857 0.0000 0.0000 0.0000
# 2 36.4305 80.2681 32.0030 0.0000 0.0000 0.0000
# 3 57.5857 32.0030 95.8159 0.0000 0.0000 0.0000
# 4 0.0000 0.0000 0.0000 19.6095 0.0000 0.0000
# 5 0.0000 0.0000 0.0000 0.0000 32.3537 0.0000
# 6 0.0000 0.0000 0.0000 0.0000 0.0000 24.7030
#
#
#
# Elastic Compliance Matrix: (Units=1/GPa)
#
#
# Indices 1 2 3 4 5 6 
#
# 1 0.011015 -0.002722 -0.005711 0.000000 0.000000 0.000000
# 2 -0.002722 0.015045 -0.003389 0.000000 0.000000 0.000000
# 3 -0.005711 -0.003389 0.015001 0.000000 0.000000 0.000000
# 4 0.000000 0.000000 0.000000 0.050996 0.000000 0.000000
# 5 0.000000 0.000000 0.000000 0.000000 0.030908 0.000000
# 6 0.000000 0.000000 0.000000 0.000000 0.000000 0.040481
#
#
# Mechanical properties :
#
#
# Convention : Reuss Voigt Hill
#
# Bulk Modulus (GPa) = 57.41644 61.97416 59.69530
# Shear Modulus (GPa) = 25.92078 27.31390 26.61734
#
# Velocity S-wave (km/s) = 3.58787 3.68303 3.63576
# Velocity P-wave (km/s) = 6.75856 6.99028 6.87540
#
# Compressibility (1/GPa) = 0.01741661
#
# Stress axis : x y z
#
# Youngs Moduli (GPa) = 90.78572 66.46729 66.66316
#
# Poissons Ratio (x) = 0.18095 0.38070
# Poissons Ratio (y) = 0.24715 0.22592
# Poissons Ratio (z) = 0.51845 0.22525
#
# Static dielectric constant tensor:
#      x y z
#    x 4.002230 0.000000 0.000000 
#    y 0.000000 0.757700 0.000000 
#    z 0.000000 0.000000 3.429730 
# 
# 
# High freq. dielectric constant tensor:
#      x y z
#    x 1.796450 0.000000 0.000000 
#    y 0.000000 1.793040 0.000000 
#    z 0.000000 0.000000 1.760450 
# 
# From -- ./inp_files/32044.got.cif
#   From: 2010.03.12/outbox.cif.g09.slc.cpg/sg51_17_cif.got.tgz:32044.got - 2010.04.16 13:43:02.
