data_PCOD8210572
_publ_section_title
;
Structure prediction by ZEFSAII (Michael W. Deem and Ramdas Pophale) SiO2 
 PCOD8210572
Probable space group: P M M A
;
_chemical_formula_sum "Si O2"
_cell_formula_units_Z 56
_cell_length_a 13.905621
_cell_length_b 9.212728
_cell_length_c 22.900654
_cell_angle_alpha 90.000000
_cell_angle_beta 90.000000
_cell_angle_gamma 90.000000
_cell_volume 2933.773103
_symmetry_space_group_name_H-M "P M M A"
_symmetry_group_IT_number 51
_symmetry_cell_setting 'orthorhombic'
loop_
_space_group_symop_operation_xyz
x,y,z
1/2-x,-y,z
1/2+x,-y,-z
-x,y,-z
-x,-y,-z
1/2+x,y,-z
1/2-x,y,z
x,-y,z
loop_
_atom_site_type_symbol
_atom_site_label
_atom_site_fract_x
_atom_site_fract_y
_atom_site_fract_z
Si Si1 0.544944 0.167029 0.859793
Si Si2 0.142083 0.833200 0.922431
Si Si3 0.639672 0.830488 0.404823
Si Si4 0.140931 0.664104 0.478317
Si Si5 0.468718 0.330481 0.360619
Si Si6 0.138208 0.168377 0.260322
Si Si7 0.136178 0.336587 0.035307
O O1 0.429795 0.189996 0.867731
O O2 0.575854 0.217863 0.795555
O O3 0.601895 0.259322 0.906621
O O4 0.574269 0.000000 0.869135
O O5 0.250000 0.782991 0.904244
O O6 0.143195 0.000000 0.942430
O O7 0.099092 0.742745 0.976729
O O8 0.750000 0.798029 0.387757
O O9 0.616982 0.773096 0.469594
O O10 0.572510 0.748245 0.357833
O O11 0.616491 0.000000 0.403039
O O12 0.250000 0.682385 0.456666
O O13 0.122210 0.500000 0.500882
O O14 0.073332 0.701730 0.424422
O O15 0.481133 0.500000 0.347947
O O16 0.395809 0.264820 0.314021
O O17 0.250000 0.199397 0.247675
O O18 0.120629 0.000000 0.275251
O O19 0.250000 0.331711 0.034992
O O20 0.096473 0.500000 0.034503
#
# Coordination Sequence:
#
# PCOD8210572 Si02
#       7
#     8   8   8   8   8   8   8
#     4  10  20  35  55  77 103 139 181 221 262 309
#     4   9  18  33  53  77 105 137 173 213 259 314
#     4  10  21  36  55  81 111 142 178 221 268 318
#     4   9  18  33  53  79 111 144 177 216 266 322
#     4  11  22  36  56  80 108 144 183 222 266 318
#     4  10  22  39  57  78 106 139 176 221 269 316
#     4  10  20  32  49  77 110 140 171 213 266 319
#
# _framework density 19.088048000000001
#
# number of rings (size 3 to 8) (size 9 to 14) (size 15 to 20)
#    0.000    2.143    0.000    3.000    0.000    8.857 
#    0.000    2.143    0.000    2.571    0.000    0.000 
#    0.000    0.000    0.000    0.000    0.000    0.000 
#
# Total GULP energy -694502.631410 kJ/mol
# GULP energy per Si atom -12401.832704 kJ/mol
# Density = 1.904460 g / cm^3
# Si number density = 19.088048 Si / 1000 Ang^3
#
#
#
# Elastic Constant Matrix: (Units=GPa)
#
#
# Indices 1 2 3 4 5 6 
#
# 1 82.2242 47.3672 41.8140 0.0000 0.0000 0.0000
# 2 47.3672 92.1882 42.6594 0.0000 0.0000 0.0000
# 3 41.8140 42.6594 52.4601 0.0000 0.0000 0.0000
# 4 0.0000 0.0000 0.0000 -10.0892 0.0000 0.0000
# 5 0.0000 0.0000 0.0000 0.0000 34.1667 0.0000
# 6 0.0000 0.0000 0.0000 0.0000 0.0000 25.5677
#
#
#
# Elastic Compliance Matrix: (Units=1/GPa)
#
#
# Indices 1 2 3 4 5 6 
#
# 1 0.021839 -0.005076 -0.013279 0.000000 0.000000 0.000000
# 2 -0.005076 0.018572 -0.011056 0.000000 0.000000 0.000000
# 3 -0.013279 -0.011056 0.038637 0.000000 0.000000 0.000000
# 4 0.000000 0.000000 0.000000 -0.099116 0.000000 0.000000
# 5 0.000000 0.000000 0.000000 0.000000 0.029268 0.000000
# 6 0.000000 0.000000 0.000000 0.000000 0.000000 0.039112
#
#
# Mechanical properties :
#
#
# Convention : Reuss Voigt Hill
#
# Bulk Modulus (GPa) = 49.44426 54.50596 51.97511
# Shear Modulus (GPa) = 43.90715 16.26452 30.08584
#
# Velocity S-wave (km/s) = 4.80129 2.92221 3.97440
# Velocity P-wave (km/s) = 7.52967 6.32477 6.95337
#
# Compressibility (1/GPa) = 0.02022480
#
# Stress axis : x y z
#
# Youngs Moduli (GPa) = 45.78931 53.84541 25.88197
#
# Poissons Ratio (x) = 0.27334 0.34369
# Poissons Ratio (y) = 0.23244 0.28615
# Poissons Ratio (z) = 0.60805 0.59531
#
# Static dielectric constant tensor:
#      x y z
#    x 3.766590 0.000000 0.000000 
#    y 0.000000 3.567440 0.000000 
#    z 0.000000 0.000000 3.273300 
# 
# 
# High freq. dielectric constant tensor:
#      x y z
#    x 1.760490 0.000000 0.000000 
#    y 0.000000 1.743520 0.000000 
#    z 0.000000 0.000000 1.716510 
# 
# From -- ./inp_files/33288.got.cif
#   From: 2010.03.12/outbox.cif.g09.slc.cpg/sg51_17_cif.got.tgz:33288.got - 2010.04.16 13:43:02.
