data_PCOD8210931
_publ_section_title
;
Structure prediction by ZEFSAII (Michael W. Deem and Ramdas Pophale) SiO2 
 PCOD8210931
Probable space group: P M M A
;
_chemical_formula_sum "Si O2"
_cell_formula_units_Z 64
_cell_length_a 9.064129
_cell_length_b 27.651055
_cell_length_c 14.028356
_cell_angle_alpha 90.000000
_cell_angle_beta 90.000000
_cell_angle_gamma 90.000000
_cell_volume 3515.965155
_symmetry_space_group_name_H-M "P M M A"
_symmetry_group_IT_number 51
_symmetry_cell_setting 'orthorhombic'
loop_
_space_group_symop_operation_xyz
x,y,z
1/2-x,-y,z
1/2+x,-y,-z
-x,y,-z
-x,-y,-z
1/2+x,y,-z
1/2-x,y,z
x,-y,z
loop_
_atom_site_type_symbol
_atom_site_label
_atom_site_fract_x
_atom_site_fract_y
_atom_site_fract_z
Si Si1 0.417482 0.447808 0.403016
Si Si2 0.579905 0.123383 0.761450
Si Si3 0.577650 0.554431 0.096838
Si Si4 0.579429 0.732159 0.251951
Si Si5 0.074561 0.816333 0.603744
Si Si6 0.419491 0.057238 0.903132
Si Si7 0.421687 0.620874 0.732398
Si Si8 0.582780 0.787747 0.902163
O O1 0.500000 0.454322 0.500000
O O2 0.250000 0.433996 0.423438
O O3 0.429724 0.500000 0.348344
O O4 0.488677 0.403220 0.350735
O O5 0.750000 0.111041 0.736186
O O6 0.495344 0.139703 0.665143
O O7 0.499277 0.077342 0.808314
O O8 0.569919 0.164284 0.840656
O O9 0.750000 0.557424 0.078926
O O10 0.533049 0.500000 0.130263
O O11 0.524937 0.595055 0.170965
O O12 0.500000 0.568839 0.000000
O O13 0.750000 0.739035 0.226602
O O14 0.537725 0.765828 0.342443
O O15 0.539312 0.677108 0.273819
O O16 0.489025 0.744504 0.157345
O O17 0.250000 0.824334 0.593431
O O18 0.000000 0.814835 0.500000
O O19 0.250000 0.075382 0.907052
O O20 0.427791 0.000000 0.894827
O O21 0.500000 0.074972 0.000000
O O22 0.250000 0.611151 0.716467
O O23 0.750000 0.773588 0.924874
O O24 0.500000 0.796800 0.000000
#
# Coordination Sequence:
#
# PCOD8210931 Si02
#       8
#     8   8   8   8   8   8   8   8
#     4  10  21  36  54  76 100 127 160 198 242 295
#     4  10  20  34  54  80 107 139 182 226 268 314
#     4   9  18  32  50  71  96 128 165 205 247 293
#     4   9  20  36  52  74 103 133 167 209 257 310
#     4  10  20  36  57  78 103 135 173 219 268 318
#     4  10  20  33  51  79 116 155 190 224 266 315
#     4  10  20  35  54  76 102 131 164 204 253 304
#     4  10  20  33  51  74 102 137 175 216 259 305
#
# _framework density 18.202683
#
# number of rings (size 3 to 8) (size 9 to 14) (size 15 to 20)
#    0.000    2.250    0.000    2.625    0.000    7.000 
#    0.000    3.750    0.000    0.375    0.000    0.000 
#    0.000    0.000    0.000    0.000    0.000    0.000 
#
# Total GULP energy -793491.100158 kJ/mol
# GULP energy per Si atom -12398.298440 kJ/mol
# Density = 1.816125 g / cm^3
# Si number density = 18.202683 Si / 1000 Ang^3
#
#
#
# Elastic Constant Matrix: (Units=GPa)
#
#
# Indices 1 2 3 4 5 6 
#
# 1 72.6760 36.1578 40.9586 0.0000 0.0000 0.0000
# 2 36.1578 60.7364 32.9455 0.0000 0.0000 0.0000
# 3 40.9586 32.9455 100.0289 0.0000 0.0000 0.0000
# 4 0.0000 0.0000 0.0000 29.7401 0.0000 0.0000
# 5 0.0000 0.0000 0.0000 0.0000 38.3610 0.0000
# 6 0.0000 0.0000 0.0000 0.0000 0.0000 28.4025
#
#
#
# Elastic Compliance Matrix: (Units=1/GPa)
#
#
# Indices 1 2 3 4 5 6 
#
# 1 0.021928 -0.009964 -0.005697 0.000000 0.000000 0.000000
# 2 -0.009964 0.024573 -0.004014 0.000000 0.000000 0.000000
# 3 -0.005697 -0.004014 0.013652 0.000000 0.000000 0.000000
# 4 0.000000 0.000000 0.000000 0.033625 0.000000 0.000000
# 5 0.000000 0.000000 0.000000 0.000000 0.026068 0.000000
# 6 0.000000 0.000000 0.000000 0.000000 0.000000 0.035208
#
#
# Mechanical properties :
#
#
# Convention : Reuss Voigt Hill
#
# Bulk Modulus (GPa) = 48.06777 50.39614 49.23196
# Shear Modulus (GPa) = 24.83398 27.52602 26.18000
#
# Velocity S-wave (km/s) = 3.69765 3.89291 3.79654
# Velocity P-wave (km/s) = 6.68539 6.92478 6.80614
#
# Compressibility (1/GPa) = 0.02080396
#
# Stress axis : x y z
#
# Youngs Moduli (GPa) = 45.60463 40.69444 73.25061
#
# Poissons Ratio (x) = 0.40547 0.41731
# Poissons Ratio (y) = 0.45439 0.29400
# Poissons Ratio (z) = 0.25981 0.16333
#
# Static dielectric constant tensor:
#      x y z
#    x 3.524180 0.000000 0.000000 
#    y 0.000000 3.366150 0.000000 
#    z 0.000000 0.000000 3.301330 
# 
# 
# High freq. dielectric constant tensor:
#      x y z
#    x 1.717000 0.000000 0.000000 
#    y 0.000000 1.698490 0.000000 
#    z 0.000000 0.000000 1.698400 
# 
# From -- ./inp_files/14873.got.cif
#   From: 2010.03.12/outbox.cif.g09.slc.cpg/sg51_8_cif.got.tgz:14873.got - 2010.04.16 13:43:02.
