data_PCOD8210645
_publ_section_title
;
Structure prediction by ZEFSAII (Michael W. Deem and Ramdas Pophale) SiO2 
 PCOD8210645
Probable space group: P M M A
;
_chemical_formula_sum "Si O2"
_cell_formula_units_Z 64
_cell_length_a 8.867849
_cell_length_b 15.327232
_cell_length_c 25.100185
_cell_angle_alpha 90.000000
_cell_angle_beta 90.000000
_cell_angle_gamma 90.000000
_cell_volume 3411.606577
_symmetry_space_group_name_H-M "P M M A"
_symmetry_group_IT_number 51
_symmetry_cell_setting 'orthorhombic'
loop_
_space_group_symop_operation_xyz
x,y,z
1/2-x,-y,z
1/2+x,-y,-z
-x,y,-z
-x,-y,-z
1/2+x,y,-z
1/2-x,y,z
x,-y,z
loop_
_atom_site_type_symbol
_atom_site_label
_atom_site_fract_x
_atom_site_fract_y
_atom_site_fract_z
Si Si1 0.927844 0.737077 0.555973
Si Si2 0.426966 0.400609 0.943222
Si Si3 0.574486 0.315440 0.741654
Si Si4 0.419888 0.146827 0.716967
Si Si5 0.075972 0.096356 0.833989
Si Si6 0.429729 0.404186 0.360483
Si Si7 0.570445 0.274888 0.857079
Si Si8 0.921740 0.903795 0.399316
O O1 0.750000 0.729600 0.550820
O O2 0.994030 0.668028 0.598916
O O3 0.000000 0.712005 0.500000
O O4 0.968916 0.834990 0.572999
O O5 0.250000 0.383763 0.947377
O O6 0.461507 0.500000 0.924708
O O7 0.498492 0.332145 0.903002
O O8 0.500000 0.382237 0.000000
O O9 0.750000 0.327210 0.748949
O O10 0.540077 0.224138 0.713420
O O11 0.511784 0.388158 0.700445
O O12 0.505887 0.316084 0.801451
O O13 0.250000 0.185552 0.718368
O O14 0.449605 0.091570 0.770294
O O15 0.444809 0.089528 0.664406
O O16 0.250000 0.115001 0.847677
O O17 0.978515 0.173209 0.861270
O O18 0.028348 0.000000 0.855917
O O19 0.250000 0.398070 0.360508
O O20 0.485445 0.500000 0.378319
O O21 0.750000 0.279179 0.861214
O O22 0.750000 0.877178 0.412917
O O23 0.958980 0.000000 0.422133
#
# Coordination Sequence:
#
# PCOD8210645 Si02
#       8
#     8   8   8   8   8   8   8   8
#     4  11  23  39  58  76  99 131 170 218 268 319
#     4  10  21  38  60  84 112 147 189 236 281 327
#     4   9  17  31  51  77 109 143 178 212 257 314
#     4   9  16  28  49  75 105 138 174 215 261 311
#     4   9  17  30  49  75 110 152 192 227 268 318
#     4   9  18  34  56  79 103 134 171 212 262 319
#     4  10  20  32  52  83 117 151 187 227 272 324
#     4  10  20  34  54  79 105 134 169 210 261 319
#
# _framework density 18.75949
#
# number of rings (size 3 to 8) (size 9 to 14) (size 15 to 20)
#    0.000    2.375    1.250    1.500    0.000    4.250 
#    0.000    1.250    0.000    5.625    0.000    0.000 
#    0.000    0.000    0.000    0.000    0.000    0.000 
#
# Total GULP energy -793181.419992 kJ/mol
# GULP energy per Si atom -12393.459687 kJ/mol
# Density = 1.871679 g / cm^3
# Si number density = 18.759490 Si / 1000 Ang^3
#
#
#
# Elastic Constant Matrix: (Units=GPa)
#
#
# Indices 1 2 3 4 5 6 
#
# 1 53.3076 36.8880 40.7668 0.0000 0.0000 0.0000
# 2 36.8880 130.8338 70.4017 0.0000 0.0000 0.0000
# 3 40.7668 70.4017 101.4247 0.0000 0.0000 0.0000
# 4 0.0000 0.0000 0.0000 30.5307 0.0000 0.0000
# 5 0.0000 0.0000 0.0000 0.0000 24.0724 0.0000
# 6 0.0000 0.0000 0.0000 0.0000 0.0000 24.6986
#
#
#
# Elastic Compliance Matrix: (Units=1/GPa)
#
#
# Indices 1 2 3 4 5 6 
#
# 1 0.027761 -0.002910 -0.009139 0.000000 0.000000 0.000000
# 2 -0.002910 0.012505 -0.007511 0.000000 0.000000 0.000000
# 3 -0.009139 -0.007511 0.018746 0.000000 0.000000 0.000000
# 4 0.000000 0.000000 0.000000 0.032754 0.000000 0.000000
# 5 0.000000 0.000000 0.000000 0.000000 0.041541 0.000000
# 6 0.000000 0.000000 0.000000 0.000000 0.000000 0.040488
#
#
# Mechanical properties :
#
#
# Convention : Reuss Voigt Hill
#
# Bulk Modulus (GPa) = 50.26522 64.63102 57.44812
# Shear Modulus (GPa) = 22.77432 25.02764 23.90098
#
# Velocity S-wave (km/s) = 3.48805 3.65654 3.57329
# Velocity P-wave (km/s) = 6.56313 7.23563 6.90757
#
# Compressibility (1/GPa) = 0.01989447
#
# Stress axis : x y z
#
# Youngs Moduli (GPa) = 36.02135 79.96723 53.34432
#
# Poissons Ratio (x) = 0.23267 0.48750
# Poissons Ratio (y) = 0.10481 0.40065
# Poissons Ratio (z) = 0.32919 0.60061
#
# Static dielectric constant tensor:
#      x y z
#    x 3.316800 0.000000 0.000000 
#    y 0.000000 3.487290 0.000000 
#    z 0.000000 0.000000 3.452620 
# 
# 
# High freq. dielectric constant tensor:
#      x y z
#    x 1.712360 0.000000 0.000000 
#    y 0.000000 1.727310 0.000000 
#    z 0.000000 0.000000 1.717260 
# 
# From -- ./inp_files/34983.got.cif
#   From: 2010.03.12/outbox.cif.g09.slc.cpg/sg51_18_cif.got.tgz:34983.got - 2010.04.16 13:43:02.
