data_PCOD8211654
_publ_section_title
;
Structure prediction by ZEFSAII (Michael W. Deem and Ramdas Pophale) SiO2 
 PCOD8211654
Probable space group: P M M A
;
_chemical_formula_sum "Si O2"
_cell_formula_units_Z 48
_cell_length_a 8.957145
_cell_length_b 9.248322
_cell_length_c 30.902530
_cell_angle_alpha 90.000000
_cell_angle_beta 90.000000
_cell_angle_gamma 90.000000
_cell_volume 2559.921121
_symmetry_space_group_name_H-M "P M M A"
_symmetry_group_IT_number 51
_symmetry_cell_setting 'orthorhombic'
loop_
_space_group_symop_operation_xyz
x,y,z
1/2-x,-y,z
1/2+x,-y,-z
-x,y,-z
-x,-y,-z
1/2+x,y,-z
1/2-x,y,z
x,-y,z
loop_
_atom_site_type_symbol
_atom_site_label
_atom_site_fract_x
_atom_site_fract_y
_atom_site_fract_z
Si Si1 0.082082 0.172032 0.042303
Si Si2 0.920748 0.168255 0.627134
Si Si3 0.576436 0.330189 0.792518
Si Si4 0.923607 0.831356 0.284693
Si Si5 0.925867 0.833406 0.129552
Si Si6 0.075034 0.333803 0.456820
O O1 0.250000 0.233005 0.043491
O O2 0.996675 0.224781 0.085065
O O3 0.081934 0.000000 0.040134
O O4 0.000000 0.235785 0.000000
O O5 0.750000 0.213953 0.637241
O O6 0.984612 0.250187 0.585251
O O7 0.023516 0.211981 0.667453
O O8 0.931935 0.000000 0.616999
O O9 0.750000 0.293814 0.798465
O O10 0.546160 0.500000 0.791118
O O11 0.519695 0.261927 0.748194
O O12 0.485746 0.263285 0.831904
O O13 0.750000 0.793639 0.279423
O O14 0.954051 0.000000 0.275523
O O15 0.750000 0.815353 0.125989
O O16 0.970336 0.000000 0.138201
O O17 0.250000 0.311609 0.461848
O O18 0.029282 0.500000 0.450891
O O19 0.000000 0.269122 0.500000
#
# Coordination Sequence:
#
# PCOD8211654 Si02
#       6
#     8   8   8   8   8   8
#     4   9  16  27  46  74 107 140 175 217 262 307
#     4   9  18  33  52  74 101 133 167 205 252 304
#     4  11  24  39  55  77 105 138 176 216 259 310
#     4  10  21  37  57  81 107 135 170 213 261 313
#     4  10  20  34  54  80 108 139 176 217 262 312
#     4   9  18  32  49  70  98 132 169 208 250 298
#
# _framework density 18.750577
#
# number of rings (size 3 to 8) (size 9 to 14) (size 15 to 20)
#    0.000    2.333    0.000    2.500    0.000    9.000 
#    0.000    1.667    0.000    0.500    0.000    0.000 
#    0.000    0.000    0.000    0.000    0.000    0.000 
#
# Total GULP energy -595333.190548 kJ/mol
# GULP energy per Si atom -12402.774803 kJ/mol
# Density = 1.870790 g / cm^3
# Si number density = 18.750577 Si / 1000 Ang^3
#
#
#
# Elastic Constant Matrix: (Units=GPa)
#
#
# Indices 1 2 3 4 5 6 
#
# 1 81.4395 32.9016 46.9754 0.0000 0.0000 0.0000
# 2 32.9016 49.0715 49.2522 0.0000 0.0000 0.0000
# 3 46.9754 49.2522 144.6871 0.0000 0.0000 0.0000
# 4 0.0000 0.0000 0.0000 -13.2112 0.0000 0.0000
# 5 0.0000 0.0000 0.0000 0.0000 42.4859 0.0000
# 6 0.0000 0.0000 0.0000 0.0000 0.0000 20.2723
#
#
#
# Elastic Compliance Matrix: (Units=1/GPa)
#
#
# Indices 1 2 3 4 5 6 
#
# 1 0.017441 -0.009130 -0.002555 0.000000 0.000000 0.000000
# 2 -0.009130 0.035733 -0.009200 0.000000 0.000000 0.000000
# 3 -0.002555 -0.009200 0.010873 0.000000 0.000000 0.000000
# 4 0.000000 0.000000 0.000000 -0.075693 0.000000 0.000000
# 5 0.000000 0.000000 0.000000 0.000000 0.023537 0.000000
# 6 0.000000 0.000000 0.000000 0.000000 0.000000 0.049328
#
#
# Mechanical properties :
#
#
# Convention : Reuss Voigt Hill
#
# Bulk Modulus (GPa) = 44.88622 59.27294 52.07958
# Shear Modulus (GPa) = 45.28420 19.64733 32.46576
#
# Velocity S-wave (km/s) = 4.91968 3.24052 4.16559
# Velocity P-wave (km/s) = 7.50077 6.75879 7.13942
#
# Compressibility (1/GPa) = 0.02227855
#
# Stress axis : x y z
#
# Youngs Moduli (GPa) = 57.33574 27.98510 91.97506
#
# Poissons Ratio (x) = 0.25550 0.23497
# Poissons Ratio (y) = 0.52346 0.84614
# Poissons Ratio (z) = 0.14648 0.25745
#
# Static dielectric constant tensor:
#      x y z
#    x 3.582570 0.000000 0.000000 
#    y 0.000000 3.235620 0.000000 
#    z 0.000000 0.000000 3.657410 
# 
# 
# High freq. dielectric constant tensor:
#      x y z
#    x 1.735560 0.000000 0.000000 
#    y 0.000000 1.699320 0.000000 
#    z 0.000000 0.000000 1.744980 
# 
# From -- ./inp_files/36980.got.cif
#   From: 2010.03.12/outbox.cif.g09.slc.cpg/sg51_19_cif.got.tgz:36980.got - 2010.04.16 13:43:02.
