data_PCOD8211600
_publ_section_title
;
Structure prediction by ZEFSAII (Michael W. Deem and Ramdas Pophale) SiO2 
 PCOD8211600
Probable space group: P M M A
;
_chemical_formula_sum "Si O2"
_cell_formula_units_Z 64
_cell_length_a 15.261840
_cell_length_b 17.237457
_cell_length_c 12.556762
_cell_angle_alpha 90.000000
_cell_angle_beta 90.000000
_cell_angle_gamma 90.000000
_cell_volume 3303.374065
_symmetry_space_group_name_H-M "P M M A"
_symmetry_group_IT_number 51
_symmetry_cell_setting 'orthorhombic'
loop_
_space_group_symop_operation_xyz
x,y,z
1/2-x,-y,z
1/2+x,-y,-z
-x,y,-z
-x,-y,-z
1/2+x,y,-z
1/2-x,y,z
x,-y,z
loop_
_atom_site_type_symbol
_atom_site_label
_atom_site_fract_x
_atom_site_fract_y
_atom_site_fract_z
Si Si1 0.944978 0.768182 0.099531
Si Si2 0.403415 0.838225 0.223403
Si Si3 0.478121 0.083243 0.622068
Si Si4 0.347796 0.711411 0.365122
Si Si5 0.492075 0.411627 0.373781
Si Si6 0.649523 0.911761 0.993221
Si Si7 0.845183 0.791764 0.424178
Si Si8 0.347548 0.339020 0.746323
O O1 0.879955 0.701116 0.142752
O O2 0.010259 0.790418 0.192736
O O3 0.899440 0.849648 0.066761
O O4 0.000000 0.733775 0.000000
O O5 0.432680 0.896993 0.315705
O O6 0.337923 0.773432 0.269665
O O7 0.358807 0.886223 0.129450
O O8 0.500000 0.077608 0.500000
O O9 0.402178 0.145333 0.637308
O O10 0.443758 0.000000 0.663894
O O11 0.250000 0.678326 0.389572
O O12 0.413348 0.642590 0.331456
O O13 0.387892 0.756270 0.468259
O O14 0.500000 0.396094 0.500000
O O15 0.464116 0.500000 0.353481
O O16 0.580883 0.397783 0.304625
O O17 0.750000 0.910925 0.026896
O O18 0.611927 0.000000 0.007658
O O19 0.750000 0.827433 0.453587
O O20 0.832556 0.724762 0.341006
O O21 0.250000 0.377406 0.767102
#
# Coordination Sequence:
#
# PCOD8211600 Si02
#       8
#     8   8   8   8   8   8   8   8
#     4  10  21  35  60  86 108 149 201 251 299 350
#     4  11  20  35  58  79 109 150 199 238 294 359
#     4  11  21  32  49  74 108 150 195 243 289 339
#     4  11  21  36  60  87 117 156 200 240 284 348
#     4  11  23  38  61  94 128 158 190 233 289 356
#     4  10  22  39  55  80 116 149 194 258 315 353
#     4  10  20  34  54  78 108 150 197 241 286 343
#     4  11  21  38  62  89 121 157 199 243 295 360
#
# _framework density 19.374130999999998
#
# number of rings (size 3 to 8) (size 9 to 14) (size 15 to 20)
#    0.000    1.375    5.000    1.125    0.000    3.500 
#    0.000    1.250    0.000    0.375    0.000    0.000 
#    0.000    0.000    0.000    0.000    0.000    0.000 
#
# Total GULP energy -793129.781539 kJ/mol
# GULP energy per Si atom -12392.652837 kJ/mol
# Density = 1.933003 g / cm^3
# Si number density = 19.374131 Si / 1000 Ang^3
#
#
#
# Elastic Constant Matrix: (Units=GPa)
#
#
# Indices 1 2 3 4 5 6 
#
# 1 87.5957 31.1384 17.0556 0.0000 0.0000 0.0000
# 2 31.1384 86.2980 21.7162 0.0000 0.0000 0.0000
# 3 17.0556 21.7162 75.6556 0.0000 0.0000 0.0000
# 4 0.0000 0.0000 0.0000 29.9356 0.0000 0.0000
# 5 0.0000 0.0000 0.0000 0.0000 16.5945 0.0000
# 6 0.0000 0.0000 0.0000 0.0000 0.0000 25.9476
#
#
#
# Elastic Compliance Matrix: (Units=1/GPa)
#
#
# Indices 1 2 3 4 5 6 
#
# 1 0.013307 -0.004362 -0.001748 0.000000 0.000000 0.000000
# 2 -0.004362 0.013920 -0.003012 0.000000 0.000000 0.000000
# 3 -0.001748 -0.003012 0.014476 0.000000 0.000000 0.000000
# 4 0.000000 0.000000 0.000000 0.033405 0.000000 0.000000
# 5 0.000000 0.000000 0.000000 0.000000 0.060261 0.000000
# 6 0.000000 0.000000 0.000000 0.000000 0.000000 0.038539
#
#
# Mechanical properties :
#
#
# Convention : Reuss Voigt Hill
#
# Bulk Modulus (GPa) = 42.62674 43.26328 42.94501
# Shear Modulus (GPa) = 25.00360 26.47148 25.73754
#
# Velocity S-wave (km/s) = 3.59634 3.70040 3.64874
# Velocity P-wave (km/s) = 6.26854 6.37465 6.32182
#
# Compressibility (1/GPa) = 0.02345945
#
# Stress axis : x y z
#
# Youngs Moduli (GPa) = 75.14919 71.84156 69.07766
#
# Poissons Ratio (x) = 0.31334 0.12074
# Poissons Ratio (y) = 0.32777 0.20808
# Poissons Ratio (z) = 0.13135 0.21640
#
# Static dielectric constant tensor:
#      x y z
#    x 4.043780 0.000000 0.000000 
#    y 0.000000 3.509870 0.000000 
#    z 0.000000 0.000000 -0.984280 
# 
# 
# High freq. dielectric constant tensor:
#      x y z
#    x 1.758940 0.000000 0.000000 
#    y 0.000000 1.730480 0.000000 
#    z 0.000000 0.000000 1.749040 
# 
# From -- ./inp_files/16819.got.cif
#   From: 2010.03.12/outbox.cif.g09.slc.cpg/sg51_9_cif.got.tgz:16819.got - 2010.04.16 13:43:02.
