data_PCOD8211094
_publ_section_title
;
Structure prediction by ZEFSAII (Michael W. Deem and Ramdas Pophale) SiO2 
 PCOD8211094
Probable space group: P M M A
;
_chemical_formula_sum "Si O2"
_cell_formula_units_Z 32
_cell_length_a 21.195970
_cell_length_b 7.652012
_cell_length_c 10.772340
_cell_angle_alpha 90.000000
_cell_angle_beta 90.000000
_cell_angle_gamma 90.000000
_cell_volume 1747.185396
_symmetry_space_group_name_H-M "P M M A"
_symmetry_group_IT_number 51
_symmetry_cell_setting 'orthorhombic'
loop_
_space_group_symop_operation_xyz
x,y,z
1/2-x,-y,z
1/2+x,-y,-z
-x,y,-z
-x,-y,-z
1/2+x,y,-z
1/2-x,y,z
x,-y,z
loop_
_atom_site_type_symbol
_atom_site_label
_atom_site_fract_x
_atom_site_fract_y
_atom_site_fract_z
Si Si1 0.176908 0.698486 0.830225
Si Si2 0.901863 0.000000 0.059934
Si Si3 0.941949 0.806161 0.570213
Si Si4 0.319451 0.207015 0.552053
Si Si5 0.532382 0.000000 0.802759
O O1 0.250000 0.739696 0.852511
O O2 0.160023 0.500000 0.866226
O O3 0.159308 0.731770 0.687714
O O4 0.137685 0.825299 0.918390
O O5 0.961178 0.000000 0.151317
O O6 0.919904 0.000000 0.916256
O O7 0.873408 0.718980 0.542495
O O8 0.000000 0.706360 0.500000
O O9 0.938131 0.000000 0.507815
O O10 0.954718 0.825976 0.718315
O O11 0.250000 0.285828 0.518078
O O12 0.314062 0.000000 0.547447
#
# Coordination Sequence:
#
# PCOD8211094 Si02
#       5
#     8   4   8   8   4
#     4  10  20  33  52  78 103 130 169 212 251 296
#     4  11  19  34  53  72 101 139 172 206 248 294
#     4   8  14  26  46  74  98 126 161 203 253 298
#     4   9  15  26  48  74  97 124 161 205 254 300
#     4   9  19  30  49  78  99 133 176 206 246 304
#
# _framework density 18.315170999999999
#
# number of rings (size 3 to 8) (size 9 to 14) (size 15 to 20)
#    0.750    2.000    1.250    1.875    0.000    0.000 
#    0.000    5.000    0.000    8.250    0.000    3.500 
#    0.000    0.000    0.000    0.000    0.000    0.000 
#
# Total GULP energy -396428.129161 kJ/mol
# GULP energy per Si atom -12388.379036 kJ/mol
# Density = 1.827349 g / cm^3
# Si number density = 18.315171 Si / 1000 Ang^3
#
#
#
# Elastic Constant Matrix: (Units=GPa)
#
#
# Indices 1 2 3 4 5 6 
#
# 1 135.4331 29.7732 76.3681 0.0000 0.0000 0.0000
# 2 29.7732 46.1262 29.0401 0.0000 0.0000 0.0000
# 3 76.3681 29.0401 124.0024 0.0000 0.0000 0.0000
# 4 0.0000 0.0000 0.0000 1.8180 0.0000 0.0000
# 5 0.0000 0.0000 0.0000 0.0000 32.4030 0.0000
# 6 0.0000 0.0000 0.0000 0.0000 0.0000 4.1550
#
#
#
# Elastic Compliance Matrix: (Units=1/GPa)
#
#
# Indices 1 2 3 4 5 6 
#
# 1 0.011791 -0.003565 -0.006427 0.000000 0.000000 0.000000
# 2 -0.003565 0.026507 -0.004012 0.000000 0.000000 0.000000
# 3 -0.006427 -0.004012 0.012962 0.000000 0.000000 0.000000
# 4 0.000000 0.000000 0.000000 0.550041 0.000000 0.000000
# 5 0.000000 0.000000 0.000000 0.000000 0.030861 0.000000
# 6 0.000000 0.000000 0.000000 0.000000 0.000000 0.240675
#
#
# Mechanical properties :
#
#
# Convention : Reuss Voigt Hill
#
# Bulk Modulus (GPa) = 43.00666 63.99161 53.49914
# Shear Modulus (GPa) = 5.50300 19.03389 12.26844
#
# Velocity S-wave (km/s) = 1.73526 3.22722 2.59096
# Velocity P-wave (km/s) = 5.24855 6.99297 6.18259
#
# Compressibility (1/GPa) = 0.02325221
#
# Stress axis : x y z
#
# Youngs Moduli (GPa) = 84.80701 37.72649 77.14764
#
# Poissons Ratio (x) = 0.13448 0.49583
# Poissons Ratio (y) = 0.30231 0.30953
# Poissons Ratio (z) = 0.54506 0.15137
#
# Static dielectric constant tensor:
#      x y z
#    x 3.929210 0.000000 0.000000 
#    y 0.000000 3.061170 0.000000 
#    z 0.000000 0.000000 3.078530 
# 
# 
# High freq. dielectric constant tensor:
#      x y z
#    x 1.732300 0.000000 0.000000 
#    y 0.000000 1.670060 0.000000 
#    z 0.000000 0.000000 1.678150 
# 
# From -- ./inp_files/17003.got.cif
#   From: 2010.03.12/outbox.cif.g09.slc.cpg/sg51_9_cif.got.tgz:17003.got - 2010.04.16 13:43:02.
