data_PCOD8211339
_publ_section_title
;
Structure prediction by ZEFSAII (Michael W. Deem and Ramdas Pophale) SiO2 
 PCOD8211339
Probable space group: P M M A
;
_chemical_formula_sum "Si O2"
_cell_formula_units_Z 48
_cell_length_a 8.936448
_cell_length_b 13.702770
_cell_length_c 19.554989
_cell_angle_alpha 90.000000
_cell_angle_beta 90.000000
_cell_angle_gamma 90.000000
_cell_volume 2394.588413
_symmetry_space_group_name_H-M "P M M A"
_symmetry_group_IT_number 51
_symmetry_cell_setting 'orthorhombic'
loop_
_space_group_symop_operation_xyz
x,y,z
1/2-x,-y,z
1/2+x,-y,-z
-x,y,-z
-x,-y,-z
1/2+x,y,-z
1/2-x,y,z
x,-y,z
loop_
_atom_site_type_symbol
_atom_site_label
_atom_site_fract_x
_atom_site_fract_y
_atom_site_fract_z
Si Si1 0.427245 0.777291 0.192843
Si Si2 0.415044 0.384085 0.566404
Si Si3 0.083177 0.883673 0.433663
Si Si4 0.584723 0.113659 0.303798
Si Si5 0.571714 0.389281 0.281292
Si Si6 0.574056 0.111204 0.073239
O O1 0.250000 0.767929 0.185671
O O2 0.472547 0.866135 0.242138
O O3 0.494792 0.677863 0.223864
O O4 0.498318 0.806181 0.120287
O O5 0.500000 0.340030 0.500000
O O6 0.250000 0.339705 0.562011
O O7 0.409968 0.500000 0.560909
O O8 0.483190 0.358143 0.641847
O O9 0.250000 0.840619 0.430436
O O10 0.000000 0.844359 0.500000
O O11 0.986558 0.839935 0.371679
O O12 0.088925 0.000000 0.431753
O O13 0.750000 0.160196 0.290946
O O14 0.602730 0.000000 0.313826
O O15 0.750000 0.379590 0.276744
O O16 0.522213 0.500000 0.265545
O O17 0.750000 0.132492 0.068737
O O18 0.546376 0.000000 0.100198
O O19 0.500000 0.123913 0.000000
#
# Coordination Sequence:
#
# PCOD8211339 Si02
#       6
#     8   8   8   8   8   8
#     4  12  24  36  55  84 116 148 184 227 276 334
#     4   8  14  26  47  74 102 135 177 228 287 344
#     4   9  16  27  44  66  94 131 175 221 270 325
#     4  10  20  34  52  74 102 138 180 226 275 326
#     4   9  19  37  58  79 108 149 195 241 290 343
#     4  10  21  39  64  93 124 156 188 223 267 323
#
# _framework density 20.045200000000001
#
# number of rings (size 3 to 8) (size 9 to 14) (size 15 to 20)
#    0.000    2.333    0.000    4.500    0.000    7.000 
#    0.000    2.500    0.000    2.500    0.000    0.000 
#    0.000    0.000    0.000    0.000    0.000    0.000 
#
# Total GULP energy -594871.158494 kJ/mol
# GULP energy per Si atom -12393.149135 kJ/mol
# Density = 1.999958 g / cm^3
# Si number density = 20.045200 Si / 1000 Ang^3
#
#
#
# Elastic Constant Matrix: (Units=GPa)
#
#
# Indices 1 2 3 4 5 6 
#
# 1 135.1235 48.1951 66.4324 0.0000 0.0000 0.0000
# 2 48.1951 78.2550 48.6841 0.0000 0.0000 0.0000
# 3 66.4324 48.6841 132.6686 0.0000 0.0000 0.0000
# 4 0.0000 0.0000 0.0000 59.2158 0.0000 0.0000
# 5 0.0000 0.0000 0.0000 0.0000 38.1749 0.0000
# 6 0.0000 0.0000 0.0000 0.0000 0.0000 22.2878
#
#
#
# Elastic Compliance Matrix: (Units=1/GPa)
#
#
# Indices 1 2 3 4 5 6 
#
# 1 0.010815 -0.004265 -0.003850 0.000000 0.000000 0.000000
# 2 -0.004265 0.018241 -0.004558 0.000000 0.000000 0.000000
# 3 -0.003850 -0.004558 0.011138 0.000000 0.000000 0.000000
# 4 0.000000 0.000000 0.000000 0.016887 0.000000 0.000000
# 5 0.000000 0.000000 0.000000 0.000000 0.026195 0.000000
# 6 0.000000 0.000000 0.000000 0.000000 0.000000 0.044868
#
#
# Mechanical properties :
#
#
# Convention : Reuss Voigt Hill
#
# Bulk Modulus (GPa) = 67.35276 74.74116 71.04696
# Shear Modulus (GPa) = 31.55753 36.11804 33.83779
#
# Velocity S-wave (km/s) = 3.97207 4.24940 4.11308
# Velocity P-wave (km/s) = 7.39661 7.83861 7.62082
#
# Compressibility (1/GPa) = 0.01484720
#
# Stress axis : x y z
#
# Youngs Moduli (GPa) = 92.46503 54.82083 89.78127
#
# Poissons Ratio (x) = 0.23383 0.34568
# Poissons Ratio (y) = 0.39439 0.40923
# Poissons Ratio (z) = 0.35602 0.24988
#
# Static dielectric constant tensor:
#      x y z
#    x 4.522630 0.000000 0.000000 
#    y 0.000000 3.466160 0.000000 
#    z 0.000000 0.000000 3.702530 
# 
# 
# High freq. dielectric constant tensor:
#      x y z
#    x 1.785590 0.000000 0.000000 
#    y 0.000000 1.773840 0.000000 
#    z 0.000000 0.000000 1.771260 
# 
# From -- ./inp_files/27586.got.cif
#   From: 2010.03.12/outbox.cif.g09.slc.cpg/sg51_14_cif.got.tgz:27586.got - 2010.04.16 13:43:02.
