data_PCOD8211061
_publ_section_title
;
Structure prediction by ZEFSAII (Michael W. Deem and Ramdas Pophale) SiO2 
 PCOD8211061
Probable space group: P M M A
;
_chemical_formula_sum "Si O2"
_cell_formula_units_Z 40
_cell_length_a 8.831881
_cell_length_b 18.662104
_cell_length_c 13.721676
_cell_angle_alpha 90.000000
_cell_angle_beta 90.000000
_cell_angle_gamma 90.000000
_cell_volume 2261.626970
_symmetry_space_group_name_H-M "P M M A"
_symmetry_group_IT_number 51
_symmetry_cell_setting 'orthorhombic'
loop_
_space_group_symop_operation_xyz
x,y,z
1/2-x,-y,z
1/2+x,-y,-z
-x,y,-z
-x,-y,-z
1/2+x,y,-z
1/2-x,y,z
x,-y,z
loop_
_atom_site_type_symbol
_atom_site_label
_atom_site_fract_x
_atom_site_fract_y
_atom_site_fract_z
Si Si1 0.929436 0.159959 0.397863
Si Si2 0.926979 0.582410 0.397277
Si Si3 0.428749 0.707825 0.293725
Si Si4 0.073734 0.081332 0.225569
Si Si5 0.074580 0.787442 0.101036
O O1 0.750000 0.164856 0.405716
O O2 0.000000 0.136109 0.500000
O O3 0.995258 0.237046 0.368413
O O4 0.975975 0.099142 0.320628
O O5 0.750000 0.598885 0.402861
O O6 0.960045 0.500000 0.371439
O O7 0.000000 0.603712 0.500000
O O8 0.004238 0.629149 0.312633
O O9 0.250000 0.709067 0.311220
O O10 0.470265 0.729354 0.183089
O O11 0.250000 0.095061 0.250985
O O12 0.023340 0.133462 0.137339
O O13 0.042934 0.000000 0.192814
O O14 0.250000 0.786612 0.080527
O O15 0.000000 0.765888 0.000000
#
# Coordination Sequence:
#
# PCOD8211061 Si02
#       5
#     8   8   8   8   8
#     4  11  21  33  50  72  99 132 170 208 248 296
#     4  10  20  33  51  78 110 141 171 203 242 289
#     4  10  20  35  53  74 102 134 169 208 250 294
#     4   9  19  36  53  71  99 131 164 205 252 301
#     4   9  19  34  53  76  99 127 163 206 255 302
#
# _framework density 17.686381999999998
#
# number of rings (size 3 to 8) (size 9 to 14) (size 15 to 20)
#    0.000    2.200    0.000    4.800    0.000    6.400 
#    0.000    0.000    0.000    0.600    0.000    0.000 
#    0.000    0.000    0.000    0.000    0.000    0.000 
#
# Total GULP energy -496077.877437 kJ/mol
# GULP energy per Si atom -12401.946936 kJ/mol
# Density = 1.764613 g / cm^3
# Si number density = 17.686382 Si / 1000 Ang^3
#
#
#
# Elastic Constant Matrix: (Units=GPa)
#
#
# Indices 1 2 3 4 5 6 
#
# 1 99.5532 48.3720 53.8779 0.0000 0.0000 0.0000
# 2 48.3720 108.4584 54.9077 0.0000 0.0000 0.0000
# 3 53.8779 54.9077 121.5707 0.0000 0.0000 0.0000
# 4 0.0000 0.0000 0.0000 18.6347 0.0000 0.0000
# 5 0.0000 0.0000 0.0000 0.0000 32.7439 0.0000
# 6 0.0000 0.0000 0.0000 0.0000 0.0000 29.9328
#
#
#
# Elastic Compliance Matrix: (Units=1/GPa)
#
#
# Indices 1 2 3 4 5 6 
#
# 1 0.014542 -0.004178 -0.004557 0.000000 0.000000 0.000000
# 2 -0.004178 0.013154 -0.004089 0.000000 0.000000 0.000000
# 3 -0.004557 -0.004089 0.012092 0.000000 0.000000 0.000000
# 4 0.000000 0.000000 0.000000 0.053663 0.000000 0.000000
# 5 0.000000 0.000000 0.000000 0.000000 0.030540 0.000000
# 6 0.000000 0.000000 0.000000 0.000000 0.000000 0.033408
#
#
# Mechanical properties :
#
#
# Convention : Reuss Voigt Hill
#
# Bulk Modulus (GPa) = 70.73194 71.54416 71.13805
# Shear Modulus (GPa) = 26.62950 27.75725 27.19337
#
# Velocity S-wave (km/s) = 3.88448 3.96588 3.92539
# Velocity P-wave (km/s) = 7.75874 7.84285 7.80091
#
# Compressibility (1/GPa) = 0.01413789
#
# Stress axis : x y z
#
# Youngs Moduli (GPa) = 68.76860 76.02374 82.69699
#
# Poissons Ratio (x) = 0.31765 0.37689
# Poissons Ratio (y) = 0.28733 0.33817
# Poissons Ratio (z) = 0.31341 0.31088
#
# Static dielectric constant tensor:
#      x y z
#    x 3.339040 0.000000 0.000000 
#    y 0.000000 3.287790 0.000000 
#    z 0.000000 0.000000 3.129810 
# 
# 
# High freq. dielectric constant tensor:
#      x y z
#    x 1.693140 0.000000 0.000000 
#    y 0.000000 1.678550 0.000000 
#    z 0.000000 0.000000 1.671330 
# 
# From -- ./inp_files/14000.got.cif
#   From: 2010.03.12/outbox.cif.g09.slc.cpg/sg51_7_cif.got.tgz:14000.got - 2010.04.16 13:43:02.
