data_PCOD8211526
_publ_section_title
;
Structure prediction by ZEFSAII (Michael W. Deem and Ramdas Pophale) SiO2 
 PCOD8211526
Probable space group: P M M A
;
_chemical_formula_sum "Si O2"
_cell_formula_units_Z 48
_cell_length_a 8.926310
_cell_length_b 31.297924
_cell_length_c 9.202815
_cell_angle_alpha 90.000000
_cell_angle_beta 90.000000
_cell_angle_gamma 90.000000
_cell_volume 2571.036183
_symmetry_space_group_name_H-M "P M M A"
_symmetry_group_IT_number 51
_symmetry_cell_setting 'orthorhombic'
loop_
_space_group_symop_operation_xyz
x,y,z
1/2-x,-y,z
1/2+x,-y,-z
-x,y,-z
-x,-y,-z
1/2+x,y,-z
1/2-x,y,z
x,-y,z
loop_
_atom_site_type_symbol
_atom_site_label
_atom_site_fract_x
_atom_site_fract_y
_atom_site_fract_z
Si Si1 0.425342 0.500000 0.155762
Si Si2 0.927483 0.000000 0.655016
Si Si3 0.922471 0.251858 0.154769
Si Si4 0.427872 0.581235 0.344001
Si Si5 0.075086 0.346777 0.842625
Si Si6 0.924930 0.172052 0.842994
Si Si7 0.575199 0.078342 0.845288
O O1 0.250000 0.500000 0.130144
O O2 0.476334 0.541622 0.243999
O O3 0.500000 0.500000 0.000000
O O4 0.986216 0.042189 0.737596
O O5 0.000000 0.000000 0.500000
O O6 0.750000 0.000000 0.639463
O O7 0.750000 0.240225 0.136110
O O8 0.943387 0.298837 0.223991
O O9 0.000795 0.212434 0.244309
O O10 0.000000 0.254543 0.000000
O O11 0.500000 0.573784 0.500000
O O12 0.250000 0.585202 0.359934
O O13 0.493383 0.623833 0.273513
O O14 0.250000 0.358815 0.858060
O O15 0.000000 0.352236 0.000000
O O16 0.750000 0.180694 0.856341
O O17 0.957534 0.125264 0.773843
O O18 0.000000 0.171405 0.000000
O O19 0.750000 0.072304 0.872597
O O20 0.500000 0.072460 0.000000
#
# Coordination Sequence:
#
# PCOD8211526 Si02
#       7
#     4   4   8   8   8   8   8
#     4  10  23  40  60  86 112 140 175 216 261 310
#     4  10  21  36  50  68  96 128 163 202 246 298
#     4   9  16  26  43  69 101 133 166 206 251 298
#     4  11  23  39  58  81 110 144 180 218 263 311
#     4  10  20  34  53  79 109 141 179 220 260 305
#     4   9  15  24  41  67  97 126 158 200 250 298
#     4   9  18  31  49  73  99 126 161 205 249 297
#
# _framework density 18.669515000000001
#
# number of rings (size 3 to 8) (size 9 to 14) (size 15 to 20)
#    0.000    2.333    0.000    4.000    0.000    6.000 
#    0.000    0.000    0.000    1.000    0.000    4.667 
#    0.000    0.000    0.000    0.000    0.000    0.000 
#
# Total GULP energy -594821.019239 kJ/mol
# GULP energy per Si atom -12392.104567 kJ/mol
# Density = 1.862702 g / cm^3
# Si number density = 18.669515 Si / 1000 Ang^3
#
#
#
# Elastic Constant Matrix: (Units=GPa)
#
#
# Indices 1 2 3 4 5 6 
#
# 1 99.8675 70.4953 42.8162 0.0000 0.0000 0.0000
# 2 70.4953 182.9201 67.6746 0.0000 0.0000 0.0000
# 3 42.8162 67.6746 96.5377 0.0000 0.0000 0.0000
# 4 0.0000 0.0000 0.0000 1.4799 0.0000 0.0000
# 5 0.0000 0.0000 0.0000 0.0000 27.2751 0.0000
# 6 0.0000 0.0000 0.0000 0.0000 0.0000 28.2691
#
#
#
# Elastic Compliance Matrix: (Units=1/GPa)
#
#
# Indices 1 2 3 4 5 6 
#
# 1 0.014539 -0.004344 -0.003403 0.000000 0.000000 0.000000
# 2 -0.004344 0.008679 -0.004158 0.000000 0.000000 0.000000
# 3 -0.003403 -0.004158 0.014782 0.000000 0.000000 0.000000
# 4 0.000000 0.000000 0.000000 0.675741 0.000000 0.000000
# 5 0.000000 0.000000 0.000000 0.000000 0.036663 0.000000
# 6 0.000000 0.000000 0.000000 0.000000 0.000000 0.035374
#
#
# Mechanical properties :
#
#
# Convention : Reuss Voigt Hill
#
# Bulk Modulus (GPa) = 70.46632 82.36639 76.41636
# Shear Modulus (GPa) = 6.14010 24.62743 15.38376
#
# Velocity S-wave (km/s) = 1.81548 3.63592 2.87366
# Velocity P-wave (km/s) = 6.49774 7.86387 7.21322
#
# Compressibility (1/GPa) = 0.01419118
#
# Stress axis : x y z
#
# Youngs Moduli (GPa) = 68.78241 115.21805 67.64787
#
# Poissons Ratio (x) = 0.50051 0.23020
# Poissons Ratio (y) = 0.29879 0.28125
# Poissons Ratio (z) = 0.23406 0.47903
#
# Static dielectric constant tensor:
#      x y z
#    x 3.554210 0.000000 0.000000 
#    y 0.000000 4.752320 0.000000 
#    z 0.000000 0.000000 2.682080 
# 
# 
# High freq. dielectric constant tensor:
#      x y z
#    x 1.736020 0.000000 0.000000 
#    y 0.000000 1.759010 0.000000 
#    z 0.000000 0.000000 1.669880 
# 
# From -- ./inp_files/6213.got.cif
#   From: 2010.03.12/outbox.cif.g09.slc.cpg/sg51_4_cif.got.tgz:6213.got - 2010.04.16 13:43:02.
