data_PCOD8211356
_publ_section_title
;
Structure prediction by ZEFSAII (Michael W. Deem and Ramdas Pophale) SiO2 
 PCOD8211356
Probable space group: P M M A
;
_chemical_formula_sum "Si O2"
_cell_formula_units_Z 64
_cell_length_a 9.151393
_cell_length_b 19.218699
_cell_length_c 20.443064
_cell_angle_alpha 90.000000
_cell_angle_beta 90.000000
_cell_angle_gamma 90.000000
_cell_volume 3595.482501
_symmetry_space_group_name_H-M "P M M A"
_symmetry_group_IT_number 51
_symmetry_cell_setting 'orthorhombic'
loop_
_space_group_symop_operation_xyz
x,y,z
1/2-x,-y,z
1/2+x,-y,-z
-x,y,-z
-x,-y,-z
1/2+x,y,-z
1/2-x,y,z
x,-y,z
loop_
_atom_site_type_symbol
_atom_site_label
_atom_site_fract_x
_atom_site_fract_y
_atom_site_fract_z
Si Si1 0.919286 0.171568 0.314375
Si Si2 0.420050 0.418573 0.933426
Si Si3 0.578979 0.920273 0.934656
Si Si4 0.921020 0.920026 0.434400
Si Si5 0.579962 0.332203 0.311641
Si Si6 0.079995 0.173618 0.183748
Si Si7 0.921569 0.665420 0.820423
Si Si8 0.579397 0.420036 0.435412
O O1 0.750000 0.155860 0.303284
O O2 0.980446 0.126536 0.374707
O O3 0.949056 0.252178 0.329507
O O4 0.000520 0.147938 0.248938
O O5 0.250000 0.398339 0.938759
O O6 0.440701 0.500000 0.919892
O O7 0.494280 0.377898 0.874618
O O8 0.500000 0.396160 0.000000
O O9 0.750000 0.909789 0.945488
O O10 0.520445 0.873034 0.875587
O O11 0.539127 0.000000 0.918718
O O12 0.500000 0.894455 0.000000
O O13 0.750000 0.908608 0.444970
O O14 0.000000 0.894541 0.500000
O O15 0.959288 0.000000 0.418791
O O16 0.750000 0.345989 0.295570
O O17 0.484269 0.356444 0.250049
O O18 0.525096 0.376803 0.373078
O O19 0.250000 0.161230 0.195353
O O20 0.045474 0.253548 0.167038
O O21 0.750000 0.648438 0.823148
O O22 0.500000 0.391353 0.500000
O O23 0.750000 0.409525 0.446716
O O24 0.537692 0.500000 0.422626
#
# Coordination Sequence:
#
# PCOD8211356 Si02
#       8
#     8   8   8   8   8   8   8   8
#     4   9  18  32  49  69  94 125 160 198 239 285
#     4  10  21  37  56  77 102 132 166 204 245 291
#     4   9  18  33  51  71  97 128 162 200 240 284
#     4   9  18  32  48  68  95 125 159 200 245 294
#     4   9  18  33  50  69  96 129 163 198 240 290
#     4   9  19  34  50  72 101 130 162 201 244 290
#     4  10  20  34  52  75 103 132 164 204 247 292
#     4   9  18  32  49  69  94 123 155 193 236 282
#
# _framework density 17.800114000000001
#
# number of rings (size 3 to 8) (size 9 to 14) (size 15 to 20)
#    0.000    2.750    0.000    0.750    0.000    4.750 
#    0.000    2.500    0.000    0.000    0.000    0.000 
#    0.000    0.000    0.000    0.000    0.000    0.000 
#
# Total GULP energy -793774.846158 kJ/mol
# GULP energy per Si atom -12402.731971 kJ/mol
# Density = 1.775960 g / cm^3
# Si number density = 17.800114 Si / 1000 Ang^3
#
#
#
# Elastic Constant Matrix: (Units=GPa)
#
#
# Indices 1 2 3 4 5 6 
#
# 1 70.7669 43.1109 76.4553 0.0000 0.0000 0.0000
# 2 43.1109 72.4327 91.0154 0.0000 0.0000 0.0000
# 3 76.4553 91.0154 195.9034 0.0000 0.0000 0.0000
# 4 0.0000 0.0000 0.0000 41.9441 0.0000 0.0000
# 5 0.0000 0.0000 0.0000 0.0000 39.5606 0.0000
# 6 0.0000 0.0000 0.0000 0.0000 0.0000 14.4475
#
#
#
# Elastic Compliance Matrix: (Units=1/GPa)
#
#
# Indices 1 2 3 4 5 6 
#
# 1 0.025629 -0.006453 -0.007005 0.000000 0.000000 0.000000
# 2 -0.006453 0.034795 -0.013647 0.000000 0.000000 0.000000
# 3 -0.007005 -0.013647 0.014179 0.000000 0.000000 0.000000
# 4 0.000000 0.000000 0.000000 0.023841 0.000000 0.000000
# 5 0.000000 0.000000 0.000000 0.000000 0.025278 0.000000
# 6 0.000000 0.000000 0.000000 0.000000 0.000000 0.069216
#
#
# Mechanical properties :
#
#
# Convention : Reuss Voigt Hill
#
# Bulk Modulus (GPa) = 49.03387 84.47401 66.75394
# Shear Modulus (GPa) = 19.68935 27.75855 23.72395
#
# Velocity S-wave (km/s) = 3.32947 3.95328 3.65471
# Velocity P-wave (km/s) = 6.51055 8.27031 7.44262
#
# Compressibility (1/GPa) = 0.02039407
#
# Stress axis : x y z
#
# Youngs Moduli (GPa) = 39.01768 28.73996 70.52907
#
# Poissons Ratio (x) = 0.18545 0.49402
# Poissons Ratio (y) = 0.25177 0.96252
# Poissons Ratio (z) = 0.27330 0.39222
#
# Static dielectric constant tensor:
#      x y z
#    x 3.177380 0.000000 0.000000 
#    y 0.000000 3.309310 0.000000 
#    z 0.000000 0.000000 3.436290 
# 
# 
# High freq. dielectric constant tensor:
#      x y z
#    x 1.686400 0.000000 0.000000 
#    y 0.000000 1.683960 0.000000 
#    z 0.000000 0.000000 1.696960 
# 
# From -- ./inp_files/22388.got.cif
#   From: 2010.03.12/outbox.cif.g09.slc.cpg/sg51_12_cif.got.tgz:22388.got - 2010.04.16 13:43:02.
