data_PCOD8211043
_publ_section_title
;
Structure prediction by ZEFSAII (Michael W. Deem and Ramdas Pophale) SiO2 
 PCOD8211043
Probable space group: P M M A
;
_chemical_formula_sum "Si O2"
_cell_formula_units_Z 64
_cell_length_a 19.563033
_cell_length_b 8.809553
_cell_length_c 19.308888
_cell_angle_alpha 90.000000
_cell_angle_beta 90.000000
_cell_angle_gamma 90.000000
_cell_volume 3327.724190
_symmetry_space_group_name_H-M "P M M A"
_symmetry_group_IT_number 51
_symmetry_cell_setting 'orthorhombic'
loop_
_space_group_symop_operation_xyz
x,y,z
1/2-x,-y,z
1/2+x,-y,-z
-x,y,-z
-x,-y,-z
1/2+x,y,-z
1/2-x,y,z
x,-y,z
loop_
_atom_site_type_symbol
_atom_site_label
_atom_site_fract_x
_atom_site_fract_y
_atom_site_fract_z
Si Si1 0.323685 0.172234 0.611131
Si Si2 0.546297 0.179498 0.709015
Si Si3 0.060132 0.174203 0.825887
Si Si4 0.971184 0.822297 0.429557
Si Si5 0.174475 0.669742 0.751755
Si Si6 0.073740 0.673546 0.970323
Si Si7 0.828368 0.679182 0.777224
Si Si8 0.171349 0.824231 0.077728
O O1 0.250000 0.183976 0.570648
O O2 0.389997 0.211780 0.565612
O O3 0.321610 0.295481 0.671016
O O4 0.332208 0.000000 0.640326
O O5 0.501890 0.225123 0.776254
O O6 0.508421 0.244008 0.639683
O O7 0.621610 0.251751 0.718603
O O8 0.554196 0.000000 0.703826
O O9 0.130112 0.197504 0.784930
O O10 0.066584 0.282190 0.891045
O O11 0.052465 0.000000 0.848901
O O12 0.000000 0.746977 0.500000
O O13 0.986414 0.000000 0.429405
O O14 0.250000 0.676882 0.784900
O O15 0.143756 0.500000 0.762248
O O16 0.097337 0.500000 0.976299
O O17 0.128345 0.773841 0.011314
O O18 0.000000 0.703910 0.000000
O O19 0.750000 0.730565 0.761813
O O20 0.835173 0.500000 0.775573
O O21 0.851319 0.735408 0.853293
O O22 0.250000 0.791322 0.059927
O O23 0.157423 0.000000 0.092434
#
# Coordination Sequence:
#
# PCOD8211043 Si02
#       8
#     8   8   8   8   8   8   8   8
#     4   9  16  30  53  78 106 143 185 224 266 320
#     4  10  20  35  56  83 111 142 181 228 281 332
#     4  11  22  36  55  79 108 143 184 228 277 329
#     4   9  17  32  54  83 117 147 181 231 284 334
#     4  10  20  33  51  77 107 139 177 223 271 318
#     4  11  24  39  55  79 110 145 185 227 276 331
#     4  10  21  37  58  83 110 144 184 227 277 330
#     4  10  21  38  60  84 110 144 186 230 278 332
#
# _framework density 19.232364
#
# number of rings (size 3 to 8) (size 9 to 14) (size 15 to 20)
#    0.000    2.000    1.250    2.625    0.000    6.750 
#    0.000    0.625    0.000    3.750    0.000    1.750 
#    0.000    0.000    0.000    0.000    0.000    0.000 
#
# Total GULP energy -793302.227132 kJ/mol
# GULP energy per Si atom -12395.347299 kJ/mol
# Density = 1.918859 g / cm^3
# Si number density = 19.232364 Si / 1000 Ang^3
#
#
#
# Elastic Constant Matrix: (Units=GPa)
#
#
# Indices 1 2 3 4 5 6 
#
# 1 351.3217 -266.6908 -127.2085 0.0000 0.0000 0.0000
# 2 -266.6908 465.5004 290.9947 0.0000 0.0000 0.0000
# 3 -127.2085 290.9947 270.3961 0.0000 0.0000 0.0000
# 4 0.0000 0.0000 0.0000 13.9280 0.0000 0.0000
# 5 0.0000 0.0000 0.0000 0.0000 28.9210 0.0000
# 6 0.0000 0.0000 0.0000 0.0000 0.0000 28.0979
#
#
#
# Elastic Compliance Matrix: (Units=1/GPa)
#
#
# Indices 1 2 3 4 5 6 
#
# 1 0.005528 0.004710 -0.002468 0.000000 0.000000 0.000000
# 2 0.004710 0.010577 -0.009167 0.000000 0.000000 0.000000
# 3 -0.002468 -0.009167 0.012403 0.000000 0.000000 0.000000
# 4 0.000000 0.000000 0.000000 0.071798 0.000000 0.000000
# 5 0.000000 0.000000 0.000000 0.000000 0.034577 0.000000
# 6 0.000000 0.000000 0.000000 0.000000 0.000000 0.035590
#
#
# Mechanical properties :
#
#
# Convention : Reuss Voigt Hill
#
# Bulk Modulus (GPa) = 68.22449 97.93432 83.07940
# Shear Modulus (GPa) = 26.42578 93.53090 59.97834
#
# Velocity S-wave (km/s) = 3.71081 6.98123 5.59051
# Velocity P-wave (km/s) = 7.34241 10.77106 9.21755
#
# Compressibility (1/GPa) = 0.01465749
#
# Stress axis : x y z
#
# Youngs Moduli (GPa) = 180.89397 94.54297 80.62754
#
# Poissons Ratio (x) = -0.44529 0.19899
# Poissons Ratio (y) = -0.85200 0.73913
# Poissons Ratio (z) = 0.44645 0.86669
#
# Static dielectric constant tensor:
#      x y z
#    x 3.840380 0.000000 0.000000 
#    y 0.000000 3.366250 0.000000 
#    z 0.000000 0.000000 3.346410 
# 
# 
# High freq. dielectric constant tensor:
#      x y z
#    x 1.763620 0.000000 0.000000 
#    y 0.000000 1.738350 0.000000 
#    z 0.000000 0.000000 1.723070 
# 
# From -- ./inp_files/30667.got.cif
#   From: 2010.03.12/outbox.cif.g09.slc.cpg/sg51_16_cif.got.tgz:30667.got - 2010.04.16 13:43:02.
