data_PCOD8211235
_publ_section_title
;
Structure prediction by ZEFSAII (Michael W. Deem and Ramdas Pophale) SiO2 
 PCOD8211235
Probable space group: P M M A
;
_chemical_formula_sum "Si O2"
_cell_formula_units_Z 64
_cell_length_a 8.939421
_cell_length_b 14.140615
_cell_length_c 31.200301
_cell_angle_alpha 90.000000
_cell_angle_beta 90.000000
_cell_angle_gamma 90.000000
_cell_volume 3943.996062
_symmetry_space_group_name_H-M "P M M A"
_symmetry_group_IT_number 51
_symmetry_cell_setting 'orthorhombic'
loop_
_space_group_symop_operation_xyz
x,y,z
1/2-x,-y,z
1/2+x,-y,-z
-x,y,-z
-x,-y,-z
1/2+x,y,-z
1/2-x,y,z
x,-y,z
loop_
_atom_site_type_symbol
_atom_site_label
_atom_site_fract_x
_atom_site_fract_y
_atom_site_fract_z
Si Si1 0.576459 0.890002 0.208589
Si Si2 0.424734 0.109843 0.044108
Si Si3 0.084917 0.887339 0.459211
Si Si4 0.924389 0.607636 0.842512
Si Si5 0.923403 0.393058 0.248327
Si Si6 0.571553 0.105321 0.633846
Si Si7 0.927398 0.220565 0.715246
Si Si8 0.074178 0.218039 0.878398
O O1 0.750000 0.873744 0.219821
O O2 0.476127 0.845633 0.245666
O O3 0.533737 0.840270 0.164160
O O4 0.537203 0.000000 0.204258
O O5 0.250000 0.132192 0.041654
O O6 0.498195 0.167842 0.081952
O O7 0.456921 0.000000 0.052717
O O8 0.500000 0.142855 0.000000
O O9 0.250000 0.844250 0.461747
O O10 0.011648 0.860066 0.412989
O O11 0.000000 0.843201 0.500000
O O12 0.089561 0.000000 0.462368
O O13 0.750000 0.632594 0.840426
O O14 0.951162 0.500000 0.857740
O O15 0.992789 0.624633 0.795942
O O16 0.007568 0.676248 0.875643
O O17 0.750000 0.368792 0.240996
O O18 0.945498 0.500000 0.264851
O O19 0.994992 0.323129 0.283076
O O20 0.750000 0.101987 0.631908
O O21 0.515186 0.174989 0.670889
O O22 0.510587 0.000000 0.644126
O O23 0.750000 0.232166 0.716193
O O24 0.250000 0.223597 0.886235
#
# Coordination Sequence:
#
# PCOD8211235 Si02
#       8
#     8   8   8   8   8   8   8   8
#     4  10  21  34  46  65  97 134 166 196 232 275
#     4  10  21  37  57  80 106 135 168 205 244 286
#     4   8  13  23  39  57  80 111 150 193 232 271
#     4  10  20  34  53  77 101 125 160 204 244 284
#     4  10  20  34  50  67  91 124 159 196 242 290
#     4   8  15  27  41  60  89 125 158 189 231 281
#     4  11  20  30  47  68  92 124 162 199 236 281
#     4  11  21  34  54  77 103 134 166 199 241 289
#
# _framework density 16.227197
#
# number of rings (size 3 to 8) (size 9 to 14) (size 15 to 20)
#    0.000    2.250    1.250    3.375    0.000    4.000 
#    0.000    1.250    0.000    3.375    0.000    0.000 
#    0.000    0.500    0.000    1.125    0.000    2.000 
#
# Total GULP energy -793524.230236 kJ/mol
# GULP energy per Si atom -12398.816097 kJ/mol
# Density = 1.619026 g / cm^3
# Si number density = 16.227197 Si / 1000 Ang^3
#
#
#
# Elastic Constant Matrix: (Units=GPa)
#
#
# Indices 1 2 3 4 5 6 
#
# 1 57.0998 43.4558 43.3419 0.0000 0.0000 0.0000
# 2 43.4558 95.1127 59.3411 0.0000 0.0000 0.0000
# 3 43.3419 59.3411 125.7205 0.0000 0.0000 0.0000
# 4 0.0000 0.0000 0.0000 8.5219 0.0000 0.0000
# 5 0.0000 0.0000 0.0000 0.0000 25.2421 0.0000
# 6 0.0000 0.0000 0.0000 0.0000 0.0000 25.8805
#
#
#
# Elastic Compliance Matrix: (Units=1/GPa)
#
#
# Indices 1 2 3 4 5 6 
#
# 1 0.029175 -0.009999 -0.005338 0.000000 0.000000 0.000000
# 2 -0.009999 0.018329 -0.005204 0.000000 0.000000 0.000000
# 3 -0.005338 -0.005204 0.012251 0.000000 0.000000 0.000000
# 4 0.000000 0.000000 0.000000 0.117344 0.000000 0.000000
# 5 0.000000 0.000000 0.000000 0.000000 0.039616 0.000000
# 6 0.000000 0.000000 0.000000 0.000000 0.000000 0.038639
#
#
# Mechanical properties :
#
#
# Convention : Reuss Voigt Hill
#
# Bulk Modulus (GPa) = 53.55699 63.35672 58.45686
# Shear Modulus (GPa) = 16.52001 20.71519 18.61760
#
# Velocity S-wave (km/s) = 3.19414 3.57679 3.39087
# Velocity P-wave (km/s) = 6.83224 7.49575 7.17167
#
# Compressibility (1/GPa) = 0.01867170
#
# Stress axis : x y z
#
# Youngs Moduli (GPa) = 34.27577 54.55731 81.62534
#
# Poissons Ratio (x) = 0.54552 0.43575
# Poissons Ratio (y) = 0.34273 0.42481
# Poissons Ratio (z) = 0.18298 0.28394
#
# Static dielectric constant tensor:
#      x y z
#    x 3.441850 0.000000 0.000000 
#    y 0.000000 3.099210 0.000000 
#    z 0.000000 0.000000 3.169070 
# 
# 
# High freq. dielectric constant tensor:
#      x y z
#    x 1.627120 0.000000 0.000000 
#    y 0.000000 1.606970 0.000000 
#    z 0.000000 0.000000 1.614880 
# 
# From -- ./inp_files/37574.got.cif
#   From: 2010.03.12/outbox.cif.g09.slc.cpg/sg51_19_cif.got.tgz:37574.got - 2010.04.16 13:43:02.
