data_PCOD8211087
_publ_section_title
;
Structure prediction by ZEFSAII (Michael W. Deem and Ramdas Pophale) SiO2 
 PCOD8211087
Probable space group: P M M A
;
_chemical_formula_sum "Si O2"
_cell_formula_units_Z 44
_cell_length_a 9.420366
_cell_length_b 8.020335
_cell_length_c 30.017689
_cell_angle_alpha 90.000000
_cell_angle_beta 90.000000
_cell_angle_gamma 90.000000
_cell_volume 2267.971218
_symmetry_space_group_name_H-M "P M M A"
_symmetry_group_IT_number 51
_symmetry_cell_setting 'orthorhombic'
loop_
_space_group_symop_operation_xyz
x,y,z
1/2-x,-y,z
1/2+x,-y,-z
-x,y,-z
-x,-y,-z
1/2+x,y,-z
1/2-x,y,z
x,-y,z
loop_
_atom_site_type_symbol
_atom_site_label
_atom_site_fract_x
_atom_site_fract_y
_atom_site_fract_z
Si Si1 0.410671 0.690996 0.227633
Si Si2 0.591523 0.696349 0.959646
Si Si3 0.906375 0.807669 0.307349
Si Si4 0.084765 0.193730 0.391407
Si Si5 0.084803 0.500000 0.454741
Si Si6 0.582655 0.810971 0.866035
O O1 0.250000 0.764470 0.230751
O O2 0.410924 0.500000 0.241521
O O3 0.513260 0.786309 0.260897
O O4 0.471181 0.711095 0.177383
O O5 0.750000 0.773234 0.962702
O O6 0.598891 0.500000 0.964522
O O7 0.517874 0.741234 0.912240
O O8 0.500000 0.774059 0.000000
O O9 0.750000 0.720833 0.306101
O O10 0.999472 0.740282 0.348347
O O11 0.883705 0.000000 0.315738
O O12 0.250000 0.206197 0.379178
O O13 0.044729 0.327441 0.429467
O O14 0.047656 0.000000 0.405053
O O15 0.250000 0.500000 0.466019
O O16 0.000000 0.500000 0.500000
O O17 0.750000 0.787639 0.869638
O O18 0.535014 0.000000 0.859609
#
# Coordination Sequence:
#
# PCOD8211087 Si02
#       6
#     8   8   8   8   4   8
#     4  10  20  33  52  77 103 135 175 216 260 314
#     4   9  17  30  48  69  93 121 156 200 250 304
#     4  10  21  36  54  79 110 142 177 220 272 325
#     4   9  19  37  59  82 112 150 190 233 276 324
#     4  10  22  38  58  86 116 148 190 234 279 330
#     4   9  17  30  49  71  95 126 166 210 252 300
#
# _framework density 19.400601000000002
#
# number of rings (size 3 to 8) (size 9 to 14) (size 15 to 20)
#    0.000    2.545    0.000    1.636    1.273    5.818 
#    0.000    0.909    0.000    3.273    0.000    0.000 
#    0.000    0.000    0.000    0.000    0.000    0.000 
#
# Total GULP energy -545348.849490 kJ/mol
# GULP energy per Si atom -12394.292034 kJ/mol
# Density = 1.935644 g / cm^3
# Si number density = 19.400601 Si / 1000 Ang^3
#
#
#
# Elastic Constant Matrix: (Units=GPa)
#
#
# Indices 1 2 3 4 5 6 
#
# 1 78.6777 21.9957 74.0791 0.0000 0.0000 0.0000
# 2 21.9957 57.2895 38.3627 0.0000 0.0000 0.0000
# 3 74.0791 38.3627 170.8885 0.0000 0.0000 0.0000
# 4 0.0000 0.0000 0.0000 33.2812 0.0000 0.0000
# 5 0.0000 0.0000 0.0000 0.0000 32.9827 0.0000
# 6 0.0000 0.0000 0.0000 0.0000 0.0000 14.0879
#
#
#
# Elastic Compliance Matrix: (Units=1/GPa)
#
#
# Indices 1 2 3 4 5 6 
#
# 1 0.021752 -0.002398 -0.008891 0.000000 0.000000 0.000000
# 2 -0.002398 0.020808 -0.003632 0.000000 0.000000 0.000000
# 3 -0.008891 -0.003632 0.010521 0.000000 0.000000 0.000000
# 4 0.000000 0.000000 0.000000 0.030047 0.000000 0.000000
# 5 0.000000 0.000000 0.000000 0.000000 0.030319 0.000000
# 6 0.000000 0.000000 0.000000 0.000000 0.000000 0.070983
#
#
# Mechanical properties :
#
#
# Convention : Reuss Voigt Hill
#
# Bulk Modulus (GPa) = 43.02956 63.97009 53.49982
# Shear Modulus (GPa) = 22.52079 27.56489 25.04284
#
# Velocity S-wave (km/s) = 3.41079 3.77347 3.59671
# Velocity P-wave (km/s) = 6.14321 7.21320 6.69960
#
# Compressibility (1/GPa) = 0.02323984
#
# Stress axis : x y z
#
# Youngs Moduli (GPa) = 45.97332 48.05919 95.04577
#
# Poissons Ratio (x) = 0.11523 0.84505
# Poissons Ratio (y) = 0.11023 0.34518
# Poissons Ratio (z) = 0.40875 0.17454
#
# Static dielectric constant tensor:
#      x y z
#    x 3.808250 0.000000 0.000000 
#    y 0.000000 3.524680 0.000000 
#    z 0.000000 0.000000 3.623200 
# 
# 
# High freq. dielectric constant tensor:
#      x y z
#    x 1.725680 0.000000 0.000000 
#    y 0.000000 1.751510 0.000000 
#    z 0.000000 0.000000 1.761350 
# 
# From -- ./inp_files/36803.got.cif
#   From: 2010.03.12/outbox.cif.g09.slc.cpg/sg51_19_cif.got.tgz:36803.got - 2010.04.16 13:43:02.
