data_PCOD8211868
_publ_section_title
;
Structure prediction by ZEFSAII (Michael W. Deem and Ramdas Pophale) SiO2 
 PCOD8211868
Probable space group: P M M A
;
_chemical_formula_sum "Si O2"
_cell_formula_units_Z 40
_cell_length_a 9.246278
_cell_length_b 7.763680
_cell_length_c 29.062467
_cell_angle_alpha 90.000000
_cell_angle_beta 90.000000
_cell_angle_gamma 90.000000
_cell_volume 2086.253366
_symmetry_space_group_name_H-M "P M M A"
_symmetry_group_IT_number 51
_symmetry_cell_setting 'orthorhombic'
loop_
_space_group_symop_operation_xyz
x,y,z
1/2-x,-y,z
1/2+x,-y,-z
-x,y,-z
-x,-y,-z
1/2+x,y,-z
1/2-x,y,z
x,-y,z
loop_
_atom_site_type_symbol
_atom_site_label
_atom_site_fract_x
_atom_site_fract_y
_atom_site_fract_z
Si Si1 0.414579 0.807220 0.632885
Si Si2 0.917485 0.298070 0.545335
Si Si3 0.913575 0.704253 0.956262
Si Si4 0.921101 0.191260 0.857899
Si Si5 0.422428 0.500000 0.204942
Si Si6 0.580853 0.500000 0.300802
O O1 0.250000 0.765481 0.617596
O O2 0.517156 0.798958 0.588855
O O3 0.464546 0.670304 0.671019
O O4 0.426446 0.000000 0.653781
O O5 0.750000 0.249415 0.540306
O O6 0.941547 0.500000 0.552615
O O7 0.000000 0.232875 0.500000
O O8 0.750000 0.769265 0.961849
O O9 0.921869 0.500000 0.953729
O O10 0.983591 0.777584 0.909183
O O11 0.000000 0.777095 0.000000
O O12 0.750000 0.214834 0.861049
O O13 0.981122 0.331298 0.821923
O O14 0.964930 0.000000 0.840873
O O15 0.250000 0.500000 0.209275
O O16 0.488873 0.500000 0.255014
O O17 0.750000 0.500000 0.288775
#
# Coordination Sequence:
#
# PCOD8211868 Si02
#       6
#     8   8   8   8   4   4
#     4  10  21  38  60  83 109 145 185 222 267 324
#     4  10  20  34  56  85 117 152 188 225 267 316
#     4   9  16  28  47  71 100 134 170 207 249 301
#     4   9  17  31  52  76 102 134 172 213 257 307
#     4  10  20  36  57  78 100 130 174 220 262 314
#     4  10  22  40  59  80 109 140 172 220 279 328
#
# _framework density 19.173126
#
# number of rings (size 3 to 8) (size 9 to 14) (size 15 to 20)
#    0.000    2.400    2.000    0.600    0.000    3.600 
#    0.000    1.000    0.000    1.200    0.000    0.000 
#    0.000    0.000    0.000    0.000    0.000    0.000 
#
# Total GULP energy -495999.047206 kJ/mol
# GULP energy per Si atom -12399.976180 kJ/mol
# Density = 1.912949 g / cm^3
# Si number density = 19.173126 Si / 1000 Ang^3
#
#
#
# Elastic Constant Matrix: (Units=GPa)
#
#
# Indices 1 2 3 4 5 6 
#
# 1 61.9634 34.2024 52.7694 0.0000 0.0000 0.0000
# 2 34.2024 122.0795 76.3757 0.0000 0.0000 0.0000
# 3 52.7694 76.3757 158.8854 0.0000 0.0000 0.0000
# 4 0.0000 0.0000 0.0000 9.8085 0.0000 0.0000
# 5 0.0000 0.0000 0.0000 0.0000 36.5992 0.0000
# 6 0.0000 0.0000 0.0000 0.0000 0.0000 13.1500
#
#
#
# Elastic Compliance Matrix: (Units=1/GPa)
#
#
# Indices 1 2 3 4 5 6 
#
# 1 0.022976 -0.002378 -0.006488 0.000000 0.000000 0.000000
# 2 -0.002378 0.011960 -0.004959 0.000000 0.000000 0.000000
# 3 -0.006488 -0.004959 0.010833 0.000000 0.000000 0.000000
# 4 0.000000 0.000000 0.000000 0.101952 0.000000 0.000000
# 5 0.000000 0.000000 0.000000 0.000000 0.027323 0.000000
# 6 0.000000 0.000000 0.000000 0.000000 0.000000 0.076046
#
#
# Mechanical properties :
#
#
# Convention : Reuss Voigt Hill
#
# Bulk Modulus (GPa) = 55.19245 74.40258 64.79751
# Shear Modulus (GPa) = 17.55736 23.88360 20.72048
#
# Velocity S-wave (km/s) = 3.02938 3.53325 3.29097
# Velocity P-wave (km/s) = 6.40976 7.45218 6.95054
#
# Compressibility (1/GPa) = 0.01811842
#
# Stress axis : x y z
#
# Youngs Moduli (GPa) = 43.52288 83.60892 92.31424
#
# Poissons Ratio (x) = 0.19885 0.59891
# Poissons Ratio (y) = 0.10351 0.45783
# Poissons Ratio (z) = 0.28237 0.41466
#
# Static dielectric constant tensor:
#      x y z
#    x 3.215920 0.000000 0.000000 
#    y 0.000000 3.606380 0.000000 
#    z 0.000000 0.000000 3.448660 
# 
# 
# High freq. dielectric constant tensor:
#      x y z
#    x 1.715300 0.000000 0.000000 
#    y 0.000000 1.753800 0.000000 
#    z 0.000000 0.000000 1.741780 
# 
# From -- ./inp_files/36041.got.cif
#   From: 2010.03.12/outbox.cif.g09.slc.cpg/sg51_19_cif.got.tgz:36041.got - 2010.04.16 13:43:02.
