data_PCOD8211487
_publ_section_title
;
Structure prediction by ZEFSAII (Michael W. Deem and Ramdas Pophale) SiO2 
 PCOD8211487
Probable space group: P M M A
;
_chemical_formula_sum "Si O2"
_cell_formula_units_Z 44
_cell_length_a 8.901540
_cell_length_b 13.410727
_cell_length_c 18.959265
_cell_angle_alpha 90.000000
_cell_angle_beta 90.000000
_cell_angle_gamma 90.000000
_cell_volume 2263.283547
_symmetry_space_group_name_H-M "P M M A"
_symmetry_group_IT_number 51
_symmetry_cell_setting 'orthorhombic'
loop_
_space_group_symop_operation_xyz
x,y,z
1/2-x,-y,z
1/2+x,-y,-z
-x,y,-z
-x,-y,-z
1/2+x,y,-z
1/2-x,y,z
x,-y,z
loop_
_atom_site_type_symbol
_atom_site_label
_atom_site_fract_x
_atom_site_fract_y
_atom_site_fract_z
Si Si1 0.919399 0.886256 0.166075
Si Si2 0.571317 0.500000 0.423801
Si Si3 0.927088 0.888271 0.685247
Si Si4 0.423361 0.267282 0.071848
Si Si5 0.573950 0.694771 0.339181
Si Si6 0.421666 0.613185 0.208607
O O1 0.750000 0.848076 0.181882
O O2 0.020617 0.871151 0.234960
O O3 0.992464 0.829844 0.100496
O O4 0.916116 0.000000 0.142440
O O5 0.750000 0.500000 0.428814
O O6 0.500000 0.500000 0.500000
O O7 0.513981 0.600174 0.384190
O O8 0.750000 0.876239 0.681937
O O9 0.000571 0.800869 0.636578
O O10 0.975335 0.000000 0.659418
O O11 0.250000 0.241194 0.058297
O O12 0.442377 0.356301 0.127697
O O13 0.500000 0.303743 0.000000
O O14 0.750000 0.705413 0.347769
O O15 0.529752 0.678595 0.257679
O O16 0.250000 0.629246 0.233284
O O17 0.472924 0.500000 0.216138
#
# Coordination Sequence:
#
# PCOD8211487 Si02
#       6
#     8   4   8   8   8   8
#     4  10  20  34  53  77 106 141 183 236 294 346
#     4  10  24  42  62  96 131 162 195 234 283 339
#     4  10  20  34  55  86 120 154 196 242 290 346
#     4  11  23  37  53  74 104 144 191 241 295 352
#     4  11  21  36  60  90 123 155 196 240 286 342
#     4  10  21  37  57  81 108 144 192 237 287 350
#
# _framework density 19.44078
#
# number of rings (size 3 to 8) (size 9 to 14) (size 15 to 20)
#    0.000    1.636    2.727    2.182    0.000    5.091 
#    0.000    0.000    0.000    0.545    0.000    0.000 
#    0.000    0.000    0.000    0.000    0.000    0.000 
#
# Total GULP energy -545587.828714 kJ/mol
# GULP energy per Si atom -12399.723380 kJ/mol
# Density = 1.939653 g / cm^3
# Si number density = 19.440780 Si / 1000 Ang^3
#
#
#
# Elastic Constant Matrix: (Units=GPa)
#
#
# Indices 1 2 3 4 5 6 
#
# 1 81.3169 54.6998 27.7550 0.0000 0.0000 0.0000
# 2 54.6998 155.7081 42.4056 0.0000 0.0000 0.0000
# 3 27.7550 42.4056 65.7662 0.0000 0.0000 0.0000
# 4 0.0000 0.0000 0.0000 20.4544 0.0000 0.0000
# 5 0.0000 0.0000 0.0000 0.0000 28.9795 0.0000
# 6 0.0000 0.0000 0.0000 0.0000 0.0000 32.4478
#
#
#
# Elastic Compliance Matrix: (Units=1/GPa)
#
#
# Indices 1 2 3 4 5 6 
#
# 1 0.016934 -0.004855 -0.004016 0.000000 0.000000 0.000000
# 2 -0.004855 0.009182 -0.003872 0.000000 0.000000 0.000000
# 3 -0.004016 -0.003872 0.019397 0.000000 0.000000 0.000000
# 4 0.000000 0.000000 0.000000 0.048889 0.000000 0.000000
# 5 0.000000 0.000000 0.000000 0.000000 0.034507 0.000000
# 6 0.000000 0.000000 0.000000 0.000000 0.000000 0.030819
#
#
# Mechanical properties :
#
#
# Convention : Reuss Voigt Hill
#
# Bulk Modulus (GPa) = 49.93168 61.39021 55.66095
# Shear Modulus (GPa) = 26.05656 28.23839 27.14748
#
# Velocity S-wave (km/s) = 3.66499 3.81535 3.74092
# Velocity P-wave (km/s) = 6.60676 7.14533 6.88132
#
# Compressibility (1/GPa) = 0.02002737
#
# Stress axis : x y z
#
# Youngs Moduli (GPa) = 59.05169 108.90499 51.55518
#
# Poissons Ratio (x) = 0.52876 0.20705
# Poissons Ratio (y) = 0.28671 0.19960
# Poissons Ratio (z) = 0.23716 0.42164
#
# Static dielectric constant tensor:
#      x y z
#    x 3.702040 0.000000 0.000000 
#    y 0.000000 3.996530 0.000000 
#    z 0.000000 0.000000 3.183320 
# 
# 
# High freq. dielectric constant tensor:
#      x y z
#    x 1.764700 0.000000 0.000000 
#    y 0.000000 1.778150 0.000000 
#    z 0.000000 0.000000 1.715230 
# 
# From -- ./inp_files/27408.got.cif
#   From: 2010.03.12/outbox.cif.g09.slc.cpg/sg51_14_cif.got.tgz:27408.got - 2010.04.16 13:43:02.
