data_PCOD8211110
_publ_section_title
;
Structure prediction by ZEFSAII (Michael W. Deem and Ramdas Pophale) SiO2 
 PCOD8211110
Probable space group: P M M A
;
_chemical_formula_sum "Si O2"
_cell_formula_units_Z 48
_cell_length_a 30.974053
_cell_length_b 9.032229
_cell_length_c 9.094236
_cell_angle_alpha 90.000000
_cell_angle_beta 90.000000
_cell_angle_gamma 90.000000
_cell_volume 2544.246568
_symmetry_space_group_name_H-M "P M M A"
_symmetry_group_IT_number 51
_symmetry_cell_setting 'orthorhombic'
loop_
_space_group_symop_operation_xyz
x,y,z
1/2-x,-y,z
1/2+x,-y,-z
-x,y,-z
-x,-y,-z
1/2+x,y,-z
1/2-x,y,z
x,-y,z
loop_
_atom_site_type_symbol
_atom_site_label
_atom_site_fract_x
_atom_site_fract_y
_atom_site_fract_z
Si Si1 0.495016 0.663150 0.326105
Si Si2 0.327237 0.172571 0.176605
Si Si3 0.750000 0.325379 0.323336
Si Si4 0.088806 0.326006 0.667104
Si Si5 0.750000 0.323276 0.654942
Si Si6 0.331263 0.674693 0.865805
Si Si7 0.088285 0.170830 0.360666
O O1 0.500000 0.654463 0.500000
O O2 0.484831 0.500000 0.261587
O O3 0.541680 0.721515 0.268049
O O4 0.455693 0.770276 0.284070
O O5 0.292407 0.263397 0.267284
O O6 0.373767 0.201680 0.246581
O O7 0.314904 0.000000 0.177349
O O8 0.327999 0.231666 0.012290
O O9 0.750000 0.500000 0.333783
O O10 0.750000 0.261654 0.488305
O O11 0.792507 0.271125 0.238604
O O12 0.089107 0.500000 0.633407
O O13 0.124114 0.282333 0.787218
O O14 0.099781 0.248896 0.513428
O O15 0.750000 0.500000 0.663335
O O16 0.328235 0.500000 0.900569
O O17 0.081733 0.000000 0.395406
#
# Coordination Sequence:
#
# PCOD8211110 Si02
#       7
#     8   8   4   8   4   8   8
#     4   8  15  29  50  76 105 137 177 228 277 314
#     4  11  24  39  53  78 115 146 175 215 263 316
#     4   9  19  35  58  86 106 125 168 223 262 306
#     4   9  18  33  54  80 108 138 179 231 276 316
#     4  11  22  39  64  86 104 135 176 217 264 314
#     4  10  20  36  57  80 107 141 180 219 265 321
#     4  10  20  33  52  78 108 144 183 221 266 322
#
# _framework density 18.866095999999999
#
# number of rings (size 3 to 8) (size 9 to 14) (size 15 to 20)
#    0.000    2.333    0.000    3.750    0.000    8.333 
#    0.000    2.500    0.000    5.000    0.000    0.000 
#    0.000    0.000    0.000    0.000    0.000    0.000 
#
# Total GULP energy -595160.191352 kJ/mol
# GULP energy per Si atom -12399.170653 kJ/mol
# Density = 1.882316 g / cm^3
# Si number density = 18.866096 Si / 1000 Ang^3
#
#
#
# Elastic Constant Matrix: (Units=GPa)
#
#
# Indices 1 2 3 4 5 6 
#
# 1 159.5840 62.2287 73.5991 0.0000 0.0000 0.0000
# 2 62.2287 79.2198 55.0946 0.0000 0.0000 0.0000
# 3 73.5991 55.0946 122.9515 0.0000 0.0000 0.0000
# 4 0.0000 0.0000 0.0000 21.6304 0.0000 0.0000
# 5 0.0000 0.0000 0.0000 0.0000 163.5856 0.0000
# 6 0.0000 0.0000 0.0000 0.0000 0.0000 28.3940
#
#
#
# Elastic Compliance Matrix: (Units=1/GPa)
#
#
# Indices 1 2 3 4 5 6 
#
# 1 0.010016 -0.005372 -0.003588 0.000000 0.000000 0.000000
# 2 -0.005372 0.021219 -0.006293 0.000000 0.000000 0.000000
# 3 -0.003588 -0.006293 0.013101 0.000000 0.000000 0.000000
# 4 0.000000 0.000000 0.000000 0.046231 0.000000 0.000000
# 5 0.000000 0.000000 0.000000 0.000000 0.006113 0.000000
# 6 0.000000 0.000000 0.000000 0.000000 0.000000 0.035219
#
#
# Mechanical properties :
#
#
# Convention : Reuss Voigt Hill
#
# Bulk Modulus (GPa) = 72.30598 82.62222 77.46410
# Shear Modulus (GPa) = 29.93729 54.11086 42.02408
#
# Velocity S-wave (km/s) = 3.98783 5.36132 4.72475
# Velocity P-wave (km/s) = 7.72093 9.06720 8.42101
#
# Compressibility (1/GPa) = 0.01383012
#
# Stress axis : x y z
#
# Youngs Moduli (GPa) = 99.83937 47.12672 76.33016
#
# Poissons Ratio (x) = 0.25318 0.27390
# Poissons Ratio (y) = 0.53636 0.48031
# Poissons Ratio (z) = 0.35826 0.29655
#
# Static dielectric constant tensor:
#      x y z
#    x 4.133840 0.000000 0.000000 
#    y 0.000000 3.394560 0.000000 
#    z 0.000000 0.000000 3.296140 
# 
# 
# High freq. dielectric constant tensor:
#      x y z
#    x 1.756440 0.000000 0.000000 
#    y 0.000000 1.723040 0.000000 
#    z 0.000000 0.000000 1.713890 
# 
# From -- ./inp_files/12930.got.cif
#   From: 2010.03.12/outbox.cif.g09.slc.cpg/sg51_7_cif.got.tgz:12930.got - 2010.04.16 13:43:02.
