data_PCOD8211428
_publ_section_title
;
Structure prediction by ZEFSAII (Michael W. Deem and Ramdas Pophale) SiO2 
 PCOD8211428
Probable space group: P M M A
;
_chemical_formula_sum "Si O2"
_cell_formula_units_Z 64
_cell_length_a 18.201205
_cell_length_b 9.286377
_cell_length_c 20.502833
_cell_angle_alpha 90.000000
_cell_angle_beta 90.000000
_cell_angle_gamma 90.000000
_cell_volume 3465.455498
_symmetry_space_group_name_H-M "P M M A"
_symmetry_group_IT_number 51
_symmetry_cell_setting 'orthorhombic'
loop_
_space_group_symop_operation_xyz
x,y,z
1/2-x,-y,z
1/2+x,-y,-z
-x,y,-z
-x,-y,-z
1/2+x,y,-z
1/2-x,y,z
x,-y,z
loop_
_atom_site_type_symbol
_atom_site_label
_atom_site_fract_x
_atom_site_fract_y
_atom_site_fract_z
Si Si1 0.413705 0.166418 0.875406
Si Si2 0.908292 0.330921 0.253362
Si Si3 0.664997 0.835335 0.367481
Si Si4 0.084881 0.834000 0.130500
Si Si5 0.077604 0.331982 0.258391
Si Si6 0.584421 0.831485 0.499558
Si Si7 0.167140 0.828697 0.003810
Si Si8 0.835070 0.330857 0.614451
O O1 0.384993 0.258533 0.814569
O O2 0.499856 0.187245 0.885914
O O3 0.374542 0.228427 0.939813
O O4 0.393374 0.000000 0.862627
O O5 0.895157 0.500000 0.247751
O O6 0.855995 0.268572 0.308733
O O7 0.992493 0.293006 0.270750
O O8 0.750000 0.813994 0.385157
O O9 0.617645 0.789980 0.429861
O O10 0.648184 0.000000 0.347380
O O11 0.108487 0.748999 0.195106
O O12 0.104574 0.000000 0.142568
O O13 0.129282 0.768871 0.069333
O O14 0.088408 0.500000 0.245723
O O15 0.123876 0.278447 0.320287
O O16 0.500000 0.781358 0.500000
O O17 0.629678 0.747961 0.553576
O O18 0.591949 0.000000 0.514361
O O19 0.250000 0.771474 0.001622
O O20 0.162757 0.000000 0.004664
O O21 0.750000 0.288204 0.620372
O O22 0.845785 0.500000 0.604145
#
# Coordination Sequence:
#
# PCOD8211428 Si02
#       8
#     8   8   8   8   8   8   8   8
#     4   9  17  31  51  72  97 131 166 202 250 303
#     4  10  20  34  53  76 101 131 170 214 253 293
#     4  10  21  36  53  75 105 137 166 201 250 305
#     4   9  17  30  50  74  97 125 166 210 247 293
#     4   9  19  35  52  73 103 136 169 207 253 302
#     4  10  21  37  58  82 106 134 171 215 259 303
#     4   9  17  29  47  72  99 126 161 206 252 298
#     4  10  21  36  54  77 106 140 175 210 252 306
#
# _framework density 18.467991000000001
#
# number of rings (size 3 to 8) (size 9 to 14) (size 15 to 20)
#    0.000    2.500    0.000    1.875    0.000    5.250 
#    0.000    1.875    0.000    3.750    0.000    0.000 
#    0.000    0.000    0.000    0.000    0.000    0.000 
#
# Total GULP energy -793811.979440 kJ/mol
# GULP energy per Si atom -12403.312179 kJ/mol
# Density = 1.842596 g / cm^3
# Si number density = 18.467991 Si / 1000 Ang^3
#
#
#
# Elastic Constant Matrix: (Units=GPa)
#
#
# Indices 1 2 3 4 5 6 
#
# 1 74.5927 28.2450 50.9379 0.0000 0.0000 0.0000
# 2 28.2450 49.0414 48.8650 0.0000 0.0000 0.0000
# 3 50.9379 48.8650 136.5798 0.0000 0.0000 0.0000
# 4 0.0000 0.0000 0.0000 16.1053 0.0000 0.0000
# 5 0.0000 0.0000 0.0000 0.0000 17.8760 0.0000
# 6 0.0000 0.0000 0.0000 0.0000 0.0000 18.4353
#
#
#
# Elastic Compliance Matrix: (Units=1/GPa)
#
#
# Indices 1 2 3 4 5 6 
#
# 1 0.019079 -0.006058 -0.004948 0.000000 0.000000 0.000000
# 2 -0.006058 0.033611 -0.009766 0.000000 0.000000 0.000000
# 3 -0.004948 -0.009766 0.012661 0.000000 0.000000 0.000000
# 4 0.000000 0.000000 0.000000 0.062091 0.000000 0.000000
# 5 0.000000 0.000000 0.000000 0.000000 0.055941 0.000000
# 6 0.000000 0.000000 0.000000 0.000000 0.000000 0.054244
#
#
# Mechanical properties :
#
#
# Convention : Reuss Voigt Hill
#
# Bulk Modulus (GPa) = 42.00463 57.36775 49.68619
# Shear Modulus (GPa) = 17.41515 19.29438 18.35476
#
# Velocity S-wave (km/s) = 3.07415 3.23576 3.15599
# Velocity P-wave (km/s) = 5.94932 6.71498 6.34371
#
# Compressibility (1/GPa) = 0.02380690
#
# Stress axis : x y z
#
# Youngs Moduli (GPa) = 52.41347 29.75260 78.98213
#
# Poissons Ratio (x) = 0.18024 0.39082
# Poissons Ratio (y) = 0.31752 0.77131
# Poissons Ratio (z) = 0.25935 0.29055
#
# Static dielectric constant tensor:
#      x y z
#    x 3.464760 0.000000 0.000000 
#    y 0.000000 3.214140 0.000000 
#    z 0.000000 0.000000 3.542130 
# 
# 
# High freq. dielectric constant tensor:
#      x y z
#    x 1.718690 0.000000 0.000000 
#    y 0.000000 1.695060 0.000000 
#    z 0.000000 0.000000 1.729170 
# 
# From -- ./inp_files/30521.got.cif
#   From: 2010.03.12/outbox.cif.g09.slc.cpg/sg51_16_cif.got.tgz:30521.got - 2010.04.16 13:43:02.
