data_PCOD8211058
_publ_section_title
;
Structure prediction by ZEFSAII (Michael W. Deem and Ramdas Pophale) SiO2 
 PCOD8211058
Probable space group: P M M A
;
_chemical_formula_sum "Si O2"
_cell_formula_units_Z 48
_cell_length_a 15.281222
_cell_length_b 9.026765
_cell_length_c 19.128291
_cell_angle_alpha 90.000000
_cell_angle_beta 90.000000
_cell_angle_gamma 90.000000
_cell_volume 2638.556459
_symmetry_space_group_name_H-M "P M M A"
_symmetry_group_IT_number 51
_symmetry_cell_setting 'orthorhombic'
loop_
_space_group_symop_operation_xyz
x,y,z
1/2-x,-y,z
1/2+x,-y,-z
-x,y,-z
-x,-y,-z
1/2+x,y,-z
1/2-x,y,z
x,-y,z
loop_
_atom_site_type_symbol
_atom_site_label
_atom_site_fract_x
_atom_site_fract_y
_atom_site_fract_z
Si Si1 0.250000 0.335897 0.454527
Si Si2 0.851174 0.171494 0.076340
Si Si3 0.349236 0.670253 0.067480
Si Si4 0.992959 0.326086 0.168687
Si Si5 0.750000 0.666403 0.711264
Si Si6 0.077963 0.826648 0.451027
Si Si7 0.925191 0.174703 0.709502
O O1 0.250000 0.500000 0.486711
O O2 0.250000 0.340870 0.371583
O O3 0.335797 0.251562 0.480750
O O4 0.750000 0.196189 0.096060
O O5 0.907812 0.265916 0.130060
O O6 0.877821 0.000000 0.080896
O O7 0.870176 0.226916 0.998330
O O8 0.250000 0.697600 0.095277
O O9 0.361347 0.500000 0.043942
O O10 0.418417 0.713032 0.126824
O O11 0.982323 0.500000 0.180546
O O12 0.997813 0.244872 0.243799
O O13 0.750000 0.500000 0.743555
O O14 0.664998 0.753829 0.736897
O O15 0.056542 0.783289 0.371098
O O16 0.000000 0.771069 0.500000
O O17 0.094363 0.000000 0.457834
O O18 0.920441 0.000000 0.720412
#
# Coordination Sequence:
#
# PCOD8211058 Si02
#       7
#     4   8   8   8   4   8   8
#     4   9  17  29  49  79 107 135 168 209 258 307
#     4  10  21  37  56  76 100 134 177 226 270 309
#     4   9  19  35  53  76 106 139 173 208 254 316
#     4  11  22  34  53  78 107 142 176 214 263 318
#     4   9  17  31  49  71 105 141 170 201 254 319
#     4   9  18  34  56  78 105 141 180 217 259 315
#     4  10  20  33  51  78 108 138 176 219 263 312
#
# _framework density 18.191766999999999
#
# number of rings (size 3 to 8) (size 9 to 14) (size 15 to 20)
#    0.000    2.333    0.000    2.500    1.167    7.333 
#    0.000    0.000    1.833    0.000    0.000    0.000 
#    0.000    0.000    0.000    0.000    0.000    0.000 
#
# Total GULP energy -595293.745009 kJ/mol
# GULP energy per Si atom -12401.953021 kJ/mol
# Density = 1.815036 g / cm^3
# Si number density = 18.191767 Si / 1000 Ang^3
#
#
#
# Elastic Constant Matrix: (Units=GPa)
#
#
# Indices 1 2 3 4 5 6 
#
# 1 103.9820 55.5504 56.9894 0.0000 0.0000 0.0000
# 2 55.5504 97.5671 48.0512 0.0000 0.0000 0.0000
# 3 56.9894 48.0512 76.5315 0.0000 0.0000 0.0000
# 4 0.0000 0.0000 0.0000 25.7304 0.0000 0.0000
# 5 0.0000 0.0000 0.0000 0.0000 30.2467 0.0000
# 6 0.0000 0.0000 0.0000 0.0000 0.0000 26.7554
#
#
#
# Elastic Compliance Matrix: (Units=1/GPa)
#
#
# Indices 1 2 3 4 5 6 
#
# 1 0.017938 -0.005262 -0.010054 0.000000 0.000000 0.000000
# 2 -0.005262 0.016381 -0.006367 0.000000 0.000000 0.000000
# 3 -0.010054 -0.006367 0.024551 0.000000 0.000000 0.000000
# 4 0.000000 0.000000 0.000000 0.038865 0.000000 0.000000
# 5 0.000000 0.000000 0.000000 0.000000 0.033061 0.000000
# 6 0.000000 0.000000 0.000000 0.000000 0.000000 0.037376
#
#
# Mechanical properties :
#
#
# Convention : Reuss Voigt Hill
#
# Bulk Modulus (GPa) = 64.49671 66.58476 65.54074
# Shear Modulus (GPa) = 23.07281 24.37914 23.72598
#
# Velocity S-wave (km/s) = 3.56520 3.66474 3.61531
# Velocity P-wave (km/s) = 7.24419 7.38838 7.31664
#
# Compressibility (1/GPa) = 0.01550467
#
# Stress axis : x y z
#
# Youngs Moduli (GPa) = 55.74609 61.04750 40.73170
#
# Poissons Ratio (x) = 0.32121 0.40953
# Poissons Ratio (y) = 0.29332 0.25933
# Poissons Ratio (z) = 0.56049 0.38867
#
# Static dielectric constant tensor:
#      x y z
#    x 3.408960 0.000000 0.000000 
#    y 0.000000 3.456560 0.000000 
#    z 0.000000 0.000000 3.181480 
# 
# 
# High freq. dielectric constant tensor:
#      x y z
#    x 1.700640 0.000000 0.000000 
#    y 0.000000 1.715600 0.000000 
#    z 0.000000 0.000000 1.685440 
# 
# From -- ./inp_files/29547.got.cif
#   From: 2010.03.12/outbox.cif.g09.slc.cpg/sg51_15_cif.got.tgz:29547.got - 2010.04.16 13:43:02.
