data_PCOD8211112
_publ_section_title
;
Structure prediction by ZEFSAII (Michael W. Deem and Ramdas Pophale) SiO2 
 PCOD8211112
Probable space group: P M M A
;
_chemical_formula_sum "Si O2"
_cell_formula_units_Z 64
_cell_length_a 9.270289
_cell_length_b 14.143987
_cell_length_c 25.988128
_cell_angle_alpha 90.000000
_cell_angle_beta 90.000000
_cell_angle_gamma 90.000000
_cell_volume 3407.533382
_symmetry_space_group_name_H-M "P M M A"
_symmetry_group_IT_number 51
_symmetry_cell_setting 'orthorhombic'
loop_
_space_group_symop_operation_xyz
x,y,z
1/2-x,-y,z
1/2+x,-y,-z
-x,y,-z
-x,-y,-z
1/2+x,y,-z
1/2-x,y,z
x,-y,z
loop_
_atom_site_type_symbol
_atom_site_label
_atom_site_fract_x
_atom_site_fract_y
_atom_site_fract_z
Si Si1 0.579292 0.719618 0.049062
Si Si2 0.584262 0.895223 0.299111
Si Si3 0.082482 0.294767 0.654223
Si Si4 0.580015 0.891152 0.911431
Si Si5 0.418068 0.391035 0.550271
Si Si6 0.092269 0.111737 0.203192
Si Si7 0.082659 0.388768 0.252347
Si Si8 0.916638 0.610278 0.152043
O O1 0.750000 0.721642 0.040104
O O2 0.517110 0.826204 0.052169
O O3 0.535681 0.661700 0.099769
O O4 0.500000 0.671404 0.000000
O O5 0.750000 0.904351 0.284667
O O6 0.559633 0.819289 0.344583
O O7 0.510917 0.851180 0.248175
O O8 0.524425 0.000000 0.314859
O O9 0.250000 0.321883 0.662574
O O10 0.028086 0.330452 0.598913
O O11 0.990331 0.343669 0.698126
O O12 0.750000 0.872530 0.919782
O O13 0.533809 0.862702 0.853260
O O14 0.542402 0.000000 0.923320
O O15 0.500000 0.353260 0.500000
O O16 0.250000 0.376682 0.540167
O O17 0.456779 0.500000 0.561262
O O18 0.250000 0.157129 0.212083
O O19 0.104525 0.000000 0.206895
O O20 0.250000 0.361848 0.251601
O O21 0.056723 0.500000 0.255916
O O22 0.010746 0.349659 0.199661
O O23 0.750000 0.630142 0.164911
O O24 0.946623 0.500000 0.143493
#
# Coordination Sequence:
#
# PCOD8211112 Si02
#       8
#     8   8   8   8   8   8   8   8
#     4  11  24  39  57  80 103 132 173 218 264 314
#     4   9  18  31  47  71 104 140 179 219 255 299
#     4  10  20  33  52  78 109 146 182 216 263 317
#     4   9  19  36  56  77 104 138 172 210 260 315
#     4   9  18  33  53  76 103 138 179 223 269 316
#     4   8  15  29  48  70  97 131 168 206 254 306
#     4  10  21  35  53  81 112 139 170 211 260 313
#     4   9  20  40  61  79 104 138 172 209 259 319
#
# _framework density 18.781915000000001
#
# number of rings (size 3 to 8) (size 9 to 14) (size 15 to 20)
#    0.000    2.625    0.000    1.875    1.750    4.500 
#    0.000    2.500    0.000    0.375    0.000    0.000 
#    0.000    0.000    0.000    0.000    0.000    0.000 
#
# Total GULP energy -793467.671431 kJ/mol
# GULP energy per Si atom -12397.932366 kJ/mol
# Density = 1.873917 g / cm^3
# Si number density = 18.781915 Si / 1000 Ang^3
#
#
#
# Elastic Constant Matrix: (Units=GPa)
#
#
# Indices 1 2 3 4 5 6 
#
# 1 76.2558 37.7261 67.9150 0.0000 0.0000 0.0000
# 2 37.7261 52.1676 59.6057 0.0000 0.0000 0.0000
# 3 67.9150 59.6057 155.6293 0.0000 0.0000 0.0000
# 4 0.0000 0.0000 0.0000 30.0462 0.0000 0.0000
# 5 0.0000 0.0000 0.0000 0.0000 33.6189 0.0000
# 6 0.0000 0.0000 0.0000 0.0000 0.0000 18.2779
#
#
#
# Elastic Compliance Matrix: (Units=1/GPa)
#
#
# Indices 1 2 3 4 5 6 
#
# 1 0.023843 -0.009520 -0.006759 0.000000 0.000000 0.000000
# 2 -0.009520 0.037886 -0.010356 0.000000 0.000000 0.000000
# 3 -0.006759 -0.010356 0.013341 0.000000 0.000000 0.000000
# 4 0.000000 0.000000 0.000000 0.033282 0.000000 0.000000
# 5 0.000000 0.000000 0.000000 0.000000 0.029745 0.000000
# 6 0.000000 0.000000 0.000000 0.000000 0.000000 0.054711
#
#
# Mechanical properties :
#
#
# Convention : Reuss Voigt Hill
#
# Bulk Modulus (GPa) = 45.86959 68.28292 57.07625
# Shear Modulus (GPa) = 19.73595 24.30899 22.02247
#
# Velocity S-wave (km/s) = 3.24511 3.60151 3.42795
# Velocity P-wave (km/s) = 6.20615 7.33001 6.79137
#
# Compressibility (1/GPa) = 0.02180094
#
# Stress axis : x y z
#
# Youngs Moduli (GPa) = 41.94087 26.39495 74.95623
#
# Poissons Ratio (x) = 0.25129 0.50660
# Poissons Ratio (y) = 0.39929 0.77622
# Poissons Ratio (z) = 0.28346 0.27334
#
# Static dielectric constant tensor:
#      x y z
#    x 3.540330 0.000000 0.000000 
#    y 0.000000 3.505460 0.000000 
#    z 0.000000 0.000000 3.482620 
# 
# 
# High freq. dielectric constant tensor:
#      x y z
#    x 1.724810 0.000000 0.000000 
#    y 0.000000 1.727870 0.000000 
#    z 0.000000 0.000000 1.718010 
# 
# From -- ./inp_files/34952.got.cif
#   From: 2010.03.12/outbox.cif.g09.slc.cpg/sg51_18_cif.got.tgz:34952.got - 2010.04.16 13:43:02.
