data_PCOD8211363
_publ_section_title
;
Structure prediction by ZEFSAII (Michael W. Deem and Ramdas Pophale) SiO2 
 PCOD8211363
Probable space group: P M M A
;
_chemical_formula_sum "Si O2"
_cell_formula_units_Z 64
_cell_length_a 13.430956
_cell_length_b 9.065987
_cell_length_c 26.215192
_cell_angle_alpha 90.000000
_cell_angle_beta 90.000000
_cell_angle_gamma 90.000000
_cell_volume 3192.089511
_symmetry_space_group_name_H-M "P M M A"
_symmetry_group_IT_number 51
_symmetry_cell_setting 'orthorhombic'
loop_
_space_group_symop_operation_xyz
x,y,z
1/2-x,-y,z
1/2+x,-y,-z
-x,y,-z
-x,-y,-z
1/2+x,y,-z
1/2-x,y,z
x,-y,z
loop_
_atom_site_type_symbol
_atom_site_label
_atom_site_fract_x
_atom_site_fract_y
_atom_site_fract_z
Si Si1 0.058900 0.825396 0.077508
Si Si2 0.138486 0.831878 0.665829
Si Si3 0.950544 0.830008 0.726771
Si Si4 0.131201 0.666870 0.566511
Si Si5 0.869106 0.167147 0.532788
Si Si6 0.141392 0.825345 0.969475
Si Si7 0.365210 0.328065 0.177701
Si Si8 0.132923 0.664614 0.368560
O O1 0.107469 0.738877 0.123522
O O2 0.942894 0.776647 0.071028
O O3 0.069159 0.000000 0.087015
O O4 0.115927 0.773144 0.026649
O O5 0.250000 0.782901 0.681615
O O6 0.093594 0.731936 0.620450
O O7 0.068075 0.813188 0.714905
O O8 0.138228 0.000000 0.646099
O O9 0.931722 0.747950 0.779434
O O10 0.886926 0.760134 0.681443
O O11 0.918885 0.000000 0.732160
O O12 0.250000 0.675678 0.566105
O O13 0.093390 0.500000 0.560695
O O14 0.088511 0.762976 0.519611
O O15 0.750000 0.173131 0.533147
O O16 0.913217 0.259082 0.580760
O O17 0.907262 0.000000 0.537170
O O18 0.250000 0.761981 0.953404
O O19 0.142817 0.000000 0.970723
O O20 0.250000 0.297740 0.189863
O O21 0.389631 0.500000 0.177276
O O22 0.250000 0.654124 0.375950
O O23 0.087703 0.500000 0.362809
#
# Coordination Sequence:
#
# PCOD8211363 Si02
#       8
#     8   8   8   8   8   8   8   8
#     4   9  17  31  55  85 114 150 195 235 271 316
#     4   9  19  37  58  78 101 129 164 210 264 319
#     4  11  23  38  58  81 102 131 175 222 265 314
#     4   9  16  27  47  75 103 132 167 206 254 314
#     4   9  16  27  46  72 102 136 172 210 254 308
#     4   8  14  27  51  85 122 155 189 232 278 320
#     4  11  24  40  57  79 110 146 181 222 273 321
#     4  10  20  34  52  75 106 140 170 208 263 321
#
# _framework density 20.049562000000002
#
# number of rings (size 3 to 8) (size 9 to 14) (size 15 to 20)
#    0.000    2.500    0.000    3.375    0.000    7.750 
#    0.000    2.500    0.000    8.625    0.000    0.000 
#    0.000    0.000    0.000    0.000    0.000    0.000 
#
# Total GULP energy -793640.716716 kJ/mol
# GULP energy per Si atom -12400.636199 kJ/mol
# Density = 2.000393 g / cm^3
# Si number density = 20.049562 Si / 1000 Ang^3
#
#
#
# Elastic Constant Matrix: (Units=GPa)
#
#
# Indices 1 2 3 4 5 6 
#
# 1 52.2002 27.9971 5.3418 0.0000 0.0000 0.0000
# 2 27.9971 124.3034 53.8730 0.0000 0.0000 0.0000
# 3 5.3418 53.8730 80.9469 0.0000 0.0000 0.0000
# 4 0.0000 0.0000 0.0000 10.6213 0.0000 0.0000
# 5 0.0000 0.0000 0.0000 0.0000 29.9935 0.0000
# 6 0.0000 0.0000 0.0000 0.0000 0.0000 18.2889
#
#
#
# Elastic Compliance Matrix: (Units=1/GPa)
#
#
# Indices 1 2 3 4 5 6 
#
# 1 0.022176 -0.006128 0.002615 0.000000 0.000000 0.000000
# 2 -0.006128 0.012999 -0.008247 0.000000 0.000000 0.000000
# 3 0.002615 -0.008247 0.017670 0.000000 0.000000 0.000000
# 4 0.000000 0.000000 0.000000 0.094150 0.000000 0.000000
# 5 0.000000 0.000000 0.000000 0.000000 0.033341 0.000000
# 6 0.000000 0.000000 0.000000 0.000000 0.000000 0.054678
#
#
# Mechanical properties :
#
#
# Convention : Reuss Voigt Hill
#
# Bulk Modulus (GPa) = 34.10050 47.98603 41.04326
# Shear Modulus (GPa) = 18.63520 23.13000 20.88260
#
# Velocity S-wave (km/s) = 3.05201 3.40021 3.23081
# Velocity P-wave (km/s) = 5.42814 6.27702 5.86795
#
# Compressibility (1/GPa) = 0.02932508
#
# Stress axis : x y z
#
# Youngs Moduli (GPa) = 45.09337 76.92672 56.59325
#
# Poissons Ratio (x) = 0.47142 -0.14799
# Poissons Ratio (y) = 0.27634 0.46673
# Poissons Ratio (z) = -0.11792 0.63442
#
# Static dielectric constant tensor:
#      x y z
#    x 3.905050 0.000000 0.000000 
#    y 0.000000 3.635530 0.000000 
#    z 0.000000 0.000000 3.453200 
# 
# 
# High freq. dielectric constant tensor:
#      x y z
#    x 1.795900 0.000000 0.000000 
#    y 0.000000 1.774180 0.000000 
#    z 0.000000 0.000000 1.764160 
# 
# From -- ./inp_files/35617.got.cif
#   From: 2010.03.12/outbox.cif.g09.slc.cpg/sg51_18_cif.got.tgz:35617.got - 2010.04.16 13:43:02.
