data_PCOD8211394
_publ_section_title
;
Structure prediction by ZEFSAII (Michael W. Deem and Ramdas Pophale) SiO2 
 PCOD8211394
Probable space group: P M M A
;
_chemical_formula_sum "Si O2"
_cell_formula_units_Z 48
_cell_length_a 9.567435
_cell_length_b 17.471234
_cell_length_c 15.095973
_cell_angle_alpha 90.000000
_cell_angle_beta 90.000000
_cell_angle_gamma 90.000000
_cell_volume 2523.365792
_symmetry_space_group_name_H-M "P M M A"
_symmetry_group_IT_number 51
_symmetry_cell_setting 'orthorhombic'
loop_
_space_group_symop_operation_xyz
x,y,z
1/2-x,-y,z
1/2+x,-y,-z
-x,y,-z
-x,-y,-z
1/2+x,y,-z
1/2-x,y,z
x,-y,z
loop_
_atom_site_type_symbol
_atom_site_label
_atom_site_fract_x
_atom_site_fract_y
_atom_site_fract_z
Si Si1 0.538340 0.638807 0.811319
Si Si2 0.750000 0.412894 0.142457
Si Si3 0.588312 0.912447 0.084189
Si Si4 0.096006 0.587675 0.373186
Si Si5 0.589887 0.789027 0.227429
Si Si6 0.086842 0.732992 0.580763
Si Si7 0.750000 0.590133 0.950144
O O1 0.383384 0.606074 0.799472
O O2 0.623625 0.602738 0.730795
O O3 0.524351 0.730304 0.809987
O O4 0.609282 0.617595 0.903065
O O5 0.750000 0.500000 0.116135
O O6 0.750000 0.370446 0.046892
O O7 0.750000 0.904006 0.057902
O O8 0.556738 0.868308 0.176846
O O9 0.546829 0.000000 0.103456
O O10 0.500000 0.880865 0.000000
O O11 0.250000 0.600065 0.417565
O O12 0.044944 0.500000 0.390056
O O13 0.979793 0.647822 0.406611
O O14 0.750000 0.763266 0.206391
O O15 0.569654 0.789344 0.334376
O O16 0.250000 0.723578 0.556518
O O17 0.000000 0.771684 0.500000
O O18 0.750000 0.500000 0.951944
#
# Coordination Sequence:
#
# PCOD8211394 Si02
#       7
#     8   4   8   8   8   8   4
#     4  11  20  35  49  69  99 135 182 233 276 325
#     4  11  22  32  46  64  92 138 182 227 282 326
#     4   9  18  35  59  87 119 151 182 218 263 318
#     4  10  20  34  53  73  98 134 177 228 281 333
#     4   9  19  37  56  80 108 142 183 220 268 329
#     4  10  21  37  57  79 107 139 179 228 276 331
#     4  11  22  34  46  66  96 134 184 235 280 322
#
# _framework density 19.022212
#
# number of rings (size 3 to 8) (size 9 to 14) (size 15 to 20)
#    0.000    2.000    1.667    2.500    1.167    3.333 
#    1.500    0.000    0.000    0.500    0.000    0.000 
#    0.000    0.000    0.000    0.000    0.000    0.667 
#
# Total GULP energy -594785.145330 kJ/mol
# GULP energy per Si atom -12391.357194 kJ/mol
# Density = 1.897892 g / cm^3
# Si number density = 19.022212 Si / 1000 Ang^3
#
#
#
# Elastic Constant Matrix: (Units=GPa)
#
#
# Indices 1 2 3 4 5 6 
#
# 1 105.4350 31.6322 37.0061 0.0000 0.0000 0.0000
# 2 31.6322 71.4954 47.5631 0.0000 0.0000 0.0000
# 3 37.0061 47.5631 101.5539 0.0000 0.0000 0.0000
# 4 0.0000 0.0000 0.0000 19.7547 0.0000 0.0000
# 5 0.0000 0.0000 0.0000 0.0000 36.5001 0.0000
# 6 0.0000 0.0000 0.0000 0.0000 0.0000 19.8998
#
#
#
# Elastic Compliance Matrix: (Units=1/GPa)
#
#
# Indices 1 2 3 4 5 6 
#
# 1 0.011390 -0.003309 -0.002601 0.000000 0.000000 0.000000
# 2 -0.003309 0.021279 -0.008760 0.000000 0.000000 0.000000
# 3 -0.002601 -0.008760 0.014897 0.000000 0.000000 0.000000
# 4 0.000000 0.000000 0.000000 0.050621 0.000000 0.000000
# 5 0.000000 0.000000 0.000000 0.000000 0.027397 0.000000
# 6 0.000000 0.000000 0.000000 0.000000 0.000000 0.050252
#
#
# Mechanical properties :
#
#
# Convention : Reuss Voigt Hill
#
# Bulk Modulus (GPa) = 54.86562 56.76525 55.81544
# Shear Modulus (GPa) = 23.66844 26.04978 24.85911
#
# Velocity S-wave (km/s) = 3.53122 3.70461 3.61896
# Velocity P-wave (km/s) = 6.74771 6.94300 6.84605
#
# Compressibility (1/GPa) = 0.01822635
#
# Stress axis : x y z
#
# Youngs Moduli (GPa) = 87.79522 46.99506 67.12549
#
# Poissons Ratio (x) = 0.15552 0.17457
# Poissons Ratio (y) = 0.29054 0.58803
# Poissons Ratio (z) = 0.22832 0.41168
#
# Static dielectric constant tensor:
#      x y z
#    x 3.473660 0.000000 0.000000 
#    y 0.000000 3.247970 0.000000 
#    z 0.000000 0.000000 3.692730 
# 
# 
# High freq. dielectric constant tensor:
#      x y z
#    x 1.748720 0.000000 0.000000 
#    y 0.000000 1.699300 0.000000 
#    z 0.000000 0.000000 1.743780 
# 
# From -- ./inp_files/21233.got.cif
#   From: 2010.03.12/outbox.cif.g09.slc.cpg/sg51_11_cif.got.tgz:21233.got - 2010.04.16 13:43:02.
