data_PCOD8211470
_publ_section_title
;
Structure prediction by ZEFSAII (Michael W. Deem and Ramdas Pophale) SiO2 
 PCOD8211470
Probable space group: P M M A
;
_chemical_formula_sum "Si O2"
_cell_formula_units_Z 56
_cell_length_a 14.921677
_cell_length_b 9.150971
_cell_length_c 21.828650
_cell_angle_alpha 90.000000
_cell_angle_beta 90.000000
_cell_angle_gamma 90.000000
_cell_volume 2980.654866
_symmetry_space_group_name_H-M "P M M A"
_symmetry_group_IT_number 51
_symmetry_cell_setting 'orthorhombic'
loop_
_space_group_symop_operation_xyz
x,y,z
1/2-x,-y,z
1/2+x,-y,-z
-x,y,-z
-x,-y,-z
1/2+x,y,-z
1/2-x,y,z
x,-y,z
loop_
_atom_site_type_symbol
_atom_site_label
_atom_site_fract_x
_atom_site_fract_y
_atom_site_fract_z
Si Si1 0.647845 0.168687 0.943618
Si Si2 0.493654 0.827767 0.850927
Si Si3 0.352432 0.171168 0.622230
Si Si4 0.354207 0.329887 0.933314
Si Si5 0.003248 0.172380 0.286097
Si Si6 0.352915 0.828178 0.381803
Si Si7 0.356311 0.664294 0.502164
O O1 0.750000 0.203640 0.924226
O O2 0.584901 0.210017 0.886791
O O3 0.636582 0.000000 0.962449
O O4 0.617180 0.264003 0.001361
O O5 0.408812 0.748049 0.879955
O O6 0.505024 0.763382 0.782431
O O7 0.474077 0.000000 0.851226
O O8 0.250000 0.214310 0.636915
O O9 0.411438 0.219837 0.680373
O O10 0.390744 0.254228 0.562856
O O11 0.361931 0.000000 0.608583
O O12 0.250000 0.299740 0.920475
O O13 0.377218 0.500000 0.934139
O O14 0.089178 0.228691 0.324235
O O15 0.009232 0.000000 0.281218
O O16 0.250000 0.787371 0.368207
O O17 0.390754 0.748267 0.442106
O O18 0.365061 0.000000 0.392928
O O19 0.250000 0.665847 0.502283
O O20 0.394549 0.500000 0.501632
#
# Coordination Sequence:
#
# PCOD8211470 Si02
#       7
#     8   8   8   8   8   8   8
#     4   9  18  33  54  80 107 134 166 206 252 299
#     4  10  20  34  53  77 105 136 170 208 250 297
#     4   9  17  31  50  69  92 124 161 200 242 289
#     4  10  21  36  54  77 104 134 169 209 253 299
#     4   9  19  33  49  73 100 128 165 201 236 286
#     4   9  17  31  51  72  96 127 161 198 241 290
#     4   9  17  30  49  72  96 122 156 202 252 293
#
# _framework density 18.787818999999999
#
# number of rings (size 3 to 8) (size 9 to 14) (size 15 to 20)
#    0.000    2.714    0.000    1.286    0.000    6.571 
#    0.000    9.286    0.000    1.714    0.000    4.000 
#    0.000    0.000    0.000    0.000    0.000    0.000 
#
# Total GULP energy -694423.983058 kJ/mol
# GULP energy per Si atom -12400.428269 kJ/mol
# Density = 1.874506 g / cm^3
# Si number density = 18.787819 Si / 1000 Ang^3
#
#
#
# Elastic Constant Matrix: (Units=GPa)
#
#
# Indices 1 2 3 4 5 6 
#
# 1 94.2766 35.3101 77.2892 0.0000 0.0000 0.0000
# 2 35.3101 61.4107 55.2140 0.0000 0.0000 0.0000
# 3 77.2892 55.2140 186.4000 0.0000 0.0000 0.0000
# 4 0.0000 0.0000 0.0000 2.6877 0.0000 0.0000
# 5 0.0000 0.0000 0.0000 0.0000 28.1961 0.0000
# 6 0.0000 0.0000 0.0000 0.0000 0.0000 16.0806
#
#
#
# Elastic Compliance Matrix: (Units=1/GPa)
#
#
# Indices 1 2 3 4 5 6 
#
# 1 0.017005 -0.004686 -0.005663 0.000000 0.000000 0.000000
# 2 -0.004686 0.023486 -0.005014 0.000000 0.000000 0.000000
# 3 -0.005663 -0.005014 0.009198 0.000000 0.000000 0.000000
# 4 0.000000 0.000000 0.000000 0.372069 0.000000 0.000000
# 5 0.000000 0.000000 0.000000 0.000000 0.035466 0.000000
# 6 0.000000 0.000000 0.000000 0.000000 0.000000 0.062187
#
#
# Mechanical properties :
#
#
# Convention : Reuss Voigt Hill
#
# Bulk Modulus (GPa) = 52.73303 75.30155 64.01729
# Shear Modulus (GPa) = 8.98542 21.01113 14.99828
#
# Velocity S-wave (km/s) = 2.18928 3.34778 2.82848
# Velocity P-wave (km/s) = 5.87531 7.42365 6.69439
#
# Compressibility (1/GPa) = 0.01896345
#
# Stress axis : x y z
#
# Youngs Moduli (GPa) = 58.80774 42.57840 108.71927
#
# Poissons Ratio (x) = 0.19952 0.61565
# Poissons Ratio (y) = 0.27557 0.54511
# Poissons Ratio (z) = 0.33301 0.21348
#
# Static dielectric constant tensor:
#      x y z
#    x 3.492750 0.000000 0.000000 
#    y 0.000000 3.313490 0.000000 
#    z 0.000000 0.000000 3.626470 
# 
# 
# High freq. dielectric constant tensor:
#      x y z
#    x 1.734980 0.000000 0.000000 
#    y 0.000000 1.707470 0.000000 
#    z 0.000000 0.000000 1.727140 
# 
# From -- ./inp_files/33377.got.cif
#   From: 2010.03.12/outbox.cif.g09.slc.cpg/sg51_17_cif.got.tgz:33377.got - 2010.04.16 13:43:02.
