data_PCOD8211741
_publ_section_title
;
Structure prediction by ZEFSAII (Michael W. Deem and Ramdas Pophale) SiO2 
 PCOD8211741
Probable space group: P M M A
;
_chemical_formula_sum "Si O2"
_cell_formula_units_Z 64
_cell_length_a 20.258927
_cell_length_b 18.120976
_cell_length_c 9.220291
_cell_angle_alpha 90.000000
_cell_angle_beta 90.000000
_cell_angle_gamma 90.000000
_cell_volume 3384.875136
_symmetry_space_group_name_H-M "P M M A"
_symmetry_group_IT_number 51
_symmetry_cell_setting 'orthorhombic'
loop_
_space_group_symop_operation_xyz
x,y,z
1/2-x,-y,z
1/2+x,-y,-z
-x,y,-z
-x,-y,-z
1/2+x,y,-z
1/2-x,y,z
x,-y,z
loop_
_atom_site_type_symbol
_atom_site_label
_atom_site_fract_x
_atom_site_fract_y
_atom_site_fract_z
Si Si1 0.826509 0.666145 0.573275
Si Si2 0.177074 0.338585 0.101627
Si Si3 0.561700 0.587099 0.404255
Si Si4 0.437644 0.337284 0.897362
Si Si5 0.937997 0.168166 0.104069
Si Si6 0.826463 0.837251 0.576153
Si Si7 0.438756 0.087066 0.598194
Si Si8 0.677117 0.163009 0.901637
O O1 0.750000 0.654554 0.532450
O O2 0.840588 0.635337 0.735347
O O3 0.870260 0.621025 0.460970
O O4 0.845860 0.751769 0.560779
O O5 0.250000 0.367134 0.057792
O O6 0.175737 0.250778 0.104023
O O7 0.125123 0.369544 0.985527
O O8 0.500000 0.614898 0.500000
O O9 0.568156 0.500000 0.409197
O O10 0.549378 0.612694 0.240995
O O11 0.425120 0.252800 0.849458
O O12 0.500000 0.343079 0.000000
O O13 0.951283 0.120108 0.244304
O O14 0.875228 0.134022 0.018720
O O15 0.000000 0.162393 0.000000
O O16 0.750000 0.849324 0.535291
O O17 0.870168 0.884258 0.466487
O O18 0.840163 0.865617 0.740061
O O19 0.500000 0.112814 0.500000
O O20 0.434899 0.000000 0.611613
O O21 0.750000 0.135079 0.947552
#
# Coordination Sequence:
#
# PCOD8211741 Si02
#       8
#     8   8   8   8   8   8   8   8
#     4   9  18  35  60  85 107 136 176 221 268 318
#     4   8  15  30  53  80 106 130 163 212 266 316
#     4  11  24  38  52  75 110 149 184 220 265 319
#     4  10  20  34  55  80 103 133 177 226 271 315
#     4  10  20  34  55  80 103 133 177 226 271 315
#     4   9  18  35  60  85 107 136 176 221 268 318
#     4  11  24  38  52  75 110 149 184 220 265 319
#     4   8  15  30  53  80 106 130 163 212 266 316
#
# _framework density 18.907641000000002
#
# number of rings (size 3 to 8) (size 9 to 14) (size 15 to 20)
#    0.000    2.500    0.000    3.750    0.000    6.000 
#    0.000    3.750    0.000    1.500    0.000    0.000 
#    0.000    0.000    0.000    0.000    0.000    0.000 
#
# Total GULP energy -793619.821926 kJ/mol
# GULP energy per Si atom -12400.309718 kJ/mol
# Density = 1.886461 g / cm^3
# Si number density = 18.907641 Si / 1000 Ang^3
#
#
#
# Elastic Constant Matrix: (Units=GPa)
#
#
# Indices 1 2 3 4 5 6 
#
# 1 94.8084 26.2277 40.4840 0.0000 0.0000 0.0000
# 2 26.2277 35.8308 20.0201 0.0000 0.0000 0.0000
# 3 40.4840 20.0201 87.5878 0.0000 0.0000 0.0000
# 4 0.0000 0.0000 0.0000 16.6909 0.0000 0.0000
# 5 0.0000 0.0000 0.0000 0.0000 36.8420 0.0000
# 6 0.0000 0.0000 0.0000 0.0000 0.0000 18.2759
#
#
#
# Elastic Compliance Matrix: (Units=1/GPa)
#
#
# Indices 1 2 3 4 5 6 
#
# 1 0.014953 -0.008121 -0.005055 0.000000 0.000000 0.000000
# 2 -0.008121 0.036405 -0.004568 0.000000 0.000000 0.000000
# 3 -0.005055 -0.004568 0.014798 0.000000 0.000000 0.000000
# 4 0.000000 0.000000 0.000000 0.059913 0.000000 0.000000
# 5 0.000000 0.000000 0.000000 0.000000 0.027143 0.000000
# 6 0.000000 0.000000 0.000000 0.000000 0.000000 0.054717
#
#
# Mechanical properties :
#
#
# Convention : Reuss Voigt Hill
#
# Bulk Modulus (GPa) = 32.60661 43.52119 38.06390
# Shear Modulus (GPa) = 19.71309 23.12810 21.42060
#
# Velocity S-wave (km/s) = 3.23243 3.50124 3.36952
# Velocity P-wave (km/s) = 5.58696 6.27795 5.94251
#
# Compressibility (1/GPa) = 0.03066863
#
# Stress axis : x y z
#
# Youngs Moduli (GPa) = 66.87775 27.46842 67.57794
#
# Poissons Ratio (x) = 0.22306 0.34161
# Poissons Ratio (y) = 0.54309 0.30868
# Poissons Ratio (z) = 0.33808 0.12547
#
# Static dielectric constant tensor:
#      x y z
#    x 3.810360 0.000000 0.000000 
#    y 0.000000 3.126410 0.000000 
#    z 0.000000 0.000000 3.486580 
# 
# 
# High freq. dielectric constant tensor:
#      x y z
#    x 1.750090 0.000000 0.000000 
#    y 0.000000 1.697460 0.000000 
#    z 0.000000 0.000000 1.739010 
# 
# From -- ./inp_files/10051.got.cif
#   From: 2010.03.12/outbox.cif.g09.slc.cpg/sg51_6_cif.got.tgz:10051.got - 2010.04.16 13:43:02.
