data_PCOD8211313
_publ_section_title
;
Structure prediction by ZEFSAII (Michael W. Deem and Ramdas Pophale) SiO2 
 PCOD8211313
Probable space group: P M M A
;
_chemical_formula_sum "Si O2"
_cell_formula_units_Z 64
_cell_length_a 19.989812
_cell_length_b 8.947220
_cell_length_c 17.859265
_cell_angle_alpha 90.000000
_cell_angle_beta 90.000000
_cell_angle_gamma 90.000000
_cell_volume 3194.187511
_symmetry_space_group_name_H-M "P M M A"
_symmetry_group_IT_number 51
_symmetry_cell_setting 'orthorhombic'
loop_
_space_group_symop_operation_xyz
x,y,z
1/2-x,-y,z
1/2+x,-y,-z
-x,y,-z
-x,-y,-z
1/2+x,y,-z
1/2-x,y,z
x,-y,z
loop_
_atom_site_type_symbol
_atom_site_label
_atom_site_fract_x
_atom_site_fract_y
_atom_site_fract_z
Si Si1 0.998013 0.828552 0.874202
Si Si2 0.174292 0.324713 0.367862
Si Si3 0.322451 0.670899 0.777758
Si Si4 0.964430 0.323661 0.573125
Si Si5 0.173103 0.835938 0.219563
Si Si6 0.872110 0.323244 0.926842
Si Si7 0.965082 0.323269 0.276399
Si Si8 0.353272 0.829551 0.925651
O O1 0.947656 0.737317 0.926607
O O2 0.996896 0.759555 0.790924
O O3 0.068284 0.812222 0.913658
O O4 0.975218 0.000000 0.869191
O O5 0.250000 0.272069 0.392584
O O6 0.176082 0.500000 0.352455
O O7 0.115627 0.284812 0.427885
O O8 0.146161 0.249052 0.292564
O O9 0.250000 0.690908 0.735924
O O10 0.333436 0.500000 0.801995
O O11 0.385321 0.719097 0.725767
O O12 0.316445 0.766086 0.853275
O O13 0.974259 0.500000 0.571779
O O14 0.000000 0.252116 0.500000
O O15 0.003397 0.262516 0.646399
O O16 0.250000 0.860572 0.234072
O O17 0.163948 0.735436 0.147011
O O18 0.138636 0.000000 0.210829
O O19 0.870301 0.500000 0.928482
O O20 0.833399 0.261418 0.999892
O O21 0.976115 0.500000 0.266816
O O22 0.331012 0.000000 0.936938
#
# Coordination Sequence:
#
# PCOD8211313 Si02
#       8
#     8   8   8   8   8   8   8   8
#     4  10  20  34  52  73  98 128 167 215 262 311
#     4   9  17  31  52  77 105 138 176 216 258 308
#     4   9  18  33  51  71  96 128 170 219 267 315
#     4   9  17  30  50  78 110 140 170 207 253 306
#     4  10  21  36  53  73  98 130 169 212 256 304
#     4  12  23  33  49  72 100 134 169 210 261 314
#     4   9  17  31  52  75  99 132 173 214 260 315
#     4  10  21  35  50  70  97 130 169 215 265 314
#
# _framework density 20.036394999999999
#
# number of rings (size 3 to 8) (size 9 to 14) (size 15 to 20)
#    0.000    2.250    0.000    3.375    0.000    5.500 
#    0.000    0.625    0.000    5.250    0.000    0.000 
#    0.000    2.000    0.000    0.000    0.000    0.000 
#
# Total GULP energy -793169.236771 kJ/mol
# GULP energy per Si atom -12393.269325 kJ/mol
# Density = 1.999079 g / cm^3
# Si number density = 20.036395 Si / 1000 Ang^3
#
#
#
# Elastic Constant Matrix: (Units=GPa)
#
#
# Indices 1 2 3 4 5 6 
#
# 1 97.3292 16.7574 41.3113 0.0000 0.0000 0.0000
# 2 16.7574 86.6890 32.8152 0.0000 0.0000 0.0000
# 3 41.3113 32.8152 104.3639 0.0000 0.0000 0.0000
# 4 0.0000 0.0000 0.0000 7.9599 0.0000 0.0000
# 5 0.0000 0.0000 0.0000 0.0000 11.8285 0.0000
# 6 0.0000 0.0000 0.0000 0.0000 0.0000 14.7102
#
#
#
# Elastic Compliance Matrix: (Units=1/GPa)
#
#
# Indices 1 2 3 4 5 6 
#
# 1 0.012378 -0.000611 -0.004708 0.000000 0.000000 0.000000
# 2 -0.000611 0.013124 -0.003885 0.000000 0.000000 0.000000
# 3 -0.004708 -0.003885 0.012667 0.000000 0.000000 0.000000
# 4 0.000000 0.000000 0.000000 0.125630 0.000000 0.000000
# 5 0.000000 0.000000 0.000000 0.000000 0.084542 0.000000
# 6 0.000000 0.000000 0.000000 0.000000 0.000000 0.067980
#
#
# Mechanical properties :
#
#
# Convention : Reuss Voigt Hill
#
# Bulk Modulus (GPa) = 50.60120 52.23887 51.42004
# Shear Modulus (GPa) = 14.64925 20.06625 17.35775
#
# Velocity S-wave (km/s) = 2.70688 3.16807 2.94651
# Velocity P-wave (km/s) = 5.92276 6.28576 6.10696
#
# Compressibility (1/GPa) = 0.01976238
#
# Stress axis : x y z
#
# Youngs Moduli (GPa) = 80.79064 76.19560 78.94643
#
# Poissons Ratio (x) = 0.04653 0.37164
# Poissons Ratio (y) = 0.04934 0.30670
# Poissons Ratio (z) = 0.38033 0.29601
#
# Static dielectric constant tensor:
#      x y z
#    x 3.904490 0.000000 0.000000 
#    y 0.000000 3.739640 0.000000 
#    z 0.000000 0.000000 3.566760 
# 
# 
# High freq. dielectric constant tensor:
#      x y z
#    x 1.798280 0.000000 0.000000 
#    y 0.000000 1.767680 0.000000 
#    z 0.000000 0.000000 1.753800 
# 
# From -- ./inp_files/30517.got.cif
#   From: 2010.03.12/outbox.cif.g09.slc.cpg/sg51_16_cif.got.tgz:30517.got - 2010.04.16 13:43:02.
