data_PCOD8211915
_publ_section_title
;
Structure prediction by ZEFSAII (Michael W. Deem and Ramdas Pophale) SiO2 
 PCOD8211915
Probable space group: P M M A
;
_chemical_formula_sum "Si O2"
_cell_formula_units_Z 64
_cell_length_a 17.206453
_cell_length_b 13.940901
_cell_length_c 12.875403
_cell_angle_alpha 90.000000
_cell_angle_beta 90.000000
_cell_angle_gamma 90.000000
_cell_volume 3088.467439
_symmetry_space_group_name_H-M "P M M A"
_symmetry_group_IT_number 51
_symmetry_cell_setting 'orthorhombic'
loop_
_space_group_symop_operation_xyz
x,y,z
1/2-x,-y,z
1/2+x,-y,-z
-x,y,-z
-x,-y,-z
1/2+x,y,-z
1/2-x,y,z
x,-y,z
loop_
_atom_site_type_symbol
_atom_site_label
_atom_site_fract_x
_atom_site_fract_y
_atom_site_fract_z
Si Si1 0.096016 0.609551 0.186419
Si Si2 0.657825 0.892232 0.548122
Si Si3 0.336638 0.612880 0.968303
Si Si4 0.585760 0.111415 0.959113
Si Si5 0.160191 0.201967 0.238347
Si Si6 0.659520 0.106096 0.164446
Si Si7 0.417030 0.389356 0.761435
Si Si8 0.657268 0.769026 0.354229
O O1 0.123627 0.500000 0.207418
O O2 0.148897 0.683107 0.252981
O O3 0.007782 0.624476 0.219200
O O4 0.107512 0.637181 0.065088
O O5 0.750000 0.895589 0.541780
O O6 0.630615 0.851141 0.658502
O O7 0.627214 0.821494 0.458117
O O8 0.624385 0.000000 0.532890
O O9 0.250000 0.655906 0.986089
O O10 0.331674 0.500000 0.955133
O O11 0.372121 0.654157 0.861696
O O12 0.604902 0.168784 0.855042
O O13 0.600423 0.000000 0.934869
O O14 0.500000 0.132389 0.000000
O O15 0.642003 0.150149 0.050869
O O16 0.250000 0.177254 0.215557
O O17 0.750000 0.097028 0.182046
O O18 0.625577 0.168394 0.257841
O O19 0.620566 0.000000 0.169696
O O20 0.396871 0.500000 0.742038
O O21 0.386552 0.332840 0.659396
O O22 0.750000 0.753505 0.354429
#
# Coordination Sequence:
#
# PCOD8211915 Si02
#       8
#     8   8   8   8   8   8   8   8
#     4  10  22  38  55  79 116 160 202 245 297 356
#     4   9  19  39  65  91 117 148 193 246 296 350
#     4   9  17  31  53  81 113 150 194 243 289 342
#     4  10  22  37  56  86 124 158 188 234 296 359
#     4  11  23  38  63  90 115 156 205 248 296 352
#     4   9  18  33  54  81 113 149 188 231 286 351
#     4  10  21  36  55  81 118 162 200 240 298 360
#     4  10  20  34  59  89 115 148 193 243 295 345
#
# _framework density 20.722252000000001
#
# number of rings (size 3 to 8) (size 9 to 14) (size 15 to 20)
#    0.000    2.250    0.000    2.250    3.500    5.750 
#    0.000    1.250    0.000    4.500    0.000    0.000 
#    0.000    0.000    0.000    0.000    0.000    0.000 
#
# Total GULP energy -793500.986110 kJ/mol
# GULP energy per Si atom -12398.452908 kJ/mol
# Density = 2.067509 g / cm^3
# Si number density = 20.722252 Si / 1000 Ang^3
#
#
#
# Elastic Constant Matrix: (Units=GPa)
#
#
# Indices 1 2 3 4 5 6 
#
# 1 54.3108 35.0891 34.9547 0.0000 0.0000 0.0000
# 2 35.0891 106.1494 74.1555 0.0000 0.0000 0.0000
# 3 34.9547 74.1555 137.4036 0.0000 0.0000 0.0000
# 4 0.0000 0.0000 0.0000 37.9064 0.0000 0.0000
# 5 0.0000 0.0000 0.0000 0.0000 19.1486 0.0000
# 6 0.0000 0.0000 0.0000 0.0000 0.0000 27.5763
#
#
#
# Elastic Compliance Matrix: (Units=1/GPa)
#
#
# Indices 1 2 3 4 5 6 
#
# 1 0.024132 -0.005921 -0.002944 0.000000 0.000000 0.000000
# 2 -0.005921 0.016575 -0.007439 0.000000 0.000000 0.000000
# 3 -0.002944 -0.007439 0.012041 0.000000 0.000000 0.000000
# 4 0.000000 0.000000 0.000000 0.026381 0.000000 0.000000
# 5 0.000000 0.000000 0.000000 0.000000 0.052223 0.000000
# 6 0.000000 0.000000 0.000000 0.000000 0.000000 0.036263
#
#
# Mechanical properties :
#
#
# Convention : Reuss Voigt Hill
#
# Bulk Modulus (GPa) = 49.64867 65.14024 57.39446
# Shear Modulus (GPa) = 24.16197 27.17056 25.66627
#
# Velocity S-wave (km/s) = 3.41837 3.62495 3.52317
# Velocity P-wave (km/s) = 6.29217 7.00168 6.65638
#
# Compressibility (1/GPa) = 0.02014152
#
# Stress axis : x y z
#
# Youngs Moduli (GPa) = 41.43797 60.33269 83.04623
#
# Poissons Ratio (x) = 0.35722 0.24447
# Poissons Ratio (y) = 0.24535 0.61778
# Poissons Ratio (z) = 0.12198 0.44882
#
# Static dielectric constant tensor:
#      x y z
#    x 3.488890 0.000000 0.000000 
#    y 0.000000 4.040260 0.000000 
#    z 0.000000 0.000000 3.691880 
# 
# 
# High freq. dielectric constant tensor:
#      x y z
#    x 1.790100 0.000000 0.000000 
#    y 0.000000 1.824630 0.000000 
#    z 0.000000 0.000000 1.792300 
# 
# From -- ./inp_files/17559.got.cif
#   From: 2010.03.12/outbox.cif.g09.slc.cpg/sg51_9_cif.got.tgz:17559.got - 2010.04.16 13:43:02.
