data_PCOD8211151
_publ_section_title
;
Structure prediction by ZEFSAII (Michael W. Deem and Ramdas Pophale) SiO2 
 PCOD8211151
Probable space group: P M M A
;
_chemical_formula_sum "Si O2"
_cell_formula_units_Z 64
_cell_length_a 13.685170
_cell_length_b 9.127711
_cell_length_c 26.314415
_cell_angle_alpha 90.000000
_cell_angle_beta 90.000000
_cell_angle_gamma 90.000000
_cell_volume 3287.046118
_symmetry_space_group_name_H-M "P M M A"
_symmetry_group_IT_number 51
_symmetry_cell_setting 'orthorhombic'
loop_
_space_group_symop_operation_xyz
x,y,z
1/2-x,-y,z
1/2+x,-y,-z
-x,y,-z
-x,-y,-z
1/2+x,y,-z
1/2-x,y,z
x,-y,z
loop_
_atom_site_type_symbol
_atom_site_label
_atom_site_fract_x
_atom_site_fract_y
_atom_site_fract_z
Si Si1 0.134365 0.664418 0.967754
Si Si2 0.858483 0.329611 0.626190
Si Si3 0.862942 0.673794 0.220048
Si Si4 0.639638 0.167746 0.933534
Si Si5 0.050857 0.329135 0.675565
Si Si6 0.453887 0.830540 0.874276
Si Si7 0.866438 0.165015 0.526143
Si Si8 0.865743 0.334092 0.428764
O O1 0.250000 0.660603 0.969980
O O2 0.091924 0.500000 0.961595
O O3 0.105892 0.765171 0.920910
O O4 0.096519 0.733170 0.020805
O O5 0.750000 0.272442 0.641552
O O6 0.854561 0.500000 0.612754
O O7 0.901188 0.251104 0.576225
O O8 0.933766 0.299207 0.672456
O O9 0.750000 0.718840 0.213993
O O10 0.876023 0.500000 0.216411
O O11 0.903796 0.739136 0.273292
O O12 0.927731 0.745767 0.176633
O O13 0.750000 0.213152 0.918012
O O14 0.569848 0.189590 0.884775
O O15 0.636652 0.000000 0.952448
O O16 0.075359 0.500000 0.677062
O O17 0.101509 0.263488 0.625032
O O18 0.425247 0.000000 0.868255
O O19 0.750000 0.170375 0.523989
O O20 0.910282 0.238989 0.475135
O O21 0.905760 0.000000 0.529134
O O22 0.750000 0.332251 0.431422
O O23 0.905867 0.500000 0.433775
#
# Coordination Sequence:
#
# PCOD8211151 Si02
#       8
#     8   8   8   8   8   8   8   8
#     4  10  20  33  52  81 114 145 177 215 260 307
#     4   9  17  31  51  72  95 125 161 200 242 292
#     4  10  21  38  58  78 102 132 167 211 262 310
#     4   9  19  36  55  76 107 145 180 214 254 302
#     4   9  18  33  53  74  94 122 164 209 250 295
#     4  11  22  35  54  79 106 140 180 217 256 304
#     4   9  17  29  45  68 100 132 158 191 239 292
#     4   9  16  28  48  71  94 123 160 199 240 290
#
# _framework density 19.470369000000002
#
# number of rings (size 3 to 8) (size 9 to 14) (size 15 to 20)
#    0.000    2.500    0.000    2.250    0.000    8.500 
#    0.000    5.000    0.000    2.250    0.000    0.000 
#    0.000    0.000    0.000    0.000    0.000    0.000 
#
# Total GULP energy -793514.104737 kJ/mol
# GULP energy per Si atom -12398.657887 kJ/mol
# Density = 1.942605 g / cm^3
# Si number density = 19.470369 Si / 1000 Ang^3
#
#
#
# Elastic Constant Matrix: (Units=GPa)
#
#
# Indices 1 2 3 4 5 6 
#
# 1 54.7541 32.1485 54.3531 0.0000 0.0000 0.0000
# 2 32.1485 67.6002 45.6574 0.0000 0.0000 0.0000
# 3 54.3531 45.6574 133.3795 0.0000 0.0000 0.0000
# 4 0.0000 0.0000 0.0000 6.3139 0.0000 0.0000
# 5 0.0000 0.0000 0.0000 0.0000 32.5023 0.0000
# 6 0.0000 0.0000 0.0000 0.0000 0.0000 18.3800
#
#
#
# Elastic Compliance Matrix: (Units=1/GPa)
#
#
# Indices 1 2 3 4 5 6 
#
# 1 0.034393 -0.008962 -0.010947 0.000000 0.000000 0.000000
# 2 -0.008962 0.021577 -0.003734 0.000000 0.000000 0.000000
# 3 -0.010947 -0.003734 0.013237 0.000000 0.000000 0.000000
# 4 0.000000 0.000000 0.000000 0.158381 0.000000 0.000000
# 5 0.000000 0.000000 0.000000 0.000000 0.030767 0.000000
# 6 0.000000 0.000000 0.000000 0.000000 0.000000 0.054407
#
#
# Mechanical properties :
#
#
# Convention : Reuss Voigt Hill
#
# Bulk Modulus (GPa) = 45.62167 57.78352 51.70259
# Shear Modulus (GPa) = 13.61080 19.67754 16.64417
#
# Velocity S-wave (km/s) = 2.64683 3.18251 2.92695
# Velocity P-wave (km/s) = 5.72915 6.57621 6.16724
#
# Compressibility (1/GPa) = 0.02191941
#
# Stress axis : x y z
#
# Youngs Moduli (GPa) = 29.07582 46.34596 75.54736
#
# Poissons Ratio (x) = 0.41536 0.82705
# Poissons Ratio (y) = 0.26058 0.28208
# Poissons Ratio (z) = 0.31831 0.17305
#
# Static dielectric constant tensor:
#      x y z
#    x 3.702860 0.000000 0.000000 
#    y 0.000000 3.534650 0.000000 
#    z 0.000000 0.000000 3.524000 
# 
# 
# High freq. dielectric constant tensor:
#      x y z
#    x 1.772550 0.000000 0.000000 
#    y 0.000000 1.740030 0.000000 
#    z 0.000000 0.000000 1.740470 
# 
# From -- ./inp_files/35686.got.cif
#   From: 2010.03.12/outbox.cif.g09.slc.cpg/sg51_18_cif.got.tgz:35686.got - 2010.04.16 13:43:02.
