data_PCOD8211824
_publ_section_title
;
Structure prediction by ZEFSAII (Michael W. Deem and Ramdas Pophale) SiO2 
 PCOD8211824
Probable space group: P M M A
;
_chemical_formula_sum "Si O2"
_cell_formula_units_Z 48
_cell_length_a 23.346805
_cell_length_b 8.483647
_cell_length_c 11.336653
_cell_angle_alpha 90.000000
_cell_angle_beta 90.000000
_cell_angle_gamma 90.000000
_cell_volume 2245.406105
_symmetry_space_group_name_H-M "P M M A"
_symmetry_group_IT_number 51
_symmetry_cell_setting 'orthorhombic'
loop_
_space_group_symop_operation_xyz
x,y,z
1/2-x,-y,z
1/2+x,-y,-z
-x,y,-z
-x,-y,-z
1/2+x,y,-z
1/2-x,y,z
x,-y,z
loop_
_atom_site_type_symbol
_atom_site_label
_atom_site_fract_x
_atom_site_fract_y
_atom_site_fract_z
Si Si1 0.183798 0.815945 0.870027
Si Si2 0.869874 0.684491 0.898894
Si Si3 0.184664 0.820402 0.321292
Si Si4 0.977384 0.816037 0.775309
Si Si5 0.915907 0.681561 0.556084
Si Si6 0.907475 0.315369 0.288578
O O1 0.250000 0.761491 0.859809
O O2 0.150355 0.776097 0.749185
O O3 0.180364 0.000000 0.898580
O O4 0.149999 0.718693 0.969146
O O5 0.869273 0.500000 0.873669
O O6 0.824416 0.769426 0.813758
O O7 0.933756 0.747907 0.872721
O O8 0.250000 0.802623 0.356970
O O9 0.150144 0.707005 0.408902
O O10 0.163311 0.000000 0.335222
O O11 0.955011 0.784744 0.642634
O O12 0.038994 0.733751 0.793599
O O13 0.984839 0.000000 0.796830
O O14 0.933561 0.500000 0.572842
O O15 0.923757 0.735254 0.421618
O O16 0.895445 0.500000 0.278982
#
# Coordination Sequence:
#
# PCOD8211824 Si02
#       6
#     8   8   8   8   8   8
#     4  11  25  44  64  87 118 156 198 242 289 345
#     4  11  22  38  62  89 118 152 193 242 296 351
#     4  10  20  34  55  84 117 153 196 246 296 347
#     4  11  22  38  63  92 121 153 193 241 294 349
#     4  10  21  37  58  85 119 157 196 242 294 347
#     4  11  24  41  61  87 120 157 198 241 288 347
#
# _framework density 21.37698
#
# number of rings (size 3 to 8) (size 9 to 14) (size 15 to 20)
#    0.000    1.333    0.000    8.000    0.000   10.667 
#    0.000    6.667    0.000    0.000    0.000    0.000 
#    0.000    0.000    0.000    0.000    0.000    0.000 
#
# Total GULP energy -595375.069330 kJ/mol
# GULP energy per Si atom -12403.647278 kJ/mol
# Density = 2.132832 g / cm^3
# Si number density = 21.376980 Si / 1000 Ang^3
#
#
#
# Elastic Constant Matrix: (Units=GPa)
#
#
# Indices 1 2 3 4 5 6 
#
# 1 120.2414 28.5086 28.4231 0.0000 0.0000 0.0000
# 2 28.5086 61.4465 7.0750 0.0000 0.0000 0.0000
# 3 28.4231 7.0750 34.2060 0.0000 0.0000 0.0000
# 4 0.0000 0.0000 0.0000 27.3581 0.0000 0.0000
# 5 0.0000 0.0000 0.0000 0.0000 17.7134 0.0000
# 6 0.0000 0.0000 0.0000 0.0000 0.0000 27.2711
#
#
#
# Elastic Compliance Matrix: (Units=1/GPa)
#
#
# Indices 1 2 3 4 5 6 
#
# 1 0.011353 -0.004283 -0.008547 0.000000 0.000000 0.000000
# 2 -0.004283 0.018287 -0.000224 0.000000 0.000000 0.000000
# 3 -0.008547 -0.000224 0.036383 0.000000 0.000000 0.000000
# 4 0.000000 0.000000 0.000000 0.036552 0.000000 0.000000
# 5 0.000000 0.000000 0.000000 0.000000 0.056454 0.000000
# 6 0.000000 0.000000 0.000000 0.000000 0.000000 0.036669
#
#
# Mechanical properties :
#
#
# Convention : Reuss Voigt Hill
#
# Bulk Modulus (GPa) = 25.05315 38.21191 31.63253
# Shear Modulus (GPa) = 21.26653 24.59434 22.93044
#
# Velocity S-wave (km/s) = 3.15752 3.39559 3.27872
# Velocity P-wave (km/s) = 5.00384 5.76953 5.40027
#
# Compressibility (1/GPa) = 0.03991514
#
# Stress axis : x y z
#
# Youngs Moduli (GPa) = 88.08614 54.68314 27.48522
#
# Poissons Ratio (x) = 0.23420 0.23493
# Poissons Ratio (y) = 0.37727 0.00614
# Poissons Ratio (z) = 0.75291 0.01222
#
# Static dielectric constant tensor:
#      x y z
#    x 3.978470 0.000000 0.000000 
#    y 0.000000 3.854850 0.000000 
#    z 0.000000 0.000000 3.759260 
# 
# 
# High freq. dielectric constant tensor:
#      x y z
#    x 1.848720 0.000000 0.000000 
#    y 0.000000 1.847080 0.000000 
#    z 0.000000 0.000000 1.826860 
# 
# From -- ./inp_files/18589.got.cif
#   From: 2010.03.12/outbox.cif.g09.slc.cpg/sg51_10_cif.got.tgz:18589.got - 2010.04.16 13:43:02.
