data_PCOD8212864
_publ_section_title
;
Structure prediction by ZEFSAII (Michael W. Deem and Ramdas Pophale) SiO2 
 PCOD8212864
Probable space group: P M M A
;
_chemical_formula_sum "Si O2"
_cell_formula_units_Z 64
_cell_length_a 15.338711
_cell_length_b 19.053144
_cell_length_c 11.375877
_cell_angle_alpha 90.000000
_cell_angle_beta 90.000000
_cell_angle_gamma 90.000000
_cell_volume 3324.607669
_symmetry_space_group_name_H-M "P M M A"
_symmetry_group_IT_number 51
_symmetry_cell_setting 'orthorhombic'
loop_
_space_group_symop_operation_xyz
x,y,z
1/2-x,-y,z
1/2+x,-y,-z
-x,y,-z
-x,-y,-z
1/2+x,y,-z
1/2-x,y,z
x,-y,z
loop_
_atom_site_type_symbol
_atom_site_label
_atom_site_fract_x
_atom_site_fract_y
_atom_site_fract_z
Si Si1 0.090558 0.679871 0.021691
Si Si2 0.847749 0.920971 0.737731
Si Si3 0.346373 0.667968 0.761432
Si Si4 0.006680 0.417634 0.632133
Si Si5 0.479937 0.827463 0.121820
Si Si6 0.152945 0.820020 0.727194
Si Si7 0.901055 0.080492 0.479095
Si Si8 0.653626 0.579349 0.789549
O O1 0.062200 0.751504 0.090069
O O2 0.152153 0.631961 0.100800
O O3 0.136753 0.691718 0.896682
O O4 0.000000 0.637781 0.000000
O O5 0.750000 0.908276 0.784227
O O6 0.911112 0.867263 0.799662
O O7 0.847786 0.908911 0.598458
O O8 0.879099 0.000000 0.766258
O O9 0.250000 0.633456 0.753676
O O10 0.415740 0.614485 0.708762
O O11 0.349508 0.739070 0.684303
O O12 0.024136 0.500000 0.628635
O O13 0.000000 0.387220 0.500000
O O14 0.915185 0.397507 0.691453
O O15 0.573611 0.828042 0.183250
O O16 0.500000 0.867847 0.000000
O O17 0.250000 0.834886 0.783052
O O18 0.142697 0.870916 0.617314
O O19 0.000000 0.104218 0.500000
O O20 0.897148 0.000000 0.434908
O O21 0.750000 0.583998 0.733043
O O22 0.634351 0.500000 0.833340
#
# Coordination Sequence:
#
# PCOD8212864 Si02
#       8
#     8   8   8   8   8   8   8   8
#     4  11  20  39  63  86 117 159 196 244 300 350
#     4  10  22  40  62  89 119 152 197 251 301 354
#     4  11  23  40  61  89 123 158 202 252 299 354
#     4  10  22  41  63  87 120 162 201 243 298 359
#     4  11  22  39  61  86 118 162 200 236 293 360
#     4  11  22  37  58  88 123 156 195 247 301 356
#     4  10  20  38  65  89 115 154 197 248 307 358
#     4  10  21  37  60  90 119 151 197 250 298 350
#
# _framework density 19.250392000000002
#
# number of rings (size 3 to 8) (size 9 to 14) (size 15 to 20)
#    0.000    1.500    5.000    0.750    0.000    4.500 
#    2.250    1.250    0.000    0.000    0.000    0.000 
#    0.000    0.000    0.000    0.000    0.000    0.000 
#
# Total GULP energy -793159.825606 kJ/mol
# GULP energy per Si atom -12393.122275 kJ/mol
# Density = 1.920658 g / cm^3
# Si number density = 19.250392 Si / 1000 Ang^3
#
#
#
# Elastic Constant Matrix: (Units=GPa)
#
#
# Indices 1 2 3 4 5 6 
#
# 1 156.2756 54.3896 59.2710 0.0000 0.0000 0.0000
# 2 54.3896 72.7149 53.8701 0.0000 0.0000 0.0000
# 3 59.2710 53.8701 100.4139 0.0000 0.0000 0.0000
# 4 0.0000 0.0000 0.0000 -2.6601 0.0000 0.0000
# 5 0.0000 0.0000 0.0000 0.0000 14.7745 0.0000
# 6 0.0000 0.0000 0.0000 0.0000 0.0000 34.5396
#
#
#
# Elastic Compliance Matrix: (Units=1/GPa)
#
#
# Indices 1 2 3 4 5 6 
#
# 1 0.009121 -0.004703 -0.002861 0.000000 0.000000 0.000000
# 2 -0.004703 0.025248 -0.010769 0.000000 0.000000 0.000000
# 3 -0.002861 -0.010769 0.017425 0.000000 0.000000 0.000000
# 4 0.000000 0.000000 0.000000 -0.375920 0.000000 0.000000
# 5 0.000000 0.000000 0.000000 0.000000 0.067684 0.000000
# 6 0.000000 0.000000 0.000000 0.000000 0.000000 0.028952
#
#
# Mechanical properties :
#
#
# Convention : Reuss Voigt Hill
#
# Bulk Modulus (GPa) = 66.10145 73.82952 69.96549
# Shear Modulus (GPa) = -26.91331 20.12238 -3.39546
#
# Velocity S-wave (km/s) = -3.74313 3.23661 -1.32954
# Velocity P-wave (km/s) = 3.96622 7.23899 5.83669
#
# Compressibility (1/GPa) = 0.01512826
#
# Stress axis : x y z
#
# Youngs Moduli (GPa) = 109.64107 39.60664 57.38932
#
# Poissons Ratio (x) = 0.18626 0.16417
# Poissons Ratio (y) = 0.51562 0.61804
# Poissons Ratio (z) = 0.31364 0.42654
#
# Static dielectric constant tensor:
#      x y z
#    x 3.757670 0.000000 0.000000 
#    y 0.000000 3.467860 0.000000 
#    z 0.000000 0.000000 3.500230 
# 
# 
# High freq. dielectric constant tensor:
#      x y z
#    x 1.771620 0.000000 0.000000 
#    y 0.000000 1.738440 0.000000 
#    z 0.000000 0.000000 1.738320 
# 
# From -- ./inp_files/16815.got.cif
#   From: 2010.03.12/outbox.cif.g09.slc.cpg/sg51_9_cif.got.tgz:16815.got - 2010.04.16 13:43:02.
