data_PCOD8212993
_publ_section_title
;
Structure prediction by ZEFSAII (Michael W. Deem and Ramdas Pophale) SiO2 
 PCOD8212993
Probable space group: P M M A
;
_chemical_formula_sum "Si O2"
_cell_formula_units_Z 48
_cell_length_a 18.422735
_cell_length_b 9.197076
_cell_length_c 16.455122
_cell_angle_alpha 90.000000
_cell_angle_beta 90.000000
_cell_angle_gamma 90.000000
_cell_volume 2788.078433
_symmetry_space_group_name_H-M "P M M A"
_symmetry_group_IT_number 51
_symmetry_cell_setting 'orthorhombic'
loop_
_space_group_symop_operation_xyz
x,y,z
1/2-x,-y,z
1/2+x,-y,-z
-x,y,-z
-x,-y,-z
1/2+x,y,-z
1/2-x,y,z
x,-y,z
loop_
_atom_site_type_symbol
_atom_site_label
_atom_site_fract_x
_atom_site_fract_y
_atom_site_fract_z
Si Si1 0.665912 0.169404 0.156325
Si Si2 0.971872 0.327312 0.584719
Si Si3 0.903102 0.329155 0.830077
Si Si4 0.949730 0.670081 0.252691
Si Si5 0.669758 0.673560 0.668708
Si Si6 0.334627 0.668024 0.006255
O O1 0.750000 0.201337 0.173907
O O2 0.621379 0.238992 0.230348
O O3 0.649097 0.000000 0.150783
O O4 0.641047 0.242101 0.072193
O O5 0.971113 0.500000 0.579290
O O6 0.889681 0.271818 0.602807
O O7 0.000000 0.258632 0.500000
O O8 0.025146 0.280006 0.657620
O O9 0.889964 0.500000 0.833001
O O10 0.852925 0.265917 0.757544
O O11 0.878806 0.265563 0.917134
O O12 0.987021 0.293204 0.812238
O O13 0.930798 0.500000 0.251328
O O14 0.750000 0.732297 0.645663
O O15 0.668947 0.500000 0.671019
O O16 0.250000 0.687803 0.025246
O O17 0.354146 0.500000 0.989757
#
# Coordination Sequence:
#
# PCOD8212993 Si02
#       6
#     8   8   8   8   8   8
#     4  10  21  35  47  60  84 117 151 188 225 258
#     4   8  14  25  41  63  92 120 144 177 220 260
#     4   8  14  24  40  64  89 111 139 178 220 260
#     4   9  17  30  48  67  88 116 147 179 219 267
#     4   8  12  19  34  57  86 117 144 172 213 263
#     4   9  16  27  45  66  87 114 149 185 218 256
#
# _framework density 17.216159000000001
#
# number of rings (size 3 to 8) (size 9 to 14) (size 15 to 20)
#    0.000    3.333    0.000    3.000    0.000    3.667 
#    0.000    5.000    0.000    3.500    0.000    0.000 
#    0.000    6.000    0.000    1.000    0.000    0.000 
#
# Total GULP energy -594925.270059 kJ/mol
# GULP energy per Si atom -12394.276460 kJ/mol
# Density = 1.717697 g / cm^3
# Si number density = 17.216159 Si / 1000 Ang^3
#
#
#
# Elastic Constant Matrix: (Units=GPa)
#
#
# Indices 1 2 3 4 5 6 
#
# 1 110.0714 34.7194 80.4727 0.0000 0.0000 0.0000
# 2 34.7194 36.5015 34.1016 0.0000 0.0000 0.0000
# 3 80.4727 34.1016 131.7161 0.0000 0.0000 0.0000
# 4 0.0000 0.0000 0.0000 0.4131 0.0000 0.0000
# 5 0.0000 0.0000 0.0000 0.0000 27.1903 0.0000
# 6 0.0000 0.0000 0.0000 0.0000 0.0000 12.9482
#
#
#
# Elastic Compliance Matrix: (Units=1/GPa)
#
#
# Indices 1 2 3 4 5 6 
#
# 1 0.018539 -0.009302 -0.008918 0.000000 0.000000 0.000000
# 2 -0.009302 0.040804 -0.004881 0.000000 0.000000 0.000000
# 3 -0.008918 -0.004881 0.014305 0.000000 0.000000 0.000000
# 4 0.000000 0.000000 0.000000 2.420876 0.000000 0.000000
# 5 0.000000 0.000000 0.000000 0.000000 0.036778 0.000000
# 6 0.000000 0.000000 0.000000 0.000000 0.000000 0.077231
#
#
# Mechanical properties :
#
#
# Convention : Reuss Voigt Hill
#
# Bulk Modulus (GPa) = 36.43659 64.09737 50.26698
# Shear Modulus (GPa) = 1.87696 16.71000 9.29348
#
# Velocity S-wave (km/s) = 1.04527 3.11883 2.32590
# Velocity P-wave (km/s) = 4.76098 7.09092 6.03938
#
# Compressibility (1/GPa) = 0.02744494
#
# Stress axis : x y z
#
# Youngs Moduli (GPa) = 53.93942 24.50715 69.90799
#
# Poissons Ratio (x) = 0.22797 0.62346
# Poissons Ratio (y) = 0.50176 0.34123
# Poissons Ratio (z) = 0.48105 0.11962
#
# Static dielectric constant tensor:
#      x y z
#    x 3.333570 0.000000 0.000000 
#    y 0.000000 2.669370 0.000000 
#    z 0.000000 0.000000 3.430380 
# 
# 
# High freq. dielectric constant tensor:
#      x y z
#    x 1.667670 0.000000 0.000000 
#    y 0.000000 1.604510 0.000000 
#    z 0.000000 0.000000 1.660450 
# 
# From -- ./inp_files/30038.got.cif
#   From: 2010.03.12/outbox.cif.g09.slc.cpg/sg51_16_cif.got.tgz:30038.got - 2010.04.16 13:43:02.
