data_PCOD8212941
_publ_section_title
;
Structure prediction by ZEFSAII (Michael W. Deem and Ramdas Pophale) SiO2 
 PCOD8212941
Probable space group: P M M A
;
_chemical_formula_sum "Si O2"
_cell_formula_units_Z 44
_cell_length_a 9.581667
_cell_length_b 28.086587
_cell_length_c 9.518827
_cell_angle_alpha 90.000000
_cell_angle_beta 90.000000
_cell_angle_gamma 90.000000
_cell_volume 2561.671729
_symmetry_space_group_name_H-M "P M M A"
_symmetry_group_IT_number 51
_symmetry_cell_setting 'orthorhombic'
loop_
_space_group_symop_operation_xyz
x,y,z
1/2-x,-y,z
1/2+x,-y,-z
-x,y,-z
-x,-y,-z
1/2+x,y,-z
1/2-x,y,z
x,-y,z
loop_
_atom_site_type_symbol
_atom_site_label
_atom_site_fract_x
_atom_site_fract_y
_atom_site_fract_z
Si Si1 0.586320 0.815330 0.857008
Si Si2 0.912334 0.103460 0.643084
Si Si3 0.588537 0.372283 0.633167
Si Si4 0.911027 0.263644 0.635370
Si Si5 0.593010 0.000000 0.633625
Si Si6 0.910290 0.446566 0.864076
O O1 0.750000 0.817981 0.893736
O O2 0.538206 0.859921 0.761952
O O3 0.549154 0.767787 0.770137
O O4 0.500000 0.815334 0.000000
O O5 0.750000 0.112381 0.605247
O O6 0.935217 0.050356 0.712542
O O7 0.000000 0.110486 0.500000
O O8 0.500000 0.387127 0.500000
O O9 0.750000 0.379706 0.596411
O O10 0.557218 0.318032 0.678422
O O11 0.538130 0.407816 0.753381
O O12 0.750000 0.256046 0.593858
O O13 0.000000 0.247832 0.500000
O O14 0.500000 0.000000 0.500000
O O15 0.750000 0.000000 0.577696
O O16 0.750000 0.438238 0.904639
O O17 0.933570 0.500000 0.804494
O O18 0.000000 0.437391 0.000000
#
# Coordination Sequence:
#
# PCOD8212941 Si02
#       6
#     8   8   8   8   4   8
#     4  10  21  34  47  67  95 124 154 188 227 271
#     4   9  17  30  49  71  93 119 152 189 228 270
#     4   9  18  32  49  70  95 120 149 188 231 273
#     4   9  18  33  51  70  92 119 152 189 229 273
#     4   8  14  26  45  68  92 116 146 186 227 266
#     4   9  18  32  48  67  93 124 156 189 225 267
#
# _framework density 17.176283000000002
#
# number of rings (size 3 to 8) (size 9 to 14) (size 15 to 20)
#    0.000    2.909    0.000    0.545    0.000    3.273 
#    0.000    0.455    0.000    0.000    0.000    0.000 
#    0.000    0.000    0.000    0.000    0.000    0.000 
#
# Total GULP energy -545347.449840 kJ/mol
# GULP energy per Si atom -12394.260224 kJ/mol
# Density = 1.713719 g / cm^3
# Si number density = 17.176283 Si / 1000 Ang^3
#
#
#
# Elastic Constant Matrix: (Units=GPa)
#
#
# Indices 1 2 3 4 5 6 
#
# 1 54.2764 49.8837 58.9983 0.0000 0.0000 0.0000
# 2 49.8837 135.0244 91.3730 0.0000 0.0000 0.0000
# 3 58.9983 91.3730 128.3345 0.0000 0.0000 0.0000
# 4 0.0000 0.0000 0.0000 14.8641 0.0000 0.0000
# 5 0.0000 0.0000 0.0000 0.0000 34.3206 0.0000
# 6 0.0000 0.0000 0.0000 0.0000 0.0000 22.4725
#
#
#
# Elastic Compliance Matrix: (Units=1/GPa)
#
#
# Indices 1 2 3 4 5 6 
#
# 1 0.038071 -0.004286 -0.014450 0.000000 0.000000 0.000000
# 2 -0.004286 0.014775 -0.008549 0.000000 0.000000 0.000000
# 3 -0.014450 -0.008549 0.020522 0.000000 0.000000 0.000000
# 4 0.000000 0.000000 0.000000 0.067276 0.000000 0.000000
# 5 0.000000 0.000000 0.000000 0.000000 0.029137 0.000000
# 6 0.000000 0.000000 0.000000 0.000000 0.000000 0.044499
#
#
# Mechanical properties :
#
#
# Convention : Reuss Voigt Hill
#
# Bulk Modulus (GPa) = 53.20088 79.79392 66.49740
# Shear Modulus (GPa) = 18.17407 22.15679 20.16543
#
# Velocity S-wave (km/s) = 3.25636 3.59550 3.43013
# Velocity P-wave (km/s) = 6.72155 7.98709 7.38149
#
# Compressibility (1/GPa) = 0.01879668
#
# Stress axis : x y z
#
# Youngs Moduli (GPa) = 26.26666 67.68237 48.72788
#
# Poissons Ratio (x) = 0.29011 0.70413
# Poissons Ratio (y) = 0.11259 0.41658
# Poissons Ratio (z) = 0.37956 0.57862
#
# Static dielectric constant tensor:
#      x y z
#    x 3.202640 0.000000 0.000000 
#    y 0.000000 3.806080 0.000000 
#    z 0.000000 0.000000 2.855440 
# 
# 
# High freq. dielectric constant tensor:
#      x y z
#    x 1.663300 0.000000 0.000000 
#    y 0.000000 1.685480 0.000000 
#    z 0.000000 0.000000 1.634590 
# 
# From -- ./inp_files/5703.got.cif
#   From: 2010.03.12/outbox.cif.g09.slc.cpg/sg51_3_cif.got.tgz:5703.got - 2010.04.16 13:43:02.
