data_PCOD8212096
_publ_section_title
;
Structure prediction by ZEFSAII (Michael W. Deem and Ramdas Pophale) SiO2 
 PCOD8212096
Probable space group: P M M A
;
_chemical_formula_sum "Si O2"
_cell_formula_units_Z 48
_cell_length_a 8.908181
_cell_length_b 18.022085
_cell_length_c 14.564256
_cell_angle_alpha 90.000000
_cell_angle_beta 90.000000
_cell_angle_gamma 90.000000
_cell_volume 2338.203845
_symmetry_space_group_name_H-M "P M M A"
_symmetry_group_IT_number 51
_symmetry_cell_setting 'orthorhombic'
loop_
_space_group_symop_operation_xyz
x,y,z
1/2-x,-y,z
1/2+x,-y,-z
-x,y,-z
-x,-y,-z
1/2+x,y,-z
1/2-x,y,z
x,-y,z
loop_
_atom_site_type_symbol
_atom_site_label
_atom_site_fract_x
_atom_site_fract_y
_atom_site_fract_z
Si Si1 0.922912 0.123821 0.719665
Si Si2 0.425405 0.660124 0.901472
Si Si3 0.577373 0.500000 0.095622
Si Si4 0.578464 0.088118 0.093263
Si Si5 0.921692 0.289247 0.731389
Si Si6 0.926603 0.583395 0.597413
Si Si7 0.928299 0.000000 0.400429
O O1 0.750000 0.097051 0.718550
O O2 0.936212 0.208637 0.683736
O O3 0.984428 0.120201 0.822614
O O4 0.020926 0.073296 0.652941
O O5 0.250000 0.673063 0.914235
O O6 0.464482 0.578216 0.856645
O O7 0.489098 0.716984 0.827236
O O8 0.500000 0.672746 0.000000
O O9 0.750000 0.500000 0.071873
O O10 0.500000 0.500000 0.000000
O O11 0.750000 0.117246 0.096186
O O12 0.575125 0.000000 0.098986
O O13 0.500000 0.116540 0.000000
O O14 0.750000 0.308159 0.754584
O O15 0.989603 0.353806 0.666436
O O16 0.750000 0.592374 0.584983
O O17 0.967445 0.500000 0.632948
O O18 0.000000 0.598640 0.500000
O O19 0.000000 0.000000 0.500000
O O20 0.750000 0.000000 0.408521
#
# Coordination Sequence:
#
# PCOD8212096 Si02
#       7
#     8   8   4   8   8   8   4
#     4  11  23  41  63  90 127 161 198 249 299 356
#     4  10  20  35  55  81 117 160 205 252 300 352
#     4   8  16  30  48  74 105 144 197 250 295 342
#     4  10  20  35  59  90 122 159 202 246 294 353
#     4  10  23  39  58  89 123 159 199 243 298 356
#     4   9  19  38  62  87 116 151 193 243 297 353
#     4  12  26  46  71  96 121 156 200 242 298 362
#
# _framework density 20.528578
#
# number of rings (size 3 to 8) (size 9 to 14) (size 15 to 20)
#    0.000    2.000    0.833    2.250    1.167    4.667 
#    0.000    1.667    0.000    0.000    0.000    0.000 
#    0.000    0.000    0.000    0.000    0.000    0.000 
#
# Total GULP energy -595015.496939 kJ/mol
# GULP energy per Si atom -12396.156186 kJ/mol
# Density = 2.048185 g / cm^3
# Si number density = 20.528578 Si / 1000 Ang^3
#
#
#
# Elastic Constant Matrix: (Units=GPa)
#
#
# Indices 1 2 3 4 5 6 
#
# 1 108.2951 45.7283 51.3535 0.0000 0.0000 0.0000
# 2 45.7283 105.6655 62.1923 0.0000 0.0000 0.0000
# 3 51.3535 62.1923 125.9619 0.0000 0.0000 0.0000
# 4 0.0000 0.0000 0.0000 16.6969 0.0000 0.0000
# 5 0.0000 0.0000 0.0000 0.0000 37.7093 0.0000
# 6 0.0000 0.0000 0.0000 0.0000 0.0000 18.0124
#
#
#
# Elastic Compliance Matrix: (Units=1/GPa)
#
#
# Indices 1 2 3 4 5 6 
#
# 1 0.012222 -0.003322 -0.003343 0.000000 0.000000 0.000000
# 2 -0.003322 0.014243 -0.005678 0.000000 0.000000 0.000000
# 3 -0.003343 -0.005678 0.012105 0.000000 0.000000 0.000000
# 4 0.000000 0.000000 0.000000 0.059891 0.000000 0.000000
# 5 0.000000 0.000000 0.000000 0.000000 0.026519 0.000000
# 6 0.000000 0.000000 0.000000 0.000000 0.000000 0.055517
#
#
# Mechanical properties :
#
#
# Convention : Reuss Voigt Hill
#
# Bulk Modulus (GPa) = 72.01949 73.16341 72.59145
# Shear Modulus (GPa) = 23.83091 26.52695 25.17893
#
# Velocity S-wave (km/s) = 3.41084 3.59861 3.50599
# Velocity P-wave (km/s) = 7.11832 7.27900 7.19911
#
# Compressibility (1/GPa) = 0.01388513
#
# Stress axis : x y z
#
# Youngs Moduli (GPa) = 81.82154 70.20751 82.60870
#
# Poissons Ratio (x) = 0.23321 0.27613
# Poissons Ratio (y) = 0.27179 0.46908
# Poissons Ratio (z) = 0.27350 0.39866
#
# Static dielectric constant tensor:
#      x y z
#    x 3.734040 0.000000 0.000000 
#    y 0.000000 3.995420 0.000000 
#    z 0.000000 0.000000 3.593790 
# 
# 
# High freq. dielectric constant tensor:
#      x y z
#    x 1.806730 0.000000 0.000000 
#    y 0.000000 1.814450 0.000000 
#    z 0.000000 0.000000 1.787930 
# 
# From -- ./inp_files/21254.got.cif
#   From: 2010.03.12/outbox.cif.g09.slc.cpg/sg51_11_cif.got.tgz:21254.got - 2010.04.16 13:43:02.
