data_PCOD8212559
_publ_section_title
;
Structure prediction by ZEFSAII (Michael W. Deem and Ramdas Pophale) SiO2 
 PCOD8212559
Probable space group: P M M A
;
_chemical_formula_sum "Si O2"
_cell_formula_units_Z 48
_cell_length_a 17.412038
_cell_length_b 8.981095
_cell_length_c 15.284344
_cell_angle_alpha 90.000000
_cell_angle_beta 90.000000
_cell_angle_gamma 90.000000
_cell_volume 2390.152989
_symmetry_space_group_name_H-M "P M M A"
_symmetry_group_IT_number 51
_symmetry_cell_setting 'orthorhombic'
loop_
_space_group_symop_operation_xyz
x,y,z
1/2-x,-y,z
1/2+x,-y,-z
-x,y,-z
-x,-y,-z
1/2+x,y,-z
1/2-x,y,z
x,-y,z
loop_
_atom_site_type_symbol
_atom_site_label
_atom_site_fract_x
_atom_site_fract_y
_atom_site_fract_z
Si Si1 0.578406 0.673135 0.360166
Si Si2 0.088651 0.675391 0.990936
Si Si3 0.339158 0.826490 0.154705
Si Si4 0.401857 0.326817 0.321588
Si Si5 0.337204 0.171796 0.484496
Si Si6 0.836378 0.323150 0.188483
O O1 0.597390 0.500000 0.373869
O O2 0.488716 0.701328 0.350299
O O3 0.605545 0.759664 0.445268
O O4 0.621780 0.737943 0.275111
O O5 0.101440 0.500000 0.004292
O O6 0.139606 0.761662 0.060699
O O7 0.116769 0.730717 0.896089
O O8 0.000000 0.719284 0.000000
O O9 0.250000 0.796267 0.173473
O O10 0.389893 0.744345 0.226988
O O11 0.358723 0.000000 0.156800
O O12 0.382257 0.500000 0.315339
O O13 0.345807 0.251931 0.391507
O O14 0.250000 0.193594 0.516978
O O15 0.357943 0.000000 0.471429
O O16 0.750000 0.259098 0.185108
O O17 0.835620 0.500000 0.191114
#
# Coordination Sequence:
#
# PCOD8212559 Si02
#       6
#     8   8   8   8   8   8
#     4  10  21  38  60  86 114 146 189 239 288 340
#     4  10  20  36  59  86 116 151 194 242 289 341
#     4  11  24  40  58  84 119 157 196 239 290 348
#     4  11  23  39  61  87 113 147 194 243 290 342
#     4  11  24  40  58  84 118 153 189 231 283 344
#     4   9  17  31  54  82 110 143 184 230 280 333
#
# _framework density 20.082398000000001
#
# number of rings (size 3 to 8) (size 9 to 14) (size 15 to 20)
#    0.000    1.667    0.000    4.500    0.000   12.333 
#    0.000    0.833    0.000    3.000    0.000    0.000 
#    0.000    0.000    0.000    0.000    0.000    0.000 
#
# Total GULP energy -595492.879302 kJ/mol
# GULP energy per Si atom -12406.101652 kJ/mol
# Density = 2.003669 g / cm^3
# Si number density = 20.082398 Si / 1000 Ang^3
#
#
#
# Elastic Constant Matrix: (Units=GPa)
#
#
# Indices 1 2 3 4 5 6 
#
# 1 65.1805 38.5752 19.3438 0.0000 0.0000 0.0000
# 2 38.5752 80.3465 33.3038 0.0000 0.0000 0.0000
# 3 19.3438 33.3038 108.8251 0.0000 0.0000 0.0000
# 4 0.0000 0.0000 0.0000 -14.3106 0.0000 0.0000
# 5 0.0000 0.0000 0.0000 0.0000 42.5420 0.0000
# 6 0.0000 0.0000 0.0000 0.0000 0.0000 20.6411
#
#
#
# Elastic Compliance Matrix: (Units=1/GPa)
#
#
# Indices 1 2 3 4 5 6 
#
# 1 0.021486 -0.010001 -0.000758 0.000000 0.000000 0.000000
# 2 -0.010001 0.018910 -0.004009 0.000000 0.000000 0.000000
# 3 -0.000758 -0.004009 0.010551 0.000000 0.000000 0.000000
# 4 0.000000 0.000000 0.000000 -0.069878 0.000000 0.000000
# 5 0.000000 0.000000 0.000000 0.000000 0.023506 0.000000
# 6 0.000000 0.000000 0.000000 0.000000 0.000000 0.048447
#
#
# Mechanical properties :
#
#
# Convention : Reuss Voigt Hill
#
# Bulk Modulus (GPa) = 46.71015 48.53305 47.62160
# Shear Modulus (GPa) = 55.74400 20.64977 38.19688
#
# Velocity S-wave (km/s) = 5.27427 3.21012 4.36593
# Velocity P-wave (km/s) = 7.77176 6.16111 7.01283
#
# Compressibility (1/GPa) = 0.02140862
#
# Stress axis : x y z
#
# Youngs Moduli (GPa) = 46.54172 52.88307 94.77944
#
# Poissons Ratio (x) = 0.52890 0.07189
# Poissons Ratio (y) = 0.46548 0.37999
# Poissons Ratio (z) = 0.03530 0.21202
#
# Static dielectric constant tensor:
#      x y z
#    x 3.736730 0.000000 0.000000 
#    y 0.000000 3.476590 0.000000 
#    z 0.000000 0.000000 3.745520 
# 
# 
# High freq. dielectric constant tensor:
#      x y z
#    x 1.797750 0.000000 0.000000 
#    y 0.000000 1.765270 0.000000 
#    z 0.000000 0.000000 1.800400 
# 
# From -- ./inp_files/24718.got.cif
#   From: 2010.03.12/outbox.cif.g09.slc.cpg/sg51_13_cif.got.tgz:24718.got - 2010.04.16 13:43:02.
