data_PCOD8212839
_publ_section_title
;
Structure prediction by ZEFSAII (Michael W. Deem and Ramdas Pophale) SiO2 
 PCOD8212839
Probable space group: P M M A
;
_chemical_formula_sum "Si O2"
_cell_formula_units_Z 48
_cell_length_a 18.466398
_cell_length_b 14.832547
_cell_length_c 9.303062
_cell_angle_alpha 90.000000
_cell_angle_beta 90.000000
_cell_angle_gamma 90.000000
_cell_volume 2548.143254
_symmetry_space_group_name_H-M "P M M A"
_symmetry_group_IT_number 51
_symmetry_cell_setting 'orthorhombic'
loop_
_space_group_symop_operation_xyz
x,y,z
1/2-x,-y,z
1/2+x,-y,-z
-x,y,-z
-x,-y,-z
1/2+x,y,-z
1/2-x,y,z
x,-y,z
loop_
_atom_site_type_symbol
_atom_site_label
_atom_site_fract_x
_atom_site_fract_y
_atom_site_fract_z
Si Si1 0.928086 0.103078 0.416718
Si Si2 0.666374 0.394094 0.360300
Si Si3 0.574589 0.746239 0.187702
Si Si4 0.908172 0.250666 0.860323
Si Si5 0.332054 0.896853 0.316798
Si Si6 0.835274 0.400968 0.683126
O O1 0.911713 0.163425 0.278339
O O2 0.859016 0.112814 0.520023
O O3 0.000000 0.136513 0.500000
O O4 0.938920 0.000000 0.365131
O O5 0.750000 0.367789 0.332489
O O6 0.654838 0.500000 0.332566
O O7 0.614804 0.339413 0.254426
O O8 0.642673 0.368505 0.522968
O O9 0.489886 0.725290 0.180271
O O10 0.605524 0.761945 0.028922
O O11 0.884099 0.157614 0.788419
O O12 0.860790 0.332976 0.804147
O O13 0.250000 0.859726 0.310049
O O14 0.336086 0.000000 0.266012
O O15 0.750000 0.408303 0.689584
O O16 0.868770 0.500000 0.713860
#
# Coordination Sequence:
#
# PCOD8212839 Si02
#       6
#     8   8   8   8   8   8
#     4  10  20  38  62  85 111 147 192 239 285 335
#     4   9  20  39  61  85 112 146 193 245 290 336
#     4  11  24  36  55  85 117 152 190 231 288 346
#     4  11  23  37  52  82 121 152 185 232 283 345
#     4  10  21  38  61  86 112 148 193 237 282 337
#     4   9  19  37  60  82 106 144 191 234 281 338
#
# _framework density 18.837244999999999
#
# number of rings (size 3 to 8) (size 9 to 14) (size 15 to 20)
#    0.000    2.000    1.667    2.500    0.000    5.333 
#    0.000    6.667    0.000    2.000    0.000    0.000 
#    0.000    0.000    0.000    0.000    0.000    0.000 
#
# Total GULP energy -595300.068734 kJ/mol
# GULP energy per Si atom -12402.084765 kJ/mol
# Density = 1.879437 g / cm^3
# Si number density = 18.837245 Si / 1000 Ang^3
#
#
#
# Elastic Constant Matrix: (Units=GPa)
#
#
# Indices 1 2 3 4 5 6 
#
# 1 69.4025 36.5663 46.0907 0.0000 0.0000 0.0000
# 2 36.5663 98.0305 70.5240 0.0000 0.0000 0.0000
# 3 46.0907 70.5240 134.8467 0.0000 0.0000 0.0000
# 4 0.0000 0.0000 0.0000 38.0632 0.0000 0.0000
# 5 0.0000 0.0000 0.0000 0.0000 28.1522 0.0000
# 6 0.0000 0.0000 0.0000 0.0000 0.0000 32.3299
#
#
#
# Elastic Compliance Matrix: (Units=1/GPa)
#
#
# Indices 1 2 3 4 5 6 
#
# 1 0.019566 -0.003987 -0.004602 0.000000 0.000000 0.000000
# 2 -0.003987 0.017167 -0.007615 0.000000 0.000000 0.000000
# 3 -0.004602 -0.007615 0.012972 0.000000 0.000000 0.000000
# 4 0.000000 0.000000 0.000000 0.026272 0.000000 0.000000
# 5 0.000000 0.000000 0.000000 0.000000 0.035521 0.000000
# 6 0.000000 0.000000 0.000000 0.000000 0.000000 0.030931
#
#
# Mechanical properties :
#
#
# Convention : Reuss Voigt Hill
#
# Bulk Modulus (GPa) = 57.82172 67.62686 62.72429
# Shear Modulus (GPa) = 27.68503 29.64899 28.66701
#
# Velocity S-wave (km/s) = 3.83782 3.97161 3.90529
# Velocity P-wave (km/s) = 7.09933 7.55051 7.32839
#
# Compressibility (1/GPa) = 0.01729454
#
# Stress axis : x y z
#
# Youngs Moduli (GPa) = 51.10924 58.25244 77.09162
#
# Poissons Ratio (x) = 0.23227 0.35480
# Poissons Ratio (y) = 0.20379 0.58707
# Poissons Ratio (z) = 0.23522 0.44360
#
# Static dielectric constant tensor:
#      x y z
#    x 3.475260 0.000000 0.000000 
#    y 0.000000 3.479590 0.000000 
#    z 0.000000 0.000000 3.483420 
# 
# 
# High freq. dielectric constant tensor:
#      x y z
#    x 1.733120 0.000000 0.000000 
#    y 0.000000 1.740170 0.000000 
#    z 0.000000 0.000000 1.724060 
# 
# From -- ./inp_files/9594.got.cif
#   From: 2010.03.12/outbox.cif.g09.slc.cpg/sg51_5_cif.got.tgz:9594.got - 2010.04.16 13:43:02.
