data_PCOD8212901
_publ_section_title
;
Structure prediction by ZEFSAII (Michael W. Deem and Ramdas Pophale) SiO2 
 PCOD8212901
Probable space group: P M M A
;
_chemical_formula_sum "Si O2"
_cell_formula_units_Z 40
_cell_length_a 18.321317
_cell_length_b 9.041588
_cell_length_c 12.283723
_cell_angle_alpha 90.000000
_cell_angle_beta 90.000000
_cell_angle_gamma 90.000000
_cell_volume 2034.845392
_symmetry_space_group_name_H-M "P M M A"
_symmetry_group_IT_number 51
_symmetry_cell_setting 'orthorhombic'
loop_
_space_group_symop_operation_xyz
x,y,z
1/2-x,-y,z
1/2+x,-y,-z
-x,y,-z
-x,-y,-z
1/2+x,y,-z
1/2-x,y,z
x,-y,z
loop_
_atom_site_type_symbol
_atom_site_label
_atom_site_fract_x
_atom_site_fract_y
_atom_site_fract_z
Si Si1 0.665683 0.326776 0.384530
Si Si2 0.665846 0.329813 0.975266
Si Si3 0.433760 0.169526 0.192690
Si Si4 0.600923 0.828498 0.178993
Si Si5 0.575351 0.827288 0.555119
O O1 0.750000 0.289074 0.365583
O O2 0.650853 0.500000 0.381347
O O3 0.618092 0.250720 0.291661
O O4 0.641347 0.263274 0.501209
O O5 0.750000 0.307902 0.944374
O O6 0.647237 0.500000 0.999291
O O7 0.618985 0.275531 0.873702
O O8 0.649105 0.237636 0.083000
O O9 0.516002 0.193992 0.151053
O O10 0.427147 0.213154 0.318430
O O11 0.410126 0.000000 0.173321
O O12 0.620115 0.000000 0.192697
O O13 0.500000 0.776930 0.500000
O O14 0.589056 0.000000 0.535541
#
# Coordination Sequence:
#
# PCOD8212901 Si02
#       5
#     8   8   8   8   8
#     4  11  24  39  58  90 128 162 200 247 301 361
#     4  11  25  42  59  86 125 162 199 247 302 361
#     4  10  22  40  64  91 119 154 202 252 298 357
#     4  11  22  40  65  91 119 155 203 255 302 356
#     4  10  20  40  64  88 120 157 200 250 298 351
#
# _framework density 19.657513000000002
#
# number of rings (size 3 to 8) (size 9 to 14) (size 15 to 20)
#    0.000    1.400    2.000    3.000    0.000   11.600 
#    0.000    4.000    0.000    0.000    0.000    0.000 
#    0.000    0.000    0.000    0.000    0.000    0.000 
#
# Total GULP energy -496273.669463 kJ/mol
# GULP energy per Si atom -12406.841737 kJ/mol
# Density = 1.961277 g / cm^3
# Si number density = 19.657513 Si / 1000 Ang^3
#
#
#
# Elastic Constant Matrix: (Units=GPa)
#
#
# Indices 1 2 3 4 5 6 
#
# 1 76.0257 53.3451 27.2266 0.0000 0.0000 0.0000
# 2 53.3451 86.9733 36.3195 0.0000 0.0000 0.0000
# 3 27.2266 36.3195 76.0637 0.0000 0.0000 0.0000
# 4 0.0000 0.0000 0.0000 16.2165 0.0000 0.0000
# 5 0.0000 0.0000 0.0000 0.0000 32.9707 0.0000
# 6 0.0000 0.0000 0.0000 0.0000 0.0000 35.6586
#
#
#
# Elastic Compliance Matrix: (Units=1/GPa)
#
#
# Indices 1 2 3 4 5 6 
#
# 1 0.023308 -0.013505 -0.001895 0.000000 0.000000 0.000000
# 2 -0.013505 0.022186 -0.005760 0.000000 0.000000 0.000000
# 3 -0.001895 -0.005760 0.016575 0.000000 0.000000 0.000000
# 4 0.000000 0.000000 0.000000 0.061665 0.000000 0.000000
# 5 0.000000 0.000000 0.000000 0.000000 0.030330 0.000000
# 6 0.000000 0.000000 0.000000 0.000000 0.000000 0.028044
#
#
# Mechanical properties :
#
#
# Convention : Reuss Voigt Hill
#
# Bulk Modulus (GPa) = 50.62974 52.53835 51.58404
# Shear Modulus (GPa) = 21.64409 25.11393 23.37901
#
# Velocity S-wave (km/s) = 3.32182 3.57819 3.45239
# Velocity P-wave (km/s) = 6.36589 6.62240 6.49541
#
# Compressibility (1/GPa) = 0.01975124
#
# Stress axis : x y z
#
# Youngs Moduli (GPa) = 42.90406 45.07322 60.33111
#
# Poissons Ratio (x) = 0.60870 0.11430
# Poissons Ratio (y) = 0.57941 0.34749
# Poissons Ratio (z) = 0.08128 0.25961
#
# Static dielectric constant tensor:
#      x y z
#    x 3.610590 0.000000 0.000000 
#    y 0.000000 3.618300 0.000000 
#    z 0.000000 0.000000 3.658260 
# 
# 
# High freq. dielectric constant tensor:
#      x y z
#    x 1.770310 0.000000 0.000000 
#    y 0.000000 1.771220 0.000000 
#    z 0.000000 0.000000 1.776780 
# 
# From -- ./inp_files/17060.got.cif
#   From: 2010.03.12/outbox.cif.g09.slc.cpg/sg51_9_cif.got.tgz:17060.got - 2010.04.16 13:43:02.
