data_PCOD8212785
_publ_section_title
;
Structure prediction by ZEFSAII (Michael W. Deem and Ramdas Pophale) SiO2 
 PCOD8212785
Probable space group: P M M A
;
_chemical_formula_sum "Si O2"
_cell_formula_units_Z 64
_cell_length_a 30.944598
_cell_length_b 8.531856
_cell_length_c 11.979498
_cell_angle_alpha 90.000000
_cell_angle_beta 90.000000
_cell_angle_gamma 90.000000
_cell_volume 3162.765417
_symmetry_space_group_name_H-M "P M M A"
_symmetry_group_IT_number 51
_symmetry_cell_setting 'orthorhombic'
loop_
_space_group_symop_operation_xyz
x,y,z
1/2-x,-y,z
1/2+x,-y,-z
-x,y,-z
-x,-y,-z
1/2+x,y,-z
1/2-x,y,z
x,-y,z
loop_
_atom_site_type_symbol
_atom_site_label
_atom_site_fract_x
_atom_site_fract_y
_atom_site_fract_z
Si Si1 0.547818 0.682553 0.272818
Si Si2 0.797411 0.183884 0.265214
Si Si3 0.957989 0.182172 0.733327
Si Si4 0.624588 0.814113 0.869962
Si Si5 0.622548 0.187195 0.122805
Si Si6 0.327072 0.319868 0.507114
Si Si7 0.580787 0.180271 0.497113
Si Si8 0.298385 0.180797 0.282234
O O1 0.553556 0.500000 0.297480
O O2 0.499778 0.719972 0.228951
O O3 0.581036 0.735939 0.178738
O O4 0.554736 0.779363 0.385971
O O5 0.750000 0.254695 0.235168
O O6 0.834413 0.252358 0.184104
O O7 0.808411 0.217492 0.392959
O O8 0.795946 0.000000 0.248028
O O9 0.917514 0.247235 0.804354
O O10 0.949918 0.210505 0.602385
O O11 0.966070 0.000000 0.759382
O O12 0.667798 0.752117 0.808421
O O13 0.625106 0.000000 0.869963
O O14 0.624281 0.751459 0.996081
O O15 0.618793 0.000000 0.131337
O O16 0.319670 0.500000 0.537159
O O17 0.377573 0.288492 0.490642
O O18 0.301458 0.278474 0.395430
O O19 0.595975 0.000000 0.492873
O O20 0.250000 0.198938 0.233272
O O21 0.309176 0.000000 0.309795
#
# Coordination Sequence:
#
# PCOD8212785 Si02
#       8
#     8   8   8   8   8   8   8   8
#     4  12  25  39  58  88 124 154 193 239 292 354
#     4  10  21  37  59  87 118 155 198 242 290 346
#     4  10  21  39  63  87 117 153 194 240 292 349
#     4   9  19  38  62  89 114 150 203 252 290 336
#     4  10  21  39  63  85 115 156 201 248 293 341
#     4  12  23  35  57  88 123 158 193 237 294 354
#     4  11  21  38  64  89 117 152 193 239 294 354
#     4  10  20  37  62  90 121 156 196 243 293 346
#
# _framework density 20.235454000000001
#
# number of rings (size 3 to 8) (size 9 to 14) (size 15 to 20)
#    0.000    1.500    2.500    3.375    0.000    5.500 
#    0.000    6.250    0.000    0.000    0.000    1.750 
#    0.000    0.000    0.000    0.000    0.000    0.000 
#
# Total GULP energy -793819.859061 kJ/mol
# GULP energy per Si atom -12403.435298 kJ/mol
# Density = 2.018940 g / cm^3
# Si number density = 20.235454 Si / 1000 Ang^3
#
#
#
# Elastic Constant Matrix: (Units=GPa)
#
#
# Indices 1 2 3 4 5 6 
#
# 1 161.5712 18.4444 68.5135 0.0000 0.0000 0.0000
# 2 18.4444 29.7624 13.4862 0.0000 0.0000 0.0000
# 3 68.5135 13.4862 149.5919 0.0000 0.0000 0.0000
# 4 0.0000 0.0000 0.0000 4.6390 0.0000 0.0000
# 5 0.0000 0.0000 0.0000 0.0000 13.5809 0.0000
# 6 0.0000 0.0000 0.0000 0.0000 0.0000 10.3435
#
#
#
# Elastic Compliance Matrix: (Units=1/GPa)
#
#
# Indices 1 2 3 4 5 6 
#
# 1 0.008005 -0.003440 -0.003356 0.000000 0.000000 0.000000
# 2 -0.003440 0.036509 -0.001716 0.000000 0.000000 0.000000
# 3 -0.003356 -0.001716 0.008377 0.000000 0.000000 0.000000
# 4 0.000000 0.000000 0.000000 0.215564 0.000000 0.000000
# 5 0.000000 0.000000 0.000000 0.000000 0.073633 0.000000
# 6 0.000000 0.000000 0.000000 0.000000 0.000000 0.096679
#
#
# Mechanical properties :
#
#
# Convention : Reuss Voigt Hill
#
# Bulk Modulus (GPa) = 27.88129 60.20154 44.04141
# Shear Modulus (GPa) = 10.68955 21.74477 16.21716
#
# Velocity S-wave (km/s) = 2.30088 3.28165 2.83401
# Velocity P-wave (km/s) = 4.56805 6.64636 5.70268
#
# Compressibility (1/GPa) = 0.03586635
#
# Stress axis : x y z
#
# Youngs Moduli (GPa) = 124.91979 27.39059 119.37874
#
# Poissons Ratio (x) = 0.09423 0.40066
# Poissons Ratio (y) = 0.42974 0.20483
# Poissons Ratio (z) = 0.41926 0.04700
#
# Static dielectric constant tensor:
#      x y z
#    x 3.948020 0.000000 0.000000 
#    y 0.000000 3.422960 0.000000 
#    z 0.000000 0.000000 3.720330 
# 
# 
# High freq. dielectric constant tensor:
#      x y z
#    x 1.808260 0.000000 0.000000 
#    y 0.000000 1.762250 0.000000 
#    z 0.000000 0.000000 1.785260 
# 
# From -- ./inp_files/19583.got.cif
#   From: 2010.03.12/outbox.cif.g09.slc.cpg/sg51_10_cif.got.tgz:19583.got - 2010.04.16 13:43:02.
