data_PCOD8212089
_publ_section_title
;
Structure prediction by ZEFSAII (Michael W. Deem and Ramdas Pophale) SiO2 
 PCOD8212089
Probable space group: P M M A
;
_chemical_formula_sum "Si O2"
_cell_formula_units_Z 48
_cell_length_a 20.178316
_cell_length_b 8.885589
_cell_length_c 13.692742
_cell_angle_alpha 90.000000
_cell_angle_beta 90.000000
_cell_angle_gamma 90.000000
_cell_volume 2455.056919
_symmetry_space_group_name_H-M "P M M A"
_symmetry_group_IT_number 51
_symmetry_cell_setting 'orthorhombic'
loop_
_space_group_symop_operation_xyz
x,y,z
1/2-x,-y,z
1/2+x,-y,-z
-x,y,-z
-x,-y,-z
1/2+x,y,-z
1/2-x,y,z
x,-y,z
loop_
_atom_site_type_symbol
_atom_site_label
_atom_site_fract_x
_atom_site_fract_y
_atom_site_fract_z
Si Si1 0.673769 0.325415 0.899991
Si Si2 0.250000 0.320479 0.457751
Si Si3 0.250000 0.321133 0.677494
Si Si4 0.570388 0.822235 0.041630
Si Si5 0.362006 0.678930 0.314055
Si Si6 0.889444 0.677927 0.242418
Si Si7 0.000246 0.321629 0.391262
O O1 0.750000 0.302759 0.929811
O O2 0.653319 0.500000 0.907592
O O3 0.662329 0.262144 0.790908
O O4 0.629637 0.230673 0.973208
O O5 0.250000 0.500000 0.461753
O O6 0.250000 0.254282 0.567532
O O7 0.185533 0.260511 0.400027
O O8 0.250000 0.500000 0.670182
O O9 0.314814 0.265522 0.736064
O O10 0.580447 0.756263 0.148528
O O11 0.571575 0.000000 0.048691
O O12 0.500000 0.764300 0.000000
O O13 0.358937 0.500000 0.313565
O O14 0.435808 0.740600 0.333429
O O15 0.891510 0.500000 0.225200
O O16 0.933824 0.726116 0.335108
O O17 0.005487 0.500000 0.398361
O O18 0.000000 0.252007 0.500000
#
# Coordination Sequence:
#
# PCOD8212089 Si02
#       7
#     8   4   4   8   8   8   8
#     4  10  20  35  57  86 114 143 183 230 279 333
#     4   9  14  24  43  73 114 148 171 209 268 323
#     4   9  18  30  48  77 112 144 175 215 264 321
#     4  11  25  42  58  78 107 145 189 234 283 337
#     4   9  15  25  44  73 109 143 174 213 266 321
#     4  10  20  35  55  81 111 144 183 227 274 325
#     4   9  16  26  45  76 111 144 179 219 265 318
#
# _framework density 19.551480999999999
#
# number of rings (size 3 to 8) (size 9 to 14) (size 15 to 20)
#    0.000    2.333    0.833    2.500    1.167    7.000 
#    0.000    0.000    0.000    0.500    0.000    4.667 
#    0.000    0.000    0.000    0.000    0.000    0.000 
#
# Total GULP energy -595184.165376 kJ/mol
# GULP energy per Si atom -12399.670112 kJ/mol
# Density = 1.950698 g / cm^3
# Si number density = 19.551481 Si / 1000 Ang^3
#
#
#
# Elastic Constant Matrix: (Units=GPa)
#
#
# Indices 1 2 3 4 5 6 
#
# 1 160.1592 29.9888 69.6768 0.0000 0.0000 0.0000
# 2 29.9888 25.8224 33.8694 0.0000 0.0000 0.0000
# 3 69.6768 33.8694 152.1491 0.0000 0.0000 0.0000
# 4 0.0000 0.0000 0.0000 -5.2956 0.0000 0.0000
# 5 0.0000 0.0000 0.0000 0.0000 40.6949 0.0000
# 6 0.0000 0.0000 0.0000 0.0000 0.0000 15.6788
#
#
#
# Elastic Compliance Matrix: (Units=1/GPa)
#
#
# Indices 1 2 3 4 5 6 
#
# 1 0.008563 -0.006781 -0.002412 0.000000 0.000000 0.000000
# 2 -0.006781 0.060066 -0.010266 0.000000 0.000000 0.000000
# 3 -0.002412 -0.010266 0.009962 0.000000 0.000000 0.000000
# 4 0.000000 0.000000 0.000000 -0.188836 0.000000 0.000000
# 5 0.000000 0.000000 0.000000 0.000000 0.024573 0.000000
# 6 0.000000 0.000000 0.000000 0.000000 0.000000 0.063780
#
#
# Mechanical properties :
#
#
# Convention : Reuss Voigt Hill
#
# Bulk Modulus (GPa) = 25.20548 67.24449 46.22499
# Shear Modulus (GPa) = 165.28824 23.85534 94.57179
#
# Velocity S-wave (km/s) = 9.20454 3.49682 6.96245
# Velocity P-wave (km/s) = 11.21983 7.12544 9.39831
#
# Compressibility (1/GPa) = 0.03967391
#
# Stress axis : x y z
#
# Youngs Moduli (GPa) = 116.78532 16.64839 100.37909
#
# Poissons Ratio (x) = 0.11289 0.24210
# Poissons Ratio (y) = 0.79190 1.03047
# Poissons Ratio (z) = 0.28167 0.17091
#
# Static dielectric constant tensor:
#      x y z
#    x 3.847950 0.000000 0.000000 
#    y 0.000000 2.928520 0.000000 
#    z 0.000000 0.000000 3.756980 
# 
# 
# High freq. dielectric constant tensor:
#      x y z
#    x 1.781800 0.000000 0.000000 
#    y 0.000000 1.690380 0.000000 
#    z 0.000000 0.000000 1.777240 
# 
# From -- ./inp_files/24904.got.cif
#   From: 2010.03.12/outbox.cif.g09.slc.cpg/sg51_13_cif.got.tgz:24904.got - 2010.04.16 13:43:02.
