data_PCOD8212357
_publ_section_title
;
Structure prediction by ZEFSAII (Michael W. Deem and Ramdas Pophale) SiO2 
 PCOD8212357
Probable space group: P M M A
;
_chemical_formula_sum "Si O2"
_cell_formula_units_Z 48
_cell_length_a 8.688279
_cell_length_b 29.043930
_cell_length_c 10.200466
_cell_angle_alpha 90.000000
_cell_angle_beta 90.000000
_cell_angle_gamma 90.000000
_cell_volume 2574.003616
_symmetry_space_group_name_H-M "P M M A"
_symmetry_group_IT_number 51
_symmetry_cell_setting 'orthorhombic'
loop_
_space_group_symop_operation_xyz
x,y,z
1/2-x,-y,z
1/2+x,-y,-z
-x,y,-z
-x,-y,-z
1/2+x,y,-z
1/2-x,y,z
x,-y,z
loop_
_atom_site_type_symbol
_atom_site_label
_atom_site_fract_x
_atom_site_fract_y
_atom_site_fract_z
Si Si1 0.066945 0.287559 0.360741
Si Si2 0.927053 0.445650 0.863321
Si Si3 0.429978 0.053232 0.637360
Si Si4 0.431354 0.781042 0.135978
Si Si5 0.932232 0.614006 0.360786
Si Si6 0.431622 0.885495 0.136594
O O1 0.250000 0.290284 0.369684
O O2 0.009187 0.250755 0.254051
O O3 0.000000 0.271625 0.500000
O O4 0.001662 0.336979 0.318941
O O5 0.750000 0.429690 0.857938
O O6 0.942832 0.500000 0.847625
O O7 0.022806 0.423427 0.746368
O O8 0.000000 0.428976 0.000000
O O9 0.500000 0.069633 0.500000
O O10 0.250000 0.062823 0.635173
O O11 0.507488 0.082498 0.749725
O O12 0.468779 0.000000 0.663508
O O13 0.250000 0.778454 0.124170
O O14 0.486963 0.833187 0.163112
O O15 0.500000 0.762284 0.000000
O O16 0.750000 0.618079 0.372702
O O17 0.000000 0.597896 0.500000
O O18 0.250000 0.889066 0.129787
O O19 0.500000 0.903627 0.000000
#
# Coordination Sequence:
#
# PCOD8212357 Si02
#       6
#     8   8   8   8   8   8
#     4  10  20  36  55  78 108 140 178 221 266 317
#     4  10  21  38  59  83 111 143 180 222 268 319
#     4  10  21  37  56  79 107 140 178 220 267 318
#     4   9  20  36  55  79 107 139 176 219 264 315
#     4  11  22  37  57  81 110 144 182 224 270 318
#     4  10  20  36  56  80 109 141 179 221 267 317
#
# _framework density 18.647995000000002
#
# number of rings (size 3 to 8) (size 9 to 14) (size 15 to 20)
#    0.000    2.000    0.000    4.500    0.000    6.000 
#    0.000    3.333    0.000    0.000    0.000    0.000 
#    0.000    0.000    0.000    0.000    0.000    0.000 
#
# Total GULP energy -595389.179291 kJ/mol
# GULP energy per Si atom -12403.941235 kJ/mol
# Density = 1.860555 g / cm^3
# Si number density = 18.647995 Si / 1000 Ang^3
#
#
#
# Elastic Constant Matrix: (Units=GPa)
#
#
# Indices 1 2 3 4 5 6 
#
# 1 95.7358 37.8920 57.2040 0.0000 0.0000 0.0000
# 2 37.8920 63.2398 71.9663 0.0000 0.0000 0.0000
# 3 57.2040 71.9663 155.6304 0.0000 0.0000 0.0000
# 4 0.0000 0.0000 0.0000 39.3128 0.0000 0.0000
# 5 0.0000 0.0000 0.0000 0.0000 38.8059 0.0000
# 6 0.0000 0.0000 0.0000 0.0000 0.0000 30.4393
#
#
#
# Elastic Compliance Matrix: (Units=1/GPa)
#
#
# Indices 1 2 3 4 5 6 
#
# 1 0.014216 -0.005428 -0.002715 0.000000 0.000000 0.000000
# 2 -0.005428 0.035449 -0.014397 0.000000 0.000000 0.000000
# 3 -0.002715 -0.014397 0.014081 0.000000 0.000000 0.000000
# 4 0.000000 0.000000 0.000000 0.025437 0.000000 0.000000
# 5 0.000000 0.000000 0.000000 0.000000 0.025769 0.000000
# 6 0.000000 0.000000 0.000000 0.000000 0.000000 0.032852
#
#
# Mechanical properties :
#
#
# Convention : Reuss Voigt Hill
#
# Bulk Modulus (GPa) = 53.57542 72.08117 62.82830
# Shear Modulus (GPa) = 25.11205 31.54784 28.32994
#
# Velocity S-wave (km/s) = 3.67363 4.11756 3.90191
# Velocity P-wave (km/s) = 6.84005 7.83219 7.35287
#
# Compressibility (1/GPa) = 0.01866528
#
# Stress axis : x y z
#
# Youngs Moduli (GPa) = 70.34173 28.20958 71.01766
#
# Poissons Ratio (x) = 0.15312 0.19284
# Poissons Ratio (y) = 0.38182 1.02245
# Poissons Ratio (z) = 0.19100 0.40614
#
# Static dielectric constant tensor:
#      x y z
#    x 3.448660 0.000000 0.000000 
#    y 0.000000 3.464050 0.000000 
#    z 0.000000 0.000000 3.567060 
# 
# 
# High freq. dielectric constant tensor:
#      x y z
#    x 1.738890 0.000000 0.000000 
#    y 0.000000 1.719360 0.000000 
#    z 0.000000 0.000000 1.734590 
# 
# From -- ./inp_files/5969.got.cif
#   From: 2010.03.12/outbox.cif.g09.slc.cpg/sg51_3_cif.got.tgz:5969.got - 2010.04.16 13:43:02.
