data_PCOD8212576
_publ_section_title
;
Structure prediction by ZEFSAII (Michael W. Deem and Ramdas Pophale) SiO2 
 PCOD8212576
Probable space group: P M M A
;
_chemical_formula_sum "Si O2"
_cell_formula_units_Z 64
_cell_length_a 18.483399
_cell_length_b 8.776968
_cell_length_c 20.035183
_cell_angle_alpha 90.000000
_cell_angle_beta 90.000000
_cell_angle_gamma 90.000000
_cell_volume 3250.271706
_symmetry_space_group_name_H-M "P M M A"
_symmetry_group_IT_number 51
_symmetry_cell_setting 'orthorhombic'
loop_
_space_group_symop_operation_xyz
x,y,z
1/2-x,-y,z
1/2+x,-y,-z
-x,y,-z
-x,-y,-z
1/2+x,y,-z
1/2-x,y,z
x,-y,z
loop_
_atom_site_type_symbol
_atom_site_label
_atom_site_fract_x
_atom_site_fract_y
_atom_site_fract_z
Si Si1 0.167776 0.174006 0.789105
Si Si2 0.404070 0.679469 0.285378
Si Si3 0.071947 0.819789 0.533771
Si Si4 0.833774 0.822308 0.586427
Si Si5 0.666351 0.818837 0.844871
Si Si6 0.575855 0.177830 0.971543
Si Si7 0.164546 0.329721 0.920383
Si Si8 0.448094 0.822376 0.681012
O O1 0.250000 0.215354 0.771667
O O2 0.136497 0.279847 0.847745
O O3 0.123332 0.206513 0.723117
O O4 0.160080 0.000000 0.813100
O O5 0.400038 0.500000 0.276328
O O6 0.372031 0.725863 0.356604
O O7 0.357779 0.754206 0.226281
O O8 0.486805 0.733792 0.283431
O O9 0.138773 0.769225 0.486879
O O10 0.073267 0.753484 0.608669
O O11 0.000000 0.755359 0.500000
O O12 0.070439 0.000000 0.539589
O O13 0.750000 0.787287 0.589355
O O14 0.851937 0.000000 0.598239
O O15 0.750000 0.767792 0.859920
O O16 0.609248 0.757556 0.901525
O O17 0.662990 0.000000 0.841655
O O18 0.563752 0.000000 0.962219
O O19 0.500000 0.250568 0.000000
O O20 0.636268 0.210667 0.026060
O O21 0.250000 0.319710 0.921970
O O22 0.136600 0.500000 0.935937
O O23 0.469821 0.000000 0.677177
#
# Coordination Sequence:
#
# PCOD8212576 Si02
#       8
#     8   8   8   8   8   8   8   8
#     4   9  19  35  57  85 114 147 189 236 282 332
#     4  12  25  38  56  84 118 154 194 240 287 340
#     4   9  16  31  56  83 109 141 183 231 282 333
#     4  10  20  36  60  87 114 148 192 239 289 346
#     4  10  22  41  63  85 114 153 194 237 288 345
#     4  10  22  39  61  90 118 146 186 236 287 338
#     4  10  21  37  58  83 115 154 189 224 272 332
#     4  10  20  36  60  84 115 153 191 236 288 345
#
# _framework density 19.690660000000001
#
# number of rings (size 3 to 8) (size 9 to 14) (size 15 to 20)
#    0.000    2.000    1.250    2.250    1.750    5.000 
#    0.000    3.750    0.000    0.000    0.000    1.750 
#    0.000    0.000    0.000    0.000    0.000    0.000 
#
# Total GULP energy -793372.088705 kJ/mol
# GULP energy per Si atom -12396.438886 kJ/mol
# Density = 1.964584 g / cm^3
# Si number density = 19.690660 Si / 1000 Ang^3
#
#
#
# Elastic Constant Matrix: (Units=GPa)
#
#
# Indices 1 2 3 4 5 6 
#
# 1 79.7157 29.9913 47.8150 0.0000 0.0000 0.0000
# 2 29.9913 18.8926 18.5968 0.0000 0.0000 0.0000
# 3 47.8150 18.5968 111.7806 0.0000 0.0000 0.0000
# 4 0.0000 0.0000 0.0000 0.7183 0.0000 0.0000
# 5 0.0000 0.0000 0.0000 0.0000 38.2465 0.0000
# 6 0.0000 0.0000 0.0000 0.0000 0.0000 14.1542
#
#
#
# Elastic Compliance Matrix: (Units=1/GPa)
#
#
# Indices 1 2 3 4 5 6 
#
# 1 0.035056 -0.048897 -0.006861 0.000000 0.000000 0.000000
# 2 -0.048897 0.131499 -0.000961 0.000000 0.000000 0.000000
# 3 -0.006861 -0.000961 0.012041 0.000000 0.000000 0.000000
# 4 0.000000 0.000000 0.000000 1.392207 0.000000 0.000000
# 5 0.000000 0.000000 0.000000 0.000000 0.026146 0.000000
# 6 0.000000 0.000000 0.000000 0.000000 0.000000 0.070650
#
#
# Mechanical properties :
#
#
# Convention : Reuss Voigt Hill
#
# Bulk Modulus (GPa) = 15.34726 44.79948 30.07337
# Shear Modulus (GPa) = 2.77353 18.22286 10.49819
#
# Velocity S-wave (km/s) = 1.18811 3.04543 2.31152
# Velocity P-wave (km/s) = 3.11340 5.93020 4.73606
#
# Compressibility (1/GPa) = 0.06515822
#
# Stress axis : x y z
#
# Youngs Moduli (GPa) = 28.52563 7.60459 83.05175
#
# Poissons Ratio (x) = 0.37184 0.56978
# Poissons Ratio (y) = 1.39482 0.07984
# Poissons Ratio (z) = 0.19570 0.00731
#
# Static dielectric constant tensor:
#      x y z
#    x 3.748560 0.000000 0.000000 
#    y 0.000000 3.384140 0.000000 
#    z 0.000000 0.000000 3.805260 
# 
# 
# High freq. dielectric constant tensor:
#      x y z
#    x 1.773920 0.000000 0.000000 
#    y 0.000000 1.734580 0.000000 
#    z 0.000000 0.000000 1.780760 
# 
# From -- ./inp_files/33828.got.cif
#   From: 2010.03.12/outbox.cif.g09.slc.cpg/sg51_17_cif.got.tgz:33828.got - 2010.04.16 13:43:02.
