data_PCOD8212928
_publ_section_title
;
Structure prediction by ZEFSAII (Michael W. Deem and Ramdas Pophale) SiO2 
 PCOD8212928
Probable space group: P M M A
;
_chemical_formula_sum "Si O2"
_cell_formula_units_Z 64
_cell_length_a 25.170120
_cell_length_b 8.874651
_cell_length_c 17.292706
_cell_angle_alpha 90.000000
_cell_angle_beta 90.000000
_cell_angle_gamma 90.000000
_cell_volume 3862.776025
_symmetry_space_group_name_H-M "P M M A"
_symmetry_group_IT_number 51
_symmetry_cell_setting 'orthorhombic'
loop_
_space_group_symop_operation_xyz
x,y,z
1/2-x,-y,z
1/2+x,-y,-z
-x,y,-z
-x,-y,-z
1/2+x,y,-z
1/2-x,y,z
x,-y,z
loop_
_atom_site_type_symbol
_atom_site_label
_atom_site_fract_x
_atom_site_fract_y
_atom_site_fract_z
Si Si1 0.437200 0.680356 0.832972
Si Si2 0.063235 0.334399 0.000144
Si Si3 0.311292 0.174924 0.420697
Si Si4 0.601283 0.321889 0.675349
Si Si5 0.311503 0.324044 0.580853
Si Si6 0.003576 0.824390 0.409539
Si Si7 0.442983 0.679148 0.164372
Si Si8 0.898418 0.822293 0.317544
O O1 0.432252 0.500000 0.828043
O O2 0.497451 0.735056 0.817504
O O3 0.400837 0.757679 0.768965
O O4 0.418968 0.741569 0.918670
O O5 0.089104 0.500000 0.000412
O O6 0.078835 0.252181 0.081830
O O7 0.000000 0.348753 0.000000
O O8 0.250000 0.204649 0.400939
O O9 0.344993 0.240920 0.350405
O O10 0.329009 0.258455 0.498421
O O11 0.323939 0.000000 0.432113
O O12 0.607559 0.500000 0.667798
O O13 0.551567 0.272078 0.624144
O O14 0.593844 0.271062 0.764556
O O15 0.250000 0.288428 0.597256
O O16 0.323649 0.500000 0.580556
O O17 0.345022 0.244499 0.646961
O O18 0.949167 0.772227 0.368425
O O19 0.000000 0.788547 0.500000
O O20 0.015055 0.000000 0.394549
O O21 0.444787 0.500000 0.154945
O O22 0.893396 0.000000 0.314493
#
# Coordination Sequence:
#
# PCOD8212928 Si02
#       8
#     8   8   8   8   8   8   8   8
#     4   9  15  27  46  67  95 129 164 199 233 279
#     4   7  11  21  41  65  90 124 161 195 234 278
#     4  10  21  37  54  70  93 126 161 197 240 290
#     4  11  20  30  49  74  98 124 157 202 243 280
#     4  10  21  37  56  75  93 117 158 209 249 281
#     4  10  21  34  45  61  92 132 166 192 227 283
#     4   8  14  25  42  69  98 124 158 198 241 282
#     4  11  21  31  47  71 101 133 160 193 238 288
#
# _framework density 16.568396
#
# number of rings (size 3 to 8) (size 9 to 14) (size 15 to 20)
#    0.000    2.500    1.250    3.750    0.000    3.250 
#    0.000    0.000    0.000    4.875    0.000    0.875 
#    0.000    3.000    0.000    0.000    0.000    0.000 
#
# Total GULP energy -793219.738685 kJ/mol
# GULP energy per Si atom -12394.058417 kJ/mol
# Density = 1.653069 g / cm^3
# Si number density = 16.568396 Si / 1000 Ang^3
#
#
#
# Elastic Constant Matrix: (Units=GPa)
#
#
# Indices 1 2 3 4 5 6 
#
# 1 64.3167 29.2677 56.3170 0.0000 0.0000 0.0000
# 2 29.2677 46.8258 36.2180 0.0000 0.0000 0.0000
# 3 56.3170 36.2180 156.9676 0.0000 0.0000 0.0000
# 4 0.0000 0.0000 0.0000 6.6793 0.0000 0.0000
# 5 0.0000 0.0000 0.0000 0.0000 19.6291 0.0000
# 6 0.0000 0.0000 0.0000 0.0000 0.0000 23.5982
#
#
#
# Elastic Compliance Matrix: (Units=1/GPa)
#
#
# Indices 1 2 3 4 5 6 
#
# 1 0.026862 -0.011363 -0.007016 0.000000 0.000000 0.000000
# 2 -0.011363 0.030802 -0.003030 0.000000 0.000000 0.000000
# 3 -0.007016 -0.003030 0.009587 0.000000 0.000000 0.000000
# 4 0.000000 0.000000 0.000000 0.149717 0.000000 0.000000
# 5 0.000000 0.000000 0.000000 0.000000 0.050945 0.000000
# 6 0.000000 0.000000 0.000000 0.000000 0.000000 0.042376
#
#
# Mechanical properties :
#
#
# Convention : Reuss Voigt Hill
#
# Bulk Modulus (GPa) = 40.92879 56.85728 48.89304
# Shear Modulus (GPa) = 13.84078 19.73515 16.78797
#
# Velocity S-wave (km/s) = 2.89342 3.45502 3.18662
# Velocity P-wave (km/s) = 5.99325 7.09277 6.56607
#
# Compressibility (1/GPa) = 0.02443268
#
# Stress axis : x y z
#
# Youngs Moduli (GPa) = 37.22719 32.46552 104.30787
#
# Poissons Ratio (x) = 0.36892 0.73179
# Poissons Ratio (y) = 0.42302 0.31607
# Poissons Ratio (z) = 0.26117 0.09838
#
# Static dielectric constant tensor:
#      x y z
#    x 2.882550 0.000000 0.000000 
#    y 0.000000 2.942980 0.000000 
#    z 0.000000 0.000000 3.563980 
# 
# 
# High freq. dielectric constant tensor:
#      x y z
#    x 1.602020 0.000000 0.000000 
#    y 0.000000 1.622100 0.000000 
#    z 0.000000 0.000000 1.653690 
# 
# From -- ./inp_files/30845.got.cif
#   From: 2010.03.12/outbox.cif.g09.slc.cpg/sg51_16_cif.got.tgz:30845.got - 2010.04.16 13:43:02.
