data_PCOD8212960
_publ_section_title
;
Structure prediction by ZEFSAII (Michael W. Deem and Ramdas Pophale) SiO2 
 PCOD8212960
Probable space group: P M M A
;
_chemical_formula_sum "Si O2"
_cell_formula_units_Z 48
_cell_length_a 9.056146
_cell_length_b 29.754708
_cell_length_c 9.546290
_cell_angle_alpha 90.000000
_cell_angle_beta 90.000000
_cell_angle_gamma 90.000000
_cell_volume 2572.371750
_symmetry_space_group_name_H-M "P M M A"
_symmetry_group_IT_number 51
_symmetry_cell_setting 'orthorhombic'
loop_
_space_group_symop_operation_xyz
x,y,z
1/2-x,-y,z
1/2+x,-y,-z
-x,y,-z
-x,-y,-z
1/2+x,y,-z
1/2-x,y,z
x,-y,z
loop_
_atom_site_type_symbol
_atom_site_label
_atom_site_fract_x
_atom_site_fract_y
_atom_site_fract_z
Si Si1 0.420350 0.552981 0.642251
Si Si2 0.422978 0.050922 0.357360
Si Si3 0.075136 0.382848 0.149112
Si Si4 0.076569 0.796281 0.357914
Si Si5 0.078407 0.694749 0.359732
Si Si6 0.576208 0.127391 0.851709
O O1 0.500000 0.568686 0.500000
O O2 0.250000 0.568572 0.636729
O O3 0.433074 0.500000 0.662774
O O4 0.504540 0.574778 0.772492
O O5 0.500000 0.066403 0.500000
O O6 0.250000 0.055819 0.383015
O O7 0.475864 0.083188 0.232495
O O8 0.467650 0.000000 0.317120
O O9 0.250000 0.390271 0.133794
O O10 0.035641 0.337339 0.231829
O O11 0.000000 0.378163 0.000000
O O12 0.250000 0.800451 0.382246
O O13 0.028197 0.745344 0.320640
O O14 0.024789 0.828198 0.231789
O O15 0.000000 0.812731 0.500000
O O16 0.250000 0.692907 0.392498
O O17 0.000000 0.677335 0.500000
O O18 0.750000 0.127209 0.875293
O O19 0.500000 0.127354 0.000000
#
# Coordination Sequence:
#
# PCOD8212960 Si02
#       6
#     8   8   8   8   8   8
#     4  10  21  38  60  84 109 139 176 217 260 307
#     4   9  18  33  52  74  99 128 166 211 255 300
#     4  11  23  37  54  78 109 143 177 215 261 311
#     4   9  18  34  54  76 101 130 169 213 255 302
#     4   9  19  35  55  78 103 133 170 213 258 305
#     4  10  21  34  49  72 103 136 168 206 252 303
#
# _framework density 18.659821000000001
#
# number of rings (size 3 to 8) (size 9 to 14) (size 15 to 20)
#    0.000    2.333    0.000    2.000    0.000    6.333 
#    0.000    0.000    0.000    0.000    0.000    0.000 
#    0.000    0.000    0.000    0.000    0.000    0.000 
#
# Total GULP energy -595333.083133 kJ/mol
# GULP energy per Si atom -12402.772565 kJ/mol
# Density = 1.861735 g / cm^3
# Si number density = 18.659821 Si / 1000 Ang^3
#
#
#
# Elastic Constant Matrix: (Units=GPa)
#
#
# Indices 1 2 3 4 5 6 
#
# 1 72.9017 48.7268 70.0527 0.0000 0.0000 0.0000
# 2 48.7268 93.6834 79.8065 0.0000 0.0000 0.0000
# 3 70.0527 79.8065 179.6998 0.0000 0.0000 0.0000
# 4 0.0000 0.0000 0.0000 21.6841 0.0000 0.0000
# 5 0.0000 0.0000 0.0000 0.0000 40.6755 0.0000
# 6 0.0000 0.0000 0.0000 0.0000 0.0000 19.8412
#
#
#
# Elastic Compliance Matrix: (Units=1/GPa)
#
#
# Indices 1 2 3 4 5 6 
#
# 1 0.024836 -0.007512 -0.006346 0.000000 0.000000 0.000000
# 2 -0.007512 0.019442 -0.005706 0.000000 0.000000 0.000000
# 3 -0.006346 -0.005706 0.010573 0.000000 0.000000 0.000000
# 4 0.000000 0.000000 0.000000 0.046117 0.000000 0.000000
# 5 0.000000 0.000000 0.000000 0.000000 0.024585 0.000000
# 6 0.000000 0.000000 0.000000 0.000000 0.000000 0.050400
#
#
# Mechanical properties :
#
#
# Convention : Reuss Voigt Hill
#
# Bulk Modulus (GPa) = 63.59979 82.60633 73.10306
# Shear Modulus (GPa) = 22.69419 26.28674 24.49047
#
# Velocity S-wave (km/s) = 3.49120 3.75738 3.62673
# Velocity P-wave (km/s) = 7.09994 7.94919 7.53654
#
# Compressibility (1/GPa) = 0.01572332
#
# Stress axis : x y z
#
# Youngs Moduli (GPa) = 40.26482 51.43437 94.58316
#
# Poissons Ratio (x) = 0.38637 0.60019
# Poissons Ratio (y) = 0.30246 0.53970
# Poissons Ratio (z) = 0.25550 0.29349
#
# Static dielectric constant tensor:
#      x y z
#    x 3.416290 0.000000 0.000000 
#    y 0.000000 3.724600 0.000000 
#    z 0.000000 0.000000 3.408590 
# 
# 
# High freq. dielectric constant tensor:
#      x y z
#    x 1.723750 0.000000 0.000000 
#    y 0.000000 1.737960 0.000000 
#    z 0.000000 0.000000 1.719750 
# 
# From -- ./inp_files/5971.got.cif
#   From: 2010.03.12/outbox.cif.g09.slc.cpg/sg51_3_cif.got.tgz:5971.got - 2010.04.16 13:43:02.
