data_PCOD8212619
_publ_section_title
;
Structure prediction by ZEFSAII (Michael W. Deem and Ramdas Pophale) SiO2 
 PCOD8212619
Probable space group: P M M A
;
_chemical_formula_sum "Si O2"
_cell_formula_units_Z 48
_cell_length_a 15.279384
_cell_length_b 16.197277
_cell_length_c 9.053498
_cell_angle_alpha 90.000000
_cell_angle_beta 90.000000
_cell_angle_gamma 90.000000
_cell_volume 2240.599657
_symmetry_space_group_name_H-M "P M M A"
_symmetry_group_IT_number 51
_symmetry_cell_setting 'orthorhombic'
loop_
_space_group_symop_operation_xyz
x,y,z
1/2-x,-y,z
1/2+x,-y,-z
-x,y,-z
-x,-y,-z
1/2+x,y,-z
1/2-x,y,z
x,-y,z
loop_
_atom_site_type_symbol
_atom_site_label
_atom_site_fract_x
_atom_site_fract_y
_atom_site_fract_z
Si Si1 0.994587 0.180774 0.161025
Si Si2 0.413961 0.593541 0.564990
Si Si3 0.250000 0.401934 0.396536
Si Si4 0.750000 0.599153 0.946821
Si Si5 0.850434 0.905937 0.688656
Si Si6 0.152733 0.093984 0.656442
Si Si7 0.427956 0.363013 0.895623
O O1 0.915544 0.146668 0.254860
O O2 0.974151 0.276942 0.144103
O O3 0.087842 0.161761 0.235510
O O4 0.000000 0.138845 0.000000
O O5 0.500000 0.638976 0.500000
O O6 0.414524 0.500000 0.507605
O O7 0.332030 0.637501 0.485078
O O8 0.409830 0.591453 0.741966
O O9 0.250000 0.500000 0.412781
O O10 0.250000 0.376352 0.225498
O O11 0.750000 0.500000 0.970793
O O12 0.835546 0.640955 0.019157
O O13 0.750000 0.885886 0.730247
O O14 0.866451 0.897827 0.515567
O O15 0.873716 0.000000 0.737808
O O16 0.250000 0.126816 0.692993
O O17 0.143554 0.000000 0.707439
O O18 0.500000 0.409950 0.000000
#
# Coordination Sequence:
#
# PCOD8212619 Si02
#       7
#     8   8   4   4   8   8   8
#     4  11  24  38  56  87 130 172 200 258 310 375
#     4  10  20  36  61  89 120 151 200 266 313 364
#     4   9  19  37  63  97 119 145 200 271 326 360
#     4  11  23  43  71  91 120 167 218 267 319 384
#     4   9  19  39  66  94 121 161 221 271 312 369
#     4   9  19  37  63  91 122 166 216 267 313 366
#     4  11  25  42  60  91 130 176 207 252 316 394
#
# _framework density 21.422836
#
# number of rings (size 3 to 8) (size 9 to 14) (size 15 to 20)
#    0.000    2.000    0.000    4.000    1.167    8.000 
#    4.500    1.667    0.000    0.000    0.000    0.000 
#    0.000    0.000    0.000    0.000    0.000    0.000 
#
# Total GULP energy -594934.970914 kJ/mol
# GULP energy per Si atom -12394.478561 kJ/mol
# Density = 2.137408 g / cm^3
# Si number density = 21.422836 Si / 1000 Ang^3
#
#
#
# Elastic Constant Matrix: (Units=GPa)
#
#
# Indices 1 2 3 4 5 6 
#
# 1 178.2355 33.7409 71.7696 0.0000 0.0000 0.0000
# 2 33.7409 59.6836 13.8855 0.0000 0.0000 0.0000
# 3 71.7696 13.8855 112.7383 0.0000 0.0000 0.0000
# 4 0.0000 0.0000 0.0000 24.5999 0.0000 0.0000
# 5 0.0000 0.0000 0.0000 0.0000 191.6890 0.0000
# 6 0.0000 0.0000 0.0000 0.0000 0.0000 30.8389
#
#
#
# Elastic Compliance Matrix: (Units=1/GPa)
#
#
# Indices 1 2 3 4 5 6 
#
# 1 0.008207 -0.003525 -0.004790 0.000000 0.000000 0.000000
# 2 -0.003525 0.018763 -0.000067 0.000000 0.000000 0.000000
# 3 -0.004790 -0.000067 0.011928 0.000000 0.000000 0.000000
# 4 0.000000 0.000000 0.000000 0.040651 0.000000 0.000000
# 5 0.000000 0.000000 0.000000 0.000000 0.005217 0.000000
# 6 0.000000 0.000000 0.000000 0.000000 0.000000 0.032427
#
#
# Mechanical properties :
#
#
# Convention : Reuss Voigt Hill
#
# Bulk Modulus (GPa) = 45.18047 65.49438 55.33742
# Shear Modulus (GPa) = 35.37708 64.84297 50.11003
#
# Velocity S-wave (km/s) = 4.06812 5.50762 4.84167
# Velocity P-wave (km/s) = 6.57280 8.43112 7.55928
#
# Compressibility (1/GPa) = 0.02213346
#
# Stress axis : x y z
#
# Youngs Moduli (GPa) = 121.85077 53.29523 83.83730
#
# Poissons Ratio (x) = 0.18787 0.40161
# Poissons Ratio (y) = 0.42953 0.00561
# Poissons Ratio (z) = 0.58370 0.00357
#
# Static dielectric constant tensor:
#      x y z
#    x 4.243120 0.000000 0.000000 
#    y 0.000000 3.538440 0.000000 
#    z 0.000000 0.000000 4.125290 
# 
# 
# High freq. dielectric constant tensor:
#      x y z
#    x 1.862440 0.000000 0.000000 
#    y 0.000000 1.809350 0.000000 
#    z 0.000000 0.000000 1.850300 
# 
# From -- ./inp_files/8316.got.cif
#   From: 2010.03.12/outbox.cif.g09.slc.cpg/sg51_5_cif.got.tgz:8316.got - 2010.04.16 13:43:02.
