data_PCOD8213534
_publ_section_title
;
Structure prediction by ZEFSAII (Michael W. Deem and Ramdas Pophale) SiO2 
 PCOD8213534
Probable space group: P M M A
;
_chemical_formula_sum "Si O2"
_cell_formula_units_Z 56
_cell_length_a 8.838143
_cell_length_b 14.459870
_cell_length_c 23.485906
_cell_angle_alpha 90.000000
_cell_angle_beta 90.000000
_cell_angle_gamma 90.000000
_cell_volume 3001.461182
_symmetry_space_group_name_H-M "P M M A"
_symmetry_group_IT_number 51
_symmetry_cell_setting 'orthorhombic'
loop_
_space_group_symop_operation_xyz
x,y,z
1/2-x,-y,z
1/2+x,-y,-z
-x,y,-z
-x,-y,-z
1/2+x,y,-z
1/2-x,y,z
x,-y,z
loop_
_atom_site_type_symbol
_atom_site_label
_atom_site_fract_x
_atom_site_fract_y
_atom_site_fract_z
Si Si1 0.572799 0.894398 0.892526
Si Si2 0.571805 0.723487 0.057637
Si Si3 0.076965 0.892918 0.774952
Si Si4 0.928565 0.894094 0.440989
Si Si5 0.927578 0.784632 0.333615
Si Si6 0.573751 0.603604 0.275373
Si Si7 0.424320 0.392279 0.156542
O O1 0.750000 0.877728 0.899913
O O2 0.483220 0.829341 0.936006
O O3 0.526362 0.867488 0.828527
O O4 0.526671 0.000000 0.905887
O O5 0.750000 0.720145 0.052090
O O6 0.520985 0.663444 0.111130
O O7 0.500000 0.681830 0.000000
O O8 0.250000 0.863776 0.788846
O O9 0.008562 0.837647 0.721536
O O10 0.067475 0.000000 0.759156
O O11 0.750000 0.883979 0.446432
O O12 0.996647 0.827485 0.391504
O O13 0.000000 0.860406 0.500000
O O14 0.974599 0.000000 0.427292
O O15 0.750000 0.803274 0.335903
O O16 0.965628 0.675323 0.326436
O O17 0.750000 0.610183 0.259330
O O18 0.530668 0.500000 0.295943
O O19 0.481102 0.632423 0.219604
O O20 0.250000 0.362980 0.151304
O O21 0.448331 0.500000 0.144122
#
# Coordination Sequence:
#
# PCOD8213534 Si02
#       7
#     8   8   8   8   8   8   8
#     4  10  21  37  55  76 105 138 170 208 256 309
#     4  12  25  40  58  78 102 133 172 216 257 303
#     4   9  16  27  46  72  98 125 160 200 245 300
#     4   9  17  30  47  67  94 129 168 208 249 294
#     4   9  16  27  46  70  96 128 164 203 247 294
#     4   9  17  30  50  76 102 129 164 203 243 292
#     4  10  21  38  59  82 109 138 166 202 254 312
#
# _framework density 18.657579999999999
#
# number of rings (size 3 to 8) (size 9 to 14) (size 15 to 20)
#    0.000    2.286    0.000    3.429    0.000    5.143 
#    0.000    1.429    0.000    3.857    0.000    0.000 
#    0.000    0.000    0.000    0.000    0.000    0.000 
#
# Total GULP energy -694418.612554 kJ/mol
# GULP energy per Si atom -12400.332367 kJ/mol
# Density = 1.861511 g / cm^3
# Si number density = 18.657580 Si / 1000 Ang^3
#
#
#
# Elastic Constant Matrix: (Units=GPa)
#
#
# Indices 1 2 3 4 5 6 
#
# 1 78.6820 30.9125 36.5906 0.0000 0.0000 0.0000
# 2 30.9125 89.4527 61.6540 0.0000 0.0000 0.0000
# 3 36.5906 61.6540 97.5821 0.0000 0.0000 0.0000
# 4 0.0000 0.0000 0.0000 25.8906 0.0000 0.0000
# 5 0.0000 0.0000 0.0000 0.0000 27.4073 0.0000
# 6 0.0000 0.0000 0.0000 0.0000 0.0000 21.1718
#
#
#
# Elastic Compliance Matrix: (Units=1/GPa)
#
#
# Indices 1 2 3 4 5 6 
#
# 1 0.015684 -0.002421 -0.004352 0.000000 0.000000 0.000000
# 2 -0.002421 0.020176 -0.011840 0.000000 0.000000 0.000000
# 3 -0.004352 -0.011840 0.019360 0.000000 0.000000 0.000000
# 4 0.000000 0.000000 0.000000 0.038624 0.000000 0.000000
# 5 0.000000 0.000000 0.000000 0.000000 0.036487 0.000000
# 6 0.000000 0.000000 0.000000 0.000000 0.000000 0.047233
#
#
# Mechanical properties :
#
#
# Convention : Reuss Voigt Hill
#
# Bulk Modulus (GPa) = 55.56827 58.22566 56.89696
# Shear Modulus (GPa) = 22.64625 23.99792 23.32208
#
# Velocity S-wave (km/s) = 3.48772 3.59029 3.53938
# Velocity P-wave (km/s) = 6.78725 6.96148 6.87492
#
# Compressibility (1/GPa) = 0.01799588
#
# Stress axis : x y z
#
# Youngs Moduli (GPa) = 63.75864 49.56350 51.65229
#
# Poissons Ratio (x) = 0.11998 0.22478
# Poissons Ratio (y) = 0.15434 0.61156
# Poissons Ratio (z) = 0.27746 0.58683
#
# Static dielectric constant tensor:
#      x y z
#    x 3.322330 0.000000 0.000000 
#    y 0.000000 3.623650 0.000000 
#    z 0.000000 0.000000 3.426450 
# 
# 
# High freq. dielectric constant tensor:
#      x y z
#    x 1.709320 0.000000 0.000000 
#    y 0.000000 1.729300 0.000000 
#    z 0.000000 0.000000 1.710220 
# 
# From -- ./inp_files/31958.got.cif
#   From: 2010.03.12/outbox.cif.g09.slc.cpg/sg51_16_cif.got.tgz:31958.got - 2010.04.16 13:43:02.
