data_PCOD8213581
_publ_section_title
;
Structure prediction by ZEFSAII (Michael W. Deem and Ramdas Pophale) SiO2 
 PCOD8213581
Probable space group: P M M A
;
_chemical_formula_sum "Si O2"
_cell_formula_units_Z 64
_cell_length_a 8.995122
_cell_length_b 23.036961
_cell_length_c 15.281715
_cell_angle_alpha 90.000000
_cell_angle_beta 90.000000
_cell_angle_gamma 90.000000
_cell_volume 3166.681180
_symmetry_space_group_name_H-M "P M M A"
_symmetry_group_IT_number 51
_symmetry_cell_setting 'orthorhombic'
loop_
_space_group_symop_operation_xyz
x,y,z
1/2-x,-y,z
1/2+x,-y,-z
-x,y,-z
-x,-y,-z
1/2+x,y,-z
1/2-x,y,z
x,-y,z
loop_
_atom_site_type_symbol
_atom_site_label
_atom_site_fract_x
_atom_site_fract_y
_atom_site_fract_z
Si Si1 0.080780 0.565406 0.091742
Si Si2 0.076189 0.199828 0.410848
Si Si3 0.424520 0.321984 0.336808
Si Si4 0.417916 0.236134 0.078659
Si Si5 0.923297 0.564112 0.407566
Si Si6 0.074475 0.332134 0.834100
Si Si7 0.080823 0.145430 0.228293
Si Si8 0.078935 0.068137 0.909946
O O1 0.250000 0.587746 0.082280
O O2 0.077341 0.500000 0.126862
O O3 0.989560 0.602706 0.161788
O O4 0.000000 0.571074 0.000000
O O5 0.250000 0.188722 0.419498
O O6 0.044557 0.269241 0.404016
O O7 0.019181 0.163476 0.325163
O O8 0.000000 0.176740 0.500000
O O9 0.250000 0.331479 0.322685
O O10 0.498210 0.383621 0.357795
O O11 0.502519 0.300371 0.248888
O O12 0.250000 0.250856 0.052451
O O13 0.515180 0.295205 0.084002
O O14 0.425261 0.202320 0.169017
O O15 0.500000 0.200583 0.000000
O O16 0.750000 0.579598 0.417997
O O17 0.942275 0.500000 0.362382
O O18 0.000000 0.560726 0.500000
O O19 0.250000 0.333484 0.828013
O O20 0.250000 0.122817 0.236202
O O21 0.985386 0.096373 0.179109
O O22 0.250000 0.086288 0.919138
O O23 0.057706 0.000000 0.897192
O O24 0.000000 0.088621 0.000000
#
# Coordination Sequence:
#
# PCOD8213581 Si02
#       8
#     8   8   8   8   8   8   8   8
#     4  10  21  38  58  77 100 135 180 230 286 348
#     4  10  22  40  61  88 119 156 199 252 308 363
#     4  11  22  39  59  80 111 146 188 243 301 362
#     4  11  22  38  57  82 118 155 194 240 291 350
#     4  10  21  37  56  80 108 139 180 231 291 362
#     4  12  24  37  55  79 108 143 185 233 288 351
#     4  10  21  39  61  88 124 162 205 253 299 349
#     4  10  21  37  60  94 134 174 214 253 297 351
#
# _framework density 20.210433999999999
#
# number of rings (size 3 to 8) (size 9 to 14) (size 15 to 20)
#    0.000    1.500    1.250    4.125    0.000    7.250 
#    0.000    0.000    0.000    0.375    0.000    0.000 
#    0.000    0.000    0.000    0.000    0.000    0.000 
#
# Total GULP energy -793232.517057 kJ/mol
# GULP energy per Si atom -12394.258079 kJ/mol
# Density = 2.016443 g / cm^3
# Si number density = 20.210434 Si / 1000 Ang^3
#
#
#
# Elastic Constant Matrix: (Units=GPa)
#
#
# Indices 1 2 3 4 5 6 
#
# 1 146.0567 52.4599 59.7642 0.0000 0.0000 0.0000
# 2 52.4599 74.5796 36.6395 0.0000 0.0000 0.0000
# 3 59.7642 36.6395 127.2142 0.0000 0.0000 0.0000
# 4 0.0000 0.0000 0.0000 28.3818 0.0000 0.0000
# 5 0.0000 0.0000 0.0000 0.0000 38.7073 0.0000
# 6 0.0000 0.0000 0.0000 0.0000 0.0000 7.7777
#
#
#
# Elastic Compliance Matrix: (Units=1/GPa)
#
#
# Indices 1 2 3 4 5 6 
#
# 1 0.010144 -0.005585 -0.003157 0.000000 0.000000 0.000000
# 2 -0.005585 0.018693 -0.002760 0.000000 0.000000 0.000000
# 3 -0.003157 -0.002760 0.010139 0.000000 0.000000 0.000000
# 4 0.000000 0.000000 0.000000 0.035234 0.000000 0.000000
# 5 0.000000 0.000000 0.000000 0.000000 0.025835 0.000000
# 6 0.000000 0.000000 0.000000 0.000000 0.000000 0.128573
#
#
# Mechanical properties :
#
#
# Convention : Reuss Voigt Hill
#
# Bulk Modulus (GPa) = 62.60948 71.73087 67.17017
# Shear Modulus (GPa) = 19.45931 28.23913 23.84922
#
# Velocity S-wave (km/s) = 3.10632 3.74204 3.43891
# Velocity P-wave (km/s) = 6.62659 7.36475 7.00540
#
# Compressibility (1/GPa) = 0.01597202
#
# Stress axis : x y z
#
# Youngs Moduli (GPa) = 98.57640 53.49674 98.62879
#
# Poissons Ratio (x) = 0.29875 0.31140
# Poissons Ratio (y) = 0.55050 0.27224
# Poissons Ratio (z) = 0.31124 0.14766
#
# Static dielectric constant tensor:
#      x y z
#    x 3.723930 0.000000 0.000000 
#    y 0.000000 3.700540 0.000000 
#    z 0.000000 0.000000 3.720490 
# 
# 
# High freq. dielectric constant tensor:
#      x y z
#    x 1.797190 0.000000 0.000000 
#    y 0.000000 1.778180 0.000000 
#    z 0.000000 0.000000 1.785120 
# 
# From -- ./inp_files/22403.got.cif
#   From: 2010.03.12/outbox.cif.g09.slc.cpg/sg51_12_cif.got.tgz:22403.got - 2010.04.16 13:43:02.
