data_PCOD8213112
_publ_section_title
;
Structure prediction by ZEFSAII (Michael W. Deem and Ramdas Pophale) SiO2 
 PCOD8213112
Probable space group: P M M A
;
_chemical_formula_sum "Si O2"
_cell_formula_units_Z 48
_cell_length_a 8.972157
_cell_length_b 30.480163
_cell_length_c 9.139734
_cell_angle_alpha 90.000000
_cell_angle_beta 90.000000
_cell_angle_gamma 90.000000
_cell_volume 2499.468720
_symmetry_space_group_name_H-M "P M M A"
_symmetry_group_IT_number 51
_symmetry_cell_setting 'orthorhombic'
loop_
_space_group_symop_operation_xyz
x,y,z
1/2-x,-y,z
1/2+x,-y,-z
-x,y,-z
-x,-y,-z
1/2+x,y,-z
1/2-x,y,z
x,-y,z
loop_
_atom_site_type_symbol
_atom_site_label
_atom_site_fract_x
_atom_site_fract_y
_atom_site_fract_z
Si Si1 0.074033 0.340422 0.656985
Si Si2 0.425398 0.161426 0.850177
Si Si3 0.925614 0.000000 0.155846
Si Si4 0.574533 0.917692 0.345528
Si Si5 0.576366 0.500000 0.655737
Si Si6 0.923061 0.259944 0.148227
Si Si7 0.427386 0.584284 0.156928
O O1 0.250000 0.349816 0.645421
O O2 0.039590 0.291617 0.716244
O O3 0.000000 0.346245 0.500000
O O4 0.998892 0.373236 0.770293
O O5 0.250000 0.158405 0.873386
O O6 0.477870 0.128721 0.722570
O O7 0.476776 0.210889 0.809006
O O8 0.500000 0.145884 0.000000
O O9 0.979725 0.043052 0.241824
O O10 0.750000 0.000000 0.134161
O O11 0.000000 0.000000 0.000000
O O12 0.500000 0.924135 0.500000
O O13 0.750000 0.919152 0.367840
O O14 0.750000 0.500000 0.625674
O O15 0.500000 0.500000 0.500000
O O16 0.527797 0.542700 0.745436
O O17 0.750000 0.260471 0.112349
O O18 0.000000 0.276808 0.000000
O O19 0.250000 0.589975 0.141986
O O20 0.500000 0.576967 0.000000
#
# Coordination Sequence:
#
# PCOD8213112 Si02
#       7
#     8   8   4   8   4   8   8
#     4  11  23  38  56  81 112 146 183 227 275 325
#     4   9  18  34  54  77 104 137 177 220 263 315
#     4  10  21  36  54  78 104 134 173 218 262 312
#     4  10  21  35  52  76 107 138 173 215 262 314
#     4  10  23  40  60  86 116 148 183 224 271 320
#     4   9  19  35  55  78 106 139 178 222 268 317
#     4  11  23  40  61  86 114 147 186 227 271 322
#
# _framework density 19.204080999999999
#
# number of rings (size 3 to 8) (size 9 to 14) (size 15 to 20)
#    0.000    2.000    0.000    3.000    0.000    7.333 
#    0.000    0.000    0.000    0.000    0.000    0.000 
#    0.000    0.000    0.000    0.000    0.000    0.000 
#
# Total GULP energy -595329.346618 kJ/mol
# GULP energy per Si atom -12402.694721 kJ/mol
# Density = 1.916037 g / cm^3
# Si number density = 19.204081 Si / 1000 Ang^3
#
#
#
# Elastic Constant Matrix: (Units=GPa)
#
#
# Indices 1 2 3 4 5 6 
#
# 1 58.2130 46.4982 56.7172 0.0000 0.0000 0.0000
# 2 46.4982 124.1630 76.5264 0.0000 0.0000 0.0000
# 3 56.7172 76.5264 167.6956 0.0000 0.0000 0.0000
# 4 0.0000 0.0000 0.0000 38.3795 0.0000 0.0000
# 5 0.0000 0.0000 0.0000 0.0000 40.7030 0.0000
# 6 0.0000 0.0000 0.0000 0.0000 0.0000 23.1058
#
#
#
# Elastic Compliance Matrix: (Units=1/GPa)
#
#
# Indices 1 2 3 4 5 6 
#
# 1 0.029182 -0.006741 -0.006793 0.000000 0.000000 0.000000
# 2 -0.006741 0.012763 -0.003544 0.000000 0.000000 0.000000
# 3 -0.006793 -0.003544 0.009878 0.000000 0.000000 0.000000
# 4 0.000000 0.000000 0.000000 0.026056 0.000000 0.000000
# 5 0.000000 0.000000 0.000000 0.000000 0.024568 0.000000
# 6 0.000000 0.000000 0.000000 0.000000 0.000000 0.043279
#
#
# Mechanical properties :
#
#
# Convention : Reuss Voigt Hill
#
# Bulk Modulus (GPa) = 56.60901 78.83948 67.72424
# Shear Modulus (GPa) = 26.91464 31.79297 29.35380
#
# Velocity S-wave (km/s) = 3.74773 4.07324 3.91387
# Velocity P-wave (km/s) = 6.94758 7.95389 7.46770
#
# Compressibility (1/GPa) = 0.01766503
#
# Stress axis : x y z
#
# Youngs Moduli (GPa) = 34.26782 78.35153 101.23308
#
# Poissons Ratio (x) = 0.52820 0.68772
# Poissons Ratio (y) = 0.23101 0.35879
# Poissons Ratio (z) = 0.23279 0.27770
#
# Static dielectric constant tensor:
#      x y z
#    x 3.489540 0.000000 0.000000 
#    y 0.000000 3.950410 0.000000 
#    z 0.000000 0.000000 3.439210 
# 
# 
# High freq. dielectric constant tensor:
#      x y z
#    x 1.744890 0.000000 0.000000 
#    y 0.000000 1.765300 0.000000 
#    z 0.000000 0.000000 1.751190 
# 
# From -- ./inp_files/6284.got.cif
#   From: 2010.03.12/outbox.cif.g09.slc.cpg/sg51_4_cif.got.tgz:6284.got - 2010.04.16 13:43:02.
