data_PCOD8213052
_publ_section_title
;
Structure prediction by ZEFSAII (Michael W. Deem and Ramdas Pophale) SiO2 
 PCOD8213052
Probable space group: P M M A
;
_chemical_formula_sum "Si O2"
_cell_formula_units_Z 40
_cell_length_a 9.537476
_cell_length_b 26.025792
_cell_length_c 8.850324
_cell_angle_alpha 90.000000
_cell_angle_beta 90.000000
_cell_angle_gamma 90.000000
_cell_volume 2196.830668
_symmetry_space_group_name_H-M "P M M A"
_symmetry_group_IT_number 51
_symmetry_cell_setting 'orthorhombic'
loop_
_space_group_symop_operation_xyz
x,y,z
1/2-x,-y,z
1/2+x,-y,-z
-x,y,-z
-x,-y,-z
1/2+x,y,-z
1/2-x,y,z
x,-y,z
loop_
_atom_site_type_symbol
_atom_site_label
_atom_site_fract_x
_atom_site_fract_y
_atom_site_fract_z
Si Si1 0.586677 0.901742 0.348367
Si Si2 0.912854 0.000000 0.151396
Si Si3 0.086929 0.611293 0.846310
Si Si4 0.087452 0.195677 0.848829
Si Si5 0.586678 0.293622 0.350013
Si Si6 0.091589 0.500000 0.854324
O O1 0.500000 0.905313 0.500000
O O2 0.750000 0.901939 0.390555
O O3 0.543178 0.850094 0.262033
O O4 0.545837 0.949948 0.245816
O O5 0.750000 0.000000 0.108047
O O6 0.000000 0.000000 0.000000
O O7 0.250000 0.620320 0.886804
O O8 0.037129 0.652701 0.723719
O O9 0.062509 0.554367 0.769228
O O10 0.000000 0.617720 0.000000
O O11 0.250000 0.191671 0.892577
O O12 0.051933 0.249189 0.768802
O O13 0.000000 0.191141 0.000000
O O14 0.500000 0.283378 0.500000
O O15 0.750000 0.294230 0.393118
O O16 0.250000 0.500000 0.912285
O O17 0.000000 0.500000 0.000000
#
# Coordination Sequence:
#
# PCOD8213052 Si02
#       6
#     8   4   8   8   8   4
#     4  10  21  36  54  78 106 135 169 207 248 296
#     4  10  21  36  54  78 106 136 173 212 248 292
#     4   9  17  30  49  72  96 124 160 200 242 289
#     4  10  21  36  54  77 102 129 165 206 247 294
#     4  10  21  35  50  71  99 130 164 201 243 292
#     4   8  14  26  45  68  94 122 154 196 241 284
#
# _framework density 18.208048999999999
#
# number of rings (size 3 to 8) (size 9 to 14) (size 15 to 20)
#    0.000    2.400    0.000    2.100    0.000    3.200 
#    0.000    0.500    0.000    0.000    0.000    0.000 
#    0.000    0.000    0.000    0.000    0.000    0.000 
#
# Total GULP energy -495899.382599 kJ/mol
# GULP energy per Si atom -12397.484565 kJ/mol
# Density = 1.816661 g / cm^3
# Si number density = 18.208049 Si / 1000 Ang^3
#
#
#
# Elastic Constant Matrix: (Units=GPa)
#
#
# Indices 1 2 3 4 5 6 
#
# 1 61.2095 44.0425 68.3265 0.0000 0.0000 0.0000
# 2 44.0425 152.4385 61.6587 0.0000 0.0000 0.0000
# 3 68.3265 61.6587 130.0954 0.0000 0.0000 0.0000
# 4 0.0000 0.0000 0.0000 -30.2279 0.0000 0.0000
# 5 0.0000 0.0000 0.0000 0.0000 39.7734 0.0000
# 6 0.0000 0.0000 0.0000 0.0000 0.0000 7.0811
#
#
#
# Elastic Compliance Matrix: (Units=1/GPa)
#
#
# Indices 1 2 3 4 5 6 
#
# 1 0.041287 -0.003907 -0.019832 0.000000 0.000000 0.000000
# 2 -0.003907 0.008486 -0.001970 0.000000 0.000000 0.000000
# 3 -0.019832 -0.001970 0.019036 0.000000 0.000000 0.000000
# 4 0.000000 0.000000 0.000000 -0.033082 0.000000 0.000000
# 5 0.000000 0.000000 0.000000 0.000000 0.025142 0.000000
# 6 0.000000 0.000000 0.000000 0.000000 0.000000 0.141221
#
#
# Mechanical properties :
#
#
# Convention : Reuss Voigt Hill
#
# Bulk Modulus (GPa) = 57.50222 76.86653 67.18438
# Shear Modulus (GPa) = 19.28235 14.63968 16.96102
#
# Velocity S-wave (km/s) = 3.25776 2.83861 3.05538
# Velocity P-wave (km/s) = 6.76756 7.28361 7.03032
#
# Compressibility (1/GPa) = 0.01739063
#
# Stress axis : x y z
#
# Youngs Moduli (GPa) = 24.22095 117.84752 52.53134
#
# Poissons Ratio (x) = 0.46040 1.04181
# Poissons Ratio (y) = 0.09462 0.10348
# Poissons Ratio (z) = 0.48036 0.23215
#
# Static dielectric constant tensor:
#      x y z
#    x 3.342590 0.000000 0.000000 
#    y 0.000000 4.073100 0.000000 
#    z 0.000000 0.000000 2.494710 
# 
# 
# High freq. dielectric constant tensor:
#      x y z
#    x 1.703210 0.000000 0.000000 
#    y 0.000000 1.736620 0.000000 
#    z 0.000000 0.000000 1.685220 
# 
# From -- ./inp_files/5619.got.cif
#   From: 2010.03.12/outbox.cif.g09.slc.cpg/sg51_3_cif.got.tgz:5619.got - 2010.04.16 13:43:02.
