data_PCOD8213574
_publ_section_title
;
Structure prediction by ZEFSAII (Michael W. Deem and Ramdas Pophale) SiO2 
 PCOD8213574
Probable space group: P M M A
;
_chemical_formula_sum "Si O2"
_cell_formula_units_Z 48
_cell_length_a 9.659916
_cell_length_b 9.055740
_cell_length_c 28.955343
_cell_angle_alpha 90.000000
_cell_angle_beta 90.000000
_cell_angle_gamma 90.000000
_cell_volume 2532.946453
_symmetry_space_group_name_H-M "P M M A"
_symmetry_group_IT_number 51
_symmetry_cell_setting 'orthorhombic'
loop_
_space_group_symop_operation_xyz
x,y,z
1/2-x,-y,z
1/2+x,-y,-z
-x,y,-z
-x,-y,-z
1/2+x,y,-z
1/2-x,y,z
x,-y,z
loop_
_atom_site_type_symbol
_atom_site_label
_atom_site_fract_x
_atom_site_fract_y
_atom_site_fract_z
Si Si1 0.090935 0.171962 0.778557
Si Si2 0.460811 0.330120 0.399723
Si Si3 0.591610 0.675779 0.957371
Si Si4 0.907901 0.674350 0.127757
Si Si5 0.250000 0.825362 0.463638
Si Si6 0.250000 0.333923 0.558205
Si Si7 0.092862 0.167745 0.305650
O O1 0.250000 0.207106 0.767363
O O2 0.041961 0.255922 0.824315
O O3 0.002369 0.230428 0.735356
O O4 0.064300 0.000000 0.786942
O O5 0.414167 0.500000 0.402806
O O6 0.385578 0.239061 0.439618
O O7 0.622301 0.308868 0.407946
O O8 0.423098 0.270337 0.349773
O O9 0.750000 0.737059 0.959185
O O10 0.595811 0.500000 0.958990
O O11 0.513599 0.731440 0.911335
O O12 0.500000 0.736335 0.000000
O O13 0.750000 0.723186 0.115640
O O14 0.915853 0.500000 0.132648
O O15 0.250000 0.783163 0.517176
O O16 0.250000 0.000000 0.458461
O O17 0.250000 0.500000 0.537071
O O18 0.250000 0.173255 0.288059
O O19 0.049987 0.000000 0.318661
#
# Coordination Sequence:
#
# PCOD8213574 Si02
#       7
#     8   8   8   8   4   4   8
#     4   9  19  35  54  76 104 141 179 218 268 322
#     4  11  23  40  61  85 115 149 183 225 278 329
#     4   9  16  26  43  69 101 136 173 216 266 317
#     4   9  17  30  48  72 101 132 169 216 266 316
#     4  12  24  40  62  88 116 148 188 228 269 324
#     4  10  24  42  60  86 116 148 184 226 275 330
#     4  10  21  37  56  79 108 140 178 222 268 323
#
# _framework density 18.950263
#
# number of rings (size 3 to 8) (size 9 to 14) (size 15 to 20)
#    0.000    2.167    0.833    2.250    1.167    6.667 
#    0.000    0.000    0.000    0.500    0.000    0.000 
#    0.000    0.000    0.000    0.000    0.000    0.000 
#
# Total GULP energy -595277.655596 kJ/mol
# GULP energy per Si atom -12401.617825 kJ/mol
# Density = 1.890713 g / cm^3
# Si number density = 18.950263 Si / 1000 Ang^3
#
#
#
# Elastic Constant Matrix: (Units=GPa)
#
#
# Indices 1 2 3 4 5 6 
#
# 1 116.5404 26.4677 52.1673 0.0000 0.0000 0.0000
# 2 26.4677 60.6211 28.8794 0.0000 0.0000 0.0000
# 3 52.1673 28.8794 116.4153 0.0000 0.0000 0.0000
# 4 0.0000 0.0000 0.0000 -5.0912 0.0000 0.0000
# 5 0.0000 0.0000 0.0000 0.0000 37.2657 0.0000
# 6 0.0000 0.0000 0.0000 0.0000 0.0000 19.3433
#
#
#
# Elastic Compliance Matrix: (Units=1/GPa)
#
#
# Indices 1 2 3 4 5 6 
#
# 1 0.011143 -0.002820 -0.004294 0.000000 0.000000 0.000000
# 2 -0.002820 0.019420 -0.003554 0.000000 0.000000 0.000000
# 3 -0.004294 -0.003554 0.011396 0.000000 0.000000 0.000000
# 4 0.000000 0.000000 0.000000 -0.196417 0.000000 0.000000
# 5 0.000000 0.000000 0.000000 0.000000 0.026834 0.000000
# 6 0.000000 0.000000 0.000000 0.000000 0.000000 0.051698
#
#
# Mechanical properties :
#
#
# Convention : Reuss Voigt Hill
#
# Bulk Modulus (GPa) = 48.48766 56.51173 52.49969
# Shear Modulus (GPa) = -104.78713 22.70771 -41.03971
#
# Velocity S-wave (km/s) = -7.44419 3.46537 -4.65871
# Velocity P-wave (km/s) = 6.94590 6.77477 1.08351
#
# Compressibility (1/GPa) = 0.02062380
#
# Stress axis : x y z
#
# Youngs Moduli (GPa) = 89.74085 51.49300 87.75177
#
# Poissons Ratio (x) = 0.14519 0.37680
# Poissons Ratio (y) = 0.25303 0.31188
# Poissons Ratio (z) = 0.38534 0.18301
#
# Static dielectric constant tensor:
#      x y z
#    x 3.970790 0.000000 0.000000 
#    y 0.000000 3.274470 0.000000 
#    z 0.000000 0.000000 3.509300 
# 
# 
# High freq. dielectric constant tensor:
#      x y z
#    x 1.748410 0.000000 0.000000 
#    y 0.000000 1.712540 0.000000 
#    z 0.000000 0.000000 1.740120 
# 
# From -- ./inp_files/37235.got.cif
#   From: 2010.03.12/outbox.cif.g09.slc.cpg/sg51_19_cif.got.tgz:37235.got - 2010.04.16 13:43:02.
