data_PCOD8213009
_publ_section_title
;
Structure prediction by ZEFSAII (Michael W. Deem and Ramdas Pophale) SiO2 
 PCOD8213009
Probable space group: P M M A
;
_chemical_formula_sum "Si O2"
_cell_formula_units_Z 40
_cell_length_a 9.071567
_cell_length_b 26.083358
_cell_length_c 9.464848
_cell_angle_alpha 90.000000
_cell_angle_beta 90.000000
_cell_angle_gamma 90.000000
_cell_volume 2239.543274
_symmetry_space_group_name_H-M "P M M A"
_symmetry_group_IT_number 51
_symmetry_cell_setting 'orthorhombic'
loop_
_space_group_symop_operation_xyz
x,y,z
1/2-x,-y,z
1/2+x,-y,-z
-x,y,-z
-x,-y,-z
1/2+x,y,-z
1/2-x,y,z
x,-y,z
loop_
_atom_site_type_symbol
_atom_site_label
_atom_site_fract_x
_atom_site_fract_y
_atom_site_fract_z
Si Si1 0.422533 0.441990 0.357109
Si Si2 0.076232 0.353532 0.149608
Si Si3 0.577743 0.944242 0.348596
Si Si4 0.578125 0.150594 0.650480
Si Si5 0.078770 0.736357 0.351127
O O1 0.500000 0.423286 0.500000
O O2 0.250000 0.437575 0.384864
O O3 0.469761 0.500000 0.317985
O O4 0.471814 0.405490 0.229350
O O5 0.250000 0.350923 0.126635
O O6 0.018986 0.304922 0.239475
O O7 0.000000 0.352703 0.000000
O O8 0.500000 0.946694 0.500000
O O9 0.750000 0.932655 0.366822
O O10 0.500572 0.896604 0.263401
O O11 0.554311 0.000000 0.273301
O O12 0.500000 0.152691 0.500000
O O13 0.750000 0.138193 0.635038
O O14 0.552518 0.206956 0.717699
O O15 0.250000 0.727265 0.381986
O O16 0.000000 0.728850 0.500000
#
# Coordination Sequence:
#
# PCOD8213009 Si02
#       5
#     8   8   8   8   8
#     4   9  18  33  53  76 100 126 158 195 232 273
#     4  10  21  35  49  69  98 127 157 194 234 277
#     4   9  15  21  30  47  74 107 140 174 214 262
#     4   9  15  23  36  54  77 106 141 180 221 265
#     4   9  18  31  47  67  90 118 154 195 234 275
#
# _framework density 17.860783999999999
#
# number of rings (size 3 to 8) (size 9 to 14) (size 15 to 20)
#    0.000    2.800    0.000    3.000    0.000    4.000 
#    0.000    0.000    0.000    0.000    0.000    0.000 
#    0.000    0.800    0.000    1.800    0.000   10.200 
#
# Total GULP energy -495570.368710 kJ/mol
# GULP energy per Si atom -12389.259218 kJ/mol
# Density = 1.782013 g / cm^3
# Si number density = 17.860784 Si / 1000 Ang^3
#
#
#
# Elastic Constant Matrix: (Units=GPa)
#
#
# Indices 1 2 3 4 5 6 
#
# 1 75.2656 57.2539 36.0508 0.0000 0.0000 0.0000
# 2 57.2539 170.4541 70.0498 0.0000 0.0000 0.0000
# 3 36.0508 70.0498 86.4146 0.0000 0.0000 0.0000
# 4 0.0000 0.0000 0.0000 3.5314 0.0000 0.0000
# 5 0.0000 0.0000 0.0000 0.0000 22.4907 0.0000
# 6 0.0000 0.0000 0.0000 0.0000 0.0000 24.8649
#
#
#
# Elastic Compliance Matrix: (Units=1/GPa)
#
#
# Indices 1 2 3 4 5 6 
#
# 1 0.018757 -0.004625 -0.004076 0.000000 0.000000 0.000000
# 2 -0.004625 0.009938 -0.006126 0.000000 0.000000 0.000000
# 3 -0.004076 -0.006126 0.018239 0.000000 0.000000 0.000000
# 4 0.000000 0.000000 0.000000 0.283170 0.000000 0.000000
# 5 0.000000 0.000000 0.000000 0.000000 0.044463 0.000000
# 6 0.000000 0.000000 0.000000 0.000000 0.000000 0.040217
#
#
# Mechanical properties :
#
#
# Convention : Reuss Voigt Hill
#
# Bulk Modulus (GPa) = 57.87452 73.20481 65.53967
# Shear Modulus (GPa) = 11.10623 21.42940 16.26782
#
# Velocity S-wave (km/s) = 2.49634 3.46757 3.02124
# Velocity P-wave (km/s) = 6.38611 7.55694 6.99606
#
# Compressibility (1/GPa) = 0.01727876
#
# Stress axis : x y z
#
# Youngs Moduli (GPa) = 53.31378 100.62420 54.82882
#
# Poissons Ratio (x) = 0.46542 0.22346
# Poissons Ratio (y) = 0.24659 0.33590
# Poissons Ratio (z) = 0.21729 0.61646
#
# Static dielectric constant tensor:
#      x y z
#    x 3.331080 0.000000 0.000000 
#    y 0.000000 4.705990 0.000000 
#    z 0.000000 0.000000 2.742440 
# 
# 
# High freq. dielectric constant tensor:
#      x y z
#    x 1.695300 0.000000 0.000000 
#    y 0.000000 1.727560 0.000000 
#    z 0.000000 0.000000 1.619170 
# 
# From -- ./inp_files/5487.got.cif
#   From: 2010.03.12/outbox.cif.g09.slc.cpg/sg51_3_cif.got.tgz:5487.got - 2010.04.16 13:43:02.
