data_PCOD8213659
_publ_section_title
;
Structure prediction by ZEFSAII (Michael W. Deem and Ramdas Pophale) SiO2 
 PCOD8213659
Probable space group: P M M A
;
_chemical_formula_sum "Si O2"
_cell_formula_units_Z 48
_cell_length_a 14.288162
_cell_length_b 9.454254
_cell_length_c 17.360633
_cell_angle_alpha 90.000000
_cell_angle_beta 90.000000
_cell_angle_gamma 90.000000
_cell_volume 2345.142233
_symmetry_space_group_name_H-M "P M M A"
_symmetry_group_IT_number 51
_symmetry_cell_setting 'orthorhombic'
loop_
_space_group_symop_operation_xyz
x,y,z
1/2-x,-y,z
1/2+x,-y,-z
-x,y,-z
-x,-y,-z
1/2+x,y,-z
1/2-x,y,z
x,-y,z
loop_
_atom_site_type_symbol
_atom_site_label
_atom_site_fract_x
_atom_site_fract_y
_atom_site_fract_z
Si Si1 0.361388 0.659002 0.020683
Si Si2 0.639442 0.662257 0.692817
Si Si3 0.986734 0.163257 0.588926
Si Si4 0.139075 0.659353 0.850650
Si Si5 0.861492 0.840656 0.838834
Si Si6 0.856152 0.163701 0.291283
O O1 0.250000 0.662279 0.021107
O O2 0.395126 0.500000 0.041194
O O3 0.401608 0.767713 0.083784
O O4 0.399422 0.702376 0.935677
O O5 0.750000 0.671890 0.684188
O O6 0.606538 0.500000 0.700205
O O7 0.595519 0.735163 0.617925
O O8 0.603069 0.748461 0.766967
O O9 0.082977 0.198535 0.633453
O O10 0.000000 0.198363 0.500000
O O11 0.957347 0.000000 0.601478
O O12 0.250000 0.674684 0.852580
O O13 0.109000 0.500000 0.831168
O O14 0.098859 0.758925 0.783274
O O15 0.750000 0.842943 0.840847
O O16 0.901273 0.000000 0.832102
O O17 0.750000 0.215229 0.308317
O O18 0.857834 0.000000 0.270765
#
# Coordination Sequence:
#
# PCOD8213659 Si02
#       6
#     8   8   8   8   8   8
#     4   8  13  22  38  64 100 138 176 217 257 302
#     4  10  21  37  57  81 110 144 181 222 269 319
#     4  10  22  39  59  83 109 139 176 219 270 327
#     4   8  14  25  43  69 101 139 180 217 257 308
#     4   9  16  26  44  72 104 139 179 219 261 311
#     4   9  18  33  53  78 108 140 175 217 265 317
#
# _framework density 20.467842999999998
#
# number of rings (size 3 to 8) (size 9 to 14) (size 15 to 20)
#    0.000    3.000    0.000    2.000    0.000    5.333 
#    0.000    5.000    0.000    3.000    0.000    7.000 
#    0.000    0.000    0.000    0.000    0.000    0.000 
#
# Total GULP energy -595097.926085 kJ/mol
# GULP energy per Si atom -12397.873460 kJ/mol
# Density = 2.042126 g / cm^3
# Si number density = 20.467843 Si / 1000 Ang^3
#
#
#
# Elastic Constant Matrix: (Units=GPa)
#
#
# Indices 1 2 3 4 5 6 
#
# 1 29.4560 37.1406 31.0415 0.0000 0.0000 0.0000
# 2 37.1406 139.7915 103.0791 0.0000 0.0000 0.0000
# 3 31.0415 103.0791 186.2424 0.0000 0.0000 0.0000
# 4 0.0000 0.0000 0.0000 35.0807 0.0000 0.0000
# 5 0.0000 0.0000 0.0000 0.0000 -107.6788 0.0000
# 6 0.0000 0.0000 0.0000 0.0000 0.0000 18.2757
#
#
#
# Elastic Compliance Matrix: (Units=1/GPa)
#
#
# Indices 1 2 3 4 5 6 
#
# 1 0.051369 -0.012392 -0.001703 0.000000 0.000000 0.000000
# 2 -0.012392 0.015075 -0.006278 0.000000 0.000000 0.000000
# 3 -0.001703 -0.006278 0.009128 0.000000 0.000000 0.000000
# 4 0.000000 0.000000 0.000000 0.028506 0.000000 0.000000
# 5 0.000000 0.000000 0.000000 0.000000 -0.009287 0.000000
# 6 0.000000 0.000000 0.000000 0.000000 0.000000 0.054717
#
#
# Mechanical properties :
#
#
# Convention : Reuss Voigt Hill
#
# Bulk Modulus (GPa) = 28.71493 77.55693 53.13593
# Shear Modulus (GPa) = 24.76916 1.41744 13.09330
#
# Velocity S-wave (km/s) = 3.48249 0.83308 2.53197
# Velocity P-wave (km/s) = 5.49819 6.23696 5.87919
#
# Compressibility (1/GPa) = 0.03482509
#
# Stress axis : x y z
#
# Youngs Moduli (GPa) = 19.46709 66.33308 109.55227
#
# Poissons Ratio (x) = 0.82201 0.18658
# Poissons Ratio (y) = 0.24124 0.68781
# Poissons Ratio (z) = 0.03315 0.41646
#
# Static dielectric constant tensor:
#      x y z
#    x 3.425090 0.000000 0.000000 
#    y 0.000000 3.810290 0.000000 
#    z 0.000000 0.000000 3.929640 
# 
# 
# High freq. dielectric constant tensor:
#      x y z
#    x 1.784940 0.000000 0.000000 
#    y 0.000000 1.795070 0.000000 
#    z 0.000000 0.000000 1.798350 
# 
# From -- ./inp_files/29490.got.cif
#   From: 2010.03.12/outbox.cif.g09.slc.cpg/sg51_15_cif.got.tgz:29490.got - 2010.04.16 13:43:02.
