data_PCOD8213283
_publ_section_title
;
Structure prediction by ZEFSAII (Michael W. Deem and Ramdas Pophale) SiO2 
 PCOD8213283
Probable space group: P M M A
;
_chemical_formula_sum "Si O2"
_cell_formula_units_Z 48
_cell_length_a 9.042261
_cell_length_b 16.538875
_cell_length_c 15.782615
_cell_angle_alpha 90.000000
_cell_angle_beta 90.000000
_cell_angle_gamma 90.000000
_cell_volume 2360.271519
_symmetry_space_group_name_H-M "P M M A"
_symmetry_group_IT_number 51
_symmetry_cell_setting 'orthorhombic'
loop_
_space_group_symop_operation_xyz
x,y,z
1/2-x,-y,z
1/2+x,-y,-z
-x,y,-z
-x,-y,-z
1/2+x,y,-z
1/2-x,y,z
x,-y,z
loop_
_atom_site_type_symbol
_atom_site_label
_atom_site_fract_x
_atom_site_fract_y
_atom_site_fract_z
Si Si1 0.419391 0.153298 0.661101
Si Si2 0.919927 0.404975 0.245895
Si Si3 0.074971 0.000000 0.409720
Si Si4 0.580733 0.320943 0.415338
Si Si5 0.422835 0.000000 0.088694
Si Si6 0.420436 0.670579 0.086642
Si Si7 0.580195 0.165952 0.826734
O O1 0.250000 0.123562 0.666279
O O2 0.526329 0.079125 0.640622
O O3 0.436042 0.223886 0.591908
O O4 0.471864 0.190163 0.750384
O O5 0.750000 0.377901 0.232328
O O6 0.934606 0.500000 0.257435
O O7 0.985095 0.363837 0.331390
O O8 0.013100 0.378258 0.164982
O O9 0.000000 0.000000 0.500000
O O10 0.250000 0.000000 0.420369
O O11 0.500000 0.351148 0.500000
O O12 0.750000 0.346954 0.424883
O O13 0.472520 0.920856 0.139625
O O14 0.250000 0.000000 0.071808
O O15 0.500000 0.000000 0.000000
O O16 0.250000 0.646097 0.078259
O O17 0.439381 0.766749 0.100747
O O18 0.500000 0.645204 0.000000
O O19 0.750000 0.162855 0.795164
#
# Coordination Sequence:
#
# PCOD8213283 Si02
#       7
#     8   8   4   8   4   8   8
#     4  11  22  38  61  88 119 160 208 253 306 363
#     4  10  22  43  67  91 123 161 202 254 314 373
#     4  12  25  40  57  83 121 161 209 259 306 361
#     4  10  22  39  62  93 125 161 203 250 304 368
#     4  10  21  36  53  79 115 153 199 245 296 351
#     4  11  23  39  63  93 126 165 210 256 311 370
#     4  10  21  37  58  86 120 161 203 251 304 361
#
# _framework density 20.336642999999999
#
# number of rings (size 3 to 8) (size 9 to 14) (size 15 to 20)
#    0.000    1.500    1.667    3.250    0.000    6.333 
#    0.000    0.000    0.000    0.000    0.000    0.000 
#    0.000    0.000    0.000    0.000    0.000    0.000 
#
# Total GULP energy -595405.368229 kJ/mol
# GULP energy per Si atom -12404.278505 kJ/mol
# Density = 2.029036 g / cm^3
# Si number density = 20.336643 Si / 1000 Ang^3
#
#
#
# Elastic Constant Matrix: (Units=GPa)
#
#
# Indices 1 2 3 4 5 6 
#
# 1 110.6482 35.5689 69.6188 0.0000 0.0000 0.0000
# 2 35.5689 79.6284 33.1751 0.0000 0.0000 0.0000
# 3 69.6188 33.1751 157.4235 0.0000 0.0000 0.0000
# 4 0.0000 0.0000 0.0000 20.0031 0.0000 0.0000
# 5 0.0000 0.0000 0.0000 0.0000 43.2619 0.0000
# 6 0.0000 0.0000 0.0000 0.0000 0.0000 25.4655
#
#
#
# Elastic Compliance Matrix: (Units=1/GPa)
#
#
# Indices 1 2 3 4 5 6 
#
# 1 0.013541 -0.003896 -0.005168 0.000000 0.000000 0.000000
# 2 -0.003896 0.014888 -0.001415 0.000000 0.000000 0.000000
# 3 -0.005168 -0.001415 0.008936 0.000000 0.000000 0.000000
# 4 0.000000 0.000000 0.000000 0.049992 0.000000 0.000000
# 5 0.000000 0.000000 0.000000 0.000000 0.023115 0.000000
# 6 0.000000 0.000000 0.000000 0.000000 0.000000 0.039269
#
#
# Mechanical properties :
#
#
# Convention : Reuss Voigt Hill
#
# Bulk Modulus (GPa) = 60.94171 69.38061 65.16116
# Shear Modulus (GPa) = 28.38223 31.70191 30.04207
#
# Velocity S-wave (km/s) = 3.73985 3.95252 3.84766
# Velocity P-wave (km/s) = 6.97712 7.41755 7.20070
#
# Compressibility (1/GPa) = 0.01640912
#
# Stress axis : x y z
#
# Youngs Moduli (GPa) = 73.84791 67.16869 111.91103
#
# Poissons Ratio (x) = 0.26168 0.57830
# Poissons Ratio (y) = 0.28770 0.15831
# Poissons Ratio (z) = 0.38161 0.09501
#
# Static dielectric constant tensor:
#      x y z
#    x 3.667860 0.000000 0.000000 
#    y 0.000000 4.024160 0.000000 
#    z 0.000000 0.000000 3.661640 
# 
# 
# High freq. dielectric constant tensor:
#      x y z
#    x 1.791890 0.000000 0.000000 
#    y 0.000000 1.797580 0.000000 
#    z 0.000000 0.000000 1.800270 
# 
# From -- ./inp_files/21196.got.cif
#   From: 2010.03.12/outbox.cif.g09.slc.cpg/sg51_11_cif.got.tgz:21196.got - 2010.04.16 13:43:02.
