data_PCOD8213872
_publ_section_title
;
Structure prediction by ZEFSAII (Michael W. Deem and Ramdas Pophale) SiO2 
 PCOD8213872
Probable space group: P M M A
;
_chemical_formula_sum "Si O2"
_cell_formula_units_Z 48
_cell_length_a 8.694568
_cell_length_b 30.160756
_cell_length_c 9.623956
_cell_angle_alpha 90.000000
_cell_angle_beta 90.000000
_cell_angle_gamma 90.000000
_cell_volume 2523.735638
_symmetry_space_group_name_H-M "P M M A"
_symmetry_group_IT_number 51
_symmetry_cell_setting 'orthorhombic'
loop_
_space_group_symop_operation_xyz
x,y,z
1/2-x,-y,z
1/2+x,-y,-z
-x,y,-z
-x,-y,-z
1/2+x,y,-z
1/2-x,y,z
x,-y,z
loop_
_atom_site_type_symbol
_atom_site_label
_atom_site_fract_x
_atom_site_fract_y
_atom_site_fract_z
Si Si1 0.931243 0.635552 0.652971
Si Si2 0.429238 0.808064 0.853239
Si Si3 0.932077 0.121708 0.652863
Si Si4 0.070606 0.948451 0.853484
Si Si5 0.428795 0.705002 0.854213
Si Si6 0.570087 0.548024 0.347969
O O1 0.750000 0.635568 0.645439
O O2 0.000000 0.638326 0.500000
O O3 0.987046 0.678349 0.734428
O O4 0.989240 0.589841 0.728566
O O5 0.250000 0.819867 0.855042
O O6 0.511863 0.834326 0.730862
O O7 0.459478 0.756510 0.824762
O O8 0.500000 0.822844 0.000000
O O9 0.750000 0.121618 0.644401
O O10 0.000000 0.121792 0.500000
O O11 0.988632 0.077745 0.730614
O O12 0.250000 0.936960 0.855111
O O13 0.039158 0.000000 0.826092
O O14 0.000000 0.933296 0.000000
O O15 0.250000 0.693381 0.855265
O O16 0.500000 0.690334 0.000000
O O17 0.500000 0.545127 0.500000
O O18 0.750000 0.557925 0.358908
O O19 0.540472 0.500000 0.273259
#
# Coordination Sequence:
#
# PCOD8213872 Si02
#       6
#     8   8   8   8   8   8
#     4  11  21  33  52  78 109 143 180 224 272 323
#     4  10  21  39  62  85 110 143 184 227 271 324
#     4  12  25  40  59  84 117 152 187 230 280 332
#     4  10  21  39  63  89 117 151 192 234 275 324
#     4  10  21  38  59  82 109 142 181 224 271 326
#     4   9  16  27  45  70 101 136 175 220 268 319
#
# _framework density 19.019425999999999
#
# number of rings (size 3 to 8) (size 9 to 14) (size 15 to 20)
#    0.000    1.667    0.000    6.500    0.000    5.000 
#    0.000    0.000    0.000    0.500    0.000    0.000 
#    0.000    0.000    0.000    0.000    0.000    0.000 
#
# Total GULP energy -595212.972329 kJ/mol
# GULP energy per Si atom -12400.270257 kJ/mol
# Density = 1.897614 g / cm^3
# Si number density = 19.019426 Si / 1000 Ang^3
#
#
#
# Elastic Constant Matrix: (Units=GPa)
#
#
# Indices 1 2 3 4 5 6 
#
# 1 178.2167 71.0885 73.4602 0.0000 0.0000 0.0000
# 2 71.0885 113.2556 69.8697 0.0000 0.0000 0.0000
# 3 73.4602 69.8697 124.6812 0.0000 0.0000 0.0000
# 4 0.0000 0.0000 0.0000 12.1707 0.0000 0.0000
# 5 0.0000 0.0000 0.0000 0.0000 34.9089 0.0000
# 6 0.0000 0.0000 0.0000 0.0000 0.0000 35.7807
#
#
#
# Elastic Compliance Matrix: (Units=1/GPa)
#
#
# Indices 1 2 3 4 5 6 
#
# 1 0.008140 -0.003287 -0.002954 0.000000 0.000000 0.000000
# 2 -0.003287 0.014822 -0.006370 0.000000 0.000000 0.000000
# 3 -0.002954 -0.006370 0.013330 0.000000 0.000000 0.000000
# 4 0.000000 0.000000 0.000000 0.082165 0.000000 0.000000
# 5 0.000000 0.000000 0.000000 0.000000 0.028646 0.000000
# 6 0.000000 0.000000 0.000000 0.000000 0.000000 0.027948
#
#
# Mechanical properties :
#
#
# Convention : Reuss Voigt Hill
#
# Bulk Modulus (GPa) = 90.32171 93.88780 92.10476
# Shear Modulus (GPa) = 24.51433 30.02107 27.26770
#
# Velocity S-wave (km/s) = 3.59403 3.97727 3.79050
# Velocity P-wave (km/s) = 8.05078 8.40017 8.22733
#
# Compressibility (1/GPa) = 0.01107154
#
# Stress axis : x y z
#
# Youngs Moduli (GPa) = 122.85237 67.46618 75.01694
#
# Poissons Ratio (x) = 0.22175 0.22160
# Poissons Ratio (y) = 0.40380 0.47783
# Poissons Ratio (z) = 0.36290 0.42973
#
# Static dielectric constant tensor:
#      x y z
#    x 3.682560 0.000000 0.000000 
#    y 0.000000 3.982800 0.000000 
#    z 0.000000 0.000000 3.264900 
# 
# 
# High freq. dielectric constant tensor:
#      x y z
#    x 1.762320 0.000000 0.000000 
#    y 0.000000 1.760500 0.000000 
#    z 0.000000 0.000000 1.711180 
# 
# From -- ./inp_files/6082.got.cif
#   From: 2010.03.12/outbox.cif.g09.slc.cpg/sg51_4_cif.got.tgz:6082.got - 2010.04.16 13:43:02.
