data_PCOD8213061
_publ_section_title
;
Structure prediction by ZEFSAII (Michael W. Deem and Ramdas Pophale) SiO2 
 PCOD8213061
Probable space group: P M M A
;
_chemical_formula_sum "Si O2"
_cell_formula_units_Z 48
_cell_length_a 9.599565
_cell_length_b 7.582107
_cell_length_c 34.118673
_cell_angle_alpha 90.000000
_cell_angle_beta 90.000000
_cell_angle_gamma 90.000000
_cell_volume 2483.325191
_symmetry_space_group_name_H-M "P M M A"
_symmetry_group_IT_number 51
_symmetry_cell_setting 'orthorhombic'
loop_
_space_group_symop_operation_xyz
x,y,z
1/2-x,-y,z
1/2+x,-y,-z
-x,y,-z
-x,-y,-z
1/2+x,y,-z
1/2-x,y,z
x,-y,z
loop_
_atom_site_type_symbol
_atom_site_label
_atom_site_fract_x
_atom_site_fract_y
_atom_site_fract_z
Si Si1 0.911771 0.202306 0.099735
Si Si2 0.410927 0.000000 0.461183
Si Si3 0.093176 0.791468 0.257968
Si Si4 0.095355 0.209095 0.170939
Si Si5 0.596342 0.701683 0.328846
Si Si6 0.912160 0.500000 0.039075
Si Si7 0.589338 0.704995 0.600343
O O1 0.750000 0.217871 0.109643
O O2 0.951966 0.323942 0.063039
O O3 0.990119 0.278490 0.137937
O O4 0.954048 0.000000 0.089921
O O5 0.500000 0.000000 0.500000
O O6 0.448106 0.176905 0.437151
O O7 0.250000 0.000000 0.473218
O O8 0.250000 0.726536 0.268445
O O9 0.052671 0.723619 0.214314
O O10 0.980850 0.714371 0.287491
O O11 0.087492 0.000000 0.260016
O O12 0.250000 0.277940 0.160545
O O13 0.093661 0.000000 0.171475
O O14 0.750000 0.793051 0.327014
O O15 0.617864 0.500000 0.339201
O O16 0.502125 0.781603 0.363627
O O17 0.750000 0.500000 0.028092
O O18 0.000000 0.500000 0.000000
O O19 0.750000 0.731327 0.612528
O O20 0.558352 0.500000 0.590430
#
# Coordination Sequence:
#
# PCOD8213061 Si02
#       7
#     8   4   8   8   8   4   8
#     4   9  18  34  55  76 102 138 172 208 262 319
#     4  10  22  38  58  86 112 138 178 222 270 332
#     4   9  18  32  51  75 104 139 178 221 266 315
#     4   8  15  30  51  75 102 133 174 218 258 307
#     4  10  21  35  50  74 107 141 180 224 270 319
#     4  10  22  38  54  78 108 134 170 218 262 316
#     4   9  19  37  58  78 106 145 182 220 268 322
#
# _framework density 19.328923
#
# number of rings (size 3 to 8) (size 9 to 14) (size 15 to 20)
#    0.000    2.833    0.000    1.500    1.167    4.000 
#    1.500    1.667    0.000    0.000    0.000    0.000 
#    0.000    0.000    0.000    0.000    0.000    0.000 
#
# Total GULP energy -594993.591352 kJ/mol
# GULP energy per Si atom -12395.699820 kJ/mol
# Density = 1.928493 g / cm^3
# Si number density = 19.328923 Si / 1000 Ang^3
#
#
#
# Elastic Constant Matrix: (Units=GPa)
#
#
# Indices 1 2 3 4 5 6 
#
# 1 118.7014 36.8802 102.9323 0.0000 0.0000 0.0000
# 2 36.8802 67.4813 48.3784 0.0000 0.0000 0.0000
# 3 102.9323 48.3784 174.9945 0.0000 0.0000 0.0000
# 4 0.0000 0.0000 0.0000 149.7298 0.0000 0.0000
# 5 0.0000 0.0000 0.0000 0.0000 43.5010 0.0000
# 6 0.0000 0.0000 0.0000 0.0000 0.0000 16.3413
#
#
#
# Elastic Compliance Matrix: (Units=1/GPa)
#
#
# Indices 1 2 3 4 5 6 
#
# 1 0.017592 -0.002739 -0.009590 0.000000 0.000000 0.000000
# 2 -0.002739 0.018908 -0.003616 0.000000 0.000000 0.000000
# 3 -0.009590 -0.003616 0.012355 0.000000 0.000000 0.000000
# 4 0.000000 0.000000 0.000000 0.006679 0.000000 0.000000
# 5 0.000000 0.000000 0.000000 0.000000 0.022988 0.000000
# 6 0.000000 0.000000 0.000000 0.000000 0.000000 0.061195
#
#
# Mechanical properties :
#
#
# Convention : Reuss Voigt Hill
#
# Bulk Modulus (GPa) = 58.94719 81.95099 70.44909
# Shear Modulus (GPa) = 28.20676 53.44686 40.82681
#
# Velocity S-wave (km/s) = 3.82423 5.26415 4.60087
# Velocity P-wave (km/s) = 7.07550 8.91283 8.04678
#
# Compressibility (1/GPa) = 0.01696434
#
# Stress axis : x y z
#
# Youngs Moduli (GPa) = 56.84480 52.88663 80.93685
#
# Poissons Ratio (x) = 0.14485 0.77621
# Poissons Ratio (y) = 0.15569 0.29270
# Poissons Ratio (z) = 0.54516 0.19126
#
# Static dielectric constant tensor:
#      x y z
#    x 3.927840 0.000000 0.000000 
#    y 0.000000 3.293140 0.000000 
#    z 0.000000 0.000000 3.579050 
# 
# 
# High freq. dielectric constant tensor:
#      x y z
#    x 1.749540 0.000000 0.000000 
#    y 0.000000 1.746760 0.000000 
#    z 0.000000 0.000000 1.744970 
# 
# From -- ./inp_files/37171.got.cif
#   From: 2010.03.12/outbox.cif.g09.slc.cpg/sg51_19_cif.got.tgz:37171.got - 2010.04.16 13:43:02.
