data_PCOD8213321
_publ_section_title
;
Structure prediction by ZEFSAII (Michael W. Deem and Ramdas Pophale) SiO2 
 PCOD8213321
Probable space group: P M M A
;
_chemical_formula_sum "Si O2"
_cell_formula_units_Z 48
_cell_length_a 9.015878
_cell_length_b 9.624104
_cell_length_c 30.126971
_cell_angle_alpha 90.000000
_cell_angle_beta 90.000000
_cell_angle_gamma 90.000000
_cell_volume 2614.109667
_symmetry_space_group_name_H-M "P M M A"
_symmetry_group_IT_number 51
_symmetry_cell_setting 'orthorhombic'
loop_
_space_group_symop_operation_xyz
x,y,z
1/2-x,-y,z
1/2+x,-y,-z
-x,y,-z
-x,-y,-z
1/2+x,y,-z
1/2-x,y,z
x,-y,z
loop_
_atom_site_type_symbol
_atom_site_label
_atom_site_fract_x
_atom_site_fract_y
_atom_site_fract_z
Si Si1 0.077752 0.337712 0.379328
Si Si2 0.419877 0.839965 0.115761
Si Si3 0.080717 0.160726 0.218142
Si Si4 0.423456 0.659156 0.955520
Si Si5 0.421230 0.339744 0.710915
Si Si6 0.423475 0.839482 0.545600
O O1 0.250000 0.298872 0.382102
O O2 0.049559 0.500000 0.387997
O O3 0.017935 0.293520 0.331231
O O4 0.988318 0.252655 0.415452
O O5 0.250000 0.800894 0.105544
O O6 0.457105 0.810936 0.166960
O O7 0.527261 0.746252 0.086799
O O8 0.449603 0.000000 0.104089
O O9 0.250000 0.204092 0.228341
O O10 0.968788 0.251140 0.246830
O O11 0.056362 0.000000 0.229865
O O12 0.250000 0.675981 0.962062
O O13 0.470439 0.500000 0.947353
O O14 0.500000 0.717471 0.000000
O O15 0.250000 0.310922 0.699886
O O16 0.449670 0.500000 0.722559
O O17 0.500000 0.793372 0.500000
O O18 0.250000 0.810645 0.541016
O O19 0.457568 0.000000 0.556273
#
# Coordination Sequence:
#
# PCOD8213321 Si02
#       6
#     8   8   8   8   8   8
#     4  10  21  37  57  80 106 139 179 220 263 312
#     4   9  19  36  56  78 105 137 174 215 259 309
#     4   9  19  36  56  78 105 138 176 216 258 308
#     4  10  21  36  54  77 105 137 174 215 259 309
#     4  10  21  36  54  78 108 140 175 217 263 311
#     4  10  21  37  57  81 109 141 177 217 262 312
#
# _framework density 18.361892000000001
#
# number of rings (size 3 to 8) (size 9 to 14) (size 15 to 20)
#    0.000    2.333    0.000    3.000    0.000    7.333 
#    0.000    5.000    0.000    0.000    0.000    0.000 
#    0.000    0.000    0.000    0.000    0.000    0.000 
#
# Total GULP energy -595398.177728 kJ/mol
# GULP energy per Si atom -12404.128703 kJ/mol
# Density = 1.832010 g / cm^3
# Si number density = 18.361892 Si / 1000 Ang^3
#
#
#
# Elastic Constant Matrix: (Units=GPa)
#
#
# Indices 1 2 3 4 5 6 
#
# 1 90.0789 44.5570 54.0398 0.0000 0.0000 0.0000
# 2 44.5570 65.2361 59.5503 0.0000 0.0000 0.0000
# 3 54.0398 59.5503 109.0136 0.0000 0.0000 0.0000
# 4 0.0000 0.0000 0.0000 39.2168 0.0000 0.0000
# 5 0.0000 0.0000 0.0000 0.0000 42.0593 0.0000
# 6 0.0000 0.0000 0.0000 0.0000 0.0000 34.7284
#
#
#
# Elastic Compliance Matrix: (Units=1/GPa)
#
#
# Indices 1 2 3 4 5 6 
#
# 1 0.017738 -0.008155 -0.004338 0.000000 0.000000 0.000000
# 2 -0.008155 0.034325 -0.014708 0.000000 0.000000 0.000000
# 3 -0.004338 -0.014708 0.019358 0.000000 0.000000 0.000000
# 4 0.000000 0.000000 0.000000 0.025499 0.000000 0.000000
# 5 0.000000 0.000000 0.000000 0.000000 0.023776 0.000000
# 6 0.000000 0.000000 0.000000 0.000000 0.000000 0.028795
#
#
# Mechanical properties :
#
#
# Convention : Reuss Voigt Hill
#
# Bulk Modulus (GPa) = 58.75924 64.51363 61.63643
# Shear Modulus (GPa) = 23.85888 30.27968 27.06928
#
# Velocity S-wave (km/s) = 3.60859 4.06526 3.84371
# Velocity P-wave (km/s) = 7.03084 7.56610 7.30337
#
# Compressibility (1/GPa) = 0.01701860
#
# Stress axis : x y z
#
# Youngs Moduli (GPa) = 56.37714 29.13334 51.65827
#
# Poissons Ratio (x) = 0.23759 0.22409
# Poissons Ratio (y) = 0.45976 0.75978
# Poissons Ratio (z) = 0.24456 0.42849
#
# Static dielectric constant tensor:
#      x y z
#    x 3.519730 0.000000 0.000000 
#    y 0.000000 3.315590 0.000000 
#    z 0.000000 0.000000 3.389130 
# 
# 
# High freq. dielectric constant tensor:
#      x y z
#    x 1.721830 0.000000 0.000000 
#    y 0.000000 1.707510 0.000000 
#    z 0.000000 0.000000 1.718680 
# 
# From -- ./inp_files/36931.got.cif
#   From: 2010.03.12/outbox.cif.g09.slc.cpg/sg51_19_cif.got.tgz:36931.got - 2010.04.16 13:43:02.
