data_PCOD8213862
_publ_section_title
;
Structure prediction by ZEFSAII (Michael W. Deem and Ramdas Pophale) SiO2 
 PCOD8213862
Probable space group: P M M A
;
_chemical_formula_sum "Si O2"
_cell_formula_units_Z 64
_cell_length_a 8.710560
_cell_length_b 15.093218
_cell_length_c 23.873347
_cell_angle_alpha 90.000000
_cell_angle_beta 90.000000
_cell_angle_gamma 90.000000
_cell_volume 3138.638025
_symmetry_space_group_name_H-M "P M M A"
_symmetry_group_IT_number 51
_symmetry_cell_setting 'orthorhombic'
loop_
_space_group_symop_operation_xyz
x,y,z
1/2-x,-y,z
1/2+x,-y,-z
-x,y,-z
-x,-y,-z
1/2+x,y,-z
1/2-x,y,z
x,-y,z
loop_
_atom_site_type_symbol
_atom_site_label
_atom_site_fract_x
_atom_site_fract_y
_atom_site_fract_z
Si Si1 0.421042 0.103515 0.056591
Si Si2 0.429024 0.664218 0.170982
Si Si3 0.422918 0.402209 0.730012
Si Si4 0.068958 0.399628 0.559946
Si Si5 0.572422 0.098039 0.714317
Si Si6 0.068355 0.152363 0.825407
Si Si7 0.927146 0.272932 0.651145
Si Si8 0.570557 0.401085 0.945478
O O1 0.250000 0.146228 0.063011
O O2 0.516470 0.118236 0.113610
O O3 0.403550 0.000000 0.047388
O O4 0.500000 0.143552 0.000000
O O5 0.250000 0.644450 0.179241
O O6 0.528434 0.592060 0.205011
O O7 0.477495 0.759919 0.192044
O O8 0.478746 0.658747 0.106455
O O9 0.250000 0.365140 0.722302
O O10 0.431797 0.500000 0.703179
O O11 0.548050 0.337140 0.703717
O O12 0.250000 0.397350 0.555708
O O13 0.016275 0.500000 0.578701
O O14 0.000000 0.376532 0.500000
O O15 0.019944 0.319735 0.600980
O O16 0.750000 0.118029 0.728979
O O17 0.477074 0.091153 0.772649
O O18 0.515205 0.173931 0.669765
O O19 0.554719 0.000000 0.686357
O O20 0.250000 0.166289 0.827244
O O21 0.750000 0.269714 0.633770
O O22 0.750000 0.405915 0.952321
O O23 0.502614 0.500000 0.937810
O O24 0.500000 0.354528 0.000000
#
# Coordination Sequence:
#
# PCOD8213862 Si02
#       8
#     8   8   8   8   8   8   8   8
#     4  10  21  38  59  81 106 137 178 232 296 368
#     4  11  22  37  55  76 106 143 186 237 290 350
#     4  11  23  37  55  83 119 156 193 240 297 355
#     4  10  21  38  62  94 134 176 215 256 300 351
#     4  10  22  41  63  87 118 159 206 256 310 366
#     4  12  24  37  56  82 113 147 189 242 303 369
#     4  11  22  37  61  91 124 164 207 252 300 354
#     4   9  19  35  54  74  96 128 174 226 280 342
#
# _framework density 20.391010999999999
#
# number of rings (size 3 to 8) (size 9 to 14) (size 15 to 20)
#    0.000    1.500    1.250    4.125    0.000    8.250 
#    0.000    2.500    0.000    0.375    0.000    0.000 
#    0.000    0.000    0.000    0.000    0.000    0.000 
#
# Total GULP energy -793127.479915 kJ/mol
# GULP energy per Si atom -12392.616874 kJ/mol
# Density = 2.034460 g / cm^3
# Si number density = 20.391011 Si / 1000 Ang^3
#
#
#
# Elastic Constant Matrix: (Units=GPa)
#
#
# Indices 1 2 3 4 5 6 
#
# 1 63.5339 26.2810 37.8707 0.0000 0.0000 0.0000
# 2 26.2810 102.7005 46.6907 0.0000 0.0000 0.0000
# 3 37.8707 46.6907 119.5902 0.0000 0.0000 0.0000
# 4 0.0000 0.0000 0.0000 24.5846 0.0000 0.0000
# 5 0.0000 0.0000 0.0000 0.0000 35.9748 0.0000
# 6 0.0000 0.0000 0.0000 0.0000 0.0000 23.0529
#
#
#
# Elastic Compliance Matrix: (Units=1/GPa)
#
#
# Indices 1 2 3 4 5 6 
#
# 1 0.020009 -0.002723 -0.005273 0.000000 0.000000 0.000000
# 2 -0.002723 0.012209 -0.003904 0.000000 0.000000 0.000000
# 3 -0.005273 -0.003904 0.011556 0.000000 0.000000 0.000000
# 4 0.000000 0.000000 0.000000 0.040676 0.000000 0.000000
# 5 0.000000 0.000000 0.000000 0.000000 0.027797 0.000000
# 6 0.000000 0.000000 0.000000 0.000000 0.000000 0.043378
#
#
# Mechanical properties :
#
#
# Convention : Reuss Voigt Hill
#
# Bulk Modulus (GPa) = 50.06728 56.38995 53.22862
# Shear Modulus (GPa) = 26.86951 28.38795 27.62873
#
# Velocity S-wave (km/s) = 3.63397 3.73524 3.68495
# Velocity P-wave (km/s) = 6.49727 6.80566 6.65326
#
# Compressibility (1/GPa) = 0.01997312
#
# Stress axis : x y z
#
# Youngs Moduli (GPa) = 49.97697 81.90756 86.53441
#
# Poissons Ratio (x) = 0.22303 0.45631
# Poissons Ratio (y) = 0.13609 0.33786
# Poissons Ratio (z) = 0.26354 0.31979
#
# Static dielectric constant tensor:
#      x y z
#    x 3.733390 0.000000 0.000000 
#    y 0.000000 3.781290 0.000000 
#    z 0.000000 0.000000 3.685790 
# 
# 
# High freq. dielectric constant tensor:
#      x y z
#    x 1.797140 0.000000 0.000000 
#    y 0.000000 1.792900 0.000000 
#    z 0.000000 0.000000 1.786260 
# 
# From -- ./inp_files/34992.got.cif
#   From: 2010.03.12/outbox.cif.g09.slc.cpg/sg51_18_cif.got.tgz:34992.got - 2010.04.16 13:43:02.
