data_PCOD8213881
_publ_section_title
;
Structure prediction by ZEFSAII (Michael W. Deem and Ramdas Pophale) SiO2 
 PCOD8213881
Probable space group: P M M A
;
_chemical_formula_sum "Si O2"
_cell_formula_units_Z 64
_cell_length_a 8.743306
_cell_length_b 20.183851
_cell_length_c 18.666376
_cell_angle_alpha 90.000000
_cell_angle_beta 90.000000
_cell_angle_gamma 90.000000
_cell_volume 3294.122302
_symmetry_space_group_name_H-M "P M M A"
_symmetry_group_IT_number 51
_symmetry_cell_setting 'orthorhombic'
loop_
_space_group_symop_operation_xyz
x,y,z
1/2-x,-y,z
1/2+x,-y,-z
-x,y,-z
-x,-y,-z
1/2+x,y,-z
1/2-x,y,z
x,-y,z
loop_
_atom_site_type_symbol
_atom_site_label
_atom_site_fract_x
_atom_site_fract_y
_atom_site_fract_z
Si Si1 0.431417 0.688309 0.836854
Si Si2 0.430883 0.425369 0.575430
Si Si3 0.068214 0.926818 0.178782
Si Si4 0.573866 0.076545 0.660392
Si Si5 0.068095 0.190471 0.078211
Si Si6 0.572212 0.577015 0.924418
Si Si7 0.931514 0.308896 0.325023
Si Si8 0.929817 0.809586 0.423427
O O1 0.250000 0.696148 0.842208
O O2 0.511464 0.742207 0.886517
O O3 0.482477 0.615960 0.862869
O O4 0.493094 0.695854 0.755904
O O5 0.500000 0.402355 0.500000
O O6 0.250000 0.421058 0.568237
O O7 0.484091 0.500000 0.594942
O O8 0.491946 0.376131 0.637191
O O9 0.250000 0.927843 0.179349
O O10 0.011882 0.910026 0.259139
O O11 0.005322 0.871704 0.124385
O O12 0.007800 0.000000 0.155834
O O13 0.750000 0.097986 0.653744
O O14 0.475328 0.118093 0.604416
O O15 0.552913 0.000000 0.640156
O O16 0.250000 0.191092 0.074105
O O17 0.000000 0.182800 0.000000
O O18 0.750000 0.596453 0.925232
O O19 0.547132 0.500000 0.908194
O O20 0.500000 0.597435 0.000000
O O21 0.750000 0.309737 0.323853
O O22 0.993207 0.245396 0.368190
O O23 0.750000 0.805172 0.431027
O O24 0.000000 0.794469 0.500000
#
# Coordination Sequence:
#
# PCOD8213881 Si02
#       8
#     8   8   8   8   8   8   8   8
#     4  11  22  37  57  80 108 141 180 223 268 319
#     4   9  17  32  54  78 105 137 172 209 252 304
#     4   8  16  33  57  82 107 138 177 220 266 318
#     4   9  18  35  58  81 105 135 173 216 263 316
#     4  11  22  36  55  79 109 143 179 220 267 317
#     4  10  21  38  59  83 111 142 178 220 266 317
#     4   9  20  36  54  78 106 138 176 219 263 309
#     4  11  22  36  54  77 107 140 177 220 265 314
#
# _framework density 19.428543999999999
#
# number of rings (size 3 to 8) (size 9 to 14) (size 15 to 20)
#    0.000    2.250    0.000    3.750    0.000    2.000 
#    0.000    5.625    0.000    4.125    0.000    0.000 
#    0.000    0.000    0.000    0.000    0.000    0.000 
#
# Total GULP energy -793706.339666 kJ/mol
# GULP energy per Si atom -12401.661557 kJ/mol
# Density = 1.938432 g / cm^3
# Si number density = 19.428544 Si / 1000 Ang^3
#
#
#
# Elastic Constant Matrix: (Units=GPa)
#
#
# Indices 1 2 3 4 5 6 
#
# 1 54.6786 29.4647 34.9936 0.0000 0.0000 0.0000
# 2 29.4647 101.4383 60.3163 0.0000 0.0000 0.0000
# 3 34.9936 60.3163 132.3229 0.0000 0.0000 0.0000
# 4 0.0000 0.0000 0.0000 45.1600 0.0000 0.0000
# 5 0.0000 0.0000 0.0000 0.0000 20.2141 0.0000
# 6 0.0000 0.0000 0.0000 0.0000 0.0000 21.5604
#
#
#
# Elastic Compliance Matrix: (Units=1/GPa)
#
#
# Indices 1 2 3 4 5 6 
#
# 1 0.023280 -0.004255 -0.004217 0.000000 0.000000 0.000000
# 2 -0.004255 0.014301 -0.005394 0.000000 0.000000 0.000000
# 3 -0.004217 -0.005394 0.011131 0.000000 0.000000 0.000000
# 4 0.000000 0.000000 0.000000 0.022143 0.000000 0.000000
# 5 0.000000 0.000000 0.000000 0.000000 0.049470 0.000000
# 6 0.000000 0.000000 0.000000 0.000000 0.000000 0.046381
#
#
# Mechanical properties :
#
#
# Convention : Reuss Voigt Hill
#
# Bulk Modulus (GPa) = 47.66093 59.77656 53.71874
# Shear Modulus (GPa) = 24.82217 28.29793 26.56005
#
# Velocity S-wave (km/s) = 3.57825 3.82057 3.70139
# Velocity P-wave (km/s) = 6.45418 7.09200 6.78060
#
# Compressibility (1/GPa) = 0.02098155
#
# Stress axis : x y z
#
# Youngs Moduli (GPa) = 42.95467 69.92422 89.83796
#
# Poissons Ratio (x) = 0.29750 0.37887
# Poissons Ratio (y) = 0.18275 0.48456
# Poissons Ratio (z) = 0.18115 0.37715
#
# Static dielectric constant tensor:
#      x y z
#    x 3.302770 0.000000 0.000000 
#    y 0.000000 3.781530 0.000000 
#    z 0.000000 0.000000 3.692330 
# 
# 
# High freq. dielectric constant tensor:
#      x y z
#    x 1.735820 0.000000 0.000000 
#    y 0.000000 1.769910 0.000000 
#    z 0.000000 0.000000 1.760710 
# 
# From -- ./inp_files/28473.got.cif
#   From: 2010.03.12/outbox.cif.g09.slc.cpg/sg51_15_cif.got.tgz:28473.got - 2010.04.16 13:43:02.
