data_PCOD8213942
_publ_section_title
;
Structure prediction by ZEFSAII (Michael W. Deem and Ramdas Pophale) SiO2 
 PCOD8213942
Probable space group: P M M A
;
_chemical_formula_sum "Si O2"
_cell_formula_units_Z 56
_cell_length_a 15.561860
_cell_length_b 9.142817
_cell_length_c 20.016987
_cell_angle_alpha 90.000000
_cell_angle_beta 90.000000
_cell_angle_gamma 90.000000
_cell_volume 2848.001661
_symmetry_space_group_name_H-M "P M M A"
_symmetry_group_IT_number 51
_symmetry_cell_setting 'orthorhombic'
loop_
_space_group_symop_operation_xyz
x,y,z
1/2-x,-y,z
1/2+x,-y,-z
-x,y,-z
-x,-y,-z
1/2+x,y,-z
1/2-x,y,z
x,-y,z
loop_
_atom_site_type_symbol
_atom_site_label
_atom_site_fract_x
_atom_site_fract_y
_atom_site_fract_z
Si Si1 0.843678 0.333736 0.139804
Si Si2 0.497125 0.834940 0.920998
Si Si3 0.250000 0.660698 0.645623
Si Si4 0.077739 0.174899 0.451001
Si Si5 0.153948 0.825713 0.170273
Si Si6 0.933805 0.833289 0.699087
Si Si7 0.372796 0.832592 0.729130
Si Si8 0.250000 0.662819 0.490593
O O1 0.750000 0.326828 0.103592
O O2 0.868887 0.500000 0.156820
O O3 0.916805 0.266894 0.093987
O O4 0.832650 0.241921 0.206727
O O5 0.584780 0.774049 0.885968
O O6 0.479992 0.000000 0.894557
O O7 0.500000 0.833902 0.000000
O O8 0.250000 0.500000 0.680223
O O9 0.335369 0.750447 0.664773
O O10 0.250000 0.638819 0.568168
O O11 0.064411 0.236344 0.375106
O O12 0.166597 0.244959 0.472518
O O13 0.000000 0.226759 0.500000
O O14 0.084293 0.000000 0.453810
O O15 0.250000 0.768724 0.151697
O O16 0.130075 0.763987 0.244905
O O17 0.152981 0.000000 0.172671
O O18 0.025801 0.816908 0.732925
O O19 0.906931 0.000000 0.688222
O O20 0.343656 0.000000 0.725408
O O21 0.250000 0.500000 0.456823
#
# Coordination Sequence:
#
# PCOD8213942 Si02
#       8
#     8   8   4   8   8   8   8   4
#     4  11  23  38  57  85 123 161 196 237 291 357
#     4  10  21  38  61  89 120 155 198 247 293 347
#     4  11  23  37  53  81 119 156 193 234 297 365
#     4  10  21  38  60  86 115 149 198 254 300 352
#     4   9  17  31  54  84 114 145 187 239 296 349
#     4   9  18  32  55  84 110 142 188 244 301 346
#     4  11  20  34  59  87 114 148 195 247 296 347
#     4  11  25  41  57  81 121 164 197 238 299 371
#
# _framework density 19.66291
#
# number of rings (size 3 to 8) (size 9 to 14) (size 15 to 20)
#    0.000    1.857    2.143    2.143    1.000    4.286 
#    0.000    2.857    0.000    0.429    0.000    0.000 
#    0.000    0.000    0.000    0.000    0.000    0.000 
#
# Total GULP energy -693970.541020 kJ/mol
# GULP energy per Si atom -12392.331090 kJ/mol
# Density = 1.961816 g / cm^3
# Si number density = 19.662910 Si / 1000 Ang^3
#
#
#
# Elastic Constant Matrix: (Units=GPa)
#
#
# Indices 1 2 3 4 5 6 
#
# 1 149.1577 45.1269 55.9156 0.0000 0.0000 0.0000
# 2 45.1269 84.2534 24.0360 0.0000 0.0000 0.0000
# 3 55.9156 24.0360 98.1904 0.0000 0.0000 0.0000
# 4 0.0000 0.0000 0.0000 15.7821 0.0000 0.0000
# 5 0.0000 0.0000 0.0000 0.0000 300.9656 0.0000
# 6 0.0000 0.0000 0.0000 0.0000 0.0000 15.3117
#
#
#
# Elastic Compliance Matrix: (Units=1/GPa)
#
#
# Indices 1 2 3 4 5 6 
#
# 1 0.009551 -0.003831 -0.004501 0.000000 0.000000 0.000000
# 2 -0.003831 0.014297 -0.001318 0.000000 0.000000 0.000000
# 3 -0.004501 -0.001318 0.013070 0.000000 0.000000 0.000000
# 4 0.000000 0.000000 0.000000 0.063363 0.000000 0.000000
# 5 0.000000 0.000000 0.000000 0.000000 0.003323 0.000000
# 6 0.000000 0.000000 0.000000 0.000000 0.000000 0.065310
#
#
# Mechanical properties :
#
#
# Convention : Reuss Voigt Hill
#
# Bulk Modulus (GPa) = 56.76226 64.63983 60.70105
# Shear Modulus (GPa) = 25.76176 80.18008 52.97092
#
# Velocity S-wave (km/s) = 3.62355 6.39264 5.19596
# Velocity P-wave (km/s) = 6.81449 9.35057 8.18139
#
# Compressibility (1/GPa) = 0.01761734
#
# Stress axis : x y z
#
# Youngs Moduli (GPa) = 104.70347 69.94420 76.51112
#
# Poissons Ratio (x) = 0.26799 0.34437
# Poissons Ratio (y) = 0.40117 0.10083
# Poissons Ratio (z) = 0.47126 0.09218
#
# Static dielectric constant tensor:
#      x y z
#    x 3.863380 0.000000 0.000000 
#    y 0.000000 3.524890 0.000000 
#    z 0.000000 0.000000 3.666630 
# 
# 
# High freq. dielectric constant tensor:
#      x y z
#    x 1.779500 0.000000 0.000000 
#    y 0.000000 1.734040 0.000000 
#    z 0.000000 0.000000 1.766380 
# 
# From -- ./inp_files/33542.got.cif
#   From: 2010.03.12/outbox.cif.g09.slc.cpg/sg51_17_cif.got.tgz:33542.got - 2010.04.16 13:43:02.
