data_PCOD8213432
_publ_section_title
;
Structure prediction by ZEFSAII (Michael W. Deem and Ramdas Pophale) SiO2 
 PCOD8213432
Probable space group: P M M A
;
_chemical_formula_sum "Si O2"
_cell_formula_units_Z 64
_cell_length_a 14.343922
_cell_length_b 8.838744
_cell_length_c 24.924437
_cell_angle_alpha 90.000000
_cell_angle_beta 90.000000
_cell_angle_gamma 90.000000
_cell_volume 3159.976315
_symmetry_space_group_name_H-M "P M M A"
_symmetry_group_IT_number 51
_symmetry_cell_setting 'orthorhombic'
loop_
_space_group_symop_operation_xyz
x,y,z
1/2-x,-y,z
1/2+x,-y,-z
-x,y,-z
-x,-y,-z
1/2+x,y,-z
1/2-x,y,z
x,-y,z
loop_
_atom_site_type_symbol
_atom_site_label
_atom_site_fract_x
_atom_site_fract_y
_atom_site_fract_z
Si Si1 0.475930 0.322058 0.175029
Si Si2 0.355849 0.827581 0.478437
Si Si3 0.644208 0.677233 0.410347
Si Si4 0.143650 0.679486 0.276038
Si Si5 0.392837 0.671304 0.985546
Si Si6 0.533696 0.822908 0.627275
Si Si7 0.144190 0.824942 0.872615
Si Si8 0.147486 0.170744 0.089636
O O1 0.492390 0.500000 0.177587
O O2 0.416337 0.262156 0.225429
O O3 0.576283 0.239804 0.173837
O O4 0.420868 0.282788 0.120796
O O5 0.250000 0.807268 0.458127
O O6 0.377644 0.720067 0.528305
O O7 0.423958 0.781524 0.430536
O O8 0.374213 0.000000 0.497004
O O9 0.750000 0.726412 0.395401
O O10 0.630348 0.500000 0.403041
O O11 0.572375 0.761655 0.370682
O O12 0.250000 0.738736 0.270892
O O13 0.142293 0.500000 0.278592
O O14 0.097667 0.743216 0.329267
O O15 0.355046 0.500000 0.987839
O O16 0.373514 0.735101 0.927010
O O17 0.500000 0.678725 0.000000
O O18 0.339942 0.774172 0.028649
O O19 0.534253 0.000000 0.638722
O O20 0.250000 0.800952 0.852801
O O21 0.121956 0.000000 0.882669
O O22 0.250000 0.175234 0.116352
O O23 0.107155 0.000000 0.091042
#
# Coordination Sequence:
#
# PCOD8213432 Si02
#       8
#     8   8   8   8   8   8   8   8
#     4  11  23  41  64  88 114 149 193 239 289 342
#     4   9  18  33  53  81 119 158 195 238 290 350
#     4  10  21  36  55  82 117 158 202 245 291 345
#     4  10  23  43  65  89 118 151 189 237 291 346
#     4  11  22  36  57  87 119 155 194 235 284 340
#     4  11  22  36  58  87 118 155 198 243 294 351
#     4  11  24  41  62  88 119 155 194 239 291 346
#     4  11  23  37  57  86 118 153 190 231 284 342
#
# _framework density 20.253316999999999
#
# number of rings (size 3 to 8) (size 9 to 14) (size 15 to 20)
#    0.000    1.500    1.250    3.750    0.000    9.500 
#    0.000    1.875    0.000    0.750    0.000    0.000 
#    0.000    0.000    0.000    0.000    0.000    0.000 
#
# Total GULP energy -793779.783225 kJ/mol
# GULP energy per Si atom -12402.809113 kJ/mol
# Density = 2.020722 g / cm^3
# Si number density = 20.253317 Si / 1000 Ang^3
#
#
#
# Elastic Constant Matrix: (Units=GPa)
#
#
# Indices 1 2 3 4 5 6 
#
# 1 145.9968 35.3692 45.8227 0.0000 0.0000 0.0000
# 2 35.3692 47.7993 14.3049 0.0000 0.0000 0.0000
# 3 45.8227 14.3049 56.2922 0.0000 0.0000 0.0000
# 4 0.0000 0.0000 0.0000 -238.7366 0.0000 0.0000
# 5 0.0000 0.0000 0.0000 0.0000 31.6003 0.0000
# 6 0.0000 0.0000 0.0000 0.0000 0.0000 27.3482
#
#
#
# Elastic Compliance Matrix: (Units=1/GPa)
#
#
# Indices 1 2 3 4 5 6 
#
# 1 0.010422 -0.005599 -0.007061 0.000000 0.000000 0.000000
# 2 -0.005599 0.025650 -0.001961 0.000000 0.000000 0.000000
# 3 -0.007061 -0.001961 0.024010 0.000000 0.000000 0.000000
# 4 0.000000 0.000000 0.000000 -0.004189 0.000000 0.000000
# 5 0.000000 0.000000 0.000000 0.000000 0.031645 0.000000
# 6 0.000000 0.000000 0.000000 0.000000 0.000000 0.036565
#
#
# Mechanical properties :
#
#
# Convention : Reuss Voigt Hill
#
# Bulk Modulus (GPa) = 32.42338 49.00910 40.71624
# Shear Modulus (GPa) = 30.55746 -25.65151 2.45298
#
# Velocity S-wave (km/s) = 3.88849 -3.56270 1.10172
# Velocity P-wave (km/s) = 6.01699 2.70681 4.66535
#
# Compressibility (1/GPa) = 0.03084194
#
# Stress axis : x y z
#
# Youngs Moduli (GPa) = 95.95152 38.98579 41.64860
#
# Poissons Ratio (x) = 0.21827 0.29408
# Poissons Ratio (y) = 0.53720 0.08167
# Poissons Ratio (z) = 0.67750 0.07645
#
# Static dielectric constant tensor:
#      x y z
#    x 3.933000 0.000000 0.000000 
#    y 0.000000 3.688870 0.000000 
#    z 0.000000 0.000000 3.488570 
# 
# 
# High freq. dielectric constant tensor:
#      x y z
#    x 1.811970 0.000000 0.000000 
#    y 0.000000 1.795440 0.000000 
#    z 0.000000 0.000000 1.765160 
# 
# From -- ./inp_files/35693.got.cif
#   From: 2010.03.12/outbox.cif.g09.slc.cpg/sg51_18_cif.got.tgz:35693.got - 2010.04.16 13:43:02.
