data_PCOD8213260
_publ_section_title
;
Structure prediction by ZEFSAII (Michael W. Deem and Ramdas Pophale) SiO2 
 PCOD8213260
Probable space group: P M M A
;
_chemical_formula_sum "Si O2"
_cell_formula_units_Z 56
_cell_length_a 14.712331
_cell_length_b 9.446334
_cell_length_c 21.489846
_cell_angle_alpha 90.000000
_cell_angle_beta 90.000000
_cell_angle_gamma 90.000000
_cell_volume 2986.607061
_symmetry_space_group_name_H-M "P M M A"
_symmetry_group_IT_number 51
_symmetry_cell_setting 'orthorhombic'
loop_
_space_group_symop_operation_xyz
x,y,z
1/2-x,-y,z
1/2+x,-y,-z
-x,y,-z
-x,-y,-z
1/2+x,y,-z
1/2-x,y,z
x,-y,z
loop_
_atom_site_type_symbol
_atom_site_label
_atom_site_fract_x
_atom_site_fract_y
_atom_site_fract_z
Si Si1 0.003156 0.336968 0.353103
Si Si2 0.853922 0.662668 0.453137
Si Si3 0.855803 0.834979 0.574659
Si Si4 0.498733 0.663538 0.789101
Si Si5 0.642132 0.156663 0.995311
Si Si6 0.853924 0.166694 0.857482
Si Si7 0.646353 0.334632 0.110580
O O1 0.032434 0.500000 0.362701
O O2 0.915716 0.298172 0.394419
O O3 0.087788 0.237157 0.370081
O O4 0.974269 0.307058 0.282394
O O5 0.750000 0.692235 0.433711
O O6 0.867594 0.500000 0.473862
O O7 0.884110 0.761203 0.510119
O O8 0.750000 0.810497 0.589237
O O9 0.879933 0.000000 0.570167
O O10 0.521531 0.500000 0.801117
O O11 0.587062 0.752609 0.806686
O O12 0.412060 0.711632 0.829732
O O13 0.750000 0.151666 0.995012
O O14 0.605595 0.259844 0.049018
O O15 0.603159 0.000000 0.008838
O O16 0.611237 0.209021 0.926855
O O17 0.750000 0.213778 0.847613
O O18 0.864287 0.000000 0.847410
O O19 0.750000 0.286856 0.123458
O O20 0.640539 0.500000 0.097656
#
# Coordination Sequence:
#
# PCOD8213260 Si02
#       7
#     8   8   8   8   8   8   8
#     4  10  21  36  53  75 105 139 173 208 247 295
#     4   9  18  34  57  82 105 132 168 208 250 297
#     4  10  21  36  55  80 107 134 166 207 255 301
#     4  10  22  36  50  74 105 137 173 209 249 298
#     4   8  15  30  52  75  97 125 165 212 260 306
#     4   9  19  36  55  74  99 132 170 213 259 306
#     4   9  18  33  52  74 102 134 167 207 255 305
#
# _framework density 18.750375999999999
#
# number of rings (size 3 to 8) (size 9 to 14) (size 15 to 20)
#    0.000    2.714    0.000    1.714    0.000    6.857 
#    0.000   10.000    0.000    0.000    0.000    6.000 
#    0.000    0.000    0.000    0.000    0.000    0.000 
#
# Total GULP energy -694443.381288 kJ/mol
# GULP energy per Si atom -12400.774666 kJ/mol
# Density = 1.870770 g / cm^3
# Si number density = 18.750376 Si / 1000 Ang^3
#
#
#
# Elastic Constant Matrix: (Units=GPa)
#
#
# Indices 1 2 3 4 5 6 
#
# 1 64.6609 28.9261 29.7677 0.0000 0.0000 0.0000
# 2 28.9261 56.3754 32.7402 0.0000 0.0000 0.0000
# 3 29.7677 32.7402 88.6887 0.0000 0.0000 0.0000
# 4 0.0000 0.0000 0.0000 -5.2574 0.0000 0.0000
# 5 0.0000 0.0000 0.0000 0.0000 29.9051 0.0000
# 6 0.0000 0.0000 0.0000 0.0000 0.0000 23.0372
#
#
#
# Elastic Compliance Matrix: (Units=1/GPa)
#
#
# Indices 1 2 3 4 5 6 
#
# 1 0.021095 -0.008543 -0.003926 0.000000 0.000000 0.000000
# 2 -0.008543 0.026039 -0.006745 0.000000 0.000000 0.000000
# 3 -0.003926 -0.006745 0.015083 0.000000 0.000000 0.000000
# 4 0.000000 0.000000 0.000000 -0.190207 0.000000 0.000000
# 5 0.000000 0.000000 0.000000 0.000000 0.033439 0.000000
# 6 0.000000 0.000000 0.000000 0.000000 0.000000 0.043408
#
#
# Mechanical properties :
#
#
# Convention : Reuss Voigt Hill
#
# Bulk Modulus (GPa) = 42.03910 43.62144 42.83027
# Shear Modulus (GPa) = -1045.22320 17.42304 -513.90008
#
# Velocity S-wave (km/s) = -23.63581 3.05160 -16.57316
# Velocity P-wave (km/s) = 26.87749 5.97756 18.52928
#
# Compressibility (1/GPa) = 0.02378738
#
# Stress axis : x y z
#
# Youngs Moduli (GPa) = 47.40505 38.40393 66.29878
#
# Poissons Ratio (x) = 0.32810 0.26032
# Poissons Ratio (y) = 0.40500 0.44718
# Poissons Ratio (z) = 0.18613 0.25903
#
# Static dielectric constant tensor:
#      x y z
#    x 3.416340 0.000000 0.000000 
#    y 0.000000 3.438950 0.000000 
#    z 0.000000 0.000000 3.464520 
# 
# 
# High freq. dielectric constant tensor:
#      x y z
#    x 1.728270 0.000000 0.000000 
#    y 0.000000 1.720740 0.000000 
#    z 0.000000 0.000000 1.724770 
# 
# From -- ./inp_files/33345.got.cif
#   From: 2010.03.12/outbox.cif.g09.slc.cpg/sg51_17_cif.got.tgz:33345.got - 2010.04.16 13:43:02.
