data_PCOD8213649
_publ_section_title
;
Structure prediction by ZEFSAII (Michael W. Deem and Ramdas Pophale) SiO2 
 PCOD8213649
Probable space group: P M M A
;
_chemical_formula_sum "Si O2"
_cell_formula_units_Z 40
_cell_length_a 8.910045
_cell_length_b 9.304349
_cell_length_c 25.608361
_cell_angle_alpha 90.000000
_cell_angle_beta 90.000000
_cell_angle_gamma 90.000000
_cell_volume 2122.988653
_symmetry_space_group_name_H-M "P M M A"
_symmetry_group_IT_number 51
_symmetry_cell_setting 'orthorhombic'
loop_
_space_group_symop_operation_xyz
x,y,z
1/2-x,-y,z
1/2+x,-y,-z
-x,y,-z
-x,-y,-z
1/2+x,y,-z
1/2-x,y,z
x,-y,z
loop_
_atom_site_type_symbol
_atom_site_label
_atom_site_fract_x
_atom_site_fract_y
_atom_site_fract_z
Si Si1 0.924691 0.168247 0.352721
Si Si2 0.573590 0.335392 0.554110
Si Si3 0.575478 0.667439 0.740151
Si Si4 0.926177 0.164825 0.052412
Si Si5 0.577975 0.667045 0.152981
O O1 0.750000 0.201017 0.360436
O O2 0.014461 0.233418 0.400836
O O3 0.979238 0.239559 0.299517
O O4 0.958543 0.000000 0.349865
O O5 0.500000 0.286216 0.500000
O O6 0.750000 0.315722 0.548925
O O7 0.530641 0.500000 0.567367
O O8 0.750000 0.703697 0.733289
O O9 0.543224 0.500000 0.729303
O O10 0.523880 0.710874 0.798035
O O11 0.750000 0.184725 0.046714
O O12 0.986074 0.249840 0.102772
O O13 0.973966 0.000000 0.059849
O O14 0.000000 0.228904 0.000000
O O15 0.750000 0.710656 0.165075
O O16 0.564444 0.500000 0.140379
#
# Coordination Sequence:
#
# PCOD8213649 Si02
#       5
#     8   8   8   8   8
#     4  11  24  39  56  81 112 146 183 222 267 318
#     4  10  21  38  61  87 113 144 183 224 267 317
#     4  10  21  37  57  81 108 139 177 221 269 321
#     4   9  18  32  49  70  98 132 169 209 255 309
#     4   9  18  33  52  74 101 134 171 212 260 312
#
# _framework density 18.841362
#
# number of rings (size 3 to 8) (size 9 to 14) (size 15 to 20)
#    0.000    2.200    0.000    2.400    0.000    8.800 
#    0.000    2.000    0.000    0.000    0.000    0.000 
#    0.000    0.000    0.000    0.000    0.000    0.000 
#
# Total GULP energy -496163.018292 kJ/mol
# GULP energy per Si atom -12404.075457 kJ/mol
# Density = 1.879848 g / cm^3
# Si number density = 18.841362 Si / 1000 Ang^3
#
#
#
# Elastic Constant Matrix: (Units=GPa)
#
#
# Indices 1 2 3 4 5 6 
#
# 1 56.0652 34.1663 38.5422 0.0000 0.0000 0.0000
# 2 34.1663 68.2155 61.8230 0.0000 0.0000 0.0000
# 3 38.5422 61.8230 139.7392 0.0000 0.0000 0.0000
# 4 0.0000 0.0000 0.0000 -218.3281 0.0000 0.0000
# 5 0.0000 0.0000 0.0000 0.0000 40.5414 0.0000
# 6 0.0000 0.0000 0.0000 0.0000 0.0000 22.9452
#
#
#
# Elastic Compliance Matrix: (Units=1/GPa)
#
#
# Indices 1 2 3 4 5 6 
#
# 1 0.026132 -0.010945 -0.002366 0.000000 0.000000 0.000000
# 2 -0.010945 0.029055 -0.009836 0.000000 0.000000 0.000000
# 3 -0.002366 -0.009836 0.012160 0.000000 0.000000 0.000000
# 4 0.000000 0.000000 0.000000 -0.004580 0.000000 0.000000
# 5 0.000000 0.000000 0.000000 0.000000 0.024666 0.000000
# 6 0.000000 0.000000 0.000000 0.000000 0.000000 0.043582
#
#
# Mechanical properties :
#
#
# Convention : Reuss Voigt Hill
#
# Bulk Modulus (GPa) = 47.49333 59.23144 53.36238
# Shear Modulus (GPa) = 27.12575 -22.33574 2.39501
#
# Velocity S-wave (km/s) = 3.79844 -3.44679 1.12867
# Velocity P-wave (km/s) = 6.67077 3.95786 5.48470
#
# Compressibility (1/GPa) = 0.02105559
#
# Stress axis : x y z
#
# Youngs Moduli (GPa) = 38.26672 34.41712 82.23552
#
# Poissons Ratio (x) = 0.37669 0.19453
# Poissons Ratio (y) = 0.41882 0.80886
# Poissons Ratio (z) = 0.09052 0.33852
#
# Static dielectric constant tensor:
#      x y z
#    x 3.476450 0.000000 0.000000 
#    y 0.000000 3.452760 0.000000 
#    z 0.000000 0.000000 3.716380 
# 
# 
# High freq. dielectric constant tensor:
#      x y z
#    x 1.735810 0.000000 0.000000 
#    y 0.000000 1.724620 0.000000 
#    z 0.000000 0.000000 1.746140 
# 
# From -- ./inp_files/34299.got.cif
#   From: 2010.03.12/outbox.cif.g09.slc.cpg/sg51_18_cif.got.tgz:34299.got - 2010.04.16 13:43:02.
