data_PCOD8213701
_publ_section_title
;
Structure prediction by ZEFSAII (Michael W. Deem and Ramdas Pophale) SiO2 
 PCOD8213701
Probable space group: P M M A
;
_chemical_formula_sum "Si O2"
_cell_formula_units_Z 64
_cell_length_a 8.832505
_cell_length_b 14.505267
_cell_length_c 25.168668
_cell_angle_alpha 90.000000
_cell_angle_beta 90.000000
_cell_angle_gamma 90.000000
_cell_volume 3224.555463
_symmetry_space_group_name_H-M "P M M A"
_symmetry_group_IT_number 51
_symmetry_cell_setting 'orthorhombic'
loop_
_space_group_symop_operation_xyz
x,y,z
1/2-x,-y,z
1/2+x,-y,-z
-x,y,-z
-x,-y,-z
1/2+x,y,-z
1/2-x,y,z
x,-y,z
loop_
_atom_site_type_symbol
_atom_site_label
_atom_site_fract_x
_atom_site_fract_y
_atom_site_fract_z
Si Si1 0.572435 0.212254 0.446953
Si Si2 0.073737 0.768589 0.750833
Si Si3 0.419031 0.602681 0.297247
Si Si4 0.077511 0.891770 0.054374
Si Si5 0.577754 0.397535 0.577631
Si Si6 0.571829 0.606242 0.944150
Si Si7 0.930713 0.895097 0.342935
Si Si8 0.570274 0.244462 0.130300
O O1 0.500000 0.167525 0.500000
O O2 0.750000 0.199558 0.450319
O O3 0.532838 0.320907 0.446347
O O4 0.508093 0.159370 0.394921
O O5 0.250000 0.786718 0.754210
O O6 0.004446 0.845219 0.710363
O O7 0.006202 0.771603 0.810156
O O8 0.044229 0.667259 0.728404
O O9 0.250000 0.636627 0.282004
O O10 0.445718 0.500000 0.274952
O O11 0.439922 0.603529 0.359693
O O12 0.250000 0.855245 0.054858
O O13 0.979415 0.847707 0.100690
O O14 0.071206 0.000000 0.062737
O O15 0.000000 0.860904 0.000000
O O16 0.750000 0.374014 0.561163
O O17 0.532768 0.500000 0.556698
O O18 0.750000 0.622472 0.947787
O O19 0.531123 0.500000 0.932594
O O20 0.504685 0.665649 0.895996
O O21 0.500000 0.638529 0.000000
O O22 0.750000 0.892497 0.342848
O O23 0.990982 0.000000 0.344038
O O24 0.750000 0.257022 0.129138
#
# Coordination Sequence:
#
# PCOD8213701 Si02
#       8
#     8   8   8   8   8   8   8   8
#     4  11  22  36  58  85 114 147 184 231 282 334
#     4  10  21  37  57  83 111 146 190 232 276 328
#     4   9  18  33  55  81 110 145 180 220 272 325
#     4  10  21  38  60  84 112 146 185 231 282 338
#     4   9  18  34  56  82 113 148 183 220 268 325
#     4  10  21  38  60  84 114 155 200 244 290 340
#     4   9  19  38  61  82 107 142 185 232 282 336
#     4  11  23  36  55  84 118 152 189 235 284 338
#
# _framework density 19.847695999999999
#
# number of rings (size 3 to 8) (size 9 to 14) (size 15 to 20)
#    0.000    2.125    1.250    2.625    0.000    4.500 
#    0.000    5.000    0.000    3.000    0.000    0.000 
#    0.000    0.000    0.000    0.000    0.000    0.000 
#
# Total GULP energy -793508.796356 kJ/mol
# GULP energy per Si atom -12398.574943 kJ/mol
# Density = 1.980252 g / cm^3
# Si number density = 19.847696 Si / 1000 Ang^3
#
#
#
# Elastic Constant Matrix: (Units=GPa)
#
#
# Indices 1 2 3 4 5 6 
#
# 1 53.7390 24.6252 38.5426 0.0000 0.0000 0.0000
# 2 24.6252 104.4789 69.8717 0.0000 0.0000 0.0000
# 3 38.5426 69.8717 153.4131 0.0000 0.0000 0.0000
# 4 0.0000 0.0000 0.0000 6.5995 0.0000 0.0000
# 5 0.0000 0.0000 0.0000 0.0000 28.0155 0.0000
# 6 0.0000 0.0000 0.0000 0.0000 0.0000 26.7654
#
#
#
# Elastic Compliance Matrix: (Units=1/GPa)
#
#
# Indices 1 2 3 4 5 6 
#
# 1 0.023059 -0.002244 -0.004771 0.000000 0.000000 0.000000
# 2 -0.002244 0.013982 -0.005804 0.000000 0.000000 0.000000
# 3 -0.004771 -0.005804 0.010361 0.000000 0.000000 0.000000
# 4 0.000000 0.000000 0.000000 0.151528 0.000000 0.000000
# 5 0.000000 0.000000 0.000000 0.000000 0.035694 0.000000
# 6 0.000000 0.000000 0.000000 0.000000 0.000000 0.037362
#
#
# Mechanical properties :
#
#
# Convention : Reuss Voigt Hill
#
# Bulk Modulus (GPa) = 45.95101 64.18998 55.07049
# Shear Modulus (GPa) = 16.40001 24.18219 20.29110
#
# Velocity S-wave (km/s) = 2.87765 3.49433 3.20087
# Velocity P-wave (km/s) = 5.85177 6.97796 6.43953
#
# Compressibility (1/GPa) = 0.02176231
#
# Stress axis : x y z
#
# Youngs Moduli (GPa) = 43.36767 71.52102 96.52024
#
# Poissons Ratio (x) = 0.16050 0.46050
# Poissons Ratio (y) = 0.09732 0.56023
# Poissons Ratio (z) = 0.20691 0.41512
#
# Static dielectric constant tensor:
#      x y z
#    x 3.510230 0.000000 0.000000 
#    y 0.000000 3.897340 0.000000 
#    z 0.000000 0.000000 3.868700 
# 
# 
# High freq. dielectric constant tensor:
#      x y z
#    x 1.757990 0.000000 0.000000 
#    y 0.000000 1.776180 0.000000 
#    z 0.000000 0.000000 1.779080 
# 
# From -- ./inp_files/34942.got.cif
#   From: 2010.03.12/outbox.cif.g09.slc.cpg/sg51_18_cif.got.tgz:34942.got - 2010.04.16 13:43:02.
