data_PCOD8213095
_publ_section_title
;
Structure prediction by ZEFSAII (Michael W. Deem and Ramdas Pophale) SiO2 
 PCOD8213095
Probable space group: P M M A
;
_chemical_formula_sum "Si O2"
_cell_formula_units_Z 48
_cell_length_a 9.098877
_cell_length_b 9.305168
_cell_length_c 30.331524
_cell_angle_alpha 90.000000
_cell_angle_beta 90.000000
_cell_angle_gamma 90.000000
_cell_volume 2568.066376
_symmetry_space_group_name_H-M "P M M A"
_symmetry_group_IT_number 51
_symmetry_cell_setting 'orthorhombic'
loop_
_space_group_symop_operation_xyz
x,y,z
1/2-x,-y,z
1/2+x,-y,-z
-x,y,-z
-x,-y,-z
1/2+x,y,-z
1/2-x,y,z
x,-y,z
loop_
_atom_site_type_symbol
_atom_site_label
_atom_site_fract_x
_atom_site_fract_y
_atom_site_fract_z
Si Si1 0.923710 0.663321 0.628479
Si Si2 0.078216 0.165980 0.954859
Si Si3 0.918687 0.833778 0.196258
Si Si4 0.422151 0.834364 0.456080
Si Si5 0.080094 0.837156 0.702014
Si Si6 0.920418 0.668941 0.877545
O O1 0.750000 0.676196 0.630970
O O2 0.977030 0.500000 0.624758
O O3 0.983760 0.746879 0.585650
O O4 0.986283 0.729533 0.672977
O O5 0.250000 0.196637 0.960082
O O6 0.014635 0.263430 0.916496
O O7 0.047067 0.000000 0.943205
O O8 0.000000 0.210697 0.000000
O O9 0.750000 0.800596 0.183450
O O10 0.947026 0.797669 0.247199
O O11 0.027218 0.734113 0.168685
O O12 0.953634 0.000000 0.186300
O O13 0.500000 0.775524 0.500000
O O14 0.250000 0.810692 0.462308
O O15 0.462661 0.000000 0.447904
O O16 0.250000 0.819512 0.689806
O O17 0.028532 0.000000 0.692749
O O18 0.750000 0.706132 0.884726
O O19 0.948706 0.500000 0.876691
#
# Coordination Sequence:
#
# PCOD8213095 Si02
#       6
#     8   8   8   8   8   8
#     4  10  21  35  51  75 108 142 174 211 258 313
#     4  10  21  38  61  86 110 140 180 224 269 317
#     4   9  19  37  59  81 105 136 177 223 268 314
#     4   9  18  33  52  73  98 131 172 216 260 307
#     4   9  19  36  57  80 105 135 175 221 265 312
#     4  11  24  38  53  79 114 148 181 218 263 316
#
# _framework density 18.691106999999999
#
# number of rings (size 3 to 8) (size 9 to 14) (size 15 to 20)
#    0.000    2.333    0.000    3.000    0.000    8.667 
#    0.000    6.667    0.000    0.000    0.000    0.000 
#    0.000    0.000    0.000    0.000    0.000    0.000 
#
# Total GULP energy -595369.228681 kJ/mol
# GULP energy per Si atom -12403.525598 kJ/mol
# Density = 1.864857 g / cm^3
# Si number density = 18.691107 Si / 1000 Ang^3
#
#
#
# Elastic Constant Matrix: (Units=GPa)
#
#
# Indices 1 2 3 4 5 6 
#
# 1 62.7006 49.3253 49.5203 0.0000 0.0000 0.0000
# 2 49.3253 101.4477 70.4589 0.0000 0.0000 0.0000
# 3 49.5203 70.4589 122.1632 0.0000 0.0000 0.0000
# 4 0.0000 0.0000 0.0000 3.7458 0.0000 0.0000
# 5 0.0000 0.0000 0.0000 0.0000 39.9323 0.0000
# 6 0.0000 0.0000 0.0000 0.0000 0.0000 30.1746
#
#
#
# Elastic Compliance Matrix: (Units=1/GPa)
#
#
# Indices 1 2 3 4 5 6 
#
# 1 0.028140 -0.009609 -0.005865 0.000000 0.000000 0.000000
# 2 -0.009609 0.019726 -0.007482 0.000000 0.000000 0.000000
# 3 -0.005865 -0.007482 0.014879 0.000000 0.000000 0.000000
# 4 0.000000 0.000000 0.000000 0.266968 0.000000 0.000000
# 5 0.000000 0.000000 0.000000 0.000000 0.025042 0.000000
# 6 0.000000 0.000000 0.000000 0.000000 0.000000 0.033140
#
#
# Mechanical properties :
#
#
# Convention : Reuss Voigt Hill
#
# Bulk Modulus (GPa) = 59.40754 69.43561 64.42158
# Shear Modulus (GPa) = 11.37873 22.57101 16.97487
#
# Velocity S-wave (km/s) = 2.47002 3.47880 3.01687
# Velocity P-wave (km/s) = 6.32357 7.30518 6.83203
#
# Compressibility (1/GPa) = 0.01683288
#
# Stress axis : x y z
#
# Youngs Moduli (GPa) = 35.53691 50.69540 67.21088
#
# Poissons Ratio (x) = 0.48711 0.39419
# Poissons Ratio (y) = 0.34146 0.50288
# Poissons Ratio (z) = 0.20842 0.37931
#
# Static dielectric constant tensor:
#      x y z
#    x 3.680710 0.000000 0.000000 
#    y 0.000000 3.428420 0.000000 
#    z 0.000000 0.000000 3.522630 
# 
# 
# High freq. dielectric constant tensor:
#      x y z
#    x 1.723030 0.000000 0.000000 
#    y 0.000000 1.722430 0.000000 
#    z 0.000000 0.000000 1.738230 
# 
# From -- ./inp_files/36869.got.cif
#   From: 2010.03.12/outbox.cif.g09.slc.cpg/sg51_19_cif.got.tgz:36869.got - 2010.04.16 13:43:02.
