data_PCOD8213639
_publ_section_title
;
Structure prediction by ZEFSAII (Michael W. Deem and Ramdas Pophale) SiO2 
 PCOD8213639
Probable space group: P M M A
;
_chemical_formula_sum "Si O2"
_cell_formula_units_Z 64
_cell_length_a 16.321548
_cell_length_b 8.967635
_cell_length_c 22.067859
_cell_angle_alpha 90.000000
_cell_angle_beta 90.000000
_cell_angle_gamma 90.000000
_cell_volume 3229.977301
_symmetry_space_group_name_H-M "P M M A"
_symmetry_group_IT_number 51
_symmetry_cell_setting 'orthorhombic'
loop_
_space_group_symop_operation_xyz
x,y,z
1/2-x,-y,z
1/2+x,-y,-z
-x,y,-z
-x,-y,-z
1/2+x,y,-z
1/2-x,y,z
x,-y,z
loop_
_atom_site_type_symbol
_atom_site_label
_atom_site_fract_x
_atom_site_fract_y
_atom_site_fract_z
Si Si1 0.341897 0.164906 0.512851
Si Si2 0.657140 0.175664 0.131099
Si Si3 0.345519 0.831053 0.270659
Si Si4 0.156450 0.323391 0.145959
Si Si5 0.498867 0.324650 0.930131
Si Si6 0.590810 0.673544 0.380343
Si Si7 0.423732 0.823912 0.393013
Si Si8 0.344577 0.164938 0.730482
O O1 0.250000 0.141783 0.492752
O O2 0.342405 0.276298 0.570343
O O3 0.383540 0.240507 0.454129
O O4 0.379566 0.000000 0.528461
O O5 0.750000 0.227928 0.111821
O O6 0.584802 0.254712 0.094951
O O7 0.642248 0.217070 0.200952
O O8 0.650496 0.000000 0.120809
O O9 0.250000 0.827300 0.282963
O O10 0.369248 0.735358 0.211930
O O11 0.387067 0.758404 0.330211
O O12 0.376244 0.000000 0.259225
O O13 0.250000 0.267730 0.128232
O O14 0.157174 0.500000 0.147701
O O15 0.084714 0.266534 0.100058
O O16 0.492036 0.500000 0.920270
O O17 0.500000 0.279197 0.000000
O O18 0.571119 0.500000 0.384886
O O19 0.516009 0.775649 0.399007
O O20 0.615776 0.710515 0.311800
O O21 0.411404 0.000000 0.391613
O O22 0.250000 0.154026 0.714357
O O23 0.383900 0.000000 0.719800
#
# Coordination Sequence:
#
# PCOD8213639 Si02
#       8
#     8   8   8   8   8   8   8   8
#     4  10  21  39  61  79 100 138 186 232 278 331
#     4   9  20  39  62  88 118 152 194 247 301 348
#     4   9  18  34  57  84 109 136 179 232 281 330
#     4   9  19  36  56  80 116 157 194 235 285 342
#     4  10  22  38  58  87 121 159 201 239 281 342
#     4  12  25  36  51  80 115 146 180 226 278 333
#     4  10  21  37  57  80 107 141 181 227 278 333
#     4   9  19  38  61  82 107 144 188 231 282 342
#
# _framework density 19.81438
#
# number of rings (size 3 to 8) (size 9 to 14) (size 15 to 20)
#    0.000    2.250    0.000    3.000    1.750    8.000 
#    0.000    2.500    0.000    3.750    0.000    0.000 
#    0.000    0.000    0.000    0.000    0.000    0.000 
#
# Total GULP energy -793208.415983 kJ/mol
# GULP energy per Si atom -12393.881500 kJ/mol
# Density = 1.976928 g / cm^3
# Si number density = 19.814380 Si / 1000 Ang^3
#
#
#
# Elastic Constant Matrix: (Units=GPa)
#
#
# Indices 1 2 3 4 5 6 
#
# 1 110.2087 24.7583 65.3334 0.0000 0.0000 0.0000
# 2 24.7583 19.2157 40.1040 0.0000 0.0000 0.0000
# 3 65.3334 40.1040 121.0494 0.0000 0.0000 0.0000
# 4 0.0000 0.0000 0.0000 23.7929 0.0000 0.0000
# 5 0.0000 0.0000 0.0000 0.0000 31.2057 0.0000
# 6 0.0000 0.0000 0.0000 0.0000 0.0000 18.3349
#
#
#
# Elastic Compliance Matrix: (Units=1/GPa)
#
#
# Indices 1 2 3 4 5 6 
#
# 1 0.013640 -0.007162 -0.004989 0.000000 0.000000 0.000000
# 2 -0.007162 0.172421 -0.053258 0.000000 0.000000 0.000000
# 3 -0.004989 -0.053258 0.028598 0.000000 0.000000 0.000000
# 4 0.000000 0.000000 0.000000 0.042029 0.000000 0.000000
# 5 0.000000 0.000000 0.000000 0.000000 0.032045 0.000000
# 6 0.000000 0.000000 0.000000 0.000000 0.000000 0.054541
#
#
# Mechanical properties :
#
#
# Convention : Reuss Voigt Hill
#
# Bulk Modulus (GPa) = 11.92734 56.76282 34.34508
# Shear Modulus (GPa) = 9.95936 22.68524 16.32230
#
# Velocity S-wave (km/s) = 2.24438 3.38729 2.87324
# Velocity P-wave (km/s) = 3.57056 6.63384 5.32713
#
# Compressibility (1/GPa) = 0.08384102
#
# Stress axis : x y z
#
# Youngs Moduli (GPa) = 73.31201 5.79977 34.96699
#
# Poissons Ratio (x) = 0.04154 0.17446
# Poissons Ratio (y) = 0.52506 1.86227
# Poissons Ratio (z) = 0.36577 0.30888
#
# Static dielectric constant tensor:
#      x y z
#    x 3.735150 0.000000 0.000000 
#    y 0.000000 3.354000 0.000000 
#    z 0.000000 0.000000 3.734270 
# 
# 
# High freq. dielectric constant tensor:
#      x y z
#    x 1.781450 0.000000 0.000000 
#    y 0.000000 1.747070 0.000000 
#    z 0.000000 0.000000 1.777220 
# 
# From -- ./inp_files/35805.got.cif
#   From: 2010.03.12/outbox.cif.g09.slc.cpg/sg51_18_cif.got.tgz:35805.got - 2010.04.16 13:43:02.
