data_PCOD8214350
_publ_section_title
;
Structure prediction by ZEFSAII (Michael W. Deem and Ramdas Pophale) SiO2 
 PCOD8214350
Probable space group: P M M A
;
_chemical_formula_sum "Si O2"
_cell_formula_units_Z 48
_cell_length_a 15.596774
_cell_length_b 8.904680
_cell_length_c 16.746994
_cell_angle_alpha 90.000000
_cell_angle_beta 90.000000
_cell_angle_gamma 90.000000
_cell_volume 2325.894229
_symmetry_space_group_name_H-M "P M M A"
_symmetry_group_IT_number 51
_symmetry_cell_setting 'orthorhombic'
loop_
_space_group_symop_operation_xyz
x,y,z
1/2-x,-y,z
1/2+x,-y,-z
-x,y,-z
-x,-y,-z
1/2+x,y,-z
1/2-x,y,z
x,-y,z
loop_
_atom_site_type_symbol
_atom_site_label
_atom_site_fract_x
_atom_site_fract_y
_atom_site_fract_z
Si Si1 0.847774 0.669798 0.156301
Si Si2 0.907576 0.827920 0.308116
Si Si3 0.151391 0.330202 0.161779
Si Si4 0.750000 0.823826 0.418710
Si Si5 0.400711 0.827566 0.315141
Si Si6 0.750000 0.322819 0.589087
Si Si7 0.399895 0.826039 0.002457
O O1 0.750000 0.677733 0.185010
O O2 0.875441 0.500000 0.135064
O O3 0.905398 0.728159 0.228744
O O4 0.858555 0.773840 0.079749
O O5 0.835307 0.776812 0.370657
O O6 0.001853 0.809086 0.347502
O O7 0.891241 0.000000 0.282663
O O8 0.250000 0.327038 0.188188
O O9 0.115815 0.500000 0.163910
O O10 0.099205 0.228394 0.223726
O O11 0.142551 0.266888 0.073257
O O12 0.750000 0.729010 0.498543
O O13 0.750000 0.000000 0.439400
O O14 0.336467 0.733551 0.369237
O O15 0.371347 0.000000 0.317484
O O16 0.750000 0.500000 0.594214
O O17 0.379049 0.000000 0.015826
O O18 0.500000 0.793117 0.000000
#
# Coordination Sequence:
#
# PCOD8214350 Si02
#       7
#     8   8   8   4   8   4   8
#     4  11  23  38  59  89 125 165 209 258 315 374
#     4  10  22  41  68  97 126 165 212 258 311 373
#     4  11  23  39  60  88 123 162 208 259 315 375
#     4  10  22  44  70  95 128 165 204 256 312 373
#     4  11  23  41  67  97 127 165 212 259 310 374
#     4  12  26  44  66  95 130 167 206 254 314 377
#     4  11  24  39  56  83 119 162 215 265 311 368
#
# _framework density 20.637222999999999
#
# number of rings (size 3 to 8) (size 9 to 14) (size 15 to 20)
#    0.000    1.167    1.667    4.250    0.000   12.000 
#    0.000    3.333    0.000    0.000    0.000    0.000 
#    0.000    0.000    0.000    0.000    0.000    0.000 
#
# Total GULP energy -595484.776832 kJ/mol
# GULP energy per Si atom -12405.932851 kJ/mol
# Density = 2.059025 g / cm^3
# Si number density = 20.637223 Si / 1000 Ang^3
#
#
#
# Elastic Constant Matrix: (Units=GPa)
#
#
# Indices 1 2 3 4 5 6 
#
# 1 114.9087 50.1749 49.1183 0.0000 0.0000 0.0000
# 2 50.1749 118.4575 50.0447 0.0000 0.0000 0.0000
# 3 49.1183 50.0447 118.9374 0.0000 0.0000 0.0000
# 4 0.0000 0.0000 0.0000 -1.1972 0.0000 0.0000
# 5 0.0000 0.0000 0.0000 0.0000 17.3164 0.0000
# 6 0.0000 0.0000 0.0000 0.0000 0.0000 20.9907
#
#
#
# Elastic Compliance Matrix: (Units=1/GPa)
#
#
# Indices 1 2 3 4 5 6 
#
# 1 0.011671 -0.003536 -0.003332 0.000000 0.000000 0.000000
# 2 -0.003536 0.011338 -0.003310 0.000000 0.000000 0.000000
# 3 -0.003332 -0.003310 0.011177 0.000000 0.000000 0.000000
# 4 0.000000 0.000000 0.000000 -0.835291 0.000000 0.000000
# 5 0.000000 0.000000 0.000000 0.000000 0.057749 0.000000
# 6 0.000000 0.000000 0.000000 0.000000 0.000000 0.047640
#
#
# Mechanical properties :
#
#
# Convention : Reuss Voigt Hill
#
# Bulk Modulus (GPa) = 72.31124 72.33104 72.32114
# Shear Modulus (GPa) = -7.45434 20.95303 6.74934
#
# Velocity S-wave (km/s) = -1.90261 3.18984 1.81041
# Velocity P-wave (km/s) = 5.50352 6.97794 6.28412
#
# Compressibility (1/GPa) = 0.01382911
#
# Stress axis : x y z
#
# Youngs Moduli (GPa) = 85.68461 88.19872 89.47125
#
# Poissons Ratio (x) = 0.31184 0.29812
# Poissons Ratio (y) = 0.30295 0.29619
# Poissons Ratio (z) = 0.28550 0.29198
#
# Static dielectric constant tensor:
#      x y z
#    x 3.862290 0.000000 0.000000 
#    y 0.000000 3.821430 0.000000 
#    z 0.000000 0.000000 3.587910 
# 
# 
# High freq. dielectric constant tensor:
#      x y z
#    x 1.821880 0.000000 0.000000 
#    y 0.000000 1.815250 0.000000 
#    z 0.000000 0.000000 1.800580 
# 
# From -- ./inp_files/29521.got.cif
#   From: 2010.03.12/outbox.cif.g09.slc.cpg/sg51_15_cif.got.tgz:29521.got - 2010.04.16 13:43:02.
