data_PCOD8214025
_publ_section_title
;
Structure prediction by ZEFSAII (Michael W. Deem and Ramdas Pophale) SiO2 
 PCOD8214025
Probable space group: P M M A
;
_chemical_formula_sum "Si O2"
_cell_formula_units_Z 48
_cell_length_a 8.801148
_cell_length_b 16.747797
_cell_length_c 15.913588
_cell_angle_alpha 90.000000
_cell_angle_beta 90.000000
_cell_angle_gamma 90.000000
_cell_volume 2345.660326
_symmetry_space_group_name_H-M "P M M A"
_symmetry_group_IT_number 51
_symmetry_cell_setting 'orthorhombic'
loop_
_space_group_symop_operation_xyz
x,y,z
1/2-x,-y,z
1/2+x,-y,-z
-x,y,-z
-x,-y,-z
1/2+x,y,-z
1/2-x,y,z
x,-y,z
loop_
_atom_site_type_symbol
_atom_site_label
_atom_site_fract_x
_atom_site_fract_y
_atom_site_fract_z
Si Si1 0.069311 0.590462 0.249964
Si Si2 0.930248 0.832009 0.336438
Si Si3 0.427211 0.000000 0.589962
Si Si4 0.928369 0.000000 0.090726
Si Si5 0.425601 0.154875 0.163580
Si Si6 0.574886 0.319727 0.913760
Si Si7 0.931175 0.315198 0.585493
O O1 0.250000 0.594305 0.248435
O O2 0.009014 0.500000 0.249613
O O3 0.003487 0.634861 0.167080
O O4 0.011905 0.632328 0.335447
O O5 0.750000 0.821821 0.328073
O O6 0.014023 0.809038 0.250420
O O7 0.996981 0.773152 0.406765
O O8 0.977983 0.922255 0.358554
O O9 0.500000 0.000000 0.500000
O O10 0.250000 0.000000 0.574934
O O11 0.976078 0.078228 0.140777
O O12 0.750000 0.000000 0.080551
O O13 0.000000 0.000000 0.000000
O O14 0.250000 0.130192 0.171267
O O15 0.447836 0.224368 0.094945
O O16 0.750000 0.342489 0.919764
O O17 0.500000 0.349480 0.000000
O O18 0.750000 0.310621 0.579871
O O19 0.000000 0.353156 0.500000
#
# Coordination Sequence:
#
# PCOD8214025 Si02
#       7
#     8   8   4   4   8   8   8
#     4   9  19  39  64  88 121 162 200 247 309 374
#     4  11  22  38  60  87 120 159 203 253 306 365
#     4  10  23  38  53  79 113 151 197 243 292 349
#     4  12  25  40  57  85 121 163 211 261 310 367
#     4  11  22  39  61  87 119 161 208 255 308 369
#     4  10  21  38  61  91 122 159 204 247 302 367
#     4  11  22  39  62  91 123 161 207 254 308 372
#
# _framework density 20.463321000000001
#
# number of rings (size 3 to 8) (size 9 to 14) (size 15 to 20)
#    0.000    1.500    1.667    3.750    0.000    6.667 
#    0.000    0.000    0.000    3.500    0.000    0.000 
#    0.000    0.000    0.000    0.000    0.000    0.000 
#
# Total GULP energy -595344.744426 kJ/mol
# GULP energy per Si atom -12403.015509 kJ/mol
# Density = 2.041675 g / cm^3
# Si number density = 20.463321 Si / 1000 Ang^3
#
#
#
# Elastic Constant Matrix: (Units=GPa)
#
#
# Indices 1 2 3 4 5 6 
#
# 1 83.1992 37.8937 44.0416 0.0000 0.0000 0.0000
# 2 37.8937 115.2438 52.2233 0.0000 0.0000 0.0000
# 3 44.0416 52.2233 164.2753 0.0000 0.0000 0.0000
# 4 0.0000 0.0000 0.0000 19.9378 0.0000 0.0000
# 5 0.0000 0.0000 0.0000 0.0000 40.4653 0.0000
# 6 0.0000 0.0000 0.0000 0.0000 0.0000 16.0094
#
#
#
# Elastic Compliance Matrix: (Units=1/GPa)
#
#
# Indices 1 2 3 4 5 6 
#
# 1 0.015243 -0.003692 -0.002913 0.000000 0.000000 0.000000
# 2 -0.003692 0.011032 -0.002517 0.000000 0.000000 0.000000
# 3 -0.002913 -0.002517 0.007668 0.000000 0.000000 0.000000
# 4 0.000000 0.000000 0.000000 0.050156 0.000000 0.000000
# 5 0.000000 0.000000 0.000000 0.000000 0.024713 0.000000
# 6 0.000000 0.000000 0.000000 0.000000 0.000000 0.062463
#
#
# Mechanical properties :
#
#
# Convention : Reuss Voigt Hill
#
# Bulk Modulus (GPa) = 63.69837 70.11505 66.90671
# Shear Modulus (GPa) = 25.67363 30.51982 28.09672
#
# Velocity S-wave (km/s) = 3.54590 3.86611 3.70946
# Velocity P-wave (km/s) = 6.92533 7.36663 7.14938
#
# Compressibility (1/GPa) = 0.01569899
#
# Stress axis : x y z
#
# Youngs Moduli (GPa) = 65.60461 90.64577 130.40367
#
# Poissons Ratio (x) = 0.33467 0.37984
# Poissons Ratio (y) = 0.24222 0.32826
# Poissons Ratio (z) = 0.19110 0.22818
#
# Static dielectric constant tensor:
#      x y z
#    x 3.524110 0.000000 0.000000 
#    y 0.000000 39.926500 0.000000 
#    z 0.000000 0.000000 3.843590 
# 
# 
# High freq. dielectric constant tensor:
#      x y z
#    x 1.784270 0.000000 0.000000 
#    y 0.000000 1.799800 0.000000 
#    z 0.000000 0.000000 1.814810 
# 
# From -- ./inp_files/21201.got.cif
#   From: 2010.03.12/outbox.cif.g09.slc.cpg/sg51_11_cif.got.tgz:21201.got - 2010.04.16 13:43:02.
