data_PCOD8214545
_publ_section_title
;
Structure prediction by ZEFSAII (Michael W. Deem and Ramdas Pophale) SiO2 
 PCOD8214545
Probable space group: P M M A
;
_chemical_formula_sum "Si O2"
_cell_formula_units_Z 64
_cell_length_a 18.602511
_cell_length_b 8.691272
_cell_length_c 21.256877
_cell_angle_alpha 90.000000
_cell_angle_beta 90.000000
_cell_angle_gamma 90.000000
_cell_volume 3436.800883
_symmetry_space_group_name_H-M "P M M A"
_symmetry_group_IT_number 51
_symmetry_cell_setting 'orthorhombic'
loop_
_space_group_symop_operation_xyz
x,y,z
1/2-x,-y,z
1/2+x,-y,-z
-x,y,-z
-x,-y,-z
1/2+x,y,-z
1/2-x,y,z
x,-y,z
loop_
_atom_site_type_symbol
_atom_site_label
_atom_site_fract_x
_atom_site_fract_y
_atom_site_fract_z
Si Si1 0.471025 0.318585 0.435301
Si Si2 0.468196 0.682889 0.694812
Si Si3 0.106350 0.179961 0.250162
Si Si4 0.828489 0.682899 0.238395
Si Si5 0.333214 0.325205 0.903776
Si Si6 0.170086 0.321717 0.370451
Si Si7 0.081758 0.178528 0.011422
Si Si8 0.667276 0.320823 0.875162
O O1 0.500000 0.241765 0.500000
O O2 0.481281 0.500000 0.439759
O O3 0.516358 0.255503 0.375740
O O4 0.387142 0.274937 0.424543
O O5 0.469308 0.500000 0.696570
O O6 0.528929 0.739873 0.742896
O O7 0.390593 0.748280 0.716039
O O8 0.158656 0.225481 0.307289
O O9 0.143471 0.226875 0.185623
O O10 0.093620 0.000000 0.250740
O O11 0.750000 0.746957 0.259644
O O12 0.826444 0.500000 0.240799
O O13 0.845216 0.733477 0.167239
O O14 0.250000 0.318368 0.922403
O O15 0.361576 0.500000 0.912489
O O16 0.376372 0.208384 0.947040
O O17 0.250000 0.290131 0.396928
O O18 0.158848 0.500000 0.352326
O O19 0.116656 0.278074 0.066712
O O20 0.086900 0.000000 0.029798
O O21 0.000000 0.230287 0.000000
O O22 0.750000 0.280196 0.891553
O O23 0.658340 0.500000 0.860372
#
# Coordination Sequence:
#
# PCOD8214545 Si02
#       8
#     8   8   8   8   8   8   8   8
#     4   8  14  26  45  71 104 139 174 214 257 300
#     4   9  17  31  52  76 104 142 181 214 256 310
#     4  11  22  34  52  79 109 137 168 214 269 318
#     4   8  15  29  51  78 102 126 166 218 261 301
#     4   9  18  34  55  76  97 127 170 215 259 309
#     4   9  17  31  51  74 102 138 181 221 258 310
#     4  11  25  40  53  76 108 137 169 211 257 304
#     4  11  24  41  60  80 103 135 175 214 257 313
#
# _framework density 18.621969
#
# number of rings (size 3 to 8) (size 9 to 14) (size 15 to 20)
#    0.000    2.500    0.000    4.125    1.750    5.500 
#    0.000    0.625    0.000   10.875    0.000    0.000 
#    0.000    0.000    0.000    0.000    0.000    0.000 
#
# Total GULP energy -793470.693476 kJ/mol
# GULP energy per Si atom -12397.979586 kJ/mol
# Density = 1.857958 g / cm^3
# Si number density = 18.621969 Si / 1000 Ang^3
#
#
#
# Elastic Constant Matrix: (Units=GPa)
#
#
# Indices 1 2 3 4 5 6 
#
# 1 140.2471 21.4959 75.7728 0.0000 0.0000 0.0000
# 2 21.4959 32.3750 16.0173 0.0000 0.0000 0.0000
# 3 75.7728 16.0173 104.1756 0.0000 0.0000 0.0000
# 4 0.0000 0.0000 0.0000 1.4293 0.0000 0.0000
# 5 0.0000 0.0000 0.0000 0.0000 27.5494 0.0000
# 6 0.0000 0.0000 0.0000 0.0000 0.0000 12.6543
#
#
#
# Elastic Compliance Matrix: (Units=1/GPa)
#
#
# Indices 1 2 3 4 5 6 
#
# 1 0.012211 -0.004019 -0.008264 0.000000 0.000000 0.000000
# 2 -0.004019 0.034754 -0.002420 0.000000 0.000000 0.000000
# 3 -0.008264 -0.002420 0.015982 0.000000 0.000000 0.000000
# 4 0.000000 0.000000 0.000000 0.699637 0.000000 0.000000
# 5 0.000000 0.000000 0.000000 0.000000 0.036298 0.000000
# 6 0.000000 0.000000 0.000000 0.000000 0.000000 0.079025
#
#
# Mechanical properties :
#
#
# Convention : Reuss Voigt Hill
#
# Bulk Modulus (GPa) = 29.81454 55.92999 42.87226
# Shear Modulus (GPa) = 5.44369 19.22737 12.33553
#
# Velocity S-wave (km/s) = 1.71161 3.21676 2.57654
# Velocity P-wave (km/s) = 4.46669 6.62543 5.65012
#
# Compressibility (1/GPa) = 0.03354068
#
# Stress axis : x y z
#
# Youngs Moduli (GPa) = 81.89258 28.77370 62.57015
#
# Poissons Ratio (x) = 0.11565 0.51707
# Poissons Ratio (y) = 0.32915 0.15143
# Poissons Ratio (z) = 0.67675 0.06964
#
# Static dielectric constant tensor:
#      x y z
#    x 3.771660 0.000000 0.000000 
#    y 0.000000 3.101450 0.000000 
#    z 0.000000 0.000000 3.538990 
# 
# 
# High freq. dielectric constant tensor:
#      x y z
#    x 1.734010 0.000000 0.000000 
#    y 0.000000 1.692730 0.000000 
#    z 0.000000 0.000000 1.713660 
# 
# From -- ./inp_files/33750.got.cif
#   From: 2010.03.12/outbox.cif.g09.slc.cpg/sg51_17_cif.got.tgz:33750.got - 2010.04.16 13:43:02.
