data_PCOD8214730
_publ_section_title
;
Structure prediction by ZEFSAII (Michael W. Deem and Ramdas Pophale) SiO2 
 PCOD8214730
Probable space group: P M M A
;
_chemical_formula_sum "Si O2"
_cell_formula_units_Z 48
_cell_length_a 9.712628
_cell_length_b 9.623715
_cell_length_c 31.091021
_cell_angle_alpha 90.000000
_cell_angle_beta 90.000000
_cell_angle_gamma 90.000000
_cell_volume 2906.126352
_symmetry_space_group_name_H-M "P M M A"
_symmetry_group_IT_number 51
_symmetry_cell_setting 'orthorhombic'
loop_
_space_group_symop_operation_xyz
x,y,z
1/2-x,-y,z
1/2+x,-y,-z
-x,y,-z
-x,-y,-z
1/2+x,y,-z
1/2-x,y,z
x,-y,z
loop_
_atom_site_type_symbol
_atom_site_label
_atom_site_fract_x
_atom_site_fract_y
_atom_site_fract_z
Si Si1 0.414445 0.157041 0.290819
Si Si2 0.909502 0.161810 0.959735
Si Si3 0.413800 0.656297 0.213650
Si Si4 0.586581 0.344665 0.881553
Si Si5 0.597054 0.334709 0.537041
Si Si6 0.585946 0.655205 0.631863
O O1 0.250000 0.157295 0.290740
O O2 0.472689 0.235615 0.248585
O O3 0.471306 0.237176 0.332844
O O4 0.471620 0.000000 0.291036
O O5 0.750000 0.198369 0.968943
O O6 0.968880 0.240345 0.917852
O O7 0.929515 0.000000 0.950653
O O8 0.000000 0.211468 0.000000
O O9 0.250000 0.658676 0.214853
O O10 0.464662 0.500000 0.224611
O O11 0.466320 0.700199 0.165962
O O12 0.750000 0.341009 0.881329
O O13 0.534371 0.500000 0.892252
O O14 0.500000 0.270725 0.500000
O O15 0.750000 0.272868 0.530380
O O16 0.603015 0.500000 0.533603
O O17 0.538577 0.294532 0.584327
O O18 0.750000 0.650253 0.632767
O O19 0.529316 0.500000 0.641978
#
# Coordination Sequence:
#
# PCOD8214730 Si02
#       6
#     8   8   8   8   8   8
#     4   9  15  20  28  45  68  93 121 151 181 216
#     4   9  17  28  41  57  78 104 132 161 192 225
#     4   8  13  21  32  46  67  95 123 149 180 221
#     4   8  14  24  37  53  73  98 127 157 190 228
#     4   8  13  21  34  52  72  94 122 155 187 219
#     4   8  13  21  32  45  64  92 121 147 180 221
#
# _framework density 16.516832999999998
#
# number of rings (size 3 to 8) (size 9 to 14) (size 15 to 20)
#    0.000    3.667    0.000    2.500    0.000    3.000 
#    0.000    3.333    0.000    0.500    0.000    0.000 
#    0.000    1.333    0.000    5.667    0.000    7.500 
#
# Total GULP energy -594774.334481 kJ/mol
# GULP energy per Si atom -12391.131968 kJ/mol
# Density = 1.647924 g / cm^3
# Si number density = 16.516833 Si / 1000 Ang^3
#
#
#
# Elastic Constant Matrix: (Units=GPa)
#
#
# Indices 1 2 3 4 5 6 
#
# 1 18.7140 16.0484 29.4658 0.0000 0.0000 0.0000
# 2 16.0484 93.6960 88.5049 0.0000 0.0000 0.0000
# 3 29.4658 88.5049 181.4359 0.0000 0.0000 0.0000
# 4 0.0000 0.0000 0.0000 15.0947 0.0000 0.0000
# 5 0.0000 0.0000 0.0000 0.0000 16.6162 0.0000
# 6 0.0000 0.0000 0.0000 0.0000 0.0000 5.5983
#
#
#
# Elastic Compliance Matrix: (Units=1/GPa)
#
#
# Indices 1 2 3 4 5 6 
#
# 1 0.072082 -0.002390 -0.010541 0.000000 0.000000 0.000000
# 2 -0.002390 0.019872 -0.009306 0.000000 0.000000 0.000000
# 3 -0.010541 -0.009306 0.011763 0.000000 0.000000 0.000000
# 4 0.000000 0.000000 0.000000 0.066249 0.000000 0.000000
# 5 0.000000 0.000000 0.000000 0.000000 0.060182 0.000000
# 6 0.000000 0.000000 0.000000 0.000000 0.000000 0.178627
#
#
# Mechanical properties :
#
#
# Convention : Reuss Voigt Hill
#
# Bulk Modulus (GPa) = 16.87907 62.43154 39.65531
# Shear Modulus (GPa) = 10.57095 18.11694 14.34394
#
# Velocity S-wave (km/s) = 2.53259 3.31551 2.95013
# Velocity P-wave (km/s) = 4.33515 7.24828 5.97206
#
# Compressibility (1/GPa) = 0.05924497
#
# Stress axis : x y z
#
# Youngs Moduli (GPa) = 13.87313 50.32165 85.01422
#
# Poissons Ratio (x) = 0.12025 0.89611
# Poissons Ratio (y) = 0.03315 0.79111
# Poissons Ratio (z) = 0.14623 0.46827
#
# Static dielectric constant tensor:
#      x y z
#    x 2.524730 0.000000 0.000000 
#    y 0.000000 3.110720 0.000000 
#    z 0.000000 0.000000 3.588650 
# 
# 
# High freq. dielectric constant tensor:
#      x y z
#    x 1.553300 0.000000 0.000000 
#    y 0.000000 1.618390 0.000000 
#    z 0.000000 0.000000 1.655140 
# 
# From -- ./inp_files/37687.got.cif
#   From: 2010.03.12/outbox.cif.g09.slc.cpg/sg51_19_cif.got.tgz:37687.got - 2010.04.16 13:43:02.
