data_PCOD8214039
_publ_section_title
;
Structure prediction by ZEFSAII (Michael W. Deem and Ramdas Pophale) SiO2 
 PCOD8214039
Probable space group: P M M A
;
_chemical_formula_sum "Si O2"
_cell_formula_units_Z 48
_cell_length_a 9.519106
_cell_length_b 14.212074
_cell_length_c 18.034831
_cell_angle_alpha 90.000000
_cell_angle_beta 90.000000
_cell_angle_gamma 90.000000
_cell_volume 2439.864455
_symmetry_space_group_name_H-M "P M M A"
_symmetry_group_IT_number 51
_symmetry_cell_setting 'orthorhombic'
loop_
_space_group_symop_operation_xyz
x,y,z
1/2-x,-y,z
1/2+x,-y,-z
-x,y,-z
-x,-y,-z
1/2+x,y,-z
1/2-x,y,z
x,-y,z
loop_
_atom_site_type_symbol
_atom_site_label
_atom_site_fract_x
_atom_site_fract_y
_atom_site_fract_z
Si Si1 0.409394 0.105361 0.065635
Si Si2 0.408435 0.263196 0.178283
Si Si3 0.980484 0.782730 0.655242
Si Si4 0.411878 0.603822 0.426130
Si Si5 0.914077 0.610641 0.073903
Si Si6 0.250000 0.888247 0.611770
Si Si7 0.750000 0.111377 0.562942
O O1 0.250000 0.106436 0.038338
O O2 0.433322 0.164555 0.138659
O O3 0.461645 0.000000 0.083424
O O4 0.500000 0.151171 0.000000
O O5 0.250000 0.302132 0.165613
O O6 0.425585 0.233436 0.262717
O O7 0.518551 0.339304 0.146275
O O8 0.123522 0.839453 0.654771
O O9 0.993011 0.676789 0.625408
O O10 0.884160 0.844653 0.601706
O O11 0.500000 0.600035 0.500000
O O12 0.250000 0.635810 0.440335
O O13 0.413362 0.500000 0.388862
O O14 0.750000 0.639554 0.064939
O O15 0.928313 0.500000 0.087689
O O16 0.000000 0.640660 0.000000
O O17 0.250000 0.864207 0.524373
O O18 0.250000 0.000000 0.624850
O O19 0.750000 0.000000 0.575271
#
# Coordination Sequence:
#
# PCOD8214039 Si02
#       7
#     8   8   8   8   8   4   4
#     4   9  19  36  57  82 113 152 197 239 285 347
#     4  11  23  39  60  92 126 166 207 255 317 375
#     4  12  24  41  62  95 128 167 211 268 332 386
#     4  10  21  38  62  91 121 158 204 254 311 377
#     4  10  22  41  67  97 130 171 216 262 312 371
#     4  11  26  44  65  93 124 165 219 277 333 394
#     4  11  22  42  69  91 120 165 221 273 331 398
#
# _framework density 19.673224999999999
#
# number of rings (size 3 to 8) (size 9 to 14) (size 15 to 20)
#    0.000    1.500    1.667    3.000    2.333    6.333 
#    0.000    0.000    0.000    0.000    0.000    0.000 
#    0.000    0.000    0.000    0.000    0.000    0.000 
#
# Total GULP energy -595068.393113 kJ/mol
# GULP energy per Si atom -12397.258190 kJ/mol
# Density = 1.962845 g / cm^3
# Si number density = 19.673225 Si / 1000 Ang^3
#
#
#
# Elastic Constant Matrix: (Units=GPa)
#
#
# Indices 1 2 3 4 5 6 
#
# 1 97.8645 47.0948 10.8327 0.0000 0.0000 0.0000
# 2 47.0948 103.2588 43.3671 0.0000 0.0000 0.0000
# 3 10.8327 43.3671 78.1923 0.0000 0.0000 0.0000
# 4 0.0000 0.0000 0.0000 28.7908 0.0000 0.0000
# 5 0.0000 0.0000 0.0000 0.0000 34.4445 0.0000
# 6 0.0000 0.0000 0.0000 0.0000 0.0000 36.2980
#
#
#
# Elastic Compliance Matrix: (Units=1/GPa)
#
#
# Indices 1 2 3 4 5 6 
#
# 1 0.013324 -0.006912 0.001987 0.000000 0.000000 0.000000
# 2 -0.006912 0.016211 -0.008033 0.000000 0.000000 0.000000
# 3 0.001987 -0.008033 0.016969 0.000000 0.000000 0.000000
# 4 0.000000 0.000000 0.000000 0.034733 0.000000 0.000000
# 5 0.000000 0.000000 0.000000 0.000000 0.029032 0.000000
# 6 0.000000 0.000000 0.000000 0.000000 0.000000 0.027550
#
#
# Mechanical properties :
#
#
# Convention : Reuss Voigt Hill
#
# Bulk Modulus (GPa) = 48.56964 53.54497 51.05730
# Shear Modulus (GPa) = 29.30882 31.77472 30.54177
#
# Velocity S-wave (km/s) = 3.86396 4.02322 3.94439
# Velocity P-wave (km/s) = 6.68197 6.98985 6.83764
#
# Compressibility (1/GPa) = 0.02058899
#
# Stress axis : x y z
#
# Youngs Moduli (GPa) = 75.05076 61.68818 58.93091
#
# Poissons Ratio (x) = 0.42637 -0.11712
# Poissons Ratio (y) = 0.51873 0.47340
# Poissons Ratio (z) = -0.14916 0.49555
#
# Static dielectric constant tensor:
#      x y z
#    x 4.258860 0.000000 0.000000 
#    y 0.000000 4.024880 0.000000 
#    z 0.000000 0.000000 3.282130 
# 
# 
# High freq. dielectric constant tensor:
#      x y z
#    x 1.775700 0.000000 0.000000 
#    y 0.000000 1.784460 0.000000 
#    z 0.000000 0.000000 1.755960 
# 
# From -- ./inp_files/27625.got.cif
#   From: 2010.03.12/outbox.cif.g09.slc.cpg/sg51_14_cif.got.tgz:27625.got - 2010.04.16 13:43:02.
