data_PCOD8214931
_publ_section_title
;
Structure prediction by ZEFSAII (Michael W. Deem and Ramdas Pophale) SiO2 
 PCOD8214931
Probable space group: P N N A
;
_chemical_formula_sum "Si O2"
_cell_formula_units_Z 40
_cell_length_a 5.106631
_cell_length_b 13.363812
_cell_length_c 34.722729
_cell_angle_alpha 90.000000
_cell_angle_beta 90.000000
_cell_angle_gamma 90.000000
_cell_volume 2369.619884
_symmetry_space_group_name_H-M "P N N A"
_symmetry_group_IT_number 52
_symmetry_cell_setting 'orthorhombic'
loop_
_space_group_symop_operation_xyz
x,y,z
1/2-x,-y,z
x,1/2-y,1/2-z
1/2-x,1/2+y,1/2-z
-x,-y,-z
1/2+x,y,-z
-x,1/2+y,1/2+z
1/2+x,1/2-y,1/2+z
loop_
_atom_site_type_symbol
_atom_site_label
_atom_site_fract_x
_atom_site_fract_y
_atom_site_fract_z
Si Si1 0.250000 0.500000 0.279515
Si Si2 0.027359 0.611339 0.517116
Si Si3 0.354781 0.689149 0.325634
Si Si4 0.750000 0.500000 0.228291
Si Si5 0.505581 0.933470 0.103473
Si Si6 0.372977 0.784594 0.706848
O O1 0.211157 0.594487 0.306689
O O2 0.501358 0.521838 0.254293
O O3 0.761746 0.668483 0.505212
O O4 0.084755 0.612510 0.562455
O O5 0.000000 0.500000 0.500000
O O6 0.439957 0.659987 0.368814
O O7 0.616995 0.721920 0.303998
O O8 0.121262 0.770834 0.322163
O O9 0.695741 0.401868 0.202827
O O10 0.250000 0.000000 0.097997
O O11 0.750000 0.000000 0.119417
O O12 0.457766 0.750000 0.750000
#
# Coordination Sequence:
#
# PCOD8214931 Si02
#       6
#     4   8   8   4   8   8
#     4  12  20  34  54  78  94 133 168 217 272 312
#     4  10  16  29  46  69  98 138 187 192 224 300
#     4  12  24  35  51  78 109 132 173 225 266 308
#     4  12  24  36  60  70  92 131 178 223 272 316
#     4  12  21  31  49  74 106 144 176 205 251 303
#     4  12  23  40  54  75  97 133 177 229 271 318
#
# _framework density 16.880344999999998
#
# number of rings (size 3 to 8) (size 9 to 14) (size 15 to 20)
#    0.000    0.400    9.000    3.000    1.400    0.000 
#    0.000    0.000    0.000    0.000    0.000    0.000 
#    0.000    0.000    0.000   18.000    0.000    0.000 
#
# Total GULP energy -495830.700362 kJ/mol
# GULP energy per Si atom -12395.767509 kJ/mol
# Density = 1.684192 g / cm^3
# Si number density = 16.880345 Si / 1000 Ang^3
#
#
#
# Elastic Constant Matrix: (Units=GPa)
#
#
# Indices 1 2 3 4 5 6 
#
# 1 133.6716 20.2555 33.8288 0.0000 0.0000 0.0000
# 2 20.2555 62.0337 41.1627 0.0000 0.0000 0.0000
# 3 33.8288 41.1627 94.2735 0.0000 0.0000 0.0000
# 4 0.0000 0.0000 0.0000 10.5269 0.0000 0.0000
# 5 0.0000 0.0000 0.0000 0.0000 20.7263 0.0000
# 6 0.0000 0.0000 0.0000 0.0000 0.0000 26.2444
#
#
#
# Elastic Compliance Matrix: (Units=1/GPa)
#
#
# Indices 1 2 3 4 5 6 
#
# 1 0.008275 -0.001030 -0.002520 0.000000 0.000000 0.000000
# 2 -0.001030 0.022824 -0.009596 0.000000 0.000000 0.000000
# 3 -0.002520 -0.009596 0.015701 0.000000 0.000000 0.000000
# 4 0.000000 0.000000 0.000000 0.094995 0.000000 0.000000
# 5 0.000000 0.000000 0.000000 0.000000 0.048248 0.000000
# 6 0.000000 0.000000 0.000000 0.000000 0.000000 0.038103
#
#
# Mechanical properties :
#
#
# Convention : Reuss Voigt Hill
#
# Bulk Modulus (GPa) = 48.75909 53.38588 51.07248
# Shear Modulus (GPa) = 19.13698 24.48163 21.80930
#
# Velocity S-wave (km/s) = 3.37068 3.81242 3.59833
# Velocity P-wave (km/s) = 6.64051 7.14661 6.89821
#
# Compressibility (1/GPa) = 0.02050900
#
# Stress axis : x y z
#
# Youngs Moduli (GPa) = 120.84984 43.81325 63.68825
#
# Poissons Ratio (x) = 0.04513 0.16046
# Poissons Ratio (y) = 0.12448 0.61116
# Poissons Ratio (z) = 0.30448 0.42044
#
# Static dielectric constant tensor:
#      x y z
#    x 2.422130 0.000000 0.000000 
#    y 0.000000 2.981820 0.000000 
#    z 0.000000 0.000000 3.139650 
# 
# 
# High freq. dielectric constant tensor:
#      x y z
#    x 1.690070 0.000000 0.000000 
#    y 0.000000 1.598150 0.000000 
#    z 0.000000 0.000000 1.630440 
# 
# From -- ./inp_files/43687.got.cif
#   From: 2010.06.25/outbox.cif.g09.slc.cpg/sg52_22_cif.got.tgz:43687.got - 2010.06.26 19:32:48.
