data_PCOD8214629
_publ_section_title
;
Structure prediction by ZEFSAII (Michael W. Deem and Ramdas Pophale) SiO2 
 PCOD8214629
Probable space group: P M M A
;
_chemical_formula_sum "Si O2"
_cell_formula_units_Z 64
_cell_length_a 18.132470
_cell_length_b 15.187927
_cell_length_c 11.492593
_cell_angle_alpha 90.000000
_cell_angle_beta 90.000000
_cell_angle_gamma 90.000000
_cell_volume 3164.998405
_symmetry_space_group_name_H-M "P M M A"
_symmetry_group_IT_number 51
_symmetry_cell_setting 'orthorhombic'
loop_
_space_group_symop_operation_xyz
x,y,z
1/2-x,-y,z
1/2+x,-y,-z
-x,y,-z
-x,-y,-z
1/2+x,y,-z
1/2-x,y,z
x,-y,z
loop_
_atom_site_type_symbol
_atom_site_label
_atom_site_fract_x
_atom_site_fract_y
_atom_site_fract_z
Si Si1 0.063094 0.601118 0.242340
Si Si2 0.834841 0.352115 0.550009
Si Si3 0.416870 0.098935 0.696444
Si Si4 0.423491 0.752594 0.061108
Si Si5 0.665897 0.145459 0.531074
Si Si6 0.900849 0.401906 0.313905
Si Si7 0.335651 0.751611 0.834502
Si Si8 0.418396 0.900559 0.246044
O O1 0.065844 0.500000 0.201305
O O2 0.130588 0.621187 0.327370
O O3 0.069029 0.661189 0.128930
O O4 0.986733 0.624207 0.307116
O O5 0.750000 0.381767 0.551526
O O6 0.843383 0.249402 0.528058
O O7 0.877509 0.402267 0.448176
O O8 0.386995 0.104569 0.565781
O O9 0.375768 0.163843 0.782825
O O10 0.503161 0.123718 0.696196
O O11 0.405113 0.000000 0.743269
O O12 0.399678 0.833278 0.142964
O O13 0.500000 0.777535 0.000000
O O14 0.359968 0.737586 0.966766
O O15 0.750000 0.117870 0.504986
O O16 0.643904 0.107768 0.656055
O O17 0.888300 0.500000 0.263476
O O18 0.851835 0.335263 0.239895
O O19 0.250000 0.771294 0.829266
O O20 0.417753 0.000000 0.196126
#
# Coordination Sequence:
#
# PCOD8214629 Si02
#       8
#     8   8   8   8   8   8   8   8
#     4  11  24  42  69  97 125 168 220 262 316 383
#     4  11  23  39  64  98 136 172 208 257 322 386
#     4  11  23  41  67  98 130 167 212 262 316 384
#     4  12  24  45  67  90 123 170 212 272 315 364
#     4  11  23  39  64  98 136 172 208 257 322 386
#     4  11  23  41  67  98 130 167 212 262 316 384
#     4  12  26  43  65  95 127 168 216 264 323 379
#     4  11  24  42  69  97 125 168 220 262 316 383
#
# _framework density 20.221178999999999
#
# number of rings (size 3 to 8) (size 9 to 14) (size 15 to 20)
#    0.000    0.750    5.000    2.250    0.000    9.000 
#    0.000    0.000    0.000    0.000    0.000    0.000 
#    0.000    0.000    0.000    0.000    0.000    0.000 
#
# Total GULP energy -794038.775945 kJ/mol
# GULP energy per Si atom -12406.855874 kJ/mol
# Density = 2.017515 g / cm^3
# Si number density = 20.221179 Si / 1000 Ang^3
#
#
#
# Elastic Constant Matrix: (Units=GPa)
#
#
# Indices 1 2 3 4 5 6 
#
# 1 70.7858 25.3449 18.8373 0.0000 0.0000 0.0000
# 2 25.3449 92.1913 20.5450 0.0000 0.0000 0.0000
# 3 18.8373 20.5450 91.6280 0.0000 0.0000 0.0000
# 4 0.0000 0.0000 0.0000 19.8716 0.0000 0.0000
# 5 0.0000 0.0000 0.0000 0.0000 32.7600 0.0000
# 6 0.0000 0.0000 0.0000 0.0000 0.0000 23.1362
#
#
#
# Elastic Compliance Matrix: (Units=1/GPa)
#
#
# Indices 1 2 3 4 5 6 
#
# 1 0.016176 -0.003901 -0.002451 0.000000 0.000000 0.000000
# 2 -0.003901 0.012358 -0.001969 0.000000 0.000000 0.000000
# 3 -0.002451 -0.001969 0.011859 0.000000 0.000000 0.000000
# 4 0.000000 0.000000 0.000000 0.050323 0.000000 0.000000
# 5 0.000000 0.000000 0.000000 0.000000 0.030525 0.000000
# 6 0.000000 0.000000 0.000000 0.000000 0.000000 0.043222
#
#
# Mechanical properties :
#
#
# Convention : Reuss Voigt Hill
#
# Bulk Modulus (GPa) = 42.10215 42.67330 42.38773
# Shear Modulus (GPa) = 26.45186 27.81208 27.13197
#
# Velocity S-wave (km/s) = 3.62073 3.71265 3.66698
# Velocity P-wave (km/s) = 6.19238 6.28709 6.23991
#
# Compressibility (1/GPa) = 0.02375176
#
# Stress axis : x y z
#
# Youngs Moduli (GPa) = 61.81974 80.91773 84.32376
#
# Poissons Ratio (x) = 0.31565 0.20667
# Poissons Ratio (y) = 0.24115 0.16604
# Poissons Ratio (z) = 0.15151 0.15933
#
# Static dielectric constant tensor:
#      x y z
#    x 3.786250 0.000000 0.000000 
#    y 0.000000 3.856570 0.000000 
#    z 0.000000 0.000000 3.631740 
# 
# 
# High freq. dielectric constant tensor:
#      x y z
#    x 1.794270 0.000000 0.000000 
#    y 0.000000 1.807150 0.000000 
#    z 0.000000 0.000000 1.784210 
# 
# From -- ./inp_files/17527.got.cif
#   From: 2010.03.12/outbox.cif.g09.slc.cpg/sg51_9_cif.got.tgz:17527.got - 2010.04.16 13:43:02.
