data_PCOD8214783
_publ_section_title
;
Structure prediction by ZEFSAII (Michael W. Deem and Ramdas Pophale) SiO2 
 PCOD8214783
Probable space group: P M M A
;
_chemical_formula_sum "Si O2"
_cell_formula_units_Z 48
_cell_length_a 9.710723
_cell_length_b 9.423759
_cell_length_c 30.885986
_cell_angle_alpha 90.000000
_cell_angle_beta 90.000000
_cell_angle_gamma 90.000000
_cell_volume 2826.423318
_symmetry_space_group_name_H-M "P M M A"
_symmetry_group_IT_number 51
_symmetry_cell_setting 'orthorhombic'
loop_
_space_group_symop_operation_xyz
x,y,z
1/2-x,-y,z
1/2+x,-y,-z
-x,y,-z
-x,-y,-z
1/2+x,y,-z
1/2-x,y,z
x,-y,z
loop_
_atom_site_type_symbol
_atom_site_label
_atom_site_fract_x
_atom_site_fract_y
_atom_site_fract_z
Si Si1 0.413861 0.340348 0.623587
Si Si2 0.590814 0.835582 0.459129
Si Si3 0.596706 0.831089 0.201943
Si Si4 0.591118 0.834364 0.875523
Si Si5 0.591141 0.335285 0.959721
Si Si6 0.913972 0.158428 0.297112
O O1 0.250000 0.341044 0.625656
O O2 0.472564 0.500000 0.621908
O O3 0.463097 0.256119 0.581198
O O4 0.474155 0.262816 0.666228
O O5 0.500000 0.790179 0.500000
O O6 0.750000 0.803385 0.469873
O O7 0.569446 0.000000 0.447221
O O8 0.750000 0.771077 0.192717
O O9 0.494467 0.773589 0.165103
O O10 0.543560 0.782630 0.249526
O O11 0.600671 0.000000 0.201761
O O12 0.750000 0.803190 0.865510
O O13 0.541659 0.752621 0.918189
O O14 0.562987 0.000000 0.883118
O O15 0.750000 0.303620 0.970798
O O16 0.566271 0.500000 0.949602
O O17 0.500000 0.283889 0.000000
O O18 0.750000 0.151475 0.299612
O O19 0.973639 0.000000 0.304911
#
# Coordination Sequence:
#
# PCOD8214783 Si02
#       6
#     8   8   8   8   8   8
#     4   9  16  25  39  61  87 112 139 173 212 251
#     4   9  17  29  45  64  85 110 141 175 210 250
#     4   8  14  25  42  64  87 110 137 170 208 247
#     4   9  17  29  45  65  88 112 139 172 209 249
#     4   9  18  32  47  62  83 112 143 173 207 248
#     4   8  13  23  40  59  79 106 140 174 206 243
#
# _framework density 16.982593999999999
#
# number of rings (size 3 to 8) (size 9 to 14) (size 15 to 20)
#    0.000    3.333    0.000    1.500    0.000    3.333 
#    0.000    0.833    0.000    2.000    0.000    4.667 
#    0.000    0.000    0.000    0.000    0.000    0.000 
#
# Total GULP energy -595044.250376 kJ/mol
# GULP energy per Si atom -12396.755216 kJ/mol
# Density = 1.694394 g / cm^3
# Si number density = 16.982594 Si / 1000 Ang^3
#
#
#
# Elastic Constant Matrix: (Units=GPa)
#
#
# Indices 1 2 3 4 5 6 
#
# 1 44.9757 27.9388 63.3316 0.0000 0.0000 0.0000
# 2 27.9388 72.1992 76.2643 0.0000 0.0000 0.0000
# 3 63.3316 76.2643 192.2366 0.0000 0.0000 0.0000
# 4 0.0000 0.0000 0.0000 10.6309 0.0000 0.0000
# 5 0.0000 0.0000 0.0000 0.0000 26.8336 0.0000
# 6 0.0000 0.0000 0.0000 0.0000 0.0000 12.1521
#
#
#
# Elastic Compliance Matrix: (Units=1/GPa)
#
#
# Indices 1 2 3 4 5 6 
#
# 1 0.041801 -0.002804 -0.012659 0.000000 0.000000 0.000000
# 2 -0.002804 0.024030 -0.008609 0.000000 0.000000 0.000000
# 3 -0.012659 -0.008609 0.012788 0.000000 0.000000 0.000000
# 4 0.000000 0.000000 0.000000 0.094066 0.000000 0.000000
# 5 0.000000 0.000000 0.000000 0.000000 0.037267 0.000000
# 6 0.000000 0.000000 0.000000 0.000000 0.000000 0.082290
#
#
# Mechanical properties :
#
#
# Convention : Reuss Voigt Hill
#
# Bulk Modulus (GPa) = 32.81455 71.60898 52.21177
# Shear Modulus (GPa) = 14.26353 19.38176 16.82265
#
# Velocity S-wave (km/s) = 2.90123 3.38194 3.15077
# Velocity P-wave (km/s) = 5.53058 7.58338 6.63683
#
# Compressibility (1/GPa) = 0.03047429
#
# Stress axis : x y z
#
# Youngs Moduli (GPa) = 23.92260 41.61515 78.19965
#
# Poissons Ratio (x) = 0.11670 0.98991
# Poissons Ratio (y) = 0.06709 0.67324
# Poissons Ratio (z) = 0.30283 0.35827
#
# Static dielectric constant tensor:
#      x y z
#    x 2.914590 0.000000 0.000000 
#    y 0.000000 3.112030 0.000000 
#    z 0.000000 0.000000 3.461960 
# 
# 
# High freq. dielectric constant tensor:
#      x y z
#    x 1.613240 0.000000 0.000000 
#    y 0.000000 1.636160 0.000000 
#    z 0.000000 0.000000 1.668150 
# 
# From -- ./inp_files/35292.got.cif
#   From: 2010.03.12/outbox.cif.g09.slc.cpg/sg51_18_cif.got.tgz:35292.got - 2010.04.16 13:43:02.
