data_PCOD8214027
_publ_section_title
;
Structure prediction by ZEFSAII (Michael W. Deem and Ramdas Pophale) SiO2 
 PCOD8214027
Probable space group: P M M A
;
_chemical_formula_sum "Si O2"
_cell_formula_units_Z 44
_cell_length_a 8.762044
_cell_length_b 13.125627
_cell_length_c 19.117562
_cell_angle_alpha 90.000000
_cell_angle_beta 90.000000
_cell_angle_gamma 90.000000
_cell_volume 2198.659595
_symmetry_space_group_name_H-M "P M M A"
_symmetry_group_IT_number 51
_symmetry_cell_setting 'orthorhombic'
loop_
_space_group_symop_operation_xyz
x,y,z
1/2-x,-y,z
1/2+x,-y,-z
-x,y,-z
-x,-y,-z
1/2+x,y,-z
1/2-x,y,z
x,-y,z
loop_
_atom_site_type_symbol
_atom_site_label
_atom_site_fract_x
_atom_site_fract_y
_atom_site_fract_z
Si Si1 0.572567 0.108926 0.075721
Si Si2 0.931991 0.500000 0.576625
Si Si3 0.929660 0.883270 0.575416
Si Si4 0.080175 0.613187 0.797887
Si Si5 0.069170 0.695577 0.652588
Si Si6 0.072947 0.307939 0.075434
O O1 0.750000 0.134377 0.068397
O O2 0.487524 0.202962 0.112060
O O3 0.547714 0.000000 0.115053
O O4 0.500000 0.100790 0.000000
O O5 0.750000 0.500000 0.574460
O O6 0.000000 0.500000 0.500000
O O7 0.987278 0.603170 0.613416
O O8 0.750000 0.862828 0.572016
O O9 0.000000 0.860843 0.500000
O O10 0.006668 0.805529 0.629447
O O11 0.964631 0.000000 0.598594
O O12 0.250000 0.641995 0.824111
O O13 0.077292 0.500000 0.765570
O O14 0.030280 0.688077 0.735281
O O15 0.969549 0.610758 0.865431
O O16 0.250000 0.688196 0.639157
O O17 0.250000 0.304103 0.062214
O O18 0.000000 0.332320 0.000000
#
# Coordination Sequence:
#
# PCOD8214027 Si02
#       6
#     8   4   8   8   8   8
#     4   9  16  28  49  76 106 139 175 220 277 337
#     4  12  24  38  60  90 125 160 199 244 292 346
#     4  10  21  38  61  91 127 167 209 252 299 352
#     4  10  22  42  63  82 111 151 193 241 300 362
#     4  11  22  40  63  89 121 158 202 248 303 361
#     4  11  22  36  57  84 113 147 191 242 296 355
#
# _framework density 20.012193
#
# number of rings (size 3 to 8) (size 9 to 14) (size 15 to 20)
#    0.000    1.636    0.909    5.727    0.000    4.364 
#    0.000    0.909    0.000    1.091    0.000    0.000 
#    0.000    0.000    0.000    0.000    0.000    0.000 
#
# Total GULP energy -545323.646052 kJ/mol
# GULP energy per Si atom -12393.719228 kJ/mol
# Density = 1.996664 g / cm^3
# Si number density = 20.012193 Si / 1000 Ang^3
#
#
#
# Elastic Constant Matrix: (Units=GPa)
#
#
# Indices 1 2 3 4 5 6 
#
# 1 151.2053 47.8917 61.0106 0.0000 0.0000 0.0000
# 2 47.8917 107.7487 55.7718 0.0000 0.0000 0.0000
# 3 61.0106 55.7718 113.2681 0.0000 0.0000 0.0000
# 4 0.0000 0.0000 0.0000 28.8235 0.0000 0.0000
# 5 0.0000 0.0000 0.0000 0.0000 30.8245 0.0000
# 6 0.0000 0.0000 0.0000 0.0000 0.0000 36.1421
#
#
#
# Elastic Compliance Matrix: (Units=1/GPa)
#
#
# Indices 1 2 3 4 5 6 
#
# 1 0.008743 -0.001944 -0.003752 0.000000 0.000000 0.000000
# 2 -0.001944 0.012887 -0.005299 0.000000 0.000000 0.000000
# 3 -0.003752 -0.005299 0.013459 0.000000 0.000000 0.000000
# 4 0.000000 0.000000 0.000000 0.034694 0.000000 0.000000
# 5 0.000000 0.000000 0.000000 0.000000 0.032442 0.000000
# 6 0.000000 0.000000 0.000000 0.000000 0.000000 0.027669
#
#
# Mechanical properties :
#
#
# Convention : Reuss Voigt Hill
#
# Bulk Modulus (GPa) = 76.33671 77.95223 77.14447
# Shear Modulus (GPa) = 32.00006 32.99457 32.49731
#
# Velocity S-wave (km/s) = 4.00312 4.06485 4.03411
# Velocity P-wave (km/s) = 7.71975 7.81458 7.76731
#
# Compressibility (1/GPa) = 0.01309986
#
# Stress axis : x y z
#
# Youngs Moduli (GPa) = 114.37369 77.59476 74.30156
#
# Poissons Ratio (x) = 0.15084 0.27880
# Poissons Ratio (y) = 0.22234 0.39369
# Poissons Ratio (z) = 0.42916 0.41114
#
# Static dielectric constant tensor:
#      x y z
#    x 3.717690 0.000000 0.000000 
#    y 0.000000 4.339200 0.000000 
#    z 0.000000 0.000000 3.363230 
# 
# 
# High freq. dielectric constant tensor:
#      x y z
#    x 1.792200 0.000000 0.000000 
#    y 0.000000 1.794310 0.000000 
#    z 0.000000 0.000000 1.757500 
# 
# From -- ./inp_files/27413.got.cif
#   From: 2010.03.12/outbox.cif.g09.slc.cpg/sg51_14_cif.got.tgz:27413.got - 2010.04.16 13:43:02.
