data_PCOD8214543
_publ_section_title
;
Structure prediction by ZEFSAII (Michael W. Deem and Ramdas Pophale) SiO2 
 PCOD8214543
Probable space group: P M M A
;
_chemical_formula_sum "Si O2"
_cell_formula_units_Z 56
_cell_length_a 14.313731
_cell_length_b 9.424101
_cell_length_c 21.598470
_cell_angle_alpha 90.000000
_cell_angle_beta 90.000000
_cell_angle_gamma 90.000000
_cell_volume 2913.505019
_symmetry_space_group_name_H-M "P M M A"
_symmetry_group_IT_number 51
_symmetry_cell_setting 'orthorhombic'
loop_
_space_group_symop_operation_xyz
x,y,z
1/2-x,-y,z
1/2+x,-y,-z
-x,y,-z
-x,-y,-z
1/2+x,y,-z
1/2-x,y,z
x,-y,z
loop_
_atom_site_type_symbol
_atom_site_label
_atom_site_fract_x
_atom_site_fract_y
_atom_site_fract_z
Si Si1 0.476236 0.668018 0.098712
Si Si2 0.353689 0.667494 0.983290
Si Si3 0.638434 0.842474 0.535038
Si Si4 0.990151 0.830734 0.778534
Si Si5 0.353859 0.831156 0.330012
Si Si6 0.639092 0.343054 0.424299
Si Si7 0.858938 0.663807 0.286152
O O1 0.473638 0.500000 0.113532
O O2 0.578003 0.714607 0.072422
O O3 0.453144 0.760985 0.158607
O O4 0.397423 0.711610 0.049099
O O5 0.250000 0.735535 0.975428
O O6 0.346291 0.500000 0.981641
O O7 0.750000 0.844987 0.531270
O O8 0.610195 0.776897 0.602327
O O9 0.594514 0.753878 0.478109
O O10 0.597845 0.000000 0.527625
O O11 0.091199 0.766474 0.762760
O O12 0.921258 0.778672 0.724169
O O13 0.995019 0.000000 0.785086
O O14 0.250000 0.771570 0.316187
O O15 0.350285 0.000000 0.332989
O O16 0.750000 0.348058 0.431112
O O17 0.597638 0.500000 0.432773
O O18 0.614301 0.285737 0.355736
O O19 0.750000 0.681390 0.273768
O O20 0.888657 0.500000 0.275923
#
# Coordination Sequence:
#
# PCOD8214543 Si02
#       7
#     8   8   8   8   8   8   8
#     4   9  18  33  53  77 104 133 166 203 243 291
#     4   8  15  31  56  81 102 129 167 205 239 284
#     4   8  13  24  45  68  88 118 163 210 253 300
#     4  11  22  34  51  76 106 138 172 212 251 290
#     4   8  16  32  50  68  96 136 176 209 249 306
#     4   8  14  26  45  68  92 119 156 206 262 311
#     4   9  19  36  54  70  95 135 175 209 254 313
#
# _framework density 19.220835999999998
#
# number of rings (size 3 to 8) (size 9 to 14) (size 15 to 20)
#    0.000    3.286    0.000    3.000    0.000    2.000 
#    0.000    6.429    0.000    8.143    0.000    0.000 
#    0.000    0.000    0.000    0.000    0.000    0.000 
#
# Total GULP energy -694049.880482 kJ/mol
# GULP energy per Si atom -12393.747866 kJ/mol
# Density = 1.917709 g / cm^3
# Si number density = 19.220836 Si / 1000 Ang^3
#
#
#
# Elastic Constant Matrix: (Units=GPa)
#
#
# Indices 1 2 3 4 5 6 
#
# 1 46.9009 4.5585 3.2954 0.0000 0.0000 0.0000
# 2 4.5585 51.5519 26.2343 0.0000 0.0000 0.0000
# 3 3.2954 26.2343 82.9564 0.0000 0.0000 0.0000
# 4 0.0000 0.0000 0.0000 24.5838 0.0000 0.0000
# 5 0.0000 0.0000 0.0000 0.0000 24.4648 0.0000
# 6 0.0000 0.0000 0.0000 0.0000 0.0000 13.3083
#
#
#
# Elastic Compliance Matrix: (Units=1/GPa)
#
#
# Indices 1 2 3 4 5 6 
#
# 1 0.021513 -0.001749 -0.000302 0.000000 0.000000 0.000000
# 2 -0.001749 0.023261 -0.007287 0.000000 0.000000 0.000000
# 3 -0.000302 -0.007287 0.014371 0.000000 0.000000 0.000000
# 4 0.000000 0.000000 0.000000 0.040677 0.000000 0.000000
# 5 0.000000 0.000000 0.000000 0.000000 0.040875 0.000000
# 6 0.000000 0.000000 0.000000 0.000000 0.000000 0.075141
#
#
# Mechanical properties :
#
#
# Convention : Reuss Voigt Hill
#
# Bulk Modulus (GPa) = 24.70943 27.73174 26.22058
# Shear Modulus (GPa) = 20.16119 22.29279 21.22699
#
# Velocity S-wave (km/s) = 3.24222 3.40931 3.32682
# Velocity P-wave (km/s) = 5.18647 5.47331 5.33182
#
# Compressibility (1/GPa) = 0.04047038
#
# Stress axis : x y z
#
# Youngs Moduli (GPa) = 46.48417 42.99109 69.58544
#
# Poissons Ratio (x) = 0.07518 0.02098
# Poissons Ratio (y) = 0.08129 0.50704
# Poissons Ratio (z) = 0.01402 0.31326
#
# Static dielectric constant tensor:
#      x y z
#    x 3.611840 0.000000 0.000000 
#    y 0.000000 3.253670 0.000000 
#    z 0.000000 0.000000 3.624410 
# 
# 
# High freq. dielectric constant tensor:
#      x y z
#    x 1.738580 0.000000 0.000000 
#    y 0.000000 1.709370 0.000000 
#    z 0.000000 0.000000 1.753110 
# 
# From -- ./inp_files/33379.got.cif
#   From: 2010.03.12/outbox.cif.g09.slc.cpg/sg51_17_cif.got.tgz:33379.got - 2010.04.16 13:43:02.
