data_PCOD8214188
_publ_section_title
;
Structure prediction by ZEFSAII (Michael W. Deem and Ramdas Pophale) SiO2 
 PCOD8214188
Probable space group: P M M A
;
_chemical_formula_sum "Si O2"
_cell_formula_units_Z 48
_cell_length_a 8.690719
_cell_length_b 31.037042
_cell_length_c 8.960927
_cell_angle_alpha 90.000000
_cell_angle_beta 90.000000
_cell_angle_gamma 90.000000
_cell_volume 2417.068571
_symmetry_space_group_name_H-M "P M M A"
_symmetry_group_IT_number 51
_symmetry_cell_setting 'orthorhombic'
loop_
_space_group_symop_operation_xyz
x,y,z
1/2-x,-y,z
1/2+x,-y,-z
-x,y,-z
-x,-y,-z
1/2+x,y,-z
1/2-x,y,z
x,-y,z
loop_
_atom_site_type_symbol
_atom_site_label
_atom_site_fract_x
_atom_site_fract_y
_atom_site_fract_z
Si Si1 0.569111 0.000000 0.661419
Si Si2 0.568855 0.759007 0.836549
Si Si3 0.567780 0.592889 0.835710
Si Si4 0.567321 0.162940 0.337770
Si Si5 0.570095 0.500000 0.839174
Si Si6 0.929832 0.325739 0.659523
Si Si7 0.066972 0.083939 0.161636
O O1 0.500000 0.000000 0.500000
O O2 0.512072 0.957257 0.744553
O O3 0.750000 0.000000 0.649062
O O4 0.750000 0.768114 0.841928
O O5 0.490083 0.791318 0.721304
O O6 0.529823 0.711410 0.777747
O O7 0.500000 0.765265 0.000000
O O8 0.750000 0.597780 0.850753
O O9 0.521283 0.545745 0.763658
O O10 0.501830 0.629592 0.725785
O O11 0.500000 0.598994 0.000000
O O12 0.500000 0.153713 0.500000
O O13 0.750000 0.162568 0.345951
O O14 0.508624 0.126513 0.227046
O O15 0.750000 0.500000 0.860166
O O16 0.500000 0.500000 0.000000
O O17 0.750000 0.329656 0.634760
O O18 0.000000 0.314871 0.500000
O O19 0.250000 0.089262 0.157639
O O20 0.000000 0.076249 0.000000
#
# Coordination Sequence:
#
# PCOD8214188 Si02
#       7
#     4   8   8   8   4   8   8
#     4  10  23  40  62  90 122 158 199 244 293 344
#     4  11  23  40  61  86 113 146 186 232 282 336
#     4   9  17  31  51  77 104 136 176 221 269 323
#     4  12  25  42  63  89 120 155 192 236 285 339
#     4   8  14  26  47  72 102 134 170 216 267 318
#     4  10  22  37  54  77 108 143 182 224 274 329
#     4  11  23  41  63  91 123 159 200 243 289 340
#
# _framework density 19.858764999999998
#
# number of rings (size 3 to 8) (size 9 to 14) (size 15 to 20)
#    0.000    1.667    0.000    4.750    0.000    6.000 
#    0.000    0.417    0.000    0.000    0.000    0.000 
#    0.000    0.000    0.000    0.000    0.000    0.000 
#
# Total GULP energy -595130.958586 kJ/mol
# GULP energy per Si atom -12398.561637 kJ/mol
# Density = 1.981357 g / cm^3
# Si number density = 19.858765 Si / 1000 Ang^3
#
#
#
# Elastic Constant Matrix: (Units=GPa)
#
#
# Indices 1 2 3 4 5 6 
#
# 1 76.1873 44.0670 33.7693 0.0000 0.0000 0.0000
# 2 44.0670 127.9961 34.3715 0.0000 0.0000 0.0000
# 3 33.7693 34.3715 109.0192 0.0000 0.0000 0.0000
# 4 0.0000 0.0000 0.0000 -6.5659 0.0000 0.0000
# 5 0.0000 0.0000 0.0000 0.0000 35.8865 0.0000
# 6 0.0000 0.0000 0.0000 0.0000 0.0000 4.2760
#
#
#
# Elastic Compliance Matrix: (Units=1/GPa)
#
#
# Indices 1 2 3 4 5 6 
#
# 1 0.017796 -0.005076 -0.003912 0.000000 0.000000 0.000000
# 2 -0.005076 0.009983 -0.001575 0.000000 0.000000 0.000000
# 3 -0.003912 -0.001575 0.010881 0.000000 0.000000 0.000000
# 4 0.000000 0.000000 0.000000 -0.152302 0.000000 0.000000
# 5 0.000000 0.000000 0.000000 0.000000 0.027866 0.000000
# 6 0.000000 0.000000 0.000000 0.000000 0.000000 0.233865
#
#
# Mechanical properties :
#
#
# Convention : Reuss Voigt Hill
#
# Bulk Modulus (GPa) = 57.03375 59.73535 58.38455
# Shear Modulus (GPa) = 28.56172 20.11898 24.34035
#
# Velocity S-wave (km/s) = 3.79653 3.18638 3.50476
# Velocity P-wave (km/s) = 6.92822 6.60929 6.77064
#
# Compressibility (1/GPa) = 0.01753348
#
# Stress axis : x y z
#
# Youngs Moduli (GPa) = 56.19383 100.16633 91.90314
#
# Poissons Ratio (x) = 0.50847 0.35951
# Poissons Ratio (y) = 0.28525 0.14476
# Poissons Ratio (z) = 0.21982 0.15778
#
# Static dielectric constant tensor:
#      x y z
#    x 3.708040 0.000000 0.000000 
#    y 0.000000 4.238380 0.000000 
#    z 0.000000 0.000000 3.535250 
# 
# 
# High freq. dielectric constant tensor:
#      x y z
#    x 1.775240 0.000000 0.000000 
#    y 0.000000 1.802070 0.000000 
#    z 0.000000 0.000000 1.769530 
# 
# From -- ./inp_files/6160.got.cif
#   From: 2010.03.12/outbox.cif.g09.slc.cpg/sg51_4_cif.got.tgz:6160.got - 2010.04.16 13:43:02.
