data_PCOD8214565
_publ_section_title
;
Structure prediction by ZEFSAII (Michael W. Deem and Ramdas Pophale) SiO2 
 PCOD8214565
Probable space group: P M M A
;
_chemical_formula_sum "Si O2"
_cell_formula_units_Z 40
_cell_length_a 9.017434
_cell_length_b 18.732795
_cell_length_c 13.581610
_cell_angle_alpha 90.000000
_cell_angle_beta 90.000000
_cell_angle_gamma 90.000000
_cell_volume 2294.229228
_symmetry_space_group_name_H-M "P M M A"
_symmetry_group_IT_number 51
_symmetry_cell_setting 'orthorhombic'
loop_
_space_group_symop_operation_xyz
x,y,z
1/2-x,-y,z
1/2+x,-y,-z
-x,y,-z
-x,-y,-z
1/2+x,y,-z
1/2-x,y,z
x,-y,z
loop_
_atom_site_type_symbol
_atom_site_label
_atom_site_fract_x
_atom_site_fract_y
_atom_site_fract_z
Si Si1 0.573794 0.289716 0.601567
Si Si2 0.076584 0.919828 0.899307
Si Si3 0.080129 0.347642 0.899630
Si Si4 0.923641 0.581606 0.298959
Si Si5 0.922527 0.212492 0.224670
O O1 0.500000 0.265309 0.500000
O O2 0.750000 0.289923 0.592298
O O3 0.517739 0.369156 0.627925
O O4 0.523649 0.232134 0.682665
O O5 0.250000 0.914646 0.919229
O O6 0.030773 0.866282 0.811726
O O7 0.028594 0.000000 0.868376
O O8 0.000000 0.896067 0.000000
O O9 0.250000 0.358644 0.923830
O O10 0.029689 0.401951 0.813521
O O11 0.046052 0.267081 0.864670
O O12 0.000000 0.366976 0.000000
O O13 0.750000 0.599592 0.313509
O O14 0.960115 0.500000 0.324319
O O15 0.750000 0.216682 0.256050
#
# Coordination Sequence:
#
# PCOD8214565 Si02
#       5
#     8   8   8   8   8
#     4  11  22  36  55  76  96 121 158 203 251 299
#     4   9  17  29  48  76 109 142 171 201 240 285
#     4   9  17  28  44  67  95 129 164 198 236 278
#     4   9  19  36  53  70  97 130 162 199 244 292
#     4   9  18  33  50  70 100 133 166 204 244 287
#
# _framework density 17.435048999999999
#
# number of rings (size 3 to 8) (size 9 to 14) (size 15 to 20)
#    0.000    2.600    0.000    3.600    0.000    5.200 
#    0.000    0.000    0.000    0.600    0.000    0.000 
#    0.000    0.000    0.000    0.000    0.000    0.000 
#
# Total GULP energy -495983.282370 kJ/mol
# GULP energy per Si atom -12399.582059 kJ/mol
# Density = 1.739537 g / cm^3
# Si number density = 17.435049 Si / 1000 Ang^3
#
#
#
# Elastic Constant Matrix: (Units=GPa)
#
#
# Indices 1 2 3 4 5 6 
#
# 1 77.5198 36.8200 47.3291 0.0000 0.0000 0.0000
# 2 36.8200 104.3948 39.8102 0.0000 0.0000 0.0000
# 3 47.3291 39.8102 94.1274 0.0000 0.0000 0.0000
# 4 0.0000 0.0000 0.0000 1.9925 0.0000 0.0000
# 5 0.0000 0.0000 0.0000 0.0000 34.2432 0.0000
# 6 0.0000 0.0000 0.0000 0.0000 0.0000 21.9876
#
#
#
# Elastic Compliance Matrix: (Units=1/GPa)
#
#
# Indices 1 2 3 4 5 6 
#
# 1 0.019803 -0.003800 -0.008350 0.000000 0.000000 0.000000
# 2 -0.003800 0.012150 -0.003228 0.000000 0.000000 0.000000
# 3 -0.008350 -0.003228 0.016188 0.000000 0.000000 0.000000
# 4 0.000000 0.000000 0.000000 0.501879 0.000000 0.000000
# 5 0.000000 0.000000 0.000000 0.000000 0.029203 0.000000
# 6 0.000000 0.000000 0.000000 0.000000 0.000000 0.045480
#
#
# Mechanical properties :
#
#
# Convention : Reuss Voigt Hill
#
# Bulk Modulus (GPa) = 57.52282 58.21784 57.87033
# Shear Modulus (GPa) = 7.56139 21.78352 14.67245
#
# Velocity S-wave (km/s) = 2.08478 3.53853 2.90409
# Velocity P-wave (km/s) = 6.23373 7.08228 6.67151
#
# Compressibility (1/GPa) = 0.01738441
#
# Stress axis : x y z
#
# Youngs Moduli (GPa) = 50.49731 82.30214 61.77524
#
# Poissons Ratio (x) = 0.31277 0.51583
# Poissons Ratio (y) = 0.19190 0.19941
# Poissons Ratio (z) = 0.42166 0.26567
#
# Static dielectric constant tensor:
#      x y z
#    x 3.300780 0.000000 0.000000 
#    y 0.000000 3.355690 0.000000 
#    z 0.000000 0.000000 3.155600 
# 
# 
# High freq. dielectric constant tensor:
#      x y z
#    x 1.668500 0.000000 0.000000 
#    y 0.000000 1.667750 0.000000 
#    z 0.000000 0.000000 1.664910 
# 
# From -- ./inp_files/14033.got.cif
#   From: 2010.03.12/outbox.cif.g09.slc.cpg/sg51_8_cif.got.tgz:14033.got - 2010.04.16 13:43:02.
