data_PCOD8214421
_publ_section_title
;
Structure prediction by ZEFSAII (Michael W. Deem and Ramdas Pophale) SiO2 
 PCOD8214421
Probable space group: P M M A
;
_chemical_formula_sum "Si O2"
_cell_formula_units_Z 48
_cell_length_a 14.183065
_cell_length_b 11.259610
_cell_length_c 15.135030
_cell_angle_alpha 90.000000
_cell_angle_beta 90.000000
_cell_angle_gamma 90.000000
_cell_volume 2417.000429
_symmetry_space_group_name_H-M "P M M A"
_symmetry_group_IT_number 51
_symmetry_cell_setting 'orthorhombic'
loop_
_space_group_symop_operation_xyz
x,y,z
1/2-x,-y,z
1/2+x,-y,-z
-x,y,-z
-x,-y,-z
1/2+x,y,-z
1/2-x,y,z
x,-y,z
loop_
_atom_site_type_symbol
_atom_site_label
_atom_site_fract_x
_atom_site_fract_y
_atom_site_fract_z
Si Si1 0.464716 0.862140 0.123948
Si Si2 0.855969 0.500000 0.801132
Si Si3 0.046153 0.280795 0.285708
Si Si4 0.896837 0.630815 0.537778
Si Si5 0.148300 0.638897 0.648727
Si Si6 0.110804 0.500000 0.997867
Si Si7 0.643349 0.760605 0.037489
O O1 0.438810 0.837081 0.226798
O O2 0.573002 0.822727 0.107049
O O3 0.452312 0.000000 0.103373
O O4 0.393719 0.789356 0.061262
O O5 0.750000 0.500000 0.760473
O O6 0.916680 0.387685 0.772947
O O7 0.844329 0.500000 0.905790
O O8 0.103624 0.278358 0.378741
O O9 0.933925 0.290626 0.302454
O O10 0.861945 0.500000 0.571237
O O11 0.837410 0.678485 0.454536
O O12 0.000000 0.615618 0.500000
O O13 0.250000 0.663502 0.694957
O O14 0.121787 0.500000 0.650182
O O15 0.144567 0.381624 0.946850
O O16 0.000000 0.500000 0.000000
O O17 0.750000 0.809507 0.049785
#
# Coordination Sequence:
#
# PCOD8214421 Si02
#       7
#     8   4   8   8   8   4   8
#     4  11  25  40  57  81 108 150 203 240 275 320
#     4  12  22  32  52  85 117 143 176 221 291 356
#     4  11  19  35  54  78 116 148 179 231 281 330
#     4   8  14  27  48  74 106 143 171 209 271 338
#     4   9  17  30  52  83 115 146 180 219 276 346
#     4  12  20  38  60  88 116 142 173 227 293 360
#     4  11  22  40  63  84 113 147 184 231 287 343
#
# _framework density 19.859325999999999
#
# number of rings (size 3 to 8) (size 9 to 14) (size 15 to 20)
#    0.000    1.667    5.000    2.750    0.000    2.667 
#    0.000    0.000    0.000    4.500    0.000    0.000 
#    0.000    0.000    0.000    0.000    0.000    0.000 
#
# Total GULP energy -594768.755889 kJ/mol
# GULP energy per Si atom -12391.015748 kJ/mol
# Density = 1.981413 g / cm^3
# Si number density = 19.859326 Si / 1000 Ang^3
#
#
#
# Elastic Constant Matrix: (Units=GPa)
#
#
# Indices 1 2 3 4 5 6 
#
# 1 102.4413 9.4869 -0.5200 0.0000 0.0000 0.0000
# 2 9.4869 78.5331 18.4570 0.0000 0.0000 0.0000
# 3 -0.5200 18.4570 70.6130 0.0000 0.0000 0.0000
# 4 0.0000 0.0000 0.0000 16.0783 0.0000 0.0000
# 5 0.0000 0.0000 0.0000 0.0000 15.0358 0.0000
# 6 0.0000 0.0000 0.0000 0.0000 0.0000 56.9634
#
#
#
# Elastic Compliance Matrix: (Units=1/GPa)
#
#
# Indices 1 2 3 4 5 6 
#
# 1 0.009883 -0.001290 0.000410 0.000000 0.000000 0.000000
# 2 -0.001290 0.013735 -0.003600 0.000000 0.000000 0.000000
# 3 0.000410 -0.003600 0.015106 0.000000 0.000000 0.000000
# 4 0.000000 0.000000 0.000000 0.062196 0.000000 0.000000
# 5 0.000000 0.000000 0.000000 0.000000 0.066508 0.000000
# 6 0.000000 0.000000 0.000000 0.000000 0.000000 0.017555
#
#
# Mechanical properties :
#
#
# Convention : Reuss Voigt Hill
#
# Bulk Modulus (GPa) = 33.59723 34.04838 33.82281
# Shear Modulus (GPa) = 24.52615 32.55974 28.54294
#
# Velocity S-wave (km/s) = 3.51806 4.05349 3.79523
# Velocity P-wave (km/s) = 5.78417 6.25218 6.02272
#
# Compressibility (1/GPa) = 0.02976436
#
# Stress axis : x y z
#
# Youngs Moduli (GPa) = 101.18123 72.80482 66.20054
#
# Poissons Ratio (x) = 0.09394 -0.02714
# Poissons Ratio (y) = 0.13055 0.23830
# Poissons Ratio (z) = -0.04149 0.26207
#
# Static dielectric constant tensor:
#      x y z
#    x 4.442850 0.000000 0.000000 
#    y 0.000000 3.238280 0.000000 
#    z 0.000000 0.000000 3.819370 
# 
# 
# High freq. dielectric constant tensor:
#      x y z
#    x 1.783400 0.000000 0.000000 
#    y 0.000000 1.715510 0.000000 
#    z 0.000000 0.000000 1.772720 
# 
# From -- ./inp_files/24062.got.cif
#   From: 2010.03.12/outbox.cif.g09.slc.cpg/sg51_13_cif.got.tgz:24062.got - 2010.04.16 13:43:02.
