data_PCOD8214712
_publ_section_title
;
Structure prediction by ZEFSAII (Michael W. Deem and Ramdas Pophale) SiO2 
 PCOD8214712
Probable space group: P M M A
;
_chemical_formula_sum "Si O2"
_cell_formula_units_Z 48
_cell_length_a 9.550051
_cell_length_b 9.698819
_cell_length_c 31.247801
_cell_angle_alpha 90.000000
_cell_angle_beta 90.000000
_cell_angle_gamma 90.000000
_cell_volume 2894.303072
_symmetry_space_group_name_H-M "P M M A"
_symmetry_group_IT_number 51
_symmetry_cell_setting 'orthorhombic'
loop_
_space_group_symop_operation_xyz
x,y,z
1/2-x,-y,z
1/2+x,-y,-z
-x,y,-z
-x,-y,-z
1/2+x,y,-z
1/2-x,y,z
x,-y,z
loop_
_atom_site_type_symbol
_atom_site_label
_atom_site_fract_x
_atom_site_fract_y
_atom_site_fract_z
Si Si1 0.083607 0.346602 0.787812
Si Si2 0.909035 0.664365 0.960032
Si Si3 0.093327 0.335978 0.882187
Si Si4 0.092809 0.163828 0.367889
Si Si5 0.592722 0.835944 0.537925
Si Si6 0.913796 0.159972 0.289082
O O1 0.250000 0.352836 0.786591
O O2 0.022648 0.500000 0.779171
O O3 0.038815 0.292169 0.834935
O O4 0.026784 0.242360 0.751854
O O5 0.750000 0.721790 0.962572
O O6 0.905896 0.500000 0.959972
O O7 0.984054 0.721384 0.917143
O O8 0.000000 0.718820 0.000000
O O9 0.250000 0.277190 0.891270
O O10 0.100944 0.500000 0.884380
O O11 0.250000 0.218314 0.359175
O O12 0.040801 0.213666 0.414971
O O13 0.989819 0.220157 0.331236
O O14 0.092305 0.000000 0.367143
O O15 0.500000 0.770012 0.500000
O O16 0.750000 0.784065 0.530461
O O17 0.586053 0.000000 0.535831
O O18 0.750000 0.184865 0.295836
O O19 0.948452 0.000000 0.281425
#
# Coordination Sequence:
#
# PCOD8214712 Si02
#       6
#     8   8   8   8   8   8
#     4   8  14  25  40  56  76 103 130 156 191 231
#     4   9  15  21  30  46  69  95 121 149 181 218
#     4   8  13  22  35  48  64  91 124 151 178 217
#     4   8  14  24  35  48  71 102 128 150 186 233
#     4   8  13  20  30  45  66  93 123 151 180 219
#     4   9  16  25  39  59  78  97 128 166 192 215
#
# _framework density 16.584302999999998
#
# number of rings (size 3 to 8) (size 9 to 14) (size 15 to 20)
#    0.000    3.667    0.000    2.500    0.000    2.667 
#    0.000    4.167    0.000    1.500    0.000    0.000 
#    0.000    1.333    0.000    2.667    0.000    4.667 
#
# Total GULP energy -594734.822533 kJ/mol
# GULP energy per Si atom -12390.308803 kJ/mol
# Density = 1.654656 g / cm^3
# Si number density = 16.584303 Si / 1000 Ang^3
#
#
#
# Elastic Constant Matrix: (Units=GPa)
#
#
# Indices 1 2 3 4 5 6 
#
# 1 85.4107 15.8237 82.5455 0.0000 0.0000 0.0000
# 2 15.8237 18.1538 30.8878 0.0000 0.0000 0.0000
# 3 82.5455 30.8878 191.3511 0.0000 0.0000 0.0000
# 4 0.0000 0.0000 0.0000 16.4357 0.0000 0.0000
# 5 0.0000 0.0000 0.0000 0.0000 32.6982 0.0000
# 6 0.0000 0.0000 0.0000 0.0000 0.0000 5.2999
#
#
#
# Elastic Compliance Matrix: (Units=1/GPa)
#
#
# Indices 1 2 3 4 5 6 
#
# 1 0.020273 -0.003848 -0.008124 0.000000 0.000000 0.000000
# 2 -0.003848 0.076673 -0.010717 0.000000 0.000000 0.000000
# 3 -0.008124 -0.010717 0.010460 0.000000 0.000000 0.000000
# 4 0.000000 0.000000 0.000000 0.060843 0.000000 0.000000
# 5 0.000000 0.000000 0.000000 0.000000 0.030583 0.000000
# 6 0.000000 0.000000 0.000000 0.000000 0.000000 0.188683
#
#
# Mechanical properties :
#
#
# Convention : Reuss Voigt Hill
#
# Bulk Modulus (GPa) = 16.12159 61.49218 38.80688
# Shear Modulus (GPa) = 11.02371 21.93066 16.47719
#
# Velocity S-wave (km/s) = 2.58099 3.64039 3.15547
# Velocity P-wave (km/s) = 4.31557 7.40466 6.06024
#
# Compressibility (1/GPa) = 0.06202864
#
# Stress axis : x y z
#
# Youngs Moduli (GPa) = 49.32765 13.04248 95.59798
#
# Poissons Ratio (x) = 0.05018 0.77665
# Poissons Ratio (y) = 0.18980 1.02448
# Poissons Ratio (z) = 0.40074 0.13977
#
# Static dielectric constant tensor:
#      x y z
#    x 3.142690 0.000000 0.000000 
#    y 0.000000 2.517710 0.000000 
#    z 0.000000 0.000000 3.679020 
# 
# 
# High freq. dielectric constant tensor:
#      x y z
#    x 1.622800 0.000000 0.000000 
#    y 0.000000 1.555320 0.000000 
#    z 0.000000 0.000000 1.659450 
# 
# From -- ./inp_files/37312.got.cif
#   From: 2010.03.12/outbox.cif.g09.slc.cpg/sg51_19_cif.got.tgz:37312.got - 2010.04.16 13:43:02.
