data_PCOD8214178
_publ_section_title
;
Structure prediction by ZEFSAII (Michael W. Deem and Ramdas Pophale) SiO2 
 PCOD8214178
Probable space group: P M M A
;
_chemical_formula_sum "Si O2"
_cell_formula_units_Z 64
_cell_length_a 9.372353
_cell_length_b 14.691946
_cell_length_c 24.023353
_cell_angle_alpha 90.000000
_cell_angle_beta 90.000000
_cell_angle_gamma 90.000000
_cell_volume 3307.970164
_symmetry_space_group_name_H-M "P M M A"
_symmetry_group_IT_number 51
_symmetry_cell_setting 'orthorhombic'
loop_
_space_group_symop_operation_xyz
x,y,z
1/2-x,-y,z
1/2+x,-y,-z
-x,y,-z
-x,-y,-z
1/2+x,y,-z
1/2-x,y,z
x,-y,z
loop_
_atom_site_type_symbol
_atom_site_label
_atom_site_fract_x
_atom_site_fract_y
_atom_site_fract_z
Si Si1 0.416516 0.230664 0.056997
Si Si2 0.585014 0.605791 0.656211
Si Si3 0.083256 0.102719 0.369034
Si Si4 0.086564 0.603463 0.132707
Si Si5 0.416200 0.734200 0.444197
Si Si6 0.592462 0.107942 0.265086
Si Si7 0.410636 0.391926 0.761671
Si Si8 0.084666 0.107023 0.859026
O O1 0.250000 0.209399 0.047561
O O2 0.439441 0.333145 0.079370
O O3 0.478818 0.158080 0.099910
O O4 0.500000 0.220500 0.000000
O O5 0.750000 0.623267 0.670853
O O6 0.553706 0.500000 0.645517
O O7 0.539604 0.658607 0.600755
O O8 0.492357 0.645083 0.707357
O O9 0.250000 0.106365 0.357642
O O10 0.041347 0.166018 0.421025
O O11 0.013459 0.143022 0.312877
O O12 0.031233 0.000000 0.382487
O O13 0.250000 0.608172 0.152993
O O14 0.045012 0.500000 0.116139
O O15 0.989413 0.641514 0.182703
O O16 0.500000 0.713216 0.500000
O O17 0.250000 0.728947 0.458089
O O18 0.750000 0.145146 0.279266
O O19 0.546439 0.141287 0.203610
O O20 0.594034 0.000000 0.263983
O O21 0.250000 0.353180 0.761813
O O22 0.412728 0.500000 0.760307
O O23 0.250000 0.129379 0.872504
O O24 0.056499 0.000000 0.865476
#
# Coordination Sequence:
#
# PCOD8214178 Si02
#       8
#     8   8   8   8   8   8   8   8
#     4  11  24  39  56  79 106 140 184 227 265 311
#     4   9  18  34  54  74 101 136 167 202 254 310
#     4   9  18  33  52  74 102 133 163 202 252 302
#     4   9  19  37  58  79 107 143 178 214 263 321
#     4  10  22  37  51  71  98 130 173 215 250 297
#     4   8  15  30  53  80 106 132 165 204 250 305
#     4   9  17  30  52  83 111 134 167 211 258 309
#     4   9  19  37  59  82 111 144 175 214 265 317
#
# _framework density 19.347211999999999
#
# number of rings (size 3 to 8) (size 9 to 14) (size 15 to 20)
#    0.000    2.750    0.000    1.500    0.000    6.250 
#    0.000    5.000    0.000    0.000    0.000    0.000 
#    0.000    0.000    0.000    0.000    0.000    0.000 
#
# Total GULP energy -793542.453371 kJ/mol
# GULP energy per Si atom -12399.100834 kJ/mol
# Density = 1.930318 g / cm^3
# Si number density = 19.347212 Si / 1000 Ang^3
#
#
#
# Elastic Constant Matrix: (Units=GPa)
#
#
# Indices 1 2 3 4 5 6 
#
# 1 70.6878 3.0562 30.0643 0.0000 0.0000 0.0000
# 2 3.0562 20.8690 -18.6718 0.0000 0.0000 0.0000
# 3 30.0643 -18.6718 62.4276 0.0000 0.0000 0.0000
# 4 0.0000 0.0000 0.0000 17.9462 0.0000 0.0000
# 5 0.0000 0.0000 0.0000 0.0000 39.0731 0.0000
# 6 0.0000 0.0000 0.0000 0.0000 0.0000 18.4281
#
#
#
# Elastic Compliance Matrix: (Units=1/GPa)
#
#
# Indices 1 2 3 4 5 6 
#
# 1 0.021408 -0.016875 -0.015357 0.000000 0.000000 0.000000
# 2 -0.016875 0.078729 0.031674 0.000000 0.000000 0.000000
# 3 -0.015357 0.031674 0.032888 0.000000 0.000000 0.000000
# 4 0.000000 0.000000 0.000000 0.055722 0.000000 0.000000
# 5 0.000000 0.000000 0.000000 0.000000 0.025593 0.000000
# 6 0.000000 0.000000 0.000000 0.000000 0.000000 0.054265
#
#
# Mechanical properties :
#
#
# Convention : Reuss Voigt Hill
#
# Bulk Modulus (GPa) = 7.58102 20.32021 13.95062
# Shear Modulus (GPa) = 15.93930 24.39187 20.16559
#
# Velocity S-wave (km/s) = 2.87340 3.55455 3.23197
# Velocity P-wave (km/s) = 3.86465 5.23184 4.59933
#
# Compressibility (1/GPa) = 0.13190834
#
# Stress axis : x y z
#
# Youngs Moduli (GPa) = 46.71187 12.70186 30.40628
#
# Poissons Ratio (x) = 0.21435 0.46695
# Poissons Ratio (y) = 0.78827 -0.96310
# Poissons Ratio (z) = 0.71736 -0.40232
#
# Static dielectric constant tensor:
#      x y z
#    x 3.676940 0.000000 0.000000 
#    y 0.000000 3.558530 0.000000 
#    z 0.000000 0.000000 3.488860 
# 
# 
# High freq. dielectric constant tensor:
#      x y z
#    x 1.749870 0.000000 0.000000 
#    y 0.000000 1.753510 0.000000 
#    z 0.000000 0.000000 1.746500 
# 
# From -- ./inp_files/34977.got.cif
#   From: 2010.03.12/outbox.cif.g09.slc.cpg/sg51_18_cif.got.tgz:34977.got - 2010.04.16 13:43:02.
