data_PCOD8214820
_publ_section_title
;
Structure prediction by ZEFSAII (Michael W. Deem and Ramdas Pophale) SiO2 
 PCOD8214820
Probable space group: P M M A
;
_chemical_formula_sum "Si O2"
_cell_formula_units_Z 40
_cell_length_a 9.683370
_cell_length_b 9.748953
_cell_length_c 25.465996
_cell_angle_alpha 90.000000
_cell_angle_beta 90.000000
_cell_angle_gamma 90.000000
_cell_volume 2404.059265
_symmetry_space_group_name_H-M "P M M A"
_symmetry_group_IT_number 51
_symmetry_cell_setting 'orthorhombic'
loop_
_space_group_symop_operation_xyz
x,y,z
1/2-x,-y,z
1/2+x,-y,-z
-x,y,-z
-x,-y,-z
1/2+x,y,-z
1/2-x,y,z
x,-y,z
loop_
_atom_site_type_symbol
_atom_site_label
_atom_site_fract_x
_atom_site_fract_y
_atom_site_fract_z
Si Si1 0.090876 0.839243 0.239563
Si Si2 0.587565 0.342156 0.162416
Si Si3 0.913801 0.151422 0.642963
Si Si4 0.597713 0.662552 0.044774
Si Si5 0.089600 0.659039 0.450395
O O1 0.250000 0.796059 0.231479
O O2 0.040158 0.803740 0.298676
O O3 0.996152 0.754371 0.200811
O O4 0.071989 0.000000 0.228414
O O5 0.750000 0.317904 0.170269
O O6 0.549659 0.500000 0.174110
O O7 0.543467 0.301814 0.103061
O O8 0.750000 0.145633 0.642196
O O9 0.967989 0.258863 0.599924
O O10 0.972821 0.000000 0.629574
O O11 0.750000 0.725237 0.036417
O O12 0.605269 0.500000 0.038665
O O13 0.500000 0.727597 0.000000
O O14 0.250000 0.691403 0.461983
O O15 0.066350 0.500000 0.437955
O O16 0.000000 0.706725 0.500000
#
# Coordination Sequence:
#
# PCOD8214820 Si02
#       5
#     8   8   8   8   8
#     4   9  18  32  49  69  92 119 154 194 232 271
#     4   9  18  31  46  68  97 124 151 186 229 276
#     4   8  15  29  47  65  86 113 146 184 222 259
#     4   8  14  25  41  62  89 118 147 182 224 268
#     4   9  17  29  45  65  89 116 144 175 215 262
#
# _framework density 16.638525000000001
#
# number of rings (size 3 to 8) (size 9 to 14) (size 15 to 20)
#    0.000    3.400    0.000    2.400    0.000    2.800 
#    0.000    5.000    0.000    4.200    0.000    0.000 
#    0.000    0.000    0.000    0.000    0.000    0.000 
#
# Total GULP energy -495781.250741 kJ/mol
# GULP energy per Si atom -12394.531269 kJ/mol
# Density = 1.660065 g / cm^3
# Si number density = 16.638525 Si / 1000 Ang^3
#
#
#
# Elastic Constant Matrix: (Units=GPa)
#
#
# Indices 1 2 3 4 5 6 
#
# 1 55.8552 39.0875 66.4972 0.0000 0.0000 0.0000
# 2 39.0875 60.8038 73.6392 0.0000 0.0000 0.0000
# 3 66.4972 73.6392 163.9210 0.0000 0.0000 0.0000
# 4 0.0000 0.0000 0.0000 -3.7870 0.0000 0.0000
# 5 0.0000 0.0000 0.0000 0.0000 31.2433 0.0000
# 6 0.0000 0.0000 0.0000 0.0000 0.0000 22.3276
#
#
#
# Elastic Compliance Matrix: (Units=1/GPa)
#
#
# Indices 1 2 3 4 5 6 
#
# 1 0.038735 -0.012875 -0.009929 0.000000 0.000000 0.000000
# 2 -0.012875 0.040351 -0.012904 0.000000 0.000000 0.000000
# 3 -0.009929 -0.012904 0.015926 0.000000 0.000000 0.000000
# 4 0.000000 0.000000 0.000000 -0.264063 0.000000 0.000000
# 5 0.000000 0.000000 0.000000 0.000000 0.032007 0.000000
# 6 0.000000 0.000000 0.000000 0.000000 0.000000 0.044788
#
#
# Mechanical properties :
#
#
# Convention : Reuss Voigt Hill
#
# Bulk Modulus (GPa) = 42.38336 71.00309 56.69323
# Shear Modulus (GPa) = -385.36369 16.71387 -184.32491
#
# Velocity S-wave (km/s) = -15.23523 3.17287 -10.53672
# Velocity P-wave (km/s) = 16.85095 7.49595 10.67158
#
# Compressibility (1/GPa) = 0.02359416
#
# Stress axis : x y z
#
# Youngs Moduli (GPa) = 25.81665 24.78234 62.79191
#
# Poissons Ratio (x) = 0.31907 0.62349
# Poissons Ratio (y) = 0.33239 0.81029
# Poissons Ratio (z) = 0.25635 0.31980
#
# Static dielectric constant tensor:
#      x y z
#    x 2.640580 0.000000 0.000000 
#    y 0.000000 2.996400 0.000000 
#    z 0.000000 0.000000 3.361650 
# 
# 
# High freq. dielectric constant tensor:
#      x y z
#    x 1.619630 0.000000 0.000000 
#    y 0.000000 1.618390 0.000000 
#    z 0.000000 0.000000 1.651040 
# 
# From -- ./inp_files/31355.got.cif
#   From: 2010.03.12/outbox.cif.g09.slc.cpg/sg51_16_cif.got.tgz:31355.got - 2010.04.16 13:43:02.
