data_PCOD8214099
_publ_section_title
;
Structure prediction by ZEFSAII (Michael W. Deem and Ramdas Pophale) SiO2 
 PCOD8214099
Probable space group: P M M A
;
_chemical_formula_sum "Si O2"
_cell_formula_units_Z 64
_cell_length_a 23.780188
_cell_length_b 8.494784
_cell_length_c 15.367427
_cell_angle_alpha 90.000000
_cell_angle_beta 90.000000
_cell_angle_gamma 90.000000
_cell_volume 3104.336440
_symmetry_space_group_name_H-M "P M M A"
_symmetry_group_IT_number 51
_symmetry_cell_setting 'orthorhombic'
loop_
_space_group_symop_operation_xyz
x,y,z
1/2-x,-y,z
1/2+x,-y,-z
-x,y,-z
-x,-y,-z
1/2+x,y,-z
1/2-x,y,z
x,-y,z
loop_
_atom_site_type_symbol
_atom_site_label
_atom_site_fract_x
_atom_site_fract_y
_atom_site_fract_z
Si Si1 0.110108 0.181304 0.096978
Si Si2 0.620289 0.183135 0.597376
Si Si3 0.119416 0.316768 0.917157
Si Si4 0.313474 0.312639 0.750335
Si Si5 0.685031 0.682347 0.755291
Si Si6 0.001229 0.319540 0.836753
Si Si7 0.995922 0.818544 0.349069
Si Si8 0.616218 0.316264 0.414106
O O1 0.155229 0.213501 0.171702
O O2 0.054940 0.287882 0.108992
O O3 0.092458 0.000000 0.100773
O O4 0.137130 0.223486 0.003792
O O5 0.659354 0.283097 0.661046
O O6 0.555718 0.232411 0.612074
O O7 0.637248 0.223787 0.498959
O O8 0.629736 0.000000 0.616764
O O9 0.131907 0.500000 0.931987
O O10 0.156617 0.249692 0.837622
O O11 0.054007 0.284695 0.898215
O O12 0.250000 0.247878 0.746918
O O13 0.315091 0.500000 0.750348
O O14 0.347381 0.250086 0.666635
O O15 0.750000 0.729502 0.753649
O O16 0.676135 0.500000 0.778010
O O17 0.002387 0.500000 0.804352
O O18 0.003531 0.206443 0.754023
O O19 0.949329 0.712856 0.395659
O O20 0.982779 0.000000 0.369706
O O21 0.626530 0.500000 0.428980
#
# Coordination Sequence:
#
# PCOD8214099 Si02
#       8
#     8   8   8   8   8   8   8   8
#     4  12  25  40  61  93 128 163 198 245 312 374
#     4  11  24  41  62  92 126 162 200 251 315 371
#     4  10  21  39  62  91 122 160 207 254 303 357
#     4   9  19  38  62  87 117 155 204 257 302 347
#     4  11  25  45  68  91 117 159 213 261 304 360
#     4  11  21  37  63  92 123 159 205 254 301 364
#     4  11  22  37  60  90 126 163 200 249 313 374
#     4  11  22  38  62  93 124 163 209 254 305 365
#
# _framework density 20.616323000000001
#
# number of rings (size 3 to 8) (size 9 to 14) (size 15 to 20)
#    0.000    1.250    2.500    3.750    0.000    7.500 
#    0.000    2.500    0.000    2.625    0.000    0.000 
#    0.000    0.000    0.000    0.000    0.000    0.000 
#
# Total GULP energy -794040.760402 kJ/mol
# GULP energy per Si atom -12406.886881 kJ/mol
# Density = 2.056940 g / cm^3
# Si number density = 20.616323 Si / 1000 Ang^3
#
#
#
# Elastic Constant Matrix: (Units=GPa)
#
#
# Indices 1 2 3 4 5 6 
#
# 1 122.5630 26.6757 44.4223 0.0000 0.0000 0.0000
# 2 26.6757 45.4447 17.8601 0.0000 0.0000 0.0000
# 3 44.4223 17.8601 145.1269 0.0000 0.0000 0.0000
# 4 0.0000 0.0000 0.0000 28.2394 0.0000 0.0000
# 5 0.0000 0.0000 0.0000 0.0000 -3.2268 0.0000
# 6 0.0000 0.0000 0.0000 0.0000 0.0000 11.6447
#
#
#
# Elastic Compliance Matrix: (Units=1/GPa)
#
#
# Indices 1 2 3 4 5 6 
#
# 1 0.010146 -0.004976 -0.002493 0.000000 0.000000 0.000000
# 2 -0.004976 0.025563 -0.001623 0.000000 0.000000 0.000000
# 3 -0.002493 -0.001623 0.007853 0.000000 0.000000 0.000000
# 4 0.000000 0.000000 0.000000 0.035411 0.000000 0.000000
# 5 0.000000 0.000000 0.000000 0.000000 -0.309908 0.000000
# 6 0.000000 0.000000 0.000000 0.000000 0.000000 0.085876
#
#
# Mechanical properties :
#
#
# Convention : Reuss Voigt Hill
#
# Bulk Modulus (GPa) = 39.40294 54.56119 46.98207
# Shear Modulus (GPa) = -42.22431 22.27657 -9.97387
#
# Velocity S-wave (km/s) = -4.53050 3.29071 -2.20190
# Velocity P-wave (km/s) = 2.86589 6.40007 4.04645
#
# Compressibility (1/GPa) = 0.02537882
#
# Stress axis : x y z
#
# Youngs Moduli (GPa) = 98.56448 39.11870 127.33344
#
# Poissons Ratio (x) = 0.19464 0.31747
# Poissons Ratio (y) = 0.49042 0.20666
# Poissons Ratio (z) = 0.24574 0.06349
#
# Static dielectric constant tensor:
#      x y z
#    x 3.760750 0.000000 0.000000 
#    y 0.000000 3.524450 0.000000 
#    z 0.000000 0.000000 3.821970 
# 
# 
# High freq. dielectric constant tensor:
#      x y z
#    x 1.801500 0.000000 0.000000 
#    y 0.000000 1.794410 0.000000 
#    z 0.000000 0.000000 1.820800 
# 
# From -- ./inp_files/26235.got.cif
#   From: 2010.03.12/outbox.cif.g09.slc.cpg/sg51_14_cif.got.tgz:26235.got - 2010.04.16 13:43:02.
