data_PCOD8214319
_publ_section_title
;
Structure prediction by ZEFSAII (Michael W. Deem and Ramdas Pophale) SiO2 
 PCOD8214319
Probable space group: P M M A
;
_chemical_formula_sum "Si O2"
_cell_formula_units_Z 64
_cell_length_a 8.530110
_cell_length_b 15.367276
_cell_length_c 23.810443
_cell_angle_alpha 90.000000
_cell_angle_beta 90.000000
_cell_angle_gamma 90.000000
_cell_volume 3121.181317
_symmetry_space_group_name_H-M "P M M A"
_symmetry_group_IT_number 51
_symmetry_cell_setting 'orthorhombic'
loop_
_space_group_symop_operation_xyz
x,y,z
1/2-x,-y,z
1/2+x,-y,-z
-x,y,-z
-x,-y,-z
1/2+x,y,-z
1/2-x,y,z
x,-y,z
loop_
_atom_site_type_symbol
_atom_site_label
_atom_site_fract_x
_atom_site_fract_y
_atom_site_fract_z
Si Si1 0.066489 0.594948 0.633959
Si Si2 0.069202 0.597938 0.128846
Si Si3 0.929931 0.901042 0.640264
Si Si4 0.932740 0.752887 0.061295
Si Si5 0.570321 0.348784 0.747992
Si Si6 0.568355 0.837463 0.247072
Si Si7 0.436548 0.755561 0.562262
Si Si8 0.069917 0.902259 0.136315
O O1 0.250000 0.593830 0.624301
O O2 0.996355 0.500000 0.617045
O O3 0.994946 0.671460 0.595451
O O4 0.035724 0.612270 0.699184
O O5 0.250000 0.624077 0.118369
O O6 0.035422 0.500000 0.107345
O O7 0.030384 0.601035 0.194823
O O8 0.959379 0.664895 0.096257
O O9 0.750000 0.875292 0.651551
O O10 0.026941 0.891159 0.697448
O O11 0.000128 0.842046 0.591361
O O12 0.944977 0.000000 0.619419
O O13 0.750000 0.772924 0.058548
O O14 0.016822 0.835259 0.088902
O O15 0.000000 0.737598 0.000000
O O16 0.750000 0.362128 0.730579
O O17 0.537364 0.247647 0.756699
O O18 0.750000 0.810992 0.248685
O O19 0.533661 0.894760 0.192365
O O20 0.500000 0.750738 0.500000
O O21 0.250000 0.757881 0.562671
O O22 0.250000 0.883407 0.151992
O O23 0.048645 0.000000 0.112521
#
# Coordination Sequence:
#
# PCOD8214319 Si02
#       8
#     8   8   8   8   8   8   8   8
#     4  10  22  40  62  91 127 164 205 256 311 368
#     4  10  22  41  65  94 129 167 209 258 311 370
#     4  11  24  42  65  93 125 163 206 255 311 370
#     4  12  26  44  67  92 124 166 212 262 315 370
#     4  11  21  36  63  94 128 167 207 251 306 370
#     4  12  23  37  62  96 131 167 204 250 310 371
#     4  11  24  42  64  89 122 164 210 260 311 366
#     4  11  24  43  67  95 128 166 208 256 310 370
#
# _framework density 20.505056
#
# number of rings (size 3 to 8) (size 9 to 14) (size 15 to 20)
#    0.000    1.000    2.500    4.500    0.000    6.500 
#    0.000    0.000    0.000    0.000    0.000    0.000 
#    0.000    0.000    0.000    0.000    0.000    0.000 
#
# Total GULP energy -793906.758380 kJ/mol
# GULP energy per Si atom -12404.793100 kJ/mol
# Density = 2.045839 g / cm^3
# Si number density = 20.505056 Si / 1000 Ang^3
#
#
#
# Elastic Constant Matrix: (Units=GPa)
#
#
# Indices 1 2 3 4 5 6 
#
# 1 55.8120 30.1356 30.2711 0.0000 0.0000 0.0000
# 2 30.1356 134.7990 38.7288 0.0000 0.0000 0.0000
# 3 30.2711 38.7288 96.7569 0.0000 0.0000 0.0000
# 4 0.0000 0.0000 0.0000 11.5846 0.0000 0.0000
# 5 0.0000 0.0000 0.0000 0.0000 34.0371 0.0000
# 6 0.0000 0.0000 0.0000 0.0000 0.0000 22.7967
#
#
#
# Elastic Compliance Matrix: (Units=1/GPa)
#
#
# Indices 1 2 3 4 5 6 
#
# 1 0.022925 -0.003463 -0.005786 0.000000 0.000000 0.000000
# 2 -0.003463 0.008905 -0.002481 0.000000 0.000000 0.000000
# 3 -0.005786 -0.002481 0.013139 0.000000 0.000000 0.000000
# 4 0.000000 0.000000 0.000000 0.086321 0.000000 0.000000
# 5 0.000000 0.000000 0.000000 0.000000 0.029380 0.000000
# 6 0.000000 0.000000 0.000000 0.000000 0.000000 0.043866
#
#
# Mechanical properties :
#
#
# Convention : Reuss Voigt Hill
#
# Bulk Modulus (GPa) = 46.49248 53.95987 50.22617
# Shear Modulus (GPa) = 21.26150 26.23252 23.74701
#
# Velocity S-wave (km/s) = 3.22357 3.58064 3.40679
# Velocity P-wave (km/s) = 6.04798 6.59296 6.32634
#
# Compressibility (1/GPa) = 0.02150886
#
# Stress axis : x y z
#
# Youngs Moduli (GPa) = 43.61977 112.29077 76.11132
#
# Poissons Ratio (x) = 0.38883 0.44041
# Poissons Ratio (y) = 0.15104 0.18885
# Poissons Ratio (z) = 0.25240 0.27862
#
# Static dielectric constant tensor:
#      x y z
#    x 3.780640 0.000000 0.000000 
#    y 0.000000 4.027380 0.000000 
#    z 0.000000 0.000000 3.664860 
# 
# 
# High freq. dielectric constant tensor:
#      x y z
#    x 1.804650 0.000000 0.000000 
#    y 0.000000 1.817600 0.000000 
#    z 0.000000 0.000000 1.796580 
# 
# From -- ./inp_files/34987.got.cif
#   From: 2010.03.12/outbox.cif.g09.slc.cpg/sg51_18_cif.got.tgz:34987.got - 2010.04.16 13:43:02.
