data_PCOD8214162
_publ_section_title
;
Structure prediction by ZEFSAII (Michael W. Deem and Ramdas Pophale) SiO2 
 PCOD8214162
Probable space group: P M M A
;
_chemical_formula_sum "Si O2"
_cell_formula_units_Z 28
_cell_length_a 9.115216
_cell_length_b 7.619580
_cell_length_c 19.538699
_cell_angle_alpha 90.000000
_cell_angle_beta 90.000000
_cell_angle_gamma 90.000000
_cell_volume 1357.043097
_symmetry_space_group_name_H-M "P M M A"
_symmetry_group_IT_number 51
_symmetry_cell_setting 'orthorhombic'
loop_
_space_group_symop_operation_xyz
x,y,z
1/2-x,-y,z
1/2+x,-y,-z
-x,y,-z
-x,-y,-z
1/2+x,y,-z
1/2-x,y,z
x,-y,z
loop_
_atom_site_type_symbol
_atom_site_label
_atom_site_fract_x
_atom_site_fract_y
_atom_site_fract_z
Si Si1 0.418515 0.302624 0.847699
Si Si2 0.924458 0.000000 0.927005
Si Si3 0.915295 0.790794 0.565845
Si Si4 0.081776 0.797203 0.697795
O O1 0.250000 0.239721 0.858120
O O2 0.440365 0.500000 0.875921
O O3 0.457134 0.304361 0.767272
O O4 0.527211 0.174564 0.887326
O O5 0.750000 0.000000 0.935128
O O6 0.000000 0.000000 0.000000
O O7 0.750000 0.721882 0.562214
O O8 0.000000 0.714768 0.500000
O O9 0.986825 0.718299 0.635687
O O10 0.924071 0.000000 0.565794
O O11 0.250000 0.770924 0.676721
O O12 0.044867 0.000000 0.711056
#
# Coordination Sequence:
#
# PCOD8214162 Si02
#       4
#     8   4   8   8
#     4  10  21  40  66  94 125 161 202 247 298 358
#     4  12  26  44  68  94 127 162 199 244 294 354
#     4   9  16  25  40  67 103 144 192 244 297 350
#     4   9  16  29  51  78 111 150 191 239 295 353
#
# _framework density 20.633095000000001
#
# number of rings (size 3 to 8) (size 9 to 14) (size 15 to 20)
#    0.000    2.286    1.429    2.143    0.000    5.714 
#    0.000    0.000    0.000    0.857    0.000    0.000 
#    0.000    0.000    0.000    0.000    0.000    0.000 
#
# Total GULP energy -347222.956353 kJ/mol
# GULP energy per Si atom -12400.819870 kJ/mol
# Density = 2.058613 g / cm^3
# Si number density = 20.633095 Si / 1000 Ang^3
#
#
#
# Elastic Constant Matrix: (Units=GPa)
#
#
# Indices 1 2 3 4 5 6 
#
# 1 153.7229 41.9278 82.7486 0.0000 0.0000 0.0000
# 2 41.9278 74.8388 38.1899 0.0000 0.0000 0.0000
# 3 82.7486 38.1899 125.9006 0.0000 0.0000 0.0000
# 4 0.0000 0.0000 0.0000 -4.5815 0.0000 0.0000
# 5 0.0000 0.0000 0.0000 0.0000 43.3333 0.0000
# 6 0.0000 0.0000 0.0000 0.0000 0.0000 9.7175
#
#
#
# Elastic Compliance Matrix: (Units=1/GPa)
#
#
# Indices 1 2 3 4 5 6 
#
# 1 0.010542 -0.002804 -0.006078 0.000000 0.000000 0.000000
# 2 -0.002804 0.016555 -0.003179 0.000000 0.000000 0.000000
# 3 -0.006078 -0.003179 0.012902 0.000000 0.000000 0.000000
# 4 0.000000 0.000000 0.000000 -0.218268 0.000000 0.000000
# 5 0.000000 0.000000 0.000000 0.000000 0.023077 0.000000
# 6 0.000000 0.000000 0.000000 0.000000 0.000000 0.102907
#
#
# Mechanical properties :
#
#
# Convention : Reuss Voigt Hill
#
# Bulk Modulus (GPa) = 62.98469 75.57721 69.28095
# Shear Modulus (GPa) = -218.62238 22.46694 -98.07772
#
# Velocity S-wave (km/s) = -10.30472 3.30340 -6.90198
# Velocity P-wave (km/s) = 10.53521 7.15951 5.46498
#
# Compressibility (1/GPa) = 0.01587687
#
# Stress axis : x y z
#
# Youngs Moduli (GPa) = 94.85962 60.40399 77.50903
#
# Poissons Ratio (x) = 0.16940 0.47110
# Poissons Ratio (y) = 0.26603 0.24636
# Poissons Ratio (z) = 0.57656 0.19200
#
# Static dielectric constant tensor:
#      x y z
#    x 3.719280 0.000000 0.000000 
#    y 0.000000 0.956830 0.000000 
#    z 0.000000 0.000000 3.831960 
# 
# 
# High freq. dielectric constant tensor:
#      x y z
#    x 1.798520 0.000000 0.000000 
#    y 0.000000 1.788580 0.000000 
#    z 0.000000 0.000000 1.810990 
# 
# From -- ./inp_files/26871.got.cif
#   From: 2010.03.12/outbox.cif.g09.slc.cpg/sg51_14_cif.got.tgz:26871.got - 2010.04.16 13:43:02.
