data_PCOD8214140
_publ_section_title
;
Structure prediction by ZEFSAII (Michael W. Deem and Ramdas Pophale) SiO2 
 PCOD8214140
Probable space group: P M M A
;
_chemical_formula_sum "Si O2"
_cell_formula_units_Z 48
_cell_length_a 9.204958
_cell_length_b 28.656208
_cell_length_c 8.860382
_cell_angle_alpha 90.000000
_cell_angle_beta 90.000000
_cell_angle_gamma 90.000000
_cell_volume 2337.184397
_symmetry_space_group_name_H-M "P M M A"
_symmetry_group_IT_number 51
_symmetry_cell_setting 'orthorhombic'
loop_
_space_group_symop_operation_xyz
x,y,z
1/2-x,-y,z
1/2+x,-y,-z
-x,y,-z
-x,-y,-z
1/2+x,y,-z
1/2-x,y,z
x,-y,z
loop_
_atom_site_type_symbol
_atom_site_label
_atom_site_fract_x
_atom_site_fract_y
_atom_site_fract_z
Si Si1 0.073087 0.128688 0.158965
Si Si2 0.750000 0.555693 0.828678
Si Si3 0.919527 0.945263 0.345588
Si Si4 0.250000 0.444942 0.825054
Si Si5 0.080922 0.792641 0.652452
Si Si6 0.916487 0.700123 0.154423
Si Si7 0.498344 0.390784 0.677188
O O1 0.250000 0.128691 0.149787
O O2 0.009374 0.078649 0.210112
O O3 0.013946 0.165547 0.279636
O O4 0.000000 0.141651 0.000000
O O5 0.750000 0.500000 0.818330
O O6 0.624881 0.578352 0.736716
O O7 0.750000 0.572620 0.002168
O O8 0.750000 0.929262 0.350811
O O9 0.000000 0.931047 0.500000
O O10 0.929741 0.000000 0.315946
O O11 0.250000 0.500000 0.823772
O O12 0.376628 0.425080 0.728515
O O13 0.250000 0.807400 0.625879
O O14 0.073873 0.748813 0.761358
O O15 0.000000 0.777981 0.500000
O O16 0.750000 0.685530 0.124824
O O17 0.994339 0.660390 0.251095
O O18 0.000000 0.706489 0.000000
O O19 0.500000 0.382960 0.500000
#
# Coordination Sequence:
#
# PCOD8214140 Si02
#       7
#     8   4   8   4   8   8   8
#     4  12  25  42  64  93 130 173 221 273 332 395
#     4  11  25  43  67  95 125 171 215 259 320 383
#     4  10  21  39  64  94 129 172 221 273 331 394
#     4  11  23  43  67  91 129 167 213 263 314 387
#     4  11  24  44  68  97 132 169 215 268 325 389
#     4  11  25  44  68  96 128 167 212 260 319 387
#     4  12  25  42  64  96 130 166 211 264 322 382
#
# _framework density 20.537533
#
# number of rings (size 3 to 8) (size 9 to 14) (size 15 to 20)
#    0.000    0.833    0.833    6.500    1.167    7.333 
#    0.000    0.000    0.000    0.000    0.000    0.000 
#    0.000    0.000    0.000    0.000    0.000    0.000 
#
# Total GULP energy -594955.182368 kJ/mol
# GULP energy per Si atom -12394.899633 kJ/mol
# Density = 2.049079 g / cm^3
# Si number density = 20.537533 Si / 1000 Ang^3
#
#
#
# Elastic Constant Matrix: (Units=GPa)
#
#
# Indices 1 2 3 4 5 6 
#
# 1 185.0675 46.3977 63.6450 0.0000 0.0000 0.0000
# 2 46.3977 83.9575 37.9226 0.0000 0.0000 0.0000
# 3 63.6450 37.9226 138.5186 0.0000 0.0000 0.0000
# 4 0.0000 0.0000 0.0000 34.5454 0.0000 0.0000
# 5 0.0000 0.0000 0.0000 0.0000 37.3430 0.0000
# 6 0.0000 0.0000 0.0000 0.0000 0.0000 35.9451
#
#
#
# Elastic Compliance Matrix: (Units=1/GPa)
#
#
# Indices 1 2 3 4 5 6 
#
# 1 0.006924 -0.002727 -0.002435 0.000000 0.000000 0.000000
# 2 -0.002727 0.014665 -0.002762 0.000000 0.000000 0.000000
# 3 -0.002435 -0.002762 0.009094 0.000000 0.000000 0.000000
# 4 0.000000 0.000000 0.000000 0.028947 0.000000 0.000000
# 5 0.000000 0.000000 0.000000 0.000000 0.026779 0.000000
# 6 0.000000 0.000000 0.000000 0.000000 0.000000 0.027820
#
#
# Mechanical properties :
#
#
# Convention : Reuss Voigt Hill
#
# Bulk Modulus (GPa) = 67.40287 78.16381 72.78334
# Shear Modulus (GPa) = 37.03053 38.87193 37.95123
#
# Velocity S-wave (km/s) = 4.25086 4.35527 4.30338
# Velocity P-wave (km/s) = 7.54875 7.96447 7.75940
#
# Compressibility (1/GPa) = 0.01483616
#
# Stress axis : x y z
#
# Youngs Moduli (GPa) = 144.41506 68.18809 109.95952
#
# Poissons Ratio (x) = 0.18594 0.26776
# Poissons Ratio (y) = 0.39379 0.30372
# Poissons Ratio (z) = 0.35166 0.18834
#
# Static dielectric constant tensor:
#      x y z
#    x 4.029690 0.000000 0.000000 
#    y 0.000000 3.868360 0.000000 
#    z 0.000000 0.000000 3.871020 
# 
# 
# High freq. dielectric constant tensor:
#      x y z
#    x 1.825440 0.000000 0.000000 
#    y 0.000000 1.819890 0.000000 
#    z 0.000000 0.000000 1.813690 
# 
# From -- ./inp_files/6209.got.cif
#   From: 2010.03.12/outbox.cif.g09.slc.cpg/sg51_4_cif.got.tgz:6209.got - 2010.04.16 13:43:02.
