data_PCOD8214277
_publ_section_title
;
Structure prediction by ZEFSAII (Michael W. Deem and Ramdas Pophale) SiO2 
 PCOD8214277
Probable space group: P M M A
;
_chemical_formula_sum "Si O2"
_cell_formula_units_Z 48
_cell_length_a 8.316495
_cell_length_b 14.544850
_cell_length_c 20.255503
_cell_angle_alpha 90.000000
_cell_angle_beta 90.000000
_cell_angle_gamma 90.000000
_cell_volume 2450.149644
_symmetry_space_group_name_H-M "P M M A"
_symmetry_group_IT_number 51
_symmetry_cell_setting 'orthorhombic'
loop_
_space_group_symop_operation_xyz
x,y,z
1/2-x,-y,z
1/2+x,-y,-z
-x,y,-z
-x,-y,-z
1/2+x,y,-z
1/2-x,y,z
x,-y,z
loop_
_atom_site_type_symbol
_atom_site_label
_atom_site_fract_x
_atom_site_fract_y
_atom_site_fract_z
Si Si1 0.439536 0.697489 0.806501
Si Si2 0.559161 0.000000 0.873043
Si Si3 0.940642 0.193437 0.927837
Si Si4 0.440116 0.000000 0.274342
Si Si5 0.564972 0.500000 0.230250
Si Si6 0.937233 0.803743 0.682501
Si Si7 0.435827 0.318646 0.568968
Si Si8 0.066629 0.500000 0.372766
O O1 0.250000 0.701316 0.791167
O O2 0.477335 0.734111 0.878987
O O3 0.508664 0.593165 0.800862
O O4 0.533377 0.758617 0.753472
O O5 0.497562 0.090563 0.911078
O O6 0.484725 0.000000 0.799317
O O7 0.750000 0.000000 0.870154
O O8 0.750000 0.201169 0.921774
O O9 0.000000 0.220636 0.000000
O O10 0.495057 0.090302 0.314124
O O11 0.250000 0.000000 0.265725
O O12 0.750000 0.500000 0.212298
O O13 0.545939 0.500000 0.308995
O O14 0.750000 0.795280 0.664680
O O15 0.040709 0.756319 0.625862
O O16 0.500000 0.277381 0.500000
O O17 0.250000 0.344100 0.563959
O O18 0.534915 0.410633 0.583536
O O19 0.250000 0.500000 0.348580
#
# Coordination Sequence:
#
# PCOD8214277 Si02
#       8
#     8   4   8   4   4   8   8   4
#     4  11  22  38  60  87 119 157 198 245 297 352
#     4   9  17  33  57  86 119 155 190 240 299 354
#     4  11  22  38  59  85 120 157 198 244 299 360
#     4   9  18  35  60  90 122 154 196 247 296 349
#     4  10  22  39  60  87 122 155 196 249 298 346
#     4  11  21  38  63  90 120 159 201 245 297 354
#     4  12  25  42  61  88 125 161 201 249 302 358
#     4  12  23  37  62  93 124 159 198 243 300 362
#
# _framework density 19.590641000000002
#
# number of rings (size 3 to 8) (size 9 to 14) (size 15 to 20)
#    0.000    1.167    3.333    4.250    0.000    0.667 
#    0.000    4.583    0.000    0.000    0.000    0.000 
#    0.000    0.000    0.000    0.000    0.000    0.000 
#
# Total GULP energy -595399.793703 kJ/mol
# GULP energy per Si atom -12404.162369 kJ/mol
# Density = 1.954605 g / cm^3
# Si number density = 19.590641 Si / 1000 Ang^3
#
#
#
# Elastic Constant Matrix: (Units=GPa)
#
#
# Indices 1 2 3 4 5 6 
#
# 1 48.8615 21.9508 4.6309 0.0000 0.0000 0.0000
# 2 21.9508 144.9825 51.9196 0.0000 0.0000 0.0000
# 3 4.6309 51.9196 124.9223 0.0000 0.0000 0.0000
# 4 0.0000 0.0000 0.0000 81.6504 0.0000 0.0000
# 5 0.0000 0.0000 0.0000 0.0000 32.1759 0.0000
# 6 0.0000 0.0000 0.0000 0.0000 0.0000 -7.5537
#
#
#
# Elastic Compliance Matrix: (Units=1/GPa)
#
#
# Indices 1 2 3 4 5 6 
#
# 1 0.022007 -0.003571 0.000668 0.000000 0.000000 0.000000
# 2 -0.003571 0.008683 -0.003476 0.000000 0.000000 0.000000
# 3 0.000668 -0.003476 0.009425 0.000000 0.000000 0.000000
# 4 0.000000 0.000000 0.000000 0.012247 0.000000 0.000000
# 5 0.000000 0.000000 0.000000 0.000000 0.031079 0.000000
# 6 0.000000 0.000000 0.000000 0.000000 0.000000 -0.132386
#
#
# Mechanical properties :
#
#
# Convention : Reuss Voigt Hill
#
# Bulk Modulus (GPa) = 36.55419 52.86322 44.70871
# Shear Modulus (GPa) = -184.72917 37.27218 -73.72850
#
# Velocity S-wave (km/s) = -9.72108 4.36656 -6.14136
# Velocity P-wave (km/s) = 10.35855 7.24327 5.23616
#
# Compressibility (1/GPa) = 0.02735664
#
# Stress axis : x y z
#
# Youngs Moduli (GPa) = 45.43995 115.16715 106.10027
#
# Poissons Ratio (x) = 0.41130 -0.07093
# Poissons Ratio (y) = 0.16228 0.36885
# Poissons Ratio (z) = -0.03038 0.40037
#
# Static dielectric constant tensor:
#      x y z
#    x 3.409250 0.000000 0.000000 
#    y 0.000000 3.879190 0.000000 
#    z 0.000000 0.000000 3.501080 
# 
# 
# High freq. dielectric constant tensor:
#      x y z
#    x 1.756780 0.000000 0.000000 
#    y 0.000000 1.768060 0.000000 
#    z 0.000000 0.000000 1.759320 
# 
# From -- ./inp_files/27705.got.cif
#   From: 2010.03.12/outbox.cif.g09.slc.cpg/sg51_14_cif.got.tgz:27705.got - 2010.04.16 13:43:02.
