data_PCOD8214129
_publ_section_title
;
Structure prediction by ZEFSAII (Michael W. Deem and Ramdas Pophale) SiO2 
 PCOD8214129
Probable space group: P M M A
;
_chemical_formula_sum "Si O2"
_cell_formula_units_Z 48
_cell_length_a 8.484273
_cell_length_b 30.636818
_cell_length_c 9.043219
_cell_angle_alpha 90.000000
_cell_angle_beta 90.000000
_cell_angle_gamma 90.000000
_cell_volume 2350.614113
_symmetry_space_group_name_H-M "P M M A"
_symmetry_group_IT_number 51
_symmetry_cell_setting 'orthorhombic'
loop_
_space_group_symop_operation_xyz
x,y,z
1/2-x,-y,z
1/2+x,-y,-z
-x,y,-z
-x,-y,-z
1/2+x,y,-z
1/2-x,y,z
x,-y,z
loop_
_atom_site_type_symbol
_atom_site_label
_atom_site_fract_x
_atom_site_fract_y
_atom_site_fract_z
Si Si1 0.564753 0.865114 0.834565
Si Si2 0.065117 0.215418 0.661769
Si Si3 0.065050 0.374494 0.660396
Si Si4 0.065126 0.295374 0.160739
Si Si5 0.935645 0.450158 0.842875
Si Si6 0.065781 0.047265 0.836680
O O1 0.750000 0.855106 0.828476
O O2 0.468499 0.827976 0.752595
O O3 0.525715 0.912291 0.758352
O O4 0.500000 0.866489 0.000000
O O5 0.250000 0.225582 0.660173
O O6 0.000000 0.207410 0.500000
O O7 0.974437 0.256166 0.730184
O O8 0.250000 0.374350 0.650105
O O9 0.000000 0.361965 0.500000
O O10 0.010419 0.339835 0.781499
O O11 0.006793 0.422165 0.709455
O O12 0.250000 0.302199 0.151556
O O13 0.000000 0.283568 0.000000
O O14 0.750000 0.444944 0.842992
O O15 0.988759 0.500000 0.816393
O O16 0.000000 0.433104 0.000000
O O17 0.250000 0.058712 0.842666
O O18 0.037732 0.000000 0.756218
O O19 0.000000 0.042597 0.000000
#
# Coordination Sequence:
#
# PCOD8214129 Si02
#       6
#     8   8   8   8   8   8
#     4  11  21  35  56  84 116 153 195 240 290 344
#     4  12  25  43  63  87 118 153 193 238 291 349
#     4  12  25  42  63  90 124 162 202 246 298 354
#     4  12  25  44  67  93 122 155 196 241 291 346
#     4  10  21  39  63  91 123 161 205 252 301 353
#     4   9  16  27  46  75 110 147 188 237 290 341
#
# _framework density 20.420196000000001
#
# number of rings (size 3 to 8) (size 9 to 14) (size 15 to 20)
#    0.000    1.000    0.000    9.500    0.000    2.333 
#    0.000    0.000    0.000    0.500    0.000    0.000 
#    0.000    0.000    0.000    0.000    0.000    0.000 
#
# Total GULP energy -595302.937184 kJ/mol
# GULP energy per Si atom -12402.144525 kJ/mol
# Density = 2.037372 g / cm^3
# Si number density = 20.420196 Si / 1000 Ang^3
#
#
#
# Elastic Constant Matrix: (Units=GPa)
#
#
# Indices 1 2 3 4 5 6 
#
# 1 71.4676 24.7073 21.5592 0.0000 0.0000 0.0000
# 2 24.7073 114.7403 24.1306 0.0000 0.0000 0.0000
# 3 21.5592 24.1306 55.8551 0.0000 0.0000 0.0000
# 4 0.0000 0.0000 0.0000 -6.0025 0.0000 0.0000
# 5 0.0000 0.0000 0.0000 0.0000 33.2957 0.0000
# 6 0.0000 0.0000 0.0000 0.0000 0.0000 32.4449
#
#
#
# Elastic Compliance Matrix: (Units=1/GPa)
#
#
# Indices 1 2 3 4 5 6 
#
# 1 0.016427 -0.002424 -0.005293 0.000000 0.000000 0.000000
# 2 -0.002424 0.009944 -0.003360 0.000000 0.000000 0.000000
# 3 -0.005293 -0.003360 0.021398 0.000000 0.000000 0.000000
# 4 0.000000 0.000000 0.000000 -0.166596 0.000000 0.000000
# 5 0.000000 0.000000 0.000000 0.000000 0.030034 0.000000
# 6 0.000000 0.000000 0.000000 0.000000 0.000000 0.030821
#
#
# Mechanical properties :
#
#
# Convention : Reuss Voigt Hill
#
# Bulk Modulus (GPa) = 39.04124 42.53967 40.79045
# Shear Modulus (GPa) = -183.30186 23.39202 -79.95492
#
# Velocity S-wave (km/s) = -9.48472 3.38825 -6.26417
# Velocity P-wave (km/s) = 10.03922 6.01534 5.68338
#
# Compressibility (1/GPa) = 0.02561394
#
# Stress axis : x y z
#
# Youngs Moduli (GPa) = 60.87462 100.56292 46.73249
#
# Poissons Ratio (x) = 0.24377 0.24737
# Poissons Ratio (y) = 0.14756 0.15704
# Poissons Ratio (z) = 0.32223 0.33793
#
# Static dielectric constant tensor:
#      x y z
#    x 3.896730 0.000000 0.000000 
#    y 0.000000 4.286950 0.000000 
#    z 0.000000 0.000000 3.493000 
# 
# 
# High freq. dielectric constant tensor:
#      x y z
#    x 1.819280 0.000000 0.000000 
#    y 0.000000 1.823180 0.000000 
#    z 0.000000 0.000000 1.772510 
# 
# From -- ./inp_files/6055.got.cif
#   From: 2010.03.12/outbox.cif.g09.slc.cpg/sg51_4_cif.got.tgz:6055.got - 2010.04.16 13:43:02.
