data_PCOD8215665
_publ_section_title
;
Structure prediction by ZEFSAII (Michael W. Deem and Ramdas Pophale) SiO2 
 PCOD8215665
Probable space group: P N N A
;
_chemical_formula_sum "Si O2"
_cell_formula_units_Z 32
_cell_length_a 13.260939
_cell_length_b 5.038369
_cell_length_c 24.350685
_cell_angle_alpha 90.000000
_cell_angle_beta 90.000000
_cell_angle_gamma 90.000000
_cell_volume 1626.954589
_symmetry_space_group_name_H-M "P N N A"
_symmetry_group_IT_number 52
_symmetry_cell_setting 'orthorhombic'
loop_
_space_group_symop_operation_xyz
x,y,z
1/2-x,-y,z
x,1/2-y,1/2-z
1/2-x,1/2+y,1/2-z
-x,-y,-z
1/2+x,y,-z
-x,1/2+y,1/2+z
1/2+x,1/2-y,1/2+z
loop_
_atom_site_type_symbol
_atom_site_label
_atom_site_fract_x
_atom_site_fract_y
_atom_site_fract_z
Si Si1 0.963714 0.142709 0.898951
Si Si2 0.586644 0.377945 0.963165
Si Si3 0.313213 0.739581 0.930197
Si Si4 0.633560 0.997664 0.786650
O O1 0.892550 0.397563 0.915900
O O2 0.934951 0.024892 0.840174
O O3 0.079492 0.237760 0.899666
O O4 0.950129 0.902974 0.940876
O O5 0.500000 0.500000 0.000000
O O6 0.678994 0.318922 0.004125
O O7 0.250000 0.500000 0.902985
O O8 0.250000 0.000000 0.919789
O O9 0.607577 0.750000 0.750000
O O10 0.750000 0.000000 0.805351
O O11 0.604613 0.250000 0.750000
#
# Coordination Sequence:
#
# PCOD8215665 Si02
#       4
#     8   8   8   8
#     4  11  21  37  59  82 112 152 189 227 280 335
#     4  10  20  35  53  80 115 150 187 221 262 325
#     4  11  21  34  53  83 120 153 185 222 268 330
#     4  10  22  40  60  83 108 139 186 240 290 334
#
# _framework density 19.66865
#
# number of rings (size 3 to 8) (size 9 to 14) (size 15 to 20)
#    0.000    1.500    0.000    9.000    0.000    3.000 
#    0.000    0.000    0.000    3.000    0.000    0.000 
#    0.000    0.000    0.000    0.000    0.000    0.000 
#
# Total GULP energy -396661.061230 kJ/mol
# GULP energy per Si atom -12395.658163 kJ/mol
# Density = 1.962388 g / cm^3
# Si number density = 19.668650 Si / 1000 Ang^3
#
#
#
# Elastic Constant Matrix: (Units=GPa)
#
#
# Indices 1 2 3 4 5 6 
#
# 1 79.9065 45.5435 51.5247 0.0000 0.0000 0.0000
# 2 45.5435 159.7392 36.7704 0.0000 0.0000 0.0000
# 3 51.5247 36.7704 98.8914 0.0000 0.0000 0.0000
# 4 0.0000 0.0000 0.0000 -171.7673 0.0000 0.0000
# 5 0.0000 0.0000 0.0000 0.0000 49.1661 0.0000
# 6 0.0000 0.0000 0.0000 0.0000 0.0000 32.9170
#
#
#
# Elastic Compliance Matrix: (Units=1/GPa)
#
#
# Indices 1 2 3 4 5 6 
#
# 1 0.020706 -0.003740 -0.009398 0.000000 0.000000 0.000000
# 2 -0.003740 0.007522 -0.000848 0.000000 0.000000 0.000000
# 3 -0.009398 -0.000848 0.015324 0.000000 0.000000 0.000000
# 4 0.000000 0.000000 0.000000 -0.005822 0.000000 0.000000
# 5 0.000000 0.000000 0.000000 0.000000 0.020339 0.000000
# 6 0.000000 0.000000 0.000000 0.000000 0.000000 0.030379
#
#
# Mechanical properties :
#
#
# Convention : Reuss Voigt Hill
#
# Bulk Modulus (GPa) = 64.18553 67.35715 65.77134
# Shear Modulus (GPa) = 41.11374 -4.29026 18.41174
#
# Velocity S-wave (km/s) = 4.57696 -1.47851 3.06289
# Velocity P-wave (km/s) = 7.78689 5.60407 6.78385
#
# Compressibility (1/GPa) = 0.01557984
#
# Stress axis : x y z
#
# Youngs Moduli (GPa) = 48.29475 132.94665 65.25795
#
# Poissons Ratio (x) = 0.49726 0.61327
# Poissons Ratio (y) = 0.18064 0.05534
# Poissons Ratio (z) = 0.45386 0.11274
#
# Static dielectric constant tensor:
#      x y z
#    x 0.718440 0.000000 0.000000 
#    y 0.000000 4.260210 0.000000 
#    z 0.000000 0.000000 3.586580 
# 
# 
# High freq. dielectric constant tensor:
#      x y z
#    x 1.752200 0.000000 0.000000 
#    y 0.000000 1.801580 0.000000 
#    z 0.000000 0.000000 1.738870 
# 
# From -- ./inp_files/32698.got.cif
#   From: 2010.06.25/outbox.cif.g09.slc.cpg/sg52_17_cif.got.tgz:32698.got - 2010.06.26 19:32:48.
