data_PCOD8215303
_publ_section_title
;
Structure prediction by ZEFSAII (Michael W. Deem and Ramdas Pophale) SiO2 
 PCOD8215303
Probable space group: P N N A
;
_chemical_formula_sum "Si O2"
_cell_formula_units_Z 64
_cell_length_a 29.945259
_cell_length_b 11.853811
_cell_length_c 8.234499
_cell_angle_alpha 90.000000
_cell_angle_beta 90.000000
_cell_angle_gamma 90.000000
_cell_volume 2922.962565
_symmetry_space_group_name_H-M "P N N A"
_symmetry_group_IT_number 52
_symmetry_cell_setting 'orthorhombic'
loop_
_space_group_symop_operation_xyz
x,y,z
1/2-x,-y,z
x,1/2-y,1/2-z
1/2-x,1/2+y,1/2-z
-x,-y,-z
1/2+x,y,-z
-x,1/2+y,1/2+z
1/2+x,1/2-y,1/2+z
loop_
_atom_site_type_symbol
_atom_site_label
_atom_site_fract_x
_atom_site_fract_y
_atom_site_fract_z
Si Si1 0.162904 0.638915 0.644708
Si Si2 0.076387 0.217783 0.061411
Si Si3 0.594945 0.644790 0.864144
Si Si4 0.021431 0.739899 0.558048
Si Si5 0.764257 0.256184 0.942667
Si Si6 0.920538 0.042340 0.952037
Si Si7 0.668193 0.296841 0.930378
Si Si8 0.678255 0.953021 0.467077
O O1 0.151430 0.750000 0.750000
O O2 0.205546 0.661795 0.529204
O O3 0.121483 0.603429 0.535426
O O4 0.174414 0.537021 0.770687
O O5 0.078045 0.250000 0.250000
O O6 0.121351 0.269371 0.976777
O O7 0.029147 0.264972 0.995350
O O8 0.075805 0.087735 0.007210
O O9 0.605866 0.750000 0.750000
O O10 0.584800 0.541086 0.744019
O O11 0.552035 0.665401 0.976480
O O12 0.637191 0.624757 0.976148
O O13 0.025023 0.750000 0.750000
O O14 0.035840 0.613207 0.505171
O O15 0.768679 0.250000 0.750000
O O16 0.712757 0.236725 0.001326
O O17 0.776892 0.383997 0.993035
O O18 0.661945 0.250000 0.750000
O O19 0.676888 0.430192 0.937275
#
# Coordination Sequence:
#
# PCOD8215303 Si02
#       8
#     8   8   8   8   8   8   8   8
#     4  10  21  38  63  94 122 150 196 252 307 356
#     4  10  22  40  58  82 118 157 197 243 290 349
#     4  10  19  32  59  90 116 147 198 250 295 352
#     4  10  20  37  60  87 118 149 191 246 303 354
#     4  10  20  37  63  91 119 155 204 254 299 356
#     4  11  20  38  62  87 116 156 198 241 295 356
#     4  10  22  40  60  85 119 159 203 245 289 353
#     4  11  20  38  63  90 122 159 197 247 306 358
#
# _framework density 21.895593999999999
#
# number of rings (size 3 to 8) (size 9 to 14) (size 15 to 20)
#    0.000    1.750    0.000    7.500    0.000    0.000 
#    0.000   19.375    0.000    1.500    0.000    0.875 
#    0.000    0.000    0.000    0.000    0.000    0.000 
#
# Total GULP energy -793075.325095 kJ/mol
# GULP energy per Si atom -12391.801955 kJ/mol
# Density = 2.184576 g / cm^3
# Si number density = 21.895594 Si / 1000 Ang^3
#
#
#
# Elastic Constant Matrix: (Units=GPa)
#
#
# Indices 1 2 3 4 5 6 
#
# 1 188.2590 22.8534 46.2843 0.0000 0.0000 0.0000
# 2 22.8534 50.0552 17.1177 0.0000 0.0000 0.0000
# 3 46.2843 17.1177 97.9918 0.0000 0.0000 0.0000
# 4 0.0000 0.0000 0.0000 30.1042 0.0000 0.0000
# 5 0.0000 0.0000 0.0000 0.0000 18.0295 0.0000
# 6 0.0000 0.0000 0.0000 0.0000 0.0000 13.0259
#
#
#
# Elastic Compliance Matrix: (Units=1/GPa)
#
#
# Indices 1 2 3 4 5 6 
#
# 1 0.006182 -0.001940 -0.002581 0.000000 0.000000 0.000000
# 2 -0.001940 0.021856 -0.002902 0.000000 0.000000 0.000000
# 3 -0.002581 -0.002902 0.011931 0.000000 0.000000 0.000000
# 4 0.000000 0.000000 0.000000 0.033218 0.000000 0.000000
# 5 0.000000 0.000000 0.000000 0.000000 0.055465 0.000000
# 6 0.000000 0.000000 0.000000 0.000000 0.000000 0.076770
#
#
# Mechanical properties :
#
#
# Convention : Reuss Voigt Hill
#
# Bulk Modulus (GPa) = 39.80307 56.53520 48.16914
# Shear Modulus (GPa) = 21.86836 28.90196 25.38516
#
# Velocity S-wave (km/s) = 3.16374 3.63711 3.40865
# Velocity P-wave (km/s) = 5.61816 6.59655 6.12692
#
# Compressibility (1/GPa) = 0.02512369
#
# Stress axis : x y z
#
# Youngs Moduli (GPa) = 161.76355 45.75429 83.81585
#
# Poissons Ratio (x) = 0.08875 0.21633
# Poissons Ratio (y) = 0.31378 0.24321
# Poissons Ratio (z) = 0.41752 0.13277
#
# Static dielectric constant tensor:
#      x y z
#    x 4.558300 0.000000 0.000000 
#    y 0.000000 3.778490 0.000000 
#    z 0.000000 0.000000 4.075500 
# 
# 
# High freq. dielectric constant tensor:
#      x y z
#    x 1.883000 0.000000 0.000000 
#    y 0.000000 1.839220 0.000000 
#    z 0.000000 0.000000 1.848950 
# 
# From -- ./inp_files/15710.got.cif
#   From: 2010.06.25/outbox.cif.g09.slc.cpg/sg52_8_cif.got.tgz:15710.got - 2010.06.26 19:32:48.
