data_PCOD8215363
_publ_section_title
;
Structure prediction by ZEFSAII (Michael W. Deem and Ramdas Pophale) SiO2 
 PCOD8215363
Probable space group: P N N A
;
_chemical_formula_sum "Si O2"
_cell_formula_units_Z 40
_cell_length_a 14.639381
_cell_length_b 9.704283
_cell_length_c 14.106861
_cell_angle_alpha 90.000000
_cell_angle_beta 90.000000
_cell_angle_gamma 90.000000
_cell_volume 2004.086922
_symmetry_space_group_name_H-M "P N N A"
_symmetry_group_IT_number 52
_symmetry_cell_setting 'orthorhombic'
loop_
_space_group_symop_operation_xyz
x,y,z
1/2-x,-y,z
x,1/2-y,1/2-z
1/2-x,1/2+y,1/2-z
-x,-y,-z
1/2+x,y,-z
-x,1/2+y,1/2+z
1/2+x,1/2-y,1/2+z
loop_
_atom_site_type_symbol
_atom_site_label
_atom_site_fract_x
_atom_site_fract_y
_atom_site_fract_z
Si Si1 0.394242 0.033935 0.998239
Si Si2 0.323703 0.247103 0.641272
Si Si3 0.626701 0.253811 0.428939
Si Si4 0.854206 0.027191 0.510876
Si Si5 0.929916 0.249726 0.857987
O O1 0.371267 0.129992 0.088785
O O2 0.362553 0.112599 0.903386
O O3 0.500000 0.000000 0.000000
O O4 0.346033 0.883857 0.997134
O O5 0.355520 0.250000 0.750000
O O6 0.213922 0.229664 0.637598
O O7 0.365301 0.116635 0.585345
O O8 0.537815 0.284473 0.365246
O O9 0.601050 0.122136 0.493608
O O10 0.905974 0.102101 0.596859
O O11 0.750000 0.000000 0.540025
O O12 0.898614 0.250000 0.750000
#
# Coordination Sequence:
#
# PCOD8215363 Si02
#       5
#     8   8   8   8   8
#     4   9  20  36  52  77 112 145 178 218 268 329
#     4  10  20  34  55  83 111 139 176 226 281 336
#     4  10  19  34  56  80 108 139 176 227 286 330
#     4   9  20  36  52  75 107 141 179 222 270 329
#     4  10  20  36  55  77 107 144 184 225 271 328
#
# _framework density 19.959213999999999
#
# number of rings (size 3 to 8) (size 9 to 14) (size 15 to 20)
#    0.000    2.400    0.000    1.800    0.000    8.000 
#    0.000    7.000    0.000    0.000    0.000    1.400 
#    0.000    0.000    0.000    0.000    0.000    0.000 
#
# Total GULP energy -495785.477215 kJ/mol
# GULP energy per Si atom -12394.636930 kJ/mol
# Density = 1.991379 g / cm^3
# Si number density = 19.959214 Si / 1000 Ang^3
#
#
#
# Elastic Constant Matrix: (Units=GPa)
#
#
# Indices 1 2 3 4 5 6 
#
# 1 48.3725 9.0567 26.8837 0.0000 0.0000 0.0000
# 2 9.0567 169.8599 70.7028 0.0000 0.0000 0.0000
# 3 26.8837 70.7028 162.5015 0.0000 0.0000 0.0000
# 4 0.0000 0.0000 0.0000 11.2918 0.0000 0.0000
# 5 0.0000 0.0000 0.0000 0.0000 19.2478 0.0000
# 6 0.0000 0.0000 0.0000 0.0000 0.0000 30.3181
#
#
#
# Elastic Compliance Matrix: (Units=1/GPa)
#
#
# Indices 1 2 3 4 5 6 
#
# 1 0.022792 0.000433 -0.003959 0.000000 0.000000 0.000000
# 2 0.000433 0.007197 -0.003203 0.000000 0.000000 0.000000
# 3 -0.003959 -0.003203 0.008202 0.000000 0.000000 0.000000
# 4 0.000000 0.000000 0.000000 0.088560 0.000000 0.000000
# 5 0.000000 0.000000 0.000000 0.000000 0.051954 0.000000
# 6 0.000000 0.000000 0.000000 0.000000 0.000000 0.032984
#
#
# Mechanical properties :
#
#
# Convention : Reuss Voigt Hill
#
# Bulk Modulus (GPa) = 40.43154 66.00227 53.21690
# Shear Modulus (GPa) = 21.42312 30.44424 25.93368
#
# Velocity S-wave (km/s) = 3.27975 3.90978 3.60854
# Velocity P-wave (km/s) = 5.88586 7.31588 6.63949
#
# Compressibility (1/GPa) = 0.02473317
#
# Stress axis : x y z
#
# Youngs Moduli (GPa) = 43.87481 138.93910 121.91612
#
# Poissons Ratio (x) = -0.06010 0.48265
# Poissons Ratio (y) = -0.01898 0.39051
# Poissons Ratio (z) = 0.17369 0.44503
#
# Static dielectric constant tensor:
#      x y z
#    x 3.642530 0.000000 0.000000 
#    y 0.000000 4.285390 0.000000 
#    z 0.000000 0.000000 3.733280 
# 
# 
# High freq. dielectric constant tensor:
#      x y z
#    x 1.774850 0.000000 0.000000 
#    y 0.000000 1.799410 0.000000 
#    z 0.000000 0.000000 1.742020 
# 
# From -- ./inp_files/20268.got.cif
#   From: 2010.06.25/outbox.cif.g09.slc.cpg/sg52_11_cif.got.tgz:20268.got - 2010.06.26 19:32:48.
