data_PCOD8215471
_publ_section_title
;
Structure prediction by ZEFSAII (Michael W. Deem and Ramdas Pophale) SiO2 
 PCOD8215471
Probable space group: P N N A
;
_chemical_formula_sum "Si O2"
_cell_formula_units_Z 60
_cell_length_a 14.842977
_cell_length_b 17.521126
_cell_length_c 12.636942
_cell_angle_alpha 90.000000
_cell_angle_beta 90.000000
_cell_angle_gamma 90.000000
_cell_volume 3286.434791
_symmetry_space_group_name_H-M "P N N A"
_symmetry_group_IT_number 52
_symmetry_cell_setting 'orthorhombic'
loop_
_space_group_symop_operation_xyz
x,y,z
1/2-x,-y,z
x,1/2-y,1/2-z
1/2-x,1/2+y,1/2-z
-x,-y,-z
1/2+x,y,-z
-x,1/2+y,1/2+z
1/2+x,1/2-y,1/2+z
loop_
_atom_site_type_symbol
_atom_site_label
_atom_site_fract_x
_atom_site_fract_y
_atom_site_fract_z
Si Si1 0.018159 0.220979 0.921048
Si Si2 0.118992 0.631105 0.801718
Si Si3 0.470665 0.986915 0.619524
Si Si4 0.785570 0.578774 0.068689
Si Si5 0.951740 0.149127 0.718732
Si Si6 0.122726 0.787544 0.909206
Si Si7 0.796582 0.761952 0.526363
Si Si8 0.715357 0.750000 0.750000
O O1 0.018265 0.165648 0.818215
O O2 0.986905 0.304788 0.883915
O O3 0.112035 0.225425 0.982399
O O4 0.945271 0.185769 0.000535
O O5 0.042696 0.568159 0.824317
O O6 0.216527 0.603138 0.839879
O O7 0.087982 0.707780 0.860806
O O8 0.126016 0.645607 0.677055
O O9 0.380675 0.935971 0.624520
O O10 0.546028 0.939903 0.685783
O O11 0.500000 0.000000 0.500000
O O12 0.750000 0.500000 0.013663
O O13 0.794423 0.645890 0.982755
O O14 0.849418 0.175400 0.743714
O O15 0.221684 0.777455 0.955117
O O16 0.780782 0.742497 0.649224
#
# Coordination Sequence:
#
# PCOD8215471 Si02
#       8
#     8   8   8   8   8   8   8   4
#     4  10  20  34  58  82 114 148 192 234 275 349
#     4   9  21  33  56  80 114 145 186 241 285 332
#     4  11  21  35  57  84 113 145 184 240 296 338
#     4   9  20  34  53  85 110 139 186 239 291 336
#     4  10  20  37  56  83 114 149 192 233 286 346
#     4  10  19  37  55  84 116 147 189 239 287 334
#     4  11  20  35  60  83 114 153 189 239 290 339
#     4  10  22  36  56  84 118 154 190 232 294 348
#
# _framework density 18.256865999999999
#
# number of rings (size 3 to 8) (size 9 to 14) (size 15 to 20)
#    0.000    2.133    4.000    0.800    5.600    2.133 
#    0.000    0.667    0.000    0.000    0.000    0.000 
#    0.000    0.000    0.000    0.000    0.000    0.000 
#
# Total GULP energy -743869.172463 kJ/mol
# GULP energy per Si atom -12397.819541 kJ/mol
# Density = 1.821531 g / cm^3
# Si number density = 18.256866 Si / 1000 Ang^3
#
#
#
# Elastic Constant Matrix: (Units=GPa)
#
#
# Indices 1 2 3 4 5 6 
#
# 1 78.2914 20.4002 39.3344 0.0000 0.0000 0.0000
# 2 20.4002 78.8837 42.9738 0.0000 0.0000 0.0000
# 3 39.3344 42.9738 118.0937 0.0000 0.0000 0.0000
# 4 0.0000 0.0000 0.0000 22.4477 0.0000 0.0000
# 5 0.0000 0.0000 0.0000 0.0000 34.4934 0.0000
# 6 0.0000 0.0000 0.0000 0.0000 0.0000 17.3785
#
#
#
# Elastic Compliance Matrix: (Units=1/GPa)
#
#
# Indices 1 2 3 4 5 6 
#
# 1 0.015479 -0.001490 -0.004614 0.000000 0.000000 0.000000
# 2 -0.001490 0.015955 -0.005310 0.000000 0.000000 0.000000
# 3 -0.004614 -0.005310 0.011937 0.000000 0.000000 0.000000
# 4 0.000000 0.000000 0.000000 0.044548 0.000000 0.000000
# 5 0.000000 0.000000 0.000000 0.000000 0.028991 0.000000
# 6 0.000000 0.000000 0.000000 0.000000 0.000000 0.057542
#
#
# Mechanical properties :
#
#
# Convention : Reuss Voigt Hill
#
# Bulk Modulus (GPa) = 48.67493 53.40950 51.04221
# Shear Modulus (GPa) = 24.49471 26.36795 25.43133
#
# Velocity S-wave (km/s) = 3.66686 3.80449 3.73631
# Velocity P-wave (km/s) = 6.68183 6.97257 6.82875
#
# Compressibility (1/GPa) = 0.02054446
#
# Stress axis : x y z
#
# Youngs Moduli (GPa) = 64.60420 62.67741 83.77514
#
# Poissons Ratio (x) = 0.09337 0.38651
# Poissons Ratio (y) = 0.09624 0.44482
# Poissons Ratio (z) = 0.29806 0.33280
#
# Static dielectric constant tensor:
#      x y z
#    x 3.353360 0.000000 0.000000 
#    y 0.000000 3.395620 0.000000 
#    z 0.000000 0.000000 3.357880 
# 
# 
# High freq. dielectric constant tensor:
#      x y z
#    x 1.704330 0.000000 0.000000 
#    y 0.000000 1.687380 0.000000 
#    z 0.000000 0.000000 1.703430 
# 
# From -- ./inp_files/19939.got.cif
#   From: 2010.06.25/outbox.cif.g09.slc.cpg/sg52_10_cif.got.tgz:19939.got - 2010.06.26 19:32:48.
