data_PCOD8215802
_publ_section_title
;
Structure prediction by ZEFSAII (Michael W. Deem and Ramdas Pophale) SiO2 
 PCOD8215802
Probable space group: P N N A
;
_chemical_formula_sum "Si O2"
_cell_formula_units_Z 60
_cell_length_a 10.140700
_cell_length_b 24.468367
_cell_length_c 13.422146
_cell_angle_alpha 90.000000
_cell_angle_beta 90.000000
_cell_angle_gamma 90.000000
_cell_volume 3330.388354
_symmetry_space_group_name_H-M "P N N A"
_symmetry_group_IT_number 52
_symmetry_cell_setting 'orthorhombic'
loop_
_space_group_symop_operation_xyz
x,y,z
1/2-x,-y,z
x,1/2-y,1/2-z
1/2-x,1/2+y,1/2-z
-x,-y,-z
1/2+x,y,-z
-x,1/2+y,1/2+z
1/2+x,1/2-y,1/2+z
loop_
_atom_site_type_symbol
_atom_site_label
_atom_site_fract_x
_atom_site_fract_y
_atom_site_fract_z
Si Si1 0.239025 0.562021 0.794208
Si Si2 0.481021 0.876753 0.598312
Si Si3 0.375216 0.463177 0.990623
Si Si4 0.945089 0.250000 0.250000
Si Si5 0.334304 0.287527 0.462319
Si Si6 0.990564 0.190645 0.782897
Si Si7 0.269563 0.157144 0.847850
Si Si8 0.071482 0.280492 0.047263
O O1 0.250000 0.500000 0.753249
O O2 0.367364 0.585690 0.852229
O O3 0.192954 0.598957 0.701162
O O4 0.127603 0.560711 0.878850
O O5 0.605771 0.912552 0.564526
O O6 0.547351 0.839664 0.681886
O O7 0.426481 0.840588 0.504570
O O8 0.250000 0.500000 0.018887
O O9 0.500000 0.500000 0.000000
O O10 0.849038 0.204301 0.207430
O O11 0.034437 0.279072 0.164868
O O12 0.359246 0.310909 0.351597
O O13 0.307127 0.339114 0.535474
O O14 0.216143 0.244484 0.467143
O O15 0.468780 0.257079 0.489334
O O16 0.036728 0.250000 0.750000
O O17 0.112899 0.163053 0.838815
#
# Coordination Sequence:
#
# PCOD8215802 Si02
#       8
#     8   8   8   4   8   8   8   8
#     4  10  21  37  60  85 111 154 205 238 290 364
#     4  11  22  36  62  87 115 164 193 240 306 356
#     4  11  21  39  57  86 121 146 195 251 295 349
#     4  10  22  36  54  88 120 150 196 230 300 360
#     4  11  22  39  54  88 122 152 195 243 296 349
#     4  11  20  36  59  84 119 152 198 233 298 363
#     4  10  20  37  61  80 116 157 195 242 294 360
#     4  11  24  35  58  85 125 152 195 239 293 369
#
# _framework density 18.015917000000002
#
# number of rings (size 3 to 8) (size 9 to 14) (size 15 to 20)
#    0.000    1.333    6.000    0.800    8.400    0.000 
#    0.000    1.333    0.000    4.000    0.000    0.000 
#    0.000    0.000    0.000    0.000    0.000    0.000 
#
# Total GULP energy -743574.453020 kJ/mol
# GULP energy per Si atom -12392.907550 kJ/mol
# Density = 1.797491 g / cm^3
# Si number density = 18.015917 Si / 1000 Ang^3
#
#
#
# Elastic Constant Matrix: (Units=GPa)
#
#
# Indices 1 2 3 4 5 6 
#
# 1 81.7620 33.3008 32.6188 0.0000 0.0000 0.0000
# 2 33.3008 115.5006 52.2946 0.0000 0.0000 0.0000
# 3 32.6188 52.2946 104.4989 0.0000 0.0000 0.0000
# 4 0.0000 0.0000 0.0000 40.3223 0.0000 0.0000
# 5 0.0000 0.0000 0.0000 0.0000 21.2934 0.0000
# 6 0.0000 0.0000 0.0000 0.0000 0.0000 26.4600
#
#
#
# Elastic Compliance Matrix: (Units=1/GPa)
#
#
# Indices 1 2 3 4 5 6 
#
# 1 0.014630 -0.002780 -0.003175 0.000000 0.000000 0.000000
# 2 -0.002780 0.011723 -0.004999 0.000000 0.000000 0.000000
# 3 -0.003175 -0.004999 0.013062 0.000000 0.000000 0.000000
# 4 0.000000 0.000000 0.000000 0.024800 0.000000 0.000000
# 5 0.000000 0.000000 0.000000 0.000000 0.046963 0.000000
# 6 0.000000 0.000000 0.000000 0.000000 0.000000 0.037793
#
#
# Mechanical properties :
#
#
# Convention : Reuss Voigt Hill
#
# Bulk Modulus (GPa) = 57.12241 59.79887 58.46064
# Shear Modulus (GPa) = 28.29426 29.85163 29.07295
#
# Velocity S-wave (km/s) = 3.96727 4.07499 4.02149
# Velocity P-wave (km/s) = 7.26369 7.44346 7.35412
#
# Compressibility (1/GPa) = 0.01750626
#
# Stress axis : x y z
#
# Youngs Moduli (GPa) = 68.35366 85.30411 76.55769
#
# Poissons Ratio (x) = 0.23718 0.24309
# Poissons Ratio (y) = 0.19005 0.38268
# Poissons Ratio (z) = 0.21704 0.42640
#
# Static dielectric constant tensor:
#      x y z
#    x 3.236830 0.000000 0.000000 
#    y 0.000000 3.498680 0.000000 
#    z 0.000000 0.000000 3.588990 
# 
# 
# High freq. dielectric constant tensor:
#      x y z
#    x 1.693260 0.000000 0.000000 
#    y 0.000000 1.688080 0.000000 
#    z 0.000000 0.000000 1.699520 
# 
# From -- ./inp_files/25095.got.cif
#   From: 2010.06.25/outbox.cif.g09.slc.cpg/sg52_13_cif.got.tgz:25095.got - 2010.06.26 19:32:48.
