data_PCOD8215070
_publ_section_title
;
Structure prediction by ZEFSAII (Michael W. Deem and Ramdas Pophale) SiO2 
 PCOD8215070
Probable space group: P N N A
;
_chemical_formula_sum "Si O2"
_cell_formula_units_Z 60
_cell_length_a 9.407951
_cell_length_b 15.666266
_cell_length_c 24.962051
_cell_angle_alpha 90.000000
_cell_angle_beta 90.000000
_cell_angle_gamma 90.000000
_cell_volume 3679.093365
_symmetry_space_group_name_H-M "P N N A"
_symmetry_group_IT_number 52
_symmetry_cell_setting 'orthorhombic'
loop_
_space_group_symop_operation_xyz
x,y,z
1/2-x,-y,z
x,1/2-y,1/2-z
1/2-x,1/2+y,1/2-z
-x,-y,-z
1/2+x,y,-z
-x,1/2+y,1/2+z
1/2+x,1/2-y,1/2+z
loop_
_atom_site_type_symbol
_atom_site_label
_atom_site_fract_x
_atom_site_fract_y
_atom_site_fract_z
Si Si1 0.215579 0.094043 0.208947
Si Si2 0.498578 0.337214 0.780419
Si Si3 0.595037 0.626228 0.808559
Si Si4 0.800508 0.756225 0.639969
Si Si5 0.720715 0.400523 0.171724
Si Si6 0.750000 0.000000 0.619044
Si Si7 0.393431 0.856325 0.452105
Si Si8 0.276901 0.399498 0.948051
O O1 0.338301 0.128191 0.248890
O O2 0.192229 0.157782 0.158569
O O3 0.069589 0.088891 0.243604
O O4 0.250000 0.000000 0.186251
O O5 0.517909 0.250000 0.750000
O O6 0.588792 0.324812 0.834291
O O7 0.336184 0.355176 0.791431
O O8 0.645278 0.708594 0.843065
O O9 0.426501 0.627858 0.802135
O O10 0.632802 0.541356 0.842025
O O11 0.843850 0.767597 0.577468
O O12 0.750000 0.500000 0.174296
O O13 0.730668 0.368520 0.110748
O O14 0.829297 0.934591 0.580872
O O15 0.325078 0.850465 0.510786
O O16 0.561311 0.870976 0.458625
O O17 0.250000 0.500000 0.955270
#
# Coordination Sequence:
#
# PCOD8215070 Si02
#       8
#     8   8   8   8   8   4   8   8
#     4  10  18  33  55  73  91 127 170 204 246 301
#     4   9  18  34  49  67  99 134 158 192 251 301
#     4  10  19  29  49  72 102 130 167 194 240 283
#     4   9  20  34  49  68  99 132 162 206 247 290
#     4  11  21  30  46  74 104 134 166 199 236 289
#     4  10  18  30  48  66 102 142 158 196 238 280
#     4  11  21  33  47  69 104 132 170 201 239 292
#     4  11  22  31  48  71 101 135 171 200 238 291
#
# _framework density 16.308364999999998
#
# number of rings (size 3 to 8) (size 9 to 14) (size 15 to 20)
#    0.000    1.867    2.667    4.000    5.600    1.067 
#    0.000    0.000    0.000    0.000    0.000    0.933 
#    0.000    0.000    0.000    0.000    0.000    0.000 
#
# Total GULP energy -743758.038982 kJ/mol
# GULP energy per Si atom -12395.967316 kJ/mol
# Density = 1.627125 g / cm^3
# Si number density = 16.308365 Si / 1000 Ang^3
#
#
#
# Elastic Constant Matrix: (Units=GPa)
#
#
# Indices 1 2 3 4 5 6 
#
# 1 121.1677 17.7352 25.3931 0.0000 0.0000 0.0000
# 2 17.7352 55.5051 15.4962 0.0000 0.0000 0.0000
# 3 25.3931 15.4962 57.6068 0.0000 0.0000 0.0000
# 4 0.0000 0.0000 0.0000 37.9597 0.0000 0.0000
# 5 0.0000 0.0000 0.0000 0.0000 29.8788 0.0000
# 6 0.0000 0.0000 0.0000 0.0000 0.0000 17.2917
#
#
#
# Elastic Compliance Matrix: (Units=1/GPa)
#
#
# Indices 1 2 3 4 5 6 
#
# 1 0.009289 -0.001973 -0.003564 0.000000 0.000000 0.000000
# 2 -0.001973 0.019898 -0.004483 0.000000 0.000000 0.000000
# 3 -0.003564 -0.004483 0.020136 0.000000 0.000000 0.000000
# 4 0.000000 0.000000 0.000000 0.026344 0.000000 0.000000
# 5 0.000000 0.000000 0.000000 0.000000 0.033468 0.000000
# 6 0.000000 0.000000 0.000000 0.000000 0.000000 0.057831
#
#
# Mechanical properties :
#
#
# Convention : Reuss Voigt Hill
#
# Bulk Modulus (GPa) = 34.14885 39.05872 36.60379
# Shear Modulus (GPa) = 25.41079 28.73639 27.07359
#
# Velocity S-wave (km/s) = 3.95162 4.20225 4.07886
# Velocity P-wave (km/s) = 6.46570 6.89545 6.68403
#
# Compressibility (1/GPa) = 0.02928356
#
# Stress axis : x y z
#
# Youngs Moduli (GPa) = 107.65815 50.25543 49.66264
#
# Poissons Ratio (x) = 0.09915 0.17698
# Poissons Ratio (y) = 0.21241 0.22263
# Poissons Ratio (z) = 0.38366 0.22529
#
# Static dielectric constant tensor:
#      x y z
#    x 2.483650 0.000000 0.000000 
#    y 0.000000 2.840550 0.000000 
#    z 0.000000 0.000000 3.113380 
# 
# 
# High freq. dielectric constant tensor:
#      x y z
#    x 1.633060 0.000000 0.000000 
#    y 0.000000 1.594570 0.000000 
#    z 0.000000 0.000000 1.614160 
# 
# From -- ./inp_files/42400.got.cif
#   From: 2010.06.25/outbox.cif.g09.slc.cpg/sg52_22_cif.got.tgz:42400.got - 2010.06.26 19:32:48.
