data_PCOD8215743
_publ_section_title
;
Structure prediction by ZEFSAII (Michael W. Deem and Ramdas Pophale) SiO2 
 PCOD8215743
Probable space group: P N N A
;
_chemical_formula_sum "Si O2"
_cell_formula_units_Z 44
_cell_length_a 19.082796
_cell_length_b 7.398100
_cell_length_c 15.178044
_cell_angle_alpha 90.000000
_cell_angle_beta 90.000000
_cell_angle_gamma 90.000000
_cell_volume 2142.782113
_symmetry_space_group_name_H-M "P N N A"
_symmetry_group_IT_number 52
_symmetry_cell_setting 'orthorhombic'
loop_
_space_group_symop_operation_xyz
x,y,z
1/2-x,-y,z
x,1/2-y,1/2-z
1/2-x,1/2+y,1/2-z
-x,-y,-z
1/2+x,y,-z
-x,1/2+y,1/2+z
1/2+x,1/2-y,1/2+z
loop_
_atom_site_type_symbol
_atom_site_label
_atom_site_fract_x
_atom_site_fract_y
_atom_site_fract_z
Si Si1 0.376804 0.046041 0.081812
Si Si2 0.750000 0.500000 0.465654
Si Si3 0.668947 0.459602 0.767911
Si Si4 0.219235 0.804130 0.649381
Si Si5 0.423521 0.860533 0.420864
Si Si6 0.577287 0.670628 0.047731
O O1 0.360714 0.080110 0.185994
O O2 0.393132 0.837594 0.066043
O O3 0.306732 0.085644 0.029294
O O4 0.430887 0.186343 0.035350
O O5 0.728763 0.333076 0.402115
O O6 0.750000 0.500000 0.790221
O O7 0.661416 0.250000 0.750000
O O8 0.617886 0.488572 0.850999
O O9 0.218441 0.750000 0.750000
O O10 0.139933 0.782526 0.613849
O O11 0.250000 0.000000 0.633349
O O12 0.505229 0.830352 0.396043
O O13 0.414127 0.967228 0.511954
#
# Coordination Sequence:
#
# PCOD8215743 Si02
#       6
#     8   4   8   8   8   8
#     4  10  20  37  61  88 119 157 201 245 304 358
#     4  10  20  36  60  88 116 154 198 250 302 358
#     4  10  22  35  60  92 125 154 201 252 304 362
#     4  11  22  38  61  86 116 152 201 254 298 353
#     4  10  22  40  57  88 123 158 199 250 291 369
#     4  10  23  39  62  83 120 163 202 238 310 358
#
# _framework density 20.534051999999999
#
# number of rings (size 3 to 8) (size 9 to 14) (size 15 to 20)
#    0.000    1.818    1.818    1.636    2.545    4.364 
#    0.000    0.000    4.000    0.000    0.000    0.000 
#    0.000    0.000    0.000    0.000    0.000    0.000 
#
# Total GULP energy -545210.099143 kJ/mol
# GULP energy per Si atom -12391.138617 kJ/mol
# Density = 2.048732 g / cm^3
# Si number density = 20.534052 Si / 1000 Ang^3
#
#
#
# Elastic Constant Matrix: (Units=GPa)
#
#
# Indices 1 2 3 4 5 6 
#
# 1 73.1369 -3.8052 34.7271 0.0000 0.0000 0.0000
# 2 -3.8052 69.5622 17.6243 0.0000 0.0000 0.0000
# 3 34.7271 17.6243 87.0164 0.0000 0.0000 0.0000
# 4 0.0000 0.0000 0.0000 -5.9352 0.0000 0.0000
# 5 0.0000 0.0000 0.0000 0.0000 -9.6409 0.0000
# 6 0.0000 0.0000 0.0000 0.0000 0.0000 28.0596
#
#
#
# Elastic Compliance Matrix: (Units=1/GPa)
#
#
# Indices 1 2 3 4 5 6 
#
# 1 0.017392 0.002857 -0.007519 0.000000 0.000000 0.000000
# 2 0.002857 0.015622 -0.004304 0.000000 0.000000 0.000000
# 3 -0.007519 -0.004304 0.015365 0.000000 0.000000 0.000000
# 4 0.000000 0.000000 0.000000 -0.168487 0.000000 0.000000
# 5 0.000000 0.000000 0.000000 0.000000 -0.103724 0.000000
# 6 0.000000 0.000000 0.000000 0.000000 0.000000 0.035638
#
#
# Mechanical properties :
#
#
# Convention : Reuss Voigt Hill
#
# Bulk Modulus (GPa) = 32.84618 36.31199 34.57908
# Shear Modulus (GPa) = -31.22825 14.57465 -8.32680
#
# Velocity S-wave (km/s) = -3.90398 2.66706 -2.01592
# Velocity P-wave (km/s) = 2.07140 5.21598 3.38495
#
# Compressibility (1/GPa) = 0.03044494
#
# Stress axis : x y z
#
# Youngs Moduli (GPa) = 57.49756 64.01075 65.08395
#
# Poissons Ratio (x) = -0.18285 0.48940
# Poissons Ratio (y) = -0.16424 0.28013
# Poissons Ratio (z) = 0.43235 0.27551
#
# Static dielectric constant tensor:
#      x y z
#    x 4.354950 0.000000 0.000000 
#    y 0.000000 3.946850 0.000000 
#    z 0.000000 0.000000 3.909890 
# 
# 
# High freq. dielectric constant tensor:
#      x y z
#    x 1.789280 0.000000 0.000000 
#    y 0.000000 1.819310 0.000000 
#    z 0.000000 0.000000 1.800020 
# 
# From -- ./inp_files/27940.got.cif
#   From: 2010.06.25/outbox.cif.g09.slc.cpg/sg52_14_cif.got.tgz:27940.got - 2010.06.26 19:32:48.
