data_PCOD8215212
_publ_section_title
;
Structure prediction by ZEFSAII (Michael W. Deem and Ramdas Pophale) SiO2 
 PCOD8215212
Probable space group: P N N A
;
_chemical_formula_sum "Si O2"
_cell_formula_units_Z 36
_cell_length_a 8.713187
_cell_length_b 13.937353
_cell_length_c 13.613558
_cell_angle_alpha 90.000000
_cell_angle_beta 90.000000
_cell_angle_gamma 90.000000
_cell_volume 1653.213643
_symmetry_space_group_name_H-M "P N N A"
_symmetry_group_IT_number 52
_symmetry_cell_setting 'orthorhombic'
loop_
_space_group_symop_operation_xyz
x,y,z
1/2-x,-y,z
x,1/2-y,1/2-z
1/2-x,1/2+y,1/2-z
-x,-y,-z
1/2+x,y,-z
-x,1/2+y,1/2+z
1/2+x,1/2-y,1/2+z
loop_
_atom_site_type_symbol
_atom_site_label
_atom_site_fract_x
_atom_site_fract_y
_atom_site_fract_z
Si Si1 0.955929 0.592426 0.626452
Si Si2 0.567460 0.750000 0.250000
Si Si3 0.438714 0.404968 0.055243
Si Si4 0.750000 0.000000 0.030408
Si Si5 0.250000 0.500000 0.214408
Si Si6 0.246940 0.614659 0.878307
O O1 0.967392 0.704306 0.660667
O O2 0.123454 0.552068 0.597349
O O3 0.835143 0.580079 0.537289
O O4 0.892559 0.536415 0.721495
O O5 0.676142 0.662407 0.217594
O O6 0.317455 0.419278 0.142774
O O7 0.580741 0.347260 0.102071
O O8 0.500000 0.500000 0.000000
O O9 0.351916 0.346697 0.970704
O O10 0.250000 0.500000 0.864818
#
# Coordination Sequence:
#
# PCOD8215212 Si02
#       6
#     8   4   8   4   4   8
#     4  10  23  42  69  97 129 181 233 286 331 425
#     4  12  26  38  68 106 132 174 240 284 316 418
#     4  10  18  36  63  94 125 168 208 270 344 398
#     4   9  22  48  71  88 138 192 227 272 370 401
#     4  11  20  38  71  96 122 168 225 278 340 399
#     4  10  22  39  63  92 134 173 214 273 345 396
#
# _framework density 21.775769
#
# number of rings (size 3 to 8) (size 9 to 14) (size 15 to 20)
#    0.000    1.778    3.333    2.667    4.667    1.778 
#    0.000    1.111    0.000    0.000    0.000    0.000 
#    0.000    0.000    0.000    0.000    0.000    0.000 
#
# Total GULP energy -446095.451625 kJ/mol
# GULP energy per Si atom -12391.540323 kJ/mol
# Density = 2.172621 g / cm^3
# Si number density = 21.775769 Si / 1000 Ang^3
#
#
#
# Elastic Constant Matrix: (Units=GPa)
#
#
# Indices 1 2 3 4 5 6 
#
# 1 147.1020 38.7556 57.3386 0.0000 0.0000 0.0000
# 2 38.7556 76.9418 42.4492 0.0000 0.0000 0.0000
# 3 57.3386 42.4492 120.5505 0.0000 0.0000 0.0000
# 4 0.0000 0.0000 0.0000 29.0547 0.0000 0.0000
# 5 0.0000 0.0000 0.0000 0.0000 41.7062 0.0000
# 6 0.0000 0.0000 0.0000 0.0000 0.0000 20.9685
#
#
#
# Elastic Compliance Matrix: (Units=1/GPa)
#
#
# Indices 1 2 3 4 5 6 
#
# 1 0.008751 -0.002621 -0.003240 0.000000 0.000000 0.000000
# 2 -0.002621 0.016915 -0.004710 0.000000 0.000000 0.000000
# 3 -0.003240 -0.004710 0.011495 0.000000 0.000000 0.000000
# 4 0.000000 0.000000 0.000000 0.034418 0.000000 0.000000
# 5 0.000000 0.000000 0.000000 0.000000 0.023977 0.000000
# 6 0.000000 0.000000 0.000000 0.000000 0.000000 0.047691
#
#
# Mechanical properties :
#
#
# Convention : Reuss Voigt Hill
#
# Bulk Modulus (GPa) = 62.41853 69.07566 65.74710
# Shear Modulus (GPa) = 29.45898 32.08260 30.77079
#
# Velocity S-wave (km/s) = 3.68208 3.84254 3.76317
# Velocity P-wave (km/s) = 6.84130 7.17475 7.01001
#
# Compressibility (1/GPa) = 0.01602088
#
# Stress axis : x y z
#
# Youngs Moduli (GPa) = 114.26989 59.11798 86.99705
#
# Poissons Ratio (x) = 0.15493 0.28184
# Poissons Ratio (y) = 0.29946 0.40974
# Poissons Ratio (z) = 0.37019 0.27844
#
# Static dielectric constant tensor:
#      x y z
#    x 4.555990 0.000000 0.000000 
#    y 0.000000 3.370040 0.000000 
#    z 0.000000 0.000000 4.130680 
# 
# 
# High freq. dielectric constant tensor:
#      x y z
#    x 1.877890 0.000000 0.000000 
#    y 0.000000 1.795000 0.000000 
#    z 0.000000 0.000000 1.872780 
# 
# From -- ./inp_files/24347.got.cif
#   From: 2010.06.25/outbox.cif.g09.slc.cpg/sg52_13_cif.got.tgz:24347.got - 2010.06.26 19:32:48.
