data_PCOD8215759
_publ_section_title
;
Structure prediction by ZEFSAII (Michael W. Deem and Ramdas Pophale) SiO2 
 PCOD8215759
Probable space group: P N N A
;
_chemical_formula_sum "Si O2"
_cell_formula_units_Z 56
_cell_length_a 21.066413
_cell_length_b 10.690400
_cell_length_c 11.563032
_cell_angle_alpha 90.000000
_cell_angle_beta 90.000000
_cell_angle_gamma 90.000000
_cell_volume 2604.091722
_symmetry_space_group_name_H-M "P N N A"
_symmetry_group_IT_number 52
_symmetry_cell_setting 'orthorhombic'
loop_
_space_group_symop_operation_xyz
x,y,z
1/2-x,-y,z
x,1/2-y,1/2-z
1/2-x,1/2+y,1/2-z
-x,-y,-z
1/2+x,y,-z
-x,1/2+y,1/2+z
1/2+x,1/2-y,1/2+z
loop_
_atom_site_type_symbol
_atom_site_label
_atom_site_fract_x
_atom_site_fract_y
_atom_site_fract_z
Si Si1 0.187026 0.420545 0.624879
Si Si2 0.149628 0.822774 0.631223
Si Si3 0.657343 0.300928 0.979809
Si Si4 0.516419 0.486812 0.684369
Si Si5 0.410765 0.750000 0.250000
Si Si6 0.750000 0.000000 0.475469
Si Si7 0.091697 0.071128 0.675321
Si Si8 0.410757 0.098976 0.986930
O O1 0.250000 0.500000 0.649527
O O2 0.201768 0.294724 0.552776
O O3 0.151772 0.389723 0.745103
O O4 0.139169 0.493057 0.542593
O O5 0.164086 0.750000 0.750000
O O6 0.213348 0.898293 0.601853
O O7 0.124511 0.732068 0.529420
O O8 0.093946 0.922737 0.650888
O O9 0.632416 0.238400 0.863736
O O10 0.699640 0.422843 0.947378
O O11 0.597423 0.344367 0.060203
O O12 0.549523 0.378380 0.760211
O O13 0.476591 0.585654 0.763179
O O14 0.471678 0.411211 0.595890
O O15 0.567095 0.575274 0.618530
#
# Coordination Sequence:
#
# PCOD8215759 Si02
#       8
#     8   8   8   8   4   4   8   8
#     4  11  21  38  67 102 131 169 212 275 335 394
#     4  11  19  36  61  96 129 175 214 268 338 395
#     4  11  25  43  62 100 130 174 223 271 336 394
#     4  10  20  39  65  94 125 177 215 273 324 392
#     4  12  24  44  70  86 134 184 222 270 328 406
#     4  10  26  40  60  86 140 166 220 284 318 398
#     4  10  23  39  66 100 132 166 218 280 334 393
#     4  10  20  36  62  97 132 165 225 256 324 405
#
# _framework density 21.504619999999999
#
# number of rings (size 3 to 8) (size 9 to 14) (size 15 to 20)
#    0.000    1.429    4.286    2.143    4.000    0.571 
#    1.286    0.000    6.286    0.000    0.000    0.000 
#    0.000    0.000    0.000    0.000    0.000    0.000 
#
# Total GULP energy -694185.522337 kJ/mol
# GULP energy per Si atom -12396.170042 kJ/mol
# Density = 2.145567 g / cm^3
# Si number density = 21.504620 Si / 1000 Ang^3
#
#
#
# Elastic Constant Matrix: (Units=GPa)
#
#
# Indices 1 2 3 4 5 6 
#
# 1 85.4596 28.7744 38.9626 0.0000 0.0000 0.0000
# 2 28.7744 98.4114 36.9013 0.0000 0.0000 0.0000
# 3 38.9626 36.9013 96.8402 0.0000 0.0000 0.0000
# 4 0.0000 0.0000 0.0000 33.9345 0.0000 0.0000
# 5 0.0000 0.0000 0.0000 0.0000 8.7671 0.0000
# 6 0.0000 0.0000 0.0000 0.0000 0.0000 33.8983
#
#
#
# Elastic Compliance Matrix: (Units=1/GPa)
#
#
# Indices 1 2 3 4 5 6 
#
# 1 0.014818 -0.002447 -0.005030 0.000000 0.000000 0.000000
# 2 -0.002447 0.012259 -0.003687 0.000000 0.000000 0.000000
# 3 -0.005030 -0.003687 0.013755 0.000000 0.000000 0.000000
# 4 0.000000 0.000000 0.000000 0.029469 0.000000 0.000000
# 5 0.000000 0.000000 0.000000 0.000000 0.114063 0.000000
# 6 0.000000 0.000000 0.000000 0.000000 0.000000 0.029500
#
#
# Mechanical properties :
#
#
# Convention : Reuss Voigt Hill
#
# Bulk Modulus (GPa) = 54.03747 54.44310 54.24029
# Shear Modulus (GPa) = 20.63051 27.05818 23.84435
#
# Velocity S-wave (km/s) = 3.10070 3.55103 3.33348
# Velocity P-wave (km/s) = 6.16458 6.49500 6.33194
#
# Compressibility (1/GPa) = 0.01850568
#
# Stress axis : x y z
#
# Youngs Moduli (GPa) = 67.48373 81.57037 72.70140
#
# Poissons Ratio (x) = 0.19958 0.36566
# Poissons Ratio (y) = 0.16512 0.26805
# Poissons Ratio (z) = 0.33942 0.30075
#
# Static dielectric constant tensor:
#      x y z
#    x 3.922680 0.000000 0.000000 
#    y 0.000000 4.089770 0.000000 
#    z 0.000000 0.000000 3.590360 
# 
# 
# High freq. dielectric constant tensor:
#      x y z
#    x 1.837510 0.000000 0.000000 
#    y 0.000000 1.856440 0.000000 
#    z 0.000000 0.000000 1.810270 
# 
# From -- ./inp_files/21741.got.cif
#   From: 2010.06.25/outbox.cif.g09.slc.cpg/sg52_11_cif.got.tgz:21741.got - 2010.06.26 19:32:48.
