data_PCOD8215693
_publ_section_title
;
Structure prediction by ZEFSAII (Michael W. Deem and Ramdas Pophale) SiO2 
 PCOD8215693
Probable space group: P N N A
;
_chemical_formula_sum "Si O2"
_cell_formula_units_Z 48
_cell_length_a 19.769571
_cell_length_b 11.104505
_cell_length_c 10.481970
_cell_angle_alpha 90.000000
_cell_angle_beta 90.000000
_cell_angle_gamma 90.000000
_cell_volume 2301.120501
_symmetry_space_group_name_H-M "P N N A"
_symmetry_group_IT_number 52
_symmetry_cell_setting 'orthorhombic'
loop_
_space_group_symop_operation_xyz
x,y,z
1/2-x,-y,z
x,1/2-y,1/2-z
1/2-x,1/2+y,1/2-z
-x,-y,-z
1/2+x,y,-z
-x,1/2+y,1/2+z
1/2+x,1/2-y,1/2+z
loop_
_atom_site_type_symbol
_atom_site_label
_atom_site_fract_x
_atom_site_fract_y
_atom_site_fract_z
Si Si1 0.925745 0.841075 0.635918
Si Si2 0.750000 0.000000 0.236262
Si Si3 0.185517 0.703855 0.607389
Si Si4 0.685646 0.171588 0.439173
Si Si5 0.041209 0.674851 0.532877
Si Si6 0.499739 0.467695 0.289911
Si Si7 0.409973 0.750000 0.750000
O O1 0.907614 0.750000 0.750000
O O2 0.856244 0.873650 0.561884
O O3 0.982980 0.776315 0.547088
O O4 0.950244 0.971764 0.686043
O O5 0.702249 0.934799 0.132046
O O6 0.800809 0.928993 0.330992
O O7 0.189211 0.750000 0.750000
O O8 0.243186 0.768389 0.520724
O O9 0.114798 0.735366 0.540698
O O10 0.637271 0.272460 0.373583
O O11 0.039263 0.607397 0.398217
O O12 0.039646 0.578965 0.647724
O O13 0.547542 0.371235 0.220356
#
# Coordination Sequence:
#
# PCOD8215693 Si02
#       7
#     8   4   8   8   8   8   4
#     4  10  22  42  64  90 125 170 207 256 315 381
#     4  10  20  36  58  92 118 152 204 256 316 360
#     4  10  20  35  59  89 116 155 201 264 307 368
#     4  11  22  39  61  90 125 158 205 257 316 375
#     4  10  20  39  63  90 122 160 219 257 311 375
#     4  10  22  36  62  91 125 165 207 260 313 382
#     4  12  20  40  60  96 124 160 204 256 322 370
#
# _framework density 20.859404000000001
#
# number of rings (size 3 to 8) (size 9 to 14) (size 15 to 20)
#    0.000    1.667    4.167    2.500    0.000    2.000 
#    6.000    1.667    0.000    0.000    0.000    0.000 
#    0.000    0.000    0.000    0.000    0.000    0.000 
#
# Total GULP energy -594688.158278 kJ/mol
# GULP energy per Si atom -12389.336631 kJ/mol
# Density = 2.081193 g / cm^3
# Si number density = 20.859404 Si / 1000 Ang^3
#
#
#
# Elastic Constant Matrix: (Units=GPa)
#
#
# Indices 1 2 3 4 5 6 
#
# 1 154.7148 30.6179 49.8207 0.0000 0.0000 0.0000
# 2 30.6179 62.8180 19.0772 0.0000 0.0000 0.0000
# 3 49.8207 19.0772 56.1076 0.0000 0.0000 0.0000
# 4 0.0000 0.0000 0.0000 23.8135 0.0000 0.0000
# 5 0.0000 0.0000 0.0000 0.0000 41.8902 0.0000
# 6 0.0000 0.0000 0.0000 0.0000 0.0000 25.1114
#
#
#
# Elastic Compliance Matrix: (Units=1/GPa)
#
#
# Indices 1 2 3 4 5 6 
#
# 1 0.009332 -0.002266 -0.007516 0.000000 0.000000 0.000000
# 2 -0.002266 0.018302 -0.004211 0.000000 0.000000 0.000000
# 3 -0.007516 -0.004211 0.025929 0.000000 0.000000 0.000000
# 4 0.000000 0.000000 0.000000 0.041993 0.000000 0.000000
# 5 0.000000 0.000000 0.000000 0.000000 0.023872 0.000000
# 6 0.000000 0.000000 0.000000 0.000000 0.000000 0.039822
#
#
# Mechanical properties :
#
#
# Convention : Reuss Voigt Hill
#
# Bulk Modulus (GPa) = 39.09743 52.51911 45.80827
# Shear Modulus (GPa) = 25.54119 29.77133 27.65626
#
# Velocity S-wave (km/s) = 3.50300 3.78198 3.64516
# Velocity P-wave (km/s) = 5.92835 6.65609 6.30273
#
# Compressibility (1/GPa) = 0.02557713
#
# Stress axis : x y z
#
# Youngs Moduli (GPa) = 107.15517 54.63796 38.56750
#
# Poissons Ratio (x) = 0.12381 0.28988
# Poissons Ratio (y) = 0.24282 0.16240
# Poissons Ratio (z) = 0.80539 0.23007
#
# Static dielectric constant tensor:
#      x y z
#    x 3.933200 0.000000 0.000000 
#    y 0.000000 3.622710 0.000000 
#    z 0.000000 0.000000 3.575560 
# 
# 
# High freq. dielectric constant tensor:
#      x y z
#    x 1.817870 0.000000 0.000000 
#    y 0.000000 1.815590 0.000000 
#    z 0.000000 0.000000 1.790310 
# 
# From -- ./inp_files/20674.got.cif
#   From: 2010.06.25/outbox.cif.g09.slc.cpg/sg52_11_cif.got.tgz:20674.got - 2010.06.26 19:32:48.
