data_PCOD8215732
_publ_section_title
;
Structure prediction by ZEFSAII (Michael W. Deem and Ramdas Pophale) SiO2 
 PCOD8215732
Probable space group: P N N A
;
_chemical_formula_sum "Si O2"
_cell_formula_units_Z 48
_cell_length_a 19.610424
_cell_length_b 15.107715
_cell_length_c 8.007750
_cell_angle_alpha 90.000000
_cell_angle_beta 90.000000
_cell_angle_gamma 90.000000
_cell_volume 2372.445657
_symmetry_space_group_name_H-M "P N N A"
_symmetry_group_IT_number 52
_symmetry_cell_setting 'orthorhombic'
loop_
_space_group_symop_operation_xyz
x,y,z
1/2-x,-y,z
x,1/2-y,1/2-z
1/2-x,1/2+y,1/2-z
-x,-y,-z
1/2+x,y,-z
-x,1/2+y,1/2+z
1/2+x,1/2-y,1/2+z
loop_
_atom_site_type_symbol
_atom_site_label
_atom_site_fract_x
_atom_site_fract_y
_atom_site_fract_z
Si Si1 0.826562 0.494942 0.893322
Si Si2 0.311103 0.336872 0.355783
Si Si3 0.465844 0.592804 0.554599
Si Si4 0.557459 0.506532 0.139079
Si Si5 0.653409 0.343473 0.675287
Si Si6 0.078060 0.668878 0.626178
O O1 0.750000 0.500000 0.958296
O O2 0.835093 0.421884 0.748935
O O3 0.851010 0.589404 0.828413
O O4 0.870017 0.474871 0.055860
O O5 0.330706 0.250000 0.250000
O O6 0.230532 0.338390 0.395625
O O7 0.348831 0.339820 0.535058
O O8 0.500000 0.500000 0.500000
O O9 0.447588 0.583676 0.751460
O O10 0.395020 0.618526 0.467378
O O11 0.520278 0.672397 0.520304
O O12 0.550469 0.588140 0.263680
O O13 0.500000 0.500000 0.000000
O O14 0.628517 0.250000 0.750000
O O15 0.079668 0.750000 0.750000
#
# Coordination Sequence:
#
# PCOD8215732 Si02
#       6
#     8   8   8   8   8   8
#     4  10  20  36  59  84 115 156 198 244 301 362
#     4  10  21  39  63  89 119 157 203 256 313 370
#     4  10  21  37  58  83 115 156 201 247 296 355
#     4  11  22  37  56  83 120 155 196 248 298 357
#     4  10  21  40  62  86 121 162 204 252 310 371
#     4  11  22  37  61  87 116 154 200 253 304 363
#
# _framework density 20.232285999999998
#
# number of rings (size 3 to 8) (size 9 to 14) (size 15 to 20)
#    0.000    1.667    0.000    6.500    0.000    1.333 
#    0.000    2.500    0.000    0.000    0.000    0.000 
#    0.000    0.000    0.000    0.000    0.000    0.000 
#
# Total GULP energy -594905.314026 kJ/mol
# GULP energy per Si atom -12393.860709 kJ/mol
# Density = 2.018624 g / cm^3
# Si number density = 20.232286 Si / 1000 Ang^3
#
#
#
# Elastic Constant Matrix: (Units=GPa)
#
#
# Indices 1 2 3 4 5 6 
#
# 1 121.9542 43.2936 77.7420 0.0000 0.0000 0.0000
# 2 43.2936 107.9169 50.5500 0.0000 0.0000 0.0000
# 3 77.7420 50.5500 124.5688 0.0000 0.0000 0.0000
# 4 0.0000 0.0000 0.0000 33.4742 0.0000 0.0000
# 5 0.0000 0.0000 0.0000 0.0000 11.8592 0.0000
# 6 0.0000 0.0000 0.0000 0.0000 0.0000 25.6370
#
#
#
# Elastic Compliance Matrix: (Units=1/GPa)
#
#
# Indices 1 2 3 4 5 6 
#
# 1 0.013916 -0.001870 -0.007926 0.000000 0.000000 0.000000
# 2 -0.001870 0.011692 -0.003578 0.000000 0.000000 0.000000
# 3 -0.007926 -0.003578 0.014426 0.000000 0.000000 0.000000
# 4 0.000000 0.000000 0.000000 0.029874 0.000000 0.000000
# 5 0.000000 0.000000 0.000000 0.000000 0.084323 0.000000
# 6 0.000000 0.000000 0.000000 0.000000 0.000000 0.039006
#
#
# Mechanical properties :
#
#
# Convention : Reuss Voigt Hill
#
# Bulk Modulus (GPa) = 75.26128 77.51235 76.38681
# Shear Modulus (GPa) = 22.28020 26.38437 24.33228
#
# Velocity S-wave (km/s) = 3.32206 3.61511 3.47168
# Velocity P-wave (km/s) = 7.21070 7.47126 7.34214
#
# Compressibility (1/GPa) = 0.01328705
#
# Stress axis : x y z
#
# Youngs Moduli (GPa) = 71.85772 85.52502 69.31872
#
# Poissons Ratio (x) = 0.15995 0.54943
# Poissons Ratio (y) = 0.13439 0.24800
# Poissons Ratio (z) = 0.56955 0.30598
#
# Static dielectric constant tensor:
#      x y z
#    x 3.653120 0.000000 0.000000 
#    y 0.000000 3.864270 0.000000 
#    z 0.000000 0.000000 4.139230 
# 
# 
# High freq. dielectric constant tensor:
#      x y z
#    x 1.804230 0.000000 0.000000 
#    y 0.000000 1.788530 0.000000 
#    z 0.000000 0.000000 1.785650 
# 
# From -- ./inp_files/12114.got.cif
#   From: 2010.06.25/outbox.cif.g09.slc.cpg/sg52_7_cif.got.tgz:12114.got - 2010.06.26 19:32:48.
