data_PCOD8215836
_publ_section_title
;
Structure prediction by ZEFSAII (Michael W. Deem and Ramdas Pophale) SiO2 
 PCOD8215836
Probable space group: P N N A
;
_chemical_formula_sum "Si O2"
_cell_formula_units_Z 48
_cell_length_a 9.802670
_cell_length_b 27.649396
_cell_length_c 9.884684
_cell_angle_alpha 90.000000
_cell_angle_beta 90.000000
_cell_angle_gamma 90.000000
_cell_volume 2679.124040
_symmetry_space_group_name_H-M "P N N A"
_symmetry_group_IT_number 52
_symmetry_cell_setting 'orthorhombic'
loop_
_space_group_symop_operation_xyz
x,y,z
1/2-x,-y,z
x,1/2-y,1/2-z
1/2-x,1/2+y,1/2-z
-x,-y,-z
1/2+x,y,-z
-x,1/2+y,1/2+z
1/2+x,1/2-y,1/2+z
loop_
_atom_site_type_symbol
_atom_site_label
_atom_site_fract_x
_atom_site_fract_y
_atom_site_fract_z
Si Si1 0.297880 0.607667 0.865170
Si Si2 0.136241 0.462894 0.635289
Si Si3 0.789070 0.780806 0.378324
Si Si4 0.018299 0.104928 0.382484
Si Si5 0.879951 0.527875 0.671037
Si Si6 0.976600 0.717553 0.876392
O O1 0.344385 0.584986 0.723505
O O2 0.316261 0.664065 0.840803
O O3 0.142155 0.594726 0.905232
O O4 0.399153 0.589702 0.983305
O O5 0.250000 0.500000 0.685271
O O6 0.154152 0.450141 0.477016
O O7 0.990746 0.485976 0.662301
O O8 0.834236 0.750000 0.250000
O O9 0.881411 0.764429 0.502869
O O10 0.632151 0.771900 0.417997
O O11 0.074010 0.072704 0.260763
O O12 0.045613 0.160826 0.344020
O O13 0.750000 0.500000 0.733087
O O14 0.933050 0.750000 0.750000
#
# Coordination Sequence:
#
# PCOD8215836 Si02
#       6
#     8   8   8   8   8   8
#     4  10  21  36  56  79 108 140 177 220 263 314
#     4  10  20  38  55  75 106 143 177 219 264 305
#     4   9  19  36  56  80 108 139 175 217 264 314
#     4  10  21  37  54  80 109 140 177 218 263 314
#     4  10  22  36  55  78 107 141 180 222 262 313
#     4   9  19  36  57  79 108 140 174 217 264 314
#
# _framework density 17.916304
#
# number of rings (size 3 to 8) (size 9 to 14) (size 15 to 20)
#    0.000    2.333    1.667    0.000    2.333    3.333 
#    0.000    0.000    0.000    0.000    0.000    0.000 
#    0.000    0.000    0.000    0.000    0.000    0.000 
#
# Total GULP energy -595267.466546 kJ/mol
# GULP energy per Si atom -12401.405553 kJ/mol
# Density = 1.787553 g / cm^3
# Si number density = 17.916304 Si / 1000 Ang^3
#
#
#
# Elastic Constant Matrix: (Units=GPa)
#
#
# Indices 1 2 3 4 5 6 
#
# 1 107.3803 40.7357 63.2747 0.0000 0.0000 0.0000
# 2 40.7357 64.5194 66.5136 0.0000 0.0000 0.0000
# 3 63.2747 66.5136 129.3018 0.0000 0.0000 0.0000
# 4 0.0000 0.0000 0.0000 24.2667 0.0000 0.0000
# 5 0.0000 0.0000 0.0000 0.0000 2109.0918 0.0000
# 6 0.0000 0.0000 0.0000 0.0000 0.0000 20.7698
#
#
#
# Elastic Compliance Matrix: (Units=1/GPa)
#
#
# Indices 1 2 3 4 5 6 
#
# 1 0.013476 -0.003641 -0.004722 0.000000 0.000000 0.000000
# 2 -0.003641 0.033982 -0.015699 0.000000 0.000000 0.000000
# 3 -0.004722 -0.015699 0.018120 0.000000 0.000000 0.000000
# 4 0.000000 0.000000 0.000000 0.041209 0.000000 0.000000
# 5 0.000000 0.000000 0.000000 0.000000 0.000474 0.000000
# 6 0.000000 0.000000 0.000000 0.000000 0.000000 0.048147
#
#
# Mechanical properties :
#
#
# Convention : Reuss Voigt Hill
#
# Bulk Modulus (GPa) = 57.28891 71.36105 64.32498
# Shear Modulus (GPa) = 23.88347 439.53748 231.71047
#
# Velocity S-wave (km/s) = 3.65507 15.67995 11.38465
# Velocity P-wave (km/s) = 7.06102 19.17632 14.44972
#
# Compressibility (1/GPa) = 0.01745538
#
# Stress axis : x y z
#
# Youngs Moduli (GPa) = 74.20472 29.42724 55.18701
#
# Poissons Ratio (x) = 0.10713 0.26059
# Poissons Ratio (y) = 0.27015 0.86638
# Poissons Ratio (z) = 0.35039 0.46198
#
# Static dielectric constant tensor:
#      x y z
#    x 3.547950 0.000000 0.000000 
#    y 0.000000 3.185280 0.000000 
#    z 0.000000 0.000000 3.323660 
# 
# 
# High freq. dielectric constant tensor:
#      x y z
#    x 1.708840 0.000000 0.000000 
#    y 0.000000 1.687250 0.000000 
#    z 0.000000 0.000000 1.690680 
# 
# From -- ./inp_files/7689.got.cif
#   From: 2010.06.25/outbox.cif.g09.slc.cpg/sg52_4_cif.got.tgz:7689.got - 2010.06.26 19:32:48.
