data_PCOD8215988
_publ_section_title
;
Structure prediction by ZEFSAII (Michael W. Deem and Ramdas Pophale) SiO2 
 PCOD8215988
Probable space group: P N N A
;
_chemical_formula_sum "Si O2"
_cell_formula_units_Z 32
_cell_length_a 8.338459
_cell_length_b 8.690479
_cell_length_c 19.756815
_cell_angle_alpha 90.000000
_cell_angle_beta 90.000000
_cell_angle_gamma 90.000000
_cell_volume 1431.681606
_symmetry_space_group_name_H-M "P N N A"
_symmetry_group_IT_number 52
_symmetry_cell_setting 'orthorhombic'
loop_
_space_group_symop_operation_xyz
x,y,z
1/2-x,-y,z
x,1/2-y,1/2-z
1/2-x,1/2+y,1/2-z
-x,-y,-z
1/2+x,y,-z
-x,1/2+y,1/2+z
1/2+x,1/2-y,1/2+z
loop_
_atom_site_type_symbol
_atom_site_label
_atom_site_fract_x
_atom_site_fract_y
_atom_site_fract_z
Si Si1 0.918999 0.250000 0.750000
Si Si2 0.750000 0.500000 0.664111
Si Si3 0.937125 0.526699 0.141612
Si Si4 0.433165 0.734194 0.404468
Si Si5 0.857046 0.357897 0.979202
O O1 0.803023 0.356290 0.707605
O O2 0.028640 0.351729 0.799584
O O3 0.588638 0.439229 0.624268
O O4 0.750000 0.500000 0.140394
O O5 0.029409 0.363185 0.153575
O O6 0.995563 0.579340 0.066436
O O7 0.573026 0.751130 0.460599
O O8 0.253532 0.753265 0.432877
O O9 0.750000 0.500000 0.006875
#
# Coordination Sequence:
#
# PCOD8215988 Si02
#       5
#     4   4   8   8   8
#     4  12  26  46  66  94 134 176 234 268 324 394
#     4  12  26  44  68  96 132 182 222 276 328 392
#     4  11  23  43  69  97 131 177 222 273 330 392
#     4  11  22  41  69 101 134 175 217 274 335 395
#     4  10  20  40  68 103 132 173 219 268 336 400
#
# _framework density 22.351338999999999
#
# number of rings (size 3 to 8) (size 9 to 14) (size 15 to 20)
#    0.000    1.000    2.500    6.750    1.750    3.000 
#    0.000    0.000    0.000    0.000    0.000    0.000 
#    0.000    0.000    0.000    0.000    0.000    0.000 
#
# Total GULP energy -396512.342621 kJ/mol
# GULP energy per Si atom -12391.010707 kJ/mol
# Density = 2.230047 g / cm^3
# Si number density = 22.351339 Si / 1000 Ang^3
#
#
#
# Elastic Constant Matrix: (Units=GPa)
#
#
# Indices 1 2 3 4 5 6 
#
# 1 145.9354 57.6889 69.1956 0.0000 0.0000 0.0000
# 2 57.6889 126.2496 69.6563 0.0000 0.0000 0.0000
# 3 69.1956 69.6563 108.6129 0.0000 0.0000 0.0000
# 4 0.0000 0.0000 0.0000 34.1787 0.0000 0.0000
# 5 0.0000 0.0000 0.0000 0.0000 34.0055 0.0000
# 6 0.0000 0.0000 0.0000 0.0000 0.0000 36.5811
#
#
#
# Elastic Compliance Matrix: (Units=1/GPa)
#
#
# Indices 1 2 3 4 5 6 
#
# 1 0.010032 -0.001637 -0.005341 0.000000 0.000000 0.000000
# 2 -0.001637 0.012525 -0.006990 0.000000 0.000000 0.000000
# 3 -0.005341 -0.006990 0.017093 0.000000 0.000000 0.000000
# 4 0.000000 0.000000 0.000000 0.029258 0.000000 0.000000
# 5 0.000000 0.000000 0.000000 0.000000 0.029407 0.000000
# 6 0.000000 0.000000 0.000000 0.000000 0.000000 0.027337
#
#
# Mechanical properties :
#
#
# Convention : Reuss Voigt Hill
#
# Bulk Modulus (GPa) = 85.37166 85.98664 85.67915
# Shear Modulus (GPa) = 31.74736 33.23685 32.49211
#
# Velocity S-wave (km/s) = 3.77288 3.86037 3.81688
# Velocity P-wave (km/s) = 7.56688 7.64356 7.60532
#
# Compressibility (1/GPa) = 0.01171349
#
# Stress axis : x y z
#
# Youngs Moduli (GPa) = 99.67965 79.83729 58.50413
#
# Poissons Ratio (x) = 0.13070 0.31250
# Poissons Ratio (y) = 0.16318 0.40894
# Poissons Ratio (z) = 0.53243 0.55806
#
# Static dielectric constant tensor:
#      x y z
#    x 4.049640 0.000000 0.000000 
#    y 0.000000 4.471510 0.000000 
#    z 0.000000 0.000000 4.241490 
# 
# 
# High freq. dielectric constant tensor:
#      x y z
#    x 1.890150 0.000000 0.000000 
#    y 0.000000 1.870130 0.000000 
#    z 0.000000 0.000000 1.880320 
# 
# From -- ./inp_files/35513.got.cif
#   From: 2010.06.25/outbox.cif.g09.slc.cpg/sg52_18_cif.got.tgz:35513.got - 2010.06.26 19:32:48.
