data_PCOD8215073
_publ_section_title
;
Structure prediction by ZEFSAII (Michael W. Deem and Ramdas Pophale) SiO2 
 PCOD8215073
Probable space group: P N N A
;
_chemical_formula_sum "Si O2"
_cell_formula_units_Z 48
_cell_length_a 7.960993
_cell_length_b 32.914849
_cell_length_c 9.349797
_cell_angle_alpha 90.000000
_cell_angle_beta 90.000000
_cell_angle_gamma 90.000000
_cell_volume 2449.972958
_symmetry_space_group_name_H-M "P N N A"
_symmetry_group_IT_number 52
_symmetry_cell_setting 'orthorhombic'
loop_
_space_group_symop_operation_xyz
x,y,z
1/2-x,-y,z
x,1/2-y,1/2-z
1/2-x,1/2+y,1/2-z
-x,-y,-z
1/2+x,y,-z
-x,1/2+y,1/2+z
1/2+x,1/2-y,1/2+z
loop_
_atom_site_type_symbol
_atom_site_label
_atom_site_fract_x
_atom_site_fract_y
_atom_site_fract_z
Si Si1 0.894623 0.131118 0.635608
Si Si2 0.217986 0.545925 0.797542
Si Si3 0.482962 0.168874 0.934802
Si Si4 0.680061 0.119294 0.136395
Si Si5 0.708525 0.795489 0.796182
Si Si6 0.908664 0.918260 0.566903
O O1 0.826843 0.176909 0.655115
O O2 0.741783 0.099443 0.663358
O O3 0.038942 0.125522 0.748358
O O4 0.974556 0.120493 0.480983
O O5 0.250000 0.500000 0.751257
O O6 0.254797 0.573217 0.656080
O O7 0.022545 0.551234 0.840905
O O8 0.338934 0.557600 0.929525
O O9 0.333409 0.150954 0.837950
O O10 0.596880 0.199331 0.842215
O O11 0.598665 0.129933 0.982455
O O12 0.414059 0.192939 0.072869
O O13 0.671784 0.750000 0.750000
#
# Coordination Sequence:
#
# PCOD8215073 Si02
#       6
#     8   8   8   8   8   8
#     4   9  18  32  51  74 100 136 169 196 245 307
#     4  10  18  30  49  77 104 131 166 209 250 291
#     4   9  19  37  54  70  98 133 166 202 245 300
#     4   9  18  34  54  70  94 135 171 198 246 305
#     4  10  20  34  53  77 100 127 164 207 247 284
#     4   9  18  31  49  74 106 136 164 200 248 305
#
# _framework density 19.592053
#
# number of rings (size 3 to 8) (size 9 to 14) (size 15 to 20)
#    0.000    2.667    0.000    1.500    0.000    1.333 
#    0.000    8.333    0.000    0.000    0.000    0.000 
#    0.000    0.000    0.000    0.000    0.000    0.000 
#
# Total GULP energy -594748.322600 kJ/mol
# GULP energy per Si atom -12390.590054 kJ/mol
# Density = 1.954746 g / cm^3
# Si number density = 19.592053 Si / 1000 Ang^3
#
#
#
# Elastic Constant Matrix: (Units=GPa)
#
#
# Indices 1 2 3 4 5 6 
#
# 1 116.7164 39.2920 22.0200 0.0000 0.0000 0.0000
# 2 39.2920 136.1177 31.7663 0.0000 0.0000 0.0000
# 3 22.0200 31.7663 32.9154 0.0000 0.0000 0.0000
# 4 0.0000 0.0000 0.0000 29.2431 0.0000 0.0000
# 5 0.0000 0.0000 0.0000 0.0000 22.7450 0.0000
# 6 0.0000 0.0000 0.0000 0.0000 0.0000 25.1494
#
#
#
# Elastic Compliance Matrix: (Units=1/GPa)
#
#
# Indices 1 2 3 4 5 6 
#
# 1 0.010111 -0.001730 -0.005095 0.000000 0.000000 0.000000
# 2 -0.001730 0.009778 -0.008280 0.000000 0.000000 0.000000
# 3 -0.005095 -0.008280 0.041780 0.000000 0.000000 0.000000
# 4 0.000000 0.000000 0.000000 0.034196 0.000000 0.000000
# 5 0.000000 0.000000 0.000000 0.000000 0.043966 0.000000
# 6 0.000000 0.000000 0.000000 0.000000 0.000000 0.039762
#
#
# Mechanical properties :
#
#
# Convention : Reuss Voigt Hill
#
# Bulk Modulus (GPa) = 31.78560 52.43401 42.10981
# Shear Modulus (GPa) = 22.69741 28.27223 25.48482
#
# Velocity S-wave (km/s) = 3.40737 3.80287 3.61054
# Velocity P-wave (km/s) = 5.63375 6.78995 6.23869
#
# Compressibility (1/GPa) = 0.03146078
#
# Stress axis : x y z
#
# Youngs Moduli (GPa) = 98.89912 102.26898 23.93485
#
# Poissons Ratio (x) = 0.17690 0.12195
# Poissons Ratio (y) = 0.17107 0.19817
# Poissons Ratio (z) = 0.50389 0.84675
#
# Static dielectric constant tensor:
#      x y z
#    x 3.983460 0.000000 0.000000 
#    y 0.000000 3.594760 0.000000 
#    z 0.000000 0.000000 3.766280 
# 
# 
# High freq. dielectric constant tensor:
#      x y z
#    x 1.791080 0.000000 0.000000 
#    y 0.000000 1.738940 0.000000 
#    z 0.000000 0.000000 1.732550 
# 
# From -- ./inp_files/7694.got.cif
#   From: 2010.06.25/outbox.cif.g09.slc.cpg/sg52_4_cif.got.tgz:7694.got - 2010.06.26 19:32:48.
