data_PCOD8215449
_publ_section_title
;
Structure prediction by ZEFSAII (Michael W. Deem and Ramdas Pophale) SiO2 
 PCOD8215449
Probable space group: P N N A
;
_chemical_formula_sum "Si O2"
_cell_formula_units_Z 44
_cell_length_a 16.565294
_cell_length_b 17.271305
_cell_length_c 7.732031
_cell_angle_alpha 90.000000
_cell_angle_beta 90.000000
_cell_angle_gamma 90.000000
_cell_volume 2212.166892
_symmetry_space_group_name_H-M "P N N A"
_symmetry_group_IT_number 52
_symmetry_cell_setting 'orthorhombic'
loop_
_space_group_symop_operation_xyz
x,y,z
1/2-x,-y,z
x,1/2-y,1/2-z
1/2-x,1/2+y,1/2-z
-x,-y,-z
1/2+x,y,-z
-x,1/2+y,1/2+z
1/2+x,1/2-y,1/2+z
loop_
_atom_site_type_symbol
_atom_site_label
_atom_site_fract_x
_atom_site_fract_y
_atom_site_fract_z
Si Si1 0.695510 0.827467 0.158199
Si Si2 0.179696 0.108504 0.593135
Si Si3 0.435991 0.591497 0.614155
Si Si4 0.610199 0.940266 0.920498
Si Si5 0.155933 0.229541 0.048813
Si Si6 0.250000 0.000000 0.312076
O O1 0.659867 0.750000 0.250000
O O2 0.737216 0.881101 0.302708
O O3 0.626127 0.880513 0.077257
O O4 0.757125 0.804718 0.004461
O O5 0.113572 0.069174 0.714846
O O6 0.141173 0.191052 0.550882
O O7 0.195197 0.057170 0.424987
O O8 0.530120 0.594131 0.670802
O O9 0.414097 0.525518 0.478138
O O10 0.412960 0.671437 0.518018
O O11 0.689414 0.947010 0.800316
O O12 0.152160 0.250000 0.250000
#
# Coordination Sequence:
#
# PCOD8215449 Si02
#       6
#     8   8   8   8   8   4
#     4   9  19  36  57  82 112 147 192 238 287 341
#     4  10  20  37  59  83 113 152 187 231 289 342
#     4  10  22  38  56  80 118 152 185 234 294 348
#     4  11  22  37  57  85 113 148 192 239 286 342
#     4  10  19  36  59  83 112 151 193 234 285 344
#     4  12  22  36  62  88 114 150 200 244 282 344
#
# _framework density 19.889999
#
# number of rings (size 3 to 8) (size 9 to 14) (size 15 to 20)
#    0.000    1.818    0.000    7.091    0.000    1.455 
#    0.000   10.909    0.000    0.000    0.000    0.000 
#    0.000    0.000    0.000    0.000    0.000    0.000 
#
# Total GULP energy -545463.037876 kJ/mol
# GULP energy per Si atom -12396.887224 kJ/mol
# Density = 1.984473 g / cm^3
# Si number density = 19.889999 Si / 1000 Ang^3
#
#
#
# Elastic Constant Matrix: (Units=GPa)
#
#
# Indices 1 2 3 4 5 6 
#
# 1 78.5300 45.6425 34.5812 0.0000 0.0000 0.0000
# 2 45.6425 103.2453 27.3371 0.0000 0.0000 0.0000
# 3 34.5812 27.3371 86.3321 0.0000 0.0000 0.0000
# 4 0.0000 0.0000 0.0000 39.1999 0.0000 0.0000
# 5 0.0000 0.0000 0.0000 0.0000 12.5232 0.0000
# 6 0.0000 0.0000 0.0000 0.0000 0.0000 21.6279
#
#
#
# Elastic Compliance Matrix: (Units=1/GPa)
#
#
# Indices 1 2 3 4 5 6 
#
# 1 0.019248 -0.007059 -0.005475 0.000000 0.000000 0.000000
# 2 -0.007059 0.013161 -0.001340 0.000000 0.000000 0.000000
# 3 -0.005475 -0.001340 0.014200 0.000000 0.000000 0.000000
# 4 0.000000 0.000000 0.000000 0.025510 0.000000 0.000000
# 5 0.000000 0.000000 0.000000 0.000000 0.079852 0.000000
# 6 0.000000 0.000000 0.000000 0.000000 0.000000 0.046237
#
#
# Mechanical properties :
#
#
# Convention : Reuss Voigt Hill
#
# Bulk Modulus (GPa) = 53.01722 53.69210 53.35466
# Shear Modulus (GPa) = 21.52918 25.37331 23.45125
#
# Velocity S-wave (km/s) = 3.29357 3.57554 3.43745
# Velocity P-wave (km/s) = 6.41690 6.64072 6.52977
#
# Compressibility (1/GPa) = 0.01886180
#
# Stress axis : x y z
#
# Youngs Moduli (GPa) = 51.95406 75.98058 70.42108
#
# Poissons Ratio (x) = 0.53638 0.38552
# Poissons Ratio (y) = 0.36677 0.09435
# Poissons Ratio (z) = 0.28442 0.10180
#
# Static dielectric constant tensor:
#      x y z
#    x 3.520370 0.000000 0.000000 
#    y 0.000000 3.804600 0.000000 
#    z 0.000000 0.000000 3.834180 
# 
# 
# High freq. dielectric constant tensor:
#      x y z
#    x 1.755460 0.000000 0.000000 
#    y 0.000000 1.791410 0.000000 
#    z 0.000000 0.000000 1.774790 
# 
# From -- ./inp_files/10319.got.cif
#   From: 2010.06.25/outbox.cif.g09.slc.cpg/sg52_6_cif.got.tgz:10319.got - 2010.06.26 19:32:48.
