data_PCOD8215753
_publ_section_title
;
Structure prediction by ZEFSAII (Michael W. Deem and Ramdas Pophale) SiO2 
 PCOD8215753
Probable space group: P N N A
;
_chemical_formula_sum "Si O2"
_cell_formula_units_Z 60
_cell_length_a 14.498086
_cell_length_b 22.168529
_cell_length_c 9.578165
_cell_angle_alpha 90.000000
_cell_angle_beta 90.000000
_cell_angle_gamma 90.000000
_cell_volume 3078.434107
_symmetry_space_group_name_H-M "P N N A"
_symmetry_group_IT_number 52
_symmetry_cell_setting 'orthorhombic'
loop_
_space_group_symop_operation_xyz
x,y,z
1/2-x,-y,z
x,1/2-y,1/2-z
1/2-x,1/2+y,1/2-z
-x,-y,-z
1/2+x,y,-z
-x,1/2+y,1/2+z
1/2+x,1/2-y,1/2+z
loop_
_atom_site_type_symbol
_atom_site_label
_atom_site_fract_x
_atom_site_fract_y
_atom_site_fract_z
Si Si1 0.951937 0.004103 0.651446
Si Si2 0.225360 0.747656 0.914699
Si Si3 0.049411 0.124815 0.285231
Si Si4 0.096897 0.310120 0.498151
Si Si5 0.691134 0.123493 0.468358
Si Si6 0.750000 0.500000 0.950845
Si Si7 0.039100 0.707408 0.990795
Si Si8 0.475257 0.629402 0.770077
O O1 0.841237 0.006663 0.643165
O O2 0.985252 0.061959 0.737795
O O3 0.982743 0.944431 0.737726
O O4 0.000000 0.000000 0.500000
O O5 0.232430 0.750000 0.750000
O O6 0.120748 0.756769 0.970485
O O7 0.293833 0.799095 0.974597
O O8 0.240652 0.679763 0.969416
O O9 0.083423 0.153359 0.142387
O O10 0.136052 0.122998 0.387787
O O11 0.965540 0.161912 0.357693
O O12 0.039152 0.344606 0.616508
O O13 0.057608 0.242758 0.488239
O O14 0.745440 0.060131 0.453420
O O15 0.624987 0.129310 0.337041
O O16 0.044651 0.671045 0.137437
#
# Coordination Sequence:
#
# PCOD8215753 Si02
#       8
#     8   8   8   8   8   4   8   8
#     4  11  20  40  64  90 116 163 213 255 303 366
#     4  12  22  37  64  90 125 163 204 258 310 362
#     4  10  22  39  63  88 125 159 206 257 305 369
#     4  12  23  42  58  92 133 159 201 258 313 373
#     4  10  20  36  62  89 113 162 203 252 303 361
#     4  10  20  36  62  94 114 150 212 268 288 360
#     4  11  22  40  62  92 119 165 207 250 305 372
#     4  11  21  41  65  87 126 161 209 255 307 370
#
# _framework density 19.490428999999999
#
# number of rings (size 3 to 8) (size 9 to 14) (size 15 to 20)
#    0.000    1.067    8.000    2.400    0.000    0.533 
#    9.600    0.000    0.000    3.200    0.000    0.000 
#    0.000    0.000    0.000    0.000    0.000    0.000 
#
# Total GULP energy -743814.477835 kJ/mol
# GULP energy per Si atom -12396.907964 kJ/mol
# Density = 1.944607 g / cm^3
# Si number density = 19.490429 Si / 1000 Ang^3
#
#
#
# Elastic Constant Matrix: (Units=GPa)
#
#
# Indices 1 2 3 4 5 6 
#
# 1 83.1122 17.5783 17.4162 0.0000 0.0000 0.0000
# 2 17.5783 112.0313 35.9620 0.0000 0.0000 0.0000
# 3 17.4162 35.9620 85.9931 0.0000 0.0000 0.0000
# 4 0.0000 0.0000 0.0000 89.0450 0.0000 0.0000
# 5 0.0000 0.0000 0.0000 0.0000 9.1725 0.0000
# 6 0.0000 0.0000 0.0000 0.0000 0.0000 36.4982
#
#
#
# Elastic Compliance Matrix: (Units=1/GPa)
#
#
# Indices 1 2 3 4 5 6 
#
# 1 0.012740 -0.001352 -0.002015 0.000000 0.000000 0.000000
# 2 -0.001352 0.010454 -0.004098 0.000000 0.000000 0.000000
# 3 -0.002015 -0.004098 0.013751 0.000000 0.000000 0.000000
# 4 0.000000 0.000000 0.000000 0.011230 0.000000 0.000000
# 5 0.000000 0.000000 0.000000 0.000000 0.109022 0.000000
# 6 0.000000 0.000000 0.000000 0.000000 0.000000 0.027399
#
#
# Mechanical properties :
#
#
# Convention : Reuss Voigt Hill
#
# Bulk Modulus (GPa) = 45.42416 47.00551 46.21484
# Shear Modulus (GPa) = 24.17063 40.95516 32.56290
#
# Velocity S-wave (km/s) = 3.52537 4.58896 4.09187
# Velocity P-wave (km/s) = 6.31881 7.22826 6.78878
#
# Compressibility (1/GPa) = 0.02201472
#
# Stress axis : x y z
#
# Youngs Moduli (GPa) = 78.49221 95.66040 72.72422
#
# Poissons Ratio (x) = 0.12936 0.14652
# Poissons Ratio (y) = 0.10614 0.29801
# Poissons Ratio (z) = 0.15814 0.39200
#
# Static dielectric constant tensor:
#      x y z
#    x 3.627670 0.000000 0.000000 
#    y 0.000000 4.001380 0.000000 
#    z 0.000000 0.000000 3.292870 
# 
# 
# High freq. dielectric constant tensor:
#      x y z
#    x 1.758330 0.000000 0.000000 
#    y 0.000000 1.773040 0.000000 
#    z 0.000000 0.000000 1.730130 
# 
# From -- ./inp_files/10943.got.cif
#   From: 2010.06.25/outbox.cif.g09.slc.cpg/sg52_6_cif.got.tgz:10943.got - 2010.06.26 19:32:48.
