data_PCOD8215526
_publ_section_title
;
Structure prediction by ZEFSAII (Michael W. Deem and Ramdas Pophale) SiO2 
 PCOD8215526
Probable space group: P N N A
;
_chemical_formula_sum "Si O2"
_cell_formula_units_Z 48
_cell_length_a 9.982060
_cell_length_b 8.752681
_cell_length_c 28.869548
_cell_angle_alpha 90.000000
_cell_angle_beta 90.000000
_cell_angle_gamma 90.000000
_cell_volume 2522.326257
_symmetry_space_group_name_H-M "P N N A"
_symmetry_group_IT_number 52
_symmetry_cell_setting 'orthorhombic'
loop_
_space_group_symop_operation_xyz
x,y,z
1/2-x,-y,z
x,1/2-y,1/2-z
1/2-x,1/2+y,1/2-z
-x,-y,-z
1/2+x,y,-z
-x,1/2+y,1/2+z
1/2+x,1/2-y,1/2+z
loop_
_atom_site_type_symbol
_atom_site_label
_atom_site_fract_x
_atom_site_fract_y
_atom_site_fract_z
Si Si1 0.892919 0.064036 0.612192
Si Si2 0.350391 0.127615 0.620201
Si Si3 0.280659 0.322723 0.538687
Si Si4 0.874904 0.106859 0.715948
Si Si5 0.131132 0.596795 0.775522
Si Si6 0.996795 0.670611 0.020627
O O1 0.878769 0.153570 0.661376
O O2 0.948654 0.178340 0.573344
O O3 0.750000 0.000000 0.596169
O O4 0.994598 0.921060 0.615573
O O5 0.318501 0.280830 0.591742
O O6 0.318417 0.151122 0.674003
O O7 0.250000 0.000000 0.599218
O O8 0.250000 0.500000 0.536117
O O9 0.410448 0.283759 0.508423
O O10 0.154830 0.229100 0.519011
O O11 0.867262 0.250000 0.750000
O O12 0.750000 0.000000 0.726577
O O13 0.005646 0.012207 0.726720
O O14 0.250000 0.500000 0.751543
O O15 0.092752 0.750000 0.750000
O O16 0.000000 0.500000 0.000000
#
# Coordination Sequence:
#
# PCOD8215526 Si02
#       6
#     8   8   8   8   8   8
#     4  10  20  36  63  91 111 153 216 247 279 364
#     4  10  19  39  60  82 116 161 203 237 291 371
#     4  12  25  40  59  92 127 155 192 258 311 344
#     4  10  21  39  62  86 122 160 201 252 304 356
#     4  10  21  36  59  89 120 153 202 247 294 355
#     4  12  22  41  67  87 116 165 211 238 294 370
#
# _framework density 19.030051
#
# number of rings (size 3 to 8) (size 9 to 14) (size 15 to 20)
#    0.000    1.333    3.333    3.000    0.000    0.667 
#    3.000    0.833    0.000    0.000    0.000    0.000 
#    0.000    0.000    0.000    0.000    0.000    0.000 
#
# Total GULP energy -595171.034063 kJ/mol
# GULP energy per Si atom -12399.396543 kJ/mol
# Density = 1.898674 g / cm^3
# Si number density = 19.030051 Si / 1000 Ang^3
#
#
#
# Elastic Constant Matrix: (Units=GPa)
#
#
# Indices 1 2 3 4 5 6 
#
# 1 119.7680 26.1029 22.8144 0.0000 0.0000 0.0000
# 2 26.1029 107.9065 55.8979 0.0000 0.0000 0.0000
# 3 22.8144 55.8979 102.6412 0.0000 0.0000 0.0000
# 4 0.0000 0.0000 0.0000 31.3396 0.0000 0.0000
# 5 0.0000 0.0000 0.0000 0.0000 29.9862 0.0000
# 6 0.0000 0.0000 0.0000 0.0000 0.0000 29.1129
#
#
#
# Elastic Compliance Matrix: (Units=1/GPa)
#
#
# Indices 1 2 3 4 5 6 
#
# 1 0.008906 -0.001573 -0.001123 0.000000 0.000000 0.000000
# 2 -0.001573 0.013187 -0.006832 0.000000 0.000000 0.000000
# 3 -0.001123 -0.006832 0.013713 0.000000 0.000000 0.000000
# 4 0.000000 0.000000 0.000000 0.031909 0.000000 0.000000
# 5 0.000000 0.000000 0.000000 0.000000 0.033349 0.000000
# 6 0.000000 0.000000 0.000000 0.000000 0.000000 0.034349
#
#
# Mechanical properties :
#
#
# Convention : Reuss Voigt Hill
#
# Bulk Modulus (GPa) = 59.69959 59.99402 59.84681
# Shear Modulus (GPa) = 31.24004 33.12109 32.18056
#
# Velocity S-wave (km/s) = 4.05608 4.17641 4.11669
# Velocity P-wave (km/s) = 7.30582 7.40614 7.35615
#
# Compressibility (1/GPa) = 0.01675053
#
# Stress axis : x y z
#
# Youngs Moduli (GPa) = 112.28168 75.83363 72.92377
#
# Poissons Ratio (x) = 0.11926 0.08191
# Poissons Ratio (y) = 0.17657 0.49821
# Poissons Ratio (z) = 0.12611 0.51809
#
# Static dielectric constant tensor:
#      x y z
#    x 3.733070 0.000000 0.000000 
#    y 0.000000 3.195820 0.000000 
#    z 0.000000 0.000000 3.732260 
# 
# 
# High freq. dielectric constant tensor:
#      x y z
#    x 1.767140 0.000000 0.000000 
#    y 0.000000 1.707970 0.000000 
#    z 0.000000 0.000000 1.747520 
# 
# From -- ./inp_files/44346.got.cif
#   From: 2010.06.25/outbox.cif.g09.slc.cpg/sg52_23_cif.got.tgz:44346.got - 2010.06.26 19:32:48.
