data_PCOD8215299
_publ_section_title
;
Structure prediction by ZEFSAII (Michael W. Deem and Ramdas Pophale) SiO2 
 PCOD8215299
Probable space group: P N N A
;
_chemical_formula_sum "Si O2"
_cell_formula_units_Z 56
_cell_length_a 15.945188
_cell_length_b 15.866723
_cell_length_c 11.978815
_cell_angle_alpha 90.000000
_cell_angle_beta 90.000000
_cell_angle_gamma 90.000000
_cell_volume 3030.614814
_symmetry_space_group_name_H-M "P N N A"
_symmetry_group_IT_number 52
_symmetry_cell_setting 'orthorhombic'
loop_
_space_group_symop_operation_xyz
x,y,z
1/2-x,-y,z
x,1/2-y,1/2-z
1/2-x,1/2+y,1/2-z
-x,-y,-z
1/2+x,y,-z
-x,1/2+y,1/2+z
1/2+x,1/2-y,1/2+z
loop_
_atom_site_type_symbol
_atom_site_label
_atom_site_fract_x
_atom_site_fract_y
_atom_site_fract_z
Si Si1 0.802075 0.650912 0.730911
Si Si2 0.183476 0.933257 0.408647
Si Si3 0.792093 0.591409 0.478448
Si Si4 0.056911 0.002466 0.895503
Si Si5 0.392556 0.156529 0.610338
Si Si6 0.543667 0.047746 0.684769
Si Si7 0.648921 0.838296 0.142552
O O1 0.798783 0.750000 0.750000
O O2 0.724000 0.609310 0.798269
O O3 0.797577 0.628357 0.601881
O O4 0.891607 0.616510 0.769998
O O5 0.166357 0.866510 0.506131
O O6 0.250000 0.000000 0.457161
O O7 0.094444 0.977705 0.383877
O O8 0.750000 0.500000 0.484273
O O9 0.879956 0.581493 0.411282
O O10 0.742307 0.662128 0.407886
O O11 0.103508 0.915431 0.912809
O O12 0.005416 0.004717 0.780068
O O13 0.000000 0.000000 0.000000
O O14 0.477791 0.101095 0.609614
O O15 0.341998 0.144244 0.725437
O O16 0.406929 0.257289 0.606996
#
# Coordination Sequence:
#
# PCOD8215299 Si02
#       7
#     8   8   8   8   8   8   8
#     4  11  22  34  57  84 115 148 190 237 290 339
#     4  10  22  38  55  82 116 155 192 233 281 352
#     4  10  19  35  56  82 113 143 184 236 284 339
#     4  10  19  32  55  83 109 142 181 236 284 334
#     4  10  20  38  56  81 112 147 193 233 280 337
#     4  10  21  35  57  84 114 148 194 233 283 345
#     4   9  21  34  57  82 108 146 187 235 282 336
#
# _framework density 18.478099
#
# number of rings (size 3 to 8) (size 9 to 14) (size 15 to 20)
#    0.000    2.000    1.429    2.571    6.000    2.857 
#    0.000    0.000    0.000    1.714    0.000    0.000 
#    0.000    0.000    0.000    0.000    0.000    0.000 
#
# Total GULP energy -693870.550720 kJ/mol
# GULP energy per Si atom -12390.545549 kJ/mol
# Density = 1.843604 g / cm^3
# Si number density = 18.478099 Si / 1000 Ang^3
#
#
#
# Elastic Constant Matrix: (Units=GPa)
#
#
# Indices 1 2 3 4 5 6 
#
# 1 101.2044 39.7015 56.2970 0.0000 0.0000 0.0000
# 2 39.7015 84.2167 47.5573 0.0000 0.0000 0.0000
# 3 56.2970 47.5573 91.0969 0.0000 0.0000 0.0000
# 4 0.0000 0.0000 0.0000 32.5940 0.0000 0.0000
# 5 0.0000 0.0000 0.0000 0.0000 31.0076 0.0000
# 6 0.0000 0.0000 0.0000 0.0000 0.0000 28.8165
#
#
#
# Elastic Compliance Matrix: (Units=1/GPa)
#
#
# Indices 1 2 3 4 5 6 
#
# 1 0.015474 -0.002687 -0.008160 0.000000 0.000000 0.000000
# 2 -0.002687 0.017305 -0.007373 0.000000 0.000000 0.000000
# 3 -0.008160 -0.007373 0.019870 0.000000 0.000000 0.000000
# 4 0.000000 0.000000 0.000000 0.030680 0.000000 0.000000
# 5 0.000000 0.000000 0.000000 0.000000 0.032250 0.000000
# 6 0.000000 0.000000 0.000000 0.000000 0.000000 0.034702
#
#
# Mechanical properties :
#
#
# Convention : Reuss Voigt Hill
#
# Bulk Modulus (GPa) = 61.70034 62.62553 62.16293
# Shear Modulus (GPa) = 26.02468 27.34777 26.68622
#
# Velocity S-wave (km/s) = 3.75695 3.85126 3.80440
# Velocity P-wave (km/s) = 7.23070 7.33087 7.28096
#
# Compressibility (1/GPa) = 0.01620737
#
# Stress axis : x y z
#
# Youngs Moduli (GPa) = 64.62304 57.78828 50.32786
#
# Poissons Ratio (x) = 0.15526 0.41069
# Poissons Ratio (y) = 0.17363 0.37109
# Poissons Ratio (z) = 0.52735 0.42610
#
# Static dielectric constant tensor:
#      x y z
#    x 3.608350 0.000000 0.000000 
#    y 0.000000 3.507750 0.000000 
#    z 0.000000 0.000000 3.355580 
# 
# 
# High freq. dielectric constant tensor:
#      x y z
#    x 1.720230 0.000000 0.000000 
#    y 0.000000 1.713290 0.000000 
#    z 0.000000 0.000000 1.717890 
# 
# From -- ./inp_files/19618.got.cif
#   From: 2010.06.25/outbox.cif.g09.slc.cpg/sg52_10_cif.got.tgz:19618.got - 2010.06.26 19:32:48.
