data_PCOD8215825
_publ_section_title
;
Structure prediction by ZEFSAII (Michael W. Deem and Ramdas Pophale) SiO2 
 PCOD8215825
Probable space group: P N N A
;
_chemical_formula_sum "Si O2"
_cell_formula_units_Z 40
_cell_length_a 38.262458
_cell_length_b 9.790229
_cell_length_c 5.214961
_cell_angle_alpha 90.000000
_cell_angle_beta 90.000000
_cell_angle_gamma 90.000000
_cell_volume 1953.515139
_symmetry_space_group_name_H-M "P N N A"
_symmetry_group_IT_number 52
_symmetry_cell_setting 'orthorhombic'
loop_
_space_group_symop_operation_xyz
x,y,z
1/2-x,-y,z
x,1/2-y,1/2-z
1/2-x,1/2+y,1/2-z
-x,-y,-z
1/2+x,y,-z
-x,1/2+y,1/2+z
1/2+x,1/2-y,1/2+z
loop_
_atom_site_type_symbol
_atom_site_label
_atom_site_fract_x
_atom_site_fract_y
_atom_site_fract_z
Si Si1 0.729114 0.750000 0.250000
Si Si2 0.688400 0.600042 0.863793
Si Si3 0.570440 0.983435 0.211409
Si Si4 0.027868 0.250000 0.750000
Si Si5 0.110530 0.911454 0.279532
Si Si6 0.016781 0.750000 0.750000
Si Si7 0.250000 0.000000 0.055731
O O1 0.703667 0.870641 0.355686
O O2 0.753336 0.650081 0.420669
O O3 0.689025 0.750000 0.750000
O O4 0.649452 0.539154 0.856210
O O5 0.714723 0.497444 0.723296
O O6 0.585308 0.963331 0.496333
O O7 0.540519 0.873950 0.155497
O O8 0.553058 0.128296 0.174146
O O9 0.600439 0.974221 0.995280
O O10 0.005552 0.208037 0.499668
O O11 0.108054 0.750000 0.250000
#
# Coordination Sequence:
#
# PCOD8215825 Si02
#       7
#     4   8   8   4   8   4   4
#     4  10  20  37  65  86 128 160 208 276 330 366
#     4   9  21  35  62  92 123 165 215 268 317 365
#     4  12  24  42  67  94 132 167 212 264 315 385
#     4  12  26  42  65  96 136 163 204 265 330 372
#     4  11  22  40  66  94 126 169 221 262 311 380
#     4  12  22  43  68  98 122 167 220 255 312 384
#     4  10  20  38  60  96 124 162 212 268 324 384
#
# _framework density 20.475909999999999
#
# number of rings (size 3 to 8) (size 9 to 14) (size 15 to 20)
#    0.000    1.200    2.000    4.200    8.400    0.000 
#    0.000    1.000   13.200    0.000    0.000    0.000 
#    0.000    0.000    0.000    0.000    0.000    0.000 
#
# Total GULP energy -495693.334061 kJ/mol
# GULP energy per Si atom -12392.333352 kJ/mol
# Density = 2.042931 g / cm^3
# Si number density = 20.475910 Si / 1000 Ang^3
#
#
#
# Elastic Constant Matrix: (Units=GPa)
#
#
# Indices 1 2 3 4 5 6 
#
# 1 118.6335 46.2213 34.4974 0.0000 0.0000 0.0000
# 2 46.2213 94.3395 17.9286 0.0000 0.0000 0.0000
# 3 34.4974 17.9286 108.8799 0.0000 0.0000 0.0000
# 4 0.0000 0.0000 0.0000 28.7709 0.0000 0.0000
# 5 0.0000 0.0000 0.0000 0.0000 1.5254 0.0000
# 6 0.0000 0.0000 0.0000 0.0000 0.0000 64.0364
#
#
#
# Elastic Compliance Matrix: (Units=1/GPa)
#
#
# Indices 1 2 3 4 5 6 
#
# 1 0.011146 -0.004945 -0.002717 0.000000 0.000000 0.000000
# 2 -0.004945 0.013136 -0.000596 0.000000 0.000000 0.000000
# 3 -0.002717 -0.000596 0.010144 0.000000 0.000000 0.000000
# 4 0.000000 0.000000 0.000000 0.034757 0.000000 0.000000
# 5 0.000000 0.000000 0.000000 0.000000 0.655561 0.000000
# 6 0.000000 0.000000 0.000000 0.000000 0.000000 0.015616
#
#
# Mechanical properties :
#
#
# Convention : Reuss Voigt Hill
#
# Bulk Modulus (GPa) = 55.83774 57.68306 56.76040
# Shear Modulus (GPa) = 6.55440 33.74693 20.15067
#
# Velocity S-wave (km/s) = 1.79108 4.06412 3.14047
# Velocity P-wave (km/s) = 5.62196 7.08908 6.39772
#
# Compressibility (1/GPa) = 0.01790903
#
# Stress axis : x y z
#
# Youngs Moduli (GPa) = 89.71883 76.12725 98.58456
#
# Poissons Ratio (x) = 0.37641 0.26788
# Poissons Ratio (y) = 0.44362 0.05880
# Poissons Ratio (z) = 0.24379 0.04540
#
# Static dielectric constant tensor:
#      x y z
#    x 4.163220 0.000000 0.000000 
#    y 0.000000 3.541110 0.000000 
#    z 0.000000 0.000000 3.150330 
# 
# 
# High freq. dielectric constant tensor:
#      x y z
#    x 1.804290 0.000000 0.000000 
#    y 0.000000 1.783840 0.000000 
#    z 0.000000 0.000000 1.814180 
# 
# From -- ./inp_files/5665.got.cif
#   From: 2010.06.25/outbox.cif.g09.slc.cpg/sg52_3_cif.got.tgz:5665.got - 2010.06.26 19:32:48.
