data_PCOD8215004
_publ_section_title
;
Structure prediction by ZEFSAII (Michael W. Deem and Ramdas Pophale) SiO2 
 PCOD8215004
Probable space group: P N N A
;
_chemical_formula_sum "Si O2"
_cell_formula_units_Z 48
_cell_length_a 20.184909
_cell_length_b 14.709219
_cell_length_c 9.155804
_cell_angle_alpha 90.000000
_cell_angle_beta 90.000000
_cell_angle_gamma 90.000000
_cell_volume 2718.397092
_symmetry_space_group_name_H-M "P N N A"
_symmetry_group_IT_number 52
_symmetry_cell_setting 'orthorhombic'
loop_
_space_group_symop_operation_xyz
x,y,z
1/2-x,-y,z
x,1/2-y,1/2-z
1/2-x,1/2+y,1/2-z
-x,-y,-z
1/2+x,y,-z
-x,1/2+y,1/2+z
1/2+x,1/2-y,1/2+z
loop_
_atom_site_type_symbol
_atom_site_label
_atom_site_fract_x
_atom_site_fract_y
_atom_site_fract_z
Si Si1 0.190974 0.433375 0.076858
Si Si2 0.753470 0.598443 0.619047
Si Si3 0.392967 0.153204 0.175589
Si Si4 0.605452 0.766913 0.414587
Si Si5 0.936852 0.051309 0.561921
Si Si6 0.738891 0.237021 0.415564
O O1 0.250000 0.500000 0.032103
O O2 0.194769 0.405218 0.247130
O O3 0.122786 0.481972 0.038149
O O4 0.194851 0.343204 0.979983
O O5 0.750000 0.500000 0.540085
O O6 0.681847 0.617976 0.688576
O O7 0.778177 0.671005 0.502344
O O8 0.394710 0.250000 0.250000
O O9 0.439783 0.082193 0.265220
O O10 0.414057 0.175099 0.007553
O O11 0.582696 0.750000 0.250000
O O12 0.569516 0.857194 0.468298
O O13 0.683636 0.784850 0.429149
O O14 0.000000 0.000000 0.500000
O O15 0.716537 0.250000 0.250000
#
# Coordination Sequence:
#
# PCOD8215004 Si02
#       6
#     8   8   8   8   8   8
#     4  11  18  34  56  79 108 141 187 232 277 330
#     4  10  17  30  56  83 109 140 191 226 273 329
#     4   9  16  32  56  79 106 146 186 223 268 333
#     4   9  18  35  57  80 108 148 190 221 274 348
#     4  11  21  35  55  83 109 145 190 233 278 334
#     4  10  20  33  52  85 117 143 178 235 291 327
#
# _framework density 17.657465999999999
#
# number of rings (size 3 to 8) (size 9 to 14) (size 15 to 20)
#    0.000    2.000    5.000    2.500    0.000    0.667 
#    3.000    5.000    0.000    0.000    0.000    0.000 
#    0.000    0.000    0.000    0.000    0.000    0.000 
#
# Total GULP energy -594903.360258 kJ/mol
# GULP energy per Si atom -12393.820005 kJ/mol
# Density = 1.761728 g / cm^3
# Si number density = 17.657466 Si / 1000 Ang^3
#
#
#
# Elastic Constant Matrix: (Units=GPa)
#
#
# Indices 1 2 3 4 5 6 
#
# 1 78.4706 42.6652 37.9070 0.0000 0.0000 0.0000
# 2 42.6652 118.0913 63.5686 0.0000 0.0000 0.0000
# 3 37.9070 63.5686 131.3031 0.0000 0.0000 0.0000
# 4 0.0000 0.0000 0.0000 27.0554 0.0000 0.0000
# 5 0.0000 0.0000 0.0000 0.0000 13.1079 0.0000
# 6 0.0000 0.0000 0.0000 0.0000 0.0000 22.9107
#
#
#
# Elastic Compliance Matrix: (Units=1/GPa)
#
#
# Indices 1 2 3 4 5 6 
#
# 1 0.016459 -0.004583 -0.002533 0.000000 0.000000 0.000000
# 2 -0.004583 0.012729 -0.004839 0.000000 0.000000 0.000000
# 3 -0.002533 -0.004839 0.010690 0.000000 0.000000 0.000000
# 4 0.000000 0.000000 0.000000 0.036961 0.000000 0.000000
# 5 0.000000 0.000000 0.000000 0.000000 0.076290 0.000000
# 6 0.000000 0.000000 0.000000 0.000000 0.000000 0.043648
#
#
# Mechanical properties :
#
#
# Convention : Reuss Voigt Hill
#
# Bulk Modulus (GPa) = 62.62755 68.46073 65.54414
# Shear Modulus (GPa) = 22.12294 24.86308 23.49301
#
# Velocity S-wave (km/s) = 3.54346 3.75651 3.65154
# Velocity P-wave (km/s) = 7.23094 7.59413 7.41476
#
# Compressibility (1/GPa) = 0.01596741
#
# Stress axis : x y z
#
# Youngs Moduli (GPa) = 60.75687 78.56148 93.54420
#
# Poissons Ratio (x) = 0.36005 0.23694
# Poissons Ratio (y) = 0.27845 0.45270
# Poissons Ratio (z) = 0.15389 0.38019
#
# Static dielectric constant tensor:
#      x y z
#    x 2.915500 0.000000 0.000000 
#    y 0.000000 3.547330 0.000000 
#    z 0.000000 0.000000 3.702500 
# 
# 
# High freq. dielectric constant tensor:
#      x y z
#    x 1.631300 0.000000 0.000000 
#    y 0.000000 1.698450 0.000000 
#    z 0.000000 0.000000 1.686640 
# 
# From -- ./inp_files/13282.got.cif
#   From: 2010.06.25/outbox.cif.g09.slc.cpg/sg52_7_cif.got.tgz:13282.got - 2010.06.26 19:32:48.
