data_PCOD8215408
_publ_section_title
;
Structure prediction by ZEFSAII (Michael W. Deem and Ramdas Pophale) SiO2 
 PCOD8215408
Probable space group: P N N A
;
_chemical_formula_sum "Si O2"
_cell_formula_units_Z 64
_cell_length_a 9.754192
_cell_length_b 23.192019
_cell_length_c 14.119922
_cell_angle_alpha 90.000000
_cell_angle_beta 90.000000
_cell_angle_gamma 90.000000
_cell_volume 3194.200370
_symmetry_space_group_name_H-M "P N N A"
_symmetry_group_IT_number 52
_symmetry_cell_setting 'orthorhombic'
loop_
_space_group_symop_operation_xyz
x,y,z
1/2-x,-y,z
x,1/2-y,1/2-z
1/2-x,1/2+y,1/2-z
-x,-y,-z
1/2+x,y,-z
-x,1/2+y,1/2+z
1/2+x,1/2-y,1/2+z
loop_
_atom_site_type_symbol
_atom_site_label
_atom_site_fract_x
_atom_site_fract_y
_atom_site_fract_z
Si Si1 0.388477 0.526522 0.300756
Si Si2 0.604669 0.210060 0.826951
Si Si3 0.067283 0.704653 0.941234
Si Si4 0.945759 0.382147 0.212764
Si Si5 0.785079 0.617197 0.551023
Si Si6 0.642659 0.233735 0.402229
Si Si7 0.498445 0.917319 0.898483
Si Si8 0.841915 0.840891 0.219266
O O1 0.250000 0.500000 0.252522
O O2 0.494430 0.552302 0.221986
O O3 0.332175 0.577508 0.364042
O O4 0.470327 0.483168 0.370705
O O5 0.689782 0.250000 0.750000
O O6 0.478538 0.249637 0.861395
O O7 0.547686 0.155543 0.773798
O O8 0.687824 0.184779 0.918337
O O9 0.049309 0.640086 0.896543
O O10 0.227188 0.713013 0.962780
O O11 0.989999 0.717130 0.037837
O O12 0.795632 0.377195 0.259774
O O13 0.621158 0.610361 0.539466
O O14 0.858278 0.593270 0.456989
O O15 0.622436 0.198425 0.306965
O O16 0.664975 0.301037 0.376138
O O17 0.469160 0.884388 0.799042
#
# Coordination Sequence:
#
# PCOD8215408 Si02
#       8
#     8   8   8   8   8   8   8   8
#     4   9  20  39  56  82 117 147 193 246 293 342
#     4   9  17  32  54  80 110 146 190 231 280 342
#     4  10  19  35  59  84 111 152 195 233 287 345
#     4   9  18  36  60  80 107 158 194 231 287 353
#     4  10  22  36  54  81 115 148 194 235 285 344
#     4  10  21  38  56  85 118 152 187 241 285 351
#     4  11  23  37  56  83 115 155 191 241 289 347
#     4  10  21  37  57  81 121 151 190 231 295 350
#
# _framework density 20.036314000000001
#
# number of rings (size 3 to 8) (size 9 to 14) (size 15 to 20)
#    0.000    2.250    1.250    1.125    3.500    3.500 
#   11.250    0.000    0.000    0.750    0.000    0.000 
#    0.000    0.000    0.000    0.000    0.000    0.000 
#
# Total GULP energy -792891.902859 kJ/mol
# GULP energy per Si atom -12388.935982 kJ/mol
# Density = 1.999071 g / cm^3
# Si number density = 20.036314 Si / 1000 Ang^3
#
#
#
# Elastic Constant Matrix: (Units=GPa)
#
#
# Indices 1 2 3 4 5 6 
#
# 1 100.9301 38.2740 40.9601 0.0000 0.0000 0.0000
# 2 38.2740 54.8684 12.5844 0.0000 0.0000 0.0000
# 3 40.9601 12.5844 54.1793 0.0000 0.0000 0.0000
# 4 0.0000 0.0000 0.0000 21.1891 0.0000 0.0000
# 5 0.0000 0.0000 0.0000 0.0000 22.6740 0.0000
# 6 0.0000 0.0000 0.0000 0.0000 0.0000 14.6554
#
#
#
# Elastic Compliance Matrix: (Units=1/GPa)
#
#
# Indices 1 2 3 4 5 6 
#
# 1 0.018505 -0.010245 -0.011610 0.000000 0.000000 0.000000
# 2 -0.010245 0.024923 0.001957 0.000000 0.000000 0.000000
# 3 -0.011610 0.001957 0.026780 0.000000 0.000000 0.000000
# 4 0.000000 0.000000 0.000000 0.047194 0.000000 0.000000
# 5 0.000000 0.000000 0.000000 0.000000 0.044103 0.000000
# 6 0.000000 0.000000 0.000000 0.000000 0.000000 0.068234
#
#
# Mechanical properties :
#
#
# Convention : Reuss Voigt Hill
#
# Bulk Modulus (GPa) = 32.88331 43.73496 38.30913
# Shear Modulus (GPa) = 17.87796 19.58100 18.72948
#
# Velocity S-wave (km/s) = 2.99034 3.12953 3.06073
# Velocity P-wave (km/s) = 5.32638 5.91049 5.62602
#
# Compressibility (1/GPa) = 0.03041057
#
# Stress axis : x y z
#
# Youngs Moduli (GPa) = 54.04055 40.12298 37.34123
#
# Poissons Ratio (x) = 0.41107 0.43353
# Poissons Ratio (y) = 0.55366 -0.07306
# Poissons Ratio (z) = 0.62741 -0.07850
#
# Static dielectric constant tensor:
#      x y z
#    x 3.723610 0.000000 0.000000 
#    y 0.000000 1.864430 0.000000 
#    z 0.000000 0.000000 3.509460 
# 
# 
# High freq. dielectric constant tensor:
#      x y z
#    x 1.776690 0.000000 0.000000 
#    y 0.000000 1.776800 0.000000 
#    z 0.000000 0.000000 1.759120 
# 
# From -- ./inp_files/25130.got.cif
#   From: 2010.06.25/outbox.cif.g09.slc.cpg/sg52_13_cif.got.tgz:25130.got - 2010.06.26 19:32:48.
