data_PCOD8215121
_publ_section_title
;
Structure prediction by ZEFSAII (Michael W. Deem and Ramdas Pophale) SiO2 
 PCOD8215121
Probable space group: P N N A
;
_chemical_formula_sum "Si O2"
_cell_formula_units_Z 28
_cell_length_a 5.332397
_cell_length_b 31.527000
_cell_length_c 7.798334
_cell_angle_alpha 90.000000
_cell_angle_beta 90.000000
_cell_angle_gamma 90.000000
_cell_volume 1311.012867
_symmetry_space_group_name_H-M "P N N A"
_symmetry_group_IT_number 52
_symmetry_cell_setting 'orthorhombic'
loop_
_space_group_symop_operation_xyz
x,y,z
1/2-x,-y,z
x,1/2-y,1/2-z
1/2-x,1/2+y,1/2-z
-x,-y,-z
1/2+x,y,-z
-x,1/2+y,1/2+z
1/2+x,1/2-y,1/2+z
loop_
_atom_site_type_symbol
_atom_site_label
_atom_site_fract_x
_atom_site_fract_y
_atom_site_fract_z
Si Si1 0.250253 0.201241 0.797710
Si Si2 0.250250 0.333755 0.324128
Si Si3 0.750070 0.067293 0.898326
Si Si4 0.250000 0.500000 0.110452
O O1 0.249977 0.250000 0.750000
O O2 0.499900 0.179016 0.718491
O O3 0.000752 0.178957 0.718544
O O4 0.250442 0.193898 0.001914
O O5 0.249986 0.382975 0.365084
O O6 0.749992 0.042749 0.720564
O O7 0.500118 0.053879 0.000057
O O8 0.500000 0.500000 0.000000
#
# Coordination Sequence:
#
# PCOD8215121 Si02
#       4
#     8   8   8   4
#     4  10  18  32  56  82 122 155 202 267 330 353
#     4  10  19  35  58  88 117 164 213 275 306 380
#     4  12  21  43  75 101 126 177 238 272 320 408
#     4  12  28  46  68 102 146 172 206 284 356 410
#
# _framework density 21.357533
#
# number of rings (size 3 to 8) (size 9 to 14) (size 15 to 20)
#    0.000    1.143    5.714    3.429    0.000    0.000 
#    0.000    0.000   37.714    0.000    0.000    0.000 
#    0.000    0.000    0.000    0.000    0.000    0.000 
#
# Total GULP energy -347083.074743 kJ/mol
# GULP energy per Si atom -12395.824098 kJ/mol
# Density = 2.130892 g / cm^3
# Si number density = 21.357533 Si / 1000 Ang^3
#
#
#
# Elastic Constant Matrix: (Units=GPa)
#
#
# Indices 1 2 3 4 5 6 
#
# 1 277.6369 53.3788 54.3069 0.0000 0.0000 0.0000
# 2 53.3788 126.4805 68.8742 0.0000 0.0000 0.0000
# 3 54.3069 68.8742 78.7121 0.0000 0.0000 0.0000
# 4 0.0000 0.0000 0.0000 46.4867 0.0000 0.0000
# 5 0.0000 0.0000 0.0000 0.0000 29.7773 0.0000
# 6 0.0000 0.0000 0.0000 0.0000 0.0000 14.0423
#
#
#
# Elastic Compliance Matrix: (Units=1/GPa)
#
#
# Indices 1 2 3 4 5 6 
#
# 1 0.004173 -0.000369 -0.002556 0.000000 0.000000 0.000000
# 2 -0.000369 0.015135 -0.012989 0.000000 0.000000 0.000000
# 3 -0.002556 -0.012989 0.025833 0.000000 0.000000 0.000000
# 4 0.000000 0.000000 0.000000 0.021512 0.000000 0.000000
# 5 0.000000 0.000000 0.000000 0.000000 0.033583 0.000000
# 6 0.000000 0.000000 0.000000 0.000000 0.000000 0.071213
#
#
# Mechanical properties :
#
#
# Convention : Reuss Voigt Hill
#
# Bulk Modulus (GPa) = 75.11180 92.88325 83.99753
# Shear Modulus (GPa) = 24.07154 38.47922 31.27538
#
# Velocity S-wave (km/s) = 3.36084 4.24921 3.83086
# Velocity P-wave (km/s) = 7.09263 8.22548 7.67997
#
# Compressibility (1/GPa) = 0.01331349
#
# Stress axis : x y z
#
# Youngs Moduli (GPa) = 239.64971 66.07154 38.70986
#
# Poissons Ratio (x) = 0.02440 0.09894
# Poissons Ratio (y) = 0.08849 0.50279
# Poissons Ratio (z) = 0.61251 0.85818
#
# Static dielectric constant tensor:
#      x y z
#    x 7.508640 0.000000 0.000000 
#    y 0.000000 3.768260 0.000000 
#    z 0.000000 0.000000 0.245260 
# 
# 
# High freq. dielectric constant tensor:
#      x y z
#    x 1.887290 0.000000 0.000000 
#    y 0.000000 1.847320 0.000000 
#    z 0.000000 0.000000 1.786450 
# 
# From -- ./inp_files/6673.got.cif
#   From: 2010.06.25/outbox.cif.g09.slc.cpg/sg52_4_cif.got.tgz:6673.got - 2010.06.26 19:32:48.
