data_PCOD8215683
_publ_section_title
;
Structure prediction by ZEFSAII (Michael W. Deem and Ramdas Pophale) SiO2 
 PCOD8215683
Probable space group: P N N A
;
_chemical_formula_sum "Si O2"
_cell_formula_units_Z 48
_cell_length_a 10.184857
_cell_length_b 11.644644
_cell_length_c 20.225895
_cell_angle_alpha 90.000000
_cell_angle_beta 90.000000
_cell_angle_gamma 90.000000
_cell_volume 2398.771608
_symmetry_space_group_name_H-M "P N N A"
_symmetry_group_IT_number 52
_symmetry_cell_setting 'orthorhombic'
loop_
_space_group_symop_operation_xyz
x,y,z
1/2-x,-y,z
x,1/2-y,1/2-z
1/2-x,1/2+y,1/2-z
-x,-y,-z
1/2+x,y,-z
-x,1/2+y,1/2+z
1/2+x,1/2-y,1/2+z
loop_
_atom_site_type_symbol
_atom_site_label
_atom_site_fract_x
_atom_site_fract_y
_atom_site_fract_z
Si Si1 0.033174 0.604601 0.110542
Si Si2 0.241274 0.133219 0.289368
Si Si3 0.789760 0.625900 0.444524
Si Si4 0.988238 0.143369 0.366740
Si Si5 0.533226 0.721672 0.493918
Si Si6 0.209664 0.293017 0.824180
O O1 0.019993 0.669898 0.041834
O O2 0.916597 0.628704 0.162477
O O3 0.171584 0.632361 0.144622
O O4 0.021837 0.471287 0.092582
O O5 0.287270 0.250000 0.250000
O O6 0.090449 0.158533 0.307087
O O7 0.250000 0.000000 0.257274
O O8 0.750000 0.500000 0.424744
O O9 0.682631 0.677643 0.495407
O O10 0.930181 0.626048 0.481483
O O11 0.796930 0.687851 0.374599
O O12 0.002288 0.246858 0.418629
O O13 0.843351 0.136428 0.335386
O O14 0.202484 0.250000 0.750000
#
# Coordination Sequence:
#
# PCOD8215683 Si02
#       6
#     8   8   8   8   8   8
#     4  10  20  35  57  81 107 139 178 227 276 323
#     4  10  21  38  57  81 112 146 186 228 273 328
#     4  10  21  36  55  78 108 145 178 219 270 328
#     4  10  20  35  57  81 107 139 178 227 276 323
#     4  10  20  36  56  80 108 136 178 224 272 328
#     4  10  21  36  54  79 110 141 181 221 267 326
#
# _framework density 20.010241000000001
#
# number of rings (size 3 to 8) (size 9 to 14) (size 15 to 20)
#    0.000    2.000    0.000    3.500    0.000    1.333 
#    0.000   18.333    0.000    0.000    0.000    0.000 
#    0.000    0.000    0.000    0.000    0.000    0.000 
#
# Total GULP energy -594882.491383 kJ/mol
# GULP energy per Si atom -12393.385237 kJ/mol
# Density = 1.996470 g / cm^3
# Si number density = 20.010241 Si / 1000 Ang^3
#
#
#
# Elastic Constant Matrix: (Units=GPa)
#
#
# Indices 1 2 3 4 5 6 
#
# 1 98.7378 2.1737 23.8833 0.0000 0.0000 0.0000
# 2 2.1737 73.6506 11.9352 0.0000 0.0000 0.0000
# 3 23.8833 11.9352 66.9670 0.0000 0.0000 0.0000
# 4 0.0000 0.0000 0.0000 19.9546 0.0000 0.0000
# 5 0.0000 0.0000 0.0000 0.0000 25.8215 0.0000
# 6 0.0000 0.0000 0.0000 0.0000 0.0000 24.8867
#
#
#
# Elastic Compliance Matrix: (Units=1/GPa)
#
#
# Indices 1 2 3 4 5 6 
#
# 1 0.011091 0.000323 -0.004013 0.000000 0.000000 0.000000
# 2 0.000323 0.013991 -0.002609 0.000000 0.000000 0.000000
# 3 -0.004013 -0.002609 0.016829 0.000000 0.000000 0.000000
# 4 0.000000 0.000000 0.000000 0.050114 0.000000 0.000000
# 5 0.000000 0.000000 0.000000 0.000000 0.038727 0.000000
# 6 0.000000 0.000000 0.000000 0.000000 0.000000 0.040182
#
#
# Mechanical properties :
#
#
# Convention : Reuss Voigt Hill
#
# Bulk Modulus (GPa) = 34.11418 35.03777 34.57598
# Shear Modulus (GPa) = 25.86604 27.55677 26.71140
#
# Velocity S-wave (km/s) = 3.59923 3.71500 3.65757
# Velocity P-wave (km/s) = 5.86157 5.99580 5.92906
#
# Compressibility (1/GPa) = 0.02931332
#
# Stress axis : x y z
#
# Youngs Moduli (GPa) = 90.15933 71.47529 59.42135
#
# Poissons Ratio (x) = -0.02309 0.23847
# Poissons Ratio (y) = -0.02912 0.15501
# Poissons Ratio (z) = 0.36183 0.18646
#
# Static dielectric constant tensor:
#      x y z
#    x 4.017460 0.000000 0.000000 
#    y 0.000000 3.752900 0.000000 
#    z 0.000000 0.000000 3.302920 
# 
# 
# High freq. dielectric constant tensor:
#      x y z
#    x 1.801260 0.000000 0.000000 
#    y 0.000000 1.780670 0.000000 
#    z 0.000000 0.000000 1.760190 
# 
# From -- ./inp_files/32226.got.cif
#   From: 2010.06.25/outbox.cif.g09.slc.cpg/sg52_17_cif.got.tgz:32226.got - 2010.06.26 19:32:48.
