data_PCOD8215886
_publ_section_title
;
Structure prediction by ZEFSAII (Michael W. Deem and Ramdas Pophale) SiO2 
 PCOD8215886
Probable space group: P N N A
;
_chemical_formula_sum "Si O2"
_cell_formula_units_Z 32
_cell_length_a 12.081190
_cell_length_b 4.990994
_cell_length_c 23.323794
_cell_angle_alpha 90.000000
_cell_angle_beta 90.000000
_cell_angle_gamma 90.000000
_cell_volume 1406.358231
_symmetry_space_group_name_H-M "P N N A"
_symmetry_group_IT_number 52
_symmetry_cell_setting 'orthorhombic'
loop_
_space_group_symop_operation_xyz
x,y,z
1/2-x,-y,z
x,1/2-y,1/2-z
1/2-x,1/2+y,1/2-z
-x,-y,-z
1/2+x,y,-z
-x,1/2+y,1/2+z
1/2+x,1/2-y,1/2+z
loop_
_atom_site_type_symbol
_atom_site_label
_atom_site_fract_x
_atom_site_fract_y
_atom_site_fract_z
Si Si1 0.101548 0.305554 0.905716
Si Si2 0.750000 0.500000 0.578252
Si Si3 0.472042 0.820944 0.131226
Si Si4 0.561918 0.750000 0.250000
Si Si5 0.250000 0.000000 0.495985
Si Si6 0.250000 0.500000 0.817916
O O1 0.206858 0.271494 0.862163
O O2 0.011006 0.521061 0.883428
O O3 0.145866 0.389629 0.967970
O O4 0.044667 0.017519 0.908384
O O5 0.655838 0.370899 0.618212
O O6 0.704213 0.748546 0.540688
O O7 0.487690 0.879358 0.199528
O O8 0.644358 0.538459 0.221709
#
# Coordination Sequence:
#
# PCOD8215886 Si02
#       6
#     8   4   8   4   4   4
#     4  10  22  40  65  96 122 154 204 263 324 379
#     4  12  26  42  60  90 128 174 222 250 292 374
#     4  11  24  41  62  91 126 165 213 255 305 375
#     4  10  20  38  64  92 126 164 196 260 322 364
#     4  11  24  42  67  94 127 164 204 269 326 364
#     4   9  18  34  63  94 119 144 196 257 326 384
#
# _framework density 22.753805
#
# number of rings (size 3 to 8) (size 9 to 14) (size 15 to 20)
#    0.000    1.500    0.000    4.500    0.000   16.000 
#    0.000    6.250    0.000    0.000    0.000    0.000 
#    0.000    0.000    0.000    0.000    0.000    0.000 
#
# Total GULP energy -396533.348040 kJ/mol
# GULP energy per Si atom -12391.667126 kJ/mol
# Density = 2.270202 g / cm^3
# Si number density = 22.753805 Si / 1000 Ang^3
#
#
#
# Elastic Constant Matrix: (Units=GPa)
#
#
# Indices 1 2 3 4 5 6 
#
# 1 100.2126 8.7006 60.2162 0.0000 0.0000 0.0000
# 2 8.7006 83.8774 28.5388 0.0000 0.0000 0.0000
# 3 60.2162 28.5388 126.7927 0.0000 0.0000 0.0000
# 4 0.0000 0.0000 0.0000 21.2031 0.0000 0.0000
# 5 0.0000 0.0000 0.0000 0.0000 41.3700 0.0000
# 6 0.0000 0.0000 0.0000 0.0000 0.0000 33.6548
#
#
#
# Elastic Compliance Matrix: (Units=1/GPa)
#
#
# Indices 1 2 3 4 5 6 
#
# 1 0.014023 0.000879 -0.006858 0.000000 0.000000 0.000000
# 2 0.000879 0.012966 -0.003336 0.000000 0.000000 0.000000
# 3 -0.006858 -0.003336 0.011895 0.000000 0.000000 0.000000
# 4 0.000000 0.000000 0.000000 0.047163 0.000000 0.000000
# 5 0.000000 0.000000 0.000000 0.000000 0.024172 0.000000
# 6 0.000000 0.000000 0.000000 0.000000 0.000000 0.029713
#
#
# Mechanical properties :
#
#
# Convention : Reuss Voigt Hill
#
# Bulk Modulus (GPa) = 49.37225 56.19931 52.78578
# Shear Modulus (GPa) = 30.24568 33.47405 31.85986
#
# Velocity S-wave (km/s) = 3.64985 3.83971 3.74598
# Velocity P-wave (km/s) = 6.28550 6.66410 6.47757
#
# Compressibility (1/GPa) = 0.02025429
#
# Stress axis : x y z
#
# Youngs Moduli (GPa) = 71.31067 77.12491 84.07238
#
# Poissons Ratio (x) = -0.06777 0.57654
# Poissons Ratio (y) = -0.06266 0.28044
# Poissons Ratio (z) = 0.48902 0.25727
#
# Static dielectric constant tensor:
#      x y z
#    x 4.022860 0.000000 0.000000 
#    y 0.000000 3.930870 0.000000 
#    z 0.000000 0.000000 4.520860 
# 
# 
# High freq. dielectric constant tensor:
#      x y z
#    x 1.883360 0.000000 0.000000 
#    y 0.000000 1.891190 0.000000 
#    z 0.000000 0.000000 1.903970 
# 
# From -- ./inp_files/36510.got.cif
#   From: 2010.06.25/outbox.cif.g09.slc.cpg/sg52_19_cif.got.tgz:36510.got - 2010.06.26 19:32:48.
