data_PCOD8215276
_publ_section_title
;
Structure prediction by ZEFSAII (Michael W. Deem and Ramdas Pophale) SiO2 
 PCOD8215276
Probable space group: P N N A
;
_chemical_formula_sum "Si O2"
_cell_formula_units_Z 56
_cell_length_a 8.985304
_cell_length_b 17.756756
_cell_length_c 19.426254
_cell_angle_alpha 90.000000
_cell_angle_beta 90.000000
_cell_angle_gamma 90.000000
_cell_volume 3099.455926
_symmetry_space_group_name_H-M "P N N A"
_symmetry_group_IT_number 52
_symmetry_cell_setting 'orthorhombic'
loop_
_space_group_symop_operation_xyz
x,y,z
1/2-x,-y,z
x,1/2-y,1/2-z
1/2-x,1/2+y,1/2-z
-x,-y,-z
1/2+x,y,-z
-x,1/2+y,1/2+z
1/2+x,1/2-y,1/2+z
loop_
_atom_site_type_symbol
_atom_site_label
_atom_site_fract_x
_atom_site_fract_y
_atom_site_fract_z
Si Si1 0.872855 0.216482 0.174167
Si Si2 0.395189 0.160528 0.377937
Si Si3 0.240137 0.137679 0.631917
Si Si4 0.137908 0.944472 0.499395
Si Si5 0.292270 0.710173 0.323202
Si Si6 0.803796 0.920411 0.221607
Si Si7 0.846009 0.424801 0.743165
O O1 0.867753 0.250000 0.250000
O O2 0.828251 0.284143 0.123196
O O3 0.757850 0.145687 0.170777
O O4 0.039909 0.195413 0.150576
O O5 0.570496 0.165791 0.366922
O O6 0.377531 0.130049 0.454866
O O7 0.309302 0.240428 0.375192
O O8 0.323150 0.106123 0.320538
O O9 0.296372 0.080098 0.573576
O O10 0.269980 0.094427 0.703533
O O11 0.250000 0.000000 0.461166
O O12 0.000000 0.000000 0.500000
O O13 0.294320 0.750000 0.250000
O O14 0.217974 0.629337 0.315543
O O15 0.980585 0.929179 0.225578
O O16 0.750000 0.000000 0.192105
O O17 0.750000 0.500000 0.737531
#
# Coordination Sequence:
#
# PCOD8215276 Si02
#       7
#     8   8   8   8   8   8   8
#     4   9  18  32  50  73  97 132 171 212 261 314
#     4  10  21  35  50  70 103 141 175 215 258 304
#     4  10  21  35  50  70 103 140 176 213 257 309
#     4  12  24  37  51  75 106 141 182 216 250 302
#     4   9  18  32  50  72  98 130 172 213 260 313
#     4  10  19  31  52  74 104 134 170 215 264 309
#     4  10  19  32  51  76 103 133 171 216 263 310
#
# _framework density 18.067685000000001
#
# number of rings (size 3 to 8) (size 9 to 14) (size 15 to 20)
#    0.000    2.000    1.429    2.571    4.000    4.571 
#    0.000    0.000    0.000    0.000    0.000    1.000 
#    0.000    6.857    0.000    0.000    0.000    0.000 
#
# Total GULP energy -693790.867403 kJ/mol
# GULP energy per Si atom -12389.122632 kJ/mol
# Density = 1.802656 g / cm^3
# Si number density = 18.067685 Si / 1000 Ang^3
#
#
#
# Elastic Constant Matrix: (Units=GPa)
#
#
# Indices 1 2 3 4 5 6 
#
# 1 119.2812 60.4199 18.9607 0.0000 0.0000 0.0000
# 2 60.4199 132.0819 30.0616 0.0000 0.0000 0.0000
# 3 18.9607 30.0616 37.7170 0.0000 0.0000 0.0000
# 4 0.0000 0.0000 0.0000 21.8462 0.0000 0.0000
# 5 0.0000 0.0000 0.0000 0.0000 18.6425 0.0000
# 6 0.0000 0.0000 0.0000 0.0000 0.0000 44.0176
#
#
#
# Elastic Compliance Matrix: (Units=1/GPa)
#
#
# Indices 1 2 3 4 5 6 
#
# 1 0.011018 -0.004617 -0.001859 0.000000 0.000000 0.000000
# 2 -0.004617 0.011183 -0.006593 0.000000 0.000000 0.000000
# 3 -0.001859 -0.006593 0.032702 0.000000 0.000000 0.000000
# 4 0.000000 0.000000 0.000000 0.045775 0.000000 0.000000
# 5 0.000000 0.000000 0.000000 0.000000 0.053641 0.000000
# 6 0.000000 0.000000 0.000000 0.000000 0.000000 0.022718
#
#
# Mechanical properties :
#
#
# Convention : Reuss Voigt Hill
#
# Bulk Modulus (GPa) = 34.76254 56.44050 45.60152
# Shear Modulus (GPa) = 23.50037 28.87712 26.18875
#
# Velocity S-wave (km/s) = 3.61041 4.00218 3.81133
# Velocity P-wave (km/s) = 6.05492 7.25691 6.68299
#
# Compressibility (1/GPa) = 0.02876659
#
# Stress axis : x y z
#
# Youngs Moduli (GPa) = 90.76368 89.41768 30.57894
#
# Poissons Ratio (x) = 0.41283 0.05684
# Poissons Ratio (y) = 0.41904 0.20160
# Poissons Ratio (z) = 0.16872 0.58950
#
# Static dielectric constant tensor:
#      x y z
#    x 3.466470 0.000000 0.000000 
#    y 0.000000 3.448150 0.000000 
#    z 0.000000 0.000000 2.752990 
# 
# 
# High freq. dielectric constant tensor:
#      x y z
#    x 1.721600 0.000000 0.000000 
#    y 0.000000 1.705370 0.000000 
#    z 0.000000 0.000000 1.641670 
# 
# From -- ./inp_files/36141.got.cif
#   From: 2010.06.25/outbox.cif.g09.slc.cpg/sg52_19_cif.got.tgz:36141.got - 2010.06.26 19:32:48.
