data_PCOD8215405
_publ_section_title
;
Structure prediction by ZEFSAII (Michael W. Deem and Ramdas Pophale) SiO2 
 PCOD8215405
Probable space group: P N N A
;
_chemical_formula_sum "Si O2"
_cell_formula_units_Z 40
_cell_length_a 10.113223
_cell_length_b 11.883087
_cell_length_c 14.191579
_cell_angle_alpha 90.000000
_cell_angle_beta 90.000000
_cell_angle_gamma 90.000000
_cell_volume 1705.491580
_symmetry_space_group_name_H-M "P N N A"
_symmetry_group_IT_number 52
_symmetry_cell_setting 'orthorhombic'
loop_
_space_group_symop_operation_xyz
x,y,z
1/2-x,-y,z
x,1/2-y,1/2-z
1/2-x,1/2+y,1/2-z
-x,-y,-z
1/2+x,y,-z
-x,1/2+y,1/2+z
1/2+x,1/2-y,1/2+z
loop_
_atom_site_type_symbol
_atom_site_label
_atom_site_fract_x
_atom_site_fract_y
_atom_site_fract_z
Si Si1 0.374152 0.424213 0.486716
Si Si2 0.916148 0.201035 0.593563
Si Si3 0.957107 0.330927 0.330918
Si Si4 0.397761 0.487737 0.221348
Si Si5 0.376366 0.840232 0.437018
O O1 0.250000 0.500000 0.461552
O O2 0.500000 0.500000 0.500000
O O3 0.405102 0.337816 0.400493
O O4 0.352432 0.352798 0.584269
O O5 0.929396 0.143756 0.697330
O O6 0.780003 0.161590 0.542513
O O7 0.042888 0.163332 0.533576
O O8 0.893326 0.250000 0.250000
O O9 0.000598 0.454321 0.293460
O O10 0.086209 0.267694 0.372007
O O11 0.250000 0.500000 0.262541
O O12 0.411905 0.547377 0.119561
#
# Coordination Sequence:
#
# PCOD8215405 Si02
#       5
#     8   8   8   8   8
#     4  11  23  40  60  83 113 153 194 236 286 342
#     4  10  19  35  57  83 110 147 192 234 278 338
#     4   9  19  37  57  82 117 152 183 231 292 344
#     4   9  18  33  56  86 115 147 187 232 282 337
#     4   9  18  33  57  86 117 147 183 231 286 339
#
# _framework density 23.453648999999999
#
# number of rings (size 3 to 8) (size 9 to 14) (size 15 to 20)
#    0.000    2.400    0.000    3.000    0.000    2.400 
#    0.000   11.000    0.000    0.000    0.000    0.000 
#    0.000    0.000    0.000    0.000    0.000    0.000 
#
# Total GULP energy -495737.253850 kJ/mol
# GULP energy per Si atom -12393.431346 kJ/mol
# Density = 2.340027 g / cm^3
# Si number density = 23.453649 Si / 1000 Ang^3
#
#
#
# Elastic Constant Matrix: (Units=GPa)
#
#
# Indices 1 2 3 4 5 6 
#
# 1 62.4045 15.5900 1.4206 0.0000 0.0000 0.0000
# 2 15.5900 141.4224 38.6903 0.0000 0.0000 0.0000
# 3 1.4206 38.6903 74.7196 0.0000 0.0000 0.0000
# 4 0.0000 0.0000 0.0000 39.1305 0.0000 0.0000
# 5 0.0000 0.0000 0.0000 0.0000 13.3575 0.0000
# 6 0.0000 0.0000 0.0000 0.0000 0.0000 33.6995
#
#
#
# Elastic Compliance Matrix: (Units=1/GPa)
#
#
# Indices 1 2 3 4 5 6 
#
# 1 0.016513 -0.002021 0.000732 0.000000 0.000000 0.000000
# 2 -0.002021 0.008485 -0.004355 0.000000 0.000000 0.000000
# 3 0.000732 -0.004355 0.015625 0.000000 0.000000 0.000000
# 4 0.000000 0.000000 0.000000 0.025556 0.000000 0.000000
# 5 0.000000 0.000000 0.000000 0.000000 0.074864 0.000000
# 6 0.000000 0.000000 0.000000 0.000000 0.000000 0.029674
#
#
# Mechanical properties :
#
#
# Convention : Reuss Voigt Hill
#
# Bulk Modulus (GPa) = 34.08856 43.32758 38.70807
# Shear Modulus (GPa) = 26.07125 32.09387 29.08256
#
# Velocity S-wave (km/s) = 3.33769 3.70320 3.52519
# Velocity P-wave (km/s) = 5.42398 6.06619 5.75405
#
# Compressibility (1/GPa) = 0.02933536
#
# Stress axis : x y z
#
# Youngs Moduli (GPa) = 60.55972 117.85086 64.00137
#
# Poissons Ratio (x) = 0.23814 -0.04687
# Poissons Ratio (y) = 0.12237 0.27875
# Poissons Ratio (z) = -0.04435 0.51328
#
# Static dielectric constant tensor:
#      x y z
#    x 3.657210 0.000000 0.000000 
#    y 0.000000 4.744330 0.000000 
#    z 0.000000 0.000000 4.358310 
# 
# 
# High freq. dielectric constant tensor:
#      x y z
#    x 1.885760 0.000000 0.000000 
#    y 0.000000 1.952200 0.000000 
#    z 0.000000 0.000000 1.921670 
# 
# From -- ./inp_files/25831.got.cif
#   From: 2010.06.25/outbox.cif.g09.slc.cpg/sg52_13_cif.got.tgz:25831.got - 2010.06.26 19:32:48.
