data_PCOD8215298
_publ_section_title
;
Structure prediction by ZEFSAII (Michael W. Deem and Ramdas Pophale) SiO2 
 PCOD8215298
Probable space group: P N N A
;
_chemical_formula_sum "Si O2"
_cell_formula_units_Z 64
_cell_length_a 9.269254
_cell_length_b 13.257053
_cell_length_c 31.092595
_cell_angle_alpha 90.000000
_cell_angle_beta 90.000000
_cell_angle_gamma 90.000000
_cell_volume 3820.751089
_symmetry_space_group_name_H-M "P N N A"
_symmetry_group_IT_number 52
_symmetry_cell_setting 'orthorhombic'
loop_
_space_group_symop_operation_xyz
x,y,z
1/2-x,-y,z
x,1/2-y,1/2-z
1/2-x,1/2+y,1/2-z
-x,-y,-z
1/2+x,y,-z
-x,1/2+y,1/2+z
1/2+x,1/2-y,1/2+z
loop_
_atom_site_type_symbol
_atom_site_label
_atom_site_fract_x
_atom_site_fract_y
_atom_site_fract_z
Si Si1 0.078939 0.888762 0.727467
Si Si2 0.788163 0.883035 0.130369
Si Si3 0.917366 0.615391 0.223540
Si Si4 0.767201 0.880470 0.864550
Si Si5 0.975937 0.308619 0.686972
Si Si6 0.824420 0.108085 0.956316
Si Si7 0.169161 0.106979 0.963470
Si Si8 0.967727 0.192311 0.181631
O O1 0.248663 0.866481 0.730500
O O2 0.016720 0.876351 0.775647
O O3 0.006460 0.809210 0.694711
O O4 0.047381 0.000714 0.709927
O O5 0.947926 0.871231 0.148923
O O6 0.787295 0.840601 0.081498
O O7 0.690706 0.815874 0.161443
O O8 0.750000 0.000000 0.131857
O O9 0.997857 0.639398 0.267621
O O10 0.978161 0.690726 0.187167
O O11 0.690660 0.820628 0.825426
O O12 0.708802 0.838455 0.910608
O O13 0.932097 0.848039 0.856914
O O14 0.750000 0.000000 0.859958
O O15 0.995144 0.098307 0.966558
O O16 0.750000 0.000000 0.951351
O O17 0.739441 0.166152 0.995479
O O18 0.250000 0.000000 0.964744
#
# Coordination Sequence:
#
# PCOD8215298 Si02
#       8
#     8   8   8   8   8   8   8   8
#     4  10  19  34  50  76  96 131 166 217 254 287
#     4  11  19  29  50  70  96 132 172 200 241 292
#     4  10  19  32  55  70 101 127 171 212 252 292
#     4  11  23  33  48  71 106 134 166 206 244 291
#     4  11  19  35  47  76  94 135 169 208 243 291
#     4  10  20  32  45  68 100 133 165 199 247 295
#     4  10  20  30  47  69  98 133 167 200 244 299
#     4  11  21  33  50  72 101 130 173 209 243 294
#
# _framework density 16.750633000000001
#
# number of rings (size 3 to 8) (size 9 to 14) (size 15 to 20)
#    0.000    1.500    3.750    4.500    7.000    2.000 
#    0.000    1.875    0.000    0.000    0.000    0.000 
#    0.000    6.000    0.000    0.000    0.000    0.000 
#
# Total GULP energy -793151.278549 kJ/mol
# GULP energy per Si atom -12392.988727 kJ/mol
# Density = 1.671251 g / cm^3
# Si number density = 16.750633 Si / 1000 Ang^3
#
#
#
# Elastic Constant Matrix: (Units=GPa)
#
#
# Indices 1 2 3 4 5 6 
#
# 1 67.7042 17.0589 29.6616 0.0000 0.0000 0.0000
# 2 17.0589 78.4436 27.8678 0.0000 0.0000 0.0000
# 3 29.6616 27.8678 99.9542 0.0000 0.0000 0.0000
# 4 0.0000 0.0000 0.0000 13.7854 0.0000 0.0000
# 5 0.0000 0.0000 0.0000 0.0000 18.6437 0.0000
# 6 0.0000 0.0000 0.0000 0.0000 0.0000 20.4982
#
#
#
# Elastic Compliance Matrix: (Units=1/GPa)
#
#
# Indices 1 2 3 4 5 6 
#
# 1 0.017298 -0.002151 -0.004534 0.000000 0.000000 0.000000
# 2 -0.002151 0.014417 -0.003381 0.000000 0.000000 0.000000
# 3 -0.004534 -0.003381 0.012293 0.000000 0.000000 0.000000
# 4 0.000000 0.000000 0.000000 0.072540 0.000000 0.000000
# 5 0.000000 0.000000 0.000000 0.000000 0.053637 0.000000
# 6 0.000000 0.000000 0.000000 0.000000 0.000000 0.048785
#
#
# Mechanical properties :
#
#
# Convention : Reuss Voigt Hill
#
# Bulk Modulus (GPa) = 41.88291 43.91985 42.90138
# Shear Modulus (GPa) = 20.23792 22.01972 21.12882
#
# Velocity S-wave (km/s) = 3.47967 3.62962 3.55544
# Velocity P-wave (km/s) = 6.41890 6.62135 6.52091
#
# Compressibility (1/GPa) = 0.02387609
#
# Stress axis : x y z
#
# Youngs Moduli (GPa) = 57.80904 69.36238 81.34971
#
# Poissons Ratio (x) = 0.14921 0.36880
# Poissons Ratio (y) = 0.12436 0.27506
# Poissons Ratio (z) = 0.26208 0.23453
#
# Static dielectric constant tensor:
#      x y z
#    x 3.212020 0.000000 0.000000 
#    y 0.000000 2.909590 0.000000 
#    z 0.000000 0.000000 3.748660 
# 
# 
# High freq. dielectric constant tensor:
#      x y z
#    x 1.654870 0.000000 0.000000 
#    y 0.000000 1.596820 0.000000 
#    z 0.000000 0.000000 1.647860 
# 
# From -- ./inp_files/44652.got.cif
#   From: 2010.06.25/outbox.cif.g09.slc.cpg/sg52_23_cif.got.tgz:44652.got - 2010.06.26 19:32:48.
