data_PCOD8215386
_publ_section_title
;
Structure prediction by ZEFSAII (Michael W. Deem and Ramdas Pophale) SiO2 
 PCOD8215386
Probable space group: P N N A
;
_chemical_formula_sum "Si O2"
_cell_formula_units_Z 56
_cell_length_a 15.082289
_cell_length_b 16.117739
_cell_length_c 11.975561
_cell_angle_alpha 90.000000
_cell_angle_beta 90.000000
_cell_angle_gamma 90.000000
_cell_volume 2911.167836
_symmetry_space_group_name_H-M "P N N A"
_symmetry_group_IT_number 52
_symmetry_cell_setting 'orthorhombic'
loop_
_space_group_symop_operation_xyz
x,y,z
1/2-x,-y,z
x,1/2-y,1/2-z
1/2-x,1/2+y,1/2-z
-x,-y,-z
1/2+x,y,-z
-x,1/2+y,1/2+z
1/2+x,1/2-y,1/2+z
loop_
_atom_site_type_symbol
_atom_site_label
_atom_site_fract_x
_atom_site_fract_y
_atom_site_fract_z
Si Si1 0.513748 0.377806 0.255668
Si Si2 0.795463 0.665197 0.315451
Si Si3 0.004646 0.960794 0.620510
Si Si4 0.452538 0.253927 0.422220
Si Si5 0.570976 0.287332 0.868977
Si Si6 0.796220 0.084214 0.366527
Si Si7 0.748202 0.734527 0.983398
O O1 0.613443 0.384514 0.300764
O O2 0.486471 0.470197 0.216019
O O3 0.457966 0.343749 0.361364
O O4 0.502633 0.315432 0.151311
O O5 0.806358 0.750000 0.250000
O O6 0.720320 0.606734 0.262794
O O7 0.766919 0.683489 0.442314
O O8 0.934326 0.887285 0.635377
O O9 0.099419 0.916938 0.623125
O O10 0.000000 0.000000 0.500000
O O11 0.503190 0.253185 0.540813
O O12 0.348283 0.236640 0.428024
O O13 0.543359 0.250000 0.750000
O O14 0.673809 0.266997 0.892415
O O15 0.747912 0.152228 0.442489
O O16 0.750000 0.000000 0.403903
#
# Coordination Sequence:
#
# PCOD8215386 Si02
#       7
#     8   8   8   8   8   8   8
#     4  11  20  40  68  93 126 167 220 265 323 393
#     4  10  19  34  62  91 121 162 219 271 310 370
#     4  12  23  40  64 100 132 164 211 284 331 374
#     4  11  22  40  68  93 122 178 220 255 322 397
#     4  12  26  42  63  97 136 167 212 270 328 386
#     4  11  20  32  63  99 122 153 218 275 324 363
#     4  11  23  40  63  90 128 172 215 259 320 393
#
# _framework density 19.236266000000001
#
# number of rings (size 3 to 8) (size 9 to 14) (size 15 to 20)
#    0.000    0.857    7.143    1.714    4.000    0.000 
#    0.000    0.714    3.143    0.000    0.000    0.000 
#    0.000    0.000    0.000    0.000    0.000    0.000 
#
# Total GULP energy -694232.451865 kJ/mol
# GULP energy per Si atom -12397.008069 kJ/mol
# Density = 1.919248 g / cm^3
# Si number density = 19.236266 Si / 1000 Ang^3
#
#
#
# Elastic Constant Matrix: (Units=GPa)
#
#
# Indices 1 2 3 4 5 6 
#
# 1 120.8251 22.5892 39.8819 0.0000 0.0000 0.0000
# 2 22.5892 85.4840 54.5176 0.0000 0.0000 0.0000
# 3 39.8819 54.5176 113.1891 0.0000 0.0000 0.0000
# 4 0.0000 0.0000 0.0000 35.2812 0.0000 0.0000
# 5 0.0000 0.0000 0.0000 0.0000 24.0329 0.0000
# 6 0.0000 0.0000 0.0000 0.0000 0.0000 32.1845
#
#
#
# Elastic Compliance Matrix: (Units=1/GPa)
#
#
# Indices 1 2 3 4 5 6 
#
# 1 0.009383 -0.000535 -0.003048 0.000000 0.000000 0.000000
# 2 -0.000535 0.016915 -0.007959 0.000000 0.000000 0.000000
# 3 -0.003048 -0.007959 0.013742 0.000000 0.000000 0.000000
# 4 0.000000 0.000000 0.000000 0.028344 0.000000 0.000000
# 5 0.000000 0.000000 0.000000 0.000000 0.041610 0.000000
# 6 0.000000 0.000000 0.000000 0.000000 0.000000 0.031071
#
#
# Mechanical properties :
#
#
# Convention : Reuss Voigt Hill
#
# Bulk Modulus (GPa) = 58.97727 61.49731 60.23729
# Shear Modulus (GPa) = 29.44641 31.80034 30.62338
#
# Velocity S-wave (km/s) = 3.91676 4.07030 3.99427
# Velocity P-wave (km/s) = 7.15406 7.35722 7.25635
#
# Compressibility (1/GPa) = 0.01695568
#
# Stress axis : x y z
#
# Youngs Moduli (GPa) = 106.57989 59.11859 72.76976
#
# Poissons Ratio (x) = 0.03166 0.22180
# Poissons Ratio (y) = 0.05707 0.57914
# Poissons Ratio (z) = 0.32486 0.47050
#
# Static dielectric constant tensor:
#      x y z
#    x 3.512760 0.000000 0.000000 
#    y 0.000000 3.621400 0.000000 
#    z 0.000000 0.000000 3.576710 
# 
# 
# High freq. dielectric constant tensor:
#      x y z
#    x 1.754100 0.000000 0.000000 
#    y 0.000000 1.738830 0.000000 
#    z 0.000000 0.000000 1.738730 
# 
# From -- ./inp_files/19631.got.cif
#   From: 2010.06.25/outbox.cif.g09.slc.cpg/sg52_10_cif.got.tgz:19631.got - 2010.06.26 19:32:48.
