data_PCOD8215060
_publ_section_title
;
Structure prediction by ZEFSAII (Michael W. Deem and Ramdas Pophale) SiO2 
 PCOD8215060
Probable space group: P N N A
;
_chemical_formula_sum "Si O2"
_cell_formula_units_Z 44
_cell_length_a 8.900093
_cell_length_b 18.386412
_cell_length_c 14.937953
_cell_angle_alpha 90.000000
_cell_angle_beta 90.000000
_cell_angle_gamma 90.000000
_cell_volume 2444.458232
_symmetry_space_group_name_H-M "P N N A"
_symmetry_group_IT_number 52
_symmetry_cell_setting 'orthorhombic'
loop_
_space_group_symop_operation_xyz
x,y,z
1/2-x,-y,z
x,1/2-y,1/2-z
1/2-x,1/2+y,1/2-z
-x,-y,-z
1/2+x,y,-z
-x,1/2+y,1/2+z
1/2+x,1/2-y,1/2+z
loop_
_atom_site_type_symbol
_atom_site_label
_atom_site_fract_x
_atom_site_fract_y
_atom_site_fract_z
Si Si1 0.750000 0.500000 0.253137
Si Si2 0.598743 0.640437 0.280707
Si Si3 0.193347 0.725446 0.890162
Si Si4 0.165974 0.104470 0.332748
Si Si5 0.523393 0.952181 0.640877
Si Si6 0.447254 0.666452 0.994602
O O1 0.663514 0.561561 0.310608
O O2 0.629547 0.454376 0.196424
O O3 0.675812 0.667749 0.189494
O O4 0.637117 0.694870 0.360873
O O5 0.420259 0.633240 0.257053
O O6 0.366219 0.719697 0.922277
O O7 0.101871 0.703906 0.978238
O O8 0.341091 0.091773 0.308554
O O9 0.153391 0.160320 0.415284
O O10 0.082714 0.033509 0.372928
O O11 0.484470 0.912605 0.547665
#
# Coordination Sequence:
#
# PCOD8215060 Si02
#       6
#     4   8   8   8   8   8
#     4  10  18  32  56  76 104 136 176 214 266 310
#     4   9  19  35  51  73 102 144 170 219 261 313
#     4  10  20  33  52  72 109 137 178 213 265 316
#     4   9  19  30  47  74 109 137 172 206 258 318
#     4  10  18  29  47  79 105 136 167 206 259 317
#     4  11  18  31  48  74 104 141 172 210 257 316
#
# _framework density 17.999898000000002
#
# number of rings (size 3 to 8) (size 9 to 14) (size 15 to 20)
#    0.000    2.182    3.636    0.545    0.000    1.455 
#    0.000    1.818    4.000    1.091    0.000    0.000 
#    0.000    0.000    0.000    0.000    0.000    0.000 
#
# Total GULP energy -545106.862952 kJ/mol
# GULP energy per Si atom -12388.792340 kJ/mol
# Density = 1.795893 g / cm^3
# Si number density = 17.999898 Si / 1000 Ang^3
#
#
#
# Elastic Constant Matrix: (Units=GPa)
#
#
# Indices 1 2 3 4 5 6 
#
# 1 71.9420 17.7113 14.5562 0.0000 0.0000 0.0000
# 2 17.7113 82.8661 24.3966 0.0000 0.0000 0.0000
# 3 14.5562 24.3966 35.1594 0.0000 0.0000 0.0000
# 4 0.0000 0.0000 0.0000 33.3342 0.0000 0.0000
# 5 0.0000 0.0000 0.0000 0.0000 15.5461 0.0000
# 6 0.0000 0.0000 0.0000 0.0000 0.0000 24.9617
#
#
#
# Elastic Compliance Matrix: (Units=1/GPa)
#
#
# Indices 1 2 3 4 5 6 
#
# 1 0.015376 -0.001775 -0.005134 0.000000 0.000000 0.000000
# 2 -0.001775 0.015371 -0.009931 0.000000 0.000000 0.000000
# 3 -0.005134 -0.009931 0.037458 0.000000 0.000000 0.000000
# 4 0.000000 0.000000 0.000000 0.029999 0.000000 0.000000
# 5 0.000000 0.000000 0.000000 0.000000 0.064325 0.000000
# 6 0.000000 0.000000 0.000000 0.000000 0.000000 0.040061
#
#
# Mechanical properties :
#
#
# Convention : Reuss Voigt Hill
#
# Bulk Modulus (GPa) = 28.96422 33.69953 31.33188
# Shear Modulus (GPa) = 20.17935 23.65529 21.91732
#
# Velocity S-wave (km/s) = 3.35189 3.62911 3.49325
# Velocity P-wave (km/s) = 5.57732 6.02688 5.80645
#
# Compressibility (1/GPa) = 0.03452536
#
# Stress axis : x y z
#
# Youngs Moduli (GPa) = 65.03709 65.05894 26.69643
#
# Poissons Ratio (x) = 0.11547 0.13707
# Poissons Ratio (y) = 0.11543 0.26511
# Poissons Ratio (z) = 0.33391 0.64608
#
# Static dielectric constant tensor:
#      x y z
#    x 3.538540 0.000000 0.000000 
#    y 0.000000 3.239110 0.000000 
#    z 0.000000 0.000000 2.818340 
# 
# 
# High freq. dielectric constant tensor:
#      x y z
#    x 1.710130 0.000000 0.000000 
#    y 0.000000 1.683190 0.000000 
#    z 0.000000 0.000000 1.638990 
# 
# From -- ./inp_files/24620.got.cif
#   From: 2010.06.25/outbox.cif.g09.slc.cpg/sg52_13_cif.got.tgz:24620.got - 2010.06.26 19:32:48.
