data_PCOD8215709
_publ_section_title
;
Structure prediction by ZEFSAII (Michael W. Deem and Ramdas Pophale) SiO2 
 PCOD8215709
Probable space group: P N N A
;
_chemical_formula_sum "Si O2"
_cell_formula_units_Z 60
_cell_length_a 9.653460
_cell_length_b 27.119754
_cell_length_c 11.097177
_cell_angle_alpha 90.000000
_cell_angle_beta 90.000000
_cell_angle_gamma 90.000000
_cell_volume 2905.234951
_symmetry_space_group_name_H-M "P N N A"
_symmetry_group_IT_number 52
_symmetry_cell_setting 'orthorhombic'
loop_
_space_group_symop_operation_xyz
x,y,z
1/2-x,-y,z
x,1/2-y,1/2-z
1/2-x,1/2+y,1/2-z
-x,-y,-z
1/2+x,y,-z
-x,1/2+y,1/2+z
1/2+x,1/2-y,1/2+z
loop_
_atom_site_type_symbol
_atom_site_label
_atom_site_fract_x
_atom_site_fract_y
_atom_site_fract_z
Si Si1 0.464025 0.351744 0.759058
Si Si2 0.118101 0.250000 0.250000
Si Si3 0.297622 0.611187 0.392700
Si Si4 0.292953 0.677405 0.614788
Si Si5 0.745133 0.773907 0.511191
Si Si6 0.620822 0.030282 0.067523
Si Si7 0.492717 0.657825 0.980277
Si Si8 0.488223 0.114334 0.226754
O O1 0.521522 0.296841 0.758581
O O2 0.556362 0.386791 0.676286
O O3 0.309611 0.350144 0.707256
O O4 0.467168 0.371363 0.896798
O O5 0.214028 0.253976 0.366854
O O6 0.275064 0.656927 0.480884
O O7 0.299743 0.560926 0.465574
O O8 0.174391 0.612215 0.297539
O O9 0.262392 0.735941 0.601937
O O10 0.445846 0.663409 0.664245
O O11 0.589246 0.793347 0.528631
O O12 0.836458 0.822118 0.484187
O O13 0.559859 0.065033 0.173522
O O14 0.750000 0.000000 0.125174
O O15 0.500000 0.000000 0.000000
O O16 0.502166 0.618988 0.871116
#
# Coordination Sequence:
#
# PCOD8215709 Si02
#       8
#     8   4   8   8   8   8   8   8
#     4  11  22  39  58  85 128 173 218 262 312 377
#     4  10  20  36  56  80 126 174 218 268 316 364
#     4  11  23  39  66  95 125 163 203 268 336 379
#     4  11  22  36  60  92 120 167 228 273 310 355
#     4  11  23  37  56  86 127 176 226 268 307 362
#     4  11  23  45  73 104 124 148 200 273 342 392
#     4  11  25  39  56  86 126 184 216 259 314 376
#     4  11  24  40  63  94 128 161 211 262 323 398
#
# _framework density 20.652376
#
# number of rings (size 3 to 8) (size 9 to 14) (size 15 to 20)
#    0.000    1.067    2.667    5.600    3.733    1.600 
#    0.000    0.000    0.000    1.600    0.000    0.000 
#    0.000    0.000    0.000    0.000    0.000    0.000 
#
# Total GULP energy -743908.586244 kJ/mol
# GULP energy per Si atom -12398.476437 kJ/mol
# Density = 2.060537 g / cm^3
# Si number density = 20.652376 Si / 1000 Ang^3
#
#
#
# Elastic Constant Matrix: (Units=GPa)
#
#
# Indices 1 2 3 4 5 6 
#
# 1 79.9668 12.2899 21.8682 0.0000 0.0000 0.0000
# 2 12.2899 53.6725 28.2826 0.0000 0.0000 0.0000
# 3 21.8682 28.2826 141.0105 0.0000 0.0000 0.0000
# 4 0.0000 0.0000 0.0000 26.8012 0.0000 0.0000
# 5 0.0000 0.0000 0.0000 0.0000 26.3882 0.0000
# 6 0.0000 0.0000 0.0000 0.0000 0.0000 19.1011
#
#
#
# Elastic Compliance Matrix: (Units=1/GPa)
#
#
# Indices 1 2 3 4 5 6 
#
# 1 0.013285 -0.002188 -0.001621 0.000000 0.000000 0.000000
# 2 -0.002188 0.021194 -0.003912 0.000000 0.000000 0.000000
# 3 -0.001621 -0.003912 0.008128 0.000000 0.000000 0.000000
# 4 0.000000 0.000000 0.000000 0.037312 0.000000 0.000000
# 5 0.000000 0.000000 0.000000 0.000000 0.037896 0.000000
# 6 0.000000 0.000000 0.000000 0.000000 0.000000 0.052353
#
#
# Mechanical properties :
#
#
# Convention : Reuss Voigt Hill
#
# Bulk Modulus (GPa) = 36.81213 44.39236 40.60224
# Shear Modulus (GPa) = 25.68545 28.60537 27.14541
#
# Velocity S-wave (km/s) = 3.53045 3.72572 3.62939
# Velocity P-wave (km/s) = 5.87214 6.32848 6.10458
#
# Compressibility (1/GPa) = 0.02716496
#
# Stress axis : x y z
#
# Youngs Moduli (GPa) = 75.27399 47.18402 123.03630
#
# Poissons Ratio (x) = 0.10322 0.19950
# Poissons Ratio (y) = 0.16466 0.48127
# Poissons Ratio (z) = 0.12206 0.18456
#
# Static dielectric constant tensor:
#      x y z
#    x 3.828010 0.000000 0.000000 
#    y 0.000000 3.501580 0.000000 
#    z 0.000000 0.000000 4.166400 
# 
# 
# High freq. dielectric constant tensor:
#      x y z
#    x 1.825570 0.000000 0.000000 
#    y 0.000000 1.770820 0.000000 
#    z 0.000000 0.000000 1.810920 
# 
# From -- ./inp_files/17134.got.cif
#   From: 2010.06.25/outbox.cif.g09.slc.cpg/sg52_9_cif.got.tgz:17134.got - 2010.06.26 19:32:48.
