data_PCOD8215879
_publ_section_title
;
Structure prediction by ZEFSAII (Michael W. Deem and Ramdas Pophale) SiO2 
 PCOD8215879
Probable space group: P N N A
;
_chemical_formula_sum "Si O2"
_cell_formula_units_Z 48
_cell_length_a 15.050386
_cell_length_b 6.714641
_cell_length_c 23.734589
_cell_angle_alpha 90.000000
_cell_angle_beta 90.000000
_cell_angle_gamma 90.000000
_cell_volume 2398.568645
_symmetry_space_group_name_H-M "P N N A"
_symmetry_group_IT_number 52
_symmetry_cell_setting 'orthorhombic'
loop_
_space_group_symop_operation_xyz
x,y,z
1/2-x,-y,z
x,1/2-y,1/2-z
1/2-x,1/2+y,1/2-z
-x,-y,-z
1/2+x,y,-z
-x,1/2+y,1/2+z
1/2+x,1/2-y,1/2+z
loop_
_atom_site_type_symbol
_atom_site_label
_atom_site_fract_x
_atom_site_fract_y
_atom_site_fract_z
Si Si1 0.089454 0.549720 0.158110
Si Si2 0.250000 0.500000 0.080219
Si Si3 0.379576 0.795942 0.499345
Si Si4 0.531809 0.370552 0.301130
Si Si5 0.049409 0.250000 0.250000
Si Si6 0.542361 0.861114 0.427818
Si Si7 0.149256 0.486587 0.600460
O O1 0.175090 0.595557 0.120231
O O2 0.108580 0.379107 0.205690
O O3 0.061819 0.759005 0.186029
O O4 0.005412 0.485066 0.120802
O O5 0.295121 0.670273 0.041772
O O6 0.467620 0.742906 0.463705
O O7 0.356703 0.612319 0.539109
O O8 0.397736 0.998434 0.533168
O O9 0.578504 0.250000 0.250000
O O10 0.512995 0.599007 0.284881
O O11 0.596513 0.355547 0.354306
O O12 0.609526 0.706316 0.400669
O O13 0.250000 0.500000 0.620755
#
# Coordination Sequence:
#
# PCOD8215879 Si02
#       7
#     8   4   8   8   4   8   8
#     4  10  20  41  65  89 123 161 209 251 314 367
#     4  10  22  40  62  96 126 162 202 260 304 370
#     4  10  21  39  59  89 127 158 202 245 309 366
#     4  10  22  42  64  87 118 165 203 252 314 366
#     4  10  20  42  68  86 120 166 210 254 310 382
#     4  10  20  38  64  84 120 168 196 247 306 372
#     4  12  23  38  60  92 118 157 209 253 304 364
#
# _framework density 20.011935000000001
#
# number of rings (size 3 to 8) (size 9 to 14) (size 15 to 20)
#    0.000    1.667    3.333    1.500    0.000    0.000 
#    9.000    1.667    0.000    0.000    0.000    0.000 
#    0.000    0.000    0.000    0.000    0.000    0.000 
#
# Total GULP energy -595235.810559 kJ/mol
# GULP energy per Si atom -12400.746053 kJ/mol
# Density = 1.996639 g / cm^3
# Si number density = 20.011935 Si / 1000 Ang^3
#
#
#
# Elastic Constant Matrix: (Units=GPa)
#
#
# Indices 1 2 3 4 5 6 
#
# 1 106.9683 44.9790 40.3536 0.0000 0.0000 0.0000
# 2 44.9790 88.5333 31.3072 0.0000 0.0000 0.0000
# 3 40.3536 31.3072 104.0447 0.0000 0.0000 0.0000
# 4 0.0000 0.0000 0.0000 31.8334 0.0000 0.0000
# 5 0.0000 0.0000 0.0000 0.0000 23.1975 0.0000
# 6 0.0000 0.0000 0.0000 0.0000 0.0000 17.1151
#
#
#
# Elastic Compliance Matrix: (Units=1/GPa)
#
#
# Indices 1 2 3 4 5 6 
#
# 1 0.012872 -0.005343 -0.003385 0.000000 0.000000 0.000000
# 2 -0.005343 0.014858 -0.002399 0.000000 0.000000 0.000000
# 3 -0.003385 -0.002399 0.011646 0.000000 0.000000 0.000000
# 4 0.000000 0.000000 0.000000 0.031414 0.000000 0.000000
# 5 0.000000 0.000000 0.000000 0.000000 0.043108 0.000000
# 6 0.000000 0.000000 0.000000 0.000000 0.000000 0.058428
#
#
# Mechanical properties :
#
#
# Convention : Reuss Voigt Hill
#
# Bulk Modulus (GPa) = 58.39936 59.20288 58.80112
# Shear Modulus (GPa) = 24.96443 26.62295 25.79369
#
# Velocity S-wave (km/s) = 3.53580 3.65136 3.59404
# Velocity P-wave (km/s) = 6.77604 6.88655 6.83152
#
# Compressibility (1/GPa) = 0.01712348
#
# Stress axis : x y z
#
# Youngs Moduli (GPa) = 77.68805 67.30529 85.86808
#
# Poissons Ratio (x) = 0.35959 0.29064
# Poissons Ratio (y) = 0.41506 0.20596
# Poissons Ratio (z) = 0.26296 0.16144
#
# Static dielectric constant tensor:
#      x y z
#    x 3.457520 0.000000 0.000000 
#    y 0.000000 3.405450 0.000000 
#    z 0.000000 0.000000 3.957590 
# 
# 
# High freq. dielectric constant tensor:
#      x y z
#    x 1.760030 0.000000 0.000000 
#    y 0.000000 1.772870 0.000000 
#    z 0.000000 0.000000 1.802050 
# 
# From -- ./inp_files/43021.got.cif
#   From: 2010.06.25/outbox.cif.g09.slc.cpg/sg52_22_cif.got.tgz:43021.got - 2010.06.26 19:32:48.
