data_PCOD8215321
_publ_section_title
;
Structure prediction by ZEFSAII (Michael W. Deem and Ramdas Pophale) SiO2 
 PCOD8215321
Probable space group: P N N A
;
_chemical_formula_sum "Si O2"
_cell_formula_units_Z 32
_cell_length_a 11.226305
_cell_length_b 7.730394
_cell_length_c 15.847087
_cell_angle_alpha 90.000000
_cell_angle_beta 90.000000
_cell_angle_gamma 90.000000
_cell_volume 1375.269808
_symmetry_space_group_name_H-M "P N N A"
_symmetry_group_IT_number 52
_symmetry_cell_setting 'orthorhombic'
loop_
_space_group_symop_operation_xyz
x,y,z
1/2-x,-y,z
x,1/2-y,1/2-z
1/2-x,1/2+y,1/2-z
-x,-y,-z
1/2+x,y,-z
-x,1/2+y,1/2+z
1/2+x,1/2-y,1/2+z
loop_
_atom_site_type_symbol
_atom_site_label
_atom_site_fract_x
_atom_site_fract_y
_atom_site_fract_z
Si Si1 0.427063 0.605898 0.364627
Si Si2 0.517608 0.421593 0.206700
Si Si3 0.584758 0.616146 0.055450
Si Si4 0.682659 0.751440 0.600712
O O1 0.484589 0.569324 0.273506
O O2 0.523861 0.702263 0.420959
O O3 0.388371 0.428483 0.409333
O O4 0.311355 0.729837 0.356999
O O5 0.574514 0.250000 0.250000
O O6 0.612938 0.504795 0.140504
O O7 0.393082 0.375812 0.161309
O O8 0.500000 0.500000 0.000000
O O9 0.696133 0.666486 0.994411
#
# Coordination Sequence:
#
# PCOD8215321 Si02
#       4
#     8   8   8   8
#     4  10  19  33  54  80 110 143 180 225 271 323
#     4   9  19  32  50  79 111 142 183 228 272 318
#     4  10  20  33  50  78 113 147 179 222 274 324
#     4   9  20  34  52  82 114 145 177 222 276 327
#
# _framework density 23.268163999999999
#
# number of rings (size 3 to 8) (size 9 to 14) (size 15 to 20)
#    0.000    2.500    0.000    1.500    0.000   16.000 
#    0.000    0.000    0.000    0.000    0.000  108.500 
#    0.000    0.000    0.000    0.000    0.000    0.000 
#
# Total GULP energy -396498.860929 kJ/mol
# GULP energy per Si atom -12390.589404 kJ/mol
# Density = 2.321520 g / cm^3
# Si number density = 23.268164 Si / 1000 Ang^3
#
#
#
# Elastic Constant Matrix: (Units=GPa)
#
#
# Indices 1 2 3 4 5 6 
#
# 1 13.5686 6.6293 11.7832 0.0000 0.0000 0.0000
# 2 6.6293 104.7498 51.3347 0.0000 0.0000 0.0000
# 3 11.7832 51.3347 144.8695 0.0000 0.0000 0.0000
# 4 0.0000 0.0000 0.0000 59.1638 0.0000 0.0000
# 5 0.0000 0.0000 0.0000 0.0000 10.3311 0.0000
# 6 0.0000 0.0000 0.0000 0.0000 0.0000 21.2377
#
#
#
# Elastic Compliance Matrix: (Units=1/GPa)
#
#
# Indices 1 2 3 4 5 6 
#
# 1 0.079741 -0.002261 -0.005685 0.000000 0.000000 0.000000
# 2 -0.002261 0.011617 -0.003933 0.000000 0.000000 0.000000
# 3 -0.005685 -0.003933 0.008759 0.000000 0.000000 0.000000
# 4 0.000000 0.000000 0.000000 0.016902 0.000000 0.000000
# 5 0.000000 0.000000 0.000000 0.000000 0.096795 0.000000
# 6 0.000000 0.000000 0.000000 0.000000 0.000000 0.047086
#
#
# Mechanical properties :
#
#
# Convention : Reuss Voigt Hill
#
# Bulk Modulus (GPa) = 13.09582 44.74250 28.91916
# Shear Modulus (GPa) = 16.12334 31.04256 23.58295
#
# Velocity S-wave (km/s) = 2.63522 3.65653 3.18705
# Velocity P-wave (km/s) = 3.86000 6.09079 5.09889
#
# Compressibility (1/GPa) = 0.07636026
#
# Stress axis : x y z
#
# Youngs Moduli (GPa) = 12.54064 86.08176 114.17274
#
# Poissons Ratio (x) = 0.19460 0.64905
# Poissons Ratio (y) = 0.02835 0.44899
# Poissons Ratio (z) = 0.07129 0.33852
#
# Static dielectric constant tensor:
#      x y z
#    x 3.524290 0.000000 0.000000 
#    y 0.000000 4.636350 0.000000 
#    z 0.000000 0.000000 4.776110 
# 
# 
# High freq. dielectric constant tensor:
#      x y z
#    x 1.850570 0.000000 0.000000 
#    y 0.000000 1.949390 0.000000 
#    z 0.000000 0.000000 1.933550 
# 
# From -- ./inp_files/25478.got.cif
#   From: 2010.06.25/outbox.cif.g09.slc.cpg/sg52_13_cif.got.tgz:25478.got - 2010.06.26 19:32:48.
