data_PCOD8215030
_publ_section_title
;
Structure prediction by ZEFSAII (Michael W. Deem and Ramdas Pophale) SiO2 
 PCOD8215030
Probable space group: P N N A
;
_chemical_formula_sum "Si O2"
_cell_formula_units_Z 40
_cell_length_a 9.518054
_cell_length_b 13.876607
_cell_length_c 14.365401
_cell_angle_alpha 90.000000
_cell_angle_beta 90.000000
_cell_angle_gamma 90.000000
_cell_volume 1897.357668
_symmetry_space_group_name_H-M "P N N A"
_symmetry_group_IT_number 52
_symmetry_cell_setting 'orthorhombic'
loop_
_space_group_symop_operation_xyz
x,y,z
1/2-x,-y,z
x,1/2-y,1/2-z
1/2-x,1/2+y,1/2-z
-x,-y,-z
1/2+x,y,-z
-x,1/2+y,1/2+z
1/2+x,1/2-y,1/2+z
loop_
_atom_site_type_symbol
_atom_site_label
_atom_site_fract_x
_atom_site_fract_y
_atom_site_fract_z
Si Si1 0.642130 0.642834 0.949024
Si Si2 0.250000 0.000000 0.982234
Si Si3 0.970101 0.508632 0.812421
Si Si4 0.426661 0.708659 0.085388
Si Si5 0.250000 0.000000 0.600977
Si Si6 0.016532 0.082723 0.113970
O O1 0.630935 0.569630 0.861279
O O2 0.758473 0.722680 0.924331
O O3 0.498413 0.694296 0.982619
O O4 0.701848 0.587331 0.037615
O O5 0.142568 0.937156 0.920314
O O6 0.356883 0.933520 0.041234
O O7 0.953579 0.614473 0.853990
O O8 0.946015 0.515396 0.702151
O O9 0.124777 0.467343 0.831934
O O10 0.484930 0.803287 0.137083
#
# Coordination Sequence:
#
# PCOD8215030 Si02
#       6
#     8   4   8   8   4   8
#     4  11  19  36  61  95 130 165 193 256 332 386
#     4  10  25  47  64  74 122 172 220 251 327 370
#     4  11  21  35  62  95 128 161 206 258 318 387
#     4  11  21  36  62  95 126 155 208 259 318 370
#     4  10  17  35  56  90 128 168 194 241 321 398
#     4  11  24  43  64  89 116 173 217 265 305 386
#
# _framework density 21.081949999999999
#
# number of rings (size 3 to 8) (size 9 to 14) (size 15 to 20)
#    0.000    1.200    4.000    3.600    2.800    0.000 
#    0.000    0.000    0.000    0.000    0.000    0.000 
#    0.000    0.000    0.000    0.000    0.000    0.000 
#
# Total GULP energy -495661.610329 kJ/mol
# GULP energy per Si atom -12391.540258 kJ/mol
# Density = 2.103397 g / cm^3
# Si number density = 21.081950 Si / 1000 Ang^3
#
#
#
# Elastic Constant Matrix: (Units=GPa)
#
#
# Indices 1 2 3 4 5 6 
#
# 1 152.0900 43.9935 44.7264 0.0000 0.0000 0.0000
# 2 43.9935 78.5999 32.5139 0.0000 0.0000 0.0000
# 3 44.7264 32.5139 110.4294 0.0000 0.0000 0.0000
# 4 0.0000 0.0000 0.0000 16.4488 0.0000 0.0000
# 5 0.0000 0.0000 0.0000 0.0000 23.8536 0.0000
# 6 0.0000 0.0000 0.0000 0.0000 0.0000 24.8075
#
#
#
# Elastic Compliance Matrix: (Units=1/GPa)
#
#
# Indices 1 2 3 4 5 6 
#
# 1 0.008319 -0.003715 -0.002276 0.000000 0.000000 0.000000
# 2 -0.003715 0.016146 -0.003249 0.000000 0.000000 0.000000
# 3 -0.002276 -0.003249 0.010934 0.000000 0.000000 0.000000
# 4 0.000000 0.000000 0.000000 0.060795 0.000000 0.000000
# 5 0.000000 0.000000 0.000000 0.000000 0.041922 0.000000
# 6 0.000000 0.000000 0.000000 0.000000 0.000000 0.040310
#
#
# Mechanical properties :
#
#
# Convention : Reuss Voigt Hill
#
# Bulk Modulus (GPa) = 59.10388 64.84300 61.97344
# Shear Modulus (GPa) = 24.68581 27.68099 26.18340
#
# Velocity S-wave (km/s) = 3.42562 3.62749 3.52800
# Velocity P-wave (km/s) = 6.61382 6.95480 6.78646
#
# Compressibility (1/GPa) = 0.01691936
#
# Stress axis : x y z
#
# Youngs Moduli (GPa) = 120.20972 61.93465 91.45863
#
# Poissons Ratio (x) = 0.23008 0.20812
# Poissons Ratio (y) = 0.44656 0.29718
# Poissons Ratio (z) = 0.27354 0.20124
#
# Static dielectric constant tensor:
#      x y z
#    x 4.438440 0.000000 0.000000 
#    y 0.000000 3.600410 0.000000 
#    z 0.000000 0.000000 3.766500 
# 
# 
# High freq. dielectric constant tensor:
#      x y z
#    x 1.850360 0.000000 0.000000 
#    y 0.000000 1.804200 0.000000 
#    z 0.000000 0.000000 1.804450 
# 
# From -- ./inp_files/24459.got.cif
#   From: 2010.06.25/outbox.cif.g09.slc.cpg/sg52_13_cif.got.tgz:24459.got - 2010.06.26 19:32:48.
