data_PCOD8216481
_publ_section_title
;
Structure prediction by ZEFSAII (Michael W. Deem and Ramdas Pophale) SiO2 
 PCOD8216481
Probable space group: P N N A
;
_chemical_formula_sum "Si O2"
_cell_formula_units_Z 36
_cell_length_a 8.208701
_cell_length_b 20.428574
_cell_length_c 9.432646
_cell_angle_alpha 90.000000
_cell_angle_beta 90.000000
_cell_angle_gamma 90.000000
_cell_volume 1581.779800
_symmetry_space_group_name_H-M "P N N A"
_symmetry_group_IT_number 52
_symmetry_cell_setting 'orthorhombic'
loop_
_space_group_symop_operation_xyz
x,y,z
1/2-x,-y,z
x,1/2-y,1/2-z
1/2-x,1/2+y,1/2-z
-x,-y,-z
1/2+x,y,-z
-x,1/2+y,1/2+z
1/2+x,1/2-y,1/2+z
loop_
_atom_site_type_symbol
_atom_site_label
_atom_site_fract_x
_atom_site_fract_y
_atom_site_fract_z
Si Si1 0.216484 0.156016 0.899681
Si Si2 0.801797 0.072621 0.341715
Si Si3 0.040702 0.750000 0.750000
Si Si4 0.352400 0.322385 0.307321
Si Si5 0.131586 0.133405 0.405499
O O1 0.264807 0.087363 0.823875
O O2 0.345881 0.209160 0.852043
O O3 0.035105 0.172994 0.856266
O O4 0.226548 0.155705 0.068865
O O5 0.693411 0.125418 0.432371
O O6 0.994350 0.079363 0.372114
O O7 0.750000 0.000000 0.383481
O O8 0.936963 0.794912 0.640016
O O9 0.316750 0.250000 0.250000
O O10 0.300043 0.374511 0.185033
#
# Coordination Sequence:
#
# PCOD8216481 Si02
#       5
#     8   8   4   8   8
#     4  11  25  41  66  98 137 177 225 282 349 411
#     4  11  25  46  70 100 139 191 237 279 330 407
#     4  10  22  38  66 102 138 174 218 292 352 410
#     4  12  26  42  66 103 140 176 218 285 360 422
#     4  11  24  40  69 102 140 178 231 284 345 404
#
# _framework density 22.759174000000002
#
# number of rings (size 3 to 8) (size 9 to 14) (size 15 to 20)
#    0.000    0.889    2.222    4.667    9.333    0.000 
#    0.000    5.556    0.000    0.000    0.000    0.000 
#    0.000    0.000    0.000    0.000    0.000    0.000 
#
# Total GULP energy -446061.557216 kJ/mol
# GULP energy per Si atom -12390.598812 kJ/mol
# Density = 2.270737 g / cm^3
# Si number density = 22.759174 Si / 1000 Ang^3
#
#
#
# Elastic Constant Matrix: (Units=GPa)
#
#
# Indices 1 2 3 4 5 6 
#
# 1 121.3293 27.9874 31.1512 0.0000 0.0000 0.0000
# 2 27.9874 80.0458 33.7689 0.0000 0.0000 0.0000
# 3 31.1512 33.7689 111.8267 0.0000 0.0000 0.0000
# 4 0.0000 0.0000 0.0000 23.0095 0.0000 0.0000
# 5 0.0000 0.0000 0.0000 0.0000 39.1248 0.0000
# 6 0.0000 0.0000 0.0000 0.0000 0.0000 -28.8516
#
#
#
# Elastic Compliance Matrix: (Units=1/GPa)
#
#
# Indices 1 2 3 4 5 6 
#
# 1 0.009284 -0.002470 -0.001840 0.000000 0.000000 0.000000
# 2 -0.002470 0.014974 -0.003834 0.000000 0.000000 0.000000
# 3 -0.001840 -0.003834 0.010613 0.000000 0.000000 0.000000
# 4 0.000000 0.000000 0.000000 0.043460 0.000000 0.000000
# 5 0.000000 0.000000 0.000000 0.000000 0.025559 0.000000
# 6 0.000000 0.000000 0.000000 0.000000 0.000000 -0.034660
#
#
# Mechanical properties :
#
#
# Convention : Reuss Voigt Hill
#
# Bulk Modulus (GPa) = 53.81285 55.44630 54.62957
# Shear Modulus (GPa) = 54.51831 21.34283 37.93057
#
# Velocity S-wave (km/s) = 4.89964 3.06562 4.08684
# Velocity P-wave (km/s) = 7.46354 6.07830 6.80625
#
# Compressibility (1/GPa) = 0.01858292
#
# Stress axis : x y z
#
# Youngs Moduli (GPa) = 107.70896 66.78376 94.22589
#
# Poissons Ratio (x) = 0.16494 0.17342
# Poissons Ratio (y) = 0.26601 0.36123
# Poissons Ratio (z) = 0.19824 0.25603
#
# Static dielectric constant tensor:
#      x y z
#    x 4.479410 0.000000 0.000000 
#    y 0.000000 3.544870 0.000000 
#    z 0.000000 0.000000 4.520710 
# 
# 
# High freq. dielectric constant tensor:
#      x y z
#    x 1.934230 0.000000 0.000000 
#    y 0.000000 1.852290 0.000000 
#    z 0.000000 0.000000 1.908690 
# 
# From -- ./inp_files/7275.got.cif
#   From: 2010.06.25/outbox.cif.g09.slc.cpg/sg52_4_cif.got.tgz:7275.got - 2010.06.26 19:32:48.
