data_PCOD8216943
_publ_section_title
;
Structure prediction by ZEFSAII (Michael W. Deem and Ramdas Pophale) SiO2 
 PCOD8216943
Probable space group: P N N A
;
_chemical_formula_sum "Si O2"
_cell_formula_units_Z 56
_cell_length_a 14.471639
_cell_length_b 20.874159
_cell_length_c 8.783334
_cell_angle_alpha 90.000000
_cell_angle_beta 90.000000
_cell_angle_gamma 90.000000
_cell_volume 2653.298462
_symmetry_space_group_name_H-M "P N N A"
_symmetry_group_IT_number 52
_symmetry_cell_setting 'orthorhombic'
loop_
_space_group_symop_operation_xyz
x,y,z
1/2-x,-y,z
x,1/2-y,1/2-z
1/2-x,1/2+y,1/2-z
-x,-y,-z
1/2+x,y,-z
-x,1/2+y,1/2+z
1/2+x,1/2-y,1/2+z
loop_
_atom_site_type_symbol
_atom_site_label
_atom_site_fract_x
_atom_site_fract_y
_atom_site_fract_z
Si Si1 0.429225 0.467341 0.386149
Si Si2 0.860440 0.659766 0.060006
Si Si3 0.676176 0.449349 0.845359
Si Si4 0.751633 0.604730 0.554357
Si Si5 0.794279 0.243734 0.069826
Si Si6 0.580438 0.128356 0.115709
Si Si7 0.502704 0.245775 0.930457
O O1 0.500000 0.500000 0.500000
O O2 0.405321 0.513733 0.245200
O O3 0.337125 0.441108 0.473824
O O4 0.488404 0.406928 0.323773
O O5 0.770496 0.699692 0.005121
O O6 0.866115 0.659657 0.242462
O O7 0.859952 0.588008 0.992670
O O8 0.952508 0.691268 0.998093
O O9 0.750000 0.500000 0.907383
O O10 0.726874 0.398464 0.734031
O O11 0.740996 0.676288 0.493728
O O12 0.845105 0.579900 0.466803
O O13 0.792752 0.250000 0.250000
O O14 0.898095 0.250206 0.010137
O O15 0.552302 0.182231 0.992840
O O16 0.510849 0.250000 0.750000
#
# Coordination Sequence:
#
# PCOD8216943 Si02
#       7
#     8   8   8   8   8   8   8
#     4  11  24  42  71  96 130 178 238 283 331 410
#     4  12  25  43  66  98 141 173 222 285 344 410
#     4  10  25  46  64  96 134 180 235 282 332 409
#     4  11  21  42  67  95 133 174 227 282 339 405
#     4  11  22  40  67 102 136 169 220 282 349 413
#     4  12  23  43  68  99 136 179 222 282 345 407
#     4  11  24  40  68 102 134 177 221 273 346 410
#
# _framework density 21.105805
#
# number of rings (size 3 to 8) (size 9 to 14) (size 15 to 20)
#    0.000    0.857    5.714    1.286    0.000    2.857 
#    5.143    0.000    0.000    0.000    0.000    0.000 
#    0.000    0.000    0.000    0.000    0.000    0.000 
#
# Total GULP energy -694226.314230 kJ/mol
# GULP energy per Si atom -12396.898468 kJ/mol
# Density = 2.105777 g / cm^3
# Si number density = 21.105805 Si / 1000 Ang^3
#
#
#
# Elastic Constant Matrix: (Units=GPa)
#
#
# Indices 1 2 3 4 5 6 
#
# 1 149.3476 49.9663 34.3271 0.0000 0.0000 0.0000
# 2 49.9663 109.5014 40.2554 0.0000 0.0000 0.0000
# 3 34.3271 40.2554 77.8872 0.0000 0.0000 0.0000
# 4 0.0000 0.0000 0.0000 34.5660 0.0000 0.0000
# 5 0.0000 0.0000 0.0000 0.0000 25.1386 0.0000
# 6 0.0000 0.0000 0.0000 0.0000 0.0000 23.8989
#
#
#
# Elastic Compliance Matrix: (Units=1/GPa)
#
#
# Indices 1 2 3 4 5 6 
#
# 1 0.008163 -0.002966 -0.002065 0.000000 0.000000 0.000000
# 2 -0.002966 0.012352 -0.005077 0.000000 0.000000 0.000000
# 3 -0.002065 -0.005077 0.016373 0.000000 0.000000 0.000000
# 4 0.000000 0.000000 0.000000 0.028930 0.000000 0.000000
# 5 0.000000 0.000000 0.000000 0.000000 0.039779 0.000000
# 6 0.000000 0.000000 0.000000 0.000000 0.000000 0.041843
#
#
# Mechanical properties :
#
#
# Convention : Reuss Voigt Hill
#
# Bulk Modulus (GPa) = 59.97735 65.09263 62.53499
# Shear Modulus (GPa) = 28.86631 30.86653 29.86642
#
# Velocity S-wave (km/s) = 3.70225 3.82837 3.76584
# Velocity P-wave (km/s) = 6.83774 7.10281 6.97154
#
# Compressibility (1/GPa) = 0.01667296
#
# Stress axis : x y z
#
# Youngs Moduli (GPa) = 122.51100 80.95894 61.07588
#
# Poissons Ratio (x) = 0.24009 0.12611
# Poissons Ratio (y) = 0.36332 0.31008
# Poissons Ratio (z) = 0.25295 0.41103
#
# Static dielectric constant tensor:
#      x y z
#    x 4.466900 0.000000 0.000000 
#    y 0.000000 3.955810 0.000000 
#    z 0.000000 0.000000 3.709890 
# 
# 
# High freq. dielectric constant tensor:
#      x y z
#    x 1.851360 0.000000 0.000000 
#    y 0.000000 1.830110 0.000000 
#    z 0.000000 0.000000 1.807420 
# 
# From -- ./inp_files/10793.got.cif
#   From: 2010.06.25/outbox.cif.g09.slc.cpg/sg52_6_cif.got.tgz:10793.got - 2010.06.26 19:32:48.
