data_PCOD8216322
_publ_section_title
;
Structure prediction by ZEFSAII (Michael W. Deem and Ramdas Pophale) SiO2 
 PCOD8216322
Probable space group: P N N A
;
_chemical_formula_sum "Si O2"
_cell_formula_units_Z 44
_cell_length_a 14.364377
_cell_length_b 10.772832
_cell_length_c 13.751004
_cell_angle_alpha 90.000000
_cell_angle_beta 90.000000
_cell_angle_gamma 90.000000
_cell_volume 2127.899392
_symmetry_space_group_name_H-M "P N N A"
_symmetry_group_IT_number 52
_symmetry_cell_setting 'orthorhombic'
loop_
_space_group_symop_operation_xyz
x,y,z
1/2-x,-y,z
x,1/2-y,1/2-z
1/2-x,1/2+y,1/2-z
-x,-y,-z
1/2+x,y,-z
-x,1/2+y,1/2+z
1/2+x,1/2-y,1/2+z
loop_
_atom_site_type_symbol
_atom_site_label
_atom_site_fract_x
_atom_site_fract_y
_atom_site_fract_z
Si Si1 0.186138 0.750000 0.750000
Si Si2 0.583889 0.176237 0.907924
Si Si3 0.273844 0.750000 0.250000
Si Si4 0.750000 0.500000 0.848926
Si Si5 0.551081 0.051659 0.591887
Si Si6 0.812654 0.880805 0.106825
Si Si7 0.550794 0.970142 0.220279
O O1 0.249357 0.770877 0.847421
O O2 0.121190 0.868713 0.735375
O O3 0.664776 0.181547 0.829729
O O4 0.526409 0.303408 0.906536
O O5 0.509347 0.072825 0.874048
O O6 0.631163 0.157112 0.011621
O O7 0.219608 0.627849 0.209117
O O8 0.662166 0.467484 0.916591
O O9 0.516454 0.988755 0.691944
O O10 0.500000 0.000000 0.500000
O O11 0.750000 0.000000 0.080486
O O12 0.889085 0.912262 0.188585
#
# Coordination Sequence:
#
# PCOD8216322 Si02
#       7
#     4   8   4   4   8   8   8
#     4  10  21  44  61  92 128 172 206 267 337 394
#     4  11  20  43  64  87 126 174 213 271 336 395
#     4  10  21  40  69  90 130 170 220 271 335 394
#     4  10  22  46  64  98 130 176 220 278 336 396
#     4  11  24  41  65  96 129 173 218 266 342 401
#     4  10  25  37  64  98 122 167 224 274 322 402
#     4  11  20  44  65  87 134 171 213 269 337 398
#
# _framework density 20.677669999999999
#
# number of rings (size 3 to 8) (size 9 to 14) (size 15 to 20)
#    0.000    1.455    5.455    0.545    3.818    2.909 
#    4.909    0.000    0.000    0.000    0.000    0.000 
#    0.000    0.000    0.000    0.000    0.000    0.000 
#
# Total GULP energy -545234.930610 kJ/mol
# GULP energy per Si atom -12391.702968 kJ/mol
# Density = 2.063061 g / cm^3
# Si number density = 20.677670 Si / 1000 Ang^3
#
#
#
# Elastic Constant Matrix: (Units=GPa)
#
#
# Indices 1 2 3 4 5 6 
#
# 1 101.9562 17.5006 55.2992 0.0000 0.0000 0.0000
# 2 17.5006 49.7417 14.0841 0.0000 0.0000 0.0000
# 3 55.2992 14.0841 117.7591 0.0000 0.0000 0.0000
# 4 0.0000 0.0000 0.0000 30.5387 0.0000 0.0000
# 5 0.0000 0.0000 0.0000 0.0000 46.9634 0.0000
# 6 0.0000 0.0000 0.0000 0.0000 0.0000 28.9995
#
#
#
# Elastic Compliance Matrix: (Units=1/GPa)
#
#
# Indices 1 2 3 4 5 6 
#
# 1 0.013601 -0.003081 -0.006019 0.000000 0.000000 0.000000
# 2 -0.003081 0.021507 -0.001125 0.000000 0.000000 0.000000
# 3 -0.006019 -0.001125 0.011453 0.000000 0.000000 0.000000
# 4 0.000000 0.000000 0.000000 0.032745 0.000000 0.000000
# 5 0.000000 0.000000 0.000000 0.000000 0.021293 0.000000
# 6 0.000000 0.000000 0.000000 0.000000 0.000000 0.034483
#
#
# Mechanical properties :
#
#
# Convention : Reuss Voigt Hill
#
# Bulk Modulus (GPa) = 38.29883 49.24722 43.77302
# Shear Modulus (GPa) = 30.44391 33.47187 31.95789
#
# Velocity S-wave (km/s) = 3.84123 4.02773 3.93558
# Velocity P-wave (km/s) = 6.18348 6.74525 6.47047
#
# Compressibility (1/GPa) = 0.02611046
#
# Stress axis : x y z
#
# Youngs Moduli (GPa) = 73.52170 46.49752 87.31464
#
# Poissons Ratio (x) = 0.14327 0.52552
# Poissons Ratio (y) = 0.22654 0.09825
# Poissons Ratio (z) = 0.44250 0.05232
#
# Static dielectric constant tensor:
#      x y z
#    x 3.850560 0.000000 0.000000 
#    y 0.000000 3.786360 0.000000 
#    z 0.000000 0.000000 3.844070 
# 
# 
# High freq. dielectric constant tensor:
#      x y z
#    x 1.815640 0.000000 0.000000 
#    y 0.000000 1.798590 0.000000 
#    z 0.000000 0.000000 1.803170 
# 
# From -- ./inp_files/27132.got.cif
#   From: 2010.06.25/outbox.cif.g09.slc.cpg/sg52_14_cif.got.tgz:27132.got - 2010.06.26 19:32:48.
