data_PCOD8216702
_publ_section_title
;
Structure prediction by ZEFSAII (Michael W. Deem and Ramdas Pophale) SiO2 
 PCOD8216702
Probable space group: P N N A
;
_chemical_formula_sum "Si O2"
_cell_formula_units_Z 56
_cell_length_a 13.780090
_cell_length_b 6.460690
_cell_length_c 29.134727
_cell_angle_alpha 90.000000
_cell_angle_beta 90.000000
_cell_angle_gamma 90.000000
_cell_volume 2593.832395
_symmetry_space_group_name_H-M "P N N A"
_symmetry_group_IT_number 52
_symmetry_cell_setting 'orthorhombic'
loop_
_space_group_symop_operation_xyz
x,y,z
1/2-x,-y,z
x,1/2-y,1/2-z
1/2-x,1/2+y,1/2-z
-x,-y,-z
1/2+x,y,-z
-x,1/2+y,1/2+z
1/2+x,1/2-y,1/2+z
loop_
_atom_site_type_symbol
_atom_site_label
_atom_site_fract_x
_atom_site_fract_y
_atom_site_fract_z
Si Si1 0.864913 0.750000 0.250000
Si Si2 0.020113 0.710765 0.974784
Si Si3 0.415372 0.253454 0.623633
Si Si4 0.007429 0.558064 0.186953
Si Si5 0.750000 0.500000 0.325253
Si Si6 0.596318 0.535843 0.643728
Si Si7 0.139930 0.986630 0.043364
Si Si8 0.187283 0.190100 0.299466
O O1 0.933949 0.577467 0.228892
O O2 0.805565 0.655650 0.291902
O O3 0.091034 0.704004 0.930553
O O4 0.913886 0.791275 0.958537
O O5 0.000000 0.500000 0.000000
O O6 0.075076 0.844992 0.011775
O O7 0.315759 0.353524 0.642388
O O8 0.496465 0.420205 0.635166
O O9 0.443890 0.031178 0.644971
O O10 0.069906 0.762286 0.173774
O O11 0.078550 0.387412 0.207263
O O12 0.640952 0.604955 0.594966
O O13 0.679032 0.392662 0.668086
O O14 0.250000 0.000000 0.025006
O O15 0.232613 0.250000 0.250000
O O16 0.250000 0.000000 0.321553
#
# Coordination Sequence:
#
# PCOD8216702 Si02
#       8
#     4   8   8   8   4   8   8   8
#     4  12  24  40  68  90 136 176 228 274 338 406
#     4  10  22  45  67  99 136 176 221 281 346 424
#     4  10  23  42  66  96 132 172 224 275 345 403
#     4  11  23  42  65  90 128 182 214 277 344 395
#     4  12  24  42  64 102 134 174 238 286 334 422
#     4  10  22  45  64  94 132 171 218 282 336 408
#     4  10  23  40  70  98 132 173 220 281 346 406
#     4  11  27  39  62  94 128 170 227 271 334 407
#
# _framework density 21.589675
#
# number of rings (size 3 to 8) (size 9 to 14) (size 15 to 20)
#    0.000    1.429    1.429    2.571    8.000    0.571 
#    0.000    1.429    0.000    0.000    0.000    0.000 
#    0.000    0.000    0.000    0.000    0.000    0.000 
#
# Total GULP energy -694100.369540 kJ/mol
# GULP energy per Si atom -12394.649456 kJ/mol
# Density = 2.154054 g / cm^3
# Si number density = 21.589675 Si / 1000 Ang^3
#
#
#
# Elastic Constant Matrix: (Units=GPa)
#
#
# Indices 1 2 3 4 5 6 
#
# 1 109.1954 40.7709 44.8577 0.0000 0.0000 0.0000
# 2 40.7709 97.5541 46.4323 0.0000 0.0000 0.0000
# 3 44.8577 46.4323 138.1964 0.0000 0.0000 0.0000
# 4 0.0000 0.0000 0.0000 39.0292 0.0000 0.0000
# 5 0.0000 0.0000 0.0000 0.0000 37.3560 0.0000
# 6 0.0000 0.0000 0.0000 0.0000 0.0000 22.9628
#
#
#
# Elastic Compliance Matrix: (Units=1/GPa)
#
#
# Indices 1 2 3 4 5 6 
#
# 1 0.011551 -0.003622 -0.002532 0.000000 0.000000 0.000000
# 2 -0.003622 0.013338 -0.003306 0.000000 0.000000 0.000000
# 3 -0.002532 -0.003306 0.009169 0.000000 0.000000 0.000000
# 4 0.000000 0.000000 0.000000 0.025622 0.000000 0.000000
# 5 0.000000 0.000000 0.000000 0.000000 0.026769 0.000000
# 6 0.000000 0.000000 0.000000 0.000000 0.000000 0.043549
#
#
# Mechanical properties :
#
#
# Convention : Reuss Voigt Hill
#
# Bulk Modulus (GPa) = 66.06271 67.67418 66.86844
# Shear Modulus (GPa) = 32.47538 34.06193 33.26866
#
# Velocity S-wave (km/s) = 3.88262 3.97633 3.92976
# Velocity P-wave (km/s) = 7.12498 7.24536 7.18542
#
# Compressibility (1/GPa) = 0.01513713
#
# Stress axis : x y z
#
# Youngs Moduli (GPa) = 86.57597 74.97449 109.06678
#
# Poissons Ratio (x) = 0.27156 0.27619
# Poissons Ratio (y) = 0.31358 0.36054
# Poissons Ratio (z) = 0.21923 0.24784
#
# Static dielectric constant tensor:
#      x y z
#    x 4.050590 0.000000 0.000000 
#    y 0.000000 3.929290 0.000000 
#    z 0.000000 0.000000 4.051620 
# 
# 
# High freq. dielectric constant tensor:
#      x y z
#    x 1.854420 0.000000 0.000000 
#    y 0.000000 1.849070 0.000000 
#    z 0.000000 0.000000 1.853940 
# 
# From -- ./inp_files/45040.got.cif
#   From: 2010.06.25/outbox.cif.g09.slc.cpg/sg52_23_cif.got.tgz:45040.got - 2010.06.26 19:32:48.
