data_PCOD8216362
_publ_section_title
;
Structure prediction by ZEFSAII (Michael W. Deem and Ramdas Pophale) SiO2 
 PCOD8216362
Probable space group: P N N A
;
_chemical_formula_sum "Si O2"
_cell_formula_units_Z 40
_cell_length_a 12.441314
_cell_length_b 11.473528
_cell_length_c 13.838821
_cell_angle_alpha 90.000000
_cell_angle_beta 90.000000
_cell_angle_gamma 90.000000
_cell_volume 1975.433084
_symmetry_space_group_name_H-M "P N N A"
_symmetry_group_IT_number 52
_symmetry_cell_setting 'orthorhombic'
loop_
_space_group_symop_operation_xyz
x,y,z
1/2-x,-y,z
x,1/2-y,1/2-z
1/2-x,1/2+y,1/2-z
-x,-y,-z
1/2+x,y,-z
-x,1/2+y,1/2+z
1/2+x,1/2-y,1/2+z
loop_
_atom_site_type_symbol
_atom_site_label
_atom_site_fract_x
_atom_site_fract_y
_atom_site_fract_z
Si Si1 0.517654 0.365137 0.519237
Si Si2 0.864817 0.224638 0.357736
Si Si3 0.041508 0.455375 0.099426
Si Si4 0.425891 0.289700 0.146201
Si Si5 0.215366 0.227368 0.460141
O O1 0.500000 0.500000 0.500000
O O2 0.435781 0.333912 0.605393
O O3 0.502990 0.271685 0.432141
O O4 0.642692 0.344277 0.544279
O O5 0.818742 0.250000 0.250000
O O6 0.767012 0.202018 0.433220
O O7 0.945657 0.115201 0.348938
O O8 0.069661 0.570972 0.157929
O O9 0.148016 0.381551 0.078958
O O10 0.000000 0.500000 0.000000
O O11 0.463019 0.250000 0.250000
O O12 0.306784 0.248781 0.118454
#
# Coordination Sequence:
#
# PCOD8216362 Si02
#       5
#     8   8   8   8   8
#     4  10  23  43  63  83 132 167 196 254 319 365
#     4  10  23  39  64  97 121 163 212 255 312 372
#     4  11  20  42  65  88 125 167 203 260 316 371
#     4  11  24  39  62  98 122 161 215 254 311 373
#     4  10  21  42  64  87 129 159 209 257 309 369
#
# _framework density 20.248725
#
# number of rings (size 3 to 8) (size 9 to 14) (size 15 to 20)
#    0.000    1.600    6.000    0.600    2.800    7.200 
#    3.600    2.000    0.000    0.000    0.000    0.000 
#    0.000    0.000    0.000    0.000    0.000    0.000 
#
# Total GULP energy -495666.813904 kJ/mol
# GULP energy per Si atom -12391.670348 kJ/mol
# Density = 2.020264 g / cm^3
# Si number density = 20.248725 Si / 1000 Ang^3
#
#
#
# Elastic Constant Matrix: (Units=GPa)
#
#
# Indices 1 2 3 4 5 6 
#
# 1 65.3781 32.6199 -14.1703 0.0000 0.0000 0.0000
# 2 32.6199 156.4362 12.0327 0.0000 0.0000 0.0000
# 3 -14.1703 12.0327 75.2138 0.0000 0.0000 0.0000
# 4 0.0000 0.0000 0.0000 27.6453 0.0000 0.0000
# 5 0.0000 0.0000 0.0000 0.0000 10.3241 0.0000
# 6 0.0000 0.0000 0.0000 0.0000 0.0000 25.9037
#
#
#
# Elastic Compliance Matrix: (Units=1/GPa)
#
#
# Indices 1 2 3 4 5 6 
#
# 1 0.018238 -0.004118 0.004095 0.000000 0.000000 0.000000
# 2 -0.004118 0.007402 -0.001960 0.000000 0.000000 0.000000
# 3 0.004095 -0.001960 0.014380 0.000000 0.000000 0.000000
# 4 0.000000 0.000000 0.000000 0.036173 0.000000 0.000000
# 5 0.000000 0.000000 0.000000 0.000000 0.096861 0.000000
# 6 0.000000 0.000000 0.000000 0.000000 0.000000 0.038605
#
#
# Mechanical properties :
#
#
# Convention : Reuss Voigt Hill
#
# Bulk Modulus (GPa) = 27.73627 39.77697 33.75662
# Shear Modulus (GPa) = 21.96429 30.54433 26.25431
#
# Velocity S-wave (km/s) = 3.29709 3.88810 3.60473
# Velocity P-wave (km/s) = 5.31243 6.31215 5.83375
#
# Compressibility (1/GPa) = 0.03605387
#
# Stress axis : x y z
#
# Youngs Moduli (GPa) = 54.83139 135.10249 69.53892
#
# Poissons Ratio (x) = 0.55633 -0.28475
# Poissons Ratio (y) = 0.22579 0.13629
# Poissons Ratio (z) = -0.22452 0.26479
#
# Static dielectric constant tensor:
#      x y z
#    x 3.750810 0.000000 0.000000 
#    y 0.000000 3.097410 0.000000 
#    z 0.000000 0.000000 3.515710 
# 
# 
# High freq. dielectric constant tensor:
#      x y z
#    x 1.798080 0.000000 0.000000 
#    y 0.000000 1.793280 0.000000 
#    z 0.000000 0.000000 1.776790 
# 
# From -- ./inp_files/25835.got.cif
#   From: 2010.06.25/outbox.cif.g09.slc.cpg/sg52_13_cif.got.tgz:25835.got - 2010.06.26 19:32:48.
