data_PCOD8216084
_publ_section_title
;
Structure prediction by ZEFSAII (Michael W. Deem and Ramdas Pophale) SiO2 
 PCOD8216084
Probable space group: P N N A
;
_chemical_formula_sum "Si O2"
_cell_formula_units_Z 32
_cell_length_a 12.693506
_cell_length_b 4.972229
_cell_length_c 25.957781
_cell_angle_alpha 90.000000
_cell_angle_beta 90.000000
_cell_angle_gamma 90.000000
_cell_volume 1638.325832
_symmetry_space_group_name_H-M "P N N A"
_symmetry_group_IT_number 52
_symmetry_cell_setting 'orthorhombic'
loop_
_space_group_symop_operation_xyz
x,y,z
1/2-x,-y,z
x,1/2-y,1/2-z
1/2-x,1/2+y,1/2-z
-x,-y,-z
1/2+x,y,-z
-x,1/2+y,1/2+z
1/2+x,1/2-y,1/2+z
loop_
_atom_site_type_symbol
_atom_site_label
_atom_site_fract_x
_atom_site_fract_y
_atom_site_fract_z
Si Si1 0.035021 0.884218 0.599901
Si Si2 0.322892 0.251714 0.808525
Si Si3 0.180442 0.252037 0.437446
Si Si4 0.866322 0.589483 0.449311
O O1 0.076343 0.771518 0.654495
O O2 0.065601 0.679212 0.554803
O O3 0.907744 0.861642 0.602221
O O4 0.082560 0.176903 0.586387
O O5 0.250000 0.500000 0.820071
O O6 0.365518 0.250000 0.750000
O O7 0.250000 0.000000 0.821151
O O8 0.250000 0.500000 0.414115
O O9 0.129082 0.339368 0.491098
O O10 0.250000 0.000000 0.451960
O O11 0.750000 0.500000 0.429779
#
# Coordination Sequence:
#
# PCOD8216084 Si02
#       4
#     8   8   8   8
#     4  12  21  35  57  77 105 144 179 211 263 317
#     4  10  21  36  55  81 108 131 164 215 270 320
#     4  11  23  37  51  75 110 144 180 219 253 299
#     4  11  21  34  53  81 109 137 174 217 262 316
#
# _framework density 19.532133999999999
#
# number of rings (size 3 to 8) (size 9 to 14) (size 15 to 20)
#    0.000    1.000    0.000   10.500    0.000    0.000 
#    0.000    0.000    0.000    1.500    0.000    0.000 
#    0.000    0.000    0.000    0.000    0.000    0.000 
#
# Total GULP energy -396653.548949 kJ/mol
# GULP energy per Si atom -12395.423405 kJ/mol
# Density = 1.948768 g / cm^3
# Si number density = 19.532134 Si / 1000 Ang^3
#
#
#
# Elastic Constant Matrix: (Units=GPa)
#
#
# Indices 1 2 3 4 5 6 
#
# 1 97.5864 25.6321 43.1169 0.0000 0.0000 0.0000
# 2 25.6321 109.8084 4.3945 0.0000 0.0000 0.0000
# 3 43.1169 4.3945 77.8323 0.0000 0.0000 0.0000
# 4 0.0000 0.0000 0.0000 9.4981 0.0000 0.0000
# 5 0.0000 0.0000 0.0000 0.0000 22.6381 0.0000
# 6 0.0000 0.0000 0.0000 0.0000 0.0000 34.7589
#
#
#
# Elastic Compliance Matrix: (Units=1/GPa)
#
#
# Indices 1 2 3 4 5 6 
#
# 1 0.014537 -0.003078 -0.007879 0.000000 0.000000 0.000000
# 2 -0.003078 0.009779 0.001153 0.000000 0.000000 0.000000
# 3 -0.007879 0.001153 0.017148 0.000000 0.000000 0.000000
# 4 0.000000 0.000000 0.000000 0.105284 0.000000 0.000000
# 5 0.000000 0.000000 0.000000 0.000000 0.044173 0.000000
# 6 0.000000 0.000000 0.000000 0.000000 0.000000 0.028770
#
#
# Mechanical properties :
#
#
# Convention : Reuss Voigt Hill
#
# Bulk Modulus (GPa) = 45.75515 47.94600 46.85058
# Shear Modulus (GPa) = 20.27694 27.51793 23.89743
#
# Velocity S-wave (km/s) = 3.22550 3.75754 3.50164
# Velocity P-wave (km/s) = 6.11132 6.58984 6.35509
#
# Compressibility (1/GPa) = 0.02185546
#
# Stress axis : x y z
#
# Youngs Moduli (GPa) = 68.78907 102.25865 58.31581
#
# Poissons Ratio (x) = 0.31476 0.45949
# Poissons Ratio (y) = 0.21173 -0.06724
# Poissons Ratio (z) = 0.54202 -0.11790
#
# Static dielectric constant tensor:
#      x y z
#    x 3.957780 0.000000 0.000000 
#    y 0.000000 3.919020 0.000000 
#    z 0.000000 0.000000 3.269690 
# 
# 
# High freq. dielectric constant tensor:
#      x y z
#    x 1.754750 0.000000 0.000000 
#    y 0.000000 1.788720 0.000000 
#    z 0.000000 0.000000 1.726890 
# 
# From -- ./inp_files/42464.got.cif
#   From: 2010.06.25/outbox.cif.g09.slc.cpg/sg52_22_cif.got.tgz:42464.got - 2010.06.26 19:32:48.
