data_PCOD8216787
_publ_section_title
;
Structure prediction by ZEFSAII (Michael W. Deem and Ramdas Pophale) SiO2 
 PCOD8216787
Probable space group: P N N A
;
_chemical_formula_sum "Si O2"
_cell_formula_units_Z 48
_cell_length_a 18.493709
_cell_length_b 24.929000
_cell_length_c 4.944266
_cell_angle_alpha 90.000000
_cell_angle_beta 90.000000
_cell_angle_gamma 90.000000
_cell_volume 2279.453331
_symmetry_space_group_name_H-M "P N N A"
_symmetry_group_IT_number 52
_symmetry_cell_setting 'orthorhombic'
loop_
_space_group_symop_operation_xyz
x,y,z
1/2-x,-y,z
x,1/2-y,1/2-z
1/2-x,1/2+y,1/2-z
-x,-y,-z
1/2+x,y,-z
-x,1/2+y,1/2+z
1/2+x,1/2-y,1/2+z
loop_
_atom_site_type_symbol
_atom_site_label
_atom_site_fract_x
_atom_site_fract_y
_atom_site_fract_z
Si Si1 0.120752 0.811480 0.263623
Si Si2 0.929909 0.973551 0.126941
Si Si3 0.799912 0.046607 0.158138
Si Si4 0.259222 0.391249 0.149126
Si Si5 0.475794 0.312452 0.740273
Si Si6 0.594517 0.400547 0.860819
O O1 0.142099 0.750000 0.250000
O O2 0.196808 0.841598 0.222570
O O3 0.087777 0.825151 0.552513
O O4 0.058567 0.827624 0.048726
O O5 0.938388 0.939941 0.407054
O O6 0.881366 0.025950 0.164093
O O7 0.895677 0.932850 0.915166
O O8 0.000000 0.000000 0.000000
O O9 0.795730 0.096293 0.361508
O O10 0.750000 0.000000 0.281663
O O11 0.770658 0.060296 0.859580
O O12 0.175311 0.378765 0.081427
O O13 0.500385 0.250000 0.750000
O O14 0.544367 0.349128 0.809956
#
# Coordination Sequence:
#
# PCOD8216787 Si02
#       6
#     8   8   8   8   8   8
#     4  10  23  43  66  95 124 161 213 263 319 383
#     4  12  27  41  61  94 130 168 212 262 305 379
#     4  12  23  43  62  89 131 169 205 254 316 368
#     4  12  24  40  68  93 124 171 210 262 313 377
#     4  10  23  43  66  92 127 164 206 264 323 378
#     4  12  24  43  63  95 129 166 215 260 317 374
#
# _framework density 21.057682
#
# number of rings (size 3 to 8) (size 9 to 14) (size 15 to 20)
#    0.000    0.667    3.333    4.000    7.000    0.667 
#    0.000    0.000    0.000   10.000    0.000    0.000 
#    0.000    0.000    0.000    0.000    0.000    0.000 
#
# Total GULP energy -595150.186174 kJ/mol
# GULP energy per Si atom -12398.962212 kJ/mol
# Density = 2.100975 g / cm^3
# Si number density = 21.057682 Si / 1000 Ang^3
#
#
#
# Elastic Constant Matrix: (Units=GPa)
#
#
# Indices 1 2 3 4 5 6 
#
# 1 150.3263 74.7078 16.4988 0.0000 0.0000 0.0000
# 2 74.7078 94.3417 27.8334 0.0000 0.0000 0.0000
# 3 16.4988 27.8334 94.1805 0.0000 0.0000 0.0000
# 4 0.0000 0.0000 0.0000 28.8438 0.0000 0.0000
# 5 0.0000 0.0000 0.0000 0.0000 66.9605 0.0000
# 6 0.0000 0.0000 0.0000 0.0000 0.0000 3.4928
#
#
#
# Elastic Compliance Matrix: (Units=1/GPa)
#
#
# Indices 1 2 3 4 5 6 
#
# 1 0.011012 -0.008930 0.000710 0.000000 0.000000 0.000000
# 2 -0.008930 0.018853 -0.004007 0.000000 0.000000 0.000000
# 3 0.000710 -0.004007 0.011678 0.000000 0.000000 0.000000
# 4 0.000000 0.000000 0.000000 0.034670 0.000000 0.000000
# 5 0.000000 0.000000 0.000000 0.000000 0.014934 0.000000
# 6 0.000000 0.000000 0.000000 0.000000 0.000000 0.286300
#
#
# Mechanical properties :
#
#
# Convention : Reuss Voigt Hill
#
# Bulk Modulus (GPa) = 58.51795 64.10317 61.31056
# Shear Modulus (GPa) = 12.26698 34.51332 23.39015
#
# Velocity S-wave (km/s) = 2.41621 4.05284 3.33643
# Velocity P-wave (km/s) = 5.96940 7.23937 6.63484
#
# Compressibility (1/GPa) = 0.01708877
#
# Stress axis : x y z
#
# Youngs Moduli (GPa) = 90.80902 53.04072 85.63198
#
# Poissons Ratio (x) = 0.47364 -0.06079
# Poissons Ratio (y) = 0.81090 0.34317
# Poissons Ratio (z) = -0.06447 0.21256
#
# Static dielectric constant tensor:
#      x y z
#    x 3.474460 0.000000 0.000000 
#    y 0.000000 3.853130 0.000000 
#    z 0.000000 0.000000 4.365600 
# 
# 
# High freq. dielectric constant tensor:
#      x y z
#    x 1.827840 0.000000 0.000000 
#    y 0.000000 1.819400 0.000000 
#    z 0.000000 0.000000 1.843780 
# 
# From -- ./inp_files/3518.got.cif
#   From: 2010.06.25/outbox.cif.g09.slc.cpg/sg52_2_cif.got.tgz:3518.got - 2010.06.26 19:32:48.
