data_PCOD8216975
_publ_section_title
;
Structure prediction by ZEFSAII (Michael W. Deem and Ramdas Pophale) SiO2 
 PCOD8216975
Probable space group: P N N A
;
_chemical_formula_sum "Si O2"
_cell_formula_units_Z 40
_cell_length_a 17.044632
_cell_length_b 18.603436
_cell_length_c 5.349524
_cell_angle_alpha 90.000000
_cell_angle_beta 90.000000
_cell_angle_gamma 90.000000
_cell_volume 1696.273721
_symmetry_space_group_name_H-M "P N N A"
_symmetry_group_IT_number 52
_symmetry_cell_setting 'orthorhombic'
loop_
_space_group_symop_operation_xyz
x,y,z
1/2-x,-y,z
x,1/2-y,1/2-z
1/2-x,1/2+y,1/2-z
-x,-y,-z
1/2+x,y,-z
-x,1/2+y,1/2+z
1/2+x,1/2-y,1/2+z
loop_
_atom_site_type_symbol
_atom_site_label
_atom_site_fract_x
_atom_site_fract_y
_atom_site_fract_z
Si Si1 0.777441 0.620082 0.050029
Si Si2 0.921921 0.940317 0.611868
Si Si3 0.129638 0.914957 0.274409
Si Si4 0.629886 0.250000 0.250000
Si Si5 0.750000 0.500000 0.442596
Si Si6 0.023370 0.368171 0.599300
O O1 0.810648 0.699030 0.101801
O O2 0.784531 0.565752 0.281822
O O3 0.830730 0.583466 0.832751
O O4 0.687721 0.628067 0.957075
O O5 0.941682 0.902462 0.350991
O O6 0.926700 0.027295 0.577124
O O7 0.972030 0.915906 0.850324
O O8 0.070912 0.858206 0.141622
O O9 0.177095 0.966129 0.088902
O O10 0.570972 0.293483 0.437170
#
# Coordination Sequence:
#
# PCOD8216975 Si02
#       6
#     8   8   8   4   4   8
#     4  11  24  43  75 101 149 190 246 296 371 438
#     4  11  22  45  70 106 140 182 233 305 362 426
#     4  12  23  41  71 110 135 185 239 311 352 429
#     4  10  26  52  64 102 146 210 230 298 372 448
#     4  12  22  44  72 112 146 172 254 306 370 414
#     4  11  27  43  71 100 147 188 240 288 367 436
#
# _framework density 23.581102000000001
#
# number of rings (size 3 to 8) (size 9 to 14) (size 15 to 20)
#    0.000    0.800    4.000    3.600    2.800    3.200 
#    3.600    0.000    0.000    0.000    0.000    0.000 
#    0.000    0.000    0.000    0.000    0.000    0.000 
#
# Total GULP energy -495688.170136 kJ/mol
# GULP energy per Si atom -12392.204253 kJ/mol
# Density = 2.352743 g / cm^3
# Si number density = 23.581102 Si / 1000 Ang^3
#
#
#
# Elastic Constant Matrix: (Units=GPa)
#
#
# Indices 1 2 3 4 5 6 
#
# 1 67.9956 58.3462 21.6343 0.0000 0.0000 0.0000
# 2 58.3462 136.1269 33.1457 0.0000 0.0000 0.0000
# 3 21.6343 33.1457 101.1614 0.0000 0.0000 0.0000
# 4 0.0000 0.0000 0.0000 20.3702 0.0000 0.0000
# 5 0.0000 0.0000 0.0000 0.0000 21.0434 0.0000
# 6 0.0000 0.0000 0.0000 0.0000 0.0000 51.5302
#
#
#
# Elastic Compliance Matrix: (Units=1/GPa)
#
#
# Indices 1 2 3 4 5 6 
#
# 1 0.023588 -0.009652 -0.001882 0.000000 0.000000 0.000000
# 2 -0.009652 0.011932 -0.001846 0.000000 0.000000 0.000000
# 3 -0.001882 -0.001846 0.010892 0.000000 0.000000 0.000000
# 4 0.000000 0.000000 0.000000 0.049091 0.000000 0.000000
# 5 0.000000 0.000000 0.000000 0.000000 0.047521 0.000000
# 6 0.000000 0.000000 0.000000 0.000000 0.000000 0.019406
#
#
# Mechanical properties :
#
#
# Convention : Reuss Voigt Hill
#
# Bulk Modulus (GPa) = 50.88093 59.05959 54.97026
# Shear Modulus (GPa) = 25.54398 31.39927 28.47163
#
# Velocity S-wave (km/s) = 3.29483 3.65299 3.47852
# Velocity P-wave (km/s) = 6.00819 6.54921 6.28453
#
# Compressibility (1/GPa) = 0.01965373
#
# Stress axis : x y z
#
# Youngs Moduli (GPa) = 42.39487 83.80550 91.80737
#
# Poissons Ratio (x) = 0.80888 0.17278
# Poissons Ratio (y) = 0.40919 0.16943
# Poissons Ratio (z) = 0.07979 0.15466
#
# Static dielectric constant tensor:
#      x y z
#    x 4.986500 0.000000 0.000000 
#    y 0.000000 4.465760 0.000000 
#    z 0.000000 0.000000 4.048830 
# 
# 
# High freq. dielectric constant tensor:
#      x y z
#    x 1.967010 0.000000 0.000000 
#    y 0.000000 1.911140 0.000000 
#    z 0.000000 0.000000 1.921600 
# 
# From -- ./inp_files/3270.got.cif
#   From: 2010.06.25/outbox.cif.g09.slc.cpg/sg52_2_cif.got.tgz:3270.got - 2010.06.26 19:32:48.
