data_PCOD8216353
_publ_section_title
;
Structure prediction by ZEFSAII (Michael W. Deem and Ramdas Pophale) SiO2 
 PCOD8216353
Probable space group: P N N A
;
_chemical_formula_sum "Si O2"
_cell_formula_units_Z 64
_cell_length_a 8.676002
_cell_length_b 14.471234
_cell_length_c 24.506434
_cell_angle_alpha 90.000000
_cell_angle_beta 90.000000
_cell_angle_gamma 90.000000
_cell_volume 3076.842955
_symmetry_space_group_name_H-M "P N N A"
_symmetry_group_IT_number 52
_symmetry_cell_setting 'orthorhombic'
loop_
_space_group_symop_operation_xyz
x,y,z
1/2-x,-y,z
x,1/2-y,1/2-z
1/2-x,1/2+y,1/2-z
-x,-y,-z
1/2+x,y,-z
-x,1/2+y,1/2+z
1/2+x,1/2-y,1/2+z
loop_
_atom_site_type_symbol
_atom_site_label
_atom_site_fract_x
_atom_site_fract_y
_atom_site_fract_z
Si Si1 0.569541 0.505809 0.316675
Si Si2 0.851848 0.914916 0.630927
Si Si3 0.420608 0.651852 0.247208
Si Si4 0.406293 0.200090 0.411126
Si Si5 0.850578 0.376293 0.526094
Si Si6 0.593031 0.812168 0.799244
Si Si7 0.572551 0.021001 0.441844
Si Si8 0.523944 0.442666 0.568162
O O1 0.750000 0.500000 0.325929
O O2 0.529937 0.567542 0.264057
O O3 0.505373 0.404016 0.307747
O O4 0.493798 0.562355 0.366960
O O5 0.882173 0.855160 0.683879
O O6 0.755586 0.854576 0.587335
O O7 0.750000 0.000000 0.651395
O O8 0.006714 0.949530 0.602519
O O9 0.509693 0.750000 0.250000
O O10 0.267076 0.656963 0.284719
O O11 0.406128 0.273595 0.460140
O O12 0.423230 0.251527 0.353552
O O13 0.543085 0.126866 0.422682
O O14 0.677317 0.390889 0.547113
O O15 0.966962 0.448564 0.554704
O O16 0.874942 0.395180 0.461145
O O17 0.524902 0.750000 0.750000
O O18 0.750000 0.000000 0.445855
O O19 0.500000 0.000000 0.500000
#
# Coordination Sequence:
#
# PCOD8216353 Si02
#       8
#     8   8   8   8   8   8   8   8
#     4  12  27  42  62  97 146 175 220 281 342 395
#     4  10  21  41  70  97 130 170 224 282 343 398
#     4  11  23  43  71 100 131 177 233 274 334 415
#     4  11  21  42  70 100 127 177 231 286 333 417
#     4  10  22  39  64  93 128 171 223 265 333 394
#     4  11  22  43  72  98 130 176 235 273 337 411
#     4  11  26  48  68  99 137 181 233 296 357 412
#     4  10  23  40  62  93 134 177 216 272 328 403
#
# _framework density 20.800543000000001
#
# number of rings (size 3 to 8) (size 9 to 14) (size 15 to 20)
#    0.000    1.250    3.750    3.000    7.000    3.000 
#    2.250    0.000    0.000    0.000    0.000    0.000 
#    0.000    0.000    0.000    0.000    0.000    0.000 
#
# Total GULP energy -793487.107505 kJ/mol
# GULP energy per Si atom -12398.236055 kJ/mol
# Density = 2.075320 g / cm^3
# Si number density = 20.800543 Si / 1000 Ang^3
#
#
#
# Elastic Constant Matrix: (Units=GPa)
#
#
# Indices 1 2 3 4 5 6 
#
# 1 120.7845 55.4722 40.5565 0.0000 0.0000 0.0000
# 2 55.4722 151.3723 45.6617 0.0000 0.0000 0.0000
# 3 40.5565 45.6617 91.6127 0.0000 0.0000 0.0000
# 4 0.0000 0.0000 0.0000 43.2449 0.0000 0.0000
# 5 0.0000 0.0000 0.0000 0.0000 25.4714 0.0000
# 6 0.0000 0.0000 0.0000 0.0000 0.0000 21.2777
#
#
#
# Elastic Compliance Matrix: (Units=1/GPa)
#
#
# Indices 1 2 3 4 5 6 
#
# 1 0.010734 -0.002943 -0.003285 0.000000 0.000000 0.000000
# 2 -0.002943 0.008582 -0.002975 0.000000 0.000000 0.000000
# 3 -0.003285 -0.002975 0.013853 0.000000 0.000000 0.000000
# 4 0.000000 0.000000 0.000000 0.023124 0.000000 0.000000
# 5 0.000000 0.000000 0.000000 0.000000 0.039260 0.000000
# 6 0.000000 0.000000 0.000000 0.000000 0.000000 0.046998
#
#
# Mechanical properties :
#
#
# Convention : Reuss Voigt Hill
#
# Bulk Modulus (GPa) = 67.73574 71.90561 69.82067
# Shear Modulus (GPa) = 30.14314 32.80409 31.47361
#
# Velocity S-wave (km/s) = 3.81090 3.97555 3.89410
# Velocity P-wave (km/s) = 7.21104 7.46442 7.33882
#
# Compressibility (1/GPa) = 0.01476326
#
# Stress axis : x y z
#
# Youngs Moduli (GPa) = 93.16473 116.52449 72.18911
#
# Poissons Ratio (x) = 0.34288 0.23715
# Poissons Ratio (y) = 0.27414 0.21474
# Poissons Ratio (z) = 0.30606 0.34663
#
# Static dielectric constant tensor:
#      x y z
#    x 4.907480 0.000000 0.000000 
#    y 0.000000 4.157610 0.000000 
#    z 0.000000 0.000000 3.878440 
# 
# 
# High freq. dielectric constant tensor:
#      x y z
#    x 1.791330 0.000000 0.000000 
#    y 0.000000 1.829260 0.000000 
#    z 0.000000 0.000000 1.820520 
# 
# From -- ./inp_files/39678.got.cif
#   From: 2010.06.25/outbox.cif.g09.slc.cpg/sg52_20_cif.got.tgz:39678.got - 2010.06.26 19:32:48.
