data_PCOD8216956
_publ_section_title
;
Structure prediction by ZEFSAII (Michael W. Deem and Ramdas Pophale) SiO2 
 PCOD8216956
Probable space group: P N N A
;
_chemical_formula_sum "Si O2"
_cell_formula_units_Z 32
_cell_length_a 18.453380
_cell_length_b 7.247858
_cell_length_c 11.504623
_cell_angle_alpha 90.000000
_cell_angle_beta 90.000000
_cell_angle_gamma 90.000000
_cell_volume 1538.714310
_symmetry_space_group_name_H-M "P N N A"
_symmetry_group_IT_number 52
_symmetry_cell_setting 'orthorhombic'
loop_
_space_group_symop_operation_xyz
x,y,z
1/2-x,-y,z
x,1/2-y,1/2-z
1/2-x,1/2+y,1/2-z
-x,-y,-z
1/2+x,y,-z
-x,1/2+y,1/2+z
1/2+x,1/2-y,1/2+z
loop_
_atom_site_type_symbol
_atom_site_label
_atom_site_fract_x
_atom_site_fract_y
_atom_site_fract_z
Si Si1 0.049832 0.174526 0.024177
Si Si2 0.968884 0.250000 0.250000
Si Si3 0.799432 0.827627 0.872539
Si Si4 0.750000 0.500000 0.021441
Si Si5 0.386608 0.910895 0.668323
O O1 0.131805 0.110465 0.050959
O O2 0.017309 0.275940 0.135872
O O3 0.052930 0.320747 0.917808
O O4 0.000000 0.000000 0.000000
O O5 0.921037 0.435971 0.253500
O O6 0.827480 0.750000 0.750000
O O7 0.750000 0.000000 0.845856
O O8 0.750784 0.680217 0.941236
O O9 0.677889 0.509039 0.098806
O O10 0.354315 0.750000 0.750000
#
# Coordination Sequence:
#
# PCOD8216956 Si02
#       5
#     8   4   8   4   8
#     4  11  24  46  67  99 133 176 224 276 335 401
#     4  12  24  44  70  94 134 174 218 282 330 394
#     4  11  23  44  68  98 133 175 223 276 335 394
#     4  10  26  42  66  98 136 172 222 274 330 412
#     4  11  25  44  68 100 133 174 225 269 340 402
#
# _framework density 20.796583999999999
#
# number of rings (size 3 to 8) (size 9 to 14) (size 15 to 20)
#    0.000    1.000    5.000    0.750    5.250    0.000 
#    6.750    0.000    0.000    0.000    0.000    0.000 
#    0.000    0.000    0.000    0.000    0.000    0.000 
#
# Total GULP energy -396881.325569 kJ/mol
# GULP energy per Si atom -12402.541424 kJ/mol
# Density = 2.074925 g / cm^3
# Si number density = 20.796584 Si / 1000 Ang^3
#
#
#
# Elastic Constant Matrix: (Units=GPa)
#
#
# Indices 1 2 3 4 5 6 
#
# 1 93.9057 60.9552 32.4110 0.0000 0.0000 0.0000
# 2 60.9552 116.7013 41.3952 0.0000 0.0000 0.0000
# 3 32.4110 41.3952 106.9520 0.0000 0.0000 0.0000
# 4 0.0000 0.0000 0.0000 39.9642 0.0000 0.0000
# 5 0.0000 0.0000 0.0000 0.0000 31.9206 0.0000
# 6 0.0000 0.0000 0.0000 0.0000 0.0000 37.9539
#
#
#
# Elastic Compliance Matrix: (Units=1/GPa)
#
#
# Indices 1 2 3 4 5 6 
#
# 1 0.016446 -0.007908 -0.001923 0.000000 0.000000 0.000000
# 2 -0.007908 0.013735 -0.002920 0.000000 0.000000 0.000000
# 3 -0.001923 -0.002920 0.011063 0.000000 0.000000 0.000000
# 4 0.000000 0.000000 0.000000 0.025022 0.000000 0.000000
# 5 0.000000 0.000000 0.000000 0.000000 0.031328 0.000000
# 6 0.000000 0.000000 0.000000 0.000000 0.000000 0.026348
#
#
# Mechanical properties :
#
#
# Convention : Reuss Voigt Hill
#
# Bulk Modulus (GPa) = 63.52255 65.23129 64.37692
# Shear Modulus (GPa) = 32.32276 34.15425 33.23851
#
# Velocity S-wave (km/s) = 3.94665 4.05693 4.00217
# Velocity P-wave (km/s) = 7.16792 7.30612 7.23735
#
# Compressibility (1/GPa) = 0.01574244
#
# Stress axis : x y z
#
# Youngs Moduli (GPa) = 60.80599 72.80732 90.39308
#
# Poissons Ratio (x) = 0.57574 0.17383
# Poissons Ratio (y) = 0.48084 0.26391
# Poissons Ratio (z) = 0.11694 0.21257
#
# Static dielectric constant tensor:
#      x y z
#    x 3.639220 0.000000 0.000000 
#    y 0.000000 3.627670 0.000000 
#    z 0.000000 0.000000 4.049980 
# 
# 
# High freq. dielectric constant tensor:
#      x y z
#    x 1.806740 0.000000 0.000000 
#    y 0.000000 1.814190 0.000000 
#    z 0.000000 0.000000 1.833790 
# 
# From -- ./inp_files/19037.got.cif
#   From: 2010.06.25/outbox.cif.g09.slc.cpg/sg52_10_cif.got.tgz:19037.got - 2010.06.26 19:32:48.
