data_PCOD8216440
_publ_section_title
;
Structure prediction by ZEFSAII (Michael W. Deem and Ramdas Pophale) SiO2 
 PCOD8216440
Probable space group: P N N A
;
_chemical_formula_sum "Si O2"
_cell_formula_units_Z 64
_cell_length_a 11.352411
_cell_length_b 12.017934
_cell_length_c 24.328154
_cell_angle_alpha 90.000000
_cell_angle_beta 90.000000
_cell_angle_gamma 90.000000
_cell_volume 3319.151507
_symmetry_space_group_name_H-M "P N N A"
_symmetry_group_IT_number 52
_symmetry_cell_setting 'orthorhombic'
loop_
_space_group_symop_operation_xyz
x,y,z
1/2-x,-y,z
x,1/2-y,1/2-z
1/2-x,1/2+y,1/2-z
-x,-y,-z
1/2+x,y,-z
-x,1/2+y,1/2+z
1/2+x,1/2-y,1/2+z
loop_
_atom_site_type_symbol
_atom_site_label
_atom_site_fract_x
_atom_site_fract_y
_atom_site_fract_z
Si Si1 0.200137 0.269321 0.187754
Si Si2 0.157759 0.903403 0.889980
Si Si3 0.686299 0.797090 0.308294
Si Si4 0.895389 0.168601 0.875550
Si Si5 0.125627 0.564639 0.490233
Si Si6 0.982989 0.955404 0.700328
Si Si7 0.454060 0.805525 0.692942
Si Si8 0.939342 0.950801 0.825235
O O1 0.244694 0.250000 0.250000
O O2 0.307632 0.266606 0.144994
O O3 0.115912 0.169920 0.169324
O O4 0.133840 0.387525 0.183167
O O5 0.186582 0.796195 0.854509
O O6 0.035438 0.958748 0.872979
O O7 0.250000 0.000000 0.879455
O O8 0.151232 0.867816 0.953879
O O9 0.639925 0.750000 0.250000
O O10 0.598276 0.895974 0.325022
O O11 0.818249 0.842203 0.302691
O O12 0.893262 0.151920 0.940818
O O13 0.023045 0.215714 0.855872
O O14 0.857331 0.056236 0.841798
O O15 0.250000 0.500000 0.477133
O O16 0.000000 0.500000 0.500000
O O17 0.996739 0.964350 0.765882
O O18 0.973369 0.081658 0.679272
O O19 0.496057 0.750000 0.750000
#
# Coordination Sequence:
#
# PCOD8216440 Si02
#       8
#     8   8   8   8   8   8   8   8
#     4  10  22  36  58  87 123 172 205 254 311 379
#     4  11  22  36  60  94 128 161 200 264 319 385
#     4  11  21  35  59  91 127 168 204 249 326 387
#     4  12  23  41  59  90 126 166 214 260 322 375
#     4  11  25  41  66  96 130 171 213 269 333 387
#     4  11  21  38  57  91 130 165 212 247 321 394
#     4  11  24  36  58  93 128 169 207 267 315 377
#     4  11  19  35  59  88 128 158 202 254 314 382
#
# _framework density 19.282036000000002
#
# number of rings (size 3 to 8) (size 9 to 14) (size 15 to 20)
#    0.000    1.000    5.000    3.000    3.500    0.500 
#    0.000    0.000    0.000    0.750    3.250    0.000 
#    0.000    0.000    0.000    0.000    0.000    0.000 
#
# Total GULP energy -793176.790270 kJ/mol
# GULP energy per Si atom -12393.387348 kJ/mol
# Density = 1.923815 g / cm^3
# Si number density = 19.282036 Si / 1000 Ang^3
#
#
#
# Elastic Constant Matrix: (Units=GPa)
#
#
# Indices 1 2 3 4 5 6 
#
# 1 79.8504 23.9174 29.0482 0.0000 0.0000 0.0000
# 2 23.9174 111.3030 48.2438 0.0000 0.0000 0.0000
# 3 29.0482 48.2438 121.6766 0.0000 0.0000 0.0000
# 4 0.0000 0.0000 0.0000 31.7222 0.0000 0.0000
# 5 0.0000 0.0000 0.0000 0.0000 -20.4318 0.0000
# 6 0.0000 0.0000 0.0000 0.0000 0.0000 24.7898
#
#
#
# Elastic Compliance Matrix: (Units=1/GPa)
#
#
# Indices 1 2 3 4 5 6 
#
# 1 0.014036 -0.001888 -0.002602 0.000000 0.000000 0.000000
# 2 -0.001888 0.011103 -0.003951 0.000000 0.000000 0.000000
# 3 -0.002602 -0.003951 0.010406 0.000000 0.000000 0.000000
# 4 0.000000 0.000000 0.000000 0.031524 0.000000 0.000000
# 5 0.000000 0.000000 0.000000 0.000000 -0.048943 0.000000
# 6 0.000000 0.000000 0.000000 0.000000 0.000000 0.040339
#
#
# Mechanical properties :
#
#
# Convention : Reuss Voigt Hill
#
# Bulk Modulus (GPa) = 53.58629 57.24986 55.41808
# Shear Modulus (GPa) = 61.29814 21.32408 41.31111
#
# Velocity S-wave (km/s) = 5.64440 3.32912 4.63370
# Velocity P-wave (km/s) = 8.38631 6.67328 7.57835
#
# Compressibility (1/GPa) = 0.01866149
#
# Stress axis : x y z
#
# Youngs Moduli (GPa) = 71.24754 90.06595 96.09437
#
# Poissons Ratio (x) = 0.17006 0.25005
# Poissons Ratio (y) = 0.13453 0.37971
# Poissons Ratio (z) = 0.18539 0.35589
#
# Static dielectric constant tensor:
#      x y z
#    x 3.936250 0.000000 0.000000 
#    y 0.000000 3.455370 0.000000 
#    z 0.000000 0.000000 3.387550 
# 
# 
# High freq. dielectric constant tensor:
#      x y z
#    x 1.769590 0.000000 0.000000 
#    y 0.000000 1.740160 0.000000 
#    z 0.000000 0.000000 1.720690 
# 
# From -- ./inp_files/40332.got.cif
#   From: 2010.06.25/outbox.cif.g09.slc.cpg/sg52_21_cif.got.tgz:40332.got - 2010.06.26 19:32:48.
