data_PCOD8216153
_publ_section_title
;
Structure prediction by ZEFSAII (Michael W. Deem and Ramdas Pophale) SiO2 
 PCOD8216153
Probable space group: P N N A
;
_chemical_formula_sum "Si O2"
_cell_formula_units_Z 52
_cell_length_a 4.933434
_cell_length_b 21.604983
_cell_length_c 22.419047
_cell_angle_alpha 90.000000
_cell_angle_beta 90.000000
_cell_angle_gamma 90.000000
_cell_volume 2389.573530
_symmetry_space_group_name_H-M "P N N A"
_symmetry_group_IT_number 52
_symmetry_cell_setting 'orthorhombic'
loop_
_space_group_symop_operation_xyz
x,y,z
1/2-x,-y,z
x,1/2-y,1/2-z
1/2-x,1/2+y,1/2-z
-x,-y,-z
1/2+x,y,-z
-x,1/2+y,1/2+z
1/2+x,1/2-y,1/2+z
loop_
_atom_site_type_symbol
_atom_site_label
_atom_site_fract_x
_atom_site_fract_y
_atom_site_fract_z
Si Si1 0.811371 0.862558 0.171774
Si Si2 0.317265 0.927545 0.223052
Si Si3 0.297543 0.564991 0.962099
Si Si4 0.674707 0.308989 0.458905
Si Si5 0.338233 0.681291 0.895495
Si Si6 0.332342 0.667039 0.174831
Si Si7 0.446743 0.750000 0.750000
O O1 0.600916 0.916105 0.189866
O O2 0.785734 0.847832 0.101687
O O3 0.767735 0.801431 0.213727
O O4 0.104893 0.891135 0.182443
O O5 0.331034 0.897098 0.288761
O O6 0.250000 0.000000 0.229078
O O7 0.250000 0.500000 0.927534
O O8 0.194627 0.621079 0.921965
O O9 0.613219 0.567822 0.978648
O O10 0.397045 0.325682 0.491744
O O11 0.679914 0.236924 0.441891
O O12 0.650484 0.660836 0.884906
O O13 0.140755 0.692210 0.837185
O O14 0.154559 0.721015 0.203578
#
# Coordination Sequence:
#
# PCOD8216153 Si02
#       7
#     8   8   8   8   8   8   4
#     4  11  24  42  72  95 133 179 214 279 328 404
#     4  11  25  44  67  98 132 174 218 273 338 395
#     4  10  21  38  57  77 112 166 219 258 298 355
#     4  12  25  41  64  96 136 170 219 275 330 391
#     4  12  23  38  59  95 126 174 205 266 321 380
#     4  11  24  36  64  92 132 163 207 259 316 398
#     4  10  22  42  64 102 128 170 218 254 334 406
#
# _framework density 21.761206000000001
#
# number of rings (size 3 to 8) (size 9 to 14) (size 15 to 20)
#    0.000    0.923    1.538    6.000    4.308    2.462 
#    0.000    0.000    0.000    9.231    0.000    0.000 
#    0.000    0.000    0.000    0.000    0.000    0.000 
#
# Total GULP energy -644489.668188 kJ/mol
# GULP energy per Si atom -12394.032081 kJ/mol
# Density = 2.171168 g / cm^3
# Si number density = 21.761206 Si / 1000 Ang^3
#
#
#
# Elastic Constant Matrix: (Units=GPa)
#
#
# Indices 1 2 3 4 5 6 
#
# 1 96.0817 3.6164 9.9301 0.0000 0.0000 0.0000
# 2 3.6164 82.0585 4.6507 0.0000 0.0000 0.0000
# 3 9.9301 4.6507 64.1045 0.0000 0.0000 0.0000
# 4 0.0000 0.0000 0.0000 27.5808 0.0000 0.0000
# 5 0.0000 0.0000 0.0000 0.0000 23.5219 0.0000
# 6 0.0000 0.0000 0.0000 0.0000 0.0000 34.8877
#
#
#
# Elastic Compliance Matrix: (Units=1/GPa)
#
#
# Indices 1 2 3 4 5 6 
#
# 1 0.010589 -0.000375 -0.001613 0.000000 0.000000 0.000000
# 2 -0.000375 0.012250 -0.000831 0.000000 0.000000 0.000000
# 3 -0.001613 -0.000831 0.015910 0.000000 0.000000 0.000000
# 4 0.000000 0.000000 0.000000 0.036257 0.000000 0.000000
# 5 0.000000 0.000000 0.000000 0.000000 0.042514 0.000000
# 6 0.000000 0.000000 0.000000 0.000000 0.000000 0.028663
#
#
# Mechanical properties :
#
#
# Convention : Reuss Voigt Hill
#
# Bulk Modulus (GPa) = 30.20177 30.95990 30.58083
# Shear Modulus (GPa) = 30.70181 32.13460 31.41820
#
# Velocity S-wave (km/s) = 3.76020 3.84694 3.80382
# Velocity P-wave (km/s) = 5.72372 5.83009 5.77715
#
# Compressibility (1/GPa) = 0.03311065
#
# Stress axis : x y z
#
# Youngs Moduli (GPa) = 94.44086 81.63242 62.85494
#
# Poissons Ratio (x) = 0.03063 0.10139
# Poissons Ratio (y) = 0.03544 0.05221
# Poissons Ratio (z) = 0.15233 0.06780
#
# Static dielectric constant tensor:
#      x y z
#    x 4.043950 0.000000 0.000000 
#    y 0.000000 3.983330 0.000000 
#    z 0.000000 0.000000 3.409590 
# 
# 
# High freq. dielectric constant tensor:
#      x y z
#    x 1.876480 0.000000 0.000000 
#    y 0.000000 1.844160 0.000000 
#    z 0.000000 0.000000 1.849200 
# 
# From -- ./inp_files/35179.got.cif
#   From: 2010.06.25/outbox.cif.g09.slc.cpg/sg52_18_cif.got.tgz:35179.got - 2010.06.26 19:32:48.
