data_PCOD8216116
_publ_section_title
;
Structure prediction by ZEFSAII (Michael W. Deem and Ramdas Pophale) SiO2 
 PCOD8216116
Probable space group: P N N A
;
_chemical_formula_sum "Si O2"
_cell_formula_units_Z 28
_cell_length_a 16.934412
_cell_length_b 9.166276
_cell_length_c 9.787155
_cell_angle_alpha 90.000000
_cell_angle_beta 90.000000
_cell_angle_gamma 90.000000
_cell_volume 1519.215973
_symmetry_space_group_name_H-M "P N N A"
_symmetry_group_IT_number 52
_symmetry_cell_setting 'orthorhombic'
loop_
_space_group_symop_operation_xyz
x,y,z
1/2-x,-y,z
x,1/2-y,1/2-z
1/2-x,1/2+y,1/2-z
-x,-y,-z
1/2+x,y,-z
-x,1/2+y,1/2+z
1/2+x,1/2-y,1/2+z
loop_
_atom_site_type_symbol
_atom_site_label
_atom_site_fract_x
_atom_site_fract_y
_atom_site_fract_z
Si Si1 0.462085 0.609966 0.342198
Si Si2 0.750000 0.500000 0.428301
Si Si3 0.909248 0.619881 0.354401
Si Si4 0.819957 0.092555 0.810641
O O1 0.461201 0.750000 0.250000
O O2 0.546865 0.532994 0.324479
O O3 0.438475 0.664763 0.494000
O O4 0.400548 0.492150 0.286565
O O5 0.814628 0.589945 0.340907
O O6 0.799627 0.390606 0.527643
O O7 0.931242 0.750000 0.250000
O O8 0.829179 0.250000 0.750000
O O9 0.750000 0.000000 0.737023
#
# Coordination Sequence:
#
# PCOD8216116 Si02
#       4
#     8   4   8   8
#     4  10  21  37  58  81 110 143 185 231 270 316
#     4   8  20  34  54  76 114 146 172 224 276 322
#     4  10  21  38  57  78 112 148 180 224 274 326
#     4   9  17  32  57  82 108 139 180 228 272 311
#
# _framework density 18.43056
#
# number of rings (size 3 to 8) (size 9 to 14) (size 15 to 20)
#    0.857    1.714    0.000    1.714    0.000    2.286 
#    0.000    2.857    0.000    0.000    0.000    0.000 
#    0.000    0.000    0.000    0.000    0.000    0.000 
#
# Total GULP energy -346904.295022 kJ/mol
# GULP energy per Si atom -12389.439108 kJ/mol
# Density = 1.838861 g / cm^3
# Si number density = 18.430560 Si / 1000 Ang^3
#
#
#
# Elastic Constant Matrix: (Units=GPa)
#
#
# Indices 1 2 3 4 5 6 
#
# 1 114.1705 54.4194 34.7141 0.0000 0.0000 0.0000
# 2 54.4194 145.3461 78.3397 0.0000 0.0000 0.0000
# 3 34.7141 78.3397 79.1230 0.0000 0.0000 0.0000
# 4 0.0000 0.0000 0.0000 26.6119 0.0000 0.0000
# 5 0.0000 0.0000 0.0000 0.0000 11.5252 0.0000
# 6 0.0000 0.0000 0.0000 0.0000 0.0000 16.4415
#
#
#
# Elastic Compliance Matrix: (Units=1/GPa)
#
#
# Indices 1 2 3 4 5 6 
#
# 1 0.010752 -0.003180 -0.001568 0.000000 0.000000 0.000000
# 2 -0.003180 0.015694 -0.014143 0.000000 0.000000 0.000000
# 3 -0.001568 -0.014143 0.027330 0.000000 0.000000 0.000000
# 4 0.000000 0.000000 0.000000 0.037577 0.000000 0.000000
# 5 0.000000 0.000000 0.000000 0.000000 0.086766 0.000000
# 6 0.000000 0.000000 0.000000 0.000000 0.000000 0.060822
#
#
# Mechanical properties :
#
#
# Convention : Reuss Voigt Hill
#
# Bulk Modulus (GPa) = 62.53257 74.84287 68.68772
# Shear Modulus (GPa) = 17.72708 22.32681 20.02694
#
# Velocity S-wave (km/s) = 3.10470 3.48430 3.29996
# Velocity P-wave (km/s) = 6.84505 7.54210 7.20201
#
# Compressibility (1/GPa) = 0.01599167
#
# Stress axis : x y z
#
# Youngs Moduli (GPa) = 93.00995 63.71935 36.59000
#
# Poissons Ratio (x) = 0.20264 0.05739
# Poissons Ratio (y) = 0.29579 0.51750
# Poissons Ratio (z) = 0.14588 0.90120
#
# Static dielectric constant tensor:
#      x y z
#    x 3.656620 0.000000 0.000000 
#    y 0.000000 3.441420 0.000000 
#    z 0.000000 0.000000 3.196620 
# 
# 
# High freq. dielectric constant tensor:
#      x y z
#    x 1.734780 0.000000 0.000000 
#    y 0.000000 1.700770 0.000000 
#    z 0.000000 0.000000 1.686500 
# 
# From -- ./inp_files/11325.got.cif
#   From: 2010.06.25/outbox.cif.g09.slc.cpg/sg52_6_cif.got.tgz:11325.got - 2010.06.26 19:32:48.
