data_PCOD8216570
_publ_section_title
;
Structure prediction by ZEFSAII (Michael W. Deem and Ramdas Pophale) SiO2 
 PCOD8216570
Probable space group: P N N A
;
_chemical_formula_sum "Si O2"
_cell_formula_units_Z 56
_cell_length_a 19.595589
_cell_length_b 8.620178
_cell_length_c 16.516367
_cell_angle_alpha 90.000000
_cell_angle_beta 90.000000
_cell_angle_gamma 90.000000
_cell_volume 2789.902848
_symmetry_space_group_name_H-M "P N N A"
_symmetry_group_IT_number 52
_symmetry_cell_setting 'orthorhombic'
loop_
_space_group_symop_operation_xyz
x,y,z
1/2-x,-y,z
x,1/2-y,1/2-z
1/2-x,1/2+y,1/2-z
-x,-y,-z
1/2+x,y,-z
-x,1/2+y,1/2+z
1/2+x,1/2-y,1/2+z
loop_
_atom_site_type_symbol
_atom_site_label
_atom_site_fract_x
_atom_site_fract_y
_atom_site_fract_z
Si Si1 0.050315 0.081272 0.727901
Si Si2 0.868716 0.294556 0.009194
Si Si3 0.043411 0.004063 0.419452
Si Si4 0.043476 0.973214 0.902385
Si Si5 0.321456 0.563294 0.873614
Si Si6 0.272547 0.839801 0.980693
Si Si7 0.588687 0.163288 0.959510
O O1 0.020595 0.250000 0.750000
O O2 0.127993 0.097497 0.699261
O O3 0.055901 0.973700 0.806972
O O4 0.000829 0.003567 0.661853
O O5 0.905146 0.357509 0.927439
O O6 0.914846 0.168575 0.056363
O O7 0.857417 0.440890 0.067546
O O8 0.795411 0.232119 0.979992
O O9 0.082784 0.166331 0.422548
O O10 0.000000 0.000000 0.500000
O O11 0.961508 0.953241 0.911931
O O12 0.066369 0.135994 0.945133
O O13 0.250000 0.500000 0.838585
O O14 0.308151 0.724851 0.918351
O O15 0.250000 0.000000 0.936706
O O16 0.330661 0.879696 0.048468
#
# Coordination Sequence:
#
# PCOD8216570 Si02
#       7
#     8   8   8   8   8   8   8
#     4  12  26  41  63  96 134 169 218 270 330 382
#     4  11  22  38  68  94 127 167 225 262 326 392
#     4  12  21  40  67  89 127 170 213 271 325 379
#     4  11  24  40  66  99 126 166 221 270 320 396
#     4  10  22  41  58  90 133 178 210 255 323 390
#     4  11  21  37  65  97 126 170 223 264 315 390
#     4  11  22  40  67  92 130 168 216 268 327 379
#
# _framework density 20.072382999999999
#
# number of rings (size 3 to 8) (size 9 to 14) (size 15 to 20)
#    0.000    0.857    5.714    1.714    2.000    2.286 
#    7.714    0.000    0.000    0.000   14.857    0.000 
#    0.000    0.000    0.000    0.000    0.000    0.000 
#
# Total GULP energy -693926.844373 kJ/mol
# GULP energy per Si atom -12391.550792 kJ/mol
# Density = 2.002670 g / cm^3
# Si number density = 20.072383 Si / 1000 Ang^3
#
#
#
# Elastic Constant Matrix: (Units=GPa)
#
#
# Indices 1 2 3 4 5 6 
#
# 1 153.8925 52.2975 51.6931 0.0000 0.0000 0.0000
# 2 52.2975 119.0760 39.6026 0.0000 0.0000 0.0000
# 3 51.6931 39.6026 86.0654 0.0000 0.0000 0.0000
# 4 0.0000 0.0000 0.0000 19.4442 0.0000 0.0000
# 5 0.0000 0.0000 0.0000 0.0000 24.9064 0.0000
# 6 0.0000 0.0000 0.0000 0.0000 0.0000 41.9274
#
#
#
# Elastic Compliance Matrix: (Units=1/GPa)
#
#
# Indices 1 2 3 4 5 6 
#
# 1 0.008712 -0.002463 -0.004099 0.000000 0.000000 0.000000
# 2 -0.002463 0.010612 -0.003404 0.000000 0.000000 0.000000
# 3 -0.004099 -0.003404 0.015647 0.000000 0.000000 0.000000
# 4 0.000000 0.000000 0.000000 0.051429 0.000000 0.000000
# 5 0.000000 0.000000 0.000000 0.000000 0.040150 0.000000
# 6 0.000000 0.000000 0.000000 0.000000 0.000000 0.023851
#
#
# Mechanical properties :
#
#
# Convention : Reuss Voigt Hill
#
# Bulk Modulus (GPa) = 66.49238 71.80225 69.14732
# Shear Modulus (GPa) = 28.51500 31.61830 30.06665
#
# Velocity S-wave (km/s) = 3.77319 3.97320 3.87448
# Velocity P-wave (km/s) = 7.22363 7.54306 7.38507
#
# Compressibility (1/GPa) = 0.01503932
#
# Stress axis : x y z
#
# Youngs Moduli (GPa) = 114.78415 94.23581 63.90819
#
# Poissons Ratio (x) = 0.23209 0.26198
# Poissons Ratio (y) = 0.28270 0.21752
# Poissons Ratio (z) = 0.47054 0.32075
#
# Static dielectric constant tensor:
#      x y z
#    x 4.383530 0.000000 0.000000 
#    y 0.000000 4.500520 0.000000 
#    z 0.000000 0.000000 3.416950 
# 
# 
# High freq. dielectric constant tensor:
#      x y z
#    x 1.803900 0.000000 0.000000 
#    y 0.000000 1.806250 0.000000 
#    z 0.000000 0.000000 1.726460 
# 
# From -- ./inp_files/28785.got.cif
#   From: 2010.06.25/outbox.cif.g09.slc.cpg/sg52_15_cif.got.tgz:28785.got - 2010.06.26 19:32:48.
