data_PCOD8216528
_publ_section_title
;
Structure prediction by ZEFSAII (Michael W. Deem and Ramdas Pophale) SiO2 
 PCOD8216528
Probable space group: P N N A
;
_chemical_formula_sum "Si O2"
_cell_formula_units_Z 32
_cell_length_a 15.465166
_cell_length_b 12.060637
_cell_length_c 7.639827
_cell_angle_alpha 90.000000
_cell_angle_beta 90.000000
_cell_angle_gamma 90.000000
_cell_volume 1424.978647
_symmetry_space_group_name_H-M "P N N A"
_symmetry_group_IT_number 52
_symmetry_cell_setting 'orthorhombic'
loop_
_space_group_symop_operation_xyz
x,y,z
1/2-x,-y,z
x,1/2-y,1/2-z
1/2-x,1/2+y,1/2-z
-x,-y,-z
1/2+x,y,-z
-x,1/2+y,1/2+z
1/2+x,1/2-y,1/2+z
loop_
_atom_site_type_symbol
_atom_site_label
_atom_site_fract_x
_atom_site_fract_y
_atom_site_fract_z
Si Si1 0.668982 0.847909 0.052156
Si Si2 0.573501 0.870053 0.397022
Si Si3 0.112271 0.099069 0.453472
Si Si4 0.321647 0.750000 0.750000
Si Si5 0.750000 0.500000 0.721233
O O1 0.618114 0.902228 0.214036
O O2 0.617330 0.735348 0.006452
O O3 0.765895 0.820210 0.112699
O O4 0.678072 0.934345 0.893361
O O5 0.471564 0.846017 0.361347
O O6 0.588555 0.970667 0.525921
O O7 0.122844 0.163270 0.636907
O O8 0.199399 0.094417 0.335295
#
# Coordination Sequence:
#
# PCOD8216528 Si02
#       5
#     8   8   8   4   4
#     4  10  22  40  62  89 129 167 211 275 336 389
#     4   9  22  42  60  86 129 174 211 268 340 399
#     4  11  23  39  63  93 126 169 224 271 331 400
#     4  10  22  40  62  86 126 174 218 270 324 386
#     4  12  24  38  68 102 126 166 230 282 330 398
#
# _framework density 22.456475999999999
#
# number of rings (size 3 to 8) (size 9 to 14) (size 15 to 20)
#    0.000    2.000    0.000    4.500    0.000   13.000 
#    0.000    0.000    0.000    0.000    0.000    0.000 
#    0.000    0.000    0.000    0.000    0.000    0.000 
#
# Total GULP energy -396584.918877 kJ/mol
# GULP energy per Si atom -12393.278715 kJ/mol
# Density = 2.240536 g / cm^3
# Si number density = 22.456476 Si / 1000 Ang^3
#
#
#
# Elastic Constant Matrix: (Units=GPa)
#
#
# Indices 1 2 3 4 5 6 
#
# 1 128.4787 44.3006 30.4883 0.0000 0.0000 0.0000
# 2 44.3006 95.6959 57.6836 0.0000 0.0000 0.0000
# 3 30.4883 57.6836 73.5794 0.0000 0.0000 0.0000
# 4 0.0000 0.0000 0.0000 40.4238 0.0000 0.0000
# 5 0.0000 0.0000 0.0000 0.0000 21.2529 0.0000
# 6 0.0000 0.0000 0.0000 0.0000 0.0000 22.2594
#
#
#
# Elastic Compliance Matrix: (Units=1/GPa)
#
#
# Indices 1 2 3 4 5 6 
#
# 1 0.009294 -0.003756 -0.000906 0.000000 0.000000 0.000000
# 2 -0.003756 0.021330 -0.015166 0.000000 0.000000 0.000000
# 3 -0.000906 -0.015166 0.025856 0.000000 0.000000 0.000000
# 4 0.000000 0.000000 0.000000 0.024738 0.000000 0.000000
# 5 0.000000 0.000000 0.000000 0.000000 0.047052 0.000000
# 6 0.000000 0.000000 0.000000 0.000000 0.000000 0.044925
#
#
# Mechanical properties :
#
#
# Convention : Reuss Voigt Hill
#
# Bulk Modulus (GPa) = 59.44130 62.52214 60.98172
# Shear Modulus (GPa) = 22.88765 27.80599 25.34682
#
# Velocity S-wave (km/s) = 3.19596 3.52265 3.36327
# Velocity P-wave (km/s) = 6.33608 6.66688 6.50358
#
# Compressibility (1/GPa) = 0.01682332
#
# Stress axis : x y z
#
# Youngs Moduli (GPa) = 107.60146 46.88200 38.67614
#
# Poissons Ratio (x) = 0.17609 0.03505
# Poissons Ratio (y) = 0.40415 0.58655
# Poissons Ratio (z) = 0.09752 0.71100
#
# Static dielectric constant tensor:
#      x y z
#    x 4.298270 0.000000 0.000000 
#    y 0.000000 3.970640 0.000000 
#    z 0.000000 0.000000 3.773620 
# 
# 
# High freq. dielectric constant tensor:
#      x y z
#    x 1.890110 0.000000 0.000000 
#    y 0.000000 1.886420 0.000000 
#    z 0.000000 0.000000 1.867710 
# 
# From -- ./inp_files/9628.got.cif
#   From: 2010.06.25/outbox.cif.g09.slc.cpg/sg52_5_cif.got.tgz:9628.got - 2010.06.26 19:32:48.
