data_PCOD8216500
_publ_section_title
;
Structure prediction by ZEFSAII (Michael W. Deem and Ramdas Pophale) SiO2 
 PCOD8216500
Probable space group: P N N A
;
_chemical_formula_sum "Si O2"
_cell_formula_units_Z 40
_cell_length_a 14.813367
_cell_length_b 16.745305
_cell_length_c 7.353818
_cell_angle_alpha 90.000000
_cell_angle_beta 90.000000
_cell_angle_gamma 90.000000
_cell_volume 1824.146533
_symmetry_space_group_name_H-M "P N N A"
_symmetry_group_IT_number 52
_symmetry_cell_setting 'orthorhombic'
loop_
_space_group_symop_operation_xyz
x,y,z
1/2-x,-y,z
x,1/2-y,1/2-z
1/2-x,1/2+y,1/2-z
-x,-y,-z
1/2+x,y,-z
-x,1/2+y,1/2+z
1/2+x,1/2-y,1/2+z
loop_
_atom_site_type_symbol
_atom_site_label
_atom_site_fract_x
_atom_site_fract_y
_atom_site_fract_z
Si Si1 0.639564 0.749247 0.040919
Si Si2 0.839517 0.724114 0.549067
Si Si3 0.943489 0.095377 0.894514
Si Si4 0.583883 0.426734 0.686439
Si Si5 0.024778 0.153684 0.554396
O O1 0.611053 0.750000 0.250000
O O2 0.746749 0.738138 0.023147
O O3 0.620012 0.828108 0.922282
O O4 0.581951 0.674585 0.967743
O O5 0.862509 0.750000 0.750000
O O6 0.846889 0.627762 0.565786
O O7 0.919716 0.762923 0.428291
O O8 0.024720 0.108115 0.746990
O O9 0.883820 0.019134 0.826101
O O10 0.986043 0.077790 0.091348
O O11 0.569506 0.400798 0.896736
#
# Coordination Sequence:
#
# PCOD8216500 Si02
#       5
#     8   8   8   8   8
#     4  12  23  38  62  93 124 163 214 258 305 378
#     4  10  22  39  63  91 123 161 210 259 310 373
#     4  11  22  38  64  87 124 164 198 253 318 364
#     4  10  22  40  60  93 121 159 205 254 309 375
#     4  11  21  42  65  92 120 163 208 261 310 380
#
# _framework density 21.928063000000002
#
# number of rings (size 3 to 8) (size 9 to 14) (size 15 to 20)
#    0.000    1.200    4.000    3.000    2.800    0.800 
#    0.000    0.000    0.000    3.600    0.000    0.000 
#    0.000    0.000    0.000    0.000    0.000    0.000 
#
# Total GULP energy -495609.309662 kJ/mol
# GULP energy per Si atom -12390.232742 kJ/mol
# Density = 2.187815 g / cm^3
# Si number density = 21.928063 Si / 1000 Ang^3
#
#
#
# Elastic Constant Matrix: (Units=GPa)
#
#
# Indices 1 2 3 4 5 6 
#
# 1 71.8591 1.2611 10.2834 0.0000 0.0000 0.0000
# 2 1.2611 90.9388 20.9238 0.0000 0.0000 0.0000
# 3 10.2834 20.9238 92.8898 0.0000 0.0000 0.0000
# 4 0.0000 0.0000 0.0000 28.5329 0.0000 0.0000
# 5 0.0000 0.0000 0.0000 0.0000 26.4618 0.0000
# 6 0.0000 0.0000 0.0000 0.0000 0.0000 20.0227
#
#
#
# Elastic Compliance Matrix: (Units=1/GPa)
#
#
# Indices 1 2 3 4 5 6 
#
# 1 0.014143 0.000173 -0.001605 0.000000 0.000000 0.000000
# 2 0.000173 0.011600 -0.002632 0.000000 0.000000 0.000000
# 3 -0.001605 -0.002632 0.011536 0.000000 0.000000 0.000000
# 4 0.000000 0.000000 0.000000 0.035047 0.000000 0.000000
# 5 0.000000 0.000000 0.000000 0.000000 0.037790 0.000000
# 6 0.000000 0.000000 0.000000 0.000000 0.000000 0.049943
#
#
# Mechanical properties :
#
#
# Convention : Reuss Voigt Hill
#
# Bulk Modulus (GPa) = 34.30401 35.62490 34.96445
# Shear Modulus (GPa) = 28.10513 29.88476 28.99494
#
# Velocity S-wave (km/s) = 3.58396 3.69569 3.64026
# Velocity P-wave (km/s) = 5.72750 5.87302 5.80072
#
# Compressibility (1/GPa) = 0.02915111
#
# Stress axis : x y z
#
# Youngs Moduli (GPa) = 70.70771 86.20990 86.68541
#
# Poissons Ratio (x) = -0.01492 0.13910
# Poissons Ratio (y) = -0.01224 0.22816
# Poissons Ratio (z) = 0.11346 0.22691
#
# Static dielectric constant tensor:
#      x y z
#    x 3.560370 0.000000 0.000000 
#    y 0.000000 4.339950 0.000000 
#    z 0.000000 0.000000 4.133280 
# 
# 
# High freq. dielectric constant tensor:
#      x y z
#    x 1.824180 0.000000 0.000000 
#    y 0.000000 1.858010 0.000000 
#    z 0.000000 0.000000 1.880910 
# 
# From -- ./inp_files/10240.got.cif
#   From: 2010.06.25/outbox.cif.g09.slc.cpg/sg52_6_cif.got.tgz:10240.got - 2010.06.26 19:32:48.
