data_PCOD8216279
_publ_section_title
;
Structure prediction by ZEFSAII (Michael W. Deem and Ramdas Pophale) SiO2 
 PCOD8216279
Probable space group: P N N A
;
_chemical_formula_sum "Si O2"
_cell_formula_units_Z 48
_cell_length_a 8.159670
_cell_length_b 9.023252
_cell_length_c 31.605618
_cell_angle_alpha 90.000000
_cell_angle_beta 90.000000
_cell_angle_gamma 90.000000
_cell_volume 2327.019208
_symmetry_space_group_name_H-M "P N N A"
_symmetry_group_IT_number 52
_symmetry_cell_setting 'orthorhombic'
loop_
_space_group_symop_operation_xyz
x,y,z
1/2-x,-y,z
x,1/2-y,1/2-z
1/2-x,1/2+y,1/2-z
-x,-y,-z
1/2+x,y,-z
-x,1/2+y,1/2+z
1/2+x,1/2-y,1/2+z
loop_
_atom_site_type_symbol
_atom_site_label
_atom_site_fract_x
_atom_site_fract_y
_atom_site_fract_z
Si Si1 0.923820 0.654197 0.483348
Si Si2 0.729150 0.660923 0.399255
Si Si3 0.274511 0.332821 0.046451
Si Si4 0.700893 0.833835 0.706543
Si Si5 0.093179 0.186001 0.372470
Si Si6 0.404198 0.592872 0.845585
O O1 0.775603 0.641745 0.449084
O O2 0.860184 0.729386 0.525376
O O3 0.000000 0.500000 0.500000
O O4 0.048796 0.767403 0.462223
O O5 0.750000 0.500000 0.377533
O O6 0.539513 0.700659 0.391351
O O7 0.844139 0.781907 0.377632
O O8 0.250000 0.500000 0.029283
O O9 0.247676 0.322922 0.096573
O O10 0.718361 0.750000 0.750000
O O11 0.830585 0.764601 0.672700
O O12 0.511762 0.828636 0.690873
O O13 0.750000 0.000000 0.716009
O O14 0.017298 0.021498 0.371233
O O15 0.250000 0.500000 0.826101
#
# Coordination Sequence:
#
# PCOD8216279 Si02
#       6
#     8   8   8   8   8   8
#     4  12  25  40  56  84 127 163 197 256 321 364
#     4  11  22  38  59  86 120 159 205 248 300 365
#     4  12  23  38  61  85 111 154 210 252 294 361
#     4  10  21  40  64  91 122 155 196 247 307 368
#     4  10  21  40  63  86 117 157 202 252 306 356
#     4   9  20  40  63  88 121 160 199 251 306 360
#
# _framework density 20.627247000000001
#
# number of rings (size 3 to 8) (size 9 to 14) (size 15 to 20)
#    0.000    1.333    0.000    7.500    0.000    3.333 
#    0.000   11.667    0.000    0.000    0.000    0.000 
#    0.000    0.000    0.000    0.000    0.000    0.000 
#
# Total GULP energy -595004.247470 kJ/mol
# GULP energy per Si atom -12395.921822 kJ/mol
# Density = 2.058030 g / cm^3
# Si number density = 20.627247 Si / 1000 Ang^3
#
#
#
# Elastic Constant Matrix: (Units=GPa)
#
#
# Indices 1 2 3 4 5 6 
#
# 1 98.3557 29.1531 57.3461 0.0000 0.0000 0.0000
# 2 29.1531 97.9786 43.9235 0.0000 0.0000 0.0000
# 3 57.3461 43.9235 127.6347 0.0000 0.0000 0.0000
# 4 0.0000 0.0000 0.0000 28.7128 0.0000 0.0000
# 5 0.0000 0.0000 0.0000 0.0000 32.4615 0.0000
# 6 0.0000 0.0000 0.0000 0.0000 0.0000 36.4716
#
#
#
# Elastic Compliance Matrix: (Units=1/GPa)
#
#
# Indices 1 2 3 4 5 6 
#
# 1 0.013982 -0.001589 -0.005735 0.000000 0.000000 0.000000
# 2 -0.001589 0.012249 -0.003501 0.000000 0.000000 0.000000
# 3 -0.005735 -0.003501 0.011617 0.000000 0.000000 0.000000
# 4 0.000000 0.000000 0.000000 0.034828 0.000000 0.000000
# 5 0.000000 0.000000 0.000000 0.000000 0.030806 0.000000
# 6 0.000000 0.000000 0.000000 0.000000 0.000000 0.027419
#
#
# Mechanical properties :
#
#
# Convention : Reuss Voigt Hill
#
# Bulk Modulus (GPa) = 61.74306 64.97940 63.36123
# Shear Modulus (GPa) = 31.65568 32.43227 32.04398
#
# Velocity S-wave (km/s) = 3.92172 3.96953 3.94569
# Velocity P-wave (km/s) = 7.10663 7.25118 7.17927
#
# Compressibility (1/GPa) = 0.01619615
#
# Stress axis : x y z
#
# Youngs Moduli (GPa) = 71.51965 81.64105 86.08383
#
# Poissons Ratio (x) = 0.12975 0.49371
# Poissons Ratio (y) = 0.11366 0.30139
# Poissons Ratio (z) = 0.41018 0.28584
#
# Static dielectric constant tensor:
#      x y z
#    x 4.028400 0.000000 0.000000 
#    y 0.000000 3.797720 0.000000 
#    z 0.000000 0.000000 3.572520 
# 
# 
# High freq. dielectric constant tensor:
#      x y z
#    x 1.825290 0.000000 0.000000 
#    y 0.000000 1.813000 0.000000 
#    z 0.000000 0.000000 1.789210 
# 
# From -- ./inp_files/44370.got.cif
#   From: 2010.06.25/outbox.cif.g09.slc.cpg/sg52_23_cif.got.tgz:44370.got - 2010.06.26 19:32:48.
