data_PCOD8216160
_publ_section_title
;
Structure prediction by ZEFSAII (Michael W. Deem and Ramdas Pophale) SiO2 
 PCOD8216160
Probable space group: P N N A
;
_chemical_formula_sum "Si O2"
_cell_formula_units_Z 48
_cell_length_a 31.759553
_cell_length_b 8.278357
_cell_length_c 8.796971
_cell_angle_alpha 90.000000
_cell_angle_beta 90.000000
_cell_angle_gamma 90.000000
_cell_volume 2312.872502
_symmetry_space_group_name_H-M "P N N A"
_symmetry_group_IT_number 52
_symmetry_cell_setting 'orthorhombic'
loop_
_space_group_symop_operation_xyz
x,y,z
1/2-x,-y,z
x,1/2-y,1/2-z
1/2-x,1/2+y,1/2-z
-x,-y,-z
1/2+x,y,-z
-x,1/2+y,1/2+z
1/2+x,1/2-y,1/2+z
loop_
_atom_site_type_symbol
_atom_site_label
_atom_site_fract_x
_atom_site_fract_y
_atom_site_fract_z
Si Si1 0.332022 0.191119 0.918294
Si Si2 0.749246 0.308686 0.581350
Si Si3 0.416444 0.810746 0.082355
Si Si4 0.585605 0.810198 0.919619
Si Si5 0.001034 0.184162 0.571470
Si Si6 0.333791 0.691830 0.581006
O O1 0.325019 0.250000 0.750000
O O2 0.333161 0.999660 0.924768
O O3 0.292870 0.260878 0.015189
O O4 0.375599 0.262623 0.983618
O O5 0.750000 0.500000 0.574745
O O6 0.742856 0.250000 0.750000
O O7 0.709833 0.238779 0.485692
O O8 0.424124 0.750000 0.250000
O O9 0.412694 0.999968 0.082255
O O10 0.456562 0.763881 0.984236
O O11 0.373352 0.737007 0.014170
O O12 0.591095 0.750000 0.750000
O O13 0.542159 0.753845 0.999113
O O14 0.998662 0.250000 0.750000
O O15 0.000000 0.000000 0.500000
O O16 0.339947 0.750000 0.750000
#
# Coordination Sequence:
#
# PCOD8216160 Si02
#       6
#     8   8   8   8   8   8
#     4  10  22  37  58  85 115 151 193 239 289 347
#     4  10  21  38  58  85 116 150 191 236 287 347
#     4  11  22  38  61  89 120 157 201 248 298 359
#     4  10  22  39  58  85 118 156 197 243 295 353
#     4  11  24  42  64  91 122 160 202 251 308 365
#     4  10  22  38  58  85 118 152 194 241 292 349
#
# _framework density 20.753413999999999
#
# number of rings (size 3 to 8) (size 9 to 14) (size 15 to 20)
#    0.000    1.667    0.000    4.500    0.000    7.333 
#    0.000    0.000    0.000    0.000    0.000    0.000 
#    0.000    0.000    0.000    0.000    0.000    0.000 
#
# Total GULP energy -594681.807618 kJ/mol
# GULP energy per Si atom -12389.204325 kJ/mol
# Density = 2.070618 g / cm^3
# Si number density = 20.753414 Si / 1000 Ang^3
#
#
#
# Elastic Constant Matrix: (Units=GPa)
#
#
# Indices 1 2 3 4 5 6 
#
# 1 197.0001 31.4257 47.0664 0.0000 0.0000 0.0000
# 2 31.4257 40.9437 23.7153 0.0000 0.0000 0.0000
# 3 47.0664 23.7153 94.9591 0.0000 0.0000 0.0000
# 4 0.0000 0.0000 0.0000 39.1798 0.0000 0.0000
# 5 0.0000 0.0000 0.0000 0.0000 43.8147 0.0000
# 6 0.0000 0.0000 0.0000 0.0000 0.0000 4.5059
#
#
#
# Elastic Compliance Matrix: (Units=1/GPa)
#
#
# Indices 1 2 3 4 5 6 
#
# 1 0.006149 -0.003454 -0.002185 0.000000 0.000000 0.000000
# 2 -0.003454 0.030494 -0.005904 0.000000 0.000000 0.000000
# 3 -0.002185 -0.005904 0.013088 0.000000 0.000000 0.000000
# 4 0.000000 0.000000 0.000000 0.025523 0.000000 0.000000
# 5 0.000000 0.000000 0.000000 0.000000 0.022823 0.000000
# 6 0.000000 0.000000 0.000000 0.000000 0.000000 0.221929
#
#
# Mechanical properties :
#
#
# Convention : Reuss Voigt Hill
#
# Bulk Modulus (GPa) = 37.52910 59.70195 48.61553
# Shear Modulus (GPa) = 14.20552 32.87979 23.54266
#
# Velocity S-wave (km/s) = 2.61912 3.98465 3.37174
# Velocity P-wave (km/s) = 5.22197 7.07105 6.21565
#
# Compressibility (1/GPa) = 0.02664599
#
# Stress axis : x y z
#
# Youngs Moduli (GPa) = 162.62237 32.79291 76.40364
#
# Poissons Ratio (x) = 0.11327 0.16696
# Poissons Ratio (y) = 0.56170 0.45107
# Poissons Ratio (z) = 0.35537 0.19360
#
# Static dielectric constant tensor:
#      x y z
#    x 4.783490 0.000000 0.000000 
#    y 0.000000 3.767070 0.000000 
#    z 0.000000 0.000000 4.052190 
# 
# 
# High freq. dielectric constant tensor:
#      x y z
#    x 1.846710 0.000000 0.000000 
#    y 0.000000 1.801290 0.000000 
#    z 0.000000 0.000000 1.815900 
# 
# From -- ./inp_files/15514.got.cif
#   From: 2010.06.25/outbox.cif.g09.slc.cpg/sg52_8_cif.got.tgz:15514.got - 2010.06.26 19:32:48.
