data_PCOD8216711
_publ_section_title
;
Structure prediction by ZEFSAII (Michael W. Deem and Ramdas Pophale) SiO2 
 PCOD8216711
Probable space group: P N N A
;
_chemical_formula_sum "Si O2"
_cell_formula_units_Z 40
_cell_length_a 8.596738
_cell_length_b 23.150061
_cell_length_c 8.892597
_cell_angle_alpha 90.000000
_cell_angle_beta 90.000000
_cell_angle_gamma 90.000000
_cell_volume 1769.760273
_symmetry_space_group_name_H-M "P N N A"
_symmetry_group_IT_number 52
_symmetry_cell_setting 'orthorhombic'
loop_
_space_group_symop_operation_xyz
x,y,z
1/2-x,-y,z
x,1/2-y,1/2-z
1/2-x,1/2+y,1/2-z
-x,-y,-z
1/2+x,y,-z
-x,1/2+y,1/2+z
1/2+x,1/2-y,1/2+z
loop_
_atom_site_type_symbol
_atom_site_label
_atom_site_fract_x
_atom_site_fract_y
_atom_site_fract_z
Si Si1 0.224072 0.824446 0.913468
Si Si2 0.659475 0.057064 0.596235
Si Si3 0.484763 0.750000 0.250000
Si Si4 0.968829 0.750000 0.250000
Si Si5 0.303343 0.060467 0.715188
Si Si6 0.772528 0.331398 0.768635
O O1 0.373833 0.787481 0.868746
O O2 0.212475 0.886173 0.828947
O O3 0.080175 0.783712 0.875390
O O4 0.226656 0.835048 0.088786
O O5 0.479005 0.056655 0.647362
O O6 0.676036 0.067866 0.417663
O O7 0.765806 0.104470 0.674669
O O8 0.750000 0.000000 0.645717
O O9 0.376545 0.703007 0.166644
O O10 0.078533 0.702915 0.165814
O O11 0.250000 0.000000 0.795838
#
# Coordination Sequence:
#
# PCOD8216711 Si02
#       6
#     8   8   4   4   8   8
#     4  11  24  44  69  99 132 172 222 273 324 392
#     4  11  25  45  69  98 135 175 221 273 333 397
#     4  10  22  46  58 100 138 168 212 268 338 388
#     4  10  26  38  66  96 138 176 204 268 334 392
#     4  11  25  45  69  98 135 175 221 273 333 397
#     4  11  24  44  69  99 132 172 222 273 324 392
#
# _framework density 22.601932000000001
#
# number of rings (size 3 to 8) (size 9 to 14) (size 15 to 20)
#    0.000    1.200    2.000    3.600    5.600   10.400 
#    0.000    2.000    0.000    0.000    0.000    0.000 
#    0.000    0.000    0.000    0.000    0.000    0.000 
#
# Total GULP energy -495668.301071 kJ/mol
# GULP energy per Si atom -12391.707527 kJ/mol
# Density = 2.255049 g / cm^3
# Si number density = 22.601932 Si / 1000 Ang^3
#
#
#
# Elastic Constant Matrix: (Units=GPa)
#
#
# Indices 1 2 3 4 5 6 
#
# 1 135.8518 64.8362 24.0624 0.0000 0.0000 0.0000
# 2 64.8362 199.7454 84.4529 0.0000 0.0000 0.0000
# 3 24.0624 84.4529 59.6698 0.0000 0.0000 0.0000
# 4 0.0000 0.0000 0.0000 26.2861 0.0000 0.0000
# 5 0.0000 0.0000 0.0000 0.0000 105.2799 0.0000
# 6 0.0000 0.0000 0.0000 0.0000 0.0000 44.2515
#
#
#
# Elastic Compliance Matrix: (Units=1/GPa)
#
#
# Indices 1 2 3 4 5 6 
#
# 1 0.008746 -0.003356 0.001223 0.000000 0.000000 0.000000
# 2 -0.003356 0.013754 -0.018113 0.000000 0.000000 0.000000
# 3 0.001223 -0.018113 0.041902 0.000000 0.000000 0.000000
# 4 0.000000 0.000000 0.000000 0.038043 0.000000 0.000000
# 5 0.000000 0.000000 0.000000 0.000000 0.009498 0.000000
# 6 0.000000 0.000000 0.000000 0.000000 0.000000 0.022598
#
#
# Mechanical properties :
#
#
# Convention : Reuss Voigt Hill
#
# Bulk Modulus (GPa) = 41.82435 82.44114 62.13275
# Shear Modulus (GPa) = 27.32175 49.95787 38.63981
#
# Velocity S-wave (km/s) = 3.48059 4.70652 4.13919
# Velocity P-wave (km/s) = 5.89047 8.12955 7.09884
#
# Compressibility (1/GPa) = 0.02390951
#
# Stress axis : x y z
#
# Youngs Moduli (GPa) = 114.33786 72.70578 23.86508
#
# Poissons Ratio (x) = 0.24400 -0.02918
# Poissons Ratio (y) = 0.38371 0.43228
# Poissons Ratio (z) = -0.13982 1.31694
#
# Static dielectric constant tensor:
#      x y z
#    x 4.604990 0.000000 0.000000 
#    y 0.000000 4.571460 0.000000 
#    z 0.000000 0.000000 3.701340 
# 
# 
# High freq. dielectric constant tensor:
#      x y z
#    x 1.915760 0.000000 0.000000 
#    y 0.000000 1.915670 0.000000 
#    z 0.000000 0.000000 1.863650 
# 
# From -- ./inp_files/7456.got.cif
#   From: 2010.06.25/outbox.cif.g09.slc.cpg/sg52_4_cif.got.tgz:7456.got - 2010.06.26 19:32:48.
