data_PCOD8216910
_publ_section_title
;
Structure prediction by ZEFSAII (Michael W. Deem and Ramdas Pophale) SiO2 
 PCOD8216910
Probable space group: P N N A
;
_chemical_formula_sum "Si O2"
_cell_formula_units_Z 60
_cell_length_a 8.793467
_cell_length_b 17.333404
_cell_length_c 16.257015
_cell_angle_alpha 90.000000
_cell_angle_beta 90.000000
_cell_angle_gamma 90.000000
_cell_volume 2477.905867
_symmetry_space_group_name_H-M "P N N A"
_symmetry_group_IT_number 52
_symmetry_cell_setting 'orthorhombic'
loop_
_space_group_symop_operation_xyz
x,y,z
1/2-x,-y,z
x,1/2-y,1/2-z
1/2-x,1/2+y,1/2-z
-x,-y,-z
1/2+x,y,-z
-x,1/2+y,1/2+z
1/2+x,1/2-y,1/2+z
loop_
_atom_site_type_symbol
_atom_site_label
_atom_site_fract_x
_atom_site_fract_y
_atom_site_fract_z
Si Si1 0.520263 0.908711 0.014490
Si Si2 0.279202 0.169007 0.541658
Si Si3 0.160078 0.750000 0.250000
Si Si4 0.737415 0.685777 0.577280
Si Si5 0.063735 0.428004 0.049646
Si Si6 0.916988 0.516753 0.775192
Si Si7 0.402561 0.863076 0.704053
Si Si8 0.327201 0.081906 0.825047
O O1 0.371491 0.872086 0.054046
O O2 0.656247 0.893379 0.080316
O O3 0.579415 0.864384 0.932089
O O4 0.500000 0.000000 0.000000
O O5 0.266192 0.246272 0.489336
O O6 0.454385 0.147140 0.555482
O O7 0.181230 0.172032 0.625043
O O8 0.218727 0.095363 0.493181
O O9 0.256361 0.717752 0.328719
O O10 0.055555 0.817276 0.282880
O O11 0.120260 0.441564 0.140902
O O12 0.000000 0.500000 0.000000
O O13 0.750000 0.500000 0.734744
O O14 0.035299 0.449791 0.801801
O O15 0.004237 0.574927 0.714258
O O16 0.279461 0.856409 0.778050
O O17 0.250000 0.000000 0.821243
#
# Coordination Sequence:
#
# PCOD8216910 Si02
#       8
#     8   8   4   8   8   8   8   8
#     4  12  28  53  85 114 152 203 272 340 398 475
#     4  12  25  47  68 108 150 206 242 315 374 480
#     4  12  30  50  76 108 160 208 256 332 410 476
#     4  12  30  52  79 116 156 203 266 319 416 482
#     4  12  23  38  68 102 150 196 257 297 375 446
#     4  11  24  40  70 109 149 193 256 315 373 450
#     4  11  25  47  73 100 155 202 255 308 389 468
#     4  10  24  45  74 110 145 193 258 323 389 453
#
# _framework density 24.213996999999999
#
# number of rings (size 3 to 8) (size 9 to 14) (size 15 to 20)
#    0.000    0.533    2.667    4.800   11.200    0.000 
#    2.400    0.000    0.000    0.000    0.000    0.000 
#    0.000    0.000    0.000    0.000    0.000    0.000 
#
# Total GULP energy -743629.989883 kJ/mol
# GULP energy per Si atom -12393.833165 kJ/mol
# Density = 2.415888 g / cm^3
# Si number density = 24.213997 Si / 1000 Ang^3
#
#
#
# Elastic Constant Matrix: (Units=GPa)
#
#
# Indices 1 2 3 4 5 6 
#
# 1 107.0005 24.1276 30.4741 0.0000 0.0000 0.0000
# 2 24.1276 102.2518 34.6798 0.0000 0.0000 0.0000
# 3 30.4741 34.6798 125.6940 0.0000 0.0000 0.0000
# 4 0.0000 0.0000 0.0000 30.1388 0.0000 0.0000
# 5 0.0000 0.0000 0.0000 0.0000 46.7250 0.0000
# 6 0.0000 0.0000 0.0000 0.0000 0.0000 33.3200
#
#
#
# Elastic Compliance Matrix: (Units=1/GPa)
#
#
# Indices 1 2 3 4 5 6 
#
# 1 0.010315 -0.001749 -0.002018 0.000000 0.000000 0.000000
# 2 -0.001749 0.011086 -0.002635 0.000000 0.000000 0.000000
# 3 -0.002018 -0.002635 0.009172 0.000000 0.000000 0.000000
# 4 0.000000 0.000000 0.000000 0.033180 0.000000 0.000000
# 5 0.000000 0.000000 0.000000 0.000000 0.021402 0.000000
# 6 0.000000 0.000000 0.000000 0.000000 0.000000 0.030012
#
#
# Mechanical properties :
#
#
# Convention : Reuss Voigt Hill
#
# Bulk Modulus (GPa) = 56.27859 57.05661 56.66760
# Shear Modulus (GPa) = 37.34293 38.41441 37.87867
#
# Velocity S-wave (km/s) = 3.93135 3.98735 3.95945
# Velocity P-wave (km/s) = 6.62571 6.69427 6.66008
#
# Compressibility (1/GPa) = 0.01776875
#
# Stress axis : x y z
#
# Youngs Moduli (GPa) = 96.94596 90.20276 109.02716
#
# Poissons Ratio (x) = 0.15781 0.22003
# Poissons Ratio (y) = 0.16961 0.28724
# Poissons Ratio (z) = 0.19565 0.23765
#
# Static dielectric constant tensor:
#      x y z
#    x 4.843990 0.000000 0.000000 
#    y 0.000000 6.223390 0.000000 
#    z 0.000000 0.000000 4.767470 
# 
# 
# High freq. dielectric constant tensor:
#      x y z
#    x 1.973690 0.000000 0.000000 
#    y 0.000000 1.957820 0.000000 
#    z 0.000000 0.000000 1.971130 
# 
# From -- ./inp_files/31479.got.cif
#   From: 2010.06.25/outbox.cif.g09.slc.cpg/sg52_16_cif.got.tgz:31479.got - 2010.06.26 19:32:48.
