data_PCOD8216023
_publ_section_title
;
Structure prediction by ZEFSAII (Michael W. Deem and Ramdas Pophale) SiO2 
 PCOD8216023
Probable space group: P N N A
;
_chemical_formula_sum "Si O2"
_cell_formula_units_Z 52
_cell_length_a 12.698944
_cell_length_b 19.234060
_cell_length_c 9.634447
_cell_angle_alpha 90.000000
_cell_angle_beta 90.000000
_cell_angle_gamma 90.000000
_cell_volume 2353.235365
_symmetry_space_group_name_H-M "P N N A"
_symmetry_group_IT_number 52
_symmetry_cell_setting 'orthorhombic'
loop_
_space_group_symop_operation_xyz
x,y,z
1/2-x,-y,z
x,1/2-y,1/2-z
1/2-x,1/2+y,1/2-z
-x,-y,-z
1/2+x,y,-z
-x,1/2+y,1/2+z
1/2+x,1/2-y,1/2+z
loop_
_atom_site_type_symbol
_atom_site_label
_atom_site_fract_x
_atom_site_fract_y
_atom_site_fract_z
Si Si1 0.408998 0.606705 0.231705
Si Si2 0.995356 0.842166 0.002782
Si Si3 0.382082 0.608735 0.757719
Si Si4 0.250000 0.500000 0.104496
Si Si5 0.372472 0.709070 0.006458
Si Si6 0.086641 0.969602 0.600424
Si Si7 0.798076 0.199390 0.129746
O O1 0.415980 0.618903 0.395966
O O2 0.329319 0.543218 0.201210
O O3 0.365497 0.676647 0.160152
O O4 0.530389 0.593801 0.180293
O O5 0.115796 0.844470 0.954320
O O6 0.969697 0.760905 0.008398
O O7 0.980009 0.877714 0.152845
O O8 0.374664 0.526744 0.786970
O O9 0.275696 0.639211 0.692339
O O10 0.401533 0.646489 0.903273
O O11 0.185042 0.551873 0.999534
O O12 0.265726 0.750319 0.973604
O O13 0.000000 0.000000 0.500000
O O14 0.844903 0.250000 0.250000
#
# Coordination Sequence:
#
# PCOD8216023 Si02
#       7
#     8   8   8   4   8   8   8
#     4  11  23  40  64  95 130 166 217 273 319 387
#     4  11  23  39  63  99 129 165 206 276 340 376
#     4  10  21  43  63  90 131 166 218 262 314 401
#     4  10  22  40  62  94 120 168 220 264 318 380
#     4  10  20  42  64  89 129 167 217 262 311 403
#     4  10  21  41  65  92 119 175 218 261 310 381
#     4   9  20  37  62  94 126 170 210 259 331 391
#
# _framework density 22.097237
#
# number of rings (size 3 to 8) (size 9 to 14) (size 15 to 20)
#    0.000    1.846    3.077    2.769    2.154    1.846 
#   11.077    3.846    0.000    0.000    0.000    0.000 
#    0.000    0.000    0.000    0.000    0.000    0.000 
#
# Total GULP energy -644589.660730 kJ/mol
# GULP energy per Si atom -12395.955014 kJ/mol
# Density = 2.204694 g / cm^3
# Si number density = 22.097237 Si / 1000 Ang^3
#
#
#
# Elastic Constant Matrix: (Units=GPa)
#
#
# Indices 1 2 3 4 5 6 
#
# 1 90.9616 15.4587 22.1164 0.0000 0.0000 0.0000
# 2 15.4587 68.1354 17.4917 0.0000 0.0000 0.0000
# 3 22.1164 17.4917 59.4719 0.0000 0.0000 0.0000
# 4 0.0000 0.0000 0.0000 25.0950 0.0000 0.0000
# 5 0.0000 0.0000 0.0000 0.0000 23.1795 0.0000
# 6 0.0000 0.0000 0.0000 0.0000 0.0000 18.4982
#
#
#
# Elastic Compliance Matrix: (Units=1/GPa)
#
#
# Indices 1 2 3 4 5 6 
#
# 1 0.012275 -0.001745 -0.004052 0.000000 0.000000 0.000000
# 2 -0.001745 0.016123 -0.004093 0.000000 0.000000 0.000000
# 3 -0.004052 -0.004093 0.019525 0.000000 0.000000 0.000000
# 4 0.000000 0.000000 0.000000 0.039849 0.000000 0.000000
# 5 0.000000 0.000000 0.000000 0.000000 0.043142 0.000000
# 6 0.000000 0.000000 0.000000 0.000000 0.000000 0.054059
#
#
# Mechanical properties :
#
#
# Convention : Reuss Voigt Hill
#
# Bulk Modulus (GPa) = 35.53128 36.52250 36.02689
# Shear Modulus (GPa) = 23.34978 24.25467 23.80222
#
# Velocity S-wave (km/s) = 3.25419 3.31665 3.28557
# Velocity P-wave (km/s) = 5.49856 5.58846 5.54369
#
# Compressibility (1/GPa) = 0.02814422
#
# Stress axis : x y z
#
# Youngs Moduli (GPa) = 81.46424 62.02173 51.21557
#
# Poissons Ratio (x) = 0.10822 0.20751
# Poissons Ratio (y) = 0.14215 0.20964
# Poissons Ratio (z) = 0.33007 0.25387
#
# Static dielectric constant tensor:
#      x y z
#    x 4.140920 0.000000 0.000000 
#    y 0.000000 3.979920 0.000000 
#    z 0.000000 0.000000 4.103710 
# 
# 
# High freq. dielectric constant tensor:
#      x y z
#    x 1.866170 0.000000 0.000000 
#    y 0.000000 1.857860 0.000000 
#    z 0.000000 0.000000 1.867840 
# 
# From -- ./inp_files/10716.got.cif
#   From: 2010.06.25/outbox.cif.g09.slc.cpg/sg52_6_cif.got.tgz:10716.got - 2010.06.26 19:32:48.
