data_PCOD8216540
_publ_section_title
;
Structure prediction by ZEFSAII (Michael W. Deem and Ramdas Pophale) SiO2 
 PCOD8216540
Probable space group: P N N A
;
_chemical_formula_sum "Si O2"
_cell_formula_units_Z 48
_cell_length_a 14.794369
_cell_length_b 10.734827
_cell_length_c 15.772339
_cell_angle_alpha 90.000000
_cell_angle_beta 90.000000
_cell_angle_gamma 90.000000
_cell_volume 2504.883889
_symmetry_space_group_name_H-M "P N N A"
_symmetry_group_IT_number 52
_symmetry_cell_setting 'orthorhombic'
loop_
_space_group_symop_operation_xyz
x,y,z
1/2-x,-y,z
x,1/2-y,1/2-z
1/2-x,1/2+y,1/2-z
-x,-y,-z
1/2+x,y,-z
-x,1/2+y,1/2+z
1/2+x,1/2-y,1/2+z
loop_
_atom_site_type_symbol
_atom_site_label
_atom_site_fract_x
_atom_site_fract_y
_atom_site_fract_z
Si Si1 0.972514 0.643118 0.004737
Si Si2 0.304811 0.118405 0.297724
Si Si3 0.631212 0.746896 0.106382
Si Si4 0.503449 0.131140 0.303818
Si Si5 0.150481 0.945062 0.758152
Si Si6 0.266959 0.861874 0.483678
O O1 0.970785 0.678865 0.103007
O O2 0.872184 0.667550 0.970692
O O3 0.000000 0.500000 0.000000
O O4 0.040840 0.726320 0.949191
O O5 0.290157 0.250000 0.250000
O O6 0.406516 0.062890 0.301772
O O7 0.278737 0.148535 0.393275
O O8 0.250000 0.000000 0.258984
O O9 0.629099 0.882007 0.150750
O O10 0.638522 0.647539 0.180636
O O11 0.719544 0.736612 0.046686
O O12 0.485185 0.250000 0.250000
O O13 0.580309 0.054294 0.257347
O O14 0.250000 0.000000 0.760152
O O15 0.250000 0.000000 0.522353
#
# Coordination Sequence:
#
# PCOD8216540 Si02
#       6
#     8   8   8   8   8   8
#     4  12  20  37  65  93 121 159 212 258 303 373
#     4  10  22  40  64  90 122 163 214 258 315 381
#     4  11  23  40  63  97 125 156 219 265 311 377
#     4  11  23  41  65  89 127 170 204 251 324 385
#     4  11  25  40  62  95 128 164 205 266 322 377
#     4  11  20  36  63  90 120 163 205 254 317 373
#
# _framework density 19.162566000000002
#
# number of rings (size 3 to 8) (size 9 to 14) (size 15 to 20)
#    0.000    1.000    5.000    2.500    4.667    1.333 
#    0.000    1.667    0.000    0.000    0.000    0.000 
#    0.000    0.000    0.000    0.000    0.000    0.000 
#
# Total GULP energy -595043.338225 kJ/mol
# GULP energy per Si atom -12396.736213 kJ/mol
# Density = 1.911895 g / cm^3
# Si number density = 19.162566 Si / 1000 Ang^3
#
#
#
# Elastic Constant Matrix: (Units=GPa)
#
#
# Indices 1 2 3 4 5 6 
#
# 1 178.4276 36.9543 38.9791 0.0000 0.0000 0.0000
# 2 36.9543 40.4884 25.7820 0.0000 0.0000 0.0000
# 3 38.9791 25.7820 91.9868 0.0000 0.0000 0.0000
# 4 0.0000 0.0000 0.0000 79.0841 0.0000 0.0000
# 5 0.0000 0.0000 0.0000 0.0000 35.8782 0.0000
# 6 0.0000 0.0000 0.0000 0.0000 0.0000 30.5713
#
#
#
# Elastic Compliance Matrix: (Units=1/GPa)
#
#
# Indices 1 2 3 4 5 6 
#
# 1 0.007065 -0.005529 -0.001444 0.000000 0.000000 0.000000
# 2 -0.005529 0.034391 -0.007296 0.000000 0.000000 0.000000
# 3 -0.001444 -0.007296 0.013528 0.000000 0.000000 0.000000
# 4 0.000000 0.000000 0.000000 0.012645 0.000000 0.000000
# 5 0.000000 0.000000 0.000000 0.000000 0.027872 0.000000
# 6 0.000000 0.000000 0.000000 0.000000 0.000000 0.032710
#
#
# Mechanical properties :
#
#
# Convention : Reuss Voigt Hill
#
# Bulk Modulus (GPa) = 37.81366 57.14819 47.48092
# Shear Modulus (GPa) = 30.19972 43.05256 36.62614
#
# Velocity S-wave (km/s) = 3.97416 4.74508 4.37663
# Velocity P-wave (km/s) = 6.39019 7.74007 7.09729
#
# Compressibility (1/GPa) = 0.02644547
#
# Stress axis : x y z
#
# Youngs Moduli (GPa) = 141.54123 29.07768 73.92037
#
# Poissons Ratio (x) = 0.16076 0.10676
# Poissons Ratio (y) = 0.78255 0.53934
# Poissons Ratio (z) = 0.20441 0.21216
#
# Static dielectric constant tensor:
#      x y z
#    x 3.890690 0.000000 0.000000 
#    y 0.000000 3.512100 0.000000 
#    z 0.000000 0.000000 3.617550 
# 
# 
# High freq. dielectric constant tensor:
#      x y z
#    x 1.768520 0.000000 0.000000 
#    y 0.000000 1.717600 0.000000 
#    z 0.000000 0.000000 1.755190 
# 
# From -- ./inp_files/27170.got.cif
#   From: 2010.06.25/outbox.cif.g09.slc.cpg/sg52_14_cif.got.tgz:27170.got - 2010.06.26 19:32:48.
