data_PCOD8216665
_publ_section_title
;
Structure prediction by ZEFSAII (Michael W. Deem and Ramdas Pophale) SiO2 
 PCOD8216665
Probable space group: P N N A
;
_chemical_formula_sum "Si O2"
_cell_formula_units_Z 60
_cell_length_a 5.548761
_cell_length_b 23.057101
_cell_length_c 21.432772
_cell_angle_alpha 90.000000
_cell_angle_beta 90.000000
_cell_angle_gamma 90.000000
_cell_volume 2742.073331
_symmetry_space_group_name_H-M "P N N A"
_symmetry_group_IT_number 52
_symmetry_cell_setting 'orthorhombic'
loop_
_space_group_symop_operation_xyz
x,y,z
1/2-x,-y,z
x,1/2-y,1/2-z
1/2-x,1/2+y,1/2-z
-x,-y,-z
1/2+x,y,-z
-x,1/2+y,1/2+z
1/2+x,1/2-y,1/2+z
loop_
_atom_site_type_symbol
_atom_site_label
_atom_site_fract_x
_atom_site_fract_y
_atom_site_fract_z
Si Si1 0.187538 0.134494 0.464505
Si Si2 0.829785 0.181416 0.248197
Si Si3 0.575747 0.406702 0.831540
Si Si4 0.548273 0.596374 0.728832
Si Si5 0.886679 0.636051 0.629973
Si Si6 0.000689 0.977697 0.928991
Si Si7 0.192598 0.269384 0.465323
Si Si8 0.250000 0.000000 0.719965
O O1 0.440703 0.118313 0.498272
O O2 0.181094 0.099034 0.400588
O O3 0.192086 0.202156 0.448149
O O4 0.849662 0.250000 0.250000
O O5 0.554036 0.160148 0.247538
O O6 0.954216 0.154052 0.309551
O O7 0.935150 0.154818 0.184776
O O8 0.781094 0.423795 0.783971
O O9 0.403412 0.462287 0.828815
O O10 0.666772 0.600922 0.661103
O O11 0.356641 0.544721 0.729102
O O12 0.789329 0.693863 0.597614
O O13 0.006800 0.592561 0.579251
O O14 0.250000 0.000000 0.897392
O O15 0.750000 0.000000 0.897347
O O16 0.000000 0.000000 0.000000
O O17 0.435982 0.285492 0.503002
#
# Coordination Sequence:
#
# PCOD8216665 Si02
#       8
#     8   8   8   8   8   8   8   4
#     4  10  23  43  69 107 138 179 223 272 341 421
#     4  10  23  41  66 101 133 172 226 290 351 415
#     4  10  22  43  69  93 137 175 220 282 345 413
#     4  10  24  42  67 101 130 177 226 290 344 418
#     4  11  25  42  68  95 132 178 240 283 351 410
#     4  10  25  43  64  90 130 180 229 288 340 393
#     4  10  24  41  68  96 138 181 226 281 343 414
#     4  10  22  44  70  96 132 174 224 276 364 396
#
# _framework density 21.881254999999999
#
# number of rings (size 3 to 8) (size 9 to 14) (size 15 to 20)
#    0.000    1.867    0.000    1.200   11.200    6.400 
#    4.800    0.667    0.000    0.000    0.000    0.000 
#    0.000    0.000    0.000    0.000    0.000    0.000 
#
# Total GULP energy -743430.579410 kJ/mol
# GULP energy per Si atom -12390.509657 kJ/mol
# Density = 2.183145 g / cm^3
# Si number density = 21.881255 Si / 1000 Ang^3
#
#
#
# Elastic Constant Matrix: (Units=GPa)
#
#
# Indices 1 2 3 4 5 6 
#
# 1 125.2914 14.8452 17.3455 0.0000 0.0000 0.0000
# 2 14.8452 81.8283 10.9388 0.0000 0.0000 0.0000
# 3 17.3455 10.9388 90.1351 0.0000 0.0000 0.0000
# 4 0.0000 0.0000 0.0000 24.9371 0.0000 0.0000
# 5 0.0000 0.0000 0.0000 0.0000 -6.6835 0.0000
# 6 0.0000 0.0000 0.0000 0.0000 0.0000 12.4992
#
#
#
# Elastic Compliance Matrix: (Units=1/GPa)
#
#
# Indices 1 2 3 4 5 6 
#
# 1 0.008338 -0.001320 -0.001444 0.000000 0.000000 0.000000
# 2 -0.001320 0.012631 -0.001279 0.000000 0.000000 0.000000
# 3 -0.001444 -0.001279 0.011528 0.000000 0.000000 0.000000
# 4 0.000000 0.000000 0.000000 0.040101 0.000000 0.000000
# 5 0.000000 0.000000 0.000000 0.000000 -0.149623 0.000000
# 6 0.000000 0.000000 0.000000 0.000000 0.000000 0.080005
#
#
# Mechanical properties :
#
#
# Convention : Reuss Voigt Hill
#
# Bulk Modulus (GPa) = 40.96572 42.61264 41.78918
# Shear Modulus (GPa) = 260.39155 23.09226 141.74191
#
# Velocity S-wave (km/s) = 10.92064 3.25213 8.05720
# Velocity P-wave (km/s) = 13.33328 5.79815 10.28093
#
# Compressibility (1/GPa) = 0.02441065
#
# Stress axis : x y z
#
# Youngs Moduli (GPa) = 119.93718 79.16985 86.74816
#
# Poissons Ratio (x) = 0.10447 0.12530
# Poissons Ratio (y) = 0.15826 0.11095
# Poissons Ratio (z) = 0.17323 0.10126
#
# Static dielectric constant tensor:
#      x y z
#    x 4.566360 0.000000 0.000000 
#    y 0.000000 3.876820 0.000000 
#    z 0.000000 0.000000 3.673640 
# 
# 
# High freq. dielectric constant tensor:
#      x y z
#    x 1.875260 0.000000 0.000000 
#    y 0.000000 1.863280 0.000000 
#    z 0.000000 0.000000 1.845410 
# 
# From -- ./inp_files/38881.got.cif
#   From: 2010.06.25/outbox.cif.g09.slc.cpg/sg52_20_cif.got.tgz:38881.got - 2010.06.26 19:32:48.
