data_PCOD8216200
_publ_section_title
;
Structure prediction by ZEFSAII (Michael W. Deem and Ramdas Pophale) SiO2 
 PCOD8216200
Probable space group: P N N A
;
_chemical_formula_sum "Si O2"
_cell_formula_units_Z 56
_cell_length_a 21.746695
_cell_length_b 11.044892
_cell_length_c 10.815783
_cell_angle_alpha 90.000000
_cell_angle_beta 90.000000
_cell_angle_gamma 90.000000
_cell_volume 2597.841812
_symmetry_space_group_name_H-M "P N N A"
_symmetry_group_IT_number 52
_symmetry_cell_setting 'orthorhombic'
loop_
_space_group_symop_operation_xyz
x,y,z
1/2-x,-y,z
x,1/2-y,1/2-z
1/2-x,1/2+y,1/2-z
-x,-y,-z
1/2+x,y,-z
-x,1/2+y,1/2+z
1/2+x,1/2-y,1/2+z
loop_
_atom_site_type_symbol
_atom_site_label
_atom_site_fract_x
_atom_site_fract_y
_atom_site_fract_z
Si Si1 0.594087 0.504412 0.452186
Si Si2 0.581151 0.884483 0.292001
Si Si3 0.220489 0.346419 0.094204
Si Si4 0.152342 0.939923 0.471900
Si Si5 0.005304 0.675296 0.422216
Si Si6 0.027573 0.928915 0.338269
Si Si7 0.694684 0.081904 0.871940
O O1 0.618717 0.543411 0.316489
O O2 0.563754 0.372085 0.438123
O O3 0.545814 0.614262 0.471047
O O4 0.638132 0.492109 0.569752
O O5 0.561110 0.750000 0.250000
O O6 0.629068 0.874700 0.404544
O O7 0.520477 0.959473 0.337640
O O8 0.186560 0.433150 0.995262
O O9 0.295102 0.355146 0.091998
O O10 0.200653 0.211511 0.062258
O O11 0.193931 0.396151 0.225254
O O12 0.095589 0.968428 0.380007
O O13 0.004702 0.821300 0.431179
O O14 0.034700 0.628287 0.295598
O O15 0.750000 0.000000 0.914450
#
# Coordination Sequence:
#
# PCOD8216200 Si02
#       7
#     8   8   8   8   8   8   8
#     4  10  22  41  62  94 132 165 213 271 319 392
#     4  11  25  42  61  98 134 175 220 262 324 405
#     4  10  25  44  64 100 125 165 223 272 327 392
#     4  11  22  44  65  89 135 177 214 273 322 381
#     4   9  20  37  65  94 125 165 215 271 329 386
#     4  10  21  38  67  94 122 173 216 264 337 380
#     4  11  23  42  69  96 127 159 216 274 329 384
#
# _framework density 21.556355
#
# number of rings (size 3 to 8) (size 9 to 14) (size 15 to 20)
#    0.000    1.714    1.429    2.143    6.000    1.143 
#   10.286    0.000    0.000    0.000    0.000    0.000 
#    0.000    0.000    0.000    0.000    0.000    0.000 
#
# Total GULP energy -693827.247270 kJ/mol
# GULP energy per Si atom -12389.772273 kJ/mol
# Density = 2.150729 g / cm^3
# Si number density = 21.556355 Si / 1000 Ang^3
#
#
#
# Elastic Constant Matrix: (Units=GPa)
#
#
# Indices 1 2 3 4 5 6 
#
# 1 101.6904 46.5403 44.0045 0.0000 0.0000 0.0000
# 2 46.5403 139.5618 16.2954 0.0000 0.0000 0.0000
# 3 44.0045 16.2954 80.4107 0.0000 0.0000 0.0000
# 4 0.0000 0.0000 0.0000 34.7228 0.0000 0.0000
# 5 0.0000 0.0000 0.0000 0.0000 -0.3569 0.0000
# 6 0.0000 0.0000 0.0000 0.0000 0.0000 23.8987
#
#
#
# Elastic Compliance Matrix: (Units=1/GPa)
#
#
# Indices 1 2 3 4 5 6 
#
# 1 0.014876 -0.004108 -0.007309 0.000000 0.000000 0.000000
# 2 -0.004108 0.008473 0.000531 0.000000 0.000000 0.000000
# 3 -0.007309 0.000531 0.016328 0.000000 0.000000 0.000000
# 4 0.000000 0.000000 0.000000 0.028800 0.000000 0.000000
# 5 0.000000 0.000000 0.000000 0.000000 -2.801622 0.000000
# 6 0.000000 0.000000 0.000000 0.000000 0.000000 0.041843
#
#
# Mechanical properties :
#
#
# Convention : Reuss Voigt Hill
#
# Bulk Modulus (GPa) = 55.84468 59.48261 57.66364
# Shear Modulus (GPa) = -1.87719 25.97443 12.04862
#
# Velocity S-wave (km/s) = -0.93419 3.47501 2.36675
# Velocity P-wave (km/s) = 4.97986 6.61474 5.85465
#
# Compressibility (1/GPa) = 0.01790681
#
# Stress axis : x y z
#
# Youngs Moduli (GPa) = 67.22101 118.02108 61.24369
#
# Poissons Ratio (x) = 0.48477 0.44761
# Poissons Ratio (y) = 0.27611 -0.03250
# Poissons Ratio (z) = 0.49129 -0.06264
#
# Static dielectric constant tensor:
#      x y z
#    x 3.764800 0.000000 0.000000 
#    y 0.000000 4.136310 0.000000 
#    z 0.000000 0.000000 3.922300 
# 
# 
# High freq. dielectric constant tensor:
#      x y z
#    x 1.828180 0.000000 0.000000 
#    y 0.000000 1.858670 0.000000 
#    z 0.000000 0.000000 1.841660 
# 
# From -- ./inp_files/21675.got.cif
#   From: 2010.06.25/outbox.cif.g09.slc.cpg/sg52_11_cif.got.tgz:21675.got - 2010.06.26 19:32:48.
