data_PCOD8216154
_publ_section_title
;
Structure prediction by ZEFSAII (Michael W. Deem and Ramdas Pophale) SiO2 
 PCOD8216154
Probable space group: P N N A
;
_chemical_formula_sum "Si O2"
_cell_formula_units_Z 48
_cell_length_a 11.703984
_cell_length_b 8.303031
_cell_length_c 25.167857
_cell_angle_alpha 90.000000
_cell_angle_beta 90.000000
_cell_angle_gamma 90.000000
_cell_volume 2445.775648
_symmetry_space_group_name_H-M "P N N A"
_symmetry_group_IT_number 52
_symmetry_cell_setting 'orthorhombic'
loop_
_space_group_symop_operation_xyz
x,y,z
1/2-x,-y,z
x,1/2-y,1/2-z
1/2-x,1/2+y,1/2-z
-x,-y,-z
1/2+x,y,-z
-x,1/2+y,1/2+z
1/2+x,1/2-y,1/2+z
loop_
_atom_site_type_symbol
_atom_site_label
_atom_site_fract_x
_atom_site_fract_y
_atom_site_fract_z
Si Si1 0.042105 0.074995 0.374292
Si Si2 0.347870 0.276684 0.568864
Si Si3 0.599216 0.139332 0.092079
Si Si4 0.021758 0.770005 0.310680
Si Si5 0.724584 0.313830 0.804559
Si Si6 0.065379 0.633979 0.031790
O O1 0.130979 0.207753 0.351523
O O2 0.931657 0.160166 0.398571
O O3 0.998958 0.955454 0.327701
O O4 0.112316 0.960106 0.416149
O O5 0.394348 0.457109 0.572518
O O6 0.221340 0.270044 0.592738
O O7 0.341293 0.216967 0.507066
O O8 0.549351 0.148948 0.151792
O O9 0.519828 0.226305 0.049658
O O10 0.980770 0.750000 0.250000
O O11 0.156323 0.722308 0.316761
O O12 0.750000 0.500000 0.796777
O O13 0.669488 0.250000 0.750000
O O14 0.000000 0.500000 0.000000
#
# Coordination Sequence:
#
# PCOD8216154 Si02
#       6
#     8   8   8   8   8   8
#     4   9  19  35  57  87 109 150 194 227 282 348
#     4  10  21  38  57  81 116 148 187 241 285 334
#     4  10  21  39  57  82 114 149 190 234 289 340
#     4   9  19  37  57  80 116 153 186 233 284 338
#     4   9  18  34  55  82 115 146 184 229 282 333
#     4   9  19  37  57  80 107 148 185 235 278 336
#
# _framework density 19.625677
#
# number of rings (size 3 to 8) (size 9 to 14) (size 15 to 20)
#    0.000    2.667    0.000    0.500    0.000   10.000 
#   27.000    4.167    0.000    0.000    0.000    0.000 
#    0.000    0.000    0.000    0.000    0.000    0.000 
#
# Total GULP energy -594828.633690 kJ/mol
# GULP energy per Si atom -12392.263202 kJ/mol
# Density = 1.958101 g / cm^3
# Si number density = 19.625677 Si / 1000 Ang^3
#
#
#
# Elastic Constant Matrix: (Units=GPa)
#
#
# Indices 1 2 3 4 5 6 
#
# 1 85.0050 24.1391 60.3794 0.0000 0.0000 0.0000
# 2 24.1391 49.6911 45.8163 0.0000 0.0000 0.0000
# 3 60.3794 45.8163 149.0991 0.0000 0.0000 0.0000
# 4 0.0000 0.0000 0.0000 36.0466 0.0000 0.0000
# 5 0.0000 0.0000 0.0000 0.0000 25.0672 0.0000
# 6 0.0000 0.0000 0.0000 0.0000 0.0000 26.8720
#
#
#
# Elastic Compliance Matrix: (Units=1/GPa)
#
#
# Indices 1 2 3 4 5 6 
#
# 1 0.016757 -0.002628 -0.005978 0.000000 0.000000 0.000000
# 2 -0.002628 0.028492 -0.007691 0.000000 0.000000 0.000000
# 3 -0.005978 -0.007691 0.011491 0.000000 0.000000 0.000000
# 4 0.000000 0.000000 0.000000 0.027742 0.000000 0.000000
# 5 0.000000 0.000000 0.000000 0.000000 0.039893 0.000000
# 6 0.000000 0.000000 0.000000 0.000000 0.000000 0.037213
#
#
# Mechanical properties :
#
#
# Convention : Reuss Voigt Hill
#
# Bulk Modulus (GPa) = 41.41550 60.49610 50.95580
# Shear Modulus (GPa) = 24.72413 27.82786 26.27600
#
# Velocity S-wave (km/s) = 3.55320 3.76963 3.66301
# Velocity P-wave (km/s) = 6.16296 7.05965 6.62649
#
# Compressibility (1/GPa) = 0.02414555
#
# Stress axis : x y z
#
# Youngs Moduli (GPa) = 59.67770 35.09715 87.02254
#
# Poissons Ratio (x) = 0.09224 0.52024
# Poissons Ratio (y) = 0.15684 0.66930
# Poissons Ratio (z) = 0.35677 0.26993
#
# Static dielectric constant tensor:
#      x y z
#    x 4.589930 0.000000 0.000000 
#    y 0.000000 3.597190 0.000000 
#    z 0.000000 0.000000 4.097090 
# 
# 
# High freq. dielectric constant tensor:
#      x y z
#    x 1.745570 0.000000 0.000000 
#    y 0.000000 1.761700 0.000000 
#    z 0.000000 0.000000 1.773540 
# 
# From -- ./inp_files/42676.got.cif
#   From: 2010.06.25/outbox.cif.g09.slc.cpg/sg52_22_cif.got.tgz:42676.got - 2010.06.26 19:32:48.
