data_PCOD8216899
_publ_section_title
;
Structure prediction by ZEFSAII (Michael W. Deem and Ramdas Pophale) SiO2 
 PCOD8216899
Probable space group: P N N A
;
_chemical_formula_sum "Si O2"
_cell_formula_units_Z 32
_cell_length_a 15.834814
_cell_length_b 8.468604
_cell_length_c 10.333291
_cell_angle_alpha 90.000000
_cell_angle_beta 90.000000
_cell_angle_gamma 90.000000
_cell_volume 1385.681605
_symmetry_space_group_name_H-M "P N N A"
_symmetry_group_IT_number 52
_symmetry_cell_setting 'orthorhombic'
loop_
_space_group_symop_operation_xyz
x,y,z
1/2-x,-y,z
x,1/2-y,1/2-z
1/2-x,1/2+y,1/2-z
-x,-y,-z
1/2+x,y,-z
-x,1/2+y,1/2+z
1/2+x,1/2-y,1/2+z
loop_
_atom_site_type_symbol
_atom_site_label
_atom_site_fract_x
_atom_site_fract_y
_atom_site_fract_z
Si Si1 0.917161 0.436809 0.931425
Si Si2 0.088395 0.914040 0.982141
Si Si3 0.826825 0.250000 0.250000
Si Si4 0.662772 0.070648 0.792011
Si Si5 0.250000 0.500000 0.927785
O O1 0.915828 0.483410 0.780166
O O2 0.911682 0.250034 0.941392
O O3 0.835052 0.526312 0.990114
O O4 0.000000 0.500000 0.000000
O O5 0.114705 0.873187 0.833394
O O6 0.154026 0.033122 0.054269
O O7 0.000000 0.000000 0.000000
O O8 0.764319 0.344711 0.157789
O O9 0.658946 0.250000 0.750000
O O10 0.750000 0.000000 0.740023
#
# Coordination Sequence:
#
# PCOD8216899 Si02
#       5
#     8   8   4   8   4
#     4  11  24  46  71 105 146 195 245 311 378 455
#     4  11  26  45  72 106 150 192 254 313 378 464
#     4  10  26  46  70 108 144 200 252 304 390 454
#     4  12  26  45  74 108 148 195 255 318 388 459
#     4  10  24  44  70  96 154 182 248 306 366 454
#
# _framework density 23.093326999999999
#
# number of rings (size 3 to 8) (size 9 to 14) (size 15 to 20)
#    0.000    1.000    1.250    3.750   14.000    2.000 
#    0.000    0.000    0.000    0.000    0.000    0.000 
#    0.000    0.000    0.000    0.000    0.000    0.000 
#
# Total GULP energy -396601.491818 kJ/mol
# GULP energy per Si atom -12393.796619 kJ/mol
# Density = 2.304077 g / cm^3
# Si number density = 23.093327 Si / 1000 Ang^3
#
#
#
# Elastic Constant Matrix: (Units=GPa)
#
#
# Indices 1 2 3 4 5 6 
#
# 1 147.0808 42.0565 47.7864 0.0000 0.0000 0.0000
# 2 42.0565 132.0876 47.5773 0.0000 0.0000 0.0000
# 3 47.7864 47.5773 118.8614 0.0000 0.0000 0.0000
# 4 0.0000 0.0000 0.0000 57.0781 0.0000 0.0000
# 5 0.0000 0.0000 0.0000 0.0000 30.8271 0.0000
# 6 0.0000 0.0000 0.0000 0.0000 0.0000 43.5797
#
#
#
# Elastic Compliance Matrix: (Units=1/GPa)
#
#
# Indices 1 2 3 4 5 6 
#
# 1 0.008116 -0.001646 -0.002604 0.000000 0.000000 0.000000
# 2 -0.001646 0.009180 -0.003013 0.000000 0.000000 0.000000
# 3 -0.002604 -0.003013 0.010666 0.000000 0.000000 0.000000
# 4 0.000000 0.000000 0.000000 0.017520 0.000000 0.000000
# 5 0.000000 0.000000 0.000000 0.000000 0.032439 0.000000
# 6 0.000000 0.000000 0.000000 0.000000 0.000000 0.022946
#
#
# Mechanical properties :
#
#
# Convention : Reuss Voigt Hill
#
# Bulk Modulus (GPa) = 74.42605 74.76337 74.59471
# Shear Modulus (GPa) = 41.71142 43.67093 42.69118
#
# Velocity S-wave (km/s) = 4.25456 4.35335 4.30424
# Velocity P-wave (km/s) = 7.51222 7.59695 7.55470
#
# Compressibility (1/GPa) = 0.01343616
#
# Stress axis : x y z
#
# Youngs Moduli (GPa) = 123.21831 108.93205 93.75638
#
# Poissons Ratio (x) = 0.17931 0.24413
# Poissons Ratio (y) = 0.20283 0.28246
# Poissons Ratio (z) = 0.32085 0.32819
#
# Static dielectric constant tensor:
#      x y z
#    x 4.101550 0.000000 0.000000 
#    y 0.000000 4.262970 0.000000 
#    z 0.000000 0.000000 4.629500 
# 
# 
# High freq. dielectric constant tensor:
#      x y z
#    x 1.910590 0.000000 0.000000 
#    y 0.000000 1.918030 0.000000 
#    z 0.000000 0.000000 1.927920 
# 
# From -- ./inp_files/18947.got.cif
#   From: 2010.06.25/outbox.cif.g09.slc.cpg/sg52_10_cif.got.tgz:18947.got - 2010.06.26 19:32:48.
