data_PCOD8216448
_publ_section_title
;
Structure prediction by ZEFSAII (Michael W. Deem and Ramdas Pophale) SiO2 
 PCOD8216448
Probable space group: P N N A
;
_chemical_formula_sum "Si O2"
_cell_formula_units_Z 64
_cell_length_a 12.183427
_cell_length_b 14.609724
_cell_length_c 18.249773
_cell_angle_alpha 90.000000
_cell_angle_beta 90.000000
_cell_angle_gamma 90.000000
_cell_volume 3248.395826
_symmetry_space_group_name_H-M "P N N A"
_symmetry_group_IT_number 52
_symmetry_cell_setting 'orthorhombic'
loop_
_space_group_symop_operation_xyz
x,y,z
1/2-x,-y,z
x,1/2-y,1/2-z
1/2-x,1/2+y,1/2-z
-x,-y,-z
1/2+x,y,-z
-x,1/2+y,1/2+z
1/2+x,1/2-y,1/2+z
loop_
_atom_site_type_symbol
_atom_site_label
_atom_site_fract_x
_atom_site_fract_y
_atom_site_fract_z
Si Si1 0.324770 0.081004 0.580157
Si Si2 0.648191 0.267583 0.083907
Si Si3 0.287097 0.397233 0.323066
Si Si4 0.986931 0.505504 0.186136
Si Si5 0.573877 0.873060 0.567054
Si Si6 0.973714 0.660588 0.296710
Si Si7 0.626342 0.160606 0.711109
Si Si8 0.786179 0.752600 0.577098
O O1 0.255672 0.171530 0.603168
O O2 0.415134 0.095202 0.516822
O O3 0.250000 0.000000 0.547607
O O4 0.383247 0.045511 0.652315
O O5 0.545187 0.333178 0.081669
O O6 0.621183 0.186232 0.142865
O O7 0.666744 0.229152 0.002598
O O8 0.250000 0.500000 0.333265
O O9 0.416415 0.379432 0.334076
O O10 0.248419 0.358069 0.243977
O O11 0.219593 0.345234 0.385360
O O12 0.075125 0.545198 0.126848
O O13 0.053618 0.428012 0.230144
O O14 0.934762 0.581379 0.240712
O O15 0.666596 0.797897 0.579199
O O16 0.003056 0.750000 0.250000
O O17 0.573692 0.250000 0.750000
O O18 0.634261 0.179673 0.623651
#
# Coordination Sequence:
#
# PCOD8216448 Si02
#       8
#     8   8   8   8   8   8   8   8
#     4  11  23  37  56  90 127 162 209 253 317 384
#     4  11  23  40  59  88 124 173 206 258 313 376
#     4  11  20  37  64  95 123 158 209 269 318 377
#     4  12  22  37  63  92 127 165 209 261 318 383
#     4  11  21  34  61  89 122 163 201 260 318 384
#     4  12  21  39  64  91 127 167 213 259 319 381
#     4  10  22  37  59  95 130 158 197 264 327 368
#     4  10  22  37  59  90 129 159 207 257 321 381
#
# _framework density 19.702033
#
# number of rings (size 3 to 8) (size 9 to 14) (size 15 to 20)
#    0.000    1.000    5.000    3.000    3.500    0.000 
#    0.000    2.500    0.000    2.250    0.000    0.000 
#    0.000    0.000    0.000    0.000    0.000    0.000 
#
# Total GULP energy -793161.952849 kJ/mol
# GULP energy per Si atom -12393.155513 kJ/mol
# Density = 1.965719 g / cm^3
# Si number density = 19.702033 Si / 1000 Ang^3
#
#
#
# Elastic Constant Matrix: (Units=GPa)
#
#
# Indices 1 2 3 4 5 6 
#
# 1 53.1181 33.2649 46.8145 0.0000 0.0000 0.0000
# 2 33.2649 121.1473 64.6330 0.0000 0.0000 0.0000
# 3 46.8145 64.6330 125.3245 0.0000 0.0000 0.0000
# 4 0.0000 0.0000 0.0000 31.5619 0.0000 0.0000
# 5 0.0000 0.0000 0.0000 0.0000 19.8453 0.0000
# 6 0.0000 0.0000 0.0000 0.0000 0.0000 28.1207
#
#
#
# Elastic Compliance Matrix: (Units=1/GPa)
#
#
# Indices 1 2 3 4 5 6 
#
# 1 0.028832 -0.002995 -0.009226 0.000000 0.000000 0.000000
# 2 -0.002995 0.011699 -0.004915 0.000000 0.000000 0.000000
# 3 -0.009226 -0.004915 0.013960 0.000000 0.000000 0.000000
# 4 0.000000 0.000000 0.000000 0.031684 0.000000 0.000000
# 5 0.000000 0.000000 0.000000 0.000000 0.050390 0.000000
# 6 0.000000 0.000000 0.000000 0.000000 0.000000 0.035561
#
#
# Mechanical properties :
#
#
# Convention : Reuss Voigt Hill
#
# Bulk Modulus (GPa) = 49.45392 65.44608 57.45000
# Shear Modulus (GPa) = 23.45915 26.23073 24.84494
#
# Velocity S-wave (km/s) = 3.45439 3.65276 3.55496
# Velocity P-wave (km/s) = 6.40826 7.14704 6.78771
#
# Compressibility (1/GPa) = 0.02022084
#
# Stress axis : x y z
#
# Youngs Moduli (GPa) = 34.68324 85.47926 71.63279
#
# Poissons Ratio (x) = 0.25600 0.66086
# Poissons Ratio (y) = 0.10387 0.35205
# Poissons Ratio (z) = 0.31998 0.42010
#
# Static dielectric constant tensor:
#      x y z
#    x 3.513220 0.000000 0.000000 
#    y 0.000000 3.701130 0.000000 
#    z 0.000000 0.000000 3.797670 
# 
# 
# High freq. dielectric constant tensor:
#      x y z
#    x 1.752390 0.000000 0.000000 
#    y 0.000000 1.768340 0.000000 
#    z 0.000000 0.000000 1.763340 
# 
# From -- ./inp_files/32405.got.cif
#   From: 2010.06.25/outbox.cif.g09.slc.cpg/sg52_17_cif.got.tgz:32405.got - 2010.06.26 19:32:48.
