data_PCOD8217183
_publ_section_title
;
Structure prediction by ZEFSAII (Michael W. Deem and Ramdas Pophale) SiO2 
 PCOD8217183
Probable space group: P N N A
;
_chemical_formula_sum "Si O2"
_cell_formula_units_Z 32
_cell_length_a 4.854216
_cell_length_b 16.463974
_cell_length_c 18.410549
_cell_angle_alpha 90.000000
_cell_angle_beta 90.000000
_cell_angle_gamma 90.000000
_cell_volume 1471.365295
_symmetry_space_group_name_H-M "P N N A"
_symmetry_group_IT_number 52
_symmetry_cell_setting 'orthorhombic'
loop_
_space_group_symop_operation_xyz
x,y,z
1/2-x,-y,z
x,1/2-y,1/2-z
1/2-x,1/2+y,1/2-z
-x,-y,-z
1/2+x,y,-z
-x,1/2+y,1/2+z
1/2+x,1/2-y,1/2+z
loop_
_atom_site_type_symbol
_atom_site_label
_atom_site_fract_x
_atom_site_fract_y
_atom_site_fract_z
Si Si1 0.167874 0.411085 0.776571
Si Si2 0.377177 0.284166 0.453281
Si Si3 0.008278 0.446868 0.619310
Si Si4 0.818016 0.688425 0.814186
O O1 0.250000 0.500000 0.805011
O O2 0.163081 0.407420 0.688822
O O3 0.367721 0.341099 0.808155
O O4 0.865803 0.392115 0.806627
O O5 0.690713 0.265497 0.475804
O O6 0.376671 0.379132 0.432391
O O7 0.254361 0.229929 0.389777
O O8 0.250000 0.500000 0.579237
O O9 0.750000 0.500000 0.646749
O O10 0.743210 0.750000 0.750000
#
# Coordination Sequence:
#
# PCOD8217183 Si02
#       4
#     8   8   8   8
#     4  11  23  40  69 100 130 163 221 283 333 379
#     4  12  27  43  64  97 140 182 220 267 332 397
#     4  11  23  40  65  98 138 177 218 263 329 409
#     4  12  24  42  70  96 129 175 224 275 326 383
#
# _framework density 21.74851
#
# number of rings (size 3 to 8) (size 9 to 14) (size 15 to 20)
#    0.000    0.500    2.500    7.500    3.500    3.000 
#    0.000    0.000    0.000   15.000    0.000    0.000 
#    0.000    0.000    0.000    0.000    0.000    0.000 
#
# Total GULP energy -396812.377183 kJ/mol
# GULP energy per Si atom -12400.386787 kJ/mol
# Density = 2.169901 g / cm^3
# Si number density = 21.748510 Si / 1000 Ang^3
#
#
#
# Elastic Constant Matrix: (Units=GPa)
#
#
# Indices 1 2 3 4 5 6 
#
# 1 99.3709 23.3651 10.8643 0.0000 0.0000 0.0000
# 2 23.3651 80.5252 29.3211 0.0000 0.0000 0.0000
# 3 10.8643 29.3211 72.7084 0.0000 0.0000 0.0000
# 4 0.0000 0.0000 0.0000 20.9398 0.0000 0.0000
# 5 0.0000 0.0000 0.0000 0.0000 38.0237 0.0000
# 6 0.0000 0.0000 0.0000 0.0000 0.0000 36.1690
#
#
#
# Elastic Compliance Matrix: (Units=1/GPa)
#
#
# Indices 1 2 3 4 5 6 
#
# 1 0.010811 -0.002987 -0.000411 0.000000 0.000000 0.000000
# 2 -0.002987 0.015381 -0.005756 0.000000 0.000000 0.000000
# 3 -0.000411 -0.005756 0.016136 0.000000 0.000000 0.000000
# 4 0.000000 0.000000 0.000000 0.047756 0.000000 0.000000
# 5 0.000000 0.000000 0.000000 0.000000 0.026299 0.000000
# 6 0.000000 0.000000 0.000000 0.000000 0.000000 0.027648
#
#
# Mechanical properties :
#
#
# Convention : Reuss Voigt Hill
#
# Bulk Modulus (GPa) = 41.63289 42.18950 41.91119
# Shear Modulus (GPa) = 29.35188 31.63010 30.49099
#
# Velocity S-wave (km/s) = 3.67768 3.81774 3.74837
# Velocity P-wave (km/s) = 6.10067 6.23494 6.16817
#
# Compressibility (1/GPa) = 0.02401947
#
# Stress axis : x y z
#
# Youngs Moduli (GPa) = 92.50180 65.01401 61.97199
#
# Poissons Ratio (x) = 0.19421 0.02545
# Poissons Ratio (y) = 0.27633 0.35674
# Poissons Ratio (z) = 0.03799 0.37425
#
# Static dielectric constant tensor:
#      x y z
#    x 4.099120 0.000000 0.000000 
#    y 0.000000 4.016390 0.000000 
#    z 0.000000 0.000000 3.652350 
# 
# 
# High freq. dielectric constant tensor:
#      x y z
#    x 1.880750 0.000000 0.000000 
#    y 0.000000 1.850480 0.000000 
#    z 0.000000 0.000000 1.829350 
# 
# From -- ./inp_files/30025.got.cif
#   From: 2010.06.25/outbox.cif.g09.slc.cpg/sg52_16_cif.got.tgz:30025.got - 2010.06.26 19:32:48.
