data_PCOD8217286
_publ_section_title
;
Structure prediction by ZEFSAII (Michael W. Deem and Ramdas Pophale) SiO2 
 PCOD8217286
Probable space group: P N N A
;
_chemical_formula_sum "Si O2"
_cell_formula_units_Z 60
_cell_length_a 9.740741
_cell_length_b 16.878001
_cell_length_c 16.839334
_cell_angle_alpha 90.000000
_cell_angle_beta 90.000000
_cell_angle_gamma 90.000000
_cell_volume 2768.457847
_symmetry_space_group_name_H-M "P N N A"
_symmetry_group_IT_number 52
_symmetry_cell_setting 'orthorhombic'
loop_
_space_group_symop_operation_xyz
x,y,z
1/2-x,-y,z
x,1/2-y,1/2-z
1/2-x,1/2+y,1/2-z
-x,-y,-z
1/2+x,y,-z
-x,1/2+y,1/2+z
1/2+x,1/2-y,1/2+z
loop_
_atom_site_type_symbol
_atom_site_label
_atom_site_fract_x
_atom_site_fract_y
_atom_site_fract_z
Si Si1 0.250000 0.000000 0.512482
Si Si2 0.057857 0.422834 0.215434
Si Si3 0.596944 0.016966 0.890897
Si Si4 0.756421 0.263889 0.478618
Si Si5 0.071822 0.077740 0.641705
Si Si6 0.498455 0.628908 0.525976
Si Si7 0.305755 0.183935 0.687528
Si Si8 0.297492 0.368387 0.101194
O O1 0.358480 0.946439 0.559125
O O2 0.165954 0.940475 0.457415
O O3 0.987034 0.498064 0.177445
O O4 0.953228 0.349764 0.213060
O O5 0.098688 0.448119 0.303220
O O6 0.195183 0.395372 0.170627
O O7 0.750000 0.000000 0.920135
O O8 0.510524 0.934913 0.901767
O O9 0.534756 0.085008 0.944752
O O10 0.856410 0.330865 0.510433
O O11 0.613310 0.304226 0.453404
O O12 0.814426 0.217199 0.402363
O O13 0.734380 0.205247 0.553447
O O14 0.191709 0.115181 0.695591
O O15 0.952087 0.145265 0.635040
O O16 0.262765 0.250000 0.750000
#
# Coordination Sequence:
#
# PCOD8217286 Si02
#       8
#     4   8   8   8   8   8   8   8
#     4  12  22  40  68 100 138 178 242 274 338 420
#     4  12  25  46  71 100 143 187 236 292 353 429
#     4  11  24  48  74 104 136 186 244 299 346 418
#     4  12  24  45  69 106 143 183 229 292 356 432
#     4  12  23  44  66 102 134 186 237 289 339 421
#     4  11  25  46  75 102 138 183 240 289 356 418
#     4  12  27  44  65 101 143 185 229 290 366 417
#     4  12  25  41  74 102 140 185 229 288 356 419
#
# _framework density 21.672716000000001
#
# number of rings (size 3 to 8) (size 9 to 14) (size 15 to 20)
#    0.000    0.267    5.333    3.600    3.733    0.000 
#    2.400    0.667    0.000    0.000    0.000    0.000 
#    0.000    0.000    0.000    0.000    0.000    0.000 
#
# Total GULP energy -744007.824681 kJ/mol
# GULP energy per Si atom -12400.130411 kJ/mol
# Density = 2.162339 g / cm^3
# Si number density = 21.672716 Si / 1000 Ang^3
#
#
#
# Elastic Constant Matrix: (Units=GPa)
#
#
# Indices 1 2 3 4 5 6 
#
# 1 116.5948 29.7668 31.2053 0.0000 0.0000 0.0000
# 2 29.7668 83.5283 43.3920 0.0000 0.0000 0.0000
# 3 31.2053 43.3920 115.1476 0.0000 0.0000 0.0000
# 4 0.0000 0.0000 0.0000 43.2018 0.0000 0.0000
# 5 0.0000 0.0000 0.0000 0.0000 31.5049 0.0000
# 6 0.0000 0.0000 0.0000 0.0000 0.0000 39.1537
#
#
#
# Elastic Compliance Matrix: (Units=1/GPa)
#
#
# Indices 1 2 3 4 5 6 
#
# 1 0.009680 -0.002595 -0.001645 0.000000 0.000000 0.000000
# 2 -0.002595 0.015582 -0.005169 0.000000 0.000000 0.000000
# 3 -0.001645 -0.005169 0.011078 0.000000 0.000000 0.000000
# 4 0.000000 0.000000 0.000000 0.023147 0.000000 0.000000
# 5 0.000000 0.000000 0.000000 0.000000 0.031741 0.000000
# 6 0.000000 0.000000 0.000000 0.000000 0.000000 0.025540
#
#
# Mechanical properties :
#
#
# Convention : Reuss Voigt Hill
#
# Bulk Modulus (GPa) = 57.07131 58.22212 57.64672
# Shear Modulus (GPa) = 35.35418 36.83253 36.09336
#
# Velocity S-wave (km/s) = 4.04329 4.12696 4.08534
# Velocity P-wave (km/s) = 6.94176 7.04497 6.99355
#
# Compressibility (1/GPa) = 0.01752194
#
# Stress axis : x y z
#
# Youngs Moduli (GPa) = 103.31099 64.17787 90.26789
#
# Poissons Ratio (x) = 0.16652 0.14853
# Poissons Ratio (y) = 0.26806 0.46656
# Poissons Ratio (z) = 0.16999 0.33171
#
# Static dielectric constant tensor:
#      x y z
#    x 5.157330 0.000000 0.000000 
#    y 0.000000 4.173400 0.000000 
#    z 0.000000 0.000000 3.919340 
# 
# 
# High freq. dielectric constant tensor:
#      x y z
#    x 1.865840 0.000000 0.000000 
#    y 0.000000 1.863980 0.000000 
#    z 0.000000 0.000000 1.842080 
# 
# From -- ./inp_files/31485.got.cif
#   From: 2010.06.25/outbox.cif.g09.slc.cpg/sg52_16_cif.got.tgz:31485.got - 2010.06.26 19:32:48.
