data_PCOD8217252
_publ_section_title
;
Structure prediction by ZEFSAII (Michael W. Deem and Ramdas Pophale) SiO2 
 PCOD8217252
Probable space group: P N N A
;
_chemical_formula_sum "Si O2"
_cell_formula_units_Z 40
_cell_length_a 9.054842
_cell_length_b 26.712854
_cell_length_c 7.669343
_cell_angle_alpha 90.000000
_cell_angle_beta 90.000000
_cell_angle_gamma 90.000000
_cell_volume 1855.065841
_symmetry_space_group_name_H-M "P N N A"
_symmetry_group_IT_number 52
_symmetry_cell_setting 'orthorhombic'
loop_
_space_group_symop_operation_xyz
x,y,z
1/2-x,-y,z
x,1/2-y,1/2-z
1/2-x,1/2+y,1/2-z
-x,-y,-z
1/2+x,y,-z
-x,1/2+y,1/2+z
1/2+x,1/2-y,1/2+z
loop_
_atom_site_type_symbol
_atom_site_label
_atom_site_fract_x
_atom_site_fract_y
_atom_site_fract_z
Si Si1 0.963540 0.805660 0.176009
Si Si2 0.195996 0.399184 0.817624
Si Si3 0.870493 0.962495 0.973920
Si Si4 0.805566 0.806006 0.810905
Si Si5 0.043258 0.104968 0.344308
O O1 0.941692 0.750000 0.250000
O O2 0.877457 0.844782 0.296322
O O3 0.134922 0.821793 0.164730
O O4 0.894684 0.811401 0.987549
O O5 0.175429 0.435634 0.653715
O O6 0.367763 0.392479 0.860180
O O7 0.112837 0.422825 0.986479
O O8 0.750000 0.000000 0.898925
O O9 0.907457 0.921072 0.833224
O O10 0.000000 0.000000 0.000000
O O11 0.816508 0.750000 0.750000
O O12 0.885379 0.839699 0.664931
#
# Coordination Sequence:
#
# PCOD8217252 Si02
#       5
#     8   8   8   8   8
#     4  11  24  42  68 102 144 188 236 291 355 426
#     4  12  27  46  74 107 143 189 239 296 360 425
#     4  12  28  50  74 105 143 188 240 300 363 420
#     4  11  24  42  68 102 144 189 235 292 355 424
#     4  12  27  46  74 106 145 187 239 298 355 432
#
# _framework density 21.562577000000001
#
# number of rings (size 3 to 8) (size 9 to 14) (size 15 to 20)
#    0.000    0.400    4.000    3.600    5.600    8.000 
#    0.000    0.000    0.000    0.000    0.000    0.000 
#    0.000    0.000    0.000    0.000    0.000    0.000 
#
# Total GULP energy -496030.809255 kJ/mol
# GULP energy per Si atom -12400.770231 kJ/mol
# Density = 2.151350 g / cm^3
# Si number density = 21.562577 Si / 1000 Ang^3
#
#
#
# Elastic Constant Matrix: (Units=GPa)
#
#
# Indices 1 2 3 4 5 6 
#
# 1 202.1649 58.1322 57.1999 0.0000 0.0000 0.0000
# 2 58.1322 78.6855 20.8720 0.0000 0.0000 0.0000
# 3 57.1999 20.8720 124.5938 0.0000 0.0000 0.0000
# 4 0.0000 0.0000 0.0000 26.5088 0.0000 0.0000
# 5 0.0000 0.0000 0.0000 0.0000 39.1455 0.0000
# 6 0.0000 0.0000 0.0000 0.0000 0.0000 25.6361
#
#
#
# Elastic Compliance Matrix: (Units=1/GPa)
#
#
# Indices 1 2 3 4 5 6 
#
# 1 0.006918 -0.004467 -0.002428 0.000000 0.000000 0.000000
# 2 -0.004467 0.016184 -0.000660 0.000000 0.000000 0.000000
# 3 -0.002428 -0.000660 0.009251 0.000000 0.000000 0.000000
# 4 0.000000 0.000000 0.000000 0.037723 0.000000 0.000000
# 5 0.000000 0.000000 0.000000 0.000000 0.025546 0.000000
# 6 0.000000 0.000000 0.000000 0.000000 0.000000 0.039007
#
#
# Mechanical properties :
#
#
# Convention : Reuss Voigt Hill
#
# Bulk Modulus (GPa) = 57.99377 75.31694 66.65535
# Shear Modulus (GPa) = 32.15702 36.20743 34.18223
#
# Velocity S-wave (km/s) = 3.86597 4.10222 3.98585
# Velocity P-wave (km/s) = 6.84701 7.57911 7.22235
#
# Compressibility (1/GPa) = 0.01724323
#
# Stress axis : x y z
#
# Youngs Moduli (GPa) = 144.55580 61.78907 108.09395
#
# Poissons Ratio (x) = 0.27600 0.26241
# Poissons Ratio (y) = 0.64571 0.07139
# Poissons Ratio (z) = 0.35092 0.04081
#
# Static dielectric constant tensor:
#      x y z
#    x 4.243460 0.000000 0.000000 
#    y 0.000000 4.556680 0.000000 
#    z 0.000000 0.000000 3.290050 
# 
# 
# High freq. dielectric constant tensor:
#      x y z
#    x 1.868850 0.000000 0.000000 
#    y 0.000000 1.852350 0.000000 
#    z 0.000000 0.000000 1.861570 
# 
# From -- ./inp_files/7530.got.cif
#   From: 2010.06.25/outbox.cif.g09.slc.cpg/sg52_4_cif.got.tgz:7530.got - 2010.06.26 19:32:48.
