data_PCOD8217922
_publ_section_title
;
Structure prediction by ZEFSAII (Michael W. Deem and Ramdas Pophale) SiO2 
 PCOD8217922
Probable space group: P M N A
;
_chemical_formula_sum "Si O2"
_cell_formula_units_Z 56
_cell_length_a 13.472939
_cell_length_b 10.052820
_cell_length_c 26.154094
_cell_angle_alpha 90.000000
_cell_angle_beta 90.000000
_cell_angle_gamma 90.000000
_cell_volume 3542.337447
_symmetry_space_group_name_H-M "P M N A"
_symmetry_group_IT_number 53
_symmetry_cell_setting 'orthorhombic'
loop_
_space_group_symop_operation_xyz
x,y,z
1/2-x,-y,1/2+z
x,-y,-z
1/2-x,y,1/2-z
-x,-y,-z
1/2+x,y,1/2-z
-x,y,z
1/2+x,-y,1/2+z
loop_
_atom_site_type_symbol
_atom_site_label
_atom_site_fract_x
_atom_site_fract_y
_atom_site_fract_z
Si Si1 0.387100 0.496014 0.111025
Si Si2 0.112750 0.771230 0.553763
Si Si3 0.887569 0.893431 0.713165
Si Si4 0.384985 0.145831 0.329008
Si Si5 0.781375 0.012438 0.379018
Si Si6 0.231836 0.637610 0.693895
Si Si7 0.884498 0.219236 0.564122
O O1 0.500000 0.494949 0.132210
O O2 0.372060 0.381954 0.068792
O O3 0.308176 0.478171 0.156940
O O4 0.363092 0.633695 0.083646
O O5 0.178770 0.862738 0.589385
O O6 0.143566 0.789427 0.495145
O O7 0.000000 0.817054 0.561631
O O8 0.869701 0.920123 0.773036
O O9 0.827545 0.996426 0.677999
O O10 0.855628 0.744797 0.698774
O O11 0.000000 0.910335 0.697305
O O12 0.500000 0.167330 0.342691
O O13 0.336084 0.043598 0.370191
O O14 0.330120 0.289773 0.328964
O O15 0.806491 0.876443 0.407466
O O16 0.250000 0.574343 0.750000
O O17 0.000000 0.178280 0.573421
#
# Coordination Sequence:
#
# PCOD8217922 Si02
#       7
#     8   8   8   8   8   8   8
#     4  10  18  31  49  71 100 128 149 179 230 287
#     4  10  18  30  49  71  95 124 156 187 227 283
#     4   9  15  26  46  71  95 117 149 192 236 282
#     4   9  18  30  47  70  92 118 160 205 232 261
#     4  11  18  29  48  71  95 126 156 189 233 277
#     4   9  16  27  46  72  93 119 156 192 228 270
#     4  10  21  31  44  72 104 125 147 185 234 287
#
# _framework density 15.808771
#
# number of rings (size 3 to 8) (size 9 to 14) (size 15 to 20)
#    0.000    2.286    2.857    3.857    0.000    3.429 
#    0.000    1.429    0.000    2.571    0.000    1.000 
#    0.000    0.000    0.000    0.000    0.000    0.000 
#
# Total GULP energy -694091.591638 kJ/mol
# GULP energy per Si atom -12394.492708 kJ/mol
# Density = 1.577279 g / cm^3
# Si number density = 15.808771 Si / 1000 Ang^3
#
#
#
# Elastic Constant Matrix: (Units=GPa)
#
#
# Indices 1 2 3 4 5 6 
#
# 1 96.8431 35.9219 45.6413 0.0000 0.0000 0.0000
# 2 35.9219 71.4064 29.9697 0.0000 0.0000 0.0000
# 3 45.6413 29.9697 82.0088 0.0000 0.0000 0.0000
# 4 0.0000 0.0000 0.0000 5.7738 0.0000 0.0000
# 5 0.0000 0.0000 0.0000 0.0000 26.7915 0.0000
# 6 0.0000 0.0000 0.0000 0.0000 0.0000 17.6179
#
#
#
# Elastic Compliance Matrix: (Units=1/GPa)
#
#
# Indices 1 2 3 4 5 6 
#
# 1 0.015310 -0.004873 -0.006740 0.000000 0.000000 0.000000
# 2 -0.004873 0.018093 -0.003900 0.000000 0.000000 0.000000
# 3 -0.006740 -0.003900 0.017370 0.000000 0.000000 0.000000
# 4 0.000000 0.000000 0.000000 0.173196 0.000000 0.000000
# 5 0.000000 0.000000 0.000000 0.000000 0.037325 0.000000
# 6 0.000000 0.000000 0.000000 0.000000 0.000000 0.056760
#
#
# Mechanical properties :
#
#
# Convention : Reuss Voigt Hill
#
# Bulk Modulus (GPa) = 50.64018 52.59157 51.61588
# Shear Modulus (GPa) = 14.05829 19.28501 16.67165
#
# Velocity S-wave (km/s) = 2.98530 3.49649 3.25096
# Velocity P-wave (km/s) = 6.63213 7.04557 6.84198
#
# Compressibility (1/GPa) = 0.01974717
#
# Stress axis : x y z
#
# Youngs Moduli (GPa) = 65.31695 55.27123 57.57089
#
# Poissons Ratio (x) = 0.26935 0.38801
# Poissons Ratio (y) = 0.31830 0.22451
# Poissons Ratio (z) = 0.44022 0.21554
#
# Static dielectric constant tensor:
#      x y z
#    x 3.001780 0.000000 0.000000 
#    y 0.000000 2.767060 0.000000 
#    z 0.000000 0.000000 3.237730 
# 
# 
# High freq. dielectric constant tensor:
#      x y z
#    x 1.589810 0.000000 0.000000 
#    y 0.000000 1.577470 0.000000 
#    z 0.000000 0.000000 1.614640 
# 
# From -- ./inp_files/38925.got.cif
#   From: 2010.03.12/outbox.cif.g09.slc.cpg/sg53_20_cif.got.tgz:38925.got - 2010.04.16 14:36:59.
