data_PCOD8217110
_publ_section_title
;
Structure prediction by ZEFSAII (Michael W. Deem and Ramdas Pophale) SiO2 
 PCOD8217110
Probable space group: P N N A
;
_chemical_formula_sum "Si O2"
_cell_formula_units_Z 32
_cell_length_a 4.992075
_cell_length_b 8.315914
_cell_length_c 35.997658
_cell_angle_alpha 90.000000
_cell_angle_beta 90.000000
_cell_angle_gamma 90.000000
_cell_volume 1494.394765
_symmetry_space_group_name_H-M "P N N A"
_symmetry_group_IT_number 52
_symmetry_cell_setting 'orthorhombic'
loop_
_space_group_symop_operation_xyz
x,y,z
1/2-x,-y,z
x,1/2-y,1/2-z
1/2-x,1/2+y,1/2-z
-x,-y,-z
1/2+x,y,-z
-x,1/2+y,1/2+z
1/2+x,1/2-y,1/2+z
loop_
_atom_site_type_symbol
_atom_site_label
_atom_site_fract_x
_atom_site_fract_y
_atom_site_fract_z
Si Si1 0.278828 0.809988 0.479083
Si Si2 0.487966 0.606692 0.722751
Si Si3 0.848293 0.681408 0.894804
Si Si4 0.847408 0.673664 0.359173
O O1 0.495440 0.737408 0.507985
O O2 0.363160 0.763018 0.437531
O O3 0.250000 0.000000 0.482833
O O4 0.250000 0.500000 0.741018
O O5 0.571793 0.750000 0.750000
O O6 0.365681 0.683246 0.685311
O O7 0.750000 0.500000 0.714300
O O8 0.750000 0.500000 0.890765
O O9 0.642610 0.798560 0.874599
O O10 0.138153 0.695470 0.875255
O O11 0.750000 0.500000 0.372749
#
# Coordination Sequence:
#
# PCOD8217110 Si02
#       4
#     8   8   8   8
#     4   9  17  31  53  82 115 149 192 250 304 342
#     4  11  24  43  65  91 121 158 200 242 295 355
#     4  11  22  37  62  92 117 154 209 255 290 346
#     4  11  23  41  60  85 125 164 192 235 307 368
#
# _framework density 21.413350999999999
#
# number of rings (size 3 to 8) (size 9 to 14) (size 15 to 20)
#    0.000    1.500    0.000    6.750    0.000    7.000 
#    0.000    0.000    0.000   15.000    0.000    0.000 
#    0.000    0.000    0.000    0.000    0.000    0.000 
#
# Total GULP energy -396836.708951 kJ/mol
# GULP energy per Si atom -12401.147155 kJ/mol
# Density = 2.136461 g / cm^3
# Si number density = 21.413351 Si / 1000 Ang^3
#
#
#
# Elastic Constant Matrix: (Units=GPa)
#
#
# Indices 1 2 3 4 5 6 
#
# 1 114.0151 9.4849 41.5022 0.0000 0.0000 0.0000
# 2 9.4849 51.6133 39.8938 0.0000 0.0000 0.0000
# 3 41.5022 39.8938 124.6598 0.0000 0.0000 0.0000
# 4 0.0000 0.0000 0.0000 21.0489 0.0000 0.0000
# 5 0.0000 0.0000 0.0000 0.0000 -267.4667 0.0000
# 6 0.0000 0.0000 0.0000 0.0000 0.0000 38.4715
#
#
#
# Elastic Compliance Matrix: (Units=1/GPa)
#
#
# Indices 1 2 3 4 5 6 
#
# 1 0.010017 0.000979 -0.003648 0.000000 0.000000 0.000000
# 2 0.000979 0.025838 -0.008595 0.000000 0.000000 0.000000
# 3 -0.003648 -0.008595 0.011987 0.000000 0.000000 0.000000
# 4 0.000000 0.000000 0.000000 0.047508 0.000000 0.000000
# 5 0.000000 0.000000 0.000000 0.000000 -0.003739 0.000000
# 6 0.000000 0.000000 0.000000 0.000000 0.000000 0.025993
#
#
# Mechanical properties :
#
#
# Convention : Reuss Voigt Hill
#
# Bulk Modulus (GPa) = 39.50317 52.45000 45.97659
# Shear Modulus (GPa) = 33.65388 -28.29545 2.67922
#
# Velocity S-wave (km/s) = 3.96868 -3.63904 1.11978
# Velocity P-wave (km/s) = 6.28399 2.62496 4.81555
#
# Compressibility (1/GPa) = 0.02531442
#
# Stress axis : x y z
#
# Youngs Moduli (GPa) = 99.82691 38.70256 83.42416
#
# Poissons Ratio (x) = -0.03789 0.30436
# Poissons Ratio (y) = -0.09774 0.71700
# Poissons Ratio (z) = 0.36420 0.33264
#
# Static dielectric constant tensor:
#      x y z
#    x 4.193170 0.000000 0.000000 
#    y 0.000000 3.626310 0.000000 
#    z 0.000000 0.000000 3.831820 
# 
# 
# High freq. dielectric constant tensor:
#      x y z
#    x 1.862550 0.000000 0.000000 
#    y 0.000000 1.814980 0.000000 
#    z 0.000000 0.000000 1.841190 
# 
# From -- ./inp_files/43552.got.cif
#   From: 2010.06.25/outbox.cif.g09.slc.cpg/sg52_22_cif.got.tgz:43552.got - 2010.06.26 19:32:48.
