data_PCOD8217773
_publ_section_title
;
Structure prediction by ZEFSAII (Michael W. Deem and Ramdas Pophale) SiO2 
 PCOD8217773
Probable space group: P M N A
;
_chemical_formula_sum "Si O2"
_cell_formula_units_Z 64
_cell_length_a 9.016801
_cell_length_b 16.829390
_cell_length_c 23.783632
_cell_angle_alpha 90.000000
_cell_angle_beta 90.000000
_cell_angle_gamma 90.000000
_cell_volume 3609.101003
_symmetry_space_group_name_H-M "P M N A"
_symmetry_group_IT_number 53
_symmetry_cell_setting 'orthorhombic'
loop_
_space_group_symop_operation_xyz
x,y,z
1/2-x,-y,1/2+z
x,-y,-z
1/2-x,y,1/2-z
-x,-y,-z
1/2+x,y,1/2-z
-x,y,z
1/2+x,-y,1/2+z
loop_
_atom_site_type_symbol
_atom_site_label
_atom_site_fract_x
_atom_site_fract_y
_atom_site_fract_z
Si Si1 0.176767 0.775457 0.623567
Si Si2 0.832462 0.373794 0.305759
Si Si3 0.174137 0.913280 0.811092
Si Si4 0.829658 0.678666 0.966833
Si Si5 0.669286 0.085717 0.692949
Si Si6 0.829642 0.632300 0.088608
Si Si7 0.175314 0.258678 0.810217
Si Si8 0.170700 0.468037 0.414207
O O1 0.228998 0.707471 0.667182
O O2 0.249303 0.857077 0.643280
O O3 0.238421 0.750042 0.562398
O O4 0.000000 0.783037 0.619775
O O5 0.750000 0.398923 0.250000
O O6 0.813738 0.446072 0.348796
O O7 0.000000 0.359113 0.288396
O O8 0.250000 0.902962 0.750000
O O9 0.000000 0.893021 0.804297
O O10 0.195714 0.001875 0.839213
O O11 0.764716 0.592335 0.951765
O O12 0.000000 0.682507 0.946808
O O13 0.817344 0.689327 0.034126
O O14 0.750000 0.071170 0.750000
O O15 0.500000 0.095624 0.708894
O O16 0.720424 0.169978 0.666035
O O17 0.768252 0.679457 0.142985
O O18 0.729210 0.556189 0.077721
O O19 0.000000 0.605793 0.097705
O O20 0.250000 0.276264 0.750000
O O21 0.000000 0.266921 0.802413
O O22 0.000000 0.462698 0.433740
#
# Coordination Sequence:
#
# PCOD8217773 Si02
#       8
#     8   8   8   8   8   8   8   8
#     4  10  20  33  48  70  99 130 165 204 245 289
#     4   9  19  32  45  64  92 126 159 190 231 282
#     4  10  18  28  46  74 103 132 166 201 239 285
#     4  10  20  35  53  72  95 125 163 205 248 292
#     4   8  15  28  47  70  98 130 162 197 238 284
#     4  10  21  35  53  75  97 124 161 204 247 292
#     4   9  18  34  53  75 103 131 160 198 244 292
#     4  10  21  35  50  71  98 127 162 204 246 289
#
# _framework density 17.732948
#
# number of rings (size 3 to 8) (size 9 to 14) (size 15 to 20)
#    0.000    2.500    0.000    3.000    0.000    8.000 
#    0.000    2.500    0.000    0.750    0.000    5.250 
#    0.000    0.000    0.000    0.000    0.000    0.000 
#
# Total GULP energy -793094.747793 kJ/mol
# GULP energy per Si atom -12392.105434 kJ/mol
# Density = 1.769259 g / cm^3
# Si number density = 17.732948 Si / 1000 Ang^3
#
#
#
# Elastic Constant Matrix: (Units=GPa)
#
#
# Indices 1 2 3 4 5 6 
#
# 1 70.7880 27.2937 30.7439 0.0000 0.0000 0.0000
# 2 27.2937 81.1177 32.7418 0.0000 0.0000 0.0000
# 3 30.7439 32.7418 84.7383 0.0000 0.0000 0.0000
# 4 0.0000 0.0000 0.0000 17.2835 0.0000 0.0000
# 5 0.0000 0.0000 0.0000 0.0000 24.8523 0.0000
# 6 0.0000 0.0000 0.0000 0.0000 0.0000 27.6387
#
#
#
# Elastic Compliance Matrix: (Units=1/GPa)
#
#
# Indices 1 2 3 4 5 6 
#
# 1 0.017805 -0.004009 -0.004911 0.000000 0.000000 0.000000
# 2 -0.004009 0.015508 -0.004538 0.000000 0.000000 0.000000
# 3 -0.004911 -0.004538 0.015336 0.000000 0.000000 0.000000
# 4 0.000000 0.000000 0.000000 0.057858 0.000000 0.000000
# 5 0.000000 0.000000 0.000000 0.000000 0.040238 0.000000
# 6 0.000000 0.000000 0.000000 0.000000 0.000000 0.036181
#
#
# Mechanical properties :
#
#
# Convention : Reuss Voigt Hill
#
# Bulk Modulus (GPa) = 46.00957 46.46697 46.23827
# Shear Modulus (GPa) = 23.03226 23.67920 23.35573
#
# Velocity S-wave (km/s) = 3.60785 3.65817 3.63310
# Velocity P-wave (km/s) = 6.58465 6.64105 6.61291
#
# Compressibility (1/GPa) = 0.02173461
#
# Stress axis : x y z
#
# Youngs Moduli (GPa) = 56.16328 64.48217 65.20545
#
# Poissons Ratio (x) = 0.25849 0.32023
# Poissons Ratio (y) = 0.22514 0.29589
# Poissons Ratio (z) = 0.27582 0.29260
#
# Static dielectric constant tensor:
#      x y z
#    x 3.356370 0.000000 0.000000 
#    y 0.000000 3.500240 0.000000 
#    z 0.000000 0.000000 3.162060 
# 
# 
# High freq. dielectric constant tensor:
#      x y z
#    x 1.694140 0.000000 0.000000 
#    y 0.000000 1.684540 0.000000 
#    z 0.000000 0.000000 1.662580 
# 
# From -- ./inp_files/34169.got.cif
#   From: 2010.03.12/outbox.cif.g09.slc.cpg/sg53_18_cif.got.tgz:34169.got - 2010.04.16 14:36:59.
