data_PCOD8217928
_publ_section_title
;
Structure prediction by ZEFSAII (Michael W. Deem and Ramdas Pophale) SiO2 
 PCOD8217928
Probable space group: P M N A
;
_chemical_formula_sum "Si O2"
_cell_formula_units_Z 40
_cell_length_a 8.842595
_cell_length_b 12.909404
_cell_length_c 19.760987
_cell_angle_alpha 90.000000
_cell_angle_beta 90.000000
_cell_angle_gamma 90.000000
_cell_volume 2255.768662
_symmetry_space_group_name_H-M "P M N A"
_symmetry_group_IT_number 53
_symmetry_cell_setting 'orthorhombic'
loop_
_space_group_symop_operation_xyz
x,y,z
1/2-x,-y,1/2+z
x,-y,-z
1/2-x,y,1/2-z
-x,-y,-z
1/2+x,y,1/2-z
-x,y,z
1/2+x,-y,1/2+z
loop_
_atom_site_type_symbol
_atom_site_label
_atom_site_fract_x
_atom_site_fract_y
_atom_site_fract_z
Si Si1 0.819936 0.789099 0.675709
Si Si2 0.176243 0.991987 0.822691
Si Si3 0.678860 0.386779 0.075683
Si Si4 0.678887 0.380942 0.923832
Si Si5 0.675563 0.779655 0.322948
O O1 0.750000 0.775690 0.750000
O O2 0.757436 0.695218 0.629744
O O3 0.000000 0.789973 0.680289
O O4 0.761302 0.896301 0.640304
O O5 0.250000 0.999283 0.750000
O O6 0.202346 0.105368 0.855615
O O7 0.000000 0.964822 0.816874
O O8 0.500000 0.382369 0.074115
O O9 0.729051 0.502553 0.096700
O O10 0.736016 0.358930 0.000255
O O11 0.500000 0.366774 0.917413
O O12 0.759215 0.302185 0.874548
O O13 0.750000 0.766554 0.250000
O O14 0.500000 0.758635 0.312268
#
# Coordination Sequence:
#
# PCOD8217928 Si02
#       5
#     8   8   8   8   8
#     4  10  18  30  49  73  98 124 159 198 237 284
#     4   9  17  30  47  68  96 127 157 193 239 285
#     4   8  17  33  52  72  96 129 163 197 240 288
#     4   9  17  34  55  71  94 129 165 199 239 285
#     4  10  20  33  50  74 100 126 160 200 241 285
#
# _framework density 17.732313999999999
#
# number of rings (size 3 to 8) (size 9 to 14) (size 15 to 20)
#    0.000    2.800    0.000    4.200    0.000    3.200 
#    0.000    9.000    0.000    6.000    0.000    0.000 
#    0.000    0.000    0.000    0.000    0.000    0.000 
#
# Total GULP energy -495643.128024 kJ/mol
# GULP energy per Si atom -12391.078201 kJ/mol
# Density = 1.769195 g / cm^3
# Si number density = 17.732314 Si / 1000 Ang^3
#
#
#
# Elastic Constant Matrix: (Units=GPa)
#
#
# Indices 1 2 3 4 5 6 
#
# 1 80.1894 61.0223 39.8664 0.0000 0.0000 0.0000
# 2 61.0223 181.2117 90.3940 0.0000 0.0000 0.0000
# 3 39.8664 90.3940 88.0080 0.0000 0.0000 0.0000
# 4 0.0000 0.0000 0.0000 -12.5799 0.0000 0.0000
# 5 0.0000 0.0000 0.0000 0.0000 22.0855 0.0000
# 6 0.0000 0.0000 0.0000 0.0000 0.0000 32.3896
#
#
#
# Elastic Compliance Matrix: (Units=1/GPa)
#
#
# Indices 1 2 3 4 5 6 
#
# 1 0.017370 -0.003946 -0.003815 0.000000 0.000000 0.000000
# 2 -0.003946 0.012213 -0.010756 0.000000 0.000000 0.000000
# 3 -0.003815 -0.010756 0.024139 0.000000 0.000000 0.000000
# 4 0.000000 0.000000 0.000000 -0.079492 0.000000 0.000000
# 5 0.000000 0.000000 0.000000 0.000000 0.045279 0.000000
# 6 0.000000 0.000000 0.000000 0.000000 0.000000 0.030874
#
#
# Mechanical properties :
#
#
# Convention : Reuss Voigt Hill
#
# Bulk Modulus (GPa) = 59.92969 81.33050 70.63009
# Shear Modulus (GPa) = 53.77455 18.92080 36.34767
#
# Velocity S-wave (km/s) = 5.51286 3.27008 4.53238
# Velocity P-wave (km/s) = 8.62510 7.76036 8.20413
#
# Compressibility (1/GPa) = 0.01668622
#
# Stress axis : x y z
#
# Youngs Moduli (GPa) = 57.56989 81.88042 41.42670
#
# Poissons Ratio (x) = 0.32311 0.15806
# Poissons Ratio (y) = 0.22718 0.44561
# Poissons Ratio (z) = 0.21965 0.88075
#
# Static dielectric constant tensor:
#      x y z
#    x 3.179980 0.000000 0.000000 
#    y 0.000000 4.155080 0.000000 
#    z 0.000000 0.000000 3.328600 
# 
# 
# High freq. dielectric constant tensor:
#      x y z
#    x 1.678210 0.000000 0.000000 
#    y 0.000000 1.706750 0.000000 
#    z 0.000000 0.000000 1.655990 
# 
# From -- ./inp_files/30350.got.cif
#   From: 2010.03.12/outbox.cif.g09.slc.cpg/sg53_16_cif.got.tgz:30350.got - 2010.04.16 14:36:59.
