data_PCOD8217290
_publ_section_title
;
Structure prediction by ZEFSAII (Michael W. Deem and Ramdas Pophale) SiO2 
 PCOD8217290
Probable space group: P N N A
;
_chemical_formula_sum "Si O2"
_cell_formula_units_Z 36
_cell_length_a 5.144270
_cell_length_b 12.023156
_cell_length_c 23.718673
_cell_angle_alpha 90.000000
_cell_angle_beta 90.000000
_cell_angle_gamma 90.000000
_cell_volume 1467.008481
_symmetry_space_group_name_H-M "P N N A"
_symmetry_group_IT_number 52
_symmetry_cell_setting 'orthorhombic'
loop_
_space_group_symop_operation_xyz
x,y,z
1/2-x,-y,z
x,1/2-y,1/2-z
1/2-x,1/2+y,1/2-z
-x,-y,-z
1/2+x,y,-z
-x,1/2+y,1/2+z
1/2+x,1/2-y,1/2+z
loop_
_atom_site_type_symbol
_atom_site_label
_atom_site_fract_x
_atom_site_fract_y
_atom_site_fract_z
Si Si1 0.109485 0.108367 0.699907
Si Si2 0.250000 0.000000 0.377783
Si Si3 0.085533 0.167891 0.463212
Si Si4 0.667566 0.348144 0.325410
Si Si5 0.660331 0.383176 0.605600
O O1 0.262514 0.221381 0.685585
O O2 0.070845 0.096582 0.767123
O O3 0.847537 0.099828 0.663310
O O4 0.250000 0.000000 0.676079
O O5 0.450883 0.930054 0.417167
O O6 0.370662 0.153260 0.489249
O O7 0.057642 0.293063 0.438746
O O8 0.415044 0.337441 0.363921
O O9 0.918168 0.411679 0.351784
O O10 0.750000 0.500000 0.576836
#
# Coordination Sequence:
#
# PCOD8217290 Si02
#       5
#     8   4   8   8   8
#     4  11  25  41  73 106 150 195 242 292 377 453
#     4  12  26  46  74 108 150 192 246 314 372 452
#     4  12  28  49  75 106 143 195 260 317 373 424
#     4  11  26  45  69 110 152 191 237 300 365 459
#     4  12  25  48  74 104 149 190 247 303 371 440
#
# _framework density 24.539736000000001
#
# number of rings (size 3 to 8) (size 9 to 14) (size 15 to 20)
#    0.000    0.444    2.222    5.333    7.778    2.667 
#    0.000    0.000    0.000    0.000    0.000    0.000 
#    0.000    0.000    0.000    0.000    0.000    0.000 
#
# Total GULP energy -446201.834941 kJ/mol
# GULP energy per Si atom -12394.495415 kJ/mol
# Density = 2.448388 g / cm^3
# Si number density = 24.539736 Si / 1000 Ang^3
#
#
#
# Elastic Constant Matrix: (Units=GPa)
#
#
# Indices 1 2 3 4 5 6 
#
# 1 99.7601 13.3783 29.0293 0.0000 0.0000 0.0000
# 2 13.3783 116.0448 40.9823 0.0000 0.0000 0.0000
# 3 29.0293 40.9823 98.2809 0.0000 0.0000 0.0000
# 4 0.0000 0.0000 0.0000 39.1961 0.0000 0.0000
# 5 0.0000 0.0000 0.0000 0.0000 32.6325 0.0000
# 6 0.0000 0.0000 0.0000 0.0000 0.0000 41.1883
#
#
#
# Elastic Compliance Matrix: (Units=1/GPa)
#
#
# Indices 1 2 3 4 5 6 
#
# 1 0.010969 -0.000141 -0.003181 0.000000 0.000000 0.000000
# 2 -0.000141 0.010107 -0.004173 0.000000 0.000000 0.000000
# 3 -0.003181 -0.004173 0.012855 0.000000 0.000000 0.000000
# 4 0.000000 0.000000 0.000000 0.025513 0.000000 0.000000
# 5 0.000000 0.000000 0.000000 0.000000 0.030644 0.000000
# 6 0.000000 0.000000 0.000000 0.000000 0.000000 0.024279
#
#
# Mechanical properties :
#
#
# Convention : Reuss Voigt Hill
#
# Bulk Modulus (GPa) = 52.79726 53.42950 53.11338
# Shear Modulus (GPa) = 36.85415 37.98312 37.41863
#
# Velocity S-wave (km/s) = 3.87953 3.93850 3.90913
# Velocity P-wave (km/s) = 6.45208 6.51938 6.48582
#
# Compressibility (1/GPa) = 0.01894038
#
# Stress axis : x y z
#
# Youngs Moduli (GPa) = 91.16934 98.93774 77.79324
#
# Poissons Ratio (x) = 0.01396 0.24746
# Poissons Ratio (y) = 0.01287 0.32463
# Poissons Ratio (z) = 0.29001 0.41287
#
# Static dielectric constant tensor:
#      x y z
#    x 4.381630 0.000000 0.000000 
#    y 0.000000 4.716650 0.000000 
#    z 0.000000 0.000000 4.278740 
# 
# 
# High freq. dielectric constant tensor:
#      x y z
#    x 1.959760 0.000000 0.000000 
#    y 0.000000 2.006360 0.000000 
#    z 0.000000 0.000000 1.970010 
# 
# From -- ./inp_files/38580.got.cif
#   From: 2010.06.25/outbox.cif.g09.slc.cpg/sg52_20_cif.got.tgz:38580.got - 2010.06.26 19:32:48.
