data_PCOD8217508
_publ_section_title
;
Structure prediction by ZEFSAII (Michael W. Deem and Ramdas Pophale) SiO2 
 PCOD8217508
Probable space group: P M N A
;
_chemical_formula_sum "Si O2"
_cell_formula_units_Z 64
_cell_length_a 9.021197
_cell_length_b 20.178159
_cell_length_c 22.784953
_cell_angle_alpha 90.000000
_cell_angle_beta 90.000000
_cell_angle_gamma 90.000000
_cell_volume 4147.571139
_symmetry_space_group_name_H-M "P M N A"
_symmetry_group_IT_number 53
_symmetry_cell_setting 'orthorhombic'
loop_
_space_group_symop_operation_xyz
x,y,z
1/2-x,-y,1/2+z
x,-y,-z
1/2-x,y,1/2-z
-x,-y,-z
1/2+x,y,1/2-z
-x,y,z
1/2+x,-y,1/2+z
loop_
_atom_site_type_symbol
_atom_site_label
_atom_site_fract_x
_atom_site_fract_y
_atom_site_fract_z
Si Si1 0.826872 0.350536 0.970759
Si Si2 0.825355 0.784543 0.476742
Si Si3 0.167464 0.523914 0.433614
Si Si4 0.831499 0.089967 0.948074
Si Si5 0.666837 0.949598 0.583040
Si Si6 0.826520 0.397623 0.102034
Si Si7 0.323692 0.704252 0.812916
Si Si8 0.173082 0.175697 0.393403
O O1 0.747885 0.405190 0.930043
O O2 0.000000 0.350973 0.956347
O O3 0.757253 0.280303 0.953239
O O4 0.796410 0.364752 0.039056
O O5 0.774396 0.846980 0.436754
O O6 0.773810 0.796394 0.543763
O O7 0.000000 0.774330 0.471025
O O8 0.164663 0.500000 0.500000
O O9 0.261963 0.471949 0.395474
O O10 0.000000 0.529479 0.408916
O O11 0.000000 0.108416 0.930902
O O12 0.776219 0.025889 0.910306
O O13 0.823595 0.070252 0.015599
O O14 0.500000 0.945593 0.606286
O O15 0.759920 0.896792 0.620899
O O16 0.738620 0.356836 0.150469
O O17 0.000000 0.399514 0.117083
O O18 0.250000 0.703575 0.750000
O O19 0.500000 0.697456 0.808283
O O20 0.276083 0.772870 0.843821
O O21 0.000000 0.165851 0.394390
#
# Coordination Sequence:
#
# PCOD8217508 Si02
#       8
#     8   8   8   8   8   8   8   8
#     4  10  18  27  41  61  84 110 141 174 207 251
#     4  10  17  25  38  57  81 110 140 171 207 247
#     4   9  17  28  43  61  82 107 135 170 209 250
#     4   8  14  24  35  53  77 103 133 167 200 236
#     4   8  14  24  39  54  73 100 134 168 201 242
#     4  10  19  31  46  62  80 106 139 175 215 257
#     4  11  22  35  47  62  83 108 142 183 223 260
#     4   9  18  29  41  56  77 103 135 175 215 251
#
# _framework density 15.430717
#
# number of rings (size 3 to 8) (size 9 to 14) (size 15 to 20)
#    0.000    2.625    1.250    2.625    0.000    4.500 
#    0.000    2.500    0.000    0.000    0.000    0.000 
#    0.000    0.000    0.000    1.125    0.000   17.750 
#
# Total GULP energy -793351.142371 kJ/mol
# GULP energy per Si atom -12396.111600 kJ/mol
# Density = 1.539560 g / cm^3
# Si number density = 15.430717 Si / 1000 Ang^3
#
#
#
# Elastic Constant Matrix: (Units=GPa)
#
#
# Indices 1 2 3 4 5 6 
#
# 1 77.4770 62.4704 22.3886 0.0000 0.0000 0.0000
# 2 62.4704 152.9649 35.2382 0.0000 0.0000 0.0000
# 3 22.3886 35.2382 34.8215 0.0000 0.0000 0.0000
# 4 0.0000 0.0000 0.0000 1.9033 0.0000 0.0000
# 5 0.0000 0.0000 0.0000 0.0000 14.7982 0.0000
# 6 0.0000 0.0000 0.0000 0.0000 0.0000 35.0431
#
#
#
# Elastic Compliance Matrix: (Units=1/GPa)
#
#
# Indices 1 2 3 4 5 6 
#
# 1 0.020174 -0.006847 -0.006042 0.000000 0.000000 0.000000
# 2 -0.006847 0.010849 -0.006576 0.000000 0.000000 0.000000
# 3 -0.006042 -0.006576 0.039257 0.000000 0.000000 0.000000
# 4 0.000000 0.000000 0.000000 0.525410 0.000000 0.000000
# 5 0.000000 0.000000 0.000000 0.000000 0.067576 0.000000
# 6 0.000000 0.000000 0.000000 0.000000 0.000000 0.028536
#
#
# Mechanical properties :
#
#
# Convention : Reuss Voigt Hill
#
# Bulk Modulus (GPa) = 31.89817 56.16197 44.03007
# Shear Modulus (GPa) = 6.74598 20.02666 13.38632
#
# Velocity S-wave (km/s) = 2.09315 3.60647 2.94855
# Velocity P-wave (km/s) = 5.15349 7.33603 6.33939
#
# Compressibility (1/GPa) = 0.03134977
#
# Stress axis : x y z
#
# Youngs Moduli (GPa) = 49.56908 92.17677 25.47292
#
# Poissons Ratio (x) = 0.63114 0.15390
# Poissons Ratio (y) = 0.33940 0.16751
# Poissons Ratio (z) = 0.29949 0.60617
#
# Static dielectric constant tensor:
#      x y z
#    x 3.053550 0.000000 0.000000 
#    y 0.000000 3.323190 0.000000 
#    z 0.000000 0.000000 2.667300 
# 
# 
# High freq. dielectric constant tensor:
#      x y z
#    x 1.603860 0.000000 0.000000 
#    y 0.000000 1.608470 0.000000 
#    z 0.000000 0.000000 1.510840 
# 
# From -- ./inp_files/31414.got.cif
#   From: 2010.03.12/outbox.cif.g09.slc.cpg/sg53_16_cif.got.tgz:31414.got - 2010.04.16 14:36:59.
