data_PCOD8217507
_publ_section_title
;
Structure prediction by ZEFSAII (Michael W. Deem and Ramdas Pophale) SiO2 
 PCOD8217507
Probable space group: P M N A
;
_chemical_formula_sum "Si O2"
_cell_formula_units_Z 64
_cell_length_a 9.031834
_cell_length_b 20.320170
_cell_length_c 23.036253
_cell_angle_alpha 90.000000
_cell_angle_beta 90.000000
_cell_angle_gamma 90.000000
_cell_volume 4227.806708
_symmetry_space_group_name_H-M "P M N A"
_symmetry_group_IT_number 53
_symmetry_cell_setting 'orthorhombic'
loop_
_space_group_symop_operation_xyz
x,y,z
1/2-x,-y,1/2+z
x,-y,-z
1/2-x,y,1/2-z
-x,-y,-z
1/2+x,y,1/2-z
-x,y,z
1/2+x,-y,1/2+z
loop_
_atom_site_type_symbol
_atom_site_label
_atom_site_fract_x
_atom_site_fract_y
_atom_site_fract_z
Si Si1 0.167943 0.909403 0.051445
Si Si2 0.830437 0.356901 0.527468
Si Si3 0.823953 0.288767 0.311499
Si Si4 0.165571 0.046114 0.080855
Si Si5 0.178394 0.815628 0.891330
Si Si6 0.327740 0.598927 0.900760
Si Si7 0.332367 0.476176 0.565768
Si Si8 0.672188 0.789454 0.012208
O O1 0.000000 0.893526 0.072086
O O2 0.239445 0.972885 0.086163
O O3 0.165635 0.929328 0.984764
O O4 0.270141 0.844767 0.057653
O O5 0.779736 0.366845 0.460881
O O6 0.738847 0.403592 0.571045
O O7 0.804501 0.280688 0.543764
O O8 0.000000 0.377620 0.534522
O O9 0.750000 0.300991 0.250000
O O10 0.751823 0.223851 0.339076
O O11 0.781428 0.352146 0.349540
O O12 0.000000 0.279032 0.306649
O O13 0.231965 0.107539 0.117412
O O14 0.000000 0.033886 0.102234
O O15 0.236480 0.788432 0.952594
O O16 0.000000 0.809989 0.890393
O O17 0.500000 0.583656 0.899557
O O18 0.245770 0.529113 0.892289
O O19 0.313685 0.500000 0.500000
O O20 0.500000 0.470641 0.586034
O O21 0.500000 0.801389 0.997387
#
# Coordination Sequence:
#
# PCOD8217507 Si02
#       8
#     8   8   8   8   8   8   8   8
#     4   8  13  23  36  52  74 103 135 166 196 234
#     4   9  16  27  40  55  79 111 137 162 201 247
#     4  11  22  35  47  63  82 105 138 176 214 252
#     4   7  12  23  38  53  72  99 134 166 199 240
#     4  10  18  29  44  58  74 104 138 173 211 246
#     4   9  17  31  45  55  75 106 134 163 205 252
#     4   9  17  26  39  61  80  96 129 171 202 237
#     4  10  17  25  37  57  83 109 138 170 201 240
#
# _framework density 15.137873000000001
#
# number of rings (size 3 to 8) (size 9 to 14) (size 15 to 20)
#    0.000    2.875    1.250    3.000    0.000    3.500 
#    0.000    5.625    0.000    0.000    0.000    0.000 
#    0.000    0.000    0.000    1.125    0.000   18.750 
#
# Total GULP energy -792878.136752 kJ/mol
# GULP energy per Si atom -12388.720887 kJ/mol
# Density = 1.510342 g / cm^3
# Si number density = 15.137873 Si / 1000 Ang^3
#
#
#
# Elastic Constant Matrix: (Units=GPa)
#
#
# Indices 1 2 3 4 5 6 
#
# 1 70.8581 59.6830 24.4188 0.0000 0.0000 0.0000
# 2 59.6830 149.3953 41.7851 0.0000 0.0000 0.0000
# 3 24.4188 41.7851 36.6871 0.0000 0.0000 0.0000
# 4 0.0000 0.0000 0.0000 14.1290 0.0000 0.0000
# 5 0.0000 0.0000 0.0000 0.0000 8.7817 0.0000
# 6 0.0000 0.0000 0.0000 0.0000 0.0000 27.0551
#
#
#
# Elastic Compliance Matrix: (Units=1/GPa)
#
#
# Indices 1 2 3 4 5 6 
#
# 1 0.022408 -0.007015 -0.006925 0.000000 0.000000 0.000000
# 2 -0.007015 0.012019 -0.009020 0.000000 0.000000 0.000000
# 3 -0.006925 -0.009020 0.042140 0.000000 0.000000 0.000000
# 4 0.000000 0.000000 0.000000 0.070776 0.000000 0.000000
# 5 0.000000 0.000000 0.000000 0.000000 0.113873 0.000000
# 6 0.000000 0.000000 0.000000 0.000000 0.000000 0.036962
#
#
# Mechanical properties :
#
#
# Convention : Reuss Voigt Hill
#
# Bulk Modulus (GPa) = 32.62925 56.52381 44.57653
# Shear Modulus (GPa) = 14.11184 18.73007 16.42096
#
# Velocity S-wave (km/s) = 3.05654 3.52134 3.29714
# Velocity P-wave (km/s) = 5.83593 7.34531 6.63369
#
# Compressibility (1/GPa) = 0.03064735
#
# Stress axis : x y z
#
# Youngs Moduli (GPa) = 44.62746 83.20174 23.73051
#
# Poissons Ratio (x) = 0.58366 0.16432
# Poissons Ratio (y) = 0.31306 0.21405
# Poissons Ratio (z) = 0.30903 0.75047
#
# Static dielectric constant tensor:
#      x y z
#    x 2.917540 0.000000 0.000000 
#    y 0.000000 3.433560 0.000000 
#    z 0.000000 0.000000 2.399800 
# 
# 
# High freq. dielectric constant tensor:
#      x y z
#    x 1.578880 0.000000 0.000000 
#    y 0.000000 1.600380 0.000000 
#    z 0.000000 0.000000 1.499120 
# 
# From -- ./inp_files/34549.got.cif
#   From: 2010.03.12/outbox.cif.g09.slc.cpg/sg53_18_cif.got.tgz:34549.got - 2010.04.16 14:36:59.
