data_PCOD8217025
_publ_section_title
;
Structure prediction by ZEFSAII (Michael W. Deem and Ramdas Pophale) SiO2 
 PCOD8217025
Probable space group: P N N A
;
_chemical_formula_sum "Si O2"
_cell_formula_units_Z 60
_cell_length_a 12.531885
_cell_length_b 11.100524
_cell_length_c 20.831725
_cell_angle_alpha 90.000000
_cell_angle_beta 90.000000
_cell_angle_gamma 90.000000
_cell_volume 2897.911477
_symmetry_space_group_name_H-M "P N N A"
_symmetry_group_IT_number 52
_symmetry_cell_setting 'orthorhombic'
loop_
_space_group_symop_operation_xyz
x,y,z
1/2-x,-y,z
x,1/2-y,1/2-z
1/2-x,1/2+y,1/2-z
-x,-y,-z
1/2+x,y,-z
-x,1/2+y,1/2+z
1/2+x,1/2-y,1/2+z
loop_
_atom_site_type_symbol
_atom_site_label
_atom_site_fract_x
_atom_site_fract_y
_atom_site_fract_z
Si Si1 0.750000 0.000000 0.041325
Si Si2 0.215726 0.370509 0.058375
Si Si3 0.026133 0.855752 0.565206
Si Si4 0.659696 0.421609 0.081314
Si Si5 0.873516 0.183351 0.960472
Si Si6 0.600001 0.708463 0.323230
Si Si7 0.537767 0.029974 0.120023
Si Si8 0.839180 0.785495 0.178129
O O1 0.854730 0.957689 0.078802
O O2 0.715826 0.885551 0.000198
O O3 0.250000 0.500000 0.085193
O O4 0.303297 0.273610 0.084118
O O5 0.097634 0.342965 0.082389
O O6 0.219428 0.364742 0.980425
O O7 0.049794 0.764666 0.506006
O O8 0.085963 0.822654 0.630998
O O9 0.062053 0.995544 0.553411
O O10 0.750000 0.500000 0.117956
O O11 0.620606 0.320328 0.130464
O O12 0.938431 0.081827 0.920486
O O13 0.577010 0.750000 0.250000
O O14 0.519886 0.602996 0.349603
O O15 0.720671 0.662964 0.337872
O O16 0.565534 0.117644 0.178919
O O17 0.827220 0.750000 0.250000
#
# Coordination Sequence:
#
# PCOD8217025 Si02
#       8
#     4   8   8   8   8   8   8   8
#     4  12  22  40  60  94 134 168 206 258 332 402
#     4  11  24  39  61  93 126 162 208 259 326 387
#     4  12  22  40  65  89 130 166 211 258 323 389
#     4  11  20  37  60  92 128 163 207 259 321 392
#     4  12  24  38  63  97 129 170 208 267 323 395
#     4  11  24  41  62  90 124 170 211 260 321 390
#     4  12  24  40  62  93 134 166 215 266 327 393
#     4  11  23  38  61  90 128 167 211 263 320 382
#
# _framework density 20.704567000000001
#
# number of rings (size 3 to 8) (size 9 to 14) (size 15 to 20)
#    0.000    0.533    6.667    3.200    5.600    0.000 
#    0.000    0.000    0.000    2.400    0.000    0.000 
#    0.000    0.000    0.000    0.000    0.000    0.000 
#
# Total GULP energy -743516.870059 kJ/mol
# GULP energy per Si atom -12391.947834 kJ/mol
# Density = 2.065744 g / cm^3
# Si number density = 20.704567 Si / 1000 Ang^3
#
#
#
# Elastic Constant Matrix: (Units=GPa)
#
#
# Indices 1 2 3 4 5 6 
#
# 1 94.3573 33.0740 16.1116 0.0000 0.0000 0.0000
# 2 33.0740 99.2354 12.8769 0.0000 0.0000 0.0000
# 3 16.1116 12.8769 42.7671 0.0000 0.0000 0.0000
# 4 0.0000 0.0000 0.0000 21.4126 0.0000 0.0000
# 5 0.0000 0.0000 0.0000 0.0000 14.2917 0.0000
# 6 0.0000 0.0000 0.0000 0.0000 0.0000 33.3497
#
#
#
# Elastic Compliance Matrix: (Units=1/GPa)
#
#
# Indices 1 2 3 4 5 6 
#
# 1 0.012510 -0.003703 -0.003598 0.000000 0.000000 0.000000
# 2 -0.003703 0.011583 -0.002093 0.000000 0.000000 0.000000
# 3 -0.003598 -0.002093 0.025368 0.000000 0.000000 0.000000
# 4 0.000000 0.000000 0.000000 0.046701 0.000000 0.000000
# 5 0.000000 0.000000 0.000000 0.000000 0.069971 0.000000
# 6 0.000000 0.000000 0.000000 0.000000 0.000000 0.029985
#
#
# Mechanical properties :
#
#
# Convention : Reuss Voigt Hill
#
# Bulk Modulus (GPa) = 32.60062 40.05386 36.32724
# Shear Modulus (GPa) = 22.20943 25.43062 23.82003
#
# Velocity S-wave (km/s) = 3.27874 3.50846 3.39554
# Velocity P-wave (km/s) = 5.48756 5.98329 5.74078
#
# Compressibility (1/GPa) = 0.03067427
#
# Stress axis : x y z
#
# Youngs Moduli (GPa) = 79.93453 86.33620 39.41968
#
# Poissons Ratio (x) = 0.31967 0.14184
# Poissons Ratio (y) = 0.29597 0.08249
# Poissons Ratio (z) = 0.28762 0.18066
#
# Static dielectric constant tensor:
#      x y z
#    x 3.606040 0.000000 0.000000 
#    y 0.000000 3.981800 0.000000 
#    z 0.000000 0.000000 3.456220 
# 
# 
# High freq. dielectric constant tensor:
#      x y z
#    x 1.800920 0.000000 0.000000 
#    y 0.000000 1.833210 0.000000 
#    z 0.000000 0.000000 1.767120 
# 
# From -- ./inp_files/36887.got.cif
#   From: 2010.06.25/outbox.cif.g09.slc.cpg/sg52_19_cif.got.tgz:36887.got - 2010.06.26 19:32:48.
