data_PCOD8217593
_publ_section_title
;
Structure prediction by ZEFSAII (Michael W. Deem and Ramdas Pophale) SiO2 
 PCOD8217593
Probable space group: P M N A
;
_chemical_formula_sum "Si O2"
_cell_formula_units_Z 56
_cell_length_a 15.491882
_cell_length_b 22.508380
_cell_length_c 8.007349
_cell_angle_alpha 90.000000
_cell_angle_beta 90.000000
_cell_angle_gamma 90.000000
_cell_volume 2792.139911
_symmetry_space_group_name_H-M "P M N A"
_symmetry_group_IT_number 53
_symmetry_cell_setting 'orthorhombic'
loop_
_space_group_symop_operation_xyz
x,y,z
1/2-x,-y,1/2+z
x,-y,-z
1/2-x,y,1/2-z
-x,-y,-z
1/2+x,y,1/2-z
-x,y,z
1/2+x,-y,1/2+z
loop_
_atom_site_type_symbol
_atom_site_label
_atom_site_fract_x
_atom_site_fract_y
_atom_site_fract_z
Si Si1 0.601132 0.362261 0.994679
Si Si2 0.897216 0.437417 0.812658
Si Si3 0.102531 0.572030 0.819168
Si Si4 0.744152 0.852221 0.931167
Si Si5 0.831352 0.752507 0.339379
Si Si6 0.404128 0.069886 0.978717
Si Si7 0.403624 0.857503 0.351929
O O1 0.500000 0.373972 0.001700
O O2 0.641644 0.399137 0.839602
O O3 0.617979 0.293160 0.957890
O O4 0.640692 0.384526 0.173404
O O5 0.866150 0.504876 0.784069
O O6 0.000000 0.434986 0.811884
O O7 0.865232 0.410942 0.992860
O O8 0.000000 0.575216 0.815195
O O9 0.750000 0.823143 0.750000
O O10 0.709711 0.802801 0.050618
O O11 0.673996 0.904844 0.910845
O O12 0.836563 0.873911 0.001419
O O13 0.750000 0.719840 0.250000
O O14 0.893285 0.788781 0.212494
O O15 0.500000 0.091978 0.036589
O O16 0.388822 0.092791 0.790082
O O17 0.399137 0.000000 0.000000
O O18 0.500000 0.862535 0.425817
#
# Coordination Sequence:
#
# PCOD8217593 Si02
#       7
#     8   8   8   8   8   8   8
#     4  10  17  27  48  74  96 127 173 216 266 325
#     4   8  14  25  42  68 102 129 157 204 265 322
#     4   8  14  25  41  69 103 128 157 207 262 322
#     4  10  21  36  55  79 111 149 189 229 277 328
#     4   9  19  36  51  69  99 138 177 224 277 329
#     4   9  18  34  58  86 115 149 187 225 267 318
#     4   9  18  36  59  79 107 147 188 230 279 328
#
# _framework density 20.056301000000001
#
# number of rings (size 3 to 8) (size 9 to 14) (size 15 to 20)
#    0.000    3.000    0.000    3.000    0.000    4.000 
#    5.143    0.000    0.000    3.000    7.429    0.000 
#    0.000    0.000    0.000    0.000    0.000    2.286 
#
# Total GULP energy -693764.651583 kJ/mol
# GULP energy per Si atom -12388.654493 kJ/mol
# Density = 2.001065 g / cm^3
# Si number density = 20.056301 Si / 1000 Ang^3
#
#
#
# Elastic Constant Matrix: (Units=GPa)
#
#
# Indices 1 2 3 4 5 6 
#
# 1 74.5063 21.6101 34.7188 0.0000 0.0000 0.0000
# 2 21.6101 74.4954 30.4300 0.0000 0.0000 0.0000
# 3 34.7188 30.4300 103.4431 0.0000 0.0000 0.0000
# 4 0.0000 0.0000 0.0000 -7.2702 0.0000 0.0000
# 5 0.0000 0.0000 0.0000 0.0000 10.1696 0.0000
# 6 0.0000 0.0000 0.0000 0.0000 0.0000 -3.7589
#
#
#
# Elastic Compliance Matrix: (Units=1/GPa)
#
#
# Indices 1 2 3 4 5 6 
#
# 1 0.016428 -0.002857 -0.004673 0.000000 0.000000 0.000000
# 2 -0.002857 0.015754 -0.003676 0.000000 0.000000 0.000000
# 3 -0.004673 -0.003676 0.012317 0.000000 0.000000 0.000000
# 4 0.000000 0.000000 0.000000 -0.137547 0.000000 0.000000
# 5 0.000000 0.000000 0.000000 0.000000 0.098333 0.000000
# 6 0.000000 0.000000 0.000000 0.000000 0.000000 -0.266037
#
#
# Mechanical properties :
#
#
# Convention : Reuss Voigt Hill
#
# Bulk Modulus (GPa) = 45.27432 47.32918 46.30175
# Shear Modulus (GPa) = -21.64689 10.87382 -5.38654
#
# Velocity S-wave (km/s) = -3.28884 2.33097 -1.64059
# Velocity P-wave (km/s) = 2.86367 5.55823 4.42123
#
# Compressibility (1/GPa) = 0.02208758
#
# Stress axis : x y z
#
# Youngs Moduli (GPa) = 60.87188 63.47724 81.18897
#
# Poissons Ratio (x) = 0.18132 0.37943
# Poissons Ratio (y) = 0.17388 0.29841
# Poissons Ratio (z) = 0.28448 0.23331
#
# Static dielectric constant tensor:
#      x y z
#    x 3.892080 0.000000 0.000000 
#    y 0.000000 3.516540 0.000000 
#    z 0.000000 0.000000 3.615410 
# 
# 
# High freq. dielectric constant tensor:
#      x y z
#    x 1.770880 0.000000 0.000000 
#    y 0.000000 1.762340 0.000000 
#    z 0.000000 0.000000 1.778130 
# 
# From -- ./inp_files/8828.got.cif
#   From: 2010.03.12/outbox.cif.g09.slc.cpg/sg53_5_cif.got.tgz:8828.got - 2010.04.16 14:36:59.
