data_PCOD8217098
_publ_section_title
;
Structure prediction by ZEFSAII (Michael W. Deem and Ramdas Pophale) SiO2 
 PCOD8217098
Probable space group: P N N A
;
_chemical_formula_sum "Si O2"
_cell_formula_units_Z 40
_cell_length_a 15.348144
_cell_length_b 15.726639
_cell_length_c 7.677605
_cell_angle_alpha 90.000000
_cell_angle_beta 90.000000
_cell_angle_gamma 90.000000
_cell_volume 1853.179757
_symmetry_space_group_name_H-M "P N N A"
_symmetry_group_IT_number 52
_symmetry_cell_setting 'orthorhombic'
loop_
_space_group_symop_operation_xyz
x,y,z
1/2-x,-y,z
x,1/2-y,1/2-z
1/2-x,1/2+y,1/2-z
-x,-y,-z
1/2+x,y,-z
-x,1/2+y,1/2+z
1/2+x,1/2-y,1/2+z
loop_
_atom_site_type_symbol
_atom_site_label
_atom_site_fract_x
_atom_site_fract_y
_atom_site_fract_z
Si Si1 0.085841 0.322076 0.620705
Si Si2 0.903527 0.382519 0.553962
Si Si3 0.259560 0.250827 0.957954
Si Si4 0.852162 0.995731 0.244228
Si Si5 0.821308 0.429461 0.905316
O O1 0.053498 0.250000 0.750000
O O2 0.164095 0.288417 0.495009
O O3 0.119453 0.398341 0.742769
O O4 0.000201 0.347929 0.514487
O O5 0.833884 0.308449 0.534028
O O6 0.895894 0.457814 0.417262
O O7 0.890419 0.418267 0.749463
O O8 0.267842 0.250000 0.750000
O O9 0.269939 0.343307 0.043121
O O10 0.877328 0.039071 0.428121
O O11 0.750000 0.000000 0.218528
O O12 0.750000 0.500000 0.850393
#
# Coordination Sequence:
#
# PCOD8217098 Si02
#       5
#     8   8   8   8   8
#     4  11  23  41  69  98 135 176 223 273 334 397
#     4  12  24  43  70  99 130 175 226 277 326 397
#     4  11  21  44  69  90 136 178 212 272 340 390
#     4  11  21  44  69  93 138 182 211 272 340 388
#     4  11  23  40  70  99 131 175 224 269 330 396
#
# _framework density 21.584523999999998
#
# number of rings (size 3 to 8) (size 9 to 14) (size 15 to 20)
#    0.000    0.800    4.000    6.600    0.000    0.800 
#    0.000    4.000    4.400    0.000    0.000    0.000 
#    0.000    0.000    0.000    0.000    0.000    0.000 
#
# Total GULP energy -496006.466714 kJ/mol
# GULP energy per Si atom -12400.161668 kJ/mol
# Density = 2.153540 g / cm^3
# Si number density = 21.584524 Si / 1000 Ang^3
#
#
#
# Elastic Constant Matrix: (Units=GPa)
#
#
# Indices 1 2 3 4 5 6 
#
# 1 103.7774 27.5111 38.4544 0.0000 0.0000 0.0000
# 2 27.5111 135.7910 41.3318 0.0000 0.0000 0.0000
# 3 38.4544 41.3318 107.7842 0.0000 0.0000 0.0000
# 4 0.0000 0.0000 0.0000 32.5331 0.0000 0.0000
# 5 0.0000 0.0000 0.0000 0.0000 14.2671 0.0000
# 6 0.0000 0.0000 0.0000 0.0000 0.0000 26.9736
#
#
#
# Elastic Compliance Matrix: (Units=1/GPa)
#
#
# Indices 1 2 3 4 5 6 
#
# 1 0.011274 -0.001200 -0.003562 0.000000 0.000000 0.000000
# 2 -0.001200 0.008465 -0.002818 0.000000 0.000000 0.000000
# 3 -0.003562 -0.002818 0.011629 0.000000 0.000000 0.000000
# 4 0.000000 0.000000 0.000000 0.030738 0.000000 0.000000
# 5 0.000000 0.000000 0.000000 0.000000 0.070091 0.000000
# 6 0.000000 0.000000 0.000000 0.000000 0.000000 0.037073
#
#
# Mechanical properties :
#
#
# Convention : Reuss Voigt Hill
#
# Bulk Modulus (GPa) = 61.69656 62.43857 62.06757
# Shear Modulus (GPa) = 26.33885 30.75846 28.54865
#
# Velocity S-wave (km/s) = 3.49702 3.77904 3.64076
# Velocity P-wave (km/s) = 6.70457 6.93050 6.81847
#
# Compressibility (1/GPa) = 0.01620836
#
# Stress axis : x y z
#
# Youngs Moduli (GPa) = 88.69943 118.13217 85.98971
#
# Poissons Ratio (x) = 0.14174 0.30631
# Poissons Ratio (y) = 0.10643 0.24232
# Poissons Ratio (z) = 0.31596 0.33290
#
# Static dielectric constant tensor:
#      x y z
#    x 3.978970 0.000000 0.000000 
#    y 0.000000 4.178740 0.000000 
#    z 0.000000 0.000000 3.955280 
# 
# 
# High freq. dielectric constant tensor:
#      x y z
#    x 1.843670 0.000000 0.000000 
#    y 0.000000 1.874410 0.000000 
#    z 0.000000 0.000000 1.835320 
# 
# From -- ./inp_files/10214.got.cif
#   From: 2010.06.25/outbox.cif.g09.slc.cpg/sg52_6_cif.got.tgz:10214.got - 2010.06.26 19:32:48.
