data_PCOD8217244
_publ_section_title
;
Structure prediction by ZEFSAII (Michael W. Deem and Ramdas Pophale) SiO2 
 PCOD8217244
Probable space group: P N N A
;
_chemical_formula_sum "Si O2"
_cell_formula_units_Z 40
_cell_length_a 27.213157
_cell_length_b 7.390660
_cell_length_c 9.171856
_cell_angle_alpha 90.000000
_cell_angle_beta 90.000000
_cell_angle_gamma 90.000000
_cell_volume 1844.672945
_symmetry_space_group_name_H-M "P N N A"
_symmetry_group_IT_number 52
_symmetry_cell_setting 'orthorhombic'
loop_
_space_group_symop_operation_xyz
x,y,z
1/2-x,-y,z
x,1/2-y,1/2-z
1/2-x,1/2+y,1/2-z
-x,-y,-z
1/2+x,y,-z
-x,1/2+y,1/2+z
1/2+x,1/2-y,1/2+z
loop_
_atom_site_type_symbol
_atom_site_label
_atom_site_fract_x
_atom_site_fract_y
_atom_site_fract_z
Si Si1 0.639399 0.615528 0.385658
Si Si2 0.874903 0.750000 0.750000
Si Si3 0.050144 0.768153 0.420651
Si Si4 0.551733 0.325073 0.990733
Si Si5 0.388809 0.750000 0.750000
Si Si6 0.194981 0.932789 0.167167
O O1 0.649256 0.750000 0.250000
O O2 0.590586 0.677388 0.474526
O O3 0.640924 0.406991 0.332301
O O4 0.684323 0.612917 0.498284
O O5 0.909882 0.718358 0.610841
O O6 0.840671 0.573841 0.749529
O O7 0.062217 0.750000 0.250000
O O8 0.996977 0.700723 0.482176
O O9 0.042380 0.982244 0.422180
O O10 0.577215 0.365077 0.143516
O O11 0.186377 0.750000 0.250000
O O12 0.250000 0.000000 0.181904
#
# Coordination Sequence:
#
# PCOD8217244 Si02
#       6
#     8   4   8   8   4   8
#     4  12  26  46  71 104 146 186 234 295 355 430
#     4  12  24  46  74 107 143 188 244 300 360 436
#     4  11  24  42  68 105 148 197 247 286 350 431
#     4  11  24  41  68 104 145 195 236 293 358 418
#     4  12  24  44  64  97 143 184 226 284 348 414
#     4  12  27  51  78 105 136 184 242 306 369 435
#
# _framework density 21.684059000000001
#
# number of rings (size 3 to 8) (size 9 to 14) (size 15 to 20)
#    0.000    0.400    6.000    3.000    1.400    0.800 
#    1.800    0.000    0.000    0.000    0.000    0.000 
#    0.000    0.000    0.000    0.000    0.000    0.000 
#
# Total GULP energy -495609.840365 kJ/mol
# GULP energy per Si atom -12390.246009 kJ/mol
# Density = 2.163471 g / cm^3
# Si number density = 21.684059 Si / 1000 Ang^3
#
#
#
# Elastic Constant Matrix: (Units=GPa)
#
#
# Indices 1 2 3 4 5 6 
#
# 1 63.0519 14.8068 8.9764 0.0000 0.0000 0.0000
# 2 14.8068 121.2962 34.7286 0.0000 0.0000 0.0000
# 3 8.9764 34.7286 120.8030 0.0000 0.0000 0.0000
# 4 0.0000 0.0000 0.0000 37.6771 0.0000 0.0000
# 5 0.0000 0.0000 0.0000 0.0000 9.6657 0.0000
# 6 0.0000 0.0000 0.0000 0.0000 0.0000 15.1806
#
#
#
# Elastic Compliance Matrix: (Units=1/GPa)
#
#
# Indices 1 2 3 4 5 6 
#
# 1 0.016382 -0.001799 -0.000700 0.000000 0.000000 0.000000
# 2 -0.001799 0.009181 -0.002506 0.000000 0.000000 0.000000
# 3 -0.000700 -0.002506 0.009050 0.000000 0.000000 0.000000
# 4 0.000000 0.000000 0.000000 0.026541 0.000000 0.000000
# 5 0.000000 0.000000 0.000000 0.000000 0.103458 0.000000
# 6 0.000000 0.000000 0.000000 0.000000 0.000000 0.065874
#
#
# Mechanical properties :
#
#
# Convention : Reuss Voigt Hill
#
# Bulk Modulus (GPa) = 40.64455 46.90831 43.77643
# Shear Modulus (GPa) = 20.10467 28.94732 24.52599
#
# Velocity S-wave (km/s) = 3.04824 3.65767 3.36677
# Velocity P-wave (km/s) = 5.58334 6.28631 5.94522
#
# Compressibility (1/GPa) = 0.02460354
#
# Stress axis : x y z
#
# Youngs Moduli (GPa) = 61.04202 108.91630 110.49336
#
# Poissons Ratio (x) = 0.19598 0.07735
# Poissons Ratio (y) = 0.10984 0.27687
# Poissons Ratio (z) = 0.04273 0.27292
#
# Static dielectric constant tensor:
#      x y z
#    x 4.063670 0.000000 0.000000 
#    y 0.000000 2.842070 0.000000 
#    z 0.000000 0.000000 2.394970 
# 
# 
# High freq. dielectric constant tensor:
#      x y z
#    x 1.839780 0.000000 0.000000 
#    y 0.000000 1.865310 0.000000 
#    z 0.000000 0.000000 1.870440 
# 
# From -- ./inp_files/14873.got.cif
#   From: 2010.06.25/outbox.cif.g09.slc.cpg/sg52_8_cif.got.tgz:14873.got - 2010.06.26 19:32:48.
