data_PCOD8217961
_publ_section_title
;
Structure prediction by ZEFSAII (Michael W. Deem and Ramdas Pophale) SiO2 
 PCOD8217961
Probable space group: P M N A
;
_chemical_formula_sum "Si O2"
_cell_formula_units_Z 32
_cell_length_a 8.655049
_cell_length_b 20.966403
_cell_length_c 9.244735
_cell_angle_alpha 90.000000
_cell_angle_beta 90.000000
_cell_angle_gamma 90.000000
_cell_volume 1677.598105
_symmetry_space_group_name_H-M "P M N A"
_symmetry_group_IT_number 53
_symmetry_cell_setting 'orthorhombic'
loop_
_space_group_symop_operation_xyz
x,y,z
1/2-x,-y,1/2+z
x,-y,-z
1/2-x,y,1/2-z
-x,-y,-z
1/2+x,y,1/2-z
-x,y,z
1/2+x,-y,1/2+z
loop_
_atom_site_type_symbol
_atom_site_label
_atom_site_fract_x
_atom_site_fract_y
_atom_site_fract_z
Si Si1 0.183012 0.818343 0.090694
Si Si2 0.683299 0.310900 0.910642
Si Si3 0.182539 0.940036 0.908912
Si Si4 0.182163 0.561096 0.091877
O O1 0.250000 0.829929 0.250000
O O2 0.250560 0.753666 0.016966
O O3 0.000000 0.813106 0.102767
O O4 0.237235 0.875931 0.988944
O O5 0.750000 0.312299 0.750000
O O6 0.500000 0.309361 0.911496
O O7 0.744880 0.375875 0.985680
O O8 0.250000 0.942157 0.750000
O O9 0.000000 0.943069 0.897092
O O10 0.246263 0.000000 0.000000
O O11 0.250000 0.550777 0.250000
O O12 0.000000 0.570124 0.101847
O O13 0.230900 0.500000 0.000000
#
# Coordination Sequence:
#
# PCOD8217961 Si02
#       4
#     8   8   8   8
#     4  10  19  33  54  79 106 135 172 215 259 309
#     4  10  18  30  51  76 103 136 174 213 257 309
#     4  10  22  38  56  80 108 139 175 215 259 308
#     4  10  20  34  53  77 105 137 174 216 261 309
#
# _framework density 19.074891000000001
#
# number of rings (size 3 to 8) (size 9 to 14) (size 15 to 20)
#    0.000    2.000    0.000    7.500    0.000    4.500 
#    0.000    1.250    0.000    0.000    0.000    0.000 
#    0.000    0.000    0.000    0.000    0.000    0.000 
#
# Total GULP energy -396727.128133 kJ/mol
# GULP energy per Si atom -12397.722754 kJ/mol
# Density = 1.903148 g / cm^3
# Si number density = 19.074891 Si / 1000 Ang^3
#
#
#
# Elastic Constant Matrix: (Units=GPa)
#
#
# Indices 1 2 3 4 5 6 
#
# 1 96.6559 72.5744 32.1938 0.0000 0.0000 0.0000
# 2 72.5744 232.7128 82.1968 0.0000 0.0000 0.0000
# 3 32.1938 82.1968 90.7879 0.0000 0.0000 0.0000
# 4 0.0000 0.0000 0.0000 30.8365 0.0000 0.0000
# 5 0.0000 0.0000 0.0000 0.0000 27.0722 0.0000
# 6 0.0000 0.0000 0.0000 0.0000 0.0000 3.5763
#
#
#
# Elastic Compliance Matrix: (Units=1/GPa)
#
#
# Indices 1 2 3 4 5 6 
#
# 1 0.013638 -0.003741 -0.001449 0.000000 0.000000 0.000000
# 2 -0.003741 0.007344 -0.005322 0.000000 0.000000 0.000000
# 3 -0.001449 -0.005322 0.016347 0.000000 0.000000 0.000000
# 4 0.000000 0.000000 0.000000 0.032429 0.000000 0.000000
# 5 0.000000 0.000000 0.000000 0.000000 0.036938 0.000000
# 6 0.000000 0.000000 0.000000 0.000000 0.000000 0.279617
#
#
# Mechanical properties :
#
#
# Convention : Reuss Voigt Hill
#
# Bulk Modulus (GPa) = 61.33445 88.23183 74.78314
# Shear Modulus (GPa) = 12.11322 27.84311 19.97817
#
# Velocity S-wave (km/s) = 2.52272 3.82471 3.23980
# Velocity P-wave (km/s) = 6.38043 8.11545 7.29967
#
# Compressibility (1/GPa) = 0.01630405
#
# Stress axis : x y z
#
# Youngs Moduli (GPa) = 73.32593 136.16947 61.17380
#
# Poissons Ratio (x) = 0.50947 0.08862
# Poissons Ratio (y) = 0.27434 0.32557
# Poissons Ratio (z) = 0.10622 0.72471
#
# Static dielectric constant tensor:
#      x y z
#    x 3.512770 0.000000 0.000000 
#    y 0.000000 4.593090 0.000000 
#    z 0.000000 0.000000 3.163430 
# 
# 
# High freq. dielectric constant tensor:
#      x y z
#    x 1.752570 0.000000 0.000000 
#    y 0.000000 1.774470 0.000000 
#    z 0.000000 0.000000 1.699850 
# 
# From -- ./inp_files/6011.got.cif
#   From: 2010.03.12/outbox.cif.g09.slc.cpg/sg53_4_cif.got.tgz:6011.got - 2010.04.16 14:36:59.
