data_PCOD8217451
_publ_section_title
;
Structure prediction by ZEFSAII (Michael W. Deem and Ramdas Pophale) SiO2 
 PCOD8217451
Probable space group: P N N A
;
_chemical_formula_sum "Si O2"
_cell_formula_units_Z 48
_cell_length_a 14.982155
_cell_length_b 14.317534
_cell_length_c 14.270687
_cell_angle_alpha 90.000000
_cell_angle_beta 90.000000
_cell_angle_gamma 90.000000
_cell_volume 3061.169586
_symmetry_space_group_name_H-M "P N N A"
_symmetry_group_IT_number 52
_symmetry_cell_setting 'orthorhombic'
loop_
_space_group_symop_operation_xyz
x,y,z
1/2-x,-y,z
x,1/2-y,1/2-z
1/2-x,1/2+y,1/2-z
-x,-y,-z
1/2+x,y,-z
-x,1/2+y,1/2+z
1/2+x,1/2-y,1/2+z
loop_
_atom_site_type_symbol
_atom_site_label
_atom_site_fract_x
_atom_site_fract_y
_atom_site_fract_z
Si Si1 0.750000 0.000000 0.704154
Si Si2 0.606164 0.253359 0.900962
Si Si3 0.250000 0.000000 0.599726
Si Si4 0.474165 0.353579 0.021851
Si Si5 0.582711 0.402867 0.737700
Si Si6 0.277951 0.346772 0.052422
Si Si7 0.444740 0.497809 0.854573
O O1 0.666389 0.027337 0.768783
O O2 0.780279 0.087109 0.642359
O O3 0.594918 0.331963 0.822836
O O4 0.579336 0.152129 0.860582
O O5 0.709389 0.260144 0.934946
O O6 0.541019 0.272511 0.988308
O O7 0.246512 0.092736 0.536465
O O8 0.338399 0.996971 0.664657
O O9 0.377914 0.306572 0.041499
O O10 0.514276 0.402097 0.115160
O O11 0.462229 0.429539 0.940992
O O12 0.492320 0.461323 0.759290
#
# Coordination Sequence:
#
# PCOD8217451 Si02
#       7
#     4   8   4   8   8   8   8
#     4   9  14  22  36  54  76 109 134 168 210 255
#     4   9  16  24  34  56  85 109 135 172 210 255
#     4   9  14  20  36  56  82 107 140 170 204 245
#     4   9  14  22  35  54  81 109 136 170 209 249
#     4   9  16  24  35  54  85 111 135 166 214 259
#     4   9  14  21  36  55  79 108 136 171 211 246
#     4   9  14  22  34  56  80 111 138 168 204 256
#
# _framework density 15.680281000000001
#
# number of rings (size 3 to 8) (size 9 to 14) (size 15 to 20)
#    0.000    3.000    3.333    0.000    0.000    0.000 
#    0.000    0.000    0.000    0.000    0.000    3.500 
#    5.000    0.000    0.000    0.000    0.000    0.000 
#
# Total GULP energy -594810.296183 kJ/mol
# GULP energy per Si atom -12391.881170 kJ/mol
# Density = 1.564459 g / cm^3
# Si number density = 15.680281 Si / 1000 Ang^3
#
#
#
# Elastic Constant Matrix: (Units=GPa)
#
#
# Indices 1 2 3 4 5 6 
#
# 1 162.4949 52.3602 45.7094 0.0000 0.0000 0.0000
# 2 52.3602 47.4443 33.1100 0.0000 0.0000 0.0000
# 3 45.7094 33.1100 35.4009 0.0000 0.0000 0.0000
# 4 0.0000 0.0000 0.0000 14.5739 0.0000 0.0000
# 5 0.0000 0.0000 0.0000 0.0000 12.7874 0.0000
# 6 0.0000 0.0000 0.0000 0.0000 0.0000 14.8620
#
#
#
# Elastic Compliance Matrix: (Units=1/GPa)
#
#
# Indices 1 2 3 4 5 6 
#
# 1 0.010217 -0.005958 -0.007620 0.000000 0.000000 0.000000
# 2 -0.005958 0.064166 -0.052320 0.000000 0.000000 0.000000
# 3 -0.007620 -0.052320 0.087021 0.000000 0.000000 0.000000
# 4 0.000000 0.000000 0.000000 0.068616 0.000000 0.000000
# 5 0.000000 0.000000 0.000000 0.000000 0.078202 0.000000
# 6 0.000000 0.000000 0.000000 0.000000 0.000000 0.067286
#
#
# Mechanical properties :
#
#
# Convention : Reuss Voigt Hill
#
# Bulk Modulus (GPa) = 33.77517 56.41102 45.09309
# Shear Modulus (GPa) = 9.66794 16.05535 12.86164
#
# Velocity S-wave (km/s) = 2.48577 3.20335 2.86710
# Velocity P-wave (km/s) = 5.46126 7.05236 6.30719
#
# Compressibility (1/GPa) = 0.02960755
#
# Stress axis : x y z
#
# Youngs Moduli (GPa) = 97.87166 15.58464 11.49151
#
# Poissons Ratio (x) = 0.09286 0.08756
# Poissons Ratio (y) = 0.58317 0.60123
# Poissons Ratio (z) = 0.74577 0.81539
#
# Static dielectric constant tensor:
#      x y z
#    x 3.311050 0.000000 0.000000 
#    y 0.000000 2.699640 0.000000 
#    z 0.000000 0.000000 2.611030 
# 
# 
# High freq. dielectric constant tensor:
#      x y z
#    x 1.621850 0.000000 0.000000 
#    y 0.000000 1.553190 0.000000 
#    z 0.000000 0.000000 1.540680 
# 
# From -- ./inp_files/19553.got.cif
#   From: 2010.06.25/outbox.cif.g09.slc.cpg/sg52_10_cif.got.tgz:19553.got - 2010.06.26 19:32:48.
