data_PCOD8217683
_publ_section_title
;
Structure prediction by ZEFSAII (Michael W. Deem and Ramdas Pophale) SiO2 
 PCOD8217683
Probable space group: P M N A
;
_chemical_formula_sum "Si O2"
_cell_formula_units_Z 64
_cell_length_a 9.107839
_cell_length_b 26.203300
_cell_length_c 18.213869
_cell_angle_alpha 90.000000
_cell_angle_beta 90.000000
_cell_angle_gamma 90.000000
_cell_volume 4346.838878
_symmetry_space_group_name_H-M "P M N A"
_symmetry_group_IT_number 53
_symmetry_cell_setting 'orthorhombic'
loop_
_space_group_symop_operation_xyz
x,y,z
1/2-x,-y,1/2+z
x,-y,-z
1/2-x,y,1/2-z
-x,-y,-z
1/2+x,y,1/2-z
-x,y,z
1/2+x,-y,1/2+z
loop_
_atom_site_type_symbol
_atom_site_label
_atom_site_fract_x
_atom_site_fract_y
_atom_site_fract_z
Si Si1 0.829704 0.101836 0.574391
Si Si2 0.173686 0.492243 0.826110
Si Si3 0.327766 0.003878 0.828055
Si Si4 0.670835 0.596218 0.086610
Si Si5 0.169567 0.307242 0.677075
Si Si6 0.166101 0.050319 0.048718
Si Si7 0.327809 0.807374 0.175563
Si Si8 0.838599 0.445851 0.039377
O O1 0.796049 0.057898 0.633556
O O2 0.738149 0.095342 0.499483
O O3 0.780104 0.155549 0.609543
O O4 0.000000 0.101203 0.552563
O O5 0.250000 0.504711 0.750000
O O6 0.239717 0.440745 0.859968
O O7 0.208091 0.541786 0.876975
O O8 0.000000 0.483937 0.816625
O O9 0.250000 0.004062 0.750000
O O10 0.500000 0.993679 0.818142
O O11 0.259237 0.958498 0.877299
O O12 0.500000 0.582154 0.091848
O O13 0.702955 0.654324 0.110432
O O14 0.723452 0.590755 0.002039
O O15 0.250000 0.326550 0.750000
O O16 0.220189 0.250270 0.654102
O O17 0.000000 0.307312 0.697598
O O18 0.000000 0.065436 0.069759
O O19 0.170309 0.000000 0.000000
O O20 0.250000 0.825136 0.250000
O O21 0.500000 0.812159 0.189744
O O22 0.000000 0.420153 0.036522
O O23 0.845048 0.500000 0.000000
#
# Coordination Sequence:
#
# PCOD8217683 Si02
#       8
#     8   8   8   8   8   8   8   8
#     4   9  17  28  42  58  78 107 137 166 200 236
#     4  10  19  29  41  58  80 105 133 164 198 236
#     4  10  18  27  40  59  82 106 135 166 197 235
#     4  10  18  27  41  59  79 106 138 167 197 234
#     4   9  18  29  40  57  80 106 136 169 200 231
#     4   9  17  28  41  57  78 104 133 165 199 236
#     4   9  17  29  42  57  80 107 136 169 202 233
#     4   8  16  29  41  55  77 103 130 162 198 235
#
# _framework density 14.723343
#
# number of rings (size 3 to 8) (size 9 to 14) (size 15 to 20)
#    0.000    2.750    0.000    3.000    0.000    7.250 
#    0.000    0.000    0.000    0.000    0.000    0.000 
#    0.000    1.000    0.000    4.250    0.000    3.875 
#
# Total GULP energy -793413.594844 kJ/mol
# GULP energy per Si atom -12397.087419 kJ/mol
# Density = 1.468983 g / cm^3
# Si number density = 14.723343 Si / 1000 Ang^3
#
#
#
# Elastic Constant Matrix: (Units=GPa)
#
#
# Indices 1 2 3 4 5 6 
#
# 1 84.7584 38.3967 55.5776 0.0000 0.0000 0.0000
# 2 38.3967 65.2519 43.1887 0.0000 0.0000 0.0000
# 3 55.5776 43.1887 95.7336 0.0000 0.0000 0.0000
# 4 0.0000 0.0000 0.0000 21.6951 0.0000 0.0000
# 5 0.0000 0.0000 0.0000 0.0000 29.4541 0.0000
# 6 0.0000 0.0000 0.0000 0.0000 0.0000 15.6274
#
#
#
# Elastic Compliance Matrix: (Units=1/GPa)
#
#
# Indices 1 2 3 4 5 6 
#
# 1 0.020570 -0.005988 -0.009240 0.000000 0.000000 0.000000
# 2 -0.005988 0.023593 -0.007167 0.000000 0.000000 0.000000
# 3 -0.009240 -0.007167 0.019043 0.000000 0.000000 0.000000
# 4 0.000000 0.000000 0.000000 0.046093 0.000000 0.000000
# 5 0.000000 0.000000 0.000000 0.000000 0.033951 0.000000
# 6 0.000000 0.000000 0.000000 0.000000 0.000000 0.063990
#
#
# Mechanical properties :
#
#
# Convention : Reuss Voigt Hill
#
# Bulk Modulus (GPa) = 54.30391 57.78553 56.04472
# Shear Modulus (GPa) = 19.36708 20.59405 19.98057
#
# Velocity S-wave (km/s) = 3.63078 3.74402 3.68784
# Velocity P-wave (km/s) = 7.38510 7.61729 7.50209
#
# Compressibility (1/GPa) = 0.01841488
#
# Stress axis : x y z
#
# Youngs Moduli (GPa) = 48.61445 42.38621 52.51186
#
# Poissons Ratio (x) = 0.25382 0.48523
# Poissons Ratio (y) = 0.29112 0.37635
# Poissons Ratio (z) = 0.44921 0.30378
#
# Static dielectric constant tensor:
#      x y z
#    x 2.985280 0.000000 0.000000 
#    y 0.000000 2.768340 0.000000 
#    z 0.000000 0.000000 2.992170 
# 
# 
# High freq. dielectric constant tensor:
#      x y z
#    x 1.576020 0.000000 0.000000 
#    y 0.000000 1.527560 0.000000 
#    z 0.000000 0.000000 1.552180 
# 
# From -- ./inp_files/27084.got.cif
#   From: 2010.03.12/outbox.cif.g09.slc.cpg/sg53_14_cif.got.tgz:27084.got - 2010.04.16 14:36:59.
