data_PCOD8217912
_publ_section_title
;
Structure prediction by ZEFSAII (Michael W. Deem and Ramdas Pophale) SiO2 
 PCOD8217912
Probable space group: P M N A
;
_chemical_formula_sum "Si O2"
_cell_formula_units_Z 64
_cell_length_a 14.746779
_cell_length_b 13.641500
_cell_length_c 17.722722
_cell_angle_alpha 90.000000
_cell_angle_beta 90.000000
_cell_angle_gamma 90.000000
_cell_volume 3565.247831
_symmetry_space_group_name_H-M "P M N A"
_symmetry_group_IT_number 53
_symmetry_cell_setting 'orthorhombic'
loop_
_space_group_symop_operation_xyz
x,y,z
1/2-x,-y,1/2+z
x,-y,-z
1/2-x,y,1/2-z
-x,-y,-z
1/2+x,y,1/2-z
-x,y,z
1/2+x,-y,1/2+z
loop_
_atom_site_type_symbol
_atom_site_label
_atom_site_fract_x
_atom_site_fract_y
_atom_site_fract_z
Si Si1 0.601432 0.824179 0.377397
Si Si2 0.894228 0.920649 0.665576
Si Si3 0.399349 0.127514 0.878932
Si Si4 0.729325 0.297276 0.835032
Si Si5 0.605982 0.598751 0.043446
Si Si6 0.393523 0.035301 0.326730
Si Si7 0.824508 0.106752 0.021979
Si Si8 0.854138 0.208792 0.469258
O O1 0.500000 0.788365 0.355165
O O2 0.672648 0.735210 0.367807
O O3 0.596154 0.861771 0.464478
O O4 0.632940 0.919668 0.328864
O O5 0.854845 0.915113 0.750219
O O6 0.872113 0.825827 0.615970
O O7 0.000000 0.933263 0.671952
O O8 0.854859 0.019516 0.627423
O O9 0.500000 0.132260 0.842247
O O10 0.336800 0.203383 0.833267
O O11 0.410901 0.150409 0.967590
O O12 0.750000 0.336495 0.750000
O O13 0.676265 0.378878 0.886853
O O14 0.500000 0.598162 0.071399
O O15 0.632266 0.500000 0.000000
O O16 0.619586 0.678179 0.977120
O O17 0.500000 0.042768 0.334668
O O18 0.353434 0.103948 0.391539
O O19 0.750183 0.191107 0.010529
O O20 0.785647 0.000000 0.000000
#
# Coordination Sequence:
#
# PCOD8217912 Si02
#       8
#     8   8   8   8   8   8   8   8
#     4  10  19  33  51  75 108 151 188 218 259 312
#     4  10  19  29  44  71 110 148 180 221 268 320
#     4  10  19  32  49  76 114 148 177 214 266 325
#     4  11  21  34  57  88 114 140 173 229 273 328
#     4  10  22  42  66  85 106 139 182 236 292 346
#     4   9  19  31  43  67 108 154 195 223 249 301
#     4  10  18  30  48  72 103 146 192 223 254 311
#     4  11  19  31  52  79 102 136 182 224 272 337
#
# _framework density 17.951066000000001
#
# number of rings (size 3 to 8) (size 9 to 14) (size 15 to 20)
#    0.000    1.875    2.500    4.500    1.750    5.000 
#    0.000    0.000    2.750    0.375    0.000    0.000 
#    0.000    0.000    0.000    0.000    0.000    0.000 
#
# Total GULP energy -792884.824919 kJ/mol
# GULP energy per Si atom -12388.825389 kJ/mol
# Density = 1.791021 g / cm^3
# Si number density = 17.951066 Si / 1000 Ang^3
#
#
#
# Elastic Constant Matrix: (Units=GPa)
#
#
# Indices 1 2 3 4 5 6 
#
# 1 87.2129 26.0224 26.8777 0.0000 0.0000 0.0000
# 2 26.0224 81.1645 52.6634 0.0000 0.0000 0.0000
# 3 26.8777 52.6634 133.2750 0.0000 0.0000 0.0000
# 4 0.0000 0.0000 0.0000 23.0977 0.0000 0.0000
# 5 0.0000 0.0000 0.0000 0.0000 20.7302 0.0000
# 6 0.0000 0.0000 0.0000 0.0000 0.0000 22.7875
#
#
#
# Elastic Compliance Matrix: (Units=1/GPa)
#
#
# Indices 1 2 3 4 5 6 
#
# 1 0.012843 -0.003277 -0.001295 0.000000 0.000000 0.000000
# 2 -0.003277 0.017405 -0.006217 0.000000 0.000000 0.000000
# 3 -0.001295 -0.006217 0.010221 0.000000 0.000000 0.000000
# 4 0.000000 0.000000 0.000000 0.043294 0.000000 0.000000
# 5 0.000000 0.000000 0.000000 0.000000 0.048239 0.000000
# 6 0.000000 0.000000 0.000000 0.000000 0.000000 0.043884
#
#
# Mechanical properties :
#
#
# Convention : Reuss Voigt Hill
#
# Bulk Modulus (GPa) = 52.93506 56.97549 54.95527
# Shear Modulus (GPa) = 24.53852 26.39568 25.46710
#
# Velocity S-wave (km/s) = 3.70126 3.83877 3.77064
# Velocity P-wave (km/s) = 6.91508 7.17332 7.04538
#
# Compressibility (1/GPa) = 0.01889107
#
# Stress axis : x y z
#
# Youngs Moduli (GPa) = 77.86217 57.45445 97.83835
#
# Poissons Ratio (x) = 0.18830 0.12670
# Poissons Ratio (y) = 0.25519 0.60822
# Poissons Ratio (z) = 0.10083 0.35717
#
# Static dielectric constant tensor:
#      x y z
#    x 3.429650 0.000000 0.000000 
#    y 0.000000 2.920290 0.000000 
#    z 0.000000 0.000000 3.659600 
# 
# 
# High freq. dielectric constant tensor:
#      x y z
#    x 1.706370 0.000000 0.000000 
#    y 0.000000 1.632340 0.000000 
#    z 0.000000 0.000000 1.701440 
# 
# From -- ./inp_files/28626.got.cif
#   From: 2010.03.12/outbox.cif.g09.slc.cpg/sg53_15_cif.got.tgz:28626.got - 2010.04.16 14:36:59.
