data_PCOD8217114
_publ_section_title
;
Structure prediction by ZEFSAII (Michael W. Deem and Ramdas Pophale) SiO2 
 PCOD8217114
Probable space group: P N N A
;
_chemical_formula_sum "Si O2"
_cell_formula_units_Z 40
_cell_length_a 10.011921
_cell_length_b 18.935226
_cell_length_c 10.076769
_cell_angle_alpha 90.000000
_cell_angle_beta 90.000000
_cell_angle_gamma 90.000000
_cell_volume 1910.333581
_symmetry_space_group_name_H-M "P N N A"
_symmetry_group_IT_number 52
_symmetry_cell_setting 'orthorhombic'
loop_
_space_group_symop_operation_xyz
x,y,z
1/2-x,-y,z
x,1/2-y,1/2-z
1/2-x,1/2+y,1/2-z
-x,-y,-z
1/2+x,y,-z
-x,1/2+y,1/2+z
1/2+x,1/2-y,1/2+z
loop_
_atom_site_type_symbol
_atom_site_label
_atom_site_fract_x
_atom_site_fract_y
_atom_site_fract_z
Si Si1 0.993095 0.894260 0.945035
Si Si2 0.900697 0.021313 0.810001
Si Si3 0.257088 0.821680 0.905082
Si Si4 0.775650 0.841815 0.399138
Si Si5 0.032585 0.920398 0.463046
O O1 0.097809 0.832812 0.913983
O O2 0.978774 0.945443 0.815491
O O3 0.848760 0.863977 0.989950
O O4 0.063892 0.938384 0.058141
O O5 0.927329 0.074812 0.690426
O O6 0.750000 0.000000 0.808723
O O7 0.300125 0.846863 0.758583
O O8 0.271075 0.739706 0.938280
O O9 0.645870 0.885318 0.445791
O O10 0.900440 0.873851 0.477882
O O11 0.000000 0.000000 0.500000
#
# Coordination Sequence:
#
# PCOD8217114 Si02
#       5
#     8   8   8   8   8
#     4  11  22  40  67  95 130 169 213 275 323 380
#     4  11  22  38  65  99 128 163 222 265 325 387
#     4  11  23  44  66  94 132 170 221 267 326 397
#     4  11  25  43  66  95 129 177 217 265 331 395
#     4  12  24  43  66  94 135 170 214 272 326 388
#
# _framework density 20.938752000000001
#
# number of rings (size 3 to 8) (size 9 to 14) (size 15 to 20)
#    0.000    0.800    4.000    4.200    0.000    0.000 
#    0.000    0.000    0.000    0.000    0.000    0.000 
#    0.000    0.000    0.000    0.000    0.000    0.000 
#
# Total GULP energy -495775.866939 kJ/mol
# GULP energy per Si atom -12394.396673 kJ/mol
# Density = 2.089109 g / cm^3
# Si number density = 20.938752 Si / 1000 Ang^3
#
#
#
# Elastic Constant Matrix: (Units=GPa)
#
#
# Indices 1 2 3 4 5 6 
#
# 1 132.2141 49.1874 8.1430 0.0000 0.0000 0.0000
# 2 49.1874 132.5146 27.2842 0.0000 0.0000 0.0000
# 3 8.1430 27.2842 36.0401 0.0000 0.0000 0.0000
# 4 0.0000 0.0000 0.0000 30.4261 0.0000 0.0000
# 5 0.0000 0.0000 0.0000 0.0000 -4.2635 0.0000
# 6 0.0000 0.0000 0.0000 0.0000 0.0000 49.8412
#
#
#
# Elastic Compliance Matrix: (Units=1/GPa)
#
#
# Indices 1 2 3 4 5 6 
#
# 1 0.008785 -0.003379 0.000573 0.000000 0.000000 0.000000
# 2 -0.003379 0.010239 -0.006988 0.000000 0.000000 0.000000
# 3 0.000573 -0.006988 0.032908 0.000000 0.000000 0.000000
# 4 0.000000 0.000000 0.000000 0.032867 0.000000 0.000000
# 5 0.000000 0.000000 0.000000 0.000000 -0.234547 0.000000
# 6 0.000000 0.000000 0.000000 0.000000 0.000000 0.020064
#
#
# Mechanical properties :
#
#
# Convention : Reuss Voigt Hill
#
# Bulk Modulus (GPa) = 30.91745 52.22200 41.56972
# Shear Modulus (GPa) = -50.34528 29.61104 -10.36712
#
# Velocity S-wave (km/s) = -4.90879 3.76463 -2.22754
# Velocity P-wave (km/s) = 4.16301 6.62504 3.64420
#
# Compressibility (1/GPa) = 0.03234420
#
# Stress axis : x y z
#
# Youngs Moduli (GPa) = 113.82711 97.66187 30.38784
#
# Poissons Ratio (x) = 0.32999 -0.01741
# Poissons Ratio (y) = 0.38462 0.21236
# Poissons Ratio (z) = -0.06523 0.68249
#
# Static dielectric constant tensor:
#      x y z
#    x 3.724190 0.000000 0.000000 
#    y 0.000000 4.413750 0.000000 
#    z 0.000000 0.000000 4.579900 
# 
# 
# High freq. dielectric constant tensor:
#      x y z
#    x 1.834720 0.000000 0.000000 
#    y 0.000000 1.830920 0.000000 
#    z 0.000000 0.000000 1.815460 
# 
# From -- ./inp_files/16661.got.cif
#   From: 2010.06.25/outbox.cif.g09.slc.cpg/sg52_9_cif.got.tgz:16661.got - 2010.06.26 19:32:48.
