data_PCOD8217805
_publ_section_title
;
Structure prediction by ZEFSAII (Michael W. Deem and Ramdas Pophale) SiO2 
 PCOD8217805
Probable space group: P M N A
;
_chemical_formula_sum "Si O2"
_cell_formula_units_Z 64
_cell_length_a 9.136356
_cell_length_b 13.786733
_cell_length_c 31.532255
_cell_angle_alpha 90.000000
_cell_angle_beta 90.000000
_cell_angle_gamma 90.000000
_cell_volume 3971.818630
_symmetry_space_group_name_H-M "P M N A"
_symmetry_group_IT_number 53
_symmetry_cell_setting 'orthorhombic'
loop_
_space_group_symop_operation_xyz
x,y,z
1/2-x,-y,1/2+z
x,-y,-z
1/2-x,y,1/2-z
-x,-y,-z
1/2+x,y,1/2-z
-x,y,z
1/2+x,-y,1/2+z
loop_
_atom_site_type_symbol
_atom_site_label
_atom_site_fract_x
_atom_site_fract_y
_atom_site_fract_z
Si Si1 0.833769 0.276681 0.627680
Si Si2 0.167892 0.506175 0.623962
Si Si3 0.836086 0.033347 0.451475
Si Si4 0.327111 0.568799 0.538684
Si Si5 0.164781 0.279989 0.790588
Si Si6 0.661861 0.789056 0.528448
Si Si7 0.166555 0.488894 0.208153
Si Si8 0.337166 0.146037 0.567298
O O1 0.824076 0.391106 0.623563
O O2 0.747572 0.238458 0.668629
O O3 0.758731 0.231486 0.586773
O O4 0.000000 0.240972 0.630999
O O5 0.245695 0.543062 0.581825
O O6 0.250224 0.547376 0.665727
O O7 0.000000 0.542030 0.625112
O O8 0.770431 0.141426 0.445246
O O9 0.000000 0.034298 0.433001
O O10 0.837579 0.000000 0.500000
O O11 0.738834 0.957845 0.424599
O O12 0.274260 0.500000 0.500000
O O13 0.500000 0.555970 0.545702
O O14 0.281700 0.678682 0.527386
O O15 0.250000 0.239293 0.750000
O O16 0.165624 0.395619 0.790730
O O17 0.000000 0.239787 0.790026
O O18 0.500000 0.792902 0.549215
O O19 0.652555 0.831335 0.481800
O O20 0.250000 0.449029 0.250000
O O21 0.000000 0.449157 0.207897
O O22 0.500000 0.143699 0.587232
#
# Coordination Sequence:
#
# PCOD8217805 Si02
#       8
#     8   8   8   8   8   8   8   8
#     4  10  19  29  41  60  87 116 146 181 218 257
#     4  10  20  31  43  62  89 120 154 189 224 265
#     4   9  17  29  45  64  85 108 136 174 219 262
#     4  10  20  33  47  63  87 121 159 193 224 262
#     4   9  16  26  40  58  81 111 144 175 211 256
#     4   9  18  31  46  63  84 113 148 184 221 261
#     4   9  16  27  44  63  84 111 144 183 226 269
#     4  10  18  29  46  65  85 110 143 181 220 262
#
# _framework density 16.113527000000001
#
# number of rings (size 3 to 8) (size 9 to 14) (size 15 to 20)
#    0.000    2.500    0.000    3.000    0.000    8.250 
#    0.000    0.000    0.000    0.000    0.000    0.000 
#    0.000    1.000    0.000    5.500    0.000    5.875 
#
# Total GULP energy -793460.001844 kJ/mol
# GULP energy per Si atom -12397.812529 kJ/mol
# Density = 1.607685 g / cm^3
# Si number density = 16.113527 Si / 1000 Ang^3
#
#
#
# Elastic Constant Matrix: (Units=GPa)
#
#
# Indices 1 2 3 4 5 6 
#
# 1 132.6984 38.3235 43.8502 0.0000 0.0000 0.0000
# 2 38.3235 45.4486 24.4211 0.0000 0.0000 0.0000
# 3 43.8502 24.4211 68.8725 0.0000 0.0000 0.0000
# 4 0.0000 0.0000 0.0000 8.1571 0.0000 0.0000
# 5 0.0000 0.0000 0.0000 0.0000 30.3985 0.0000
# 6 0.0000 0.0000 0.0000 0.0000 0.0000 19.8100
#
#
#
# Elastic Compliance Matrix: (Units=1/GPa)
#
#
# Indices 1 2 3 4 5 6 
#
# 1 0.011028 -0.006827 -0.004601 0.000000 0.000000 0.000000
# 2 -0.006827 0.031408 -0.006790 0.000000 0.000000 0.000000
# 3 -0.004601 -0.006790 0.019856 0.000000 0.000000 0.000000
# 4 0.000000 0.000000 0.000000 0.122593 0.000000 0.000000
# 5 0.000000 0.000000 0.000000 0.000000 0.032896 0.000000
# 6 0.000000 0.000000 0.000000 0.000000 0.000000 0.050479
#
#
# Mechanical properties :
#
#
# Convention : Reuss Voigt Hill
#
# Bulk Modulus (GPa) = 38.67430 51.13434 44.90432
# Shear Modulus (GPa) = 15.95838 21.03478 18.49658
#
# Velocity S-wave (km/s) = 3.15043 3.61697 3.39173
# Velocity P-wave (km/s) = 6.10630 7.01755 6.57772
#
# Compressibility (1/GPa) = 0.02585697
#
# Stress axis : x y z
#
# Youngs Moduli (GPa) = 90.68052 31.83891 50.36166
#
# Poissons Ratio (x) = 0.21736 0.23169
# Poissons Ratio (y) = 0.61906 0.34197
# Poissons Ratio (z) = 0.41718 0.21619
#
# Static dielectric constant tensor:
#      x y z
#    x 3.371050 0.000000 0.000000 
#    y 0.000000 2.817400 0.000000 
#    z 0.000000 0.000000 2.960560 
# 
# 
# High freq. dielectric constant tensor:
#      x y z
#    x 1.639500 0.000000 0.000000 
#    y 0.000000 1.576750 0.000000 
#    z 0.000000 0.000000 1.598670 
# 
# From -- ./inp_files/38460.got.cif
#   From: 2010.03.12/outbox.cif.g09.slc.cpg/sg53_20_cif.got.tgz:38460.got - 2010.04.16 14:36:59.
