data_PCOD8217214
_publ_section_title
;
Structure prediction by ZEFSAII (Michael W. Deem and Ramdas Pophale) SiO2 
 PCOD8217214
Probable space group: P N N A
;
_chemical_formula_sum "Si O2"
_cell_formula_units_Z 36
_cell_length_a 21.628310
_cell_length_b 10.548311
_cell_length_c 6.668170
_cell_angle_alpha 90.000000
_cell_angle_beta 90.000000
_cell_angle_gamma 90.000000
_cell_volume 1521.290576
_symmetry_space_group_name_H-M "P N N A"
_symmetry_group_IT_number 52
_symmetry_cell_setting 'orthorhombic'
loop_
_space_group_symop_operation_xyz
x,y,z
1/2-x,-y,z
x,1/2-y,1/2-z
1/2-x,1/2+y,1/2-z
-x,-y,-z
1/2+x,y,-z
-x,1/2+y,1/2+z
1/2+x,1/2-y,1/2+z
loop_
_atom_site_type_symbol
_atom_site_label
_atom_site_fract_x
_atom_site_fract_y
_atom_site_fract_z
Si Si1 0.738360 0.856850 0.086206
Si Si2 0.041230 0.895324 0.756841
Si Si3 0.093015 0.436931 0.080495
Si Si4 0.388942 0.366635 0.382872
Si Si5 0.319553 0.750000 0.250000
O O1 0.756821 0.750000 0.250000
O O2 0.750000 0.000000 0.170808
O O3 0.666958 0.833460 0.030769
O O4 0.777380 0.843565 0.880986
O O5 0.065860 0.750000 0.750000
O O6 0.972263 0.901356 0.678315
O O7 0.084060 0.994405 0.632737
O O8 0.052592 0.925241 0.992129
O O9 0.131800 0.528142 0.225802
O O10 0.136943 0.314543 0.078030
O O11 0.413889 0.250000 0.250000
#
# Coordination Sequence:
#
# PCOD8217214 Si02
#       5
#     8   8   8   8   4
#     4  12  29  47  72 106 143 191 245 298 367 438
#     4  11  23  43  70 104 140 189 238 295 369 433
#     4  11  25  44  70 103 145 183 240 300 362 439
#     4  12  24  43  70 103 140 188 243 299 361 436
#     4  12  26  48  74 104 144 188 238 302 370 432
#
# _framework density 23.664118999999999
#
# number of rings (size 3 to 8) (size 9 to 14) (size 15 to 20)
#    0.000    0.444    6.667    1.333    3.111    0.889 
#    0.000    1.111    0.000    0.000    0.000    0.000 
#    0.000    0.000    0.000    0.000    0.000    0.000 
#
# Total GULP energy -446113.859002 kJ/mol
# GULP energy per Si atom -12392.051639 kJ/mol
# Density = 2.361026 g / cm^3
# Si number density = 23.664119 Si / 1000 Ang^3
#
#
#
# Elastic Constant Matrix: (Units=GPa)
#
#
# Indices 1 2 3 4 5 6 
#
# 1 86.3372 25.5991 37.9842 0.0000 0.0000 0.0000
# 2 25.5991 127.4839 45.6646 0.0000 0.0000 0.0000
# 3 37.9842 45.6646 115.1324 0.0000 0.0000 0.0000
# 4 0.0000 0.0000 0.0000 49.3884 0.0000 0.0000
# 5 0.0000 0.0000 0.0000 0.0000 37.3703 0.0000
# 6 0.0000 0.0000 0.0000 0.0000 0.0000 34.3753
#
#
#
# Elastic Compliance Matrix: (Units=1/GPa)
#
#
# Indices 1 2 3 4 5 6 
#
# 1 0.013738 -0.001323 -0.004008 0.000000 0.000000 0.000000
# 2 -0.001323 0.009271 -0.003240 0.000000 0.000000 0.000000
# 3 -0.004008 -0.003240 0.011293 0.000000 0.000000 0.000000
# 4 0.000000 0.000000 0.000000 0.020248 0.000000 0.000000
# 5 0.000000 0.000000 0.000000 0.000000 0.026759 0.000000
# 6 0.000000 0.000000 0.000000 0.000000 0.000000 0.029091
#
#
# Mechanical properties :
#
#
# Convention : Reuss Voigt Hill
#
# Bulk Modulus (GPa) = 58.27751 60.82771 59.55261
# Shear Modulus (GPa) = 37.52031 38.87383 38.19707
#
# Velocity S-wave (km/s) = 3.98620 4.05746 4.02199
# Velocity P-wave (km/s) = 6.77250 6.90732 6.84024
#
# Compressibility (1/GPa) = 0.01715928
#
# Stress axis : x y z
#
# Youngs Moduli (GPa) = 72.79104 107.86874 88.54985
#
# Poissons Ratio (x) = 0.14272 0.35487
# Poissons Ratio (y) = 0.09631 0.28694
# Poissons Ratio (z) = 0.29172 0.34954
#
# Static dielectric constant tensor:
#      x y z
#    x 3.989020 0.000000 0.000000 
#    y 0.000000 4.594140 0.000000 
#    z 0.000000 0.000000 4.315110 
# 
# 
# High freq. dielectric constant tensor:
#      x y z
#    x 1.936890 0.000000 0.000000 
#    y 0.000000 1.944600 0.000000 
#    z 0.000000 0.000000 1.935940 
# 
# From -- ./inp_files/4874.got.cif
#   From: 2010.06.25/outbox.cif.g09.slc.cpg/sg52_3_cif.got.tgz:4874.got - 2010.06.26 19:32:48.
