data_PCOD8217328
_publ_section_title
;
Structure prediction by ZEFSAII (Michael W. Deem and Ramdas Pophale) SiO2 
 PCOD8217328
Probable space group: P N N A
;
_chemical_formula_sum "Si O2"
_cell_formula_units_Z 40
_cell_length_a 17.395894
_cell_length_b 16.193215
_cell_length_c 5.591878
_cell_angle_alpha 90.000000
_cell_angle_beta 90.000000
_cell_angle_gamma 90.000000
_cell_volume 1575.206599
_symmetry_space_group_name_H-M "P N N A"
_symmetry_group_IT_number 52
_symmetry_cell_setting 'orthorhombic'
loop_
_space_group_symop_operation_xyz
x,y,z
1/2-x,-y,z
x,1/2-y,1/2-z
1/2-x,1/2+y,1/2-z
-x,-y,-z
1/2+x,y,-z
-x,1/2+y,1/2+z
1/2+x,1/2-y,1/2+z
loop_
_atom_site_type_symbol
_atom_site_label
_atom_site_fract_x
_atom_site_fract_y
_atom_site_fract_z
Si Si1 0.250000 0.500000 0.664247
Si Si2 0.221762 0.750000 0.250000
Si Si3 0.689501 0.380478 0.000415
Si Si4 0.629333 0.750000 0.250000
Si Si5 0.021062 0.867686 0.964493
Si Si6 0.893558 0.504249 0.680302
Si Si7 0.419357 0.750000 0.750000
O O1 0.171515 0.492277 0.520387
O O2 0.245167 0.584991 0.820935
O O3 0.273978 0.666775 0.229949
O O4 0.176852 0.748442 0.501225
O O5 0.645023 0.464938 0.925319
O O6 0.632880 0.318933 0.131912
O O7 0.577113 0.667310 0.257693
O O8 0.974492 0.789402 0.055278
O O9 0.071427 0.911508 0.178049
O O10 0.963610 0.933690 0.857760
#
# Coordination Sequence:
#
# PCOD8217328 Si02
#       7
#     4   4   8   4   8   8   4
#     4  12  26  50  76 116 160 214 272 352 420 516
#     4  12  29  47  80 121 159 214 278 346 415 495
#     4  12  27  47  83 112 162 213 275 345 427 499
#     4  12  27  49  78 114 166 214 276 346 406 506
#     4  11  25  49  75 112 160 209 276 338 418 496
#     4  11  26  48  76 111 155 209 271 341 419 501
#     4  12  24  52  80 119 157 224 280 350 415 517
#
# _framework density 25.393497
#
# number of rings (size 3 to 8) (size 9 to 14) (size 15 to 20)
#    0.000    0.400    2.000    5.400    8.400    0.800 
#    3.600    0.000    0.000    0.000    0.000    0.000 
#    0.000    0.000    0.000    0.000    0.000    0.000 
#
# Total GULP energy -495704.381092 kJ/mol
# GULP energy per Si atom -12392.609527 kJ/mol
# Density = 2.533570 g / cm^3
# Si number density = 25.393497 Si / 1000 Ang^3
#
#
#
# Elastic Constant Matrix: (Units=GPa)
#
#
# Indices 1 2 3 4 5 6 
#
# 1 117.0463 43.4833 45.8842 0.0000 0.0000 0.0000
# 2 43.4833 108.0364 32.1270 0.0000 0.0000 0.0000
# 3 45.8842 32.1270 113.5879 0.0000 0.0000 0.0000
# 4 0.0000 0.0000 0.0000 39.4543 0.0000 0.0000
# 5 0.0000 0.0000 0.0000 0.0000 23.7317 0.0000
# 6 0.0000 0.0000 0.0000 0.0000 0.0000 56.5313
#
#
#
# Elastic Compliance Matrix: (Units=1/GPa)
#
#
# Indices 1 2 3 4 5 6 
#
# 1 0.011223 -0.003460 -0.003555 0.000000 0.000000 0.000000
# 2 -0.003460 0.011173 -0.001762 0.000000 0.000000 0.000000
# 3 -0.003555 -0.001762 0.010738 0.000000 0.000000 0.000000
# 4 0.000000 0.000000 0.000000 0.025346 0.000000 0.000000
# 5 0.000000 0.000000 0.000000 0.000000 0.042138 0.000000
# 6 0.000000 0.000000 0.000000 0.000000 0.000000 0.017689
#
#
# Mechanical properties :
#
#
# Convention : Reuss Voigt Hill
#
# Bulk Modulus (GPa) = 64.18768 64.62884 64.40826
# Shear Modulus (GPa) = 35.44750 38.42188 36.93469
#
# Velocity S-wave (km/s) = 3.74027 3.89403 3.81792
# Velocity P-wave (km/s) = 6.63211 6.76196 6.69735
#
# Compressibility (1/GPa) = 0.01557931
#
# Stress axis : x y z
#
# Youngs Moduli (GPa) = 89.10663 89.50315 93.12518
#
# Poissons Ratio (x) = 0.30966 0.33104
# Poissons Ratio (y) = 0.30829 0.16413
# Poissons Ratio (z) = 0.31676 0.15775
#
# Static dielectric constant tensor:
#      x y z
#    x 5.163970 0.000000 0.000000 
#    y 0.000000 4.899560 0.000000 
#    z 0.000000 0.000000 4.428130 
# 
# 
# High freq. dielectric constant tensor:
#      x y z
#    x 2.036690 0.000000 0.000000 
#    y 0.000000 2.035920 0.000000 
#    z 0.000000 0.000000 1.996710 
# 
# From -- ./inp_files/3280.got.cif
#   From: 2010.06.25/outbox.cif.g09.slc.cpg/sg52_2_cif.got.tgz:3280.got - 2010.06.26 19:32:48.
