data_PCOD8217808
_publ_section_title
;
Structure prediction by ZEFSAII (Michael W. Deem and Ramdas Pophale) SiO2 
 PCOD8217808
Probable space group: P M N A
;
_chemical_formula_sum "Si O2"
_cell_formula_units_Z 56
_cell_length_a 9.125901
_cell_length_b 14.088760
_cell_length_c 25.763012
_cell_angle_alpha 90.000000
_cell_angle_beta 90.000000
_cell_angle_gamma 90.000000
_cell_volume 3312.418183
_symmetry_space_group_name_H-M "P M N A"
_symmetry_group_IT_number 53
_symmetry_cell_setting 'orthorhombic'
loop_
_space_group_symop_operation_xyz
x,y,z
1/2-x,-y,1/2+z
x,-y,-z
1/2-x,y,1/2-z
-x,-y,-z
1/2+x,y,1/2-z
-x,y,z
1/2+x,-y,1/2+z
loop_
_atom_site_type_symbol
_atom_site_label
_atom_site_fract_x
_atom_site_fract_y
_atom_site_fract_z
Si Si1 0.827581 0.489697 0.695271
Si Si2 0.340319 0.630530 0.380966
Si Si3 0.664120 0.984102 0.060765
Si Si4 0.839325 0.452094 0.050557
Si Si5 0.830490 0.665745 0.622661
Si Si6 0.671712 0.201036 0.543762
Si Si7 0.672249 0.829017 0.575710
O O1 0.750000 0.493978 0.750000
O O2 0.773060 0.394155 0.665287
O O3 0.790317 0.590818 0.667770
O O4 0.000000 0.478689 0.702158
O O5 0.500000 0.665151 0.359381
O O6 0.366844 0.530039 0.406659
O O7 0.280375 0.705009 0.423949
O O8 0.500000 0.982239 0.084366
O O9 0.756845 0.068564 0.086325
O O10 0.743366 0.884535 0.071832
O O11 0.657370 0.000000 0.000000
O O12 0.714901 0.379415 0.067574
O O13 0.000000 0.402228 0.039638
O O14 0.773951 0.500000 0.000000
O O15 0.735641 0.762399 0.622252
O O16 0.000000 0.692622 0.622904
O O17 0.500000 0.181024 0.549068
O O18 0.712350 0.209621 0.482475
O O19 0.500000 0.838052 0.583211
#
# Coordination Sequence:
#
# PCOD8217808 Si02
#       7
#     8   8   8   8   8   8   8
#     4  10  21  36  52  69  90 116 149 191 237 283
#     4   9  17  29  46  67  91 119 152 189 227 269
#     4   9  17  28  42  63  93 128 162 196 231 262
#     4   9  16  27  42  61  88 122 155 182 213 260
#     4  10  20  31  44  66  92 117 149 189 232 275
#     4   9  17  29  45  67  95 128 163 193 222 263
#     4  10  18  29  46  67  94 129 164 193 222 264
#
# _framework density 16.906078000000001
#
# number of rings (size 3 to 8) (size 9 to 14) (size 15 to 20)
#    0.000    2.571    0.000    2.571    0.000    7.143 
#    0.000    2.857    0.000    0.000    0.000    1.000 
#    0.000    2.286    0.000    0.000    0.000    0.000 
#
# Total GULP energy -693755.460368 kJ/mol
# GULP energy per Si atom -12388.490364 kJ/mol
# Density = 1.686760 g / cm^3
# Si number density = 16.906078 Si / 1000 Ang^3
#
#
#
# Elastic Constant Matrix: (Units=GPa)
#
#
# Indices 1 2 3 4 5 6 
#
# 1 87.4330 44.8971 32.3128 0.0000 0.0000 0.0000
# 2 44.8971 78.9826 11.8513 0.0000 0.0000 0.0000
# 3 32.3128 11.8513 47.8057 0.0000 0.0000 0.0000
# 4 0.0000 0.0000 0.0000 16.9577 0.0000 0.0000
# 5 0.0000 0.0000 0.0000 0.0000 19.7023 0.0000
# 6 0.0000 0.0000 0.0000 0.0000 0.0000 39.0427
#
#
#
# Elastic Compliance Matrix: (Units=1/GPa)
#
#
# Indices 1 2 3 4 5 6 
#
# 1 0.020964 -0.010169 -0.011649 0.000000 0.000000 0.000000
# 2 -0.010169 0.018083 0.002391 0.000000 0.000000 0.000000
# 3 -0.011649 0.002391 0.028199 0.000000 0.000000 0.000000
# 4 0.000000 0.000000 0.000000 0.058970 0.000000 0.000000
# 5 0.000000 0.000000 0.000000 0.000000 0.050756 0.000000
# 6 0.000000 0.000000 0.000000 0.000000 0.000000 0.025613
#
#
# Mechanical properties :
#
#
# Convention : Reuss Voigt Hill
#
# Bulk Modulus (GPa) = 35.22224 43.59376 39.40800
# Shear Modulus (GPa) = 19.92787 23.48454 21.70620
#
# Velocity S-wave (km/s) = 3.43700 3.73113 3.58708
# Velocity P-wave (km/s) = 6.05227 6.66360 6.36528
#
# Compressibility (1/GPa) = 0.02839115
#
# Stress axis : x y z
#
# Youngs Moduli (GPa) = 47.69972 55.30097 35.46179
#
# Poissons Ratio (x) = 0.56236 0.41311
# Poissons Ratio (y) = 0.48507 -0.08478
# Poissons Ratio (z) = 0.55567 -0.13221
#
# Static dielectric constant tensor:
#      x y z
#    x 3.389510 0.000000 0.000000 
#    y 0.000000 3.355580 0.000000 
#    z 0.000000 0.000000 4.299330 
# 
# 
# High freq. dielectric constant tensor:
#      x y z
#    x 1.659660 0.000000 0.000000 
#    y 0.000000 1.650360 0.000000 
#    z 0.000000 0.000000 1.600710 
# 
# From -- ./inp_files/38329.got.cif
#   From: 2010.03.12/outbox.cif.g09.slc.cpg/sg53_20_cif.got.tgz:38329.got - 2010.04.16 14:36:59.
