data_PCOD8217725
_publ_section_title
;
Structure prediction by ZEFSAII (Michael W. Deem and Ramdas Pophale) SiO2 
 PCOD8217725
Probable space group: P M N A
;
_chemical_formula_sum "Si O2"
_cell_formula_units_Z 64
_cell_length_a 8.973543
_cell_length_b 26.007963
_cell_length_c 18.291530
_cell_angle_alpha 90.000000
_cell_angle_beta 90.000000
_cell_angle_gamma 90.000000
_cell_volume 4268.942651
_symmetry_space_group_name_H-M "P M N A"
_symmetry_group_IT_number 53
_symmetry_cell_setting 'orthorhombic'
loop_
_space_group_symop_operation_xyz
x,y,z
1/2-x,-y,1/2+z
x,-y,-z
1/2-x,y,1/2-z
-x,-y,-z
1/2+x,y,1/2-z
-x,y,z
1/2+x,-y,1/2+z
loop_
_atom_site_type_symbol
_atom_site_label
_atom_site_fract_x
_atom_site_fract_y
_atom_site_fract_z
Si Si1 0.173818 0.894694 0.921598
Si Si2 0.676299 0.507781 0.673354
Si Si3 0.831510 0.948628 0.453081
Si Si4 0.326823 0.401690 0.087125
Si Si5 0.164060 0.554351 0.039771
Si Si6 0.672082 0.304811 0.176892
Si Si7 0.825881 0.003802 0.171606
Si Si8 0.176484 0.811561 0.673924
O O1 0.202574 0.941616 0.866515
O O2 0.257851 0.845005 0.891416
O O3 0.000000 0.882968 0.930414
O O4 0.241512 0.905773 0.001595
O O5 0.750000 0.495431 0.750000
O O6 0.500000 0.514403 0.681299
O O7 0.738498 0.560610 0.640577
O O8 0.716632 0.458513 0.622244
O O9 0.000000 0.929688 0.437806
O O10 0.832916 0.000000 0.500000
O O11 0.748200 0.958590 0.376463
O O12 0.500000 0.414956 0.093724
O O13 0.290943 0.343189 0.110332
O O14 0.276751 0.407926 0.002586
O O15 0.000000 0.579945 0.039404
O O16 0.156577 0.500000 0.000000
O O17 0.750000 0.325023 0.250000
O O18 0.500000 0.305101 0.196066
O O19 0.722479 0.247212 0.155969
O O20 0.750000 0.005007 0.250000
O O21 0.000000 0.991969 0.179838
O O22 0.250000 0.829297 0.750000
O O23 0.000000 0.819734 0.679411
#
# Coordination Sequence:
#
# PCOD8217725 Si02
#       8
#     8   8   8   8   8   8   8   8
#     4  10  19  30  44  62  84 111 143 175 209 247
#     4  10  19  29  41  59  83 109 138 170 204 243
#     4   9  17  29  44  61  82 109 140 172 207 247
#     4  10  18  28  43  61  81 108 141 172 205 245
#     4   8  16  29  41  56  80 107 134 167 204 241
#     4   9  19  31  42  59  82 108 139 175 209 242
#     4  10  19  29  42  61  86 113 141 174 208 245
#     4  10  19  31  44  59  82 110 141 176 211 244
#
# _framework density 14.992003
#
# number of rings (size 3 to 8) (size 9 to 14) (size 15 to 20)
#    0.000    2.500    0.000    3.750    0.000    9.250 
#    0.000    0.000    0.000    0.000    0.000    0.000 
#    0.000    1.000    0.000    6.500    0.000    5.500 
#
# Total GULP energy -793493.328431 kJ/mol
# GULP energy per Si atom -12398.333257 kJ/mol
# Density = 1.495788 g / cm^3
# Si number density = 14.992003 Si / 1000 Ang^3
#
#
#
# Elastic Constant Matrix: (Units=GPa)
#
#
# Indices 1 2 3 4 5 6 
#
# 1 97.7036 40.2162 54.8025 0.0000 0.0000 0.0000
# 2 40.2162 60.7634 39.4716 0.0000 0.0000 0.0000
# 3 54.8025 39.4716 95.9510 0.0000 0.0000 0.0000
# 4 0.0000 0.0000 0.0000 20.9557 0.0000 0.0000
# 5 0.0000 0.0000 0.0000 0.0000 29.8032 0.0000
# 6 0.0000 0.0000 0.0000 0.0000 0.0000 13.9768
#
#
#
# Elastic Compliance Matrix: (Units=1/GPa)
#
#
# Indices 1 2 3 4 5 6 
#
# 1 0.016838 -0.006683 -0.006868 0.000000 0.000000 0.000000
# 2 -0.006683 0.025111 -0.006513 0.000000 0.000000 0.000000
# 3 -0.006868 -0.006513 0.017024 0.000000 0.000000 0.000000
# 4 0.000000 0.000000 0.000000 0.047720 0.000000 0.000000
# 5 0.000000 0.000000 0.000000 0.000000 0.033553 0.000000
# 6 0.000000 0.000000 0.000000 0.000000 0.000000 0.071547
#
#
# Mechanical properties :
#
#
# Convention : Reuss Voigt Hill
#
# Bulk Modulus (GPa) = 53.06351 58.15542 55.60947
# Shear Modulus (GPa) = 19.36460 20.94232 20.15346
#
# Velocity S-wave (km/s) = 3.59787 3.74157 3.67042
# Velocity P-wave (km/s) = 7.26161 7.58557 7.42536
#
# Compressibility (1/GPa) = 0.01884534
#
# Stress axis : x y z
#
# Youngs Moduli (GPa) = 59.38921 39.82276 58.74089
#
# Poissons Ratio (x) = 0.26613 0.40343
# Poissons Ratio (y) = 0.39689 0.38259
# Poissons Ratio (z) = 0.40788 0.25937
#
# Static dielectric constant tensor:
#      x y z
#    x 3.060180 0.000000 0.000000 
#    y 0.000000 2.758270 0.000000 
#    z 0.000000 0.000000 3.060920 
# 
# 
# High freq. dielectric constant tensor:
#      x y z
#    x 1.592610 0.000000 0.000000 
#    y 0.000000 1.537010 0.000000 
#    z 0.000000 0.000000 1.564160 
# 
# From -- ./inp_files/27090.got.cif
#   From: 2010.03.12/outbox.cif.g09.slc.cpg/sg53_14_cif.got.tgz:27090.got - 2010.04.16 14:36:59.
