data_PCOD8217619
_publ_section_title
;
Structure prediction by ZEFSAII (Michael W. Deem and Ramdas Pophale) SiO2 
 PCOD8217619
Probable space group: P M N A
;
_chemical_formula_sum "Si O2"
_cell_formula_units_Z 56
_cell_length_a 9.264831
_cell_length_b 16.718790
_cell_length_c 21.431010
_cell_angle_alpha 90.000000
_cell_angle_beta 90.000000
_cell_angle_gamma 90.000000
_cell_volume 3319.594096
_symmetry_space_group_name_H-M "P M N A"
_symmetry_group_IT_number 53
_symmetry_cell_setting 'orthorhombic'
loop_
_space_group_symop_operation_xyz
x,y,z
1/2-x,-y,1/2+z
x,-y,-z
1/2-x,y,1/2-z
-x,-y,-z
1/2+x,y,1/2-z
-x,y,z
1/2+x,-y,1/2+z
loop_
_atom_site_type_symbol
_atom_site_label
_atom_site_fract_x
_atom_site_fract_y
_atom_site_fract_z
Si Si1 0.666363 0.468068 0.094655
Si Si2 0.829849 0.204259 0.123313
Si Si3 0.334768 0.372177 0.971584
Si Si4 0.830250 0.044775 0.938603
Si Si5 0.828011 0.956426 0.814207
Si Si6 0.670294 0.367787 0.314133
Si Si7 0.830335 0.785139 0.015975
O O1 0.500000 0.451622 0.112522
O O2 0.689687 0.561944 0.082048
O O3 0.773706 0.446027 0.150256
O O4 0.711555 0.413414 0.036140
O O5 0.775168 0.133196 0.168150
O O6 0.778965 0.288984 0.149319
O O7 0.000000 0.197486 0.119836
O O8 0.768568 0.196167 0.053208
O O9 0.500000 0.345088 0.974257
O O10 0.241035 0.294362 0.955857
O O11 0.791698 0.138864 0.941005
O O12 0.000000 0.029456 0.940554
O O13 0.773479 0.011420 0.872192
O O14 0.764008 0.000000 0.000000
O O15 0.750000 0.982781 0.750000
O O16 0.000000 0.962704 0.804379
O O17 0.750000 0.364303 0.250000
O O18 0.500000 0.372679 0.304769
O O19 0.000000 0.769333 0.013699
#
# Coordination Sequence:
#
# PCOD8217619 Si02
#       7
#     8   8   8   8   8   8   8
#     4   9  18  33  50  69  96 130 165 197 239 296
#     4   9  17  29  47  72 101 130 164 201 242 293
#     4   9  18  32  50  72  99 128 156 197 253 298
#     4   9  16  29  52  75  97 130 171 213 252 292
#     4  10  19  33  51  72 100 135 171 206 250 301
#     4  11  21  32  47  71 102 135 166 201 243 292
#     4  10  17  29  51  77 100 125 165 213 249 290
#
# _framework density 16.869533000000001
#
# number of rings (size 3 to 8) (size 9 to 14) (size 15 to 20)
#    0.000    2.429    2.857    1.714    0.000    0.571 
#    0.000    3.571    0.000    1.714    0.000    4.000 
#    0.000    0.000    0.000    0.000    0.000    0.000 
#
# Total GULP energy -694182.618669 kJ/mol
# GULP energy per Si atom -12396.118191 kJ/mol
# Density = 1.683114 g / cm^3
# Si number density = 16.869533 Si / 1000 Ang^3
#
#
#
# Elastic Constant Matrix: (Units=GPa)
#
#
# Indices 1 2 3 4 5 6 
#
# 1 45.3070 35.9171 28.7930 0.0000 0.0000 0.0000
# 2 35.9171 101.5544 36.2649 0.0000 0.0000 0.0000
# 3 28.7930 36.2649 81.4837 0.0000 0.0000 0.0000
# 4 0.0000 0.0000 0.0000 22.8815 0.0000 0.0000
# 5 0.0000 0.0000 0.0000 0.0000 36.4021 0.0000
# 6 0.0000 0.0000 0.0000 0.0000 0.0000 21.5200
#
#
#
# Elastic Compliance Matrix: (Units=1/GPa)
#
#
# Indices 1 2 3 4 5 6 
#
# 1 0.034621 -0.009364 -0.008066 0.000000 0.000000 0.000000
# 2 -0.009364 0.014240 -0.003029 0.000000 0.000000 0.000000
# 3 -0.008066 -0.003029 0.016471 0.000000 0.000000 0.000000
# 4 0.000000 0.000000 0.000000 0.043704 0.000000 0.000000
# 5 0.000000 0.000000 0.000000 0.000000 0.027471 0.000000
# 6 0.000000 0.000000 0.000000 0.000000 0.000000 0.046468
#
#
# Mechanical properties :
#
#
# Convention : Reuss Voigt Hill
#
# Bulk Modulus (GPa) = 40.96029 47.81058 44.38543
# Shear Modulus (GPa) = 21.54879 24.65205 23.10042
#
# Velocity S-wave (km/s) = 3.57792 3.82689 3.70450
# Velocity P-wave (km/s) = 6.43444 6.92313 6.68325
#
# Compressibility (1/GPa) = 0.02441389
#
# Stress axis : x y z
#
# Youngs Moduli (GPa) = 28.88398 70.22263 60.71398
#
# Poissons Ratio (x) = 0.65758 0.48973
# Poissons Ratio (y) = 0.27048 0.18389
# Poissons Ratio (z) = 0.23298 0.21270
#
# Static dielectric constant tensor:
#      x y z
#    x 2.853530 0.000000 0.000000 
#    y 0.000000 3.058180 0.000000 
#    z 0.000000 0.000000 2.940530 
# 
# 
# High freq. dielectric constant tensor:
#      x y z
#    x 1.621640 0.000000 0.000000 
#    y 0.000000 1.651540 0.000000 
#    z 0.000000 0.000000 1.637190 
# 
# From -- ./inp_files/31022.got.cif
#   From: 2010.03.12/outbox.cif.g09.slc.cpg/sg53_16_cif.got.tgz:31022.got - 2010.04.16 14:36:59.
