data_PCOD8218889
_publ_section_title
;
Structure prediction by ZEFSAII (Michael W. Deem and Ramdas Pophale) SiO2 
 PCOD8218889
Probable space group: P M N A
;
_chemical_formula_sum "Si O2"
_cell_formula_units_Z 64
_cell_length_a 9.179248
_cell_length_b 22.781856
_cell_length_c 15.180424
_cell_angle_alpha 90.000000
_cell_angle_beta 90.000000
_cell_angle_gamma 90.000000
_cell_volume 3174.534914
_symmetry_space_group_name_H-M "P M N A"
_symmetry_group_IT_number 53
_symmetry_cell_setting 'orthorhombic'
loop_
_space_group_symop_operation_xyz
x,y,z
1/2-x,-y,1/2+z
x,-y,-z
1/2-x,y,1/2-z
-x,-y,-z
1/2+x,y,1/2-z
-x,y,z
1/2+x,-y,1/2+z
loop_
_atom_site_type_symbol
_atom_site_label
_atom_site_fract_x
_atom_site_fract_y
_atom_site_fract_z
Si Si1 0.167223 0.076058 0.332740
Si Si2 0.653689 0.017594 0.594337
Si Si3 0.669291 0.454651 0.664302
Si Si4 0.673282 0.756895 0.031756
Si Si5 0.670602 0.792332 0.837438
Si Si6 0.326428 0.147244 0.654837
Si Si7 0.670667 0.411623 0.336864
Si Si8 0.170781 0.359562 0.978474
O O1 0.250000 0.049469 0.250000
O O2 0.224949 0.141023 0.354707
O O3 0.000000 0.079383 0.314457
O O4 0.209694 0.026879 0.401799
O O5 0.500000 0.008317 0.650318
O O6 0.707987 0.083834 0.612296
O O7 0.597409 0.000000 0.500000
O O8 0.750000 0.429165 0.750000
O O9 0.500000 0.451568 0.685362
O O10 0.719000 0.521299 0.645108
O O11 0.709249 0.416440 0.579277
O O12 0.500000 0.762494 0.047276
O O13 0.755187 0.805898 0.088565
O O14 0.733704 0.693576 0.060661
O O15 0.713151 0.760099 0.927697
O O16 0.750000 0.766343 0.750000
O O17 0.500000 0.788249 0.818406
O O18 0.250000 0.152570 0.750000
O O19 0.500000 0.158830 0.663338
O O20 0.750000 0.386351 0.250000
O O21 0.500000 0.407390 0.319851
O O22 0.716804 0.373262 0.421076
O O23 0.000000 0.343842 0.972076
#
# Coordination Sequence:
#
# PCOD8218889 Si02
#       8
#     8   8   8   8   8   8   8   8
#     4  10  19  32  52  77 104 134 170 213 266 327
#     4  10  21  36  56  84 114 142 176 223 280 341
#     4   9  18  34  57  84 113 146 185 228 277 335
#     4  11  24  41  59  82 113 149 196 247 290 337
#     4   9  20  37  57  82 112 148 188 234 288 347
#     4  11  24  42  63  85 114 155 199 243 292 344
#     4   9  18  34  57  85 117 151 185 226 278 338
#     4  10  21  37  57  81 112 151 192 232 281 340
#
# _framework density 20.160435
#
# number of rings (size 3 to 8) (size 9 to 14) (size 15 to 20)
#    0.000    2.125    0.000    2.625    0.000    7.250 
#    0.000    3.750    0.000    3.750    0.000    0.000 
#    0.000    0.000    0.000    0.000    0.000    0.000 
#
# Total GULP energy -792930.444080 kJ/mol
# GULP energy per Si atom -12389.538189 kJ/mol
# Density = 2.011455 g / cm^3
# Si number density = 20.160435 Si / 1000 Ang^3
#
#
#
# Elastic Constant Matrix: (Units=GPa)
#
#
# Indices 1 2 3 4 5 6 
#
# 1 67.7485 28.1949 35.6173 0.0000 0.0000 0.0000
# 2 28.1949 64.7646 21.7030 0.0000 0.0000 0.0000
# 3 35.6173 21.7030 94.5089 0.0000 0.0000 0.0000
# 4 0.0000 0.0000 0.0000 23.7564 0.0000 0.0000
# 5 0.0000 0.0000 0.0000 0.0000 35.7635 0.0000
# 6 0.0000 0.0000 0.0000 0.0000 0.0000 24.8288
#
#
#
# Elastic Compliance Matrix: (Units=1/GPa)
#
#
# Indices 1 2 3 4 5 6 
#
# 1 0.020998 -0.007031 -0.006299 0.000000 0.000000 0.000000
# 2 -0.007031 0.019082 -0.001732 0.000000 0.000000 0.000000
# 3 -0.006299 -0.001732 0.013353 0.000000 0.000000 0.000000
# 4 0.000000 0.000000 0.000000 0.042094 0.000000 0.000000
# 5 0.000000 0.000000 0.000000 0.000000 0.027962 0.000000
# 6 0.000000 0.000000 0.000000 0.000000 0.000000 0.040276
#
#
# Mechanical properties :
#
#
# Convention : Reuss Voigt Hill
#
# Bulk Modulus (GPa) = 42.90238 44.22805 43.56522
# Shear Modulus (GPa) = 24.79459 26.30350 25.54904
#
# Velocity S-wave (km/s) = 3.51075 3.61599 3.56376
# Velocity P-wave (km/s) = 6.14495 6.27850 6.21209
#
# Compressibility (1/GPa) = 0.02330873
#
# Stress axis : x y z
#
# Youngs Moduli (GPa) = 47.62383 52.40611 74.89129
#
# Poissons Ratio (x) = 0.36844 0.47173
# Poissons Ratio (y) = 0.33482 0.12974
# Poissons Ratio (z) = 0.29998 0.09079
#
# Static dielectric constant tensor:
#      x y z
#    x 3.179530 0.000000 0.000000 
#    y 0.000000 3.639540 0.000000 
#    z 0.000000 0.000000 3.468320 
# 
# 
# High freq. dielectric constant tensor:
#      x y z
#    x 1.789210 0.000000 0.000000 
#    y 0.000000 1.785360 0.000000 
#    z 0.000000 0.000000 1.785980 
# 
# From -- ./inp_files/20883.got.cif
#   From: 2010.03.12/outbox.cif.g09.slc.cpg/sg53_11_cif.got.tgz:20883.got - 2010.04.16 14:36:59.
