data_PCOD8218777
_publ_section_title
;
Structure prediction by ZEFSAII (Michael W. Deem and Ramdas Pophale) SiO2 
 PCOD8218777
Probable space group: P M N A
;
_chemical_formula_sum "Si O2"
_cell_formula_units_Z 56
_cell_length_a 20.691764
_cell_length_b 17.264683
_cell_length_c 7.899384
_cell_angle_alpha 90.000000
_cell_angle_beta 90.000000
_cell_angle_gamma 90.000000
_cell_volume 2821.950237
_symmetry_space_group_name_H-M "P M N A"
_symmetry_group_IT_number 53
_symmetry_cell_setting 'orthorhombic'
loop_
_space_group_symop_operation_xyz
x,y,z
1/2-x,-y,1/2+z
x,-y,-z
1/2-x,y,1/2-z
-x,-y,-z
1/2+x,y,1/2-z
-x,y,z
1/2+x,-y,1/2+z
loop_
_atom_site_type_symbol
_atom_site_label
_atom_site_fract_x
_atom_site_fract_y
_atom_site_fract_z
Si Si1 0.889263 0.262269 0.424308
Si Si2 0.692089 0.939319 0.140090
Si Si3 0.244614 0.202473 0.438722
Si Si4 0.115281 0.744444 0.954041
Si Si5 0.075079 0.420420 0.564923
Si Si6 0.072326 0.843343 0.264505
Si Si7 0.423333 0.583000 0.438169
O O1 0.812005 0.266185 0.448648
O O2 0.904408 0.227624 0.236226
O O3 0.914234 0.349806 0.436791
O O4 0.921455 0.207718 0.565326
O O5 0.750000 0.978759 0.250000
O O6 0.627455 0.910676 0.240632
O O7 0.728250 0.866645 0.062187
O O8 0.667738 0.000000 0.000000
O O9 0.250000 0.168339 0.250000
O O10 0.310088 0.242050 0.499001
O O11 0.074896 0.789585 0.096955
O O12 0.104063 0.652552 0.949877
O O13 0.108093 0.500000 0.500000
O O14 0.103056 0.400733 0.749347
O O15 0.000000 0.436828 0.586752
O O16 0.000000 0.880220 0.266439
O O17 0.396472 0.500000 0.500000
O O18 0.500000 0.584306 0.452330
#
# Coordination Sequence:
#
# PCOD8218777 Si02
#       7
#     8   8   8   8   8   8   8
#     4  10  21  35  58  85 118 157 201 255 306 362
#     4  11  22  40  67  92 122 162 206 252 308 373
#     4   9  20  38  60  89 112 151 206 251 295 369
#     4  11  20  37  61  85 122 159 205 256 306 362
#     4  10  19  32  49  74 111 152 200 254 305 363
#     4  11  23  39  62  94 126 160 203 251 310 372
#     4  10  20  33  51  80 116 159 207 252 306 365
#
# _framework density 19.844432999999999
#
# number of rings (size 3 to 8) (size 9 to 14) (size 15 to 20)
#    0.000    1.714    2.857    2.143    0.000    3.714 
#    0.000    0.714    0.000    0.429    0.000    0.000 
#    0.000    0.000    0.000    0.000    0.000    0.000 
#
# Total GULP energy -694139.089108 kJ/mol
# GULP energy per Si atom -12395.340877 kJ/mol
# Density = 1.979927 g / cm^3
# Si number density = 19.844433 Si / 1000 Ang^3
#
#
#
# Elastic Constant Matrix: (Units=GPa)
#
#
# Indices 1 2 3 4 5 6 
#
# 1 99.8639 22.7153 31.1402 0.0000 0.0000 0.0000
# 2 22.7153 71.8513 21.2921 0.0000 0.0000 0.0000
# 3 31.1402 21.2921 107.7746 0.0000 0.0000 0.0000
# 4 0.0000 0.0000 0.0000 30.6266 0.0000 0.0000
# 5 0.0000 0.0000 0.0000 0.0000 21.2214 0.0000
# 6 0.0000 0.0000 0.0000 0.0000 0.0000 26.2701
#
#
#
# Elastic Compliance Matrix: (Units=1/GPa)
#
#
# Indices 1 2 3 4 5 6 
#
# 1 0.011519 -0.002821 -0.002771 0.000000 0.000000 0.000000
# 2 -0.002821 0.015474 -0.002242 0.000000 0.000000 0.000000
# 3 -0.002771 -0.002242 0.010522 0.000000 0.000000 0.000000
# 4 0.000000 0.000000 0.000000 0.032651 0.000000 0.000000
# 5 0.000000 0.000000 0.000000 0.000000 0.047122 0.000000
# 6 0.000000 0.000000 0.000000 0.000000 0.000000 0.038066
#
#
# Mechanical properties :
#
#
# Convention : Reuss Voigt Hill
#
# Bulk Modulus (GPa) = 45.77118 47.75390 46.76254
# Shear Modulus (GPa) = 28.04183 29.24644 28.64413
#
# Velocity S-wave (km/s) = 3.76318 3.84316 3.80338
# Velocity P-wave (km/s) = 6.48052 6.61887 6.55006
#
# Compressibility (1/GPa) = 0.02184781
#
# Stress axis : x y z
#
# Youngs Moduli (GPa) = 86.81070 64.62562 95.03672
#
# Poissons Ratio (x) = 0.18228 0.26336
# Poissons Ratio (y) = 0.24486 0.21308
# Poissons Ratio (z) = 0.24056 0.14489
#
# Static dielectric constant tensor:
#      x y z
#    x 3.618640 0.000000 0.000000 
#    y 0.000000 3.431850 0.000000 
#    z 0.000000 0.000000 3.880530 
# 
# 
# High freq. dielectric constant tensor:
#      x y z
#    x 1.758850 0.000000 0.000000 
#    y 0.000000 1.754560 0.000000 
#    z 0.000000 0.000000 1.790340 
# 
# From -- ./inp_files/11163.got.cif
#   From: 2010.03.12/outbox.cif.g09.slc.cpg/sg53_6_cif.got.tgz:11163.got - 2010.04.16 14:36:59.
