data_PCOD8218145
_publ_section_title
;
Structure prediction by ZEFSAII (Michael W. Deem and Ramdas Pophale) SiO2 
 PCOD8218145
Probable space group: P M N A
;
_chemical_formula_sum "Si O2"
_cell_formula_units_Z 56
_cell_length_a 18.543059
_cell_length_b 9.407823
_cell_length_c 17.531175
_cell_angle_alpha 90.000000
_cell_angle_beta 90.000000
_cell_angle_gamma 90.000000
_cell_volume 3058.310270
_symmetry_space_group_name_H-M "P M N A"
_symmetry_group_IT_number 53
_symmetry_cell_setting 'orthorhombic'
loop_
_space_group_symop_operation_xyz
x,y,z
1/2-x,-y,1/2+z
x,-y,-z
1/2-x,y,1/2-z
-x,-y,-z
1/2+x,y,1/2-z
-x,y,z
1/2+x,-y,1/2+z
loop_
_atom_site_type_symbol
_atom_site_label
_atom_site_fract_x
_atom_site_fract_y
_atom_site_fract_z
Si Si1 0.172903 0.218672 0.719888
Si Si2 0.786996 0.342744 0.026022
Si Si3 0.651297 0.986736 0.354227
Si Si4 0.209298 0.893443 0.438968
Si Si5 0.814477 0.711797 0.809267
Si Si6 0.584327 0.450363 0.709646
Si Si7 0.080639 0.256998 0.935359
O O1 0.250000 0.282275 0.750000
O O2 0.158995 0.084701 0.772673
O O3 0.164442 0.159086 0.634035
O O4 0.113056 0.341186 0.726595
O O5 0.773903 0.343205 0.115898
O O6 0.773792 0.500000 0.000000
O O7 0.728478 0.248818 0.983409
O O8 0.867164 0.284403 0.006415
O O9 0.721951 0.978943 0.407078
O O10 0.588911 0.902584 0.400480
O O11 0.637691 0.150605 0.333379
O O12 0.169705 0.000000 0.500000
O O13 0.750000 0.745795 0.750000
O O14 0.871616 0.595896 0.780136
O O15 0.500000 0.479935 0.723028
O O16 0.598751 0.377520 0.627559
O O17 0.000000 0.273328 0.966264
#
# Coordination Sequence:
#
# PCOD8218145 Si02
#       7
#     8   8   8   8   8   8   8
#     4   9  18  34  58  78 102 139 178 217 268 323
#     4  11  22  33  49  80 111 141 178 226 267 319
#     4   9  19  34  51  79 110 137 173 225 265 314
#     4  10  18  32  54  77 107 130 174 228 277 310
#     4  12  23  34  53  79 114 142 180 224 270 321
#     4  10  21  36  53  77 107 144 181 216 262 326
#     4   9  19  36  56  75 107 150 182 213 264 329
#
# _framework density 18.310763999999999
#
# number of rings (size 3 to 8) (size 9 to 14) (size 15 to 20)
#    0.000    2.000    2.857    2.571    2.000    1.429 
#    0.000    0.714    0.000    0.429    0.000    2.000 
#    0.000    0.000    0.000    0.571    0.000    0.000 
#
# Total GULP energy -693996.019793 kJ/mol
# GULP energy per Si atom -12392.786068 kJ/mol
# Density = 1.826909 g / cm^3
# Si number density = 18.310764 Si / 1000 Ang^3
#
#
#
# Elastic Constant Matrix: (Units=GPa)
#
#
# Indices 1 2 3 4 5 6 
#
# 1 34.6432 23.4624 18.5377 0.0000 0.0000 0.0000
# 2 23.4624 123.1212 32.0105 0.0000 0.0000 0.0000
# 3 18.5377 32.0105 100.5161 0.0000 0.0000 0.0000
# 4 0.0000 0.0000 0.0000 20.6942 0.0000 0.0000
# 5 0.0000 0.0000 0.0000 0.0000 8.9916 0.0000
# 6 0.0000 0.0000 0.0000 0.0000 0.0000 16.3866
#
#
#
# Elastic Compliance Matrix: (Units=1/GPa)
#
#
# Indices 1 2 3 4 5 6 
#
# 1 0.035095 -0.005457 -0.004735 0.000000 0.000000 0.000000
# 2 -0.005457 0.009704 -0.002084 0.000000 0.000000 0.000000
# 3 -0.004735 -0.002084 0.011485 0.000000 0.000000 0.000000
# 4 0.000000 0.000000 0.000000 0.048323 0.000000 0.000000
# 5 0.000000 0.000000 0.000000 0.000000 0.111216 0.000000
# 6 0.000000 0.000000 0.000000 0.000000 0.000000 0.061026
#
#
# Mechanical properties :
#
#
# Convention : Reuss Voigt Hill
#
# Bulk Modulus (GPa) = 31.51245 45.14462 38.32854
# Shear Modulus (GPa) = 16.02685 21.49913 18.76299
#
# Velocity S-wave (km/s) = 2.96170 3.43027 3.20456
# Velocity P-wave (km/s) = 5.37985 6.35588 5.88812
#
# Compressibility (1/GPa) = 0.03173349
#
# Stress axis : x y z
#
# Youngs Moduli (GPa) = 28.49413 103.05289 87.06657
#
# Poissons Ratio (x) = 0.56235 0.41222
# Poissons Ratio (y) = 0.15549 0.18144
# Poissons Ratio (z) = 0.13491 0.21475
#
# Static dielectric constant tensor:
#      x y z
#    x 3.035930 0.000000 0.000000 
#    y 0.000000 3.496490 0.000000 
#    z 0.000000 0.000000 3.383600 
# 
# 
# High freq. dielectric constant tensor:
#      x y z
#    x 1.656160 0.000000 0.000000 
#    y 0.000000 1.726950 0.000000 
#    z 0.000000 0.000000 1.711220 
# 
# From -- ./inp_files/29345.got.cif
#   From: 2010.03.12/outbox.cif.g09.slc.cpg/sg53_15_cif.got.tgz:29345.got - 2010.04.16 14:36:59.
