data_PCOD8218412
_publ_section_title
;
Structure prediction by ZEFSAII (Michael W. Deem and Ramdas Pophale) SiO2 
 PCOD8218412
Probable space group: P M N A
;
_chemical_formula_sum "Si O2"
_cell_formula_units_Z 48
_cell_length_a 18.465849
_cell_length_b 15.838537
_cell_length_c 8.751584
_cell_angle_alpha 90.000000
_cell_angle_beta 90.000000
_cell_angle_gamma 90.000000
_cell_volume 2559.593561
_symmetry_space_group_name_H-M "P M N A"
_symmetry_group_IT_number 53
_symmetry_cell_setting 'orthorhombic'
loop_
_space_group_symop_operation_xyz
x,y,z
1/2-x,-y,1/2+z
x,-y,-z
1/2-x,y,1/2-z
-x,-y,-z
1/2+x,y,1/2-z
-x,y,z
1/2+x,-y,1/2+z
loop_
_atom_site_type_symbol
_atom_site_label
_atom_site_fract_x
_atom_site_fract_y
_atom_site_fract_z
Si Si1 0.581360 0.499999 0.681666
Si Si2 0.414059 0.000002 0.332668
Si Si3 0.918597 0.818964 0.817037
Si Si4 0.918598 0.181036 0.817045
Si Si5 0.671233 0.660493 0.318393
Si Si6 0.828768 0.339508 0.181611
O O1 0.578427 0.500000 0.500000
O O2 0.500000 0.499994 0.748679
O O3 0.622872 0.417190 0.741254
O O4 0.622865 0.582812 0.741255
O O5 0.500000 0.000015 0.350551
O O6 0.392295 0.088870 0.250520
O O7 0.377677 0.000000 0.500000
O O8 0.392303 0.911132 0.250524
O O9 0.864845 0.746839 0.756447
O O10 0.000000 0.797998 0.760267
O O11 0.918385 0.822880 0.999996
O O12 0.864846 0.253161 0.756453
O O13 0.000000 0.202008 0.760279
O O14 0.750000 0.650743 0.250000
O O15 0.676112 0.660512 0.500002
O O16 0.750000 0.349266 0.250000
#
# Coordination Sequence:
#
# PCOD8218412 Si02
#       6
#     8   8   8   8   8   8
#     4   9  17  30  49  69  84 105 144 186 214 241
#     4   7  10  18  35  60  85 105 134 181 222 242
#     4   8  13  23  41  63  84 109 144 182 214 244
#     4   8  13  23  41  63  84 109 144 182 214 244
#     4  10  19  30  45  65  90 116 140 171 212 257
#     4  10  19  30  45  65  90 116 140 171 212 257
#
# _framework density 18.752977999999999
#
# number of rings (size 3 to 8) (size 9 to 14) (size 15 to 20)
#    0.000    3.333    0.000    3.500    0.000    4.000 
#    0.000    0.833    0.000    5.000    0.000    0.000 
#    0.000    4.000    0.000    0.000    0.000    0.000 
#
# Total GULP energy -594628.479344 kJ/mol
# GULP energy per Si atom -12388.093320 kJ/mol
# Density = 1.871030 g / cm^3
# Si number density = 18.752978 Si / 1000 Ang^3
#
#
#
# Elastic Constant Matrix: (Units=GPa)
#
#
# Indices 1 2 3 4 5 6 
#
# 1 143.1772 100.3605 10.8893 0.0000 0.0000 0.0000
# 2 100.3605 218.2737 13.3929 0.0000 0.0000 0.0000
# 3 10.8893 13.3929 5.5678 0.0000 0.0000 0.0000
# 4 0.0000 0.0000 0.0000 3.8533 0.0000 0.0000
# 5 0.0000 0.0000 0.0000 0.0000 19.5998 0.0000
# 6 0.0000 0.0000 0.0000 0.0000 0.0000 15.9168
#
#
#
# Elastic Compliance Matrix: (Units=1/GPa)
#
#
# Indices 1 2 3 4 5 6 
#
# 1 0.010832 -0.004318 -0.010799 0.000000 0.000000 0.000000
# 2 -0.004318 0.007096 -0.008624 0.000000 0.000000 0.000000
# 3 -0.010799 -0.008624 0.221468 0.000000 0.000000 0.000000
# 4 0.000000 0.000000 0.000000 0.259521 0.000000 0.000000
# 5 0.000000 0.000000 0.000000 0.000000 0.051021 0.000000
# 6 0.000000 0.000000 0.000000 0.000000 0.000000 0.062827
#
#
# Mechanical properties :
#
#
# Convention : Reuss Voigt Hill
#
# Bulk Modulus (GPa) = 5.21063 68.47823 36.84443
# Shear Modulus (GPa) = 6.90400 24.03237 15.46818
#
# Velocity S-wave (km/s) = 1.92082 3.58372 2.87512
# Velocity P-wave (km/s) = 2.77560 7.32934 5.54181
#
# Compressibility (1/GPa) = 0.19191535
#
# Stress axis : x y z
#
# Youngs Moduli (GPa) = 92.31551 140.92557 4.51532
#
# Poissons Ratio (x) = 0.60852 0.04876
# Poissons Ratio (y) = 0.39862 0.03894
# Poissons Ratio (z) = 0.99691 1.21529
#
# Static dielectric constant tensor:
#      x y z
#    x 3.307770 0.000000 0.000000 
#    y 0.000000 4.171890 0.000000 
#    z 0.000000 0.000000 2.674610 
# 
# 
# High freq. dielectric constant tensor:
#      x y z
#    x 1.710700 0.000000 0.000000 
#    y 0.000000 1.761170 0.000000 
#    z 0.000000 0.000000 1.645030 
# 
# From -- ./inp_files/10919.got.cif
#   From: 2010.03.12/outbox.cif.g09.slc.cpg/sg53_6_cif.got.tgz:10919.got - 2010.04.16 14:36:59.
