data_PCOD8218260
_publ_section_title
;
Structure prediction by ZEFSAII (Michael W. Deem and Ramdas Pophale) SiO2 
 PCOD8218260
Probable space group: P M N A
;
_chemical_formula_sum "Si O2"
_cell_formula_units_Z 64
_cell_length_a 18.243908
_cell_length_b 15.068883
_cell_length_c 13.430969
_cell_angle_alpha 90.000000
_cell_angle_beta 90.000000
_cell_angle_gamma 90.000000
_cell_volume 3692.379075
_symmetry_space_group_name_H-M "P M N A"
_symmetry_group_IT_number 53
_symmetry_cell_setting 'orthorhombic'
loop_
_space_group_symop_operation_xyz
x,y,z
1/2-x,-y,1/2+z
x,-y,-z
1/2-x,y,1/2-z
-x,-y,-z
1/2+x,y,1/2-z
-x,y,z
1/2+x,-y,1/2+z
loop_
_atom_site_type_symbol
_atom_site_label
_atom_site_fract_x
_atom_site_fract_y
_atom_site_fract_z
Si Si1 0.417999 0.034671 0.821652
Si Si2 0.916737 0.241863 0.400869
Si Si3 0.344767 0.899622 0.514660
Si Si4 0.678002 0.700497 0.194186
Si Si5 0.583827 0.813959 0.333655
Si Si6 0.084988 0.596815 0.464043
Si Si7 0.582555 0.145739 0.286579
Si Si8 0.815202 0.139605 0.546236
O O1 0.500000 0.052282 0.862993
O O2 0.404236 0.094915 0.725191
O O3 0.359201 0.058042 0.905556
O O4 0.406708 0.933825 0.791194
O O5 0.903318 0.341575 0.438945
O O6 0.903024 0.233814 0.281167
O O7 0.863020 0.176352 0.457084
O O8 0.000000 0.212413 0.425239
O O9 0.383642 0.829758 0.442521
O O10 0.359732 0.862875 0.625082
O O11 0.258628 0.900203 0.497196
O O12 0.375326 0.000000 0.500000
O O13 0.750000 0.661123 0.250000
O O14 0.621993 0.731787 0.278986
O O15 0.637483 0.626590 0.126805
O O16 0.702066 0.784299 0.127297
O O17 0.500000 0.786746 0.344325
O O18 0.108896 0.500000 0.500000
O O19 0.000000 0.599587 0.428398
O O20 0.500000 0.145113 0.330988
#
# Coordination Sequence:
#
# PCOD8218260 Si02
#       8
#     8   8   8   8   8   8   8   8
#     4   9  18  32  50  69  94 133 182 227 263 303
#     4   9  19  36  55  77 102 131 169 213 263 321
#     4  12  23  33  46  70 104 147 190 225 259 298
#     4  10  18  34  56  80 112 136 169 213 267 319
#     4  10  19  33  52  73 100 140 186 224 256 300
#     4   9  18  35  63  90 109 131 165 213 266 323
#     4  10  21  35  50  68  97 141 184 220 257 302
#     4  10  21  33  49  74 102 138 172 221 272 307
#
# _framework density 17.332999000000001
#
# number of rings (size 3 to 8) (size 9 to 14) (size 15 to 20)
#    0.000    2.125    2.500    1.125    1.750    4.000 
#    0.000    1.875    5.500    0.000    0.000    0.000 
#    0.000    6.000    0.000    0.000    0.000    0.000 
#
# Total GULP energy -793546.773039 kJ/mol
# GULP energy per Si atom -12399.168329 kJ/mol
# Density = 1.729355 g / cm^3
# Si number density = 17.332999 Si / 1000 Ang^3
#
#
#
# Elastic Constant Matrix: (Units=GPa)
#
#
# Indices 1 2 3 4 5 6 
#
# 1 108.4826 35.0745 62.4986 0.0000 0.0000 0.0000
# 2 35.0745 72.2702 45.5792 0.0000 0.0000 0.0000
# 3 62.4986 45.5792 109.3683 0.0000 0.0000 0.0000
# 4 0.0000 0.0000 0.0000 19.9163 0.0000 0.0000
# 5 0.0000 0.0000 0.0000 0.0000 48.6397 0.0000
# 6 0.0000 0.0000 0.0000 0.0000 0.0000 29.5054
#
#
#
# Elastic Compliance Matrix: (Units=1/GPa)
#
#
# Indices 1 2 3 4 5 6 
#
# 1 0.014038 -0.002379 -0.007030 0.000000 0.000000 0.000000
# 2 -0.002379 0.019174 -0.006631 0.000000 0.000000 0.000000
# 3 -0.007030 -0.006631 0.015924 0.000000 0.000000 0.000000
# 4 0.000000 0.000000 0.000000 0.050210 0.000000 0.000000
# 5 0.000000 0.000000 0.000000 0.000000 0.020559 0.000000
# 6 0.000000 0.000000 0.000000 0.000000 0.000000 0.033892
#
#
# Mechanical properties :
#
#
# Convention : Reuss Voigt Hill
#
# Bulk Modulus (GPa) = 58.63459 64.04729 61.34094
# Shear Modulus (GPa) = 26.10106 29.41018 27.75562
#
# Velocity S-wave (km/s) = 3.88475 4.12366 4.00599
# Velocity P-wave (km/s) = 7.35006 7.72684 7.54081
#
# Compressibility (1/GPa) = 0.01705478
#
# Stress axis : x y z
#
# Youngs Moduli (GPa) = 71.23770 52.15494 62.79639
#
# Poissons Ratio (x) = 0.12407 0.44148
# Poissons Ratio (y) = 0.16946 0.41642
# Poissons Ratio (z) = 0.50083 0.34585
#
# Static dielectric constant tensor:
#      x y z
#    x 3.249410 0.000000 0.000000 
#    y 0.000000 2.951300 0.000000 
#    z 0.000000 0.000000 3.216370 
# 
# 
# High freq. dielectric constant tensor:
#      x y z
#    x 1.674630 0.000000 0.000000 
#    y 0.000000 1.630670 0.000000 
#    z 0.000000 0.000000 1.669680 
# 
# From -- ./inp_files/17132.got.cif
#   From: 2010.03.12/outbox.cif.g09.slc.cpg/sg53_9_cif.got.tgz:17132.got - 2010.04.16 14:36:59.
