data_PCOD8218214
_publ_section_title
;
Structure prediction by ZEFSAII (Michael W. Deem and Ramdas Pophale) SiO2 
 PCOD8218214
Probable space group: P M N A
;
_chemical_formula_sum "Si O2"
_cell_formula_units_Z 64
_cell_length_a 19.021141
_cell_length_b 8.816101
_cell_length_c 20.883338
_cell_angle_alpha 90.000000
_cell_angle_beta 90.000000
_cell_angle_gamma 90.000000
_cell_volume 3501.974985
_symmetry_space_group_name_H-M "P M N A"
_symmetry_group_IT_number 53
_symmetry_cell_setting 'orthorhombic'
loop_
_space_group_symop_operation_xyz
x,y,z
1/2-x,-y,1/2+z
x,-y,-z
1/2-x,y,1/2-z
-x,-y,-z
1/2+x,y,1/2-z
-x,y,z
1/2+x,-y,1/2+z
loop_
_atom_site_type_symbol
_atom_site_label
_atom_site_fract_x
_atom_site_fract_y
_atom_site_fract_z
Si Si1 0.831224 0.585490 0.939034
Si Si2 0.920137 0.945039 0.756764
Si Si3 0.226804 0.333900 0.604004
Si Si4 0.818783 0.839898 0.654683
Si Si5 0.210400 0.089365 0.811925
Si Si6 0.819725 0.489862 0.286817
Si Si7 0.727291 0.830499 0.980524
Si Si8 0.078450 0.614162 0.815158
O O1 0.766722 0.487688 0.912572
O O2 0.799741 0.748197 0.959763
O O3 0.889388 0.605978 0.885462
O O4 0.865643 0.500000 0.000000
O O5 0.886045 0.923868 0.685963
O O6 0.919668 0.786591 0.793075
O O7 0.000000 0.007038 0.750012
O O8 0.872221 0.062057 0.797358
O O9 0.282229 0.210698 0.631371
O O10 0.168053 0.384792 0.656543
O O11 0.192018 0.259781 0.540584
O O12 0.808615 0.675347 0.683885
O O13 0.828858 0.831208 0.577854
O O14 0.746733 0.929770 0.669433
O O15 0.250000 0.156480 0.750000
O O16 0.750000 0.539060 0.250000
O O17 0.883292 0.493928 0.236508
O O18 0.747651 0.000000 0.000000
O O19 0.000000 0.551127 0.819410
#
# Coordination Sequence:
#
# PCOD8218214 Si02
#       8
#     8   8   8   8   8   8   8   8
#     4  10  21  35  52  82 111 144 181 222 275 326
#     4   9  19  34  56  82 109 145 192 233 270 329
#     4  11  21  30  53  82 113 138 176 230 279 329
#     4  10  18  33  55  81 107 144 183 229 280 320
#     4  10  19  31  52  82 107 140 179 228 278 316
#     4  11  18  32  57  80 109 137 178 228 278 328
#     4  11  20  34  54  81 107 141 184 234 274 324
#     4  10  20  35  58  81 109 150 186 222 275 334
#
# _framework density 18.275403000000001
#
# number of rings (size 3 to 8) (size 9 to 14) (size 15 to 20)
#    0.000    1.750    3.750    3.000    0.000    0.250 
#    0.000    0.625    0.000    2.250    0.000    3.500 
#    0.000    0.000    0.000    0.000    0.000    0.000 
#
# Total GULP energy -793346.516967 kJ/mol
# GULP energy per Si atom -12396.039328 kJ/mol
# Density = 1.823381 g / cm^3
# Si number density = 18.275403 Si / 1000 Ang^3
#
#
#
# Elastic Constant Matrix: (Units=GPa)
#
#
# Indices 1 2 3 4 5 6 
#
# 1 87.7235 22.6947 40.1733 0.0000 0.0000 0.0000
# 2 22.6947 65.7024 33.7221 0.0000 0.0000 0.0000
# 3 40.1733 33.7221 134.8853 0.0000 0.0000 0.0000
# 4 0.0000 0.0000 0.0000 33.6952 0.0000 0.0000
# 5 0.0000 0.0000 0.0000 0.0000 20.3380 0.0000
# 6 0.0000 0.0000 0.0000 0.0000 0.0000 2.5266
#
#
#
# Elastic Compliance Matrix: (Units=1/GPa)
#
#
# Indices 1 2 3 4 5 6 
#
# 1 0.013705 -0.003027 -0.003325 0.000000 0.000000 0.000000
# 2 -0.003027 0.018129 -0.003631 0.000000 0.000000 0.000000
# 3 -0.003325 -0.003631 0.009312 0.000000 0.000000 0.000000
# 4 0.000000 0.000000 0.000000 0.029678 0.000000 0.000000
# 5 0.000000 0.000000 0.000000 0.000000 0.049169 0.000000
# 6 0.000000 0.000000 0.000000 0.000000 0.000000 0.395787
#
#
# Mechanical properties :
#
#
# Convention : Reuss Voigt Hill
#
# Bulk Modulus (GPa) = 47.21448 53.49906 50.35677
# Shear Modulus (GPa) = 9.21139 24.09337 16.65238
#
# Velocity S-wave (km/s) = 2.24750 3.63485 3.02187
# Velocity P-wave (km/s) = 5.71193 6.85226 6.30792
#
# Compressibility (1/GPa) = 0.02117994
#
# Stress axis : x y z
#
# Youngs Moduli (GPa) = 72.96401 55.15902 107.39146
#
# Poissons Ratio (x) = 0.16699 0.35708
# Poissons Ratio (y) = 0.22090 0.38991
# Poissons Ratio (z) = 0.24261 0.20027
#
# Static dielectric constant tensor:
#      x y z
#    x 3.119220 0.000000 0.000000 
#    y 0.000000 3.421770 0.000000 
#    z 0.000000 0.000000 3.933010 
# 
# 
# High freq. dielectric constant tensor:
#      x y z
#    x 1.650750 0.000000 0.000000 
#    y 0.000000 1.717050 0.000000 
#    z 0.000000 0.000000 1.728920 
# 
# From -- ./inp_files/33089.got.cif
#   From: 2010.03.12/outbox.cif.g09.slc.cpg/sg53_17_cif.got.tgz:33089.got - 2010.04.16 14:36:59.
