data_PCOD8218696
_publ_section_title
;
Structure prediction by ZEFSAII (Michael W. Deem and Ramdas Pophale) SiO2 
 PCOD8218696
Probable space group: P M N A
;
_chemical_formula_sum "Si O2"
_cell_formula_units_Z 56
_cell_length_a 17.308797
_cell_length_b 32.578857
_cell_length_c 5.099607
_cell_angle_alpha 90.000000
_cell_angle_beta 90.000000
_cell_angle_gamma 90.000000
_cell_volume 2875.672581
_symmetry_space_group_name_H-M "P M N A"
_symmetry_group_IT_number 53
_symmetry_cell_setting 'orthorhombic'
loop_
_space_group_symop_operation_xyz
x,y,z
1/2-x,-y,1/2+z
x,-y,-z
1/2-x,y,1/2-z
-x,-y,-z
1/2+x,y,1/2-z
-x,y,z
1/2+x,-y,1/2+z
loop_
_atom_site_type_symbol
_atom_site_label
_atom_site_fract_x
_atom_site_fract_y
_atom_site_fract_z
Si Si1 0.338658 0.472640 0.747358
Si Si2 0.696421 0.868048 0.499617
Si Si3 0.159952 0.655303 0.702568
Si Si4 0.412853 0.205649 0.634145
Si Si5 0.412080 0.741974 0.879121
Si Si6 0.910312 0.386239 0.788834
Si Si7 0.196575 0.956777 0.998890
O O1 0.354941 0.500000 0.500000
O O2 0.250000 0.457130 0.750000
O O3 0.395699 0.434661 0.705875
O O4 0.359191 0.500000 0.000000
O O5 0.750000 0.858723 0.750000
O O6 0.632109 0.834040 0.462293
O O7 0.652436 0.912800 0.521472
O O8 0.750000 0.867576 0.250000
O O9 0.250000 0.650871 0.750000
O O10 0.140464 0.702148 0.636794
O O11 0.141013 0.629562 0.447643
O O12 0.112591 0.637257 0.946004
O O13 0.500000 0.191232 0.690835
O O14 0.408864 0.238537 0.405403
O O15 0.378878 0.226813 0.898523
O O16 0.500000 0.729883 0.955869
O O17 0.000000 0.377471 0.736482
O O18 0.250000 0.960116 0.750000
O O19 0.250000 0.954804 0.250000
O O20 0.146335 0.000000 0.000000
#
# Coordination Sequence:
#
# PCOD8218696 Si02
#       7
#     8   8   8   8   8   8   8
#     4  10  21  38  61  89 122 157 192 235 285 332
#     4  10  19  31  50  76 103 134 176 224 266 316
#     4  12  25  42  64  90 118 151 194 242 290 337
#     4  10  21  36  54  76 107 143 175 217 275 333
#     4  10  21  38  58  80 108 144 183 222 272 331
#     4  12  25  42  65  92 124 159 195 237 284 341
#     4   8  14  25  42  66  96 129 167 213 264 313
#
# _framework density 19.473707000000001
#
# number of rings (size 3 to 8) (size 9 to 14) (size 15 to 20)
#    0.000    1.714    0.000    5.143    0.000    4.571 
#    0.000    0.000    0.000    0.429    0.000    0.000 
#    0.000   14.857    0.000    0.000    0.000    2.286 
#
# Total GULP energy -694010.823759 kJ/mol
# GULP energy per Si atom -12393.050424 kJ/mol
# Density = 1.942938 g / cm^3
# Si number density = 19.473707 Si / 1000 Ang^3
#
#
#
# Elastic Constant Matrix: (Units=GPa)
#
#
# Indices 1 2 3 4 5 6 
#
# 1 99.6703 52.6375 33.3830 0.0000 0.0000 0.0000
# 2 52.6375 137.7824 34.1580 0.0000 0.0000 0.0000
# 3 33.3830 34.1580 137.1424 0.0000 0.0000 0.0000
# 4 0.0000 0.0000 0.0000 48.8633 0.0000 0.0000
# 5 0.0000 0.0000 0.0000 0.0000 46.2491 0.0000
# 6 0.0000 0.0000 0.0000 0.0000 0.0000 -0.4805
#
#
#
# Elastic Compliance Matrix: (Units=1/GPa)
#
#
# Indices 1 2 3 4 5 6 
#
# 1 0.013098 -0.004491 -0.002070 0.000000 0.000000 0.000000
# 2 -0.004491 0.009275 -0.001217 0.000000 0.000000 0.000000
# 3 -0.002070 -0.001217 0.008099 0.000000 0.000000 0.000000
# 4 0.000000 0.000000 0.000000 0.020465 0.000000 0.000000
# 5 0.000000 0.000000 0.000000 0.000000 0.021622 0.000000
# 6 0.000000 0.000000 0.000000 0.000000 0.000000 -2.080999
#
#
# Mechanical properties :
#
#
# Convention : Reuss Voigt Hill
#
# Bulk Modulus (GPa) = 67.03917 68.32802 67.68360
# Shear Modulus (GPa) = -2.51520 35.88745 16.68613
#
# Velocity S-wave (km/s) = -1.13771 4.29752 2.93038
# Velocity P-wave (km/s) = 5.72489 7.73230 6.80304
#
# Compressibility (1/GPa) = 0.01491665
#
# Stress axis : x y z
#
# Youngs Moduli (GPa) = 76.34778 107.81492 123.47754
#
# Poissons Ratio (x) = 0.48417 0.25557
# Poissons Ratio (y) = 0.34286 0.15028
# Poissons Ratio (z) = 0.15802 0.13121
#
# Static dielectric constant tensor:
#      x y z
#    x 3.930510 0.000000 0.000000 
#    y 0.000000 4.109060 0.000000 
#    z 0.000000 0.000000 3.852110 
# 
# 
# High freq. dielectric constant tensor:
#      x y z
#    x 1.718100 0.000000 0.000000 
#    y 0.000000 1.781420 0.000000 
#    z 0.000000 0.000000 1.787410 
# 
# From -- ./inp_files/1473.got.cif
#   From: 2010.03.12/outbox.cif.g09.slc.cpg/sg53_1_cif.got.tgz:1473.got - 2010.04.16 14:36:59.
