data_PCOD8218340
_publ_section_title
;
Structure prediction by ZEFSAII (Michael W. Deem and Ramdas Pophale) SiO2 
 PCOD8218340
Probable space group: P M N A
;
_chemical_formula_sum "Si O2"
_cell_formula_units_Z 64
_cell_length_a 9.050312
_cell_length_b 26.317248
_cell_length_c 15.024352
_cell_angle_alpha 90.000000
_cell_angle_beta 90.000000
_cell_angle_gamma 90.000000
_cell_volume 3578.489723
_symmetry_space_group_name_H-M "P M N A"
_symmetry_group_IT_number 53
_symmetry_cell_setting 'orthorhombic'
loop_
_space_group_symop_operation_xyz
x,y,z
1/2-x,-y,1/2+z
x,-y,-z
1/2-x,y,1/2-z
-x,-y,-z
1/2+x,y,1/2-z
-x,y,z
1/2+x,-y,1/2+z
loop_
_atom_site_type_symbol
_atom_site_label
_atom_site_fract_x
_atom_site_fract_y
_atom_site_fract_z
Si Si1 0.829015 0.034836 0.659593
Si Si2 0.670239 0.189766 0.661384
Si Si3 0.660058 0.465293 0.826063
Si Si4 0.671300 0.914769 0.840895
Si Si5 0.335215 0.619041 0.028844
Si Si6 0.665525 0.457349 0.423657
Si Si7 0.324747 0.105182 0.522004
Si Si8 0.825442 0.306561 0.841832
O O1 0.750000 0.053747 0.750000
O O2 0.747632 0.058168 0.574259
O O3 0.000000 0.051853 0.662185
O O4 0.813540 0.974892 0.649288
O O5 0.750000 0.169576 0.750000
O O6 0.500000 0.184073 0.683589
O O7 0.714368 0.156415 0.576002
O O8 0.711967 0.247789 0.640156
O O9 0.750000 0.435067 0.750000
O O10 0.500000 0.479534 0.788783
O O11 0.646363 0.429670 0.909745
O O12 0.743570 0.518295 0.843166
O O13 0.750000 0.896216 0.750000
O O14 0.500000 0.898032 0.838951
O O15 0.753288 0.888993 0.924535
O O16 0.500000 0.638158 0.001256
O O17 0.244887 0.663835 0.075581
O O18 0.241968 0.596806 0.946726
O O19 0.664293 0.500000 0.500000
O O20 0.500000 0.444233 0.394012
O O21 0.500000 0.096272 0.513113
O O22 0.750000 0.324468 0.750000
O O23 0.000000 0.317522 0.836063
#
# Coordination Sequence:
#
# PCOD8218340 Si02
#       8
#     8   8   8   8   8   8   8   8
#     4  10  20  33  49  72 102 134 168 204 243 290
#     4   9  20  35  50  71  99 129 161 199 241 288
#     4  10  19  29  42  62  90 121 153 189 226 267
#     4  10  21  36  52  72  99 130 165 206 248 290
#     4  10  19  30  45  66  91 120 154 189 227 271
#     4   9  17  29  44  62  86 116 149 184 222 264
#     4  11  21  33  51  74 100 132 168 204 246 295
#     4  10  19  32  48  67  93 123 155 191 232 275
#
# _framework density 17.884640000000001
#
# number of rings (size 3 to 8) (size 9 to 14) (size 15 to 20)
#    0.000    2.125    0.000    3.750    0.000    9.500 
#    0.000    0.000    0.000    0.000    0.000    0.875 
#    0.000    2.000    0.000    0.000    0.000    0.000 
#
# Total GULP energy -793442.214528 kJ/mol
# GULP energy per Si atom -12397.534602 kJ/mol
# Density = 1.784393 g / cm^3
# Si number density = 17.884640 Si / 1000 Ang^3
#
#
#
# Elastic Constant Matrix: (Units=GPa)
#
#
# Indices 1 2 3 4 5 6 
#
# 1 146.7004 37.5038 50.6203 0.0000 0.0000 0.0000
# 2 37.5038 55.6937 28.7126 0.0000 0.0000 0.0000
# 3 50.6203 28.7126 90.8800 0.0000 0.0000 0.0000
# 4 0.0000 0.0000 0.0000 18.7154 0.0000 0.0000
# 5 0.0000 0.0000 0.0000 0.0000 33.9372 0.0000
# 6 0.0000 0.0000 0.0000 0.0000 0.0000 1.6514
#
#
#
# Elastic Compliance Matrix: (Units=1/GPa)
#
#
# Indices 1 2 3 4 5 6 
#
# 1 0.009210 -0.004249 -0.003787 0.000000 0.000000 0.000000
# 2 -0.004249 0.023410 -0.005029 0.000000 0.000000 0.000000
# 3 -0.003787 -0.005029 0.014702 0.000000 0.000000 0.000000
# 4 0.000000 0.000000 0.000000 0.053432 0.000000 0.000000
# 5 0.000000 0.000000 0.000000 0.000000 0.029466 0.000000
# 6 0.000000 0.000000 0.000000 0.000000 0.000000 0.605546
#
#
# Mechanical properties :
#
#
# Convention : Reuss Voigt Hill
#
# Bulk Modulus (GPa) = 47.19262 58.54974 52.87118
# Shear Modulus (GPa) = 6.50228 22.62329 14.56279
#
# Velocity S-wave (km/s) = 1.90881 3.56048 2.85662
# Velocity P-wave (km/s) = 5.59487 7.05062 6.36450
#
# Compressibility (1/GPa) = 0.02118975
#
# Stress axis : x y z
#
# Youngs Moduli (GPa) = 108.58000 42.71765 68.01794
#
# Poissons Ratio (x) = 0.18152 0.25761
# Poissons Ratio (y) = 0.46139 0.34207
# Poissons Ratio (z) = 0.41123 0.21483
#
# Static dielectric constant tensor:
#      x y z
#    x 3.641960 0.000000 0.000000 
#    y 0.000000 3.147840 0.000000 
#    z 0.000000 0.000000 3.252010 
# 
# 
# High freq. dielectric constant tensor:
#      x y z
#    x 1.715460 0.000000 0.000000 
#    y 0.000000 1.661740 0.000000 
#    z 0.000000 0.000000 1.674110 
# 
# From -- ./inp_files/20981.got.cif
#   From: 2010.03.12/outbox.cif.g09.slc.cpg/sg53_11_cif.got.tgz:20981.got - 2010.04.16 14:36:59.
