data_PCOD8218033
_publ_section_title
;
Structure prediction by ZEFSAII (Michael W. Deem and Ramdas Pophale) SiO2 
 PCOD8218033
Probable space group: P M N A
;
_chemical_formula_sum "Si O2"
_cell_formula_units_Z 64
_cell_length_a 8.694184
_cell_length_b 20.467672
_cell_length_c 19.184800
_cell_angle_alpha 90.000000
_cell_angle_beta 90.000000
_cell_angle_gamma 90.000000
_cell_volume 3413.929528
_symmetry_space_group_name_H-M "P M N A"
_symmetry_group_IT_number 53
_symmetry_cell_setting 'orthorhombic'
loop_
_space_group_symop_operation_xyz
x,y,z
1/2-x,-y,1/2+z
x,-y,-z
1/2-x,y,1/2-z
-x,-y,-z
1/2+x,y,1/2-z
-x,y,z
1/2+x,-y,1/2+z
loop_
_atom_site_type_symbol
_atom_site_label
_atom_site_fract_x
_atom_site_fract_y
_atom_site_fract_z
Si Si1 0.818812 0.757602 0.919640
Si Si2 0.182365 0.125783 0.173025
Si Si3 0.317713 0.388787 0.414025
Si Si4 0.181119 0.609580 0.436231
Si Si5 0.822102 0.997010 0.325345
Si Si6 0.681363 0.499280 0.825351
Si Si7 0.179169 0.853260 0.326222
Si Si8 0.681051 0.746849 0.424818
O O1 0.747082 0.813591 0.870545
O O2 0.764101 0.685352 0.897011
O O3 0.000000 0.761799 0.913854
O O4 0.766755 0.770812 0.998821
O O5 0.250000 0.130428 0.250000
O O6 0.236614 0.057524 0.136195
O O7 0.000000 0.127818 0.175583
O O8 0.500000 0.395923 0.412806
O O9 0.260610 0.409247 0.490814
O O10 0.244431 0.432275 0.353781
O O11 0.232450 0.557141 0.378678
O O12 0.233967 0.679456 0.406758
O O13 0.000000 0.608879 0.448550
O O14 0.750000 0.990510 0.250000
O O15 0.000000 0.015313 0.318722
O O16 0.799738 0.925733 0.360832
O O17 0.750000 0.483292 0.750000
O O18 0.500000 0.503910 0.818362
O O19 0.250000 0.850857 0.250000
O O20 0.271996 0.802183 0.371479
O O21 0.000000 0.834452 0.322741
O O22 0.500000 0.733536 0.421488
#
# Coordination Sequence:
#
# PCOD8218033 Si02
#       8
#     8   8   8   8   8   8   8   8
#     4   8  18  35  53  76 105 138 174 213 257 309
#     4  10  18  31  51  74 102 134 172 215 259 308
#     4  10  20  37  60  82 107 141 181 220 262 317
#     4  10  21  38  58  80 108 142 181 220 262 317
#     4   9  17  30  48  72 101 133 172 213 257 310
#     4  11  24  39  56  81 112 142 175 219 267 314
#     4  10  20  34  53  77 105 137 173 216 264 315
#     4  10  20  36  57  79 105 138 178 220 263 312
#
# _framework density 18.746724
#
# number of rings (size 3 to 8) (size 9 to 14) (size 15 to 20)
#    0.000    2.250    0.000    4.500    0.000    6.000 
#    0.000   10.625    0.000    3.750    0.000    0.000 
#    0.000    0.000    0.000    0.000    0.000    0.000 
#
# Total GULP energy -793402.346239 kJ/mol
# GULP energy per Si atom -12396.911660 kJ/mol
# Density = 1.870406 g / cm^3
# Si number density = 18.746724 Si / 1000 Ang^3
#
#
#
# Elastic Constant Matrix: (Units=GPa)
#
#
# Indices 1 2 3 4 5 6 
#
# 1 55.8299 18.0192 17.0303 0.0000 0.0000 0.0000
# 2 18.0192 102.4754 46.3931 0.0000 0.0000 0.0000
# 3 17.0303 46.3931 67.2110 0.0000 0.0000 0.0000
# 4 0.0000 0.0000 0.0000 31.5684 0.0000 0.0000
# 5 0.0000 0.0000 0.0000 0.0000 26.8883 0.0000
# 6 0.0000 0.0000 0.0000 0.0000 0.0000 31.2738
#
#
#
# Elastic Compliance Matrix: (Units=1/GPa)
#
#
# Indices 1 2 3 4 5 6 
#
# 1 0.019624 -0.001745 -0.003768 0.000000 0.000000 0.000000
# 2 -0.001745 0.014349 -0.009463 0.000000 0.000000 0.000000
# 3 -0.003768 -0.009463 0.022365 0.000000 0.000000 0.000000
# 4 0.000000 0.000000 0.000000 0.031677 0.000000 0.000000
# 5 0.000000 0.000000 0.000000 0.000000 0.037191 0.000000
# 6 0.000000 0.000000 0.000000 0.000000 0.000000 0.031976
#
#
# Mechanical properties :
#
#
# Convention : Reuss Voigt Hill
#
# Bulk Modulus (GPa) = 37.89704 43.15572 40.52638
# Shear Modulus (GPa) = 25.51949 27.55101 26.53525
#
# Velocity S-wave (km/s) = 3.69355 3.83775 3.76634
# Velocity P-wave (km/s) = 6.20072 6.53515 6.37013
#
# Compressibility (1/GPa) = 0.02638728
#
# Stress axis : x y z
#
# Youngs Moduli (GPa) = 50.95779 69.69045 44.71284
#
# Poissons Ratio (x) = 0.12159 0.16848
# Poissons Ratio (y) = 0.08891 0.42310
# Poissons Ratio (z) = 0.19202 0.65945
#
# Static dielectric constant tensor:
#      x y z
#    x 3.449410 0.000000 0.000000 
#    y 0.000000 4.006710 0.000000 
#    z 0.000000 0.000000 3.347640 
# 
# 
# High freq. dielectric constant tensor:
#      x y z
#    x 1.733410 0.000000 0.000000 
#    y 0.000000 1.746750 0.000000 
#    z 0.000000 0.000000 1.704630 
# 
# From -- ./inp_files/31113.got.cif
#   From: 2010.03.12/outbox.cif.g09.slc.cpg/sg53_16_cif.got.tgz:31113.got - 2010.04.16 14:36:59.
