data_PCOD8218102
_publ_section_title
;
Structure prediction by ZEFSAII (Michael W. Deem and Ramdas Pophale) SiO2 
 PCOD8218102
Probable space group: P M N A
;
_chemical_formula_sum "Si O2"
_cell_formula_units_Z 64
_cell_length_a 14.702873
_cell_length_b 9.511433
_cell_length_c 27.115399
_cell_angle_alpha 90.000000
_cell_angle_beta 90.000000
_cell_angle_gamma 90.000000
_cell_volume 3791.963587
_symmetry_space_group_name_H-M "P M N A"
_symmetry_group_IT_number 53
_symmetry_cell_setting 'orthorhombic'
loop_
_space_group_symop_operation_xyz
x,y,z
1/2-x,-y,1/2+z
x,-y,-z
1/2-x,y,1/2-z
-x,-y,-z
1/2+x,y,1/2-z
-x,y,z
1/2+x,-y,1/2+z
loop_
_atom_site_type_symbol
_atom_site_label
_atom_site_fract_x
_atom_site_fract_y
_atom_site_fract_z
Si Si1 0.894698 0.413184 0.321767
Si Si2 0.320073 0.114995 0.204320
Si Si3 0.901698 0.109490 0.767937
Si Si4 0.896234 0.913496 0.046658
Si Si5 0.396057 0.586378 0.451547
Si Si6 0.238333 0.406912 0.863507
Si Si7 0.101890 0.416783 0.774025
Si Si8 0.723613 0.912953 0.360632
O O1 0.867460 0.251714 0.317348
O O2 0.829339 0.497905 0.359850
O O3 0.880181 0.467373 0.266651
O O4 0.000000 0.429301 0.339069
O O5 0.250000 0.146465 0.250000
O O6 0.392857 0.004946 0.225329
O O7 0.289111 0.041510 0.152889
O O8 0.888221 0.266528 0.746122
O O9 0.832386 0.092138 0.811031
O O10 0.000000 0.093855 0.792446
O O11 0.887177 0.749586 0.035024
O O12 0.836248 0.958864 0.093097
O O13 0.000000 0.955524 0.058459
O O14 0.859345 0.000000 0.000000
O O15 0.370329 0.500000 0.500000
O O16 0.500000 0.553017 0.434242
O O17 0.323411 0.544771 0.409676
O O18 0.176373 0.435085 0.816020
O O19 0.266950 0.242347 0.868974
O O20 0.000000 0.431628 0.796865
#
# Coordination Sequence:
#
# PCOD8218102 Si02
#       8
#     8   8   8   8   8   8   8   8
#     4  11  22  33  45  65  95 128 164 202 240 278
#     4  10  19  30  44  64  92 124 157 197 241 279
#     4   9  16  28  46  67  93 123 156 189 225 275
#     4   9  17  30  48  71 100 127 150 181 223 276
#     4   9  18  32  51  77 104 127 152 185 230 284
#     4  10  18  32  51  70  96 127 161 197 232 275
#     4   9  17  29  48  72  96 127 161 193 231 278
#     4   9  18  30  47  69  91 122 159 192 228 274
#
# _framework density 16.877800000000001
#
# number of rings (size 3 to 8) (size 9 to 14) (size 15 to 20)
#    0.000    2.500    0.000    3.000    0.000    6.000 
#    0.000    0.625    0.000    6.375    0.000    0.000 
#    0.000    6.000    0.000    0.000    0.000    0.000 
#
# Total GULP energy -792966.129662 kJ/mol
# GULP energy per Si atom -12390.095776 kJ/mol
# Density = 1.683939 g / cm^3
# Si number density = 16.877800 Si / 1000 Ang^3
#
#
#
# Elastic Constant Matrix: (Units=GPa)
#
#
# Indices 1 2 3 4 5 6 
#
# 1 86.2979 50.0075 40.5885 0.0000 0.0000 0.0000
# 2 50.0075 99.8996 46.6036 0.0000 0.0000 0.0000
# 3 40.5885 46.6036 75.7667 0.0000 0.0000 0.0000
# 4 0.0000 0.0000 0.0000 26.1839 0.0000 0.0000
# 5 0.0000 0.0000 0.0000 0.0000 30.5268 0.0000
# 6 0.0000 0.0000 0.0000 0.0000 0.0000 26.3056
#
#
#
# Elastic Compliance Matrix: (Units=1/GPa)
#
#
# Indices 1 2 3 4 5 6 
#
# 1 0.017937 -0.006306 -0.005730 0.000000 0.000000 0.000000
# 2 -0.006306 0.016255 -0.006620 0.000000 0.000000 0.000000
# 3 -0.005730 -0.006620 0.020340 0.000000 0.000000 0.000000
# 4 0.000000 0.000000 0.000000 0.038191 0.000000 0.000000
# 5 0.000000 0.000000 0.000000 0.000000 0.032758 0.000000
# 6 0.000000 0.000000 0.000000 0.000000 0.000000 0.038015
#
#
# Mechanical properties :
#
#
# Convention : Reuss Voigt Hill
#
# Bulk Modulus (GPa) = 58.07356 59.59594 58.83475
# Shear Modulus (GPa) = 24.20736 24.92089 24.56412
#
# Velocity S-wave (km/s) = 3.79129 3.84676 3.81912
# Velocity P-wave (km/s) = 7.32449 7.42408 7.37445
#
# Compressibility (1/GPa) = 0.01721954
#
# Stress axis : x y z
#
# Youngs Moduli (GPa) = 55.75124 61.51987 49.16341
#
# Poissons Ratio (x) = 0.38792 0.28172
# Poissons Ratio (y) = 0.35154 0.32548
# Poissons Ratio (z) = 0.31947 0.40728
#
# Static dielectric constant tensor:
#      x y z
#    x 3.383320 0.000000 0.000000 
#    y 0.000000 3.413970 0.000000 
#    z 0.000000 0.000000 3.045450 
# 
# 
# High freq. dielectric constant tensor:
#      x y z
#    x 1.641820 0.000000 0.000000 
#    y 0.000000 1.659200 0.000000 
#    z 0.000000 0.000000 1.621620 
# 
# From -- ./inp_files/38983.got.cif
#   From: 2010.03.12/outbox.cif.g09.slc.cpg/sg53_20_cif.got.tgz:38983.got - 2010.04.16 14:36:59.
