data_PCOD8218114
_publ_section_title
;
Structure prediction by ZEFSAII (Michael W. Deem and Ramdas Pophale) SiO2 
 PCOD8218114
Probable space group: P M N A
;
_chemical_formula_sum "Si O2"
_cell_formula_units_Z 56
_cell_length_a 18.555000
_cell_length_b 16.482365
_cell_length_c 10.067840
_cell_angle_alpha 90.000000
_cell_angle_beta 90.000000
_cell_angle_gamma 90.000000
_cell_volume 3079.050352
_symmetry_space_group_name_H-M "P M N A"
_symmetry_group_IT_number 53
_symmetry_cell_setting 'orthorhombic'
loop_
_space_group_symop_operation_xyz
x,y,z
1/2-x,-y,1/2+z
x,-y,-z
1/2-x,y,1/2-z
-x,-y,-z
1/2+x,y,1/2-z
-x,y,z
1/2+x,-y,1/2+z
loop_
_atom_site_type_symbol
_atom_site_label
_atom_site_fract_x
_atom_site_fract_y
_atom_site_fract_z
Si Si1 0.085226 0.151179 0.745561
Si Si2 0.668273 0.429545 0.900294
Si Si3 0.664731 0.572748 0.404699
Si Si4 0.584597 0.728746 0.021518
Si Si5 0.085088 0.811011 0.744979
Si Si6 0.913868 0.737430 0.019206
Si Si7 0.585947 0.982991 0.851503
O O1 0.111291 0.197238 0.613269
O O2 0.000000 0.151525 0.750693
O O3 0.112061 0.058005 0.740865
O O4 0.115084 0.197141 0.874475
O O5 0.751390 0.407825 0.924964
O O6 0.651541 0.454120 0.747933
O O7 0.622585 0.351794 0.933598
O O8 0.643055 0.500000 0.000000
O O9 0.639348 0.500000 0.500000
O O10 0.619259 0.650871 0.445814
O O11 0.500000 0.715074 0.037574
O O12 0.606406 0.749287 0.871443
O O13 0.115917 0.771596 0.879459
O O14 0.117793 0.900245 0.712447
O O15 0.000000 0.820397 0.757916
O O16 0.000000 0.728084 0.020613
O O17 0.500000 0.976444 0.858008
O O18 0.615284 0.000000 0.000000
#
# Coordination Sequence:
#
# PCOD8218114 Si02
#       7
#     8   8   8   8   8   8   8
#     4   9  16  27  47  71 101 137 167 202 247 296
#     4  10  22  38  56  77  98 129 171 209 250 306
#     4  10  22  39  55  74 102 132 165 209 256 305
#     4  10  18  32  52  77 105 132 167 209 250 295
#     4   9  18  29  46  75 108 137 169 210 250 295
#     4  10  20  34  50  75 107 136 168 208 258 303
#     4   9  14  24  43  70 104 138 170 206 249 290
#
# _framework density 18.187425999999999
#
# number of rings (size 3 to 8) (size 9 to 14) (size 15 to 20)
#    0.000    2.429    2.857    0.000    2.000    1.143 
#    0.000    2.857    0.000    0.000    0.000    6.000 
#    0.000    0.000    0.000    0.000    0.000    0.000 
#
# Total GULP energy -694195.527698 kJ/mol
# GULP energy per Si atom -12396.348709 kJ/mol
# Density = 1.814603 g / cm^3
# Si number density = 18.187426 Si / 1000 Ang^3
#
#
#
# Elastic Constant Matrix: (Units=GPa)
#
#
# Indices 1 2 3 4 5 6 
#
# 1 20.0160 26.5386 22.5049 0.0000 0.0000 0.0000
# 2 26.5386 114.3595 56.6227 0.0000 0.0000 0.0000
# 3 22.5049 56.6227 139.6628 0.0000 0.0000 0.0000
# 4 0.0000 0.0000 0.0000 35.0965 0.0000 0.0000
# 5 0.0000 0.0000 0.0000 0.0000 14.0391 0.0000
# 6 0.0000 0.0000 0.0000 0.0000 0.0000 -33.1194
#
#
#
# Elastic Compliance Matrix: (Units=1/GPa)
#
#
# Indices 1 2 3 4 5 6 
#
# 1 0.076501 -0.014575 -0.006418 0.000000 0.000000 0.000000
# 2 -0.014575 0.013717 -0.003213 0.000000 0.000000 0.000000
# 3 -0.006418 -0.003213 0.009497 0.000000 0.000000 0.000000
# 4 0.000000 0.000000 0.000000 0.028493 0.000000 0.000000
# 5 0.000000 0.000000 0.000000 0.000000 0.071229 0.000000
# 6 0.000000 0.000000 0.000000 0.000000 0.000000 -0.030194
#
#
# Mechanical properties :
#
#
# Convention : Reuss Voigt Hill
#
# Bulk Modulus (GPa) = 19.49201 53.93006 36.71104
# Shear Modulus (GPa) = 21.29865 14.42807 17.86336
#
# Velocity S-wave (km/s) = 3.42579 2.81961 3.13738
# Velocity P-wave (km/s) = 5.13699 6.34957 5.77519
#
# Compressibility (1/GPa) = 0.05130306
#
# Stress axis : x y z
#
# Youngs Moduli (GPa) = 13.07175 72.89967 105.29850
#
# Poissons Ratio (x) = 1.06253 0.67580
# Poissons Ratio (y) = 0.19052 0.33830
# Poissons Ratio (z) = 0.08389 0.23421
#
# Static dielectric constant tensor:
#      x y z
#    x 2.854220 0.000000 0.000000 
#    y 0.000000 3.509400 0.000000 
#    z 0.000000 0.000000 2.981090 
# 
# 
# High freq. dielectric constant tensor:
#      x y z
#    x 1.645320 0.000000 0.000000 
#    y 0.000000 1.716760 0.000000 
#    z 0.000000 0.000000 1.720260 
# 
# From -- ./inp_files/11059.got.cif
#   From: 2010.03.12/outbox.cif.g09.slc.cpg/sg53_6_cif.got.tgz:11059.got - 2010.04.16 14:36:59.
