data_PCOD8218793
_publ_section_title
;
Structure prediction by ZEFSAII (Michael W. Deem and Ramdas Pophale) SiO2 
 PCOD8218793
Probable space group: P M N A
;
_chemical_formula_sum "Si O2"
_cell_formula_units_Z 64
_cell_length_a 8.734105
_cell_length_b 15.493901
_cell_length_c 28.579522
_cell_angle_alpha 90.000000
_cell_angle_beta 90.000000
_cell_angle_gamma 90.000000
_cell_volume 3867.534052
_symmetry_space_group_name_H-M "P M N A"
_symmetry_group_IT_number 53
_symmetry_cell_setting 'orthorhombic'
loop_
_space_group_symop_operation_xyz
x,y,z
1/2-x,-y,1/2+z
x,-y,-z
1/2-x,y,1/2-z
-x,-y,-z
1/2+x,y,1/2-z
-x,y,z
1/2+x,-y,1/2+z
loop_
_atom_site_type_symbol
_atom_site_label
_atom_site_fract_x
_atom_site_fract_y
_atom_site_fract_z
Si Si1 0.821569 0.016971 0.300633
Si Si2 0.818897 0.812695 0.801730
Si Si3 0.180903 0.397287 0.050871
Si Si4 0.820672 0.672229 0.146677
Si Si5 0.819560 0.407248 0.947636
Si Si6 0.319522 0.344388 0.142262
Si Si7 0.680247 0.498519 0.300733
Si Si8 0.822670 0.826943 0.300696
O O1 0.750000 0.009810 0.250000
O O2 0.736237 0.096979 0.326133
O O3 0.000000 0.039389 0.297419
O O4 0.793294 0.922413 0.323227
O O5 0.750000 0.804544 0.750000
O O6 0.760029 0.734799 0.832501
O O7 0.000000 0.809681 0.798716
O O8 0.241643 0.495198 0.055960
O O9 0.273894 0.339127 0.087591
O O10 0.000000 0.389675 0.060752
O O11 0.221435 0.365470 0.998061
O O12 0.753674 0.649370 0.095139
O O13 0.782762 0.595343 0.182711
O O14 0.740642 0.759352 0.162390
O O15 0.000000 0.689622 0.144516
O O16 0.000000 0.414188 0.942091
O O17 0.500000 0.338124 0.148932
O O18 0.257420 0.433628 0.163010
O O19 0.750000 0.482817 0.250000
O O20 0.500000 0.480218 0.299540
O O21 0.750000 0.814047 0.250000
O O22 0.000000 0.810155 0.293060
#
# Coordination Sequence:
#
# PCOD8218793 Si02
#       8
#     8   8   8   8   8   8   8   8
#     4   9  17  31  49  70  96 125 160 200 243 285
#     4  11  21  34  52  73  98 128 163 201 243 289
#     4   9  16  32  54  72  93 123 163 204 246 289
#     4  10  19  32  50  72  97 128 165 201 240 286
#     4   8  15  30  53  74  93 123 161 204 247 289
#     4  12  23  34  48  70  99 130 164 200 242 289
#     4  11  22  35  48  65  95 132 170 203 238 281
#     4  10  20  32  48  71 100 133 165 201 241 285
#
# _framework density 16.548013000000001
#
# number of rings (size 3 to 8) (size 9 to 14) (size 15 to 20)
#    0.000    2.000    1.250    5.625    0.000    3.500 
#    0.000    1.875    0.000    0.000    0.000    0.875 
#    0.000    7.000    0.000    0.000    0.000    0.000 
#
# Total GULP energy -793323.426544 kJ/mol
# GULP energy per Si atom -12395.678540 kJ/mol
# Density = 1.651035 g / cm^3
# Si number density = 16.548013 Si / 1000 Ang^3
#
#
#
# Elastic Constant Matrix: (Units=GPa)
#
#
# Indices 1 2 3 4 5 6 
#
# 1 97.8385 48.9595 35.0024 0.0000 0.0000 0.0000
# 2 48.9595 98.2740 35.4989 0.0000 0.0000 0.0000
# 3 35.0024 35.4989 91.8404 0.0000 0.0000 0.0000
# 4 0.0000 0.0000 0.0000 5.8117 0.0000 0.0000
# 5 0.0000 0.0000 0.0000 0.0000 21.0849 0.0000
# 6 0.0000 0.0000 0.0000 0.0000 0.0000 25.4272
#
#
#
# Elastic Compliance Matrix: (Units=1/GPa)
#
#
# Indices 1 2 3 4 5 6 
#
# 1 0.014357 -0.006016 -0.003146 0.000000 0.000000 0.000000
# 2 -0.006016 0.014348 -0.003253 0.000000 0.000000 0.000000
# 3 -0.003146 -0.003253 0.013345 0.000000 0.000000 0.000000
# 4 0.000000 0.000000 0.000000 0.172067 0.000000 0.000000
# 5 0.000000 0.000000 0.000000 0.000000 0.047427 0.000000
# 6 0.000000 0.000000 0.000000 0.000000 0.000000 0.039328
#
#
# Mechanical properties :
#
#
# Convention : Reuss Voigt Hill
#
# Bulk Modulus (GPa) = 58.07545 58.54163 58.30854
# Shear Modulus (GPa) = 15.08556 21.69756 18.39156
#
# Velocity S-wave (km/s) = 3.02259 3.62496 3.33739
# Velocity P-wave (km/s) = 6.88133 7.27833 7.08261
#
# Compressibility (1/GPa) = 0.01721898
#
# Stress axis : x y z
#
# Youngs Moduli (GPa) = 69.65206 69.69686 74.93444
#
# Poissons Ratio (x) = 0.41930 0.23578
# Poissons Ratio (y) = 0.41903 0.24376
# Poissons Ratio (z) = 0.21916 0.22672
#
# Static dielectric constant tensor:
#      x y z
#    x 3.135720 0.000000 0.000000 
#    y 0.000000 3.558190 0.000000 
#    z 0.000000 0.000000 3.302500 
# 
# 
# High freq. dielectric constant tensor:
#      x y z
#    x 1.638990 0.000000 0.000000 
#    y 0.000000 1.630400 0.000000 
#    z 0.000000 0.000000 1.618020 
# 
# From -- ./inp_files/38441.got.cif
#   From: 2010.03.12/outbox.cif.g09.slc.cpg/sg53_20_cif.got.tgz:38441.got - 2010.04.16 14:36:59.
