data_PCOD8218110
_publ_section_title
;
Structure prediction by ZEFSAII (Michael W. Deem and Ramdas Pophale) SiO2 
 PCOD8218110
Probable space group: P M N A
;
_chemical_formula_sum "Si O2"
_cell_formula_units_Z 64
_cell_length_a 8.871943
_cell_length_b 19.953141
_cell_length_c 19.430065
_cell_angle_alpha 90.000000
_cell_angle_beta 90.000000
_cell_angle_gamma 90.000000
_cell_volume 3439.570915
_symmetry_space_group_name_H-M "P M N A"
_symmetry_group_IT_number 53
_symmetry_cell_setting 'orthorhombic'
loop_
_space_group_symop_operation_xyz
x,y,z
1/2-x,-y,1/2+z
x,-y,-z
1/2-x,y,1/2-z
-x,-y,-z
1/2+x,y,1/2-z
-x,y,z
1/2+x,-y,1/2+z
loop_
_atom_site_type_symbol
_atom_site_label
_atom_site_fract_x
_atom_site_fract_y
_atom_site_fract_z
Si Si1 0.820627 0.102373 0.324637
Si Si2 0.323284 0.614499 0.391516
Si Si3 0.178019 0.265911 0.679609
Si Si4 0.677381 0.797390 0.574992
Si Si5 0.824585 0.646149 0.953114
Si Si6 0.675080 0.161979 0.935540
Si Si7 0.669702 0.516808 0.919993
Si Si8 0.324938 0.987961 0.075153
O O1 0.750000 0.097177 0.250000
O O2 0.764749 0.170208 0.361171
O O3 0.000000 0.103540 0.318482
O O4 0.757601 0.038606 0.368116
O O5 0.500000 0.618923 0.378092
O O6 0.238265 0.659980 0.336120
O O7 0.277801 0.641272 0.466969
O O8 0.268917 0.538227 0.379970
O O9 0.250000 0.239382 0.750000
O O10 0.231508 0.215772 0.619727
O O11 0.000000 0.267018 0.687043
O O12 0.500000 0.807991 0.583791
O O13 0.720112 0.718963 0.574696
O O14 0.728159 0.831686 0.504289
O O15 0.736470 0.590968 0.907942
O O16 0.000000 0.630635 0.945138
O O17 0.500000 0.172250 0.954833
O O18 0.702374 0.088742 0.902364
O O19 0.500000 0.514673 0.891523
O O20 0.676490 0.500000 0.000000
O O21 0.500000 0.005831 0.069293
O O22 0.250216 0.000000 0.000000
#
# Coordination Sequence:
#
# PCOD8218110 Si02
#       8
#     8   8   8   8   8   8   8   8
#     4  11  23  40  61  85 116 151 190 233 282 341
#     4  10  18  32  52  74 107 146 184 228 282 334
#     4  11  23  36  53  77 110 149 194 238 287 344
#     4  11  21  35  57  86 117 149 188 234 284 338
#     4   9  18  31  50  78 110 144 180 227 282 332
#     4  10  20  36  58  83 110 148 192 237 286 340
#     4   9  17  28  46  76 109 139 178 226 273 327
#     4   9  17  34  60  85 111 147 188 229 279 336
#
# _framework density 18.606971999999999
#
# number of rings (size 3 to 8) (size 9 to 14) (size 15 to 20)
#    0.000    2.000    2.500    1.875    0.000    4.000 
#    0.000    1.875    0.000    0.750    0.000    1.750 
#    0.000    0.000    0.000    0.000    0.000    0.000 
#
# Total GULP energy -793715.409548 kJ/mol
# GULP energy per Si atom -12401.803274 kJ/mol
# Density = 1.856462 g / cm^3
# Si number density = 18.606972 Si / 1000 Ang^3
#
#
#
# Elastic Constant Matrix: (Units=GPa)
#
#
# Indices 1 2 3 4 5 6 
#
# 1 71.0937 40.2441 37.6637 0.0000 0.0000 0.0000
# 2 40.2441 126.1515 51.7454 0.0000 0.0000 0.0000
# 3 37.6637 51.7454 105.8677 0.0000 0.0000 0.0000
# 4 0.0000 0.0000 0.0000 21.0161 0.0000 0.0000
# 5 0.0000 0.0000 0.0000 0.0000 28.4442 0.0000
# 6 0.0000 0.0000 0.0000 0.0000 0.0000 22.7857
#
#
#
# Elastic Compliance Matrix: (Units=1/GPa)
#
#
# Indices 1 2 3 4 5 6 
#
# 1 0.018880 -0.004087 -0.004719 0.000000 0.000000 0.000000
# 2 -0.004087 0.010800 -0.003824 0.000000 0.000000 0.000000
# 3 -0.004719 -0.003824 0.012994 0.000000 0.000000 0.000000
# 4 0.000000 0.000000 0.000000 0.047582 0.000000 0.000000
# 5 0.000000 0.000000 0.000000 0.000000 0.035157 0.000000
# 6 0.000000 0.000000 0.000000 0.000000 0.000000 0.043887
#
#
# Mechanical properties :
#
#
# Convention : Reuss Voigt Hill
#
# Bulk Modulus (GPa) = 57.43228 62.49103 59.96166
# Shear Modulus (GPa) = 24.95454 26.01319 25.48386
#
# Velocity S-wave (km/s) = 3.66613 3.74309 3.70481
# Velocity P-wave (km/s) = 6.98954 7.23454 7.11310
#
# Compressibility (1/GPa) = 0.01741181
#
# Stress axis : x y z
#
# Youngs Moduli (GPa) = 52.96729 92.59591 76.95933
#
# Poissons Ratio (x) = 0.37846 0.36316
# Poissons Ratio (y) = 0.21649 0.29433
# Poissons Ratio (z) = 0.24995 0.35413
#
# Static dielectric constant tensor:
#      x y z
#    x 3.353620 0.000000 0.000000 
#    y 0.000000 3.634740 0.000000 
#    z 0.000000 0.000000 3.212750 
# 
# 
# High freq. dielectric constant tensor:
#      x y z
#    x 1.717480 0.000000 0.000000 
#    y 0.000000 1.735920 0.000000 
#    z 0.000000 0.000000 1.690380 
# 
# From -- ./inp_files/26918.got.cif
#   From: 2010.03.12/outbox.cif.g09.slc.cpg/sg53_14_cif.got.tgz:26918.got - 2010.04.16 14:36:59.
