data_PCOD8218388
_publ_section_title
;
Structure prediction by ZEFSAII (Michael W. Deem and Ramdas Pophale) SiO2 
 PCOD8218388
Probable space group: P M N A
;
_chemical_formula_sum "Si O2"
_cell_formula_units_Z 64
_cell_length_a 9.153823
_cell_length_b 18.652665
_cell_length_c 21.096017
_cell_angle_alpha 90.000000
_cell_angle_beta 90.000000
_cell_angle_gamma 90.000000
_cell_volume 3602.001321
_symmetry_space_group_name_H-M "P M N A"
_symmetry_group_IT_number 53
_symmetry_cell_setting 'orthorhombic'
loop_
_space_group_symop_operation_xyz
x,y,z
1/2-x,-y,1/2+z
x,-y,-z
1/2-x,y,1/2-z
-x,-y,-z
1/2+x,y,1/2-z
-x,y,z
1/2+x,-y,1/2+z
loop_
_atom_site_type_symbol
_atom_site_label
_atom_site_fract_x
_atom_site_fract_y
_atom_site_fract_z
Si Si1 0.162762 0.789470 0.965211
Si Si2 0.839025 0.245627 0.891428
Si Si3 0.165215 0.516398 0.925907
Si Si4 0.673852 0.936866 0.951166
Si Si5 0.836109 0.022481 0.311235
Si Si6 0.835233 0.852823 0.310344
Si Si7 0.165424 0.654630 0.555479
Si Si8 0.164682 0.621005 0.406985
O O1 0.246821 0.864325 0.971003
O O2 0.257548 0.730571 0.926751
O O3 0.000000 0.799770 0.935217
O O4 0.143073 0.755944 0.033886
O O5 0.747384 0.175690 0.872014
O O6 0.752213 0.316778 0.870059
O O7 0.000000 0.245562 0.859763
O O8 0.244467 0.591413 0.910387
O O9 0.254807 0.453483 0.891543
O O10 0.000000 0.519442 0.899478
O O11 0.163005 0.500000 0.000000
O O12 0.500000 0.926500 0.954393
O O13 0.727373 0.953080 0.879234
O O14 0.721056 0.000000 0.000000
O O15 0.750000 0.053363 0.250000
O O16 0.000000 0.051106 0.303706
O O17 0.830594 0.937557 0.311380
O O18 0.750000 0.821493 0.250000
O O19 0.000000 0.824077 0.309726
O O20 0.162272 0.639096 0.481054
O O21 0.000000 0.656846 0.581941
O O22 0.000000 0.616570 0.380652
#
# Coordination Sequence:
#
# PCOD8218388 Si02
#       8
#     8   8   8   8   8   8   8   8
#     4  10  20  31  44  65  92 121 153 191 235 280
#     4  10  19  30  43  62  90 121 153 189 230 275
#     4   9  15  23  36  55  81 112 146 184 223 264
#     4  10  20  34  51  71  96 126 161 199 241 292
#     4   9  19  34  52  72  94 123 158 198 242 288
#     4  10  19  32  49  67  87 114 150 190 232 277
#     4   9  16  26  40  57  81 115 151 185 222 269
#     4   9  16  25  38  57  81 113 151 185 220 265
#
# _framework density 17.767900999999998
#
# number of rings (size 3 to 8) (size 9 to 14) (size 15 to 20)
#    0.000    2.500    0.000    3.000    0.000    8.250 
#    0.000    0.000    0.000    0.000    0.000    0.000 
#    0.000    1.000    0.000    8.500    0.000    8.875 
#
# Total GULP energy -793321.850806 kJ/mol
# GULP energy per Si atom -12395.653919 kJ/mol
# Density = 1.772746 g / cm^3
# Si number density = 17.767901 Si / 1000 Ang^3
#
#
#
# Elastic Constant Matrix: (Units=GPa)
#
#
# Indices 1 2 3 4 5 6 
#
# 1 145.5671 58.3638 21.0279 0.0000 0.0000 0.0000
# 2 58.3638 97.3581 17.3338 0.0000 0.0000 0.0000
# 3 21.0279 17.3338 38.7602 0.0000 0.0000 0.0000
# 4 0.0000 0.0000 0.0000 8.2051 0.0000 0.0000
# 5 0.0000 0.0000 0.0000 0.0000 19.5091 0.0000
# 6 0.0000 0.0000 0.0000 0.0000 0.0000 30.5664
#
#
#
# Elastic Compliance Matrix: (Units=1/GPa)
#
#
# Indices 1 2 3 4 5 6 
#
# 1 0.009310 -0.005087 -0.002776 0.000000 0.000000 0.000000
# 2 -0.005087 0.013939 -0.003474 0.000000 0.000000 0.000000
# 3 -0.002776 -0.003474 0.028859 0.000000 0.000000 0.000000
# 4 0.000000 0.000000 0.000000 0.121875 0.000000 0.000000
# 5 0.000000 0.000000 0.000000 0.000000 0.051258 0.000000
# 6 0.000000 0.000000 0.000000 0.000000 0.000000 0.032716
#
#
# Mechanical properties :
#
#
# Convention : Reuss Voigt Hill
#
# Bulk Modulus (GPa) = 33.97331 52.79294 43.38312
# Shear Modulus (GPa) = 17.21505 23.98677 20.60091
#
# Velocity S-wave (km/s) = 3.11607 3.67823 3.40876
# Velocity P-wave (km/s) = 5.66645 6.91493 6.32158
#
# Compressibility (1/GPa) = 0.02943487
#
# Stress axis : x y z
#
# Youngs Moduli (GPa) = 107.40794 71.73882 34.65092
#
# Poissons Ratio (x) = 0.36494 0.09619
# Poissons Ratio (y) = 0.54639 0.12038
# Poissons Ratio (z) = 0.29816 0.24922
#
# Static dielectric constant tensor:
#      x y z
#    x 3.658860 0.000000 0.000000 
#    y 0.000000 3.247730 0.000000 
#    z 0.000000 0.000000 2.883760 
# 
# 
# High freq. dielectric constant tensor:
#      x y z
#    x 1.706570 0.000000 0.000000 
#    y 0.000000 1.685660 0.000000 
#    z 0.000000 0.000000 1.620220 
# 
# From -- ./inp_files/31184.got.cif
#   From: 2010.03.12/outbox.cif.g09.slc.cpg/sg53_16_cif.got.tgz:31184.got - 2010.04.16 14:36:59.
