data_PCOD8218298
_publ_section_title
;
Structure prediction by ZEFSAII (Michael W. Deem and Ramdas Pophale) SiO2 
 PCOD8218298
Probable space group: P M N A
;
_chemical_formula_sum "Si O2"
_cell_formula_units_Z 64
_cell_length_a 8.895291
_cell_length_b 15.288596
_cell_length_c 23.753527
_cell_angle_alpha 90.000000
_cell_angle_beta 90.000000
_cell_angle_gamma 90.000000
_cell_volume 3230.396782
_symmetry_space_group_name_H-M "P M N A"
_symmetry_group_IT_number 53
_symmetry_cell_setting 'orthorhombic'
loop_
_space_group_symop_operation_xyz
x,y,z
1/2-x,-y,1/2+z
x,-y,-z
1/2-x,y,1/2-z
-x,-y,-z
1/2+x,y,1/2-z
-x,y,z
1/2+x,-y,1/2+z
loop_
_atom_site_type_symbol
_atom_site_label
_atom_site_fract_x
_atom_site_fract_y
_atom_site_fract_z
Si Si1 0.322369 0.010057 0.809926
Si Si2 0.677147 0.402192 0.005019
Si Si3 0.321683 0.507294 0.309680
Si Si4 0.676637 0.349432 0.128881
Si Si5 0.327838 0.654711 0.395735
Si Si6 0.172367 0.850781 0.112733
Si Si7 0.822972 0.846308 0.621360
Si Si8 0.328346 0.896191 0.000472
O O1 0.250000 0.025246 0.750000
O O2 0.500000 0.006980 0.803263
O O3 0.257846 0.919871 0.836572
O O4 0.280354 0.090893 0.849338
O O5 0.500000 0.401298 0.999271
O O6 0.728422 0.363252 0.064623
O O7 0.741959 0.500000 0.000000
O O8 0.740845 0.344215 0.954670
O O9 0.250000 0.530063 0.250000
O O10 0.500000 0.507785 0.303689
O O11 0.268156 0.412070 0.329852
O O12 0.263678 0.581125 0.353330
O O13 0.500000 0.368770 0.136103
O O14 0.717900 0.249596 0.145060
O O15 0.500000 0.633530 0.409169
O O16 0.309328 0.750088 0.367715
O O17 0.000000 0.881521 0.119321
O O18 0.220691 0.858294 0.048074
O O19 0.760735 0.860179 0.558293
O O20 0.000000 0.859644 0.617026
O O21 0.500000 0.863860 0.010410
O O22 0.322699 0.000000 0.000000
#
# Coordination Sequence:
#
# PCOD8218298 Si02
#       8
#     8   8   8   8   8   8   8   8
#     4  11  23  42  62  84 113 153 198 244 295 347
#     4  10  19  33  59  92 121 152 192 234 284 343
#     4  11  24  42  61  82 111 151 196 243 292 343
#     4  10  20  37  60  88 121 153 190 236 282 341
#     4  10  23  40  59  85 120 156 193 237 290 347
#     4  11  23  39  59  89 122 154 194 241 290 346
#     4   9  19  36  60  87 118 155 193 233 285 346
#     4  10  18  35  62  89 119 157 194 232 287 350
#
# _framework density 19.811807000000002
#
# number of rings (size 3 to 8) (size 9 to 14) (size 15 to 20)
#    0.000    1.750    2.500    1.875    0.000    4.500 
#    0.000    4.375    0.000    0.000    0.000    0.000 
#    0.000    0.000    0.000    0.000    0.000    0.000 
#
# Total GULP energy -793784.691595 kJ/mol
# GULP energy per Si atom -12402.885806 kJ/mol
# Density = 1.976671 g / cm^3
# Si number density = 19.811807 Si / 1000 Ang^3
#
#
#
# Elastic Constant Matrix: (Units=GPa)
#
#
# Indices 1 2 3 4 5 6 
#
# 1 48.6353 20.6693 22.6018 0.0000 0.0000 0.0000
# 2 20.6693 99.7182 20.8205 0.0000 0.0000 0.0000
# 3 22.6018 20.8205 86.2504 0.0000 0.0000 0.0000
# 4 0.0000 0.0000 0.0000 12.4412 0.0000 0.0000
# 5 0.0000 0.0000 0.0000 0.0000 31.3800 0.0000
# 6 0.0000 0.0000 0.0000 0.0000 0.0000 6.2088
#
#
#
# Elastic Compliance Matrix: (Units=1/GPa)
#
#
# Indices 1 2 3 4 5 6 
#
# 1 0.024833 -0.003990 -0.005544 0.000000 0.000000 0.000000
# 2 -0.003990 0.011202 -0.001658 0.000000 0.000000 0.000000
# 3 -0.005544 -0.001658 0.013447 0.000000 0.000000 0.000000
# 4 0.000000 0.000000 0.000000 0.080378 0.000000 0.000000
# 5 0.000000 0.000000 0.000000 0.000000 0.031867 0.000000
# 6 0.000000 0.000000 0.000000 0.000000 0.000000 0.161061
#
#
# Mechanical properties :
#
#
# Convention : Reuss Voigt Hill
#
# Bulk Modulus (GPa) = 36.90451 40.30967 38.60709
# Shear Modulus (GPa) = 14.11603 21.37348 17.74476
#
# Velocity S-wave (km/s) = 2.67218 3.28811 2.99601
# Velocity P-wave (km/s) = 5.30930 5.89966 5.61225
#
# Compressibility (1/GPa) = 0.02709696
#
# Stress axis : x y z
#
# Youngs Moduli (GPa) = 40.26836 89.27354 74.36376
#
# Poissons Ratio (x) = 0.35618 0.41231
# Poissons Ratio (y) = 0.16066 0.12333
# Poissons Ratio (z) = 0.22327 0.14806
#
# Static dielectric constant tensor:
#      x y z
#    x 3.399200 0.000000 0.000000 
#    y 0.000000 3.786500 0.000000 
#    z 0.000000 0.000000 3.874830 
# 
# 
# High freq. dielectric constant tensor:
#      x y z
#    x 1.753810 0.000000 0.000000 
#    y 0.000000 1.787200 0.000000 
#    z 0.000000 0.000000 1.769940 
# 
# From -- ./inp_files/34181.got.cif
#   From: 2010.03.12/outbox.cif.g09.slc.cpg/sg53_18_cif.got.tgz:34181.got - 2010.04.16 14:36:59.
