data_PCOD8218417
_publ_section_title
;
Structure prediction by ZEFSAII (Michael W. Deem and Ramdas Pophale) SiO2 
 PCOD8218417
Probable space group: P M N A
;
_chemical_formula_sum "Si O2"
_cell_formula_units_Z 48
_cell_length_a 8.964892
_cell_length_b 18.516822
_cell_length_c 17.179644
_cell_angle_alpha 90.000000
_cell_angle_beta 90.000000
_cell_angle_gamma 90.000000
_cell_volume 2851.843399
_symmetry_space_group_name_H-M "P M N A"
_symmetry_group_IT_number 53
_symmetry_cell_setting 'orthorhombic'
loop_
_space_group_symop_operation_xyz
x,y,z
1/2-x,-y,1/2+z
x,-y,-z
1/2-x,y,1/2-z
-x,-y,-z
1/2+x,y,1/2-z
-x,y,z
1/2+x,-y,1/2+z
loop_
_atom_site_type_symbol
_atom_site_label
_atom_site_fract_x
_atom_site_fract_y
_atom_site_fract_z
Si Si1 0.163150 0.948537 0.426207
Si Si2 0.821797 0.923612 0.668997
Si Si3 0.678221 0.173807 0.028364
Si Si4 0.675708 0.663196 0.977249
Si Si5 0.175827 0.565908 0.669310
Si Si6 0.831919 0.449676 0.925215
O O1 0.243838 0.874421 0.455568
O O2 0.000000 0.926876 0.394672
O O3 0.144078 0.000000 0.500000
O O4 0.241968 0.997324 0.359296
O O5 0.750000 0.902471 0.750000
O O6 0.769485 0.861254 0.609552
O O7 0.000000 0.926333 0.675000
O O8 0.500000 0.171811 0.024083
O O9 0.738002 0.255258 0.024169
O O10 0.500000 0.659594 0.991238
O O11 0.717235 0.625807 0.895306
O O12 0.753510 0.625033 0.050803
O O13 0.250000 0.590846 0.750000
O O14 0.240899 0.488084 0.643976
O O15 0.000000 0.558456 0.680532
O O16 0.000000 0.434554 0.896454
O O17 0.830609 0.500000 0.000000
#
# Coordination Sequence:
#
# PCOD8218417 Si02
#       6
#     8   8   8   8   8   8
#     4   7  11  22  41  61  79 106 148 186 208 239
#     4   9  16  26  42  64  88 114 144 179 217 256
#     4   8  14  26  44  64  85 113 149 181 210 252
#     4   9  17  29  46  67  89 114 146 183 220 261
#     4  10  19  30  45  66  91 117 145 178 217 262
#     4   9  17  30  47  65  86 114 148 183 218 258
#
# _framework density 16.831218
#
# number of rings (size 3 to 8) (size 9 to 14) (size 15 to 20)
#    0.000    3.333    0.000    3.000    0.000    3.333 
#    0.000    0.833    0.000    6.500    0.000    2.333 
#    0.000    0.000    0.000    0.000    0.000    0.000 
#
# Total GULP energy -594647.439928 kJ/mol
# GULP energy per Si atom -12388.488332 kJ/mol
# Density = 1.679291 g / cm^3
# Si number density = 16.831218 Si / 1000 Ang^3
#
#
#
# Elastic Constant Matrix: (Units=GPa)
#
#
# Indices 1 2 3 4 5 6 
#
# 1 43.0984 27.8717 11.9031 0.0000 0.0000 0.0000
# 2 27.8717 142.5490 39.4313 0.0000 0.0000 0.0000
# 3 11.9031 39.4313 21.1584 0.0000 0.0000 0.0000
# 4 0.0000 0.0000 0.0000 19.3789 0.0000 0.0000
# 5 0.0000 0.0000 0.0000 0.0000 25.2218 0.0000
# 6 0.0000 0.0000 0.0000 0.0000 0.0000 9.8572
#
#
#
# Elastic Compliance Matrix: (Units=1/GPa)
#
#
# Indices 1 2 3 4 5 6 
#
# 1 0.027829 -0.002292 -0.011384 0.000000 0.000000 0.000000
# 2 -0.002292 0.014668 -0.026046 0.000000 0.000000 0.000000
# 3 -0.011384 -0.026046 0.102208 0.000000 0.000000 0.000000
# 4 0.000000 0.000000 0.000000 0.051602 0.000000 0.000000
# 5 0.000000 0.000000 0.000000 0.000000 0.039648 0.000000
# 6 0.000000 0.000000 0.000000 0.000000 0.000000 0.101448
#
#
# Mechanical properties :
#
#
# Convention : Reuss Voigt Hill
#
# Bulk Modulus (GPa) = 15.32339 40.57978 27.95159
# Shear Modulus (GPa) = 11.39984 19.39824 15.39904
#
# Velocity S-wave (km/s) = 2.60533 3.39855 3.02803
# Velocity P-wave (km/s) = 4.26312 6.28987 5.37292
#
# Compressibility (1/GPa) = 0.06525972
#
# Stress axis : x y z
#
# Youngs Moduli (GPa) = 35.93347 68.17486 9.78401
#
# Poissons Ratio (x) = 0.15628 0.11138
# Poissons Ratio (y) = 0.08237 0.25484
# Poissons Ratio (z) = 0.40906 1.77571
#
# Static dielectric constant tensor:
#      x y z
#    x 2.871240 0.000000 0.000000 
#    y 0.000000 3.415980 0.000000 
#    z 0.000000 0.000000 3.105750 
# 
# 
# High freq. dielectric constant tensor:
#      x y z
#    x 1.617330 0.000000 0.000000 
#    y 0.000000 1.645130 0.000000 
#    z 0.000000 0.000000 1.628550 
# 
# From -- ./inp_files/26390.got.cif
#   From: 2010.03.12/outbox.cif.g09.slc.cpg/sg53_14_cif.got.tgz:26390.got - 2010.04.16 14:36:59.
