data_PCOD8218133
_publ_section_title
;
Structure prediction by ZEFSAII (Michael W. Deem and Ramdas Pophale) SiO2 
 PCOD8218133
Probable space group: P M N A
;
_chemical_formula_sum "Si O2"
_cell_formula_units_Z 64
_cell_length_a 8.581639
_cell_length_b 16.411041
_cell_length_c 23.780303
_cell_angle_alpha 90.000000
_cell_angle_beta 90.000000
_cell_angle_gamma 90.000000
_cell_volume 3349.066382
_symmetry_space_group_name_H-M "P M N A"
_symmetry_group_IT_number 53
_symmetry_cell_setting 'orthorhombic'
loop_
_space_group_symop_operation_xyz
x,y,z
1/2-x,-y,1/2+z
x,-y,-z
1/2-x,y,1/2-z
-x,-y,-z
1/2+x,y,1/2-z
-x,y,z
1/2+x,-y,1/2+z
loop_
_atom_site_type_symbol
_atom_site_label
_atom_site_fract_x
_atom_site_fract_y
_atom_site_fract_z
Si Si1 0.682626 0.934250 0.688182
Si Si2 0.320222 0.212460 0.122773
Si Si3 0.183264 0.306766 0.023973
Si Si4 0.319210 0.376737 0.188806
Si Si5 0.316079 0.733421 0.312259
Si Si6 0.818749 0.531567 0.909605
Si Si7 0.815467 0.099746 0.687615
Si Si8 0.317420 0.639964 0.087573
O O1 0.750000 0.914871 0.750000
O O2 0.500000 0.946503 0.694885
O O3 0.718031 0.861563 0.645566
O O4 0.756264 0.015756 0.659603
O O5 0.500000 0.186466 0.121164
O O6 0.264482 0.235916 0.060277
O O7 0.290970 0.287490 0.164229
O O8 0.227345 0.395082 0.048972
O O9 0.000000 0.291751 0.024779
O O10 0.248473 0.301604 0.960878
O O11 0.250000 0.378492 0.250000
O O12 0.500000 0.400601 0.188605
O O13 0.224844 0.443641 0.153639
O O14 0.250000 0.718134 0.250000
O O15 0.500000 0.735861 0.307986
O O16 0.253765 0.818135 0.339911
O O17 0.261869 0.660934 0.352894
O O18 0.720849 0.453140 0.927945
O O19 0.000000 0.509620 0.913968
O O20 0.750000 0.096581 0.750000
O O21 0.000000 0.104349 0.686361
O O22 0.500000 0.653907 0.092009
#
# Coordination Sequence:
#
# PCOD8218133 Si02
#       8
#     8   8   8   8   8   8   8   8
#     4  11  20  31  50  79 112 147 185 224 266 315
#     4  10  20  34  52  77 108 143 182 225 269 315
#     4  10  21  38  58  80 107 141 180 223 270 317
#     4  10  20  33  50  73 105 143 180 218 267 322
#     4  11  22  39  60  84 113 142 175 217 268 322
#     4  10  21  37  56  78 105 138 179 225 271 317
#     4  10  18  32  53  79 110 143 178 217 264 316
#     4  12  24  38  58  83 108 138 178 221 266 317
#
# _framework density 19.109804
#
# number of rings (size 3 to 8) (size 9 to 14) (size 15 to 20)
#    0.000    1.500    0.000    8.250    0.000    6.000 
#    0.000    2.500    0.000    0.750    0.000    5.250 
#    0.000    0.000    0.000    0.000    0.000    0.000 
#
# Total GULP energy -793783.568974 kJ/mol
# GULP energy per Si atom -12402.868265 kJ/mol
# Density = 1.906631 g / cm^3
# Si number density = 19.109804 Si / 1000 Ang^3
#
#
#
# Elastic Constant Matrix: (Units=GPa)
#
#
# Indices 1 2 3 4 5 6 
#
# 1 108.8525 25.3185 27.2463 0.0000 0.0000 0.0000
# 2 25.3185 63.7265 15.9622 0.0000 0.0000 0.0000
# 3 27.2463 15.9622 86.7917 0.0000 0.0000 0.0000
# 4 0.0000 0.0000 0.0000 16.5433 0.0000 0.0000
# 5 0.0000 0.0000 0.0000 0.0000 29.8878 0.0000
# 6 0.0000 0.0000 0.0000 0.0000 0.0000 32.0215
#
#
#
# Elastic Compliance Matrix: (Units=1/GPa)
#
#
# Indices 1 2 3 4 5 6 
#
# 1 0.010693 -0.003572 -0.002700 0.000000 0.000000 0.000000
# 2 -0.003572 0.017643 -0.002123 0.000000 0.000000 0.000000
# 3 -0.002700 -0.002123 0.012760 0.000000 0.000000 0.000000
# 4 0.000000 0.000000 0.000000 0.060447 0.000000 0.000000
# 5 0.000000 0.000000 0.000000 0.000000 0.033458 0.000000
# 6 0.000000 0.000000 0.000000 0.000000 0.000000 0.031229
#
#
# Mechanical properties :
#
#
# Convention : Reuss Voigt Hill
#
# Bulk Modulus (GPa) = 41.14319 44.04720 42.59519
# Shear Modulus (GPa) = 26.16097 28.41343 27.28720
#
# Velocity S-wave (km/s) = 3.70399 3.86015 3.78288
# Velocity P-wave (km/s) = 6.31422 6.55494 6.43571
#
# Compressibility (1/GPa) = 0.02430536
#
# Stress axis : x y z
#
# Youngs Moduli (GPa) = 93.51526 56.67917 78.37013
#
# Poissons Ratio (x) = 0.20247 0.21160
# Poissons Ratio (y) = 0.33406 0.16641
# Poissons Ratio (z) = 0.25249 0.12035
#
# Static dielectric constant tensor:
#      x y z
#    x 3.608950 0.000000 0.000000 
#    y 0.000000 3.858740 0.000000 
#    z 0.000000 0.000000 3.455670 
# 
# 
# High freq. dielectric constant tensor:
#      x y z
#    x 1.763340 0.000000 0.000000 
#    y 0.000000 1.739220 0.000000 
#    z 0.000000 0.000000 1.723510 
# 
# From -- ./inp_files/34228.got.cif
#   From: 2010.03.12/outbox.cif.g09.slc.cpg/sg53_18_cif.got.tgz:34228.got - 2010.04.16 14:36:59.
