data_PCOD8218721
_publ_section_title
;
Structure prediction by ZEFSAII (Michael W. Deem and Ramdas Pophale) SiO2 
 PCOD8218721
Probable space group: P M N A
;
_chemical_formula_sum "Si O2"
_cell_formula_units_Z 40
_cell_length_a 19.161474
_cell_length_b 21.461747
_cell_length_c 5.015804
_cell_angle_alpha 90.000000
_cell_angle_beta 90.000000
_cell_angle_gamma 90.000000
_cell_volume 2062.692752
_symmetry_space_group_name_H-M "P M N A"
_symmetry_group_IT_number 53
_symmetry_cell_setting 'orthorhombic'
loop_
_space_group_symop_operation_xyz
x,y,z
1/2-x,-y,1/2+z
x,-y,-z
1/2-x,y,1/2-z
-x,-y,-z
1/2+x,y,1/2-z
-x,y,z
1/2+x,-y,1/2+z
loop_
_atom_site_type_symbol
_atom_site_label
_atom_site_fract_x
_atom_site_fract_y
_atom_site_fract_z
Si Si1 0.078804 0.958858 0.759759
Si Si2 0.830365 0.759025 0.254280
Si Si3 0.579154 0.641722 0.392641
Si Si4 0.830624 0.838337 0.760059
Si Si5 0.921638 0.561761 0.621798
O O1 0.123781 0.898262 0.699732
O O2 0.000000 0.937959 0.832485
O O3 0.080069 0.000000 0.500000
O O4 0.110703 0.000000 0.000000
O O5 0.750000 0.737458 0.250000
O O6 0.875348 0.702961 0.137170
O O7 0.849630 0.782950 0.550423
O O8 0.846219 0.816142 0.058214
O O9 0.500000 0.659012 0.482078
O O10 0.611955 0.592920 0.611158
O O11 0.578988 0.613521 0.101461
O O12 0.750000 0.857659 0.750000
O O13 0.882858 0.500000 0.500000
O O14 0.000000 0.540909 0.702595
#
# Coordination Sequence:
#
# PCOD8218721 Si02
#       5
#     8   8   8   8   8
#     4  10  21  36  54  78 106 134 165 206 258 307
#     4  10  21  36  52  74 104 136 170 212 259 301
#     4  10  19  31  51  77 101 132 173 209 250 306
#     4  10  21  36  54  75 100 134 174 210 250 303
#     4   9  17  30  49  75 105 132 164 210 255 297
#
# _framework density 19.392125
#
# number of rings (size 3 to 8) (size 9 to 14) (size 15 to 20)
#    0.000    2.200    0.000    3.000    0.000    4.800 
#    0.000    0.000    0.000    2.400    0.000    0.000 
#    0.000    0.000    0.000    0.000    0.000    0.000 
#
# Total GULP energy -495816.052841 kJ/mol
# GULP energy per Si atom -12395.401321 kJ/mol
# Density = 1.934799 g / cm^3
# Si number density = 19.392125 Si / 1000 Ang^3
#
#
#
# Elastic Constant Matrix: (Units=GPa)
#
#
# Indices 1 2 3 4 5 6 
#
# 1 57.5193 51.8702 19.2847 0.0000 0.0000 0.0000
# 2 51.8702 98.2391 15.5759 0.0000 0.0000 0.0000
# 3 19.2847 15.5759 98.9900 0.0000 0.0000 0.0000
# 4 0.0000 0.0000 0.0000 34.2232 0.0000 0.0000
# 5 0.0000 0.0000 0.0000 0.0000 25.7354 0.0000
# 6 0.0000 0.0000 0.0000 0.0000 0.0000 83.9492
#
#
#
# Elastic Compliance Matrix: (Units=1/GPa)
#
#
# Indices 1 2 3 4 5 6 
#
# 1 0.034645 -0.017663 -0.003970 0.000000 0.000000 0.000000
# 2 -0.017663 0.019445 0.000381 0.000000 0.000000 0.000000
# 3 -0.003970 0.000381 0.010815 0.000000 0.000000 0.000000
# 4 0.000000 0.000000 0.000000 0.029220 0.000000 0.000000
# 5 0.000000 0.000000 0.000000 0.000000 0.038857 0.000000
# 6 0.000000 0.000000 0.000000 0.000000 0.000000 0.011912
#
#
# Mechanical properties :
#
#
# Convention : Reuss Voigt Hill
#
# Bulk Modulus (GPa) = 44.63937 47.57890 46.10913
# Shear Modulus (GPa) = 25.65883 39.98273 32.82078
#
# Velocity S-wave (km/s) = 3.64147 4.54563 4.11844
# Velocity P-wave (km/s) = 6.38355 7.22072 6.81500
#
# Compressibility (1/GPa) = 0.02240175
#
# Stress axis : x y z
#
# Youngs Moduli (GPa) = 28.86432 51.42754 92.46035
#
# Poissons Ratio (x) = 0.90837 0.36708
# Poissons Ratio (y) = 0.50983 -0.03527
# Poissons Ratio (z) = 0.11459 -0.01961
#
# Static dielectric constant tensor:
#      x y z
#    x 3.394620 0.000000 0.000000 
#    y 0.000000 3.384200 0.000000 
#    z 0.000000 0.000000 3.832680 
# 
# 
# High freq. dielectric constant tensor:
#      x y z
#    x 1.715080 0.000000 0.000000 
#    y 0.000000 1.755230 0.000000 
#    z 0.000000 0.000000 1.780860 
# 
# From -- ./inp_files/2111.got.cif
#   From: 2010.03.12/outbox.cif.g09.slc.cpg/sg53_2_cif.got.tgz:2111.got - 2010.04.16 14:36:59.
