data_PCOD8218576
_publ_section_title
;
Structure prediction by ZEFSAII (Michael W. Deem and Ramdas Pophale) SiO2 
 PCOD8218576
Probable space group: P M N A
;
_chemical_formula_sum "Si O2"
_cell_formula_units_Z 64
_cell_length_a 8.958240
_cell_length_b 19.675686
_cell_length_c 20.836215
_cell_angle_alpha 90.000000
_cell_angle_beta 90.000000
_cell_angle_gamma 90.000000
_cell_volume 3672.581199
_symmetry_space_group_name_H-M "P M N A"
_symmetry_group_IT_number 53
_symmetry_cell_setting 'orthorhombic'
loop_
_space_group_symop_operation_xyz
x,y,z
1/2-x,-y,1/2+z
x,-y,-z
1/2-x,y,1/2-z
-x,-y,-z
1/2+x,y,1/2-z
-x,y,z
1/2+x,-y,1/2+z
loop_
_atom_site_type_symbol
_atom_site_label
_atom_site_fract_x
_atom_site_fract_y
_atom_site_fract_z
Si Si1 0.822667 0.540655 0.815349
Si Si2 0.826112 0.323142 0.125993
Si Si3 0.824296 0.953820 0.060454
Si Si4 0.176572 0.540051 0.061339
Si Si5 0.323180 0.822425 0.015554
Si Si6 0.823463 0.314743 0.981445
Si Si7 0.174415 0.037477 0.184823
Si Si8 0.825345 0.173973 0.121230
O O1 0.750000 0.514000 0.750000
O O2 0.759638 0.617166 0.829517
O O3 0.764497 0.492318 0.872626
O O4 0.000000 0.538003 0.808317
O O5 0.790955 0.247616 0.153450
O O6 0.000000 0.337878 0.122212
O O7 0.764767 0.328426 0.053644
O O8 0.735330 0.883374 0.059870
O O9 0.000000 0.938955 0.059012
O O10 0.773965 0.991477 0.125373
O O11 0.777699 0.000000 0.000000
O O12 0.221860 0.619531 0.060348
O O13 0.000000 0.532294 0.057963
O O14 0.245073 0.500000 0.000000
O O15 0.500000 0.820510 0.016422
O O16 0.259942 0.751990 0.045077
O O17 0.266245 0.834931 0.943677
O O18 0.000000 0.300786 0.980212
O O19 0.250000 0.011925 0.250000
O O20 0.221841 0.115580 0.170881
O O21 0.000000 0.031538 0.195160
O O22 0.000000 0.167646 0.102612
#
# Coordination Sequence:
#
# PCOD8218576 Si02
#       8
#     8   8   8   8   8   8   8   8
#     4  10  19  31  47  73 104 134 169 209 255 303
#     4   8  14  26  48  71  95 129 171 208 237 284
#     4  10  19  36  58  77 100 137 180 212 248 307
#     4   9  15  28  54  80  95 123 177 224 248 285
#     4  11  21  31  49  80 110 133 164 216 268 304
#     4   9  16  30  53  76  98 128 169 217 259 301
#     4  10  21  35  53  76 105 138 173 214 255 304
#     4   9  17  33  52  72 100 142 182 207 243 300
#
# _framework density 17.426437
#
# number of rings (size 3 to 8) (size 9 to 14) (size 15 to 20)
#    0.000    2.500    2.500    1.875    0.000    1.750 
#    0.000    3.125    0.000    1.500    0.000    1.750 
#    0.000    0.000    0.000    0.000    0.000    0.000 
#
# Total GULP energy -793354.449417 kJ/mol
# GULP energy per Si atom -12396.163272 kJ/mol
# Density = 1.738677 g / cm^3
# Si number density = 17.426437 Si / 1000 Ang^3
#
#
#
# Elastic Constant Matrix: (Units=GPa)
#
#
# Indices 1 2 3 4 5 6 
#
# 1 46.1527 41.2606 31.9757 0.0000 0.0000 0.0000
# 2 41.2606 132.5723 71.8954 0.0000 0.0000 0.0000
# 3 31.9757 71.8954 120.7805 0.0000 0.0000 0.0000
# 4 0.0000 0.0000 0.0000 23.1266 0.0000 0.0000
# 5 0.0000 0.0000 0.0000 0.0000 23.0484 0.0000
# 6 0.0000 0.0000 0.0000 0.0000 0.0000 11.0095
#
#
#
# Elastic Compliance Matrix: (Units=1/GPa)
#
#
# Indices 1 2 3 4 5 6 
#
# 1 0.031071 -0.007693 -0.003647 0.000000 0.000000 0.000000
# 2 -0.007693 0.013043 -0.005728 0.000000 0.000000 0.000000
# 3 -0.003647 -0.005728 0.012654 0.000000 0.000000 0.000000
# 4 0.000000 0.000000 0.000000 0.043240 0.000000 0.000000
# 5 0.000000 0.000000 0.000000 0.000000 0.043387 0.000000
# 6 0.000000 0.000000 0.000000 0.000000 0.000000 0.090831
#
#
# Mechanical properties :
#
#
# Convention : Reuss Voigt Hill
#
# Bulk Modulus (GPa) = 44.17974 65.52987 54.85480
# Shear Modulus (GPa) = 18.12214 21.72847 19.92531
#
# Velocity S-wave (km/s) = 3.22828 3.53493 3.38508
# Velocity P-wave (km/s) = 6.26920 7.37200 6.84285
#
# Compressibility (1/GPa) = 0.02263481
#
# Stress axis : x y z
#
# Youngs Moduli (GPa) = 32.18439 76.66732 79.02440
#
# Poissons Ratio (x) = 0.58977 0.28818
# Poissons Ratio (y) = 0.24758 0.45262
# Poissons Ratio (z) = 0.11737 0.43912
#
# Static dielectric constant tensor:
#      x y z
#    x 2.872010 0.000000 0.000000 
#    y 0.000000 3.549800 0.000000 
#    z 0.000000 0.000000 3.079010 
# 
# 
# High freq. dielectric constant tensor:
#      x y z
#    x 1.639220 0.000000 0.000000 
#    y 0.000000 1.684640 0.000000 
#    z 0.000000 0.000000 1.646580 
# 
# From -- ./inp_files/31382.got.cif
#   From: 2010.03.12/outbox.cif.g09.slc.cpg/sg53_16_cif.got.tgz:31382.got - 2010.04.16 14:36:59.
