data_PCOD8218248
_publ_section_title
;
Structure prediction by ZEFSAII (Michael W. Deem and Ramdas Pophale) SiO2 
 PCOD8218248
Probable space group: P M N A
;
_chemical_formula_sum "Si O2"
_cell_formula_units_Z 36
_cell_length_a 25.639283
_cell_length_b 18.036919
_cell_length_c 5.092320
_cell_angle_alpha 90.000000
_cell_angle_beta 90.000000
_cell_angle_gamma 90.000000
_cell_volume 2354.962076
_symmetry_space_group_name_H-M "P M N A"
_symmetry_group_IT_number 53
_symmetry_cell_setting 'orthorhombic'
loop_
_space_group_symop_operation_xyz
x,y,z
1/2-x,-y,1/2+z
x,-y,-z
1/2-x,y,1/2-z
-x,-y,-z
1/2+x,y,1/2-z
-x,y,z
1/2+x,-y,1/2+z
loop_
_atom_site_type_symbol
_atom_site_label
_atom_site_fract_x
_atom_site_fract_y
_atom_site_fract_z
Si Si1 0.438635 0.300754 0.725122
Si Si2 0.782526 0.500000 0.000000
Si Si3 0.937760 0.044277 0.250689
Si Si4 0.381125 0.453228 0.733259
Si Si5 0.561295 0.789996 0.766558
O O1 0.500000 0.317661 0.713597
O O2 0.409660 0.376783 0.785019
O O3 0.416669 0.264271 0.458656
O O4 0.424519 0.243110 0.952599
O O5 0.750000 0.532175 0.750000
O O6 0.821346 0.438037 0.869747
O O7 0.914549 0.127587 0.246533
O O8 0.000000 0.047316 0.257645
O O9 0.915930 0.000000 0.500000
O O10 0.917085 0.000000 0.000000
O O11 0.410141 0.500000 0.500000
O O12 0.381126 0.500000 0.000000
O O13 0.500000 0.796222 0.722080
#
# Coordination Sequence:
#
# PCOD8218248 Si02
#       5
#     8   4   8   8   8
#     4  10  19  30  42  59  88 118 147 181 213 249
#     4  10  18  34  51  66  83 102 134 182 220 264
#     4   9  15  23  36  53  73 100 144 192 215 234
#     4  10  20  31  47  67  83 109 147 180 208 266
#     4   9  17  27  39  55  79 115 148 179 220 249
#
# _framework density 15.286868999999999
#
# number of rings (size 3 to 8) (size 9 to 14) (size 15 to 20)
#    0.667    1.778    1.111    2.667    0.000    6.222 
#    0.000    0.000    0.000    0.000    0.000    0.000 
#    0.000    0.000    0.000    0.000    0.000   62.222 
#
# Total GULP energy -446026.900411 kJ/mol
# GULP energy per Si atom -12389.636123 kJ/mol
# Density = 1.525208 g / cm^3
# Si number density = 15.286869 Si / 1000 Ang^3
#
#
#
# Elastic Constant Matrix: (Units=GPa)
#
#
# Indices 1 2 3 4 5 6 
#
# 1 32.0366 33.7817 26.5037 0.0000 0.0000 0.0000
# 2 33.7817 101.7041 31.3486 0.0000 0.0000 0.0000
# 3 26.5037 31.3486 105.5811 0.0000 0.0000 0.0000
# 4 0.0000 0.0000 0.0000 24.1442 0.0000 0.0000
# 5 0.0000 0.0000 0.0000 0.0000 0.9826 0.0000
# 6 0.0000 0.0000 0.0000 0.0000 0.0000 -1.2372
#
#
#
# Elastic Compliance Matrix: (Units=1/GPa)
#
#
# Indices 1 2 3 4 5 6 
#
# 1 0.055199 -0.015480 -0.009260 0.000000 0.000000 0.000000
# 2 -0.015480 0.015164 -0.000617 0.000000 0.000000 0.000000
# 3 -0.009260 -0.000617 0.011979 0.000000 0.000000 0.000000
# 4 0.000000 0.000000 0.000000 0.041418 0.000000 0.000000
# 5 0.000000 0.000000 0.000000 0.000000 1.017669 0.000000
# 6 0.000000 0.000000 0.000000 0.000000 0.000000 -0.808261
#
#
# Mechanical properties :
#
#
# Convention : Reuss Voigt Hill
#
# Bulk Modulus (GPa) = 31.61739 46.95442 39.28590
# Shear Modulus (GPa) = 12.67670 14.62377 13.65024
#
# Velocity S-wave (km/s) = 2.88280 3.09629 2.99145
# Velocity P-wave (km/s) = 5.63989 6.60037 6.13894
#
# Compressibility (1/GPa) = 0.03162816
#
# Stress axis : x y z
#
# Youngs Moduli (GPa) = 18.11643 65.94404 83.47971
#
# Poissons Ratio (x) = 1.02083 0.77302
# Poissons Ratio (y) = 0.28045 0.05147
# Poissons Ratio (z) = 0.16776 0.04066
#
# Static dielectric constant tensor:
#      x y z
#    x 2.460310 0.000000 0.000000 
#    y 0.000000 2.989650 0.000000 
#    z 0.000000 0.000000 3.217890 
# 
# 
# High freq. dielectric constant tensor:
#      x y z
#    x 1.510910 0.000000 0.000000 
#    y 0.000000 1.581590 0.000000 
#    z 0.000000 0.000000 1.615980 
# 
# From -- ./inp_files/2754.got.cif
#   From: 2010.03.12/outbox.cif.g09.slc.cpg/sg53_2_cif.got.tgz:2754.got - 2010.04.16 14:36:59.
