data_PCOD8218519
_publ_section_title
;
Structure prediction by ZEFSAII (Michael W. Deem and Ramdas Pophale) SiO2 
 PCOD8218519
Probable space group: P M N A
;
_chemical_formula_sum "Si O2"
_cell_formula_units_Z 40
_cell_length_a 8.922419
_cell_length_b 12.542102
_cell_length_c 19.883754
_cell_angle_alpha 90.000000
_cell_angle_beta 90.000000
_cell_angle_gamma 90.000000
_cell_volume 2225.109172
_symmetry_space_group_name_H-M "P M N A"
_symmetry_group_IT_number 53
_symmetry_cell_setting 'orthorhombic'
loop_
_space_group_symop_operation_xyz
x,y,z
1/2-x,-y,1/2+z
x,-y,-z
1/2-x,y,1/2-z
-x,-y,-z
1/2+x,y,1/2-z
-x,y,z
1/2+x,-y,1/2+z
loop_
_atom_site_type_symbol
_atom_site_label
_atom_site_fract_x
_atom_site_fract_y
_atom_site_fract_z
Si Si1 0.676316 0.189604 0.898355
Si Si2 0.330930 0.978350 0.578743
Si Si3 0.175701 0.768893 0.552026
Si Si4 0.674709 0.448087 0.430494
Si Si5 0.675890 0.376716 0.680129
O O1 0.500000 0.190246 0.886340
O O2 0.754101 0.266964 0.845507
O O3 0.738028 0.071024 0.884166
O O4 0.719051 0.227550 0.973348
O O5 0.500000 0.976712 0.606793
O O6 0.253861 0.864742 0.592830
O O7 0.328258 0.000000 0.500000
O O8 0.233108 0.658965 0.583505
O O9 0.000000 0.780389 0.562649
O O10 0.729908 0.500000 0.500000
O O11 0.500000 0.419049 0.434474
O O12 0.712951 0.528757 0.371093
O O13 0.750000 0.409907 0.750000
O O14 0.500000 0.359855 0.689081
#
# Coordination Sequence:
#
# PCOD8218519 Si02
#       5
#     8   8   8   8   8
#     4  10  19  32  51  77 109 140 176 221 271 323
#     4   9  17  29  48  74 106 141 175 212 261 319
#     4  10  19  30  50  80 111 140 175 224 274 320
#     4  10  20  35  55  78 107 143 184 227 273 329
#     4  11  23  38  56  78 108 145 184 226 274 329
#
# _framework density 17.976645999999999
#
# number of rings (size 3 to 8) (size 9 to 14) (size 15 to 20)
#    0.000    2.000    2.000    2.400    0.000    6.000 
#    0.000    0.000    0.000    1.200    0.000    5.600 
#    0.000    0.000    0.000    0.000    0.000    0.000 
#
# Total GULP energy -496160.190106 kJ/mol
# GULP energy per Si atom -12404.004753 kJ/mol
# Density = 1.793573 g / cm^3
# Si number density = 17.976646 Si / 1000 Ang^3
#
#
#
# Elastic Constant Matrix: (Units=GPa)
#
#
# Indices 1 2 3 4 5 6 
#
# 1 99.5495 66.0916 46.6580 0.0000 0.0000 0.0000
# 2 66.0916 151.1539 48.9161 0.0000 0.0000 0.0000
# 3 46.6580 48.9161 78.7036 0.0000 0.0000 0.0000
# 4 0.0000 0.0000 0.0000 16.8900 0.0000 0.0000
# 5 0.0000 0.0000 0.0000 0.0000 24.0916 0.0000
# 6 0.0000 0.0000 0.0000 0.0000 0.0000 37.8069
#
#
#
# Elastic Compliance Matrix: (Units=1/GPa)
#
#
# Indices 1 2 3 4 5 6 
#
# 1 0.016530 -0.005078 -0.006644 0.000000 0.000000 0.000000
# 2 -0.005078 0.009841 -0.003106 0.000000 0.000000 0.000000
# 3 -0.006644 -0.003106 0.018575 0.000000 0.000000 0.000000
# 4 0.000000 0.000000 0.000000 0.059207 0.000000 0.000000
# 5 0.000000 0.000000 0.000000 0.000000 0.041508 0.000000
# 6 0.000000 0.000000 0.000000 0.000000 0.000000 0.026450
#
#
# Mechanical properties :
#
#
# Convention : Reuss Voigt Hill
#
# Bulk Modulus (GPa) = 65.39760 72.52651 68.96206
# Shear Modulus (GPa) = 24.17043 26.94046 25.55545
#
# Velocity S-wave (km/s) = 3.67078 3.87542 3.77449
# Velocity P-wave (km/s) = 7.37729 7.77545 7.57898
#
# Compressibility (1/GPa) = 0.01529108
#
# Stress axis : x y z
#
# Youngs Moduli (GPa) = 60.49501 101.61281 53.83541
#
# Poissons Ratio (x) = 0.51597 0.35767
# Poissons Ratio (y) = 0.30718 0.16723
# Poissons Ratio (z) = 0.40191 0.31564
#
# Static dielectric constant tensor:
#      x y z
#    x 3.393880 0.000000 0.000000 
#    y 0.000000 3.433290 0.000000 
#    z 0.000000 0.000000 2.986390 
# 
# 
# High freq. dielectric constant tensor:
#      x y z
#    x 1.710070 0.000000 0.000000 
#    y 0.000000 1.710060 0.000000 
#    z 0.000000 0.000000 1.647750 
# 
# From -- ./inp_files/25843.got.cif
#   From: 2010.03.12/outbox.cif.g09.slc.cpg/sg53_13_cif.got.tgz:25843.got - 2010.04.16 14:36:59.
