data_PCOD8218082
_publ_section_title
;
Structure prediction by ZEFSAII (Michael W. Deem and Ramdas Pophale) SiO2 
 PCOD8218082
Probable space group: P M N A
;
_chemical_formula_sum "Si O2"
_cell_formula_units_Z 56
_cell_length_a 19.349826
_cell_length_b 15.042672
_cell_length_c 8.908285
_cell_angle_alpha 90.000000
_cell_angle_beta 90.000000
_cell_angle_gamma 90.000000
_cell_volume 2592.962004
_symmetry_space_group_name_H-M "P M N A"
_symmetry_group_IT_number 53
_symmetry_cell_setting 'orthorhombic'
loop_
_space_group_symop_operation_xyz
x,y,z
1/2-x,-y,1/2+z
x,-y,-z
1/2-x,y,1/2-z
-x,-y,-z
1/2+x,y,1/2-z
-x,y,z
1/2+x,-y,1/2+z
loop_
_atom_site_type_symbol
_atom_site_label
_atom_site_fract_x
_atom_site_fract_y
_atom_site_fract_z
Si Si1 0.577964 0.630087 0.415463
Si Si2 0.421750 0.144749 0.042545
Si Si3 0.791507 0.076654 0.901305
Si Si4 0.077099 0.543957 0.758282
Si Si5 0.692717 0.737975 0.543909
Si Si6 0.661893 0.307644 0.127137
Si Si7 0.921172 0.980848 0.261030
O O1 0.500000 0.668989 0.390013
O O2 0.581282 0.585181 0.577252
O O3 0.595887 0.560290 0.281620
O O4 0.638074 0.704398 0.417429
O O5 0.500000 0.173338 0.072829
O O6 0.379656 0.236528 0.028024
O O7 0.398579 0.077525 0.175411
O O8 0.413952 0.094129 0.886888
O O9 0.750000 0.092103 0.750000
O O10 0.786406 0.163294 0.002291
O O11 0.870562 0.047029 0.872949
O O12 0.754677 0.000000 0.000000
O O13 0.127222 0.594307 0.640633
O O14 0.000000 0.553023 0.692993
O O15 0.762594 0.678132 0.553408
O O16 0.660571 0.737684 0.709051
O O17 0.000000 0.983886 0.201495
#
# Coordination Sequence:
#
# PCOD8218082 Si02
#       7
#     8   8   8   8   8   8   8
#     4   8  15  31  54  79 115 151 189 239 296 356
#     4   9  17  32  57  84 115 153 191 243 301 357
#     4  12  27  40  60  83 116 163 203 249 304 362
#     4   8  14  27  53  85 112 146 187 234 294 356
#     4  10  22  34  52  83 118 156 199 248 304 353
#     4  10  18  31  54  84 123 149 197 245 291 374
#     4   9  20  37  56  82 114 153 201 246 298 355
#
# _framework density 21.596921999999999
#
# number of rings (size 3 to 8) (size 9 to 14) (size 15 to 20)
#    0.000    2.571    0.000    3.857    6.000    1.429 
#    0.000    0.000   12.571    0.000    0.000    0.000 
#    0.000    8.571    0.000    3.714    0.000    0.000 
#
# Total GULP energy -694062.719375 kJ/mol
# GULP energy per Si atom -12393.977132 kJ/mol
# Density = 2.154777 g / cm^3
# Si number density = 21.596922 Si / 1000 Ang^3
#
#
#
# Elastic Constant Matrix: (Units=GPa)
#
#
# Indices 1 2 3 4 5 6 
#
# 1 114.0971 52.3033 21.2771 0.0000 0.0000 0.0000
# 2 52.3033 102.3768 17.4320 0.0000 0.0000 0.0000
# 3 21.2771 17.4320 31.7157 0.0000 0.0000 0.0000
# 4 0.0000 0.0000 0.0000 26.5705 0.0000 0.0000
# 5 0.0000 0.0000 0.0000 0.0000 22.2625 0.0000
# 6 0.0000 0.0000 0.0000 0.0000 0.0000 30.3127
#
#
#
# Elastic Compliance Matrix: (Units=1/GPa)
#
#
# Indices 1 2 3 4 5 6 
#
# 1 0.012187 -0.005333 -0.005245 0.000000 0.000000 0.000000
# 2 -0.005333 0.013110 -0.003628 0.000000 0.000000 0.000000
# 3 -0.005245 -0.003628 0.037043 0.000000 0.000000 0.000000
# 4 0.000000 0.000000 0.000000 0.037636 0.000000 0.000000
# 5 0.000000 0.000000 0.000000 0.000000 0.044919 0.000000
# 6 0.000000 0.000000 0.000000 0.000000 0.000000 0.032989
#
#
# Mechanical properties :
#
#
# Convention : Reuss Voigt Hill
#
# Bulk Modulus (GPa) = 29.47381 47.80160 38.63771
# Shear Modulus (GPa) = 22.97733 26.30762 24.64248
#
# Velocity S-wave (km/s) = 3.26531 3.49394 3.38156
# Velocity P-wave (km/s) = 5.28140 6.20149 5.75985
#
# Compressibility (1/GPa) = 0.03392842
#
# Stress axis : x y z
#
# Youngs Moduli (GPa) = 82.05201 76.27566 26.99585
#
# Poissons Ratio (x) = 0.40681 0.14159
# Poissons Ratio (y) = 0.43761 0.09794
# Poissons Ratio (z) = 0.43034 0.27672
#
# Static dielectric constant tensor:
#      x y z
#    x 4.155100 0.000000 0.000000 
#    y 0.000000 3.934580 0.000000 
#    z 0.000000 0.000000 3.539850 
# 
# 
# High freq. dielectric constant tensor:
#      x y z
#    x 1.855310 0.000000 0.000000 
#    y 0.000000 1.835680 0.000000 
#    z 0.000000 0.000000 1.817210 
# 
# From -- ./inp_files/11103.got.cif
#   From: 2010.03.12/outbox.cif.g09.slc.cpg/sg53_6_cif.got.tgz:11103.got - 2010.04.16 14:36:59.
