data_PCOD8218068
_publ_section_title
;
Structure prediction by ZEFSAII (Michael W. Deem and Ramdas Pophale) SiO2 
 PCOD8218068
Probable space group: P M N A
;
_chemical_formula_sum "Si O2"
_cell_formula_units_Z 48
_cell_length_a 17.973245
_cell_length_b 10.202100
_cell_length_c 14.731501
_cell_angle_alpha 90.000000
_cell_angle_beta 90.000000
_cell_angle_gamma 90.000000
_cell_volume 2701.239365
_symmetry_space_group_name_H-M "P M N A"
_symmetry_group_IT_number 53
_symmetry_cell_setting 'orthorhombic'
loop_
_space_group_symop_operation_xyz
x,y,z
1/2-x,-y,1/2+z
x,-y,-z
1/2-x,y,1/2-z
-x,-y,-z
1/2+x,y,1/2-z
-x,y,z
1/2+x,-y,1/2+z
loop_
_atom_site_type_symbol
_atom_site_label
_atom_site_fract_x
_atom_site_fract_y
_atom_site_fract_z
Si Si1 0.774594 0.348100 0.494347
Si Si2 0.196130 0.742340 0.172139
Si Si3 0.880542 0.369847 0.061739
Si Si4 0.082771 0.873844 0.054135
Si Si5 0.919676 0.608744 0.575381
Si Si6 0.083843 0.483972 0.767267
O O1 0.794158 0.500000 0.500000
O O2 0.752868 0.294858 0.592430
O O3 0.705660 0.325875 0.426107
O O4 0.852967 0.289959 0.454597
O O5 0.250000 0.798115 0.250000
O O6 0.139337 0.853704 0.137837
O O7 0.146767 0.620131 0.205262
O O8 0.915442 0.397359 0.159683
O O9 0.885368 0.500000 0.000000
O O10 0.922868 0.253116 0.010870
O O11 0.000000 0.900705 0.092586
O O12 0.112212 0.000000 0.000000
O O13 0.932734 0.500000 0.500000
O O14 0.895626 0.540724 0.669654
O O15 0.000000 0.682339 0.587816
O O16 0.000000 0.422699 0.767134
#
# Coordination Sequence:
#
# PCOD8218068 Si02
#       6
#     8   8   8   8   8   8
#     4   9  15  29  43  67 102 135 165 208 266 301
#     4  11  20  31  53  78 105 139 180 223 261 322
#     4  10  18  31  53  82 111 135 167 225 272 325
#     4  10  21  37  57  79 111 145 177 222 280 332
#     4   9  18  29  41  63 106 146 176 212 259 318
#     4  11  20  29  50  80 107 138 175 222 274 317
#
# _framework density 17.769621000000001
#
# number of rings (size 3 to 8) (size 9 to 14) (size 15 to 20)
#    0.000    2.000    5.000    3.000    0.000    0.667 
#    0.000    0.833    7.333    0.000    0.000    0.000 
#    0.000   12.000    0.000    0.000    0.000    0.000 
#
# Total GULP energy -594630.455237 kJ/mol
# GULP energy per Si atom -12388.134484 kJ/mol
# Density = 1.772918 g / cm^3
# Si number density = 17.769621 Si / 1000 Ang^3
#
#
#
# Elastic Constant Matrix: (Units=GPa)
#
#
# Indices 1 2 3 4 5 6 
#
# 1 151.2402 22.6660 54.9973 0.0000 0.0000 0.0000
# 2 22.6660 51.5865 26.7326 0.0000 0.0000 0.0000
# 3 54.9973 26.7326 124.1477 0.0000 0.0000 0.0000
# 4 0.0000 0.0000 0.0000 14.8099 0.0000 0.0000
# 5 0.0000 0.0000 0.0000 0.0000 49.7055 0.0000
# 6 0.0000 0.0000 0.0000 0.0000 0.0000 15.1341
#
#
#
# Elastic Compliance Matrix: (Units=1/GPa)
#
#
# Indices 1 2 3 4 5 6 
#
# 1 0.008044 -0.001900 -0.003154 0.000000 0.000000 0.000000
# 2 -0.001900 0.022268 -0.003953 0.000000 0.000000 0.000000
# 3 -0.003154 -0.003953 0.010304 0.000000 0.000000 0.000000
# 4 0.000000 0.000000 0.000000 0.067523 0.000000 0.000000
# 5 0.000000 0.000000 0.000000 0.000000 0.020118 0.000000
# 6 0.000000 0.000000 0.000000 0.000000 0.000000 0.066076
#
#
# Mechanical properties :
#
#
# Convention : Reuss Voigt Hill
#
# Bulk Modulus (GPa) = 44.24629 59.52957 51.88793
# Shear Modulus (GPa) = 22.73957 30.76847 26.75402
#
# Velocity S-wave (km/s) = 3.58115 4.16567 3.88442
# Velocity P-wave (km/s) = 6.48487 7.53064 7.02724
#
# Compressibility (1/GPa) = 0.02260076
#
# Stress axis : x y z
#
# Youngs Moduli (GPa) = 124.32027 44.90684 97.05368
#
# Poissons Ratio (x) = 0.08531 0.30614
# Poissons Ratio (y) = 0.23617 0.38370
# Poissons Ratio (z) = 0.39215 0.17754
#
# Static dielectric constant tensor:
#      x y z
#    x 4.016770 0.000000 0.000000 
#    y 0.000000 2.784860 0.000000 
#    z 0.000000 0.000000 3.299680 
# 
# 
# High freq. dielectric constant tensor:
#      x y z
#    x 1.722010 0.000000 0.000000 
#    y 0.000000 1.611750 0.000000 
#    z 0.000000 0.000000 1.685850 
# 
# From -- ./inp_files/23753.got.cif
#   From: 2010.03.12/outbox.cif.g09.slc.cpg/sg53_12_cif.got.tgz:23753.got - 2010.04.16 14:36:59.
