data_PCOD8218258
_publ_section_title
;
Structure prediction by ZEFSAII (Michael W. Deem and Ramdas Pophale) SiO2 
 PCOD8218258
Probable space group: P M N A
;
_chemical_formula_sum "Si O2"
_cell_formula_units_Z 64
_cell_length_a 8.780369
_cell_length_b 11.919496
_cell_length_c 31.600563
_cell_angle_alpha 90.000000
_cell_angle_beta 90.000000
_cell_angle_gamma 90.000000
_cell_volume 3307.238235
_symmetry_space_group_name_H-M "P M N A"
_symmetry_group_IT_number 53
_symmetry_cell_setting 'orthorhombic'
loop_
_space_group_symop_operation_xyz
x,y,z
1/2-x,-y,1/2+z
x,-y,-z
1/2-x,y,1/2-z
-x,-y,-z
1/2+x,y,1/2-z
-x,y,z
1/2+x,-y,1/2+z
loop_
_atom_site_type_symbol
_atom_site_label
_atom_site_fract_x
_atom_site_fract_y
_atom_site_fract_z
Si Si1 0.180116 0.494994 0.793935
Si Si2 0.821727 0.103270 0.634109
Si Si3 0.177943 0.240406 0.792400
Si Si4 0.675186 0.872646 0.986110
Si Si5 0.174665 0.237049 0.938790
Si Si6 0.678588 0.382831 0.126187
Si Si7 0.678010 0.135276 0.107365
Si Si8 0.823501 0.506898 0.048576
O O1 0.250000 0.543012 0.750000
O O2 0.235610 0.367095 0.800337
O O3 0.236439 0.560833 0.834837
O O4 0.000000 0.506062 0.791066
O O5 0.723849 0.161875 0.669620
O O6 0.789101 0.166610 0.590329
O O7 0.000000 0.112135 0.644475
O O8 0.762566 0.974301 0.632441
O O9 0.250000 0.190171 0.750000
O O10 0.000000 0.239422 0.786854
O O11 0.500000 0.831462 0.989114
O O12 0.747158 0.860981 0.939564
O O13 0.782586 0.792073 0.013338
O O14 0.690125 0.000000 0.000000
O O15 0.199046 0.369259 0.932250
O O16 0.000000 0.204488 0.928981
O O17 0.500000 0.407064 0.129639
O O18 0.715568 0.250466 0.131440
O O19 0.733523 0.424266 0.080052
O O20 0.500000 0.116691 0.100986
O O21 0.000000 0.471521 0.048878
O O22 0.761444 0.500000 0.000000
#
# Coordination Sequence:
#
# PCOD8218258 Si02
#       8
#     8   8   8   8   8   8   8   8
#     4  10  21  39  63  89 118 147 183 231 285 342
#     4  11  21  37  58  80 110 147 183 223 275 328
#     4  10  21  38  60  88 116 142 175 221 274 331
#     4  10  18  34  56  76 105 148 191 232 280 330
#     4  11  22  34  52  81 111 141 184 235 279 327
#     4  11  22  37  59  85 114 149 194 240 286 341
#     4   9  20  37  55  79 111 148 189 234 278 328
#     4  10  22  39  55  76 114 156 191 234 289 341
#
# _framework density 19.351493999999999
#
# number of rings (size 3 to 8) (size 9 to 14) (size 15 to 20)
#    0.000    1.750    1.250    3.375    0.000    6.000 
#    0.000    3.750    0.000    0.000    0.000    0.000 
#    0.000    0.000    0.000    0.000    0.000    0.000 
#
# Total GULP energy -793660.163301 kJ/mol
# GULP energy per Si atom -12400.940052 kJ/mol
# Density = 1.930745 g / cm^3
# Si number density = 19.351494 Si / 1000 Ang^3
#
#
#
# Elastic Constant Matrix: (Units=GPa)
#
#
# Indices 1 2 3 4 5 6 
#
# 1 55.0584 28.1702 23.7080 0.0000 0.0000 0.0000
# 2 28.1702 91.4022 41.1875 0.0000 0.0000 0.0000
# 3 23.7080 41.1875 121.6407 0.0000 0.0000 0.0000
# 4 0.0000 0.0000 0.0000 360.0874 0.0000 0.0000
# 5 0.0000 0.0000 0.0000 0.0000 37.8095 0.0000
# 6 0.0000 0.0000 0.0000 0.0000 0.0000 16.2434
#
#
#
# Elastic Compliance Matrix: (Units=1/GPa)
#
#
# Indices 1 2 3 4 5 6 
#
# 1 0.022124 -0.005753 -0.002364 0.000000 0.000000 0.000000
# 2 -0.005753 0.014407 -0.003757 0.000000 0.000000 0.000000
# 3 -0.002364 -0.003757 0.009954 0.000000 0.000000 0.000000
# 4 0.000000 0.000000 0.000000 0.002777 0.000000 0.000000
# 5 0.000000 0.000000 0.000000 0.000000 0.026448 0.000000
# 6 0.000000 0.000000 0.000000 0.000000 0.000000 0.061564
#
#
# Mechanical properties :
#
#
# Convention : Reuss Voigt Hill
#
# Bulk Modulus (GPa) = 43.98248 50.47032 47.22640
# Shear Modulus (GPa) = 29.65585 94.49709 62.07647
#
# Velocity S-wave (km/s) = 3.91894 6.99557 5.66992
# Velocity P-wave (km/s) = 6.57686 9.55971 8.20497
#
# Compressibility (1/GPa) = 0.02273633
#
# Stress axis : x y z
#
# Youngs Moduli (GPa) = 45.19944 69.41198 100.46513
#
# Poissons Ratio (x) = 0.39936 0.23749
# Poissons Ratio (y) = 0.26005 0.37742
# Poissons Ratio (z) = 0.10685 0.26076
#
# Static dielectric constant tensor:
#      x y z
#    x 3.433570 0.000000 0.000000 
#    y 0.000000 3.650760 0.000000 
#    z 0.000000 0.000000 3.004020 
# 
# 
# High freq. dielectric constant tensor:
#      x y z
#    x 1.746520 0.000000 0.000000 
#    y 0.000000 1.754520 0.000000 
#    z 0.000000 0.000000 1.754410 
# 
# From -- ./inp_files/38242.got.cif
#   From: 2010.03.12/outbox.cif.g09.slc.cpg/sg53_20_cif.got.tgz:38242.got - 2010.04.16 14:36:59.
