data_PCOD8218464
_publ_section_title
;
Structure prediction by ZEFSAII (Michael W. Deem and Ramdas Pophale) SiO2 
 PCOD8218464
Probable space group: P M N A
;
_chemical_formula_sum "Si O2"
_cell_formula_units_Z 64
_cell_length_a 9.039969
_cell_length_b 18.266940
_cell_length_c 23.090428
_cell_angle_alpha 90.000000
_cell_angle_beta 90.000000
_cell_angle_gamma 90.000000
_cell_volume 3812.981749
_symmetry_space_group_name_H-M "P M N A"
_symmetry_group_IT_number 53
_symmetry_cell_setting 'orthorhombic'
loop_
_space_group_symop_operation_xyz
x,y,z
1/2-x,-y,1/2+z
x,-y,-z
1/2-x,y,1/2-z
-x,-y,-z
1/2+x,y,1/2-z
-x,y,z
1/2+x,-y,1/2+z
loop_
_atom_site_type_symbol
_atom_site_label
_atom_site_fract_x
_atom_site_fract_y
_atom_site_fract_z
Si Si1 0.827540 0.585118 0.689075
Si Si2 0.175322 0.878183 0.610973
Si Si3 0.828110 0.430652 0.689255
Si Si4 0.327214 0.084730 0.501776
Si Si5 0.326219 0.728123 0.187955
Si Si6 0.172789 0.995319 0.810357
Si Si7 0.330078 0.143710 0.627196
Si Si8 0.673719 0.743474 0.811625
O O1 0.750000 0.582162 0.750000
O O2 0.787342 0.507801 0.655181
O O3 0.783708 0.663299 0.660132
O O4 0.000000 0.586744 0.701391
O O5 0.231113 0.871381 0.545219
O O6 0.254378 0.947420 0.639598
O O7 0.227218 0.804585 0.643477
O O8 0.000000 0.889087 0.612948
O O9 0.750000 0.432525 0.750000
O O10 0.787679 0.352498 0.659796
O O11 0.000000 0.430205 0.702725
O O12 0.500000 0.094823 0.487966
O O13 0.283528 0.116383 0.563988
O O14 0.282729 0.000000 0.500000
O O15 0.250000 0.739181 0.250000
O O16 0.500000 0.738888 0.197181
O O17 0.269795 0.787125 0.142356
O O18 0.250000 0.976700 0.750000
O O19 0.000000 0.976022 0.806174
O O20 0.197723 0.079947 0.826060
O O21 0.500000 0.168250 0.628165
O O22 0.750000 0.756522 0.750000
O O23 0.500000 0.750190 0.800697
#
# Coordination Sequence:
#
# PCOD8218464 Si02
#       8
#     8   8   8   8   8   8   8   8
#     4   8  13  24  41  61  90 126 158 187 222 268
#     4  11  22  34  50  74  98 124 158 197 242 285
#     4   8  14  24  40  63  91 125 158 187 223 270
#     4  10  20  39  58  71  88 118 159 204 246 287
#     4  10  19  30  46  71 102 129 157 193 234 281
#     4  11  22  36  51  70  96 127 160 194 233 285
#     4  10  21  36  53  70  91 121 158 197 241 285
#     4   9  18  30  45  69 100 129 158 192 231 278
#
# _framework density 16.784765
#
# number of rings (size 3 to 8) (size 9 to 14) (size 15 to 20)
#    0.000    2.375    1.250    1.875    0.000    5.250 
#    0.000    0.000    0.000    0.000    0.000    0.875 
#    0.000    7.000    0.000    0.000    0.000    0.000 
#
# Total GULP energy -792838.746694 kJ/mol
# GULP energy per Si atom -12388.105417 kJ/mol
# Density = 1.674656 g / cm^3
# Si number density = 16.784765 Si / 1000 Ang^3
#
#
#
# Elastic Constant Matrix: (Units=GPa)
#
#
# Indices 1 2 3 4 5 6 
#
# 1 52.6559 42.0819 28.3284 0.0000 0.0000 0.0000
# 2 42.0819 136.0559 37.7595 0.0000 0.0000 0.0000
# 3 28.3284 37.7595 69.5299 0.0000 0.0000 0.0000
# 4 0.0000 0.0000 0.0000 11.3271 0.0000 0.0000
# 5 0.0000 0.0000 0.0000 0.0000 25.4869 0.0000
# 6 0.0000 0.0000 0.0000 0.0000 0.0000 17.1796
#
#
#
# Elastic Compliance Matrix: (Units=1/GPa)
#
#
# Indices 1 2 3 4 5 6 
#
# 1 0.028616 -0.006612 -0.008068 0.000000 0.000000 0.000000
# 2 -0.006612 0.010182 -0.002836 0.000000 0.000000 0.000000
# 3 -0.008068 -0.002836 0.019210 0.000000 0.000000 0.000000
# 4 0.000000 0.000000 0.000000 0.088284 0.000000 0.000000
# 5 0.000000 0.000000 0.000000 0.000000 0.039236 0.000000
# 6 0.000000 0.000000 0.000000 0.000000 0.000000 0.058209
#
#
# Mechanical properties :
#
#
# Convention : Reuss Voigt Hill
#
# Bulk Modulus (GPa) = 43.52376 52.73126 48.12751
# Shear Modulus (GPa) = 17.45653 20.80351 19.13002
#
# Velocity S-wave (km/s) = 3.22844 3.52437 3.37964
# Velocity P-wave (km/s) = 6.31537 6.93152 6.63060
#
# Compressibility (1/GPa) = 0.02297596
#
# Stress axis : x y z
#
# Youngs Moduli (GPa) = 34.94559 98.21365 52.05747
#
# Poissons Ratio (x) = 0.64936 0.42002
# Poissons Ratio (y) = 0.23105 0.14762
# Poissons Ratio (z) = 0.28195 0.27850
#
# Static dielectric constant tensor:
#      x y z
#    x 3.001960 0.000000 0.000000 
#    y 0.000000 3.928410 0.000000 
#    z 0.000000 0.000000 2.820650 
# 
# 
# High freq. dielectric constant tensor:
#      x y z
#    x 1.652950 0.000000 0.000000 
#    y 0.000000 1.669450 0.000000 
#    z 0.000000 0.000000 1.598910 
# 
# From -- ./inp_files/34428.got.cif
#   From: 2010.03.12/outbox.cif.g09.slc.cpg/sg53_18_cif.got.tgz:34428.got - 2010.04.16 14:36:59.
