data_PCOD8218334
_publ_section_title
;
Structure prediction by ZEFSAII (Michael W. Deem and Ramdas Pophale) SiO2 
 PCOD8218334
Probable space group: P M N A
;
_chemical_formula_sum "Si O2"
_cell_formula_units_Z 64
_cell_length_a 9.103464
_cell_length_b 16.863234
_cell_length_c 26.495830
_cell_angle_alpha 90.000000
_cell_angle_beta 90.000000
_cell_angle_gamma 90.000000
_cell_volume 4067.476704
_symmetry_space_group_name_H-M "P M N A"
_symmetry_group_IT_number 53
_symmetry_cell_setting 'orthorhombic'
loop_
_space_group_symop_operation_xyz
x,y,z
1/2-x,-y,1/2+z
x,-y,-z
1/2-x,y,1/2-z
-x,-y,-z
1/2+x,y,1/2-z
-x,y,z
1/2+x,-y,1/2+z
loop_
_atom_site_type_symbol
_atom_site_label
_atom_site_fract_x
_atom_site_fract_y
_atom_site_fract_z
Si Si1 0.329267 0.327656 0.964196
Si Si2 0.167182 0.373207 0.423161
Si Si3 0.670659 0.916404 0.802893
Si Si4 0.666703 0.789589 0.883919
Si Si5 0.169010 0.972940 0.119297
Si Si6 0.165994 0.522080 0.058375
Si Si7 0.673691 0.850369 0.058555
Si Si8 0.167369 0.892401 0.960404
O O1 0.500000 0.341548 0.955412
O O2 0.245935 0.394496 0.931556
O O3 0.280295 0.241761 0.944108
O O4 0.288067 0.334262 0.023201
O O5 0.191493 0.305473 0.380432
O O6 0.263157 0.450299 0.409567
O O7 0.000000 0.402502 0.425079
O O8 0.750000 0.909399 0.750000
O O9 0.500000 0.937287 0.795432
O O10 0.690874 0.831067 0.829970
O O11 0.745046 0.985977 0.835042
O O12 0.500000 0.806470 0.903511
O O13 0.782757 0.822429 0.923607
O O14 0.246774 0.889016 0.107198
O O15 0.000000 0.959860 0.135322
O O16 0.180375 0.024668 0.068580
O O17 0.000000 0.531362 0.076226
O O18 0.181755 0.500000 0.000000
O O19 0.500000 0.861543 0.063309
O O20 0.728336 0.895491 0.008664
O O21 0.000000 0.876439 0.977471
#
# Coordination Sequence:
#
# PCOD8218334 Si02
#       8
#     8   8   8   8   8   8   8   8
#     4   9  17  28  41  57  82 119 156 187 220 258
#     4   9  15  27  43  59  83 115 152 187 218 259
#     4  10  20  35  54  71  91 117 147 186 231 276
#     4   9  17  30  47  67  88 117 154 187 223 270
#     4  10  21  34  46  65  89 116 151 187 228 274
#     4   9  17  26  37  57  83 113 150 186 220 256
#     4  11  20  30  44  63  88 120 157 191 225 267
#     4  10  19  29  42  61  89 120 150 187 227 265
#
# _framework density 15.734571000000001
#
# number of rings (size 3 to 8) (size 9 to 14) (size 15 to 20)
#    0.000    2.375    1.250    2.250    0.000    6.500 
#    0.000    0.000    0.000    0.000    0.000    0.000 
#    0.000    1.000    0.000    6.750    0.000    4.875 
#
# Total GULP energy -793499.634469 kJ/mol
# GULP energy per Si atom -12398.431789 kJ/mol
# Density = 1.569876 g / cm^3
# Si number density = 15.734571 Si / 1000 Ang^3
#
#
#
# Elastic Constant Matrix: (Units=GPa)
#
#
# Indices 1 2 3 4 5 6 
#
# 1 98.0085 60.1725 37.6165 0.0000 0.0000 0.0000
# 2 60.1725 109.5307 43.0608 0.0000 0.0000 0.0000
# 3 37.6165 43.0608 56.8142 0.0000 0.0000 0.0000
# 4 0.0000 0.0000 0.0000 11.4336 0.0000 0.0000
# 5 0.0000 0.0000 0.0000 0.0000 20.8441 0.0000
# 6 0.0000 0.0000 0.0000 0.0000 0.0000 24.1720
#
#
#
# Elastic Compliance Matrix: (Units=1/GPa)
#
#
# Indices 1 2 3 4 5 6 
#
# 1 0.016649 -0.006855 -0.005827 0.000000 0.000000 0.000000
# 2 -0.006855 0.015828 -0.007457 0.000000 0.000000 0.000000
# 3 -0.005827 -0.007457 0.027112 0.000000 0.000000 0.000000
# 4 0.000000 0.000000 0.000000 0.087462 0.000000 0.000000
# 5 0.000000 0.000000 0.000000 0.000000 0.047975 0.000000
# 6 0.000000 0.000000 0.000000 0.000000 0.000000 0.041370
#
#
# Mechanical properties :
#
#
# Convention : Reuss Voigt Hill
#
# Bulk Modulus (GPa) = 51.79157 60.67256 56.23206
# Shear Modulus (GPa) = 17.66095 19.52349 18.59222
#
# Velocity S-wave (km/s) = 3.35390 3.52632 3.44119
# Velocity P-wave (km/s) = 6.92715 7.43126 7.18363
#
# Compressibility (1/GPa) = 0.01930816
#
# Stress axis : x y z
#
# Youngs Moduli (GPa) = 60.06545 63.18044 36.88470
#
# Poissons Ratio (x) = 0.43312 0.21493
# Poissons Ratio (y) = 0.41176 0.27506
# Poissons Ratio (z) = 0.35001 0.47116
#
# Static dielectric constant tensor:
#      x y z
#    x 3.118130 0.000000 0.000000 
#    y 0.000000 3.113880 0.000000 
#    z 0.000000 0.000000 2.579170 
# 
# 
# High freq. dielectric constant tensor:
#      x y z
#    x 1.618390 0.000000 0.000000 
#    y 0.000000 1.606700 0.000000 
#    z 0.000000 0.000000 1.541670 
# 
# From -- ./inp_files/34472.got.cif
#   From: 2010.03.12/outbox.cif.g09.slc.cpg/sg53_18_cif.got.tgz:34472.got - 2010.04.16 14:36:59.
