data_PCOD8218672
_publ_section_title
;
Structure prediction by ZEFSAII (Michael W. Deem and Ramdas Pophale) SiO2 
 PCOD8218672
Probable space group: P M N A
;
_chemical_formula_sum "Si O2"
_cell_formula_units_Z 64
_cell_length_a 9.090171
_cell_length_b 19.612936
_cell_length_c 19.032129
_cell_angle_alpha 90.000000
_cell_angle_beta 90.000000
_cell_angle_gamma 90.000000
_cell_volume 3393.142016
_symmetry_space_group_name_H-M "P M N A"
_symmetry_group_IT_number 53
_symmetry_cell_setting 'orthorhombic'
loop_
_space_group_symop_operation_xyz
x,y,z
1/2-x,-y,1/2+z
x,-y,-z
1/2-x,y,1/2-z
-x,-y,-z
1/2+x,y,1/2-z
-x,y,z
1/2+x,-y,1/2+z
loop_
_atom_site_type_symbol
_atom_site_label
_atom_site_fract_x
_atom_site_fract_y
_atom_site_fract_z
Si Si1 0.671200 0.146638 0.407203
Si Si2 0.828341 0.880587 0.321269
Si Si3 0.327360 0.721331 0.677186
Si Si4 0.828595 0.038403 0.321594
Si Si5 0.674286 0.593654 0.587286
Si Si6 0.673058 0.795786 0.440454
Si Si7 0.326134 0.640956 0.439895
Si Si8 0.174377 0.535002 0.174722
O O1 0.500000 0.129107 0.399670
O O2 0.719230 0.206450 0.354602
O O3 0.764457 0.079946 0.387533
O O4 0.709449 0.169764 0.485455
O O5 0.750000 0.857443 0.250000
O O6 0.762852 0.836862 0.383468
O O7 0.000000 0.865716 0.313438
O O8 0.796432 0.959594 0.337345
O O9 0.250000 0.709051 0.750000
O O10 0.500000 0.717020 0.688842
O O11 0.273622 0.662396 0.625121
O O12 0.750000 0.062207 0.250000
O O13 0.000000 0.053812 0.313025
O O14 0.500000 0.586848 0.585873
O O15 0.735317 0.598539 0.507272
O O16 0.736813 0.528613 0.629452
O O17 0.500000 0.798837 0.423641
O O18 0.733158 0.718260 0.439614
O O19 0.500000 0.644094 0.448388
O O20 0.281166 0.603197 0.367969
O O21 0.250000 0.537172 0.250000
O O22 0.000000 0.529786 0.185777
#
# Coordination Sequence:
#
# PCOD8218672 Si02
#       8
#     8   8   8   8   8   8   8   8
#     4  10  20  34  53  78 111 147 181 221 269 324
#     4  10  22  40  60  82 108 140 181 228 276 326
#     4  10  19  31  49  75 107 142 178 219 263 312
#     4  10  21  37  57  80 109 144 182 226 273 324
#     4   9  16  31  54  78 104 138 182 224 261 312
#     4  10  20  36  58  82 110 144 183 227 272 323
#     4   9  17  33  56  80 105 140 185 226 265 315
#     4  10  20  33  54  81 108 140 179 225 272 319
#
# _framework density 18.861573
#
# number of rings (size 3 to 8) (size 9 to 14) (size 15 to 20)
#    0.000    2.250    1.250    1.875    0.000    6.000 
#    0.000    4.375    0.000    3.000    0.000    0.000 
#    0.000    0.000    0.000    0.000    0.000    0.000 
#
# Total GULP energy -793630.983118 kJ/mol
# GULP energy per Si atom -12400.484111 kJ/mol
# Density = 1.881864 g / cm^3
# Si number density = 18.861573 Si / 1000 Ang^3
#
#
#
# Elastic Constant Matrix: (Units=GPa)
#
#
# Indices 1 2 3 4 5 6 
#
# 1 50.3710 43.7571 50.6993 0.0000 0.0000 0.0000
# 2 43.7571 111.9714 79.4884 0.0000 0.0000 0.0000
# 3 50.6993 79.4884 136.7098 0.0000 0.0000 0.0000
# 4 0.0000 0.0000 0.0000 35.3134 0.0000 0.0000
# 5 0.0000 0.0000 0.0000 0.0000 34.5918 0.0000
# 6 0.0000 0.0000 0.0000 0.0000 0.0000 19.6724
#
#
#
# Elastic Compliance Matrix: (Units=1/GPa)
#
#
# Indices 1 2 3 4 5 6 
#
# 1 0.035127 -0.007628 -0.008592 0.000000 0.000000 0.000000
# 2 -0.007628 0.016865 -0.006977 0.000000 0.000000 0.000000
# 3 -0.008592 -0.006977 0.014558 0.000000 0.000000 0.000000
# 4 0.000000 0.000000 0.000000 0.028318 0.000000 0.000000
# 5 0.000000 0.000000 0.000000 0.000000 0.028909 0.000000
# 6 0.000000 0.000000 0.000000 0.000000 0.000000 0.050833
#
#
# Mechanical properties :
#
#
# Convention : Reuss Voigt Hill
#
# Bulk Modulus (GPa) = 49.61303 71.88246 60.74775
# Shear Modulus (GPa) = 21.95681 26.25602 24.10641
#
# Velocity S-wave (km/s) = 3.41560 3.73505 3.57889
# Velocity P-wave (km/s) = 6.47425 7.53618 7.02531
#
# Compressibility (1/GPa) = 0.02015599
#
# Stress axis : x y z
#
# Youngs Moduli (GPa) = 28.46838 59.29558 68.69203
#
# Poissons Ratio (x) = 0.45230 0.59018
# Poissons Ratio (y) = 0.21715 0.47926
# Poissons Ratio (z) = 0.24459 0.41370
#
# Static dielectric constant tensor:
#      x y z
#    x 3.145860 0.000000 0.000000 
#    y 0.000000 3.631590 0.000000 
#    z 0.000000 0.000000 3.555870 
# 
# 
# High freq. dielectric constant tensor:
#      x y z
#    x 1.699140 0.000000 0.000000 
#    y 0.000000 1.743240 0.000000 
#    z 0.000000 0.000000 1.742870 
# 
# From -- ./inp_files/26988.got.cif
#   From: 2010.03.12/outbox.cif.g09.slc.cpg/sg53_14_cif.got.tgz:26988.got - 2010.04.16 14:36:59.
