data_PCOD8219838
_publ_section_title
;
Structure prediction by ZEFSAII (Michael W. Deem and Ramdas Pophale) SiO2 
 PCOD8219838
Probable space group: P M N A
;
_chemical_formula_sum "Si O2"
_cell_formula_units_Z 56
_cell_length_a 9.253597
_cell_length_b 17.230196
_cell_length_c 19.744671
_cell_angle_alpha 90.000000
_cell_angle_beta 90.000000
_cell_angle_gamma 90.000000
_cell_volume 3148.115815
_symmetry_space_group_name_H-M "P M N A"
_symmetry_group_IT_number 53
_symmetry_cell_setting 'orthorhombic'
loop_
_space_group_symop_operation_xyz
x,y,z
1/2-x,-y,1/2+z
x,-y,-z
1/2-x,y,1/2-z
-x,-y,-z
1/2+x,y,1/2-z
-x,y,z
1/2+x,-y,1/2+z
loop_
_atom_site_type_symbol
_atom_site_label
_atom_site_fract_x
_atom_site_fract_y
_atom_site_fract_z
Si Si1 0.166658 0.441532 0.684335
Si Si2 0.670060 0.813066 0.318958
Si Si3 0.331070 0.949688 0.408814
Si Si4 0.328963 0.113529 0.449843
Si Si5 0.169861 0.617627 0.682843
Si Si6 0.333166 0.696311 0.088371
Si Si7 0.168264 0.730842 0.564211
O O1 0.250000 0.408898 0.750000
O O2 0.215533 0.528960 0.666697
O O3 0.199410 0.388563 0.619081
O O4 0.000000 0.438748 0.704303
O O5 0.750000 0.793070 0.250000
O O6 0.500000 0.800379 0.309202
O O7 0.707482 0.901663 0.341118
O O8 0.726583 0.757377 0.377497
O O9 0.500000 0.950917 0.422453
O O10 0.268559 0.905221 0.474760
O O11 0.280796 0.039373 0.403365
O O12 0.500000 0.128201 0.447610
O O13 0.251601 0.189480 0.421706
O O14 0.250000 0.647750 0.750000
O O15 0.221279 0.668946 0.619587
O O16 0.000000 0.625081 0.695141
O O17 0.500000 0.720349 0.101288
O O18 0.296511 0.694221 0.008990
O O19 0.000000 0.748823 0.571812
#
# Coordination Sequence:
#
# PCOD8219838 Si02
#       7
#     8   8   8   8   8   8   8
#     4   9  18  33  52  72  98 136 175 208 248 300
#     4  11  21  34  51  74 105 140 173 210 255 303
#     4   8  16  31  52  73  95 129 172 208 242 295
#     4   9  16  32  55  75  96 129 170 207 248 301
#     4   9  19  36  55  74  99 133 171 212 257 307
#     4  10  20  33  50  76 106 135 170 210 255 306
#     4  10  20  33  51  79 109 131 163 214 263 304
#
# _framework density 17.788418
#
# number of rings (size 3 to 8) (size 9 to 14) (size 15 to 20)
#    0.000    2.571    1.429    1.714    0.000    2.857 
#    0.000    6.429    0.000    3.429    0.000    6.000 
#    0.000    0.000    0.000    0.000    0.000    0.000 
#
# Total GULP energy -694258.272380 kJ/mol
# GULP energy per Si atom -12397.469150 kJ/mol
# Density = 1.774793 g / cm^3
# Si number density = 17.788418 Si / 1000 Ang^3
#
#
#
# Elastic Constant Matrix: (Units=GPa)
#
#
# Indices 1 2 3 4 5 6 
#
# 1 51.8130 45.0175 45.1239 0.0000 0.0000 0.0000
# 2 45.0175 120.4024 68.7889 0.0000 0.0000 0.0000
# 3 45.1239 68.7889 118.2918 0.0000 0.0000 0.0000
# 4 0.0000 0.0000 0.0000 26.9726 0.0000 0.0000
# 5 0.0000 0.0000 0.0000 0.0000 22.2658 0.0000
# 6 0.0000 0.0000 0.0000 0.0000 0.0000 28.3084
#
#
#
# Elastic Compliance Matrix: (Units=1/GPa)
#
#
# Indices 1 2 3 4 5 6 
#
# 1 0.033097 -0.007730 -0.008130 0.000000 0.000000 0.000000
# 2 -0.007730 0.014243 -0.005334 0.000000 0.000000 0.000000
# 3 -0.008130 -0.005334 0.014657 0.000000 0.000000 0.000000
# 4 0.000000 0.000000 0.000000 0.037075 0.000000 0.000000
# 5 0.000000 0.000000 0.000000 0.000000 0.044912 0.000000
# 6 0.000000 0.000000 0.000000 0.000000 0.000000 0.035325
#
#
# Mechanical properties :
#
#
# Convention : Reuss Voigt Hill
#
# Bulk Modulus (GPa) = 50.99745 67.59644 59.29694
# Shear Modulus (GPa) = 21.90753 24.28115 23.09434
#
# Velocity S-wave (km/s) = 3.51317 3.69860 3.60707
# Velocity P-wave (km/s) = 6.72217 7.50481 7.12425
#
# Compressibility (1/GPa) = 0.01960882
#
# Stress axis : x y z
#
# Youngs Moduli (GPa) = 30.21462 70.21010 68.22736
#
# Poissons Ratio (x) = 0.54269 0.55470
# Poissons Ratio (y) = 0.23355 0.36393
# Poissons Ratio (z) = 0.24565 0.37450
#
# Static dielectric constant tensor:
#      x y z
#    x 3.129780 0.000000 0.000000 
#    y 0.000000 3.543260 0.000000 
#    z 0.000000 0.000000 3.285270 
# 
# 
# High freq. dielectric constant tensor:
#      x y z
#    x 1.672300 0.000000 0.000000 
#    y 0.000000 1.695230 0.000000 
#    z 0.000000 0.000000 1.676100 
# 
# From -- ./inp_files/31031.got.cif
#   From: 2010.03.12/outbox.cif.g09.slc.cpg/sg53_16_cif.got.tgz:31031.got - 2010.04.16 14:36:59.
