data_PCOD8219245
_publ_section_title
;
Structure prediction by ZEFSAII (Michael W. Deem and Ramdas Pophale) SiO2 
 PCOD8219245
Probable space group: P M N A
;
_chemical_formula_sum "Si O2"
_cell_formula_units_Z 56
_cell_length_a 8.879705
_cell_length_b 19.256862
_cell_length_c 18.441685
_cell_angle_alpha 90.000000
_cell_angle_beta 90.000000
_cell_angle_gamma 90.000000
_cell_volume 3153.440607
_symmetry_space_group_name_H-M "P M N A"
_symmetry_group_IT_number 53
_symmetry_cell_setting 'orthorhombic'
loop_
_space_group_symop_operation_xyz
x,y,z
1/2-x,-y,1/2+z
x,-y,-z
1/2-x,y,1/2-z
-x,-y,-z
1/2+x,y,1/2-z
-x,y,z
1/2+x,-y,1/2+z
loop_
_atom_site_type_symbol
_atom_site_label
_atom_site_fract_x
_atom_site_fract_y
_atom_site_fract_z
Si Si1 0.822858 0.653198 0.964949
Si Si2 0.320558 0.555283 0.670122
Si Si3 0.333747 0.871597 0.817465
Si Si4 0.321926 0.025883 0.824167
Si Si5 0.670316 0.199491 0.036512
Si Si6 0.331064 0.449544 0.932635
Si Si7 0.677811 0.929237 0.462485
O O1 0.780417 0.616275 0.888061
O O2 0.741438 0.726024 0.973621
O O3 0.000000 0.663744 0.969201
O O4 0.770628 0.612923 0.037264
O O5 0.250000 0.571004 0.750000
O O6 0.500000 0.546901 0.678033
O O7 0.250201 0.484539 0.636945
O O8 0.250000 0.837417 0.750000
O O9 0.500000 0.888499 0.790185
O O10 0.330688 0.813896 0.878265
O O11 0.266028 0.946613 0.840604
O O12 0.250000 0.052320 0.750000
O O13 0.500000 0.034427 0.823503
O O14 0.252903 0.075917 0.884230
O O15 0.500000 0.197351 0.005230
O O16 0.771811 0.139639 0.003108
O O17 0.500000 0.425461 0.909431
O O18 0.345757 0.500000 0.000000
O O19 0.500000 0.930123 0.456142
O O20 0.737787 0.000000 0.500000
#
# Coordination Sequence:
#
# PCOD8219245 Si02
#       7
#     8   8   8   8   8   8   8
#     4  10  21  36  53  77 110 147 184 223 269 322
#     4  10  20  34  55  83 115 148 182 222 264 311
#     4   9  19  32  48  70  99 134 172 214 264 321
#     4  10  19  34  54  76 102 132 170 219 274 327
#     4  11  22  36  53  76 106 144 184 226 276 327
#     4   9  17  32  55  80 106 139 179 220 260 309
#     4  11  22  35  54  79 105 137 181 233 281 329
#
# _framework density 17.758381
#
# number of rings (size 3 to 8) (size 9 to 14) (size 15 to 20)
#    0.000    2.000    1.429    2.571    0.000    6.286 
#    0.000    2.857    0.000    0.857    0.000    6.000 
#    0.000    0.000    0.000    0.000    0.000    0.000 
#
# Total GULP energy -694113.229544 kJ/mol
# GULP energy per Si atom -12394.879099 kJ/mol
# Density = 1.771796 g / cm^3
# Si number density = 17.758381 Si / 1000 Ang^3
#
#
#
# Elastic Constant Matrix: (Units=GPa)
#
#
# Indices 1 2 3 4 5 6 
#
# 1 83.9737 20.3302 37.2464 0.0000 0.0000 0.0000
# 2 20.3302 60.3957 38.2668 0.0000 0.0000 0.0000
# 3 37.2464 38.2668 76.5274 0.0000 0.0000 0.0000
# 4 0.0000 0.0000 0.0000 20.4294 0.0000 0.0000
# 5 0.0000 0.0000 0.0000 0.0000 33.9795 0.0000
# 6 0.0000 0.0000 0.0000 0.0000 0.0000 59.5290
#
#
#
# Elastic Compliance Matrix: (Units=1/GPa)
#
#
# Indices 1 2 3 4 5 6 
#
# 1 0.015203 -0.000628 -0.007085 0.000000 0.000000 0.000000
# 2 -0.000628 0.024262 -0.011826 0.000000 0.000000 0.000000
# 3 -0.007085 -0.011826 0.022429 0.000000 0.000000 0.000000
# 4 0.000000 0.000000 0.000000 0.048949 0.000000 0.000000
# 5 0.000000 0.000000 0.000000 0.000000 0.029430 0.000000
# 6 0.000000 0.000000 0.000000 0.000000 0.000000 0.016799
#
#
# Mechanical properties :
#
#
# Convention : Reuss Voigt Hill
#
# Bulk Modulus (GPa) = 43.83114 45.84262 44.83688
# Shear Modulus (GPa) = 24.53910 31.12447 27.83179
#
# Velocity S-wave (km/s) = 3.72133 4.19102 3.96314
# Velocity P-wave (km/s) = 6.57267 7.02070 6.80038
#
# Compressibility (1/GPa) = 0.02281483
#
# Stress axis : x y z
#
# Youngs Moduli (GPa) = 65.77517 41.21657 44.58466
#
# Poissons Ratio (x) = 0.02590 0.31590
# Poissons Ratio (y) = 0.04133 0.52727
# Poissons Ratio (z) = 0.46604 0.48743
#
# Static dielectric constant tensor:
#      x y z
#    x 3.476900 0.000000 0.000000 
#    y 0.000000 3.129740 0.000000 
#    z 0.000000 0.000000 3.306310 
# 
# 
# High freq. dielectric constant tensor:
#      x y z
#    x 1.704690 0.000000 0.000000 
#    y 0.000000 1.663200 0.000000 
#    z 0.000000 0.000000 1.679330 
# 
# From -- ./inp_files/26645.got.cif
#   From: 2010.03.12/outbox.cif.g09.slc.cpg/sg53_14_cif.got.tgz:26645.got - 2010.04.16 14:36:59.
