data_PCOD8219761
_publ_section_title
;
Structure prediction by ZEFSAII (Michael W. Deem and Ramdas Pophale) SiO2 
 PCOD8219761
Probable space group: P M N A
;
_chemical_formula_sum "Si O2"
_cell_formula_units_Z 56
_cell_length_a 21.037094
_cell_length_b 10.346386
_cell_length_c 12.776894
_cell_angle_alpha 90.000000
_cell_angle_beta 90.000000
_cell_angle_gamma 90.000000
_cell_volume 2780.991851
_symmetry_space_group_name_H-M "P M N A"
_symmetry_group_IT_number 53
_symmetry_cell_setting 'orthorhombic'
loop_
_space_group_symop_operation_xyz
x,y,z
1/2-x,-y,1/2+z
x,-y,-z
1/2-x,y,1/2-z
-x,-y,-z
1/2+x,y,1/2-z
-x,y,z
1/2+x,-y,1/2+z
loop_
_atom_site_type_symbol
_atom_site_label
_atom_site_fract_x
_atom_site_fract_y
_atom_site_fract_z
Si Si1 0.429189 0.148173 0.367889
Si Si2 0.925909 0.600171 0.258007
Si Si3 0.865600 0.351002 0.532406
Si Si4 0.236697 0.786432 0.033584
Si Si5 0.709203 0.968775 0.648280
Si Si6 0.428683 0.672833 0.825728
Si Si7 0.112870 0.354062 0.968793
O O1 0.500000 0.080158 0.378224
O O2 0.367750 0.054136 0.363620
O O3 0.426115 0.212633 0.255275
O O4 0.427249 0.252262 0.462225
O O5 0.909282 0.674298 0.365725
O O6 0.898015 0.454431 0.271388
O O7 0.896914 0.667304 0.155299
O O8 0.000000 0.599180 0.238938
O O9 0.859291 0.500000 0.500000
O O10 0.799674 0.288182 0.563729
O O11 0.893516 0.279296 0.430597
O O12 0.186349 0.674081 0.008477
O O13 0.216331 0.878272 0.129766
O O14 0.245190 0.879230 0.934565
O O15 0.750000 0.931116 0.750000
O O16 0.500000 0.635672 0.859612
O O17 0.093888 0.500000 0.000000
#
# Coordination Sequence:
#
# PCOD8219761 Si02
#       7
#     8   8   8   8   8   8   8
#     4  10  20  36  61  87 113 150 194 237 280 334
#     4  10  20  32  52  85 120 152 178 218 287 345
#     4  10  20  35  56  85 118 148 183 232 279 344
#     4  10  23  39  57  83 109 151 197 230 285 336
#     4  10  22  41  62  80 111 152 197 243 283 328
#     4   9  17  32  56  85 115 147 182 223 280 342
#     4  11  21  35  56  87 121 149 181 228 284 347
#
# _framework density 20.136702
#
# number of rings (size 3 to 8) (size 9 to 14) (size 15 to 20)
#    0.000    2.000    1.429    2.143    2.000    2.286 
#    0.000    6.429    0.000    0.000    0.000    5.000 
#    0.000    0.000    0.000    0.000    0.000    0.000 
#
# Total GULP energy -693849.266802 kJ/mol
# GULP energy per Si atom -12390.165479 kJ/mol
# Density = 2.009087 g / cm^3
# Si number density = 20.136702 Si / 1000 Ang^3
#
#
#
# Elastic Constant Matrix: (Units=GPa)
#
#
# Indices 1 2 3 4 5 6 
#
# 1 69.8214 22.4843 29.6978 0.0000 0.0000 0.0000
# 2 22.4843 32.8837 32.1254 0.0000 0.0000 0.0000
# 3 29.6978 32.1254 125.5530 0.0000 0.0000 0.0000
# 4 0.0000 0.0000 0.0000 17.7703 0.0000 0.0000
# 5 0.0000 0.0000 0.0000 0.0000 26.7950 0.0000
# 6 0.0000 0.0000 0.0000 0.0000 0.0000 21.1051
#
#
#
# Elastic Compliance Matrix: (Units=1/GPa)
#
#
# Indices 1 2 3 4 5 6 
#
# 1 0.018583 -0.011215 -0.001526 0.000000 0.000000 0.000000
# 2 -0.011215 0.047314 -0.009454 0.000000 0.000000 0.000000
# 3 -0.001526 -0.009454 0.010745 0.000000 0.000000 0.000000
# 4 0.000000 0.000000 0.000000 0.056274 0.000000 0.000000
# 5 0.000000 0.000000 0.000000 0.000000 0.037320 0.000000
# 6 0.000000 0.000000 0.000000 0.000000 0.000000 0.047382
#
#
# Mechanical properties :
#
#
# Convention : Reuss Voigt Hill
#
# Bulk Modulus (GPa) = 31.00565 44.09701 37.55133
# Shear Modulus (GPa) = 18.33126 22.73079 20.53102
#
# Velocity S-wave (km/s) = 3.02046 3.36344 3.19655
# Velocity P-wave (km/s) = 5.25312 6.08523 5.68442
#
# Compressibility (1/GPa) = 0.03225219
#
# Stress axis : x y z
#
# Youngs Moduli (GPa) = 53.81290 21.13526 93.07037
#
# Poissons Ratio (x) = 0.23704 0.14201
# Poissons Ratio (y) = 0.60354 0.87984
# Poissons Ratio (z) = 0.08211 0.19980
#
# Static dielectric constant tensor:
#      x y z
#    x 3.713420 0.000000 0.000000 
#    y 0.000000 3.436910 0.000000 
#    z 0.000000 0.000000 3.837410 
# 
# 
# High freq. dielectric constant tensor:
#      x y z
#    x 1.786280 0.000000 0.000000 
#    y 0.000000 1.758480 0.000000 
#    z 0.000000 0.000000 1.800510 
# 
# From -- ./inp_files/17864.got.cif
#   From: 2010.03.12/outbox.cif.g09.slc.cpg/sg53_9_cif.got.tgz:17864.got - 2010.04.16 14:36:59.
