data_PCOD8219291
_publ_section_title
;
Structure prediction by ZEFSAII (Michael W. Deem and Ramdas Pophale) SiO2 
 PCOD8219291
Probable space group: P M N A
;
_chemical_formula_sum "Si O2"
_cell_formula_units_Z 56
_cell_length_a 8.771993
_cell_length_b 13.851575
_cell_length_c 24.041773
_cell_angle_alpha 90.000000
_cell_angle_beta 90.000000
_cell_angle_gamma 90.000000
_cell_volume 2921.217721
_symmetry_space_group_name_H-M "P M N A"
_symmetry_group_IT_number 53
_symmetry_cell_setting 'orthorhombic'
loop_
_space_group_symop_operation_xyz
x,y,z
1/2-x,-y,1/2+z
x,-y,-z
1/2-x,y,1/2-z
-x,-y,-z
1/2+x,y,1/2-z
-x,y,z
1/2+x,-y,1/2+z
loop_
_atom_site_type_symbol
_atom_site_label
_atom_site_fract_x
_atom_site_fract_y
_atom_site_fract_z
Si Si1 0.820023 0.830425 0.370381
Si Si2 0.820410 0.345945 0.808267
Si Si3 0.679145 0.217568 0.307263
Si Si4 0.674788 0.281900 0.978347
Si Si5 0.180297 0.002520 0.808028
Si Si6 0.176284 0.461850 0.597483
Si Si7 0.821065 0.664425 0.914378
O O1 0.750293 0.755304 0.326941
O O2 0.778176 0.799326 0.433274
O O3 0.749333 0.935290 0.358592
O O4 0.000000 0.831278 0.361643
O O5 0.750000 0.377119 0.750000
O O6 0.779495 0.431531 0.850522
O O7 0.000000 0.334467 0.803475
O O8 0.750000 0.257591 0.250000
O O9 0.500000 0.223153 0.300774
O O10 0.735597 0.282428 0.358538
O O11 0.731303 0.107674 0.318429
O O12 0.500000 0.268585 0.996333
O O13 0.702099 0.387882 0.952864
O O14 0.781032 0.268845 0.032436
O O15 0.250000 0.040185 0.750000
O O16 0.000000 0.014831 0.806292
O O17 0.227056 0.566685 0.577590
O O18 0.000000 0.461584 0.615730
O O19 0.000000 0.643421 0.912505
#
# Coordination Sequence:
#
# PCOD8219291 Si02
#       7
#     8   8   8   8   8   8   8
#     4  10  20  35  54  79 110 141 176 218 264 316
#     4  11  21  34  52  77 109 143 179 218 266 320
#     4   9  21  39  57  80 108 138 176 222 265 312
#     4   9  20  37  55  77 107 141 177 217 263 317
#     4  10  19  34  56  80 107 140 178 218 264 315
#     4  10  21  37  55  77 107 142 181 224 267 315
#     4  11  22  36  56  81 107 138 179 223 269 319
#
# _framework density 19.170086999999999
#
# number of rings (size 3 to 8) (size 9 to 14) (size 15 to 20)
#    0.000    2.000    0.000    4.714    0.000    7.429 
#    0.000    2.143    0.000    4.286    0.000    0.000 
#    0.000    0.000    0.000    0.000    0.000    0.000 
#
# Total GULP energy -694607.284086 kJ/mol
# GULP energy per Si atom -12403.701502 kJ/mol
# Density = 1.912646 g / cm^3
# Si number density = 19.170087 Si / 1000 Ang^3
#
#
#
# Elastic Constant Matrix: (Units=GPa)
#
#
# Indices 1 2 3 4 5 6 
#
# 1 83.1795 27.8697 42.6491 0.0000 0.0000 0.0000
# 2 27.8697 65.2159 42.4460 0.0000 0.0000 0.0000
# 3 42.6491 42.4460 125.4179 0.0000 0.0000 0.0000
# 4 0.0000 0.0000 0.0000 22.3286 0.0000 0.0000
# 5 0.0000 0.0000 0.0000 0.0000 35.2661 0.0000
# 6 0.0000 0.0000 0.0000 0.0000 0.0000 20.6651
#
#
#
# Elastic Compliance Matrix: (Units=1/GPa)
#
#
# Indices 1 2 3 4 5 6 
#
# 1 0.015355 -0.004057 -0.003848 0.000000 0.000000 0.000000
# 2 -0.004057 0.020737 -0.005639 0.000000 0.000000 0.000000
# 3 -0.003848 -0.005639 0.011190 0.000000 0.000000 0.000000
# 4 0.000000 0.000000 0.000000 0.044786 0.000000 0.000000
# 5 0.000000 0.000000 0.000000 0.000000 0.028356 0.000000
# 6 0.000000 0.000000 0.000000 0.000000 0.000000 0.048391
#
#
# Mechanical properties :
#
#
# Convention : Reuss Voigt Hill
#
# Bulk Modulus (GPa) = 49.51904 55.52698 52.52301
# Shear Modulus (GPa) = 24.67499 26.37520 25.52509
#
# Velocity S-wave (km/s) = 3.59159 3.71327 3.65294
# Velocity P-wave (km/s) = 6.56406 6.88570 6.72680
#
# Compressibility (1/GPa) = 0.02019425
#
# Stress axis : x y z
#
# Youngs Moduli (GPa) = 65.12651 48.22208 89.36268
#
# Poissons Ratio (x) = 0.19564 0.34391
# Poissons Ratio (y) = 0.26422 0.50389
# Poissons Ratio (z) = 0.25063 0.27191
#
# Static dielectric constant tensor:
#      x y z
#    x 3.471750 0.000000 0.000000 
#    y 0.000000 3.466470 0.000000 
#    z 0.000000 0.000000 3.536370 
# 
# 
# High freq. dielectric constant tensor:
#      x y z
#    x 1.752960 0.000000 0.000000 
#    y 0.000000 1.733060 0.000000 
#    z 0.000000 0.000000 1.747000 
# 
# From -- ./inp_files/30863.got.cif
#   From: 2010.03.12/outbox.cif.g09.slc.cpg/sg53_16_cif.got.tgz:30863.got - 2010.04.16 14:36:59.
