data_PCOD8219267
_publ_section_title
;
Structure prediction by ZEFSAII (Michael W. Deem and Ramdas Pophale) SiO2 
 PCOD8219267
Probable space group: P M N A
;
_chemical_formula_sum "Si O2"
_cell_formula_units_Z 48
_cell_length_a 8.661843
_cell_length_b 15.208172
_cell_length_c 19.144357
_cell_angle_alpha 90.000000
_cell_angle_beta 90.000000
_cell_angle_gamma 90.000000
_cell_volume 2521.901428
_symmetry_space_group_name_H-M "P M N A"
_symmetry_group_IT_number 53
_symmetry_cell_setting 'orthorhombic'
loop_
_space_group_symop_operation_xyz
x,y,z
1/2-x,-y,1/2+z
x,-y,-z
1/2-x,y,1/2-z
-x,-y,-z
1/2+x,y,1/2-z
-x,y,z
1/2+x,-y,1/2+z
loop_
_atom_site_type_symbol
_atom_site_label
_atom_site_fract_x
_atom_site_fract_y
_atom_site_fract_z
Si Si1 0.817522 0.095534 0.175510
Si Si2 0.816830 0.402169 0.676277
Si Si3 0.183482 0.907837 0.324476
Si Si4 0.818750 0.400670 0.322840
Si Si5 0.683050 0.243411 0.079924
Si Si6 0.682976 0.249592 0.922050
O O1 0.750000 0.125778 0.250000
O O2 0.770319 0.164153 0.116776
O O3 0.000000 0.089085 0.182264
O O4 0.750332 0.001607 0.152615
O O5 0.750000 0.370290 0.750000
O O6 0.759101 0.501113 0.658767
O O7 0.753149 0.336806 0.616583
O O8 0.000000 0.397599 0.680766
O O9 0.250000 0.878137 0.250000
O O10 0.239142 0.837309 0.381627
O O11 0.000000 0.913960 0.319316
O O12 0.750000 0.366542 0.250000
O O13 0.768280 0.335130 0.384225
O O14 0.000000 0.401393 0.313448
O O15 0.500000 0.227365 0.084272
O O16 0.745398 0.247486 0.000886
O O17 0.500000 0.253340 0.923149
#
# Coordination Sequence:
#
# PCOD8219267 Si02
#       6
#     8   8   8   8   8   8
#     4  11  22  37  56  78 101 131 169 213 256 302
#     4   9  17  32  52  77 103 133 171 212 253 299
#     4  10  19  34  55  78 101 132 170 212 255 302
#     4   9  18  31  52  76 101 132 170 212 253 295
#     4  10  20  35  52  75 105 139 172 208 252 302
#     4   9  19  33  52  76 105 137 171 207 252 304
#
# _framework density 19.033259000000001
#
# number of rings (size 3 to 8) (size 9 to 14) (size 15 to 20)
#    0.000    2.333    0.000    4.000    0.000    3.333 
#    0.000   10.000    0.000    0.000    0.000    5.833 
#    0.000    0.000    0.000    0.000    0.000    0.000 
#
# Total GULP energy -595235.414660 kJ/mol
# GULP energy per Si atom -12400.737805 kJ/mol
# Density = 1.898994 g / cm^3
# Si number density = 19.033259 Si / 1000 Ang^3
#
#
#
# Elastic Constant Matrix: (Units=GPa)
#
#
# Indices 1 2 3 4 5 6 
#
# 1 55.6486 37.3096 35.5976 0.0000 0.0000 0.0000
# 2 37.3096 143.2328 109.7502 0.0000 0.0000 0.0000
# 3 35.5976 109.7502 173.3764 0.0000 0.0000 0.0000
# 4 0.0000 0.0000 0.0000 29.7898 0.0000 0.0000
# 5 0.0000 0.0000 0.0000 0.0000 26.0813 0.0000
# 6 0.0000 0.0000 0.0000 0.0000 0.0000 20.0895
#
#
#
# Elastic Compliance Matrix: (Units=1/GPa)
#
#
# Indices 1 2 3 4 5 6 
#
# 1 0.022036 -0.004414 -0.001730 0.000000 0.000000 0.000000
# 2 -0.004414 0.014442 -0.008236 0.000000 0.000000 0.000000
# 3 -0.001730 -0.008236 0.011336 0.000000 0.000000 0.000000
# 4 0.000000 0.000000 0.000000 0.033569 0.000000 0.000000
# 5 0.000000 0.000000 0.000000 0.000000 0.038342 0.000000
# 6 0.000000 0.000000 0.000000 0.000000 0.000000 0.049777
#
#
# Mechanical properties :
#
#
# Convention : Reuss Voigt Hill
#
# Bulk Modulus (GPa) = 52.48170 81.95252 67.21711
# Shear Modulus (GPa) = 24.43630 27.83214 26.13422
#
# Velocity S-wave (km/s) = 3.58701 3.82814 3.70953
# Velocity P-wave (km/s) = 6.69246 7.91774 7.33074
#
# Compressibility (1/GPa) = 0.01905426
#
# Stress axis : x y z
#
# Youngs Moduli (GPa) = 45.37981 69.24265 88.21201
#
# Poissons Ratio (x) = 0.30566 0.15262
# Poissons Ratio (y) = 0.20032 0.72648
# Poissons Ratio (z) = 0.07851 0.57026
#
# Static dielectric constant tensor:
#      x y z
#    x 3.278480 0.000000 0.000000 
#    y 0.000000 3.801770 0.000000 
#    z 0.000000 0.000000 3.629560 
# 
# 
# High freq. dielectric constant tensor:
#      x y z
#    x 1.720620 0.000000 0.000000 
#    y 0.000000 1.754680 0.000000 
#    z 0.000000 0.000000 1.736810 
# 
# From -- ./inp_files/26250.got.cif
#   From: 2010.03.12/outbox.cif.g09.slc.cpg/sg53_14_cif.got.tgz:26250.got - 2010.04.16 14:36:59.
