data_PCOD8219750
_publ_section_title
;
Structure prediction by ZEFSAII (Michael W. Deem and Ramdas Pophale) SiO2 
 PCOD8219750
Probable space group: P M N A
;
_chemical_formula_sum "Si O2"
_cell_formula_units_Z 40
_cell_length_a 8.860919
_cell_length_b 9.887919
_cell_length_c 25.618297
_cell_angle_alpha 90.000000
_cell_angle_beta 90.000000
_cell_angle_gamma 90.000000
_cell_volume 2244.573974
_symmetry_space_group_name_H-M "P M N A"
_symmetry_group_IT_number 53
_symmetry_cell_setting 'orthorhombic'
loop_
_space_group_symop_operation_xyz
x,y,z
1/2-x,-y,1/2+z
x,-y,-z
1/2-x,y,1/2-z
-x,-y,-z
1/2+x,y,1/2-z
-x,y,z
1/2+x,-y,1/2+z
loop_
_atom_site_type_symbol
_atom_site_label
_atom_site_fract_x
_atom_site_fract_y
_atom_site_fract_z
Si Si1 0.821353 0.149439 0.195602
Si Si2 0.324170 0.636059 0.607817
Si Si3 0.321418 0.651165 0.108814
Si Si4 0.833709 0.339979 0.495518
Si Si5 0.820205 0.864793 0.304825
O O1 0.750000 0.198902 0.250000
O O2 0.778684 0.259512 0.152611
O O3 0.000000 0.130312 0.202075
O O4 0.747274 0.008482 0.178106
O O5 0.500000 0.609975 0.605206
O O6 0.247309 0.494480 0.621429
O O7 0.273570 0.700417 0.552393
O O8 0.500000 0.632046 0.108243
O O9 0.267968 0.756182 0.152409
O O10 0.269488 0.709188 0.051876
O O11 0.845267 0.500000 0.500000
O O12 0.000000 0.278344 0.484826
O O13 0.750000 0.817698 0.250000
O O14 0.000000 0.875079 0.300110
#
# Coordination Sequence:
#
# PCOD8219750 Si02
#       5
#     8   8   8   8   8
#     4  10  21  36  52  72  99 131 167 203 244 294
#     4  10  20  32  50  77 103 128 162 204 247 289
#     4   9  19  34  52  75 101 130 165 202 241 291
#     4   8  15  30  50  71  98 131 164 198 239 289
#     4  10  20  35  54  74  98 130 166 203 247 294
#
# _framework density 17.820753
#
# number of rings (size 3 to 8) (size 9 to 14) (size 15 to 20)
#    0.000    2.600    0.000    4.200    0.000    9.200 
#    0.000    5.000    0.000    6.000    0.000    0.000 
#    0.000    0.000    0.000    0.000    0.000    0.000 
#
# Total GULP energy -495872.608179 kJ/mol
# GULP energy per Si atom -12396.815204 kJ/mol
# Density = 1.778019 g / cm^3
# Si number density = 17.820753 Si / 1000 Ang^3
#
#
#
# Elastic Constant Matrix: (Units=GPa)
#
#
# Indices 1 2 3 4 5 6 
#
# 1 68.5159 46.3693 60.5737 0.0000 0.0000 0.0000
# 2 46.3693 93.0114 96.3749 0.0000 0.0000 0.0000
# 3 60.5737 96.3749 169.2975 0.0000 0.0000 0.0000
# 4 0.0000 0.0000 0.0000 7.0681 0.0000 0.0000
# 5 0.0000 0.0000 0.0000 0.0000 19.7717 0.0000
# 6 0.0000 0.0000 0.0000 0.0000 0.0000 8.7569
#
#
#
# Elastic Compliance Matrix: (Units=1/GPa)
#
#
# Indices 1 2 3 4 5 6 
#
# 1 0.023181 -0.007223 -0.004182 0.000000 0.000000 0.000000
# 2 -0.007223 0.028464 -0.013619 0.000000 0.000000 0.000000
# 3 -0.004182 -0.013619 0.015156 0.000000 0.000000 0.000000
# 4 0.000000 0.000000 0.000000 0.141481 0.000000 0.000000
# 5 0.000000 0.000000 0.000000 0.000000 0.050577 0.000000
# 6 0.000000 0.000000 0.000000 0.000000 0.000000 0.114195
#
#
# Mechanical properties :
#
#
# Convention : Reuss Voigt Hill
#
# Bulk Modulus (GPa) = 59.69391 81.94006 70.81698
# Shear Modulus (GPa) = 11.66353 15.61981 13.64167
#
# Velocity S-wave (km/s) = 2.56108 2.96378 2.76976
# Velocity P-wave (km/s) = 6.50500 7.60210 7.07485
#
# Compressibility (1/GPa) = 0.01675213
#
# Stress axis : x y z
#
# Youngs Moduli (GPa) = 43.13911 35.13227 65.98052
#
# Poissons Ratio (x) = 0.25376 0.27594
# Poissons Ratio (y) = 0.31159 0.89860
# Poissons Ratio (z) = 0.18042 0.47847
#
# Static dielectric constant tensor:
#      x y z
#    x 3.340120 0.000000 0.000000 
#    y 0.000000 3.093150 0.000000 
#    z 0.000000 0.000000 3.851600 
# 
# 
# High freq. dielectric constant tensor:
#      x y z
#    x 1.694830 0.000000 0.000000 
#    y 0.000000 1.663570 0.000000 
#    z 0.000000 0.000000 1.705110 
# 
# From -- ./inp_files/37522.got.cif
#   From: 2010.03.12/outbox.cif.g09.slc.cpg/sg53_19_cif.got.tgz:37522.got - 2010.04.16 14:36:59.
