data_PCOD8219173
_publ_section_title
;
Structure prediction by ZEFSAII (Michael W. Deem and Ramdas Pophale) SiO2 
 PCOD8219173
Probable space group: P M N A
;
_chemical_formula_sum "Si O2"
_cell_formula_units_Z 64
_cell_length_a 8.979009
_cell_length_b 13.749889
_cell_length_c 27.813560
_cell_angle_alpha 90.000000
_cell_angle_beta 90.000000
_cell_angle_gamma 90.000000
_cell_volume 3433.872606
_symmetry_space_group_name_H-M "P M N A"
_symmetry_group_IT_number 53
_symmetry_cell_setting 'orthorhombic'
loop_
_space_group_symop_operation_xyz
x,y,z
1/2-x,-y,1/2+z
x,-y,-z
1/2-x,y,1/2-z
-x,-y,-z
1/2+x,y,1/2-z
-x,y,z
1/2+x,-y,1/2+z
loop_
_atom_site_type_symbol
_atom_site_label
_atom_site_fract_x
_atom_site_fract_y
_atom_site_fract_z
Si Si1 0.666796 0.876502 0.127877
Si Si2 0.678945 0.018397 0.300051
Si Si3 0.173718 0.731518 0.064786
Si Si4 0.668027 0.613301 0.876600
Si Si5 0.170556 0.577778 0.147220
Si Si6 0.171013 0.609064 0.512090
Si Si7 0.675567 0.225868 0.202009
Si Si8 0.661123 0.283770 0.792672
O O1 0.500000 0.916188 0.115564
O O2 0.766718 0.957947 0.153587
O O3 0.746888 0.833156 0.080282
O O4 0.651894 0.786350 0.162814
O O5 0.750000 0.978073 0.250000
O O6 0.500000 0.014014 0.296559
O O7 0.737180 0.126766 0.308729
O O8 0.207110 0.644742 0.101683
O O9 0.000000 0.754320 0.059977
O O10 0.236742 0.693098 0.014451
O O11 0.500000 0.575544 0.867399
O O12 0.784677 0.531653 0.862911
O O13 0.689577 0.637705 0.932411
O O14 0.701967 0.706915 0.844179
O O15 0.259260 0.615820 0.193364
O O16 0.000000 0.581692 0.161032
O O17 0.231840 0.500000 0.500000
O O18 0.000000 0.614556 0.494979
O O19 0.750000 0.273108 0.250000
O O20 0.500000 0.205999 0.210779
O O21 0.750000 0.230769 0.750000
O O22 0.500000 0.310914 0.772776
#
# Coordination Sequence:
#
# PCOD8219173 Si02
#       8
#     8   8   8   8   8   8   8   8
#     4  10  20  34  54  78 106 141 178 219 270 325
#     4  11  21  35  57  83 110 140 179 225 275 327
#     4  10  20  33  50  78 112 143 178 222 271 322
#     4  10  21  36  55  79 106 141 183 228 272 321
#     4  10  20  32  48  70 101 138 176 217 263 316
#     4  10  19  33  56  80 107 144 187 229 272 323
#     4  10  21  38  58  80 108 140 180 225 272 322
#     4  10  20  32  47  68  99 136 174 214 258 313
#
# _framework density 18.637848999999999
#
# number of rings (size 3 to 8) (size 9 to 14) (size 15 to 20)
#    0.000    1.875    1.250    4.125    0.000    5.750 
#    0.000    1.250    0.000    0.750    0.000    5.250 
#    0.000    0.000    0.000    0.000    0.000    0.000 
#
# Total GULP energy -793440.579951 kJ/mol
# GULP energy per Si atom -12397.509062 kJ/mol
# Density = 1.859543 g / cm^3
# Si number density = 18.637849 Si / 1000 Ang^3
#
#
#
# Elastic Constant Matrix: (Units=GPa)
#
#
# Indices 1 2 3 4 5 6 
#
# 1 117.3670 43.8366 44.7283 0.0000 0.0000 0.0000
# 2 43.8366 63.6341 37.1145 0.0000 0.0000 0.0000
# 3 44.7283 37.1145 86.7406 0.0000 0.0000 0.0000
# 4 0.0000 0.0000 0.0000 29.0262 0.0000 0.0000
# 5 0.0000 0.0000 0.0000 0.0000 29.5051 0.0000
# 6 0.0000 0.0000 0.0000 0.0000 0.0000 33.4132
#
#
#
# Elastic Compliance Matrix: (Units=1/GPa)
#
#
# Indices 1 2 3 4 5 6 
#
# 1 0.012266 -0.006344 -0.003610 0.000000 0.000000 0.000000
# 2 -0.006344 0.024222 -0.007093 0.000000 0.000000 0.000000
# 3 -0.003610 -0.007093 0.016425 0.000000 0.000000 0.000000
# 4 0.000000 0.000000 0.000000 0.034452 0.000000 0.000000
# 5 0.000000 0.000000 0.000000 0.000000 0.033892 0.000000
# 6 0.000000 0.000000 0.000000 0.000000 0.000000 0.029928
#
#
# Mechanical properties :
#
#
# Convention : Reuss Voigt Hill
#
# Bulk Modulus (GPa) = 53.13894 57.67782 55.40838
# Shear Modulus (GPa) = 26.10254 27.85972 26.98113
#
# Velocity S-wave (km/s) = 3.74640 3.87045 3.80893
# Velocity P-wave (km/s) = 6.87657 7.14056 7.00981
#
# Compressibility (1/GPa) = 0.01881859
#
# Stress axis : x y z
#
# Youngs Moduli (GPa) = 81.52851 41.28495 60.88190
#
# Poissons Ratio (x) = 0.26191 0.21981
# Poissons Ratio (y) = 0.51720 0.43182
# Poissons Ratio (z) = 0.29436 0.29283
#
# Static dielectric constant tensor:
#      x y z
#    x 3.751370 0.000000 0.000000 
#    y 0.000000 3.215600 0.000000 
#    z 0.000000 0.000000 3.475620 
# 
# 
# High freq. dielectric constant tensor:
#      x y z
#    x 1.738760 0.000000 0.000000 
#    y 0.000000 1.702200 0.000000 
#    z 0.000000 0.000000 1.711850 
# 
# From -- ./inp_files/38509.got.cif
#   From: 2010.03.12/outbox.cif.g09.slc.cpg/sg53_20_cif.got.tgz:38509.got - 2010.04.16 14:36:59.
