data_PCOD8219510
_publ_section_title
;
Structure prediction by ZEFSAII (Michael W. Deem and Ramdas Pophale) SiO2 
 PCOD8219510
Probable space group: P M N A
;
_chemical_formula_sum "Si O2"
_cell_formula_units_Z 64
_cell_length_a 9.212208
_cell_length_b 15.348762
_cell_length_c 23.531179
_cell_angle_alpha 90.000000
_cell_angle_beta 90.000000
_cell_angle_gamma 90.000000
_cell_volume 3327.214306
_symmetry_space_group_name_H-M "P M N A"
_symmetry_group_IT_number 53
_symmetry_cell_setting 'orthorhombic'
loop_
_space_group_symop_operation_xyz
x,y,z
1/2-x,-y,1/2+z
x,-y,-z
1/2-x,y,1/2-z
-x,-y,-z
1/2+x,y,1/2-z
-x,y,z
1/2+x,-y,1/2+z
loop_
_atom_site_type_symbol
_atom_site_label
_atom_site_fract_x
_atom_site_fract_y
_atom_site_fract_z
Si Si1 0.833577 0.648752 0.508086
Si Si2 0.669189 0.918054 0.121606
Si Si3 0.670182 0.249762 0.309135
Si Si4 0.328913 0.749745 0.190911
Si Si5 0.167278 0.851035 0.503164
Si Si6 0.671352 0.585899 0.616860
Si Si7 0.667916 0.585609 0.116877
Si Si8 0.828578 0.910658 0.887978
O O1 0.796121 0.749475 0.499086
O O2 0.729370 0.607922 0.554599
O O3 0.804073 0.598362 0.449805
O O4 0.000000 0.636443 0.527567
O O5 0.500000 0.937909 0.130076
O O6 0.720390 0.839671 0.161976
O O7 0.760726 0.002601 0.139537
O O8 0.703609 0.893848 0.056868
O O9 0.750000 0.240278 0.250000
O O10 0.500000 0.247718 0.297518
O O11 0.718241 0.339036 0.339316
O O12 0.718567 0.170531 0.349333
O O13 0.250000 0.737902 0.250000
O O14 0.500000 0.748617 0.200676
O O15 0.280332 0.671144 0.150148
O O16 0.267391 0.897626 0.549035
O O17 0.000000 0.866520 0.519989
O O18 0.500000 0.576703 0.613085
O O19 0.739149 0.495892 0.639248
O O20 0.500000 0.566191 0.129078
O O21 0.000000 0.920636 0.891548
#
# Coordination Sequence:
#
# PCOD8219510 Si02
#       8
#     8   8   8   8   8   8   8   8
#     4  10  19  35  61  88 115 152 194 233 280 342
#     4  10  21  39  61  87 117 153 195 237 280 341
#     4  10  24  43  60  80 112 151 195 240 285 338
#     4  10  22  41  62  84 116 153 195 244 291 336
#     4  10  19  35  61  88 115 152 194 233 280 342
#     4  11  23  39  58  87 122 152 185 237 295 345
#     4  10  21  39  61  87 117 153 195 237 280 341
#     4  11  23  39  58  87 122 152 185 237 295 345
#
# _framework density 19.235310999999999
#
# number of rings (size 3 to 8) (size 9 to 14) (size 15 to 20)
#    0.000    1.750    2.500    1.500    0.000    8.000 
#    0.000    5.000    0.000    0.000    0.000    0.000 
#    0.000    0.000    0.000    0.000    0.000    0.000 
#
# Total GULP energy -793924.299864 kJ/mol
# GULP energy per Si atom -12405.067185 kJ/mol
# Density = 1.919153 g / cm^3
# Si number density = 19.235311 Si / 1000 Ang^3
#
#
#
# Elastic Constant Matrix: (Units=GPa)
#
#
# Indices 1 2 3 4 5 6 
#
# 1 56.5125 41.0677 31.9302 0.0000 0.0000 0.0000
# 2 41.0677 106.4016 7.1550 0.0000 0.0000 0.0000
# 3 31.9302 7.1550 70.1533 0.0000 0.0000 0.0000
# 4 0.0000 0.0000 0.0000 12.9044 0.0000 0.0000
# 5 0.0000 0.0000 0.0000 0.0000 31.8063 0.0000
# 6 0.0000 0.0000 0.0000 0.0000 0.0000 34.4795
#
#
#
# Elastic Compliance Matrix: (Units=1/GPa)
#
#
# Indices 1 2 3 4 5 6 
#
# 1 0.035149 -0.012577 -0.014715 0.000000 0.000000 0.000000
# 2 -0.012577 0.013964 0.004300 0.000000 0.000000 0.000000
# 3 -0.014715 0.004300 0.020514 0.000000 0.000000 0.000000
# 4 0.000000 0.000000 0.000000 0.077493 0.000000 0.000000
# 5 0.000000 0.000000 0.000000 0.000000 0.031440 0.000000
# 6 0.000000 0.000000 0.000000 0.000000 0.000000 0.029003
#
#
# Mechanical properties :
#
#
# Convention : Reuss Voigt Hill
#
# Bulk Modulus (GPa) = 42.29742 43.70812 43.00277
# Shear Modulus (GPa) = 19.12575 26.03234 22.57904
#
# Velocity S-wave (km/s) = 3.15668 3.68280 3.42984
# Velocity P-wave (km/s) = 5.94335 6.39188 6.17169
#
# Compressibility (1/GPa) = 0.02364210
#
# Stress axis : x y z
#
# Youngs Moduli (GPa) = 28.45001 71.61525 48.74800
#
# Poissons Ratio (x) = 0.90071 0.71735
# Poissons Ratio (y) = 0.35782 -0.20963
# Poissons Ratio (z) = 0.41866 -0.30797
#
# Static dielectric constant tensor:
#      x y z
#    x 3.345170 0.000000 0.000000 
#    y 0.000000 3.814750 0.000000 
#    z 0.000000 0.000000 3.402640 
# 
# 
# High freq. dielectric constant tensor:
#      x y z
#    x 1.739580 0.000000 0.000000 
#    y 0.000000 1.769750 0.000000 
#    z 0.000000 0.000000 1.743380 
# 
# From -- ./inp_files/34148.got.cif
#   From: 2010.03.12/outbox.cif.g09.slc.cpg/sg53_18_cif.got.tgz:34148.got - 2010.04.16 14:36:59.
