data_PCOD8219325
_publ_section_title
;
Structure prediction by ZEFSAII (Michael W. Deem and Ramdas Pophale) SiO2 
 PCOD8219325
Probable space group: P M N A
;
_chemical_formula_sum "Si O2"
_cell_formula_units_Z 64
_cell_length_a 9.291902
_cell_length_b 12.646533
_cell_length_c 28.431896
_cell_angle_alpha 90.000000
_cell_angle_beta 90.000000
_cell_angle_gamma 90.000000
_cell_volume 3341.041916
_symmetry_space_group_name_H-M "P M N A"
_symmetry_group_IT_number 53
_symmetry_cell_setting 'orthorhombic'
loop_
_space_group_symop_operation_xyz
x,y,z
1/2-x,-y,1/2+z
x,-y,-z
1/2-x,y,1/2-z
-x,-y,-z
1/2+x,y,1/2-z
-x,y,z
1/2+x,-y,1/2+z
loop_
_atom_site_type_symbol
_atom_site_label
_atom_site_fract_x
_atom_site_fract_y
_atom_site_fract_z
Si Si1 0.332192 0.995366 0.797199
Si Si2 0.169125 0.427090 0.298307
Si Si3 0.331253 0.610438 0.135401
Si Si4 0.832596 0.892214 0.025763
Si Si5 0.666690 0.211704 0.149299
Si Si6 0.337516 0.462899 0.052701
Si Si7 0.670867 0.155596 0.878731
Si Si8 0.668370 0.747558 0.560399
O O1 0.250000 0.026536 0.750000
O O2 0.500000 0.008293 0.786925
O O3 0.292210 0.875783 0.811856
O O4 0.282669 0.073990 0.838524
O O5 0.250000 0.411597 0.250000
O O6 0.228681 0.533646 0.323460
O O7 0.205242 0.327665 0.331487
O O8 0.000000 0.432637 0.288212
O O9 0.500000 0.616588 0.142497
O O10 0.291726 0.561447 0.084864
O O11 0.268251 0.729105 0.137127
O O12 0.740074 0.879370 0.072419
O O13 0.000000 0.892553 0.039766
O O14 0.795002 0.797684 0.990003
O O15 0.789085 0.000000 0.000000
O O16 0.500000 0.201300 0.135916
O O17 0.756547 0.186963 0.102250
O O18 0.500000 0.424680 0.065724
O O19 0.225912 0.370735 0.061608
O O20 0.328701 0.500000 0.000000
O O21 0.500000 0.158142 0.886323
O O22 0.500000 0.748301 0.570359
#
# Coordination Sequence:
#
# PCOD8219325 Si02
#       8
#     8   8   8   8   8   8   8   8
#     4  10  22  38  59  87 114 145 186 238 291 340
#     4  10  20  35  55  78 108 145 185 231 278 331
#     4   9  18  35  55  78 110 146 183 228 276 327
#     4  10  22  39  56  80 116 155 189 227 286 344
#     4  10  20  37  58  81 113 149 188 233 282 340
#     4  10  19  34  57  80 106 149 192 224 275 338
#     4  10  21  38  60  85 112 146 195 240 274 329
#     4  11  22  34  54  84 116 147 185 237 288 336
#
# _framework density 19.155702000000002
#
# number of rings (size 3 to 8) (size 9 to 14) (size 15 to 20)
#    0.000    2.000    1.250    2.250    0.000    4.500 
#    0.000    1.250    0.000    0.000    0.000    0.000 
#    0.000    0.000    0.000    0.000    0.000    0.000 
#
# Total GULP energy -793688.539266 kJ/mol
# GULP energy per Si atom -12401.383426 kJ/mol
# Density = 1.911210 g / cm^3
# Si number density = 19.155702 Si / 1000 Ang^3
#
#
#
# Elastic Constant Matrix: (Units=GPa)
#
#
# Indices 1 2 3 4 5 6 
#
# 1 56.0705 38.1766 65.2028 0.0000 0.0000 0.0000
# 2 38.1766 122.9198 51.9645 0.0000 0.0000 0.0000
# 3 65.2028 51.9645 135.0812 0.0000 0.0000 0.0000
# 4 0.0000 0.0000 0.0000 25.2489 0.0000 0.0000
# 5 0.0000 0.0000 0.0000 0.0000 -39.0990 0.0000
# 6 0.0000 0.0000 0.0000 0.0000 0.0000 26.5244
#
#
#
# Elastic Compliance Matrix: (Units=1/GPa)
#
#
# Indices 1 2 3 4 5 6 
#
# 1 0.043607 -0.005547 -0.018915 0.000000 0.000000 0.000000
# 2 -0.005547 0.010421 -0.001331 0.000000 0.000000 0.000000
# 3 -0.018915 -0.001331 0.017045 0.000000 0.000000 0.000000
# 4 0.000000 0.000000 0.000000 0.039606 0.000000 0.000000
# 5 0.000000 0.000000 0.000000 0.000000 -0.025576 0.000000
# 6 0.000000 0.000000 0.000000 0.000000 0.000000 0.037701
#
#
# Mechanical properties :
#
#
# Convention : Reuss Voigt Hill
#
# Bulk Modulus (GPa) = 51.31742 69.41770 60.36756
# Shear Modulus (GPa) = 27.64156 13.11669 20.37912
#
# Velocity S-wave (km/s) = 3.80280 2.61959 3.26524
# Velocity P-wave (km/s) = 6.79187 6.74292 6.76744
#
# Compressibility (1/GPa) = 0.01948656
#
# Stress axis : x y z
#
# Youngs Moduli (GPa) = 22.93189 95.95948 58.66747
#
# Poissons Ratio (x) = 0.53232 1.10970
# Poissons Ratio (y) = 0.12721 0.07810
# Poissons Ratio (z) = 0.43376 0.12774
#
# Static dielectric constant tensor:
#      x y z
#    x 3.295190 0.000000 0.000000 
#    y 0.000000 3.702210 0.000000 
#    z 0.000000 0.000000 3.777560 
# 
# 
# High freq. dielectric constant tensor:
#      x y z
#    x 1.722300 0.000000 0.000000 
#    y 0.000000 1.756480 0.000000 
#    z 0.000000 0.000000 1.754000 
# 
# From -- ./inp_files/38215.got.cif
#   From: 2010.03.12/outbox.cif.g09.slc.cpg/sg53_20_cif.got.tgz:38215.got - 2010.04.16 14:36:59.
