data_PCOD8219450
_publ_section_title
;
Structure prediction by ZEFSAII (Michael W. Deem and Ramdas Pophale) SiO2 
 PCOD8219450
Probable space group: P M N A
;
_chemical_formula_sum "Si O2"
_cell_formula_units_Z 64
_cell_length_a 8.782195
_cell_length_b 18.875415
_cell_length_c 19.876558
_cell_angle_alpha 90.000000
_cell_angle_beta 90.000000
_cell_angle_gamma 90.000000
_cell_volume 3294.888824
_symmetry_space_group_name_H-M "P M N A"
_symmetry_group_IT_number 53
_symmetry_cell_setting 'orthorhombic'
loop_
_space_group_symop_operation_xyz
x,y,z
1/2-x,-y,1/2+z
x,-y,-z
1/2-x,y,1/2-z
-x,-y,-z
1/2+x,y,1/2-z
-x,y,z
1/2+x,-y,1/2+z
loop_
_atom_site_type_symbol
_atom_site_label
_atom_site_fract_x
_atom_site_fract_y
_atom_site_fract_z
Si Si1 0.324005 0.832936 0.680200
Si Si2 0.680499 0.694783 0.175924
Si Si3 0.824180 0.001583 0.180423
Si Si4 0.320788 0.277911 0.087540
Si Si5 0.180167 0.783247 0.449424
Si Si6 0.319389 0.058752 0.948923
Si Si7 0.676823 0.602573 0.676637
Si Si8 0.323016 0.553860 0.322019
O O1 0.250000 0.808671 0.750000
O O2 0.500000 0.810227 0.680486
O O3 0.301964 0.915549 0.667370
O O4 0.233153 0.794366 0.621747
O O5 0.750000 0.709025 0.250000
O O6 0.500000 0.693926 0.182706
O O7 0.737913 0.754201 0.122940
O O8 0.736364 0.619734 0.143356
O O9 0.750000 0.978267 0.250000
O O10 0.000000 0.979832 0.179861
O O11 0.732804 0.958701 0.125478
O O12 0.500000 0.286133 0.095831
O O13 0.242684 0.345518 0.120697
O O14 0.271382 0.270391 0.009278
O O15 0.244277 0.862281 0.464596
O O16 0.000000 0.788213 0.447090
O O17 0.500000 0.056716 0.952936
O O18 0.249714 0.000000 0.000000
O O19 0.750000 0.614036 0.750000
O O20 0.500000 0.618481 0.686702
O O21 0.702482 0.523630 0.645090
O O22 0.250000 0.546107 0.250000
O O23 0.500000 0.573245 0.316702
#
# Coordination Sequence:
#
# PCOD8219450 Si02
#       8
#     8   8   8   8   8   8   8   8
#     4  10  20  34  52  76 107 142 179 219 264 315
#     4  10  19  35  58  81 107 136 173 220 267 319
#     4  10  21  36  55  80 108 137 174 221 271 323
#     4  11  21  35  54  75 105 144 184 222 260 308
#     4   9  21  38  55  79 108 140 178 218 265 323
#     4  10  20  37  60  81 106 142 181 222 271 325
#     4  10  20  34  53  80 112 144 179 219 261 308
#     4   9  17  31  53  80 108 138 175 216 261 313
#
# _framework density 19.424025
#
# number of rings (size 3 to 8) (size 9 to 14) (size 15 to 20)
#    0.000    2.125    0.000    4.125    0.000    4.750 
#    0.000    6.875    0.000    3.750    0.000    0.000 
#    0.000    0.000    0.000    0.000    0.000    0.000 
#
# Total GULP energy -793301.251517 kJ/mol
# GULP energy per Si atom -12395.332055 kJ/mol
# Density = 1.937982 g / cm^3
# Si number density = 19.424025 Si / 1000 Ang^3
#
#
#
# Elastic Constant Matrix: (Units=GPa)
#
#
# Indices 1 2 3 4 5 6 
#
# 1 68.3354 38.9877 33.0614 0.0000 0.0000 0.0000
# 2 38.9877 127.7824 73.0607 0.0000 0.0000 0.0000
# 3 33.0614 73.0607 119.0517 0.0000 0.0000 0.0000
# 4 0.0000 0.0000 0.0000 31.6556 0.0000 0.0000
# 5 0.0000 0.0000 0.0000 0.0000 27.1399 0.0000
# 6 0.0000 0.0000 0.0000 0.0000 0.0000 25.6480
#
#
#
# Elastic Compliance Matrix: (Units=1/GPa)
#
#
# Indices 1 2 3 4 5 6 
#
# 1 0.018202 -0.004103 -0.002537 0.000000 0.000000 0.000000
# 2 -0.004103 0.012981 -0.006827 0.000000 0.000000 0.000000
# 3 -0.002537 -0.006827 0.013294 0.000000 0.000000 0.000000
# 4 0.000000 0.000000 0.000000 0.031590 0.000000 0.000000
# 5 0.000000 0.000000 0.000000 0.000000 0.036846 0.000000
# 6 0.000000 0.000000 0.000000 0.000000 0.000000 0.038989
#
#
# Mechanical properties :
#
#
# Convention : Reuss Voigt Hill
#
# Bulk Modulus (GPa) = 57.00199 67.26545 62.13372
# Shear Modulus (GPa) = 27.07334 28.22602 27.64968
#
# Velocity S-wave (km/s) = 3.73742 3.81616 3.77699
# Velocity P-wave (km/s) = 6.93068 7.35681 7.14692
#
# Compressibility (1/GPa) = 0.01754325
#
# Stress axis : x y z
#
# Youngs Moduli (GPa) = 54.93901 77.03539 75.22351
#
# Poissons Ratio (x) = 0.31609 0.19082
# Poissons Ratio (y) = 0.22543 0.51354
# Poissons Ratio (z) = 0.13936 0.52591
#
# Static dielectric constant tensor:
#      x y z
#    x 3.513300 0.000000 0.000000 
#    y 0.000000 4.142600 0.000000 
#    z 0.000000 0.000000 3.429680 
# 
# 
# High freq. dielectric constant tensor:
#      x y z
#    x 1.754100 0.000000 0.000000 
#    y 0.000000 1.765400 0.000000 
#    z 0.000000 0.000000 1.742140 
# 
# From -- ./inp_files/26890.got.cif
#   From: 2010.03.12/outbox.cif.g09.slc.cpg/sg53_14_cif.got.tgz:26890.got - 2010.04.16 14:36:59.
