data_PCOD8219589
_publ_section_title
;
Structure prediction by ZEFSAII (Michael W. Deem and Ramdas Pophale) SiO2 
 PCOD8219589
Probable space group: P M N A
;
_chemical_formula_sum "Si O2"
_cell_formula_units_Z 48
_cell_length_a 27.917986
_cell_length_b 9.833309
_cell_length_c 8.730415
_cell_angle_alpha 90.000000
_cell_angle_beta 90.000000
_cell_angle_gamma 90.000000
_cell_volume 2396.727506
_symmetry_space_group_name_H-M "P M N A"
_symmetry_group_IT_number 53
_symmetry_cell_setting 'orthorhombic'
loop_
_space_group_symop_operation_xyz
x,y,z
1/2-x,-y,1/2+z
x,-y,-z
1/2-x,y,1/2-z
-x,-y,-z
1/2+x,y,1/2-z
-x,y,z
1/2+x,-y,1/2+z
loop_
_atom_site_type_symbol
_atom_site_label
_atom_site_fract_x
_atom_site_fract_y
_atom_site_fract_z
Si Si1 0.704572 0.593852 0.357238
Si Si2 0.703615 0.906421 0.354260
Si Si3 0.887077 0.518425 0.323005
Si Si4 0.605492 0.993521 0.679745
Si Si5 0.554196 0.742509 0.313033
Si Si6 0.556315 0.279729 0.330388
O O1 0.717747 0.500000 0.500000
O O2 0.750000 0.598463 0.250000
O O3 0.691647 0.749883 0.404165
O O4 0.661703 0.516559 0.271646
O O5 0.750000 0.912270 0.250000
O O6 0.658128 0.965264 0.255622
O O7 0.714527 0.000000 0.500000
O O8 0.874822 0.500000 0.500000
O O9 0.912177 0.662957 0.303211
O O10 0.924516 0.408879 0.259510
O O11 0.563873 0.099647 0.721436
O O12 0.614044 0.000000 0.500000
O O13 0.586653 0.847655 0.734932
O O14 0.500000 0.708326 0.272175
O O15 0.565435 0.701836 0.488717
O O16 0.500000 0.258832 0.297675
#
# Coordination Sequence:
#
# PCOD8219589 Si02
#       6
#     8   8   8   8   8   8
#     4  11  24  44  68  95 127 160 205 252 305 367
#     4  10  22  41  64  95 125 158 198 250 308 366
#     4  12  25  40  58  88 126 169 206 253 306 360
#     4   9  18  36  61  92 119 155 199 257 312 361
#     4  10  19  36  63  89 119 158 207 258 309 364
#     4  10  21  38  63  92 121 160 210 257 309 370
#
# _framework density 20.027308999999999
#
# number of rings (size 3 to 8) (size 9 to 14) (size 15 to 20)
#    0.000    1.667    1.667    3.000    4.667    5.333 
#    6.000    0.833    0.000    2.000    0.000    0.000 
#    0.000    0.000    0.000    0.000    0.000    0.000 
#
# Total GULP energy -595136.962939 kJ/mol
# GULP energy per Si atom -12398.686728 kJ/mol
# Density = 1.998173 g / cm^3
# Si number density = 20.027309 Si / 1000 Ang^3
#
#
#
# Elastic Constant Matrix: (Units=GPa)
#
#
# Indices 1 2 3 4 5 6 
#
# 1 108.1025 40.4408 21.8955 0.0000 0.0000 0.0000
# 2 40.4408 104.5371 33.8054 0.0000 0.0000 0.0000
# 3 21.8955 33.8054 63.5944 0.0000 0.0000 0.0000
# 4 0.0000 0.0000 0.0000 9.9279 0.0000 0.0000
# 5 0.0000 0.0000 0.0000 0.0000 19.5694 0.0000
# 6 0.0000 0.0000 0.0000 0.0000 0.0000 39.3196
#
#
#
# Elastic Compliance Matrix: (Units=1/GPa)
#
#
# Indices 1 2 3 4 5 6 
#
# 1 0.010991 -0.003657 -0.001840 0.000000 0.000000 0.000000
# 2 -0.003657 0.012768 -0.005528 0.000000 0.000000 0.000000
# 3 -0.001840 -0.005528 0.019297 0.000000 0.000000 0.000000
# 4 0.000000 0.000000 0.000000 0.100726 0.000000 0.000000
# 5 0.000000 0.000000 0.000000 0.000000 0.051100 0.000000
# 6 0.000000 0.000000 0.000000 0.000000 0.000000 0.025433
#
#
# Mechanical properties :
#
#
# Convention : Reuss Voigt Hill
#
# Bulk Modulus (GPa) = 47.60654 52.05749 49.83201
# Shear Modulus (GPa) = 20.05061 25.76954 22.91008
#
# Velocity S-wave (km/s) = 3.16755 3.59098 3.38589
# Velocity P-wave (km/s) = 6.09920 6.57596 6.34206
#
# Compressibility (1/GPa) = 0.02100552
#
# Stress axis : x y z
#
# Youngs Moduli (GPa) = 90.98138 78.31808 51.82145
#
# Poissons Ratio (x) = 0.28640 0.09537
# Poissons Ratio (y) = 0.33271 0.28649
# Poissons Ratio (z) = 0.16744 0.43297
#
# Static dielectric constant tensor:
#      x y z
#    x 3.886510 0.000000 0.000000 
#    y 0.000000 3.894170 0.000000 
#    z 0.000000 0.000000 3.307140 
# 
# 
# High freq. dielectric constant tensor:
#      x y z
#    x 1.804120 0.000000 0.000000 
#    y 0.000000 1.796350 0.000000 
#    z 0.000000 0.000000 1.741390 
# 
# From -- ./inp_files/13004.got.cif
#   From: 2010.03.12/outbox.cif.g09.slc.cpg/sg53_7_cif.got.tgz:13004.got - 2010.04.16 14:36:59.
