data_PCOD8219260
_publ_section_title
;
Structure prediction by ZEFSAII (Michael W. Deem and Ramdas Pophale) SiO2 
 PCOD8219260
Probable space group: P M N A
;
_chemical_formula_sum "Si O2"
_cell_formula_units_Z 36
_cell_length_a 19.067514
_cell_length_b 9.158858
_cell_length_c 11.385533
_cell_angle_alpha 90.000000
_cell_angle_beta 90.000000
_cell_angle_gamma 90.000000
_cell_volume 1988.331377
_symmetry_space_group_name_H-M "P M N A"
_symmetry_group_IT_number 53
_symmetry_cell_setting 'orthorhombic'
loop_
_space_group_symop_operation_xyz
x,y,z
1/2-x,-y,1/2+z
x,-y,-z
1/2-x,y,1/2-z
-x,-y,-z
1/2+x,y,1/2-z
-x,y,z
1/2+x,-y,1/2+z
loop_
_atom_site_type_symbol
_atom_site_label
_atom_site_fract_x
_atom_site_fract_y
_atom_site_fract_z
Si Si1 0.850234 0.500000 0.500000
Si Si2 0.675663 0.707703 0.797837
Si Si3 0.578212 0.972927 0.864160
Si Si4 0.080775 0.714298 0.321019
Si Si5 0.581527 0.480251 0.365761
O O1 0.807039 0.410977 0.400842
O O2 0.895558 0.379089 0.566883
O O3 0.750000 0.762213 0.750000
O O4 0.632846 0.844377 0.844601
O O5 0.629529 0.642079 0.692615
O O6 0.500000 0.936353 0.812065
O O7 0.612370 0.122213 0.810306
O O8 0.569639 0.000000 0.000000
O O9 0.096124 0.633418 0.198874
O O10 0.000000 0.739476 0.345190
O O11 0.603968 0.500000 0.500000
O O12 0.500000 0.434305 0.353545
#
# Coordination Sequence:
#
# PCOD8219260 Si02
#       5
#     4   8   8   8   8
#     4  10  19  34  54  80 107 144 184 236 278 334
#     4  11  23  36  55  81 117 151 190 231 286 342
#     4  10  19  35  58  86 116 144 185 241 290 335
#     4   9  17  31  58  87 110 137 182 237 286 327
#     4   9  19  37  59  82 110 148 195 237 278 334
#
# _framework density 18.105633999999998
#
# number of rings (size 3 to 8) (size 9 to 14) (size 15 to 20)
#    0.000    2.222    2.222    1.000    1.556    1.778 
#    0.000    7.778    0.000    5.333    0.000    0.000 
#    0.000    0.000    0.000    0.000    0.000    0.000 
#
# Total GULP energy -446119.962805 kJ/mol
# GULP energy per Si atom -12392.221189 kJ/mol
# Density = 1.806443 g / cm^3
# Si number density = 18.105634 Si / 1000 Ang^3
#
#
#
# Elastic Constant Matrix: (Units=GPa)
#
#
# Indices 1 2 3 4 5 6 
#
# 1 77.2145 52.3199 34.3133 0.0000 0.0000 0.0000
# 2 52.3199 116.9464 34.3289 0.0000 0.0000 0.0000
# 3 34.3133 34.3289 104.4558 0.0000 0.0000 0.0000
# 4 0.0000 0.0000 0.0000 21.0079 0.0000 0.0000
# 5 0.0000 0.0000 0.0000 0.0000 16.2059 0.0000
# 6 0.0000 0.0000 0.0000 0.0000 0.0000 1.8446
#
#
#
# Elastic Compliance Matrix: (Units=1/GPa)
#
#
# Indices 1 2 3 4 5 6 
#
# 1 0.020000 -0.007768 -0.004017 0.000000 0.000000 0.000000
# 2 -0.007768 0.012481 -0.001550 0.000000 0.000000 0.000000
# 3 -0.004017 -0.001550 0.011402 0.000000 0.000000 0.000000
# 4 0.000000 0.000000 0.000000 0.047601 0.000000 0.000000
# 5 0.000000 0.000000 0.000000 0.000000 0.061706 0.000000
# 6 0.000000 0.000000 0.000000 0.000000 0.000000 0.542131
#
#
# Mechanical properties :
#
#
# Convention : Reuss Voigt Hill
#
# Bulk Modulus (GPa) = 58.09579 60.06010 59.07794
# Shear Modulus (GPa) = 6.87068 19.65533 13.26301
#
# Velocity S-wave (km/s) = 1.95013 3.29841 2.70947
# Velocity P-wave (km/s) = 6.10143 6.91014 6.51834
#
# Compressibility (1/GPa) = 0.01721295
#
# Stress axis : x y z
#
# Youngs Moduli (GPa) = 50.00055 80.11905 87.70136
#
# Poissons Ratio (x) = 0.62240 0.35228
# Poissons Ratio (y) = 0.38843 0.13594
# Poissons Ratio (z) = 0.20084 0.12419
#
# Static dielectric constant tensor:
#      x y z
#    x 3.108460 0.000000 0.000000 
#    y 0.000000 2.543470 0.000000 
#    z 0.000000 0.000000 3.337020 
# 
# 
# High freq. dielectric constant tensor:
#      x y z
#    x 1.677270 0.000000 0.000000 
#    y 0.000000 1.709970 0.000000 
#    z 0.000000 0.000000 1.699210 
# 
# From -- ./inp_files/10610.got.cif
#   From: 2010.03.12/outbox.cif.g09.slc.cpg/sg53_6_cif.got.tgz:10610.got - 2010.04.16 14:36:59.
