data_PCOD8219172
_publ_section_title
;
Structure prediction by ZEFSAII (Michael W. Deem and Ramdas Pophale) SiO2 
 PCOD8219172
Probable space group: P M N A
;
_chemical_formula_sum "Si O2"
_cell_formula_units_Z 48
_cell_length_a 9.237689
_cell_length_b 16.394191
_cell_length_c 17.731493
_cell_angle_alpha 90.000000
_cell_angle_beta 90.000000
_cell_angle_gamma 90.000000
_cell_volume 2685.335990
_symmetry_space_group_name_H-M "P M N A"
_symmetry_group_IT_number 53
_symmetry_cell_setting 'orthorhombic'
loop_
_space_group_symop_operation_xyz
x,y,z
1/2-x,-y,1/2+z
x,-y,-z
1/2-x,y,1/2-z
-x,-y,-z
1/2+x,y,1/2-z
-x,y,z
1/2+x,-y,1/2+z
loop_
_atom_site_type_symbol
_atom_site_label
_atom_site_fract_x
_atom_site_fract_y
_atom_site_fract_z
Si Si1 0.670123 0.909282 0.481479
Si Si2 0.333990 0.503292 0.587461
Si Si3 0.667109 0.240574 0.038630
Si Si4 0.166171 0.163746 0.823163
Si Si5 0.834115 0.678937 0.092058
Si Si6 0.167371 0.642305 0.673206
O O1 0.500000 0.898467 0.496027
O O2 0.752466 0.846365 0.536051
O O3 0.710709 0.890934 0.394819
O O4 0.723427 0.000000 0.500000
O O5 0.289658 0.500000 0.500000
O O6 0.500000 0.532712 0.596029
O O7 0.311894 0.412722 0.621870
O O8 0.230362 0.562698 0.632724
O O9 0.500000 0.227744 0.017691
O O10 0.686055 0.277808 0.121684
O O11 0.734653 0.304887 0.980204
O O12 0.250000 0.132895 0.750000
O O13 0.204615 0.258207 0.841048
O O14 0.000000 0.152194 0.803616
O O15 0.000000 0.693524 0.065854
O O16 0.250000 0.660830 0.750000
O O17 0.000000 0.624417 0.690599
#
# Coordination Sequence:
#
# PCOD8219172 Si02
#       6
#     8   8   8   8   8   8
#     4   9  19  37  60  82 104 137 178 215 261 328
#     4  10  19  33  56  80 105 142 186 229 274 321
#     4  10  20  34  54  80 106 135 174 221 268 314
#     4   9  18  32  51  76 107 137 168 208 258 313
#     4   9  18  33  53  77 104 140 181 215 258 323
#     4  11  24  38  53  76 109 146 187 231 276 321
#
# _framework density 17.874859000000001
#
# number of rings (size 3 to 8) (size 9 to 14) (size 15 to 20)
#    0.000    2.333    1.667    2.000    0.000    6.667 
#    0.000    2.500    0.000    4.000    0.000    0.000 
#    0.000    0.000    0.000    0.000    0.000    0.000 
#
# Total GULP energy -595242.653821 kJ/mol
# GULP energy per Si atom -12400.888621 kJ/mol
# Density = 1.783417 g / cm^3
# Si number density = 17.874859 Si / 1000 Ang^3
#
#
#
# Elastic Constant Matrix: (Units=GPa)
#
#
# Indices 1 2 3 4 5 6 
#
# 1 98.8846 53.2461 62.2502 0.0000 0.0000 0.0000
# 2 53.2461 117.8102 52.2109 0.0000 0.0000 0.0000
# 3 62.2502 52.2109 107.0934 0.0000 0.0000 0.0000
# 4 0.0000 0.0000 0.0000 17.8558 0.0000 0.0000
# 5 0.0000 0.0000 0.0000 0.0000 31.0048 0.0000
# 6 0.0000 0.0000 0.0000 0.0000 0.0000 12.4145
#
#
#
# Elastic Compliance Matrix: (Units=1/GPa)
#
#
# Indices 1 2 3 4 5 6 
#
# 1 0.017537 -0.004348 -0.008074 0.000000 0.000000 0.000000
# 2 -0.004348 0.011906 -0.003277 0.000000 0.000000 0.000000
# 3 -0.008074 -0.003277 0.015628 0.000000 0.000000 0.000000
# 4 0.000000 0.000000 0.000000 0.056004 0.000000 0.000000
# 5 0.000000 0.000000 0.000000 0.000000 0.032253 0.000000
# 6 0.000000 0.000000 0.000000 0.000000 0.000000 0.080551
#
#
# Mechanical properties :
#
#
# Convention : Reuss Voigt Hill
#
# Bulk Modulus (GPa) = 73.13573 73.24474 73.19024
# Shear Modulus (GPa) = 20.01326 22.66041 21.33683
#
# Velocity S-wave (km/s) = 3.34972 3.56438 3.45871
# Velocity P-wave (km/s) = 7.48098 7.61610 7.54885
#
# Compressibility (1/GPa) = 0.01367321
#
# Stress axis : x y z
#
# Youngs Moduli (GPa) = 57.02351 83.99409 63.98607
#
# Poissons Ratio (x) = 0.36519 0.51661
# Poissons Ratio (y) = 0.24793 0.20969
# Poissons Ratio (z) = 0.46040 0.27525
#
# Static dielectric constant tensor:
#      x y z
#    x 3.318570 0.000000 0.000000 
#    y 0.000000 3.419500 0.000000 
#    z 0.000000 0.000000 3.169590 
# 
# 
# High freq. dielectric constant tensor:
#      x y z
#    x 1.693800 0.000000 0.000000 
#    y 0.000000 1.689160 0.000000 
#    z 0.000000 0.000000 1.677780 
# 
# From -- ./inp_files/20177.got.cif
#   From: 2010.03.12/outbox.cif.g09.slc.cpg/sg53_11_cif.got.tgz:20177.got - 2010.04.16 14:36:59.
