data_PCOD8219045
_publ_section_title
;
Structure prediction by ZEFSAII (Michael W. Deem and Ramdas Pophale) SiO2 
 PCOD8219045
Probable space group: P M N A
;
_chemical_formula_sum "Si O2"
_cell_formula_units_Z 64
_cell_length_a 8.577974
_cell_length_b 27.639632
_cell_length_c 14.767363
_cell_angle_alpha 90.000000
_cell_angle_beta 90.000000
_cell_angle_gamma 90.000000
_cell_volume 3501.224288
_symmetry_space_group_name_H-M "P M N A"
_symmetry_group_IT_number 53
_symmetry_cell_setting 'orthorhombic'
loop_
_space_group_symop_operation_xyz
x,y,z
1/2-x,-y,1/2+z
x,-y,-z
1/2-x,y,1/2-z
-x,-y,-z
1/2+x,y,1/2-z
-x,y,z
1/2+x,-y,1/2+z
loop_
_atom_site_type_symbol
_atom_site_label
_atom_site_fract_x
_atom_site_fract_y
_atom_site_fract_z
Si Si1 0.318719 0.885077 0.526518
Si Si2 0.685196 0.614979 0.530469
Si Si3 0.683071 0.194641 0.153368
Si Si4 0.184227 0.421277 0.843703
Si Si5 0.817919 0.026868 0.156457
Si Si6 0.815274 0.469688 0.155928
Si Si7 0.314838 0.298213 0.347513
Si Si8 0.815656 0.077500 0.652670
O O1 0.500000 0.871468 0.528664
O O2 0.222382 0.843682 0.576287
O O3 0.287198 0.935858 0.576070
O O4 0.259811 0.888415 0.423673
O O5 0.500000 0.615089 0.535318
O O6 0.742007 0.612859 0.426093
O O7 0.748137 0.566410 0.578964
O O8 0.748938 0.663259 0.578912
O O9 0.750000 0.177242 0.250000
O O10 0.500000 0.200334 0.164139
O O11 0.754598 0.245717 0.123267
O O12 0.250000 0.399959 0.750000
O O13 0.246637 0.475844 0.861401
O O14 0.000000 0.421706 0.837675
O O15 0.750000 0.048718 0.250000
O O16 0.000000 0.015156 0.168770
O O17 0.729262 0.977759 0.131831
O O18 0.750000 0.449501 0.250000
O O19 0.000000 0.469274 0.158616
O O20 0.250000 0.313542 0.250000
O O21 0.500000 0.297449 0.342997
O O22 0.750000 0.093999 0.750000
O O23 0.000000 0.083593 0.651277
#
# Coordination Sequence:
#
# PCOD8219045 Si02
#       8
#     8   8   8   8   8   8   8   8
#     4  11  22  36  55  79 106 137 175 216 259 306
#     4   9  17  29  48  70  93 127 166 199 239 295
#     4  11  22  37  56  79 106 134 165 203 253 308
#     4   9  17  30  46  66  94 128 165 202 240 283
#     4  10  20  33  51  76 108 142 175 213 255 302
#     4   9  16  27  44  67  96 128 161 198 239 287
#     4  10  19  33  52  74 100 128 159 198 247 299
#     4  11  22  36  54  76 106 143 180 217 256 299
#
# _framework density 18.279319000000001
#
# number of rings (size 3 to 8) (size 9 to 14) (size 15 to 20)
#    0.000    2.000    0.000    6.375    0.000    6.000 
#    0.000    2.500    0.000    3.750    0.000    3.500 
#    0.000    0.000    0.000    0.000    0.000    0.000 
#
# Total GULP energy -793621.170531 kJ/mol
# GULP energy per Si atom -12400.330790 kJ/mol
# Density = 1.823771 g / cm^3
# Si number density = 18.279319 Si / 1000 Ang^3
#
#
#
# Elastic Constant Matrix: (Units=GPa)
#
#
# Indices 1 2 3 4 5 6 
#
# 1 62.9714 17.1159 23.2563 0.0000 0.0000 0.0000
# 2 17.1159 74.4311 61.3763 0.0000 0.0000 0.0000
# 3 23.2563 61.3763 141.8941 0.0000 0.0000 0.0000
# 4 0.0000 0.0000 0.0000 27.2614 0.0000 0.0000
# 5 0.0000 0.0000 0.0000 0.0000 28.5563 0.0000
# 6 0.0000 0.0000 0.0000 0.0000 0.0000 23.4721
#
#
#
# Elastic Compliance Matrix: (Units=1/GPa)
#
#
# Indices 1 2 3 4 5 6 
#
# 1 0.017206 -0.002536 -0.001723 0.000000 0.000000 0.000000
# 2 -0.002536 0.021258 -0.008780 0.000000 0.000000 0.000000
# 3 -0.001723 -0.008780 0.011128 0.000000 0.000000 0.000000
# 4 0.000000 0.000000 0.000000 0.036682 0.000000 0.000000
# 5 0.000000 0.000000 0.000000 0.000000 0.035018 0.000000
# 6 0.000000 0.000000 0.000000 0.000000 0.000000 0.042604
#
#
# Mechanical properties :
#
#
# Convention : Reuss Voigt Hill
#
# Bulk Modulus (GPa) = 42.52683 53.64374 48.08529
# Shear Modulus (GPa) = 25.27671 27.69451 26.48561
#
# Velocity S-wave (km/s) = 3.72264 3.89662 3.81062
# Velocity P-wave (km/s) = 6.46474 7.04665 6.76196
#
# Compressibility (1/GPa) = 0.02351457
#
# Stress axis : x y z
#
# Youngs Moduli (GPa) = 58.11982 47.04110 89.86709
#
# Poissons Ratio (x) = 0.11928 0.15486
# Poissons Ratio (y) = 0.14737 0.78899
# Poissons Ratio (z) = 0.10016 0.41300
#
# Static dielectric constant tensor:
#      x y z
#    x 3.313450 0.000000 0.000000 
#    y 0.000000 3.316580 0.000000 
#    z 0.000000 0.000000 3.595850 
# 
# 
# High freq. dielectric constant tensor:
#      x y z
#    x 1.705990 0.000000 0.000000 
#    y 0.000000 1.686530 0.000000 
#    z 0.000000 0.000000 1.712860 
# 
# From -- ./inp_files/20975.got.cif
#   From: 2010.03.12/outbox.cif.g09.slc.cpg/sg53_11_cif.got.tgz:20975.got - 2010.04.16 14:36:59.
