data_PCOD8219195
_publ_section_title
;
Structure prediction by ZEFSAII (Michael W. Deem and Ramdas Pophale) SiO2 
 PCOD8219195
Probable space group: P M N A
;
_chemical_formula_sum "Si O2"
_cell_formula_units_Z 40
_cell_length_a 8.948455
_cell_length_b 14.307999
_cell_length_c 15.604607
_cell_angle_alpha 90.000000
_cell_angle_beta 90.000000
_cell_angle_gamma 90.000000
_cell_volume 1997.927824
_symmetry_space_group_name_H-M "P M N A"
_symmetry_group_IT_number 53
_symmetry_cell_setting 'orthorhombic'
loop_
_space_group_symop_operation_xyz
x,y,z
1/2-x,-y,1/2+z
x,-y,-z
1/2-x,y,1/2-z
-x,-y,-z
1/2+x,y,1/2-z
-x,y,z
1/2+x,-y,1/2+z
loop_
_atom_site_type_symbol
_atom_site_label
_atom_site_fract_x
_atom_site_fract_y
_atom_site_fract_z
Si Si1 0.325182 0.404709 0.911841
Si Si2 0.675285 0.589349 0.593570
Si Si3 0.173003 0.109728 0.994965
Si Si4 0.673621 0.792329 0.162688
Si Si5 0.326358 0.212616 0.336173
O O1 0.500000 0.417422 0.931268
O O2 0.259641 0.498632 0.867648
O O3 0.294334 0.317635 0.850117
O O4 0.238311 0.387050 0.999963
O O5 0.500000 0.568503 0.586177
O O6 0.708056 0.677357 0.654080
O O7 0.263869 0.148181 0.915296
O O8 0.000000 0.136811 0.982448
O O9 0.236611 0.156350 0.081939
O O10 0.197752 0.000000 0.000000
O O11 0.750000 0.825898 0.250000
O O12 0.500000 0.813710 0.170006
O O13 0.250000 0.174982 0.250000
O O14 0.500000 0.191926 0.327110
#
# Coordination Sequence:
#
# PCOD8219195 Si02
#       5
#     8   8   8   8   8
#     4  10  20  34  55  85 118 156 198 241 290 345
#     4  10  19  33  56  84 116 157 198 240 290 348
#     4  10  22  43  67  89 118 154 196 249 306 360
#     4  11  24  40  62  90 122 160 200 247 298 354
#     4  10  22  38  59  88 119 155 195 239 293 352
#
# _framework density 20.020744000000001
#
# number of rings (size 3 to 8) (size 9 to 14) (size 15 to 20)
#    0.000    1.800    2.000    3.000    0.000    6.800 
#    0.000    6.000    0.000    0.000    0.000    0.000 
#    0.000    0.000    0.000    0.000    0.000    0.000 
#
# Total GULP energy -496090.561726 kJ/mol
# GULP energy per Si atom -12402.264043 kJ/mol
# Density = 1.997518 g / cm^3
# Si number density = 20.020744 Si / 1000 Ang^3
#
#
#
# Elastic Constant Matrix: (Units=GPa)
#
#
# Indices 1 2 3 4 5 6 
#
# 1 93.4692 54.5138 60.9371 0.0000 0.0000 0.0000
# 2 54.5138 85.3785 56.6035 0.0000 0.0000 0.0000
# 3 60.9371 56.6035 151.9004 0.0000 0.0000 0.0000
# 4 0.0000 0.0000 0.0000 9.2450 0.0000 0.0000
# 5 0.0000 0.0000 0.0000 0.0000 31.4904 0.0000
# 6 0.0000 0.0000 0.0000 0.0000 0.0000 24.2855
#
#
#
# Elastic Compliance Matrix: (Units=1/GPa)
#
#
# Indices 1 2 3 4 5 6 
#
# 1 0.018766 -0.009285 -0.004069 0.000000 0.000000 0.000000
# 2 -0.009285 0.020149 -0.003784 0.000000 0.000000 0.000000
# 3 -0.004069 -0.003784 0.009625 0.000000 0.000000 0.000000
# 4 0.000000 0.000000 0.000000 0.108167 0.000000 0.000000
# 5 0.000000 0.000000 0.000000 0.000000 0.031756 0.000000
# 6 0.000000 0.000000 0.000000 0.000000 0.000000 0.041177
#
#
# Mechanical properties :
#
#
# Convention : Reuss Voigt Hill
#
# Bulk Modulus (GPa) = 70.09195 74.98411 72.53803
# Shear Modulus (GPa) = 18.61017 23.58375 21.09696
#
# Velocity S-wave (km/s) = 3.05215 3.43587 3.24968
# Velocity P-wave (km/s) = 6.89250 7.29896 7.09864
#
# Compressibility (1/GPa) = 0.01426697
#
# Stress axis : x y z
#
# Youngs Moduli (GPa) = 53.28670 49.62934 103.89293
#
# Poissons Ratio (x) = 0.46081 0.42269
# Poissons Ratio (y) = 0.49477 0.39309
# Poissons Ratio (z) = 0.21680 0.18778
#
# Static dielectric constant tensor:
#      x y z
#    x 3.656560 0.000000 0.000000 
#    y 0.000000 3.792160 0.000000 
#    z 0.000000 0.000000 3.493010 
# 
# 
# High freq. dielectric constant tensor:
#      x y z
#    x 1.783640 0.000000 0.000000 
#    y 0.000000 1.784550 0.000000 
#    z 0.000000 0.000000 1.775790 
# 
# From -- ./inp_files/19900.got.cif
#   From: 2010.03.12/outbox.cif.g09.slc.cpg/sg53_10_cif.got.tgz:19900.got - 2010.04.16 14:36:59.
