data_PCOD8219242
_publ_section_title
;
Structure prediction by ZEFSAII (Michael W. Deem and Ramdas Pophale) SiO2 
 PCOD8219242
Probable space group: P M N A
;
_chemical_formula_sum "Si O2"
_cell_formula_units_Z 48
_cell_length_a 26.640310
_cell_length_b 15.764179
_cell_length_c 6.202096
_cell_angle_alpha 90.000000
_cell_angle_beta 90.000000
_cell_angle_gamma 90.000000
_cell_volume 2604.648457
_symmetry_space_group_name_H-M "P M N A"
_symmetry_group_IT_number 53
_symmetry_cell_setting 'orthorhombic'
loop_
_space_group_symop_operation_xyz
x,y,z
1/2-x,-y,1/2+z
x,-y,-z
1/2-x,y,1/2-z
-x,-y,-z
1/2+x,y,1/2-z
-x,y,z
1/2+x,-y,1/2+z
loop_
_atom_site_type_symbol
_atom_site_label
_atom_site_fract_x
_atom_site_fract_y
_atom_site_fract_z
Si Si1 0.443855 0.733979 0.829250
Si Si2 0.326935 0.000000 0.500000
Si Si3 0.371398 0.289174 0.790704
Si Si4 0.289811 0.245256 0.083269
Si Si5 0.250000 0.889316 0.250000
Si Si6 0.130946 0.830198 0.905575
Si Si7 0.057029 0.599122 0.017698
O O1 0.500000 0.755418 0.892476
O O2 0.425757 0.803710 0.654554
O O3 0.438291 0.640943 0.719132
O O4 0.413220 0.742829 0.046523
O O5 0.294599 0.952411 0.317680
O O6 0.363879 0.930986 0.603542
O O7 0.355796 0.210817 0.637200
O O8 0.396993 0.367564 0.665920
O O9 0.318463 0.310670 0.917488
O O10 0.250000 0.289517 0.250000
O O11 0.333496 0.207562 0.225278
O O12 0.262513 0.168952 0.956476
O O13 0.000000 0.617450 0.108709
O O14 0.066082 0.500000 0.000000
#
# Coordination Sequence:
#
# PCOD8219242 Si02
#       7
#     8   4   8   8   4   8   8
#     4   9  19  35  55  78 110 149 185 222 274 338
#     4  12  20  34  51  78 108 142 177 236 288 330
#     4  10  19  34  53  76 115 148 185 224 280 342
#     4  11  19  35  50  78 113 139 184 225 281 337
#     4  12  22  34  54  80 114 138 174 236 302 328
#     4  10  21  34  51  77 109 143 186 228 277 335
#     4   9  18  33  56  88 120 143 179 235 290 343
#
# _framework density 18.42859
#
# number of rings (size 3 to 8) (size 9 to 14) (size 15 to 20)
#    0.000    1.833    3.333    1.500    0.000    1.333 
#    0.000    2.917    0.000    1.000    0.000    0.000 
#  340.000    0.000    0.000    0.000    0.000    0.000 
#
# Total GULP energy -594667.753524 kJ/mol
# GULP energy per Si atom -12388.911532 kJ/mol
# Density = 1.838665 g / cm^3
# Si number density = 18.428590 Si / 1000 Ang^3
#
#
#
# Elastic Constant Matrix: (Units=GPa)
#
#
# Indices 1 2 3 4 5 6 
#
# 1 88.4304 45.8441 42.4470 0.0000 0.0000 0.0000
# 2 45.8441 87.9463 27.7773 0.0000 0.0000 0.0000
# 3 42.4470 27.7773 93.0856 0.0000 0.0000 0.0000
# 4 0.0000 0.0000 0.0000 8.4137 0.0000 0.0000
# 5 0.0000 0.0000 0.0000 0.0000 36.0352 0.0000
# 6 0.0000 0.0000 0.0000 0.0000 0.0000 27.7020
#
#
#
# Elastic Compliance Matrix: (Units=1/GPa)
#
#
# Indices 1 2 3 4 5 6 
#
# 1 0.018098 -0.007538 -0.006003 0.000000 0.000000 0.000000
# 2 -0.007538 0.015693 -0.001246 0.000000 0.000000 0.000000
# 3 -0.006003 -0.001246 0.013852 0.000000 0.000000 0.000000
# 4 0.000000 0.000000 0.000000 0.118854 0.000000 0.000000
# 5 0.000000 0.000000 0.000000 0.000000 0.027751 0.000000
# 6 0.000000 0.000000 0.000000 0.000000 0.000000 0.036098
#
#
# Mechanical properties :
#
#
# Convention : Reuss Voigt Hill
#
# Bulk Modulus (GPa) = 55.34191 55.73323 55.53757
# Shear Modulus (GPa) = 18.80106 24.65643 21.72874
#
# Velocity S-wave (km/s) = 3.19754 3.66176 3.43750
# Velocity P-wave (km/s) = 6.61272 6.94165 6.77918
#
# Compressibility (1/GPa) = 0.01806949
#
# Stress axis : x y z
#
# Youngs Moduli (GPa) = 55.25585 63.72151 72.19171
#
# Poissons Ratio (x) = 0.48032 0.43338
# Poissons Ratio (y) = 0.41651 0.08993
# Poissons Ratio (z) = 0.33171 0.07938
#
# Static dielectric constant tensor:
#      x y z
#    x 3.866180 0.000000 0.000000 
#    y 0.000000 3.178330 0.000000 
#    z 0.000000 0.000000 3.716890 
# 
# 
# High freq. dielectric constant tensor:
#      x y z
#    x 1.723790 0.000000 0.000000 
#    y 0.000000 1.672620 0.000000 
#    z 0.000000 0.000000 1.729970 
# 
# From -- ./inp_files/4519.got.cif
#   From: 2010.03.12/outbox.cif.g09.slc.cpg/sg53_3_cif.got.tgz:4519.got - 2010.04.16 14:36:59.
