data_PCOD8219851
_publ_section_title
;
Structure prediction by ZEFSAII (Michael W. Deem and Ramdas Pophale) SiO2 
 PCOD8219851
Probable space group: P M N A
;
_chemical_formula_sum "Si O2"
_cell_formula_units_Z 64
_cell_length_a 9.367330
_cell_length_b 23.343926
_cell_length_c 15.181624
_cell_angle_alpha 90.000000
_cell_angle_beta 90.000000
_cell_angle_gamma 90.000000
_cell_volume 3319.769642
_symmetry_space_group_name_H-M "P M N A"
_symmetry_group_IT_number 53
_symmetry_cell_setting 'orthorhombic'
loop_
_space_group_symop_operation_xyz
x,y,z
1/2-x,-y,1/2+z
x,-y,-z
1/2-x,y,1/2-z
-x,-y,-z
1/2+x,y,1/2-z
-x,y,z
1/2+x,-y,1/2+z
loop_
_atom_site_type_symbol
_atom_site_label
_atom_site_fract_x
_atom_site_fract_y
_atom_site_fract_z
Si Si1 0.834570 0.867725 0.014013
Si Si2 0.665968 0.262031 0.509727
Si Si3 0.658210 0.424052 0.169676
Si Si4 0.845582 0.521088 0.097798
Si Si5 0.166080 0.949444 0.163770
Si Si6 0.834285 0.299900 0.342963
Si Si7 0.167350 0.352472 0.842528
Si Si8 0.165544 0.081849 0.163859
O O1 0.810553 0.802437 0.044157
O O2 0.771290 0.880877 0.917087
O O3 0.000000 0.883473 0.006760
O O4 0.767807 0.910364 0.086116
O O5 0.500000 0.274798 0.487509
O O6 0.756191 0.265197 0.419860
O O7 0.718597 0.304128 0.588008
O O8 0.750000 0.403493 0.250000
O O9 0.500000 0.440238 0.198680
O O10 0.719783 0.482067 0.132065
O O11 0.664229 0.364918 0.115116
O O12 0.798169 0.586751 0.110393
O O13 0.000000 0.512074 0.145593
O O14 0.867003 0.500000 0.000000
O O15 0.250000 0.930823 0.250000
O O16 0.000000 0.936535 0.179724
O O17 0.192762 0.015554 0.140373
O O18 0.750000 0.291936 0.250000
O O19 0.000000 0.280392 0.329266
O O20 0.250000 0.346619 0.750000
O O21 0.000000 0.345878 0.822230
O O22 0.250000 0.101564 0.250000
O O23 0.000000 0.094153 0.182442
#
# Coordination Sequence:
#
# PCOD8219851 Si02
#       8
#     8   8   8   8   8   8   8   8
#     4   9  18  33  54  77 102 138 181 221 263 314
#     4  10  21  38  57  77 104 141 187 232 271 315
#     4  10  20  33  51  75 100 126 159 201 251 308
#     4  10  20  34  53  77 104 133 167 211 266 323
#     4   9  17  31  52  78 107 138 174 215 262 316
#     4  10  21  37  57  81 109 141 176 218 272 331
#     4  10  22  38  56  78 107 146 186 227 274 323
#     4   9  17  31  52  78 108 140 172 211 262 319
#
# _framework density 19.278445999999999
#
# number of rings (size 3 to 8) (size 9 to 14) (size 15 to 20)
#    0.000    2.375    0.000    2.250    0.000    7.250 
#    0.000    3.125    0.000    3.000    0.000    0.000 
#    0.000    0.000    0.000    0.000    0.000    0.000 
#
# Total GULP energy -792942.479281 kJ/mol
# GULP energy per Si atom -12389.726239 kJ/mol
# Density = 1.923457 g / cm^3
# Si number density = 19.278446 Si / 1000 Ang^3
#
#
#
# Elastic Constant Matrix: (Units=GPa)
#
#
# Indices 1 2 3 4 5 6 
#
# 1 78.2704 21.3365 35.4192 0.0000 0.0000 0.0000
# 2 21.3365 74.0070 45.8635 0.0000 0.0000 0.0000
# 3 35.4192 45.8635 118.2650 0.0000 0.0000 0.0000
# 4 0.0000 0.0000 0.0000 33.5888 0.0000 0.0000
# 5 0.0000 0.0000 0.0000 0.0000 33.0704 0.0000
# 6 0.0000 0.0000 0.0000 0.0000 0.0000 26.0536
#
#
#
# Elastic Compliance Matrix: (Units=1/GPa)
#
#
# Indices 1 2 3 4 5 6 
#
# 1 0.015007 -0.002029 -0.003708 0.000000 0.000000 0.000000
# 2 -0.002029 0.018061 -0.006397 0.000000 0.000000 0.000000
# 3 -0.003708 -0.006397 0.012047 0.000000 0.000000 0.000000
# 4 0.000000 0.000000 0.000000 0.029772 0.000000 0.000000
# 5 0.000000 0.000000 0.000000 0.000000 0.030239 0.000000
# 6 0.000000 0.000000 0.000000 0.000000 0.000000 0.038382
#
#
# Mechanical properties :
#
#
# Convention : Reuss Voigt Hill
#
# Bulk Modulus (GPa) = 47.96464 52.86454 50.41459
# Shear Modulus (GPa) = 28.61661 29.73742 29.17701
#
# Velocity S-wave (km/s) = 3.85695 3.93176 3.89453
# Velocity P-wave (km/s) = 6.69094 6.93489 6.81401
#
# Compressibility (1/GPa) = 0.02084869
#
# Stress axis : x y z
#
# Youngs Moduli (GPa) = 66.63505 55.36714 83.01084
#
# Poissons Ratio (x) = 0.11233 0.30778
# Poissons Ratio (y) = 0.13520 0.53099
# Poissons Ratio (z) = 0.24706 0.35416
#
# Static dielectric constant tensor:
#      x y z
#    x 3.397260 0.000000 0.000000 
#    y 0.000000 3.371750 0.000000 
#    z 0.000000 0.000000 3.226810 
# 
# 
# High freq. dielectric constant tensor:
#      x y z
#    x 1.735670 0.000000 0.000000 
#    y 0.000000 1.754700 0.000000 
#    z 0.000000 0.000000 1.744440 
# 
# From -- ./inp_files/20973.got.cif
#   From: 2010.03.12/outbox.cif.g09.slc.cpg/sg53_11_cif.got.tgz:20973.got - 2010.04.16 14:36:59.
