data_PCOD8219355
_publ_section_title
;
Structure prediction by ZEFSAII (Michael W. Deem and Ramdas Pophale) SiO2 
 PCOD8219355
Probable space group: P M N A
;
_chemical_formula_sum "Si O2"
_cell_formula_units_Z 64
_cell_length_a 9.148598
_cell_length_b 19.532544
_cell_length_c 20.134491
_cell_angle_alpha 90.000000
_cell_angle_beta 90.000000
_cell_angle_gamma 90.000000
_cell_volume 3597.940782
_symmetry_space_group_name_H-M "P M N A"
_symmetry_group_IT_number 53
_symmetry_cell_setting 'orthorhombic'
loop_
_space_group_symop_operation_xyz
x,y,z
1/2-x,-y,1/2+z
x,-y,-z
1/2-x,y,1/2-z
-x,-y,-z
1/2+x,y,1/2-z
-x,y,z
1/2+x,-y,1/2+z
loop_
_atom_site_type_symbol
_atom_site_label
_atom_site_fract_x
_atom_site_fract_y
_atom_site_fract_z
Si Si1 0.670677 0.434300 0.181941
Si Si2 0.330767 0.943872 0.816222
Si Si3 0.828027 0.102127 0.682204
Si Si4 0.167555 0.521703 0.074637
Si Si5 0.827023 0.180448 0.935692
Si Si6 0.832032 0.688511 0.595271
Si Si7 0.833344 0.331727 0.965505
Si Si8 0.171732 0.159167 0.429027
O O1 0.750000 0.451264 0.250000
O O2 0.500000 0.446319 0.192340
O O3 0.724845 0.485932 0.125684
O O4 0.706189 0.355803 0.160642
O O5 0.250000 0.919215 0.750000
O O6 0.500000 0.930575 0.803177
O O7 0.276075 0.899547 0.878605
O O8 0.297084 0.022598 0.832528
O O9 0.750000 0.124833 0.750000
O O10 0.756545 0.144617 0.623686
O O11 0.000000 0.117724 0.687275
O O12 0.192039 0.603691 0.082799
O O13 0.000000 0.501661 0.090745
O O14 0.207727 0.500000 0.000000
O O15 0.786653 0.260999 0.930031
O O16 0.000000 0.166589 0.931072
O O17 0.765813 0.149987 0.004484
O O18 0.750701 0.655176 0.533467
O O19 0.791161 0.768069 0.605739
O O20 0.000000 0.680845 0.577137
O O21 0.000000 0.326123 0.987725
O O22 0.000000 0.152730 0.446497
#
# Coordination Sequence:
#
# PCOD8219355 Si02
#       8
#     8   8   8   8   8   8   8   8
#     4  11  23  36  51  76 109 142 177 218 260 308
#     4   9  19  34  53  75 102 137 178 219 260 311
#     4  10  20  36  56  77 102 136 176 218 265 316
#     4  10  19  34  58  81 102 134 173 214 262 313
#     4  10  20  34  53  80 109 136 171 216 261 310
#     4   9  18  32  51  74 102 136 173 210 251 303
#     4   9  18  33  54  79 104 131 168 211 256 308
#     4   9  18  34  53  76 107 141 175 213 259 308
#
# _framework density 17.787953000000002
#
# number of rings (size 3 to 8) (size 9 to 14) (size 15 to 20)
#    0.000    2.375    1.250    1.125    0.000    3.750 
#    0.000    3.125    0.000    0.000    0.000    0.000 
#    0.000    0.000    0.000    0.000    0.000    0.000 
#
# Total GULP energy -793595.426389 kJ/mol
# GULP energy per Si atom -12399.928537 kJ/mol
# Density = 1.774747 g / cm^3
# Si number density = 17.787953 Si / 1000 Ang^3
#
#
#
# Elastic Constant Matrix: (Units=GPa)
#
#
# Indices 1 2 3 4 5 6 
#
# 1 81.3375 48.3738 66.8008 0.0000 0.0000 0.0000
# 2 48.3738 92.5185 73.6976 0.0000 0.0000 0.0000
# 3 66.8008 73.6976 132.0770 0.0000 0.0000 0.0000
# 4 0.0000 0.0000 0.0000 24.2557 0.0000 0.0000
# 5 0.0000 0.0000 0.0000 0.0000 35.0313 0.0000
# 6 0.0000 0.0000 0.0000 0.0000 0.0000 25.6960
#
#
#
# Elastic Compliance Matrix: (Units=1/GPa)
#
#
# Indices 1 2 3 4 5 6 
#
# 1 0.022146 -0.004783 -0.008532 0.000000 0.000000 0.000000
# 2 -0.004783 0.020490 -0.009014 0.000000 0.000000 0.000000
# 3 -0.008532 -0.009014 0.016916 0.000000 0.000000 0.000000
# 4 0.000000 0.000000 0.000000 0.041227 0.000000 0.000000
# 5 0.000000 0.000000 0.000000 0.000000 0.028546 0.000000
# 6 0.000000 0.000000 0.000000 0.000000 0.000000 0.038917
#
#
# Mechanical properties :
#
#
# Convention : Reuss Voigt Hill
#
# Bulk Modulus (GPa) = 67.13969 75.96414 71.55191
# Shear Modulus (GPa) = 22.95000 24.80065 23.87532
#
# Velocity S-wave (km/s) = 3.59583 3.73800 3.66760
# Velocity P-wave (km/s) = 7.42067 7.83762 7.63200
#
# Compressibility (1/GPa) = 0.01489432
#
# Stress axis : x y z
#
# Youngs Moduli (GPa) = 45.15446 48.80507 59.11421
#
# Poissons Ratio (x) = 0.23342 0.50437
# Poissons Ratio (y) = 0.21596 0.53286
# Poissons Ratio (z) = 0.38527 0.43993
#
# Static dielectric constant tensor:
#      x y z
#    x 3.336270 0.000000 0.000000 
#    y 0.000000 3.559140 0.000000 
#    z 0.000000 0.000000 3.179450 
# 
# 
# High freq. dielectric constant tensor:
#      x y z
#    x 1.693320 0.000000 0.000000 
#    y 0.000000 1.694830 0.000000 
#    z 0.000000 0.000000 1.673710 
# 
# From -- ./inp_files/26812.got.cif
#   From: 2010.03.12/outbox.cif.g09.slc.cpg/sg53_14_cif.got.tgz:26812.got - 2010.04.16 14:36:59.
