data_PCOD8219551
_publ_section_title
;
Structure prediction by ZEFSAII (Michael W. Deem and Ramdas Pophale) SiO2 
 PCOD8219551
Probable space group: P M N A
;
_chemical_formula_sum "Si O2"
_cell_formula_units_Z 64
_cell_length_a 8.880689
_cell_length_b 15.012424
_cell_length_c 23.654972
_cell_angle_alpha 90.000000
_cell_angle_beta 90.000000
_cell_angle_gamma 90.000000
_cell_volume 3153.696685
_symmetry_space_group_name_H-M "P M N A"
_symmetry_group_IT_number 53
_symmetry_cell_setting 'orthorhombic'
loop_
_space_group_symop_operation_xyz
x,y,z
1/2-x,-y,1/2+z
x,-y,-z
1/2-x,y,1/2-z
-x,-y,-z
1/2+x,y,1/2-z
-x,y,z
1/2+x,-y,1/2+z
loop_
_atom_site_type_symbol
_atom_site_label
_atom_site_fract_x
_atom_site_fract_y
_atom_site_fract_z
Si Si1 0.323806 0.851188 0.108927
Si Si2 0.820909 0.224795 0.493748
Si Si3 0.828316 0.461352 0.850540
Si Si4 0.823916 0.702246 0.304167
Si Si5 0.678467 0.187423 0.130682
Si Si6 0.180004 0.007398 0.311286
Si Si7 0.679072 0.367854 0.188842
Si Si8 0.171578 0.592569 0.023267
O O1 0.500000 0.867989 0.105033
O O2 0.285344 0.760057 0.141020
O O3 0.256486 0.934664 0.143700
O O4 0.259046 0.838303 0.045035
O O5 0.762167 0.185224 0.434145
O O6 0.767086 0.325959 0.499516
O O7 0.000000 0.227631 0.496090
O O8 0.750402 0.395078 0.806566
O O9 0.738043 0.554039 0.851955
O O10 0.818471 0.411063 0.909699
O O11 0.000000 0.479989 0.832470
O O12 0.750000 0.751239 0.250000
O O13 0.000000 0.692159 0.294977
O O14 0.500000 0.186939 0.129465
O O15 0.737787 0.102163 0.165101
O O16 0.737569 0.275227 0.162463
O O17 0.250000 0.989406 0.250000
O O18 0.000000 0.002630 0.305743
O O19 0.750000 0.381124 0.250000
O O20 0.500000 0.371077 0.192820
O O21 0.000000 0.604185 0.002073
O O22 0.239351 0.500000 0.000000
#
# Coordination Sequence:
#
# PCOD8219551 Si02
#       8
#     8   8   8   8   8   8   8   8
#     4   9  19  34  57  85 115 146 185 230 276 329
#     4  10  19  36  58  84 114 148 188 231 281 336
#     4  11  22  36  54  79 109 146 186 229 281 334
#     4  11  21  35  53  79 111 146 184 227 273 328
#     4   9  20  36  59  86 113 145 188 236 284 336
#     4  10  20  38  60  87 117 149 189 234 282 338
#     4  11  22  37  55  80 111 147 189 236 284 336
#     4  10  21  36  54  79 112 149 189 232 279 333
#
# _framework density 20.293644
#
# number of rings (size 3 to 8) (size 9 to 14) (size 15 to 20)
#    0.000    1.875    1.250    3.000    0.000    1.250 
#    0.000    5.625    0.000    0.000    0.000    1.750 
#    0.000    0.000    0.000    0.000    0.000    0.000 
#
# Total GULP energy -793521.711537 kJ/mol
# GULP energy per Si atom -12398.776743 kJ/mol
# Density = 2.024746 g / cm^3
# Si number density = 20.293644 Si / 1000 Ang^3
#
#
#
# Elastic Constant Matrix: (Units=GPa)
#
#
# Indices 1 2 3 4 5 6 
#
# 1 51.5594 28.0314 21.9217 0.0000 0.0000 0.0000
# 2 28.0314 117.2393 31.6170 0.0000 0.0000 0.0000
# 3 21.9217 31.6170 96.3759 0.0000 0.0000 0.0000
# 4 0.0000 0.0000 0.0000 30.2436 0.0000 0.0000
# 5 0.0000 0.0000 0.0000 0.0000 22.9974 0.0000
# 6 0.0000 0.0000 0.0000 0.0000 0.0000 17.4965
#
#
#
# Elastic Compliance Matrix: (Units=1/GPa)
#
#
# Indices 1 2 3 4 5 6 
#
# 1 0.023524 -0.004587 -0.003846 0.000000 0.000000 0.000000
# 2 -0.004587 0.010252 -0.002320 0.000000 0.000000 0.000000
# 3 -0.003846 -0.002320 0.012012 0.000000 0.000000 0.000000
# 4 0.000000 0.000000 0.000000 0.033065 0.000000 0.000000
# 5 0.000000 0.000000 0.000000 0.000000 0.043483 0.000000
# 6 0.000000 0.000000 0.000000 0.000000 0.000000 0.057154
#
#
# Mechanical properties :
#
#
# Convention : Reuss Voigt Hill
#
# Bulk Modulus (GPa) = 41.18285 47.59053 44.38669
# Shear Modulus (GPa) = 23.91307 26.38781 25.15044
#
# Velocity S-wave (km/s) = 3.43644 3.60988 3.52423
# Velocity P-wave (km/s) = 6.00691 6.39350 6.20322
#
# Compressibility (1/GPa) = 0.02428195
#
# Stress axis : x y z
#
# Youngs Moduli (GPa) = 42.50915 97.54202 83.25101
#
# Poissons Ratio (x) = 0.44746 0.32018
# Poissons Ratio (y) = 0.19501 0.19313
# Poissons Ratio (z) = 0.16349 0.22628
#
# Static dielectric constant tensor:
#      x y z
#    x 3.386410 0.000000 0.000000 
#    y 0.000000 3.795870 0.000000 
#    z 0.000000 0.000000 3.937460 
# 
# 
# High freq. dielectric constant tensor:
#      x y z
#    x 1.760930 0.000000 0.000000 
#    y 0.000000 1.796040 0.000000 
#    z 0.000000 0.000000 1.809300 
# 
# From -- ./inp_files/34215.got.cif
#   From: 2010.03.12/outbox.cif.g09.slc.cpg/sg53_18_cif.got.tgz:34215.got - 2010.04.16 14:36:59.
