data_PCOD8219241
_publ_section_title
;
Structure prediction by ZEFSAII (Michael W. Deem and Ramdas Pophale) SiO2 
 PCOD8219241
Probable space group: P M N A
;
_chemical_formula_sum "Si O2"
_cell_formula_units_Z 64
_cell_length_a 9.081021
_cell_length_b 20.390399
_cell_length_c 19.519116
_cell_angle_alpha 90.000000
_cell_angle_beta 90.000000
_cell_angle_gamma 90.000000
_cell_volume 3614.269636
_symmetry_space_group_name_H-M "P M N A"
_symmetry_group_IT_number 53
_symmetry_cell_setting 'orthorhombic'
loop_
_space_group_symop_operation_xyz
x,y,z
1/2-x,-y,1/2+z
x,-y,-z
1/2-x,y,1/2-z
-x,-y,-z
1/2+x,y,1/2-z
-x,y,z
1/2+x,-y,1/2+z
loop_
_atom_site_type_symbol
_atom_site_label
_atom_site_fract_x
_atom_site_fract_y
_atom_site_fract_z
Si Si1 0.171619 0.370332 0.318586
Si Si2 0.167364 0.677480 0.948393
Si Si3 0.830372 0.979642 0.316335
Si Si4 0.668913 0.174552 0.451071
Si Si5 0.327650 0.561208 0.453341
Si Si6 0.325988 0.130081 0.181190
Si Si7 0.672491 0.477364 0.819221
Si Si8 0.327968 0.932821 0.036313
O O1 0.250000 0.344622 0.250000
O O2 0.229832 0.329366 0.382539
O O3 0.208523 0.446376 0.331052
O O4 0.000000 0.357240 0.310037
O O5 0.181247 0.750948 0.977922
O O6 0.000000 0.661455 0.925901
O O7 0.216330 0.627906 0.007959
O O8 0.750000 0.949797 0.250000
O O9 0.793463 0.936868 0.382992
O O10 0.000000 0.977457 0.298293
O O11 0.782114 0.054323 0.330672
O O12 0.500000 0.154758 0.437016
O O13 0.761294 0.170486 0.381569
O O14 0.734896 0.127715 0.508929
O O15 0.278450 0.500000 0.500000
O O16 0.500000 0.557052 0.435954
O O17 0.237536 0.562361 0.383001
O O18 0.250000 0.156848 0.250000
O O19 0.500000 0.140944 0.185577
O O20 0.750000 0.452144 0.750000
O O21 0.500000 0.463714 0.813070
O O22 0.500000 0.920522 0.021127
O O23 0.277872 0.000000 0.000000
#
# Coordination Sequence:
#
# PCOD8219241 Si02
#       8
#     8   8   8   8   8   8   8   8
#     4  10  20  33  52  77 107 143 181 218 261 313
#     4  10  22  38  53  75 109 143 179 220 267 319
#     4   9  18  32  53  79 106 135 169 215 264 309
#     4  11  23  36  52  78 109 143 180 221 265 316
#     4  10  19  34  58  80 103 141 180 221 271 317
#     4  10  19  34  53  76 107 143 180 217 260 313
#     4  10  20  33  53  82 112 138 173 222 268 318
#     4  10  19  36  57  78 106 141 178 221 268 313
#
# _framework density 17.707588999999999
#
# number of rings (size 3 to 8) (size 9 to 14) (size 15 to 20)
#    0.000    2.000    2.500    1.500    0.000    4.500 
#    0.000    0.000    0.000    0.750    0.000    1.750 
#    0.000    0.000    0.000    0.000    0.000    0.000 
#
# Total GULP energy -793842.276918 kJ/mol
# GULP energy per Si atom -12403.785577 kJ/mol
# Density = 1.766729 g / cm^3
# Si number density = 17.707589 Si / 1000 Ang^3
#
#
#
# Elastic Constant Matrix: (Units=GPa)
#
#
# Indices 1 2 3 4 5 6 
#
# 1 85.5280 42.3362 57.7482 0.0000 0.0000 0.0000
# 2 42.3362 86.5338 53.7638 0.0000 0.0000 0.0000
# 3 57.7482 53.7638 123.1008 0.0000 0.0000 0.0000
# 4 0.0000 0.0000 0.0000 21.3147 0.0000 0.0000
# 5 0.0000 0.0000 0.0000 0.0000 38.5724 0.0000
# 6 0.0000 0.0000 0.0000 0.0000 0.0000 20.5085
#
#
#
# Elastic Compliance Matrix: (Units=1/GPa)
#
#
# Indices 1 2 3 4 5 6 
#
# 1 0.018590 -0.005046 -0.006517 0.000000 0.000000 0.000000
# 2 -0.005046 0.017229 -0.005158 0.000000 0.000000 0.000000
# 3 -0.006517 -0.005158 0.013433 0.000000 0.000000 0.000000
# 4 0.000000 0.000000 0.000000 0.046916 0.000000 0.000000
# 5 0.000000 0.000000 0.000000 0.000000 0.025925 0.000000
# 6 0.000000 0.000000 0.000000 0.000000 0.000000 0.048760
#
#
# Mechanical properties :
#
#
# Convention : Reuss Voigt Hill
#
# Bulk Modulus (GPa) = 63.24624 66.98434 65.11529
# Shear Modulus (GPa) = 23.85878 25.50009 24.67944
#
# Velocity S-wave (km/s) = 3.67464 3.79894 3.73731
# Velocity P-wave (km/s) = 7.33475 7.55994 7.44820
#
# Compressibility (1/GPa) = 0.01581122
#
# Stress axis : x y z
#
# Youngs Moduli (GPa) = 53.79191 58.04010 74.44207
#
# Poissons Ratio (x) = 0.29288 0.48514
# Poissons Ratio (y) = 0.27144 0.38395
# Poissons Ratio (z) = 0.35056 0.29935
#
# Static dielectric constant tensor:
#      x y z
#    x 3.282960 0.000000 0.000000 
#    y 0.000000 3.103160 0.000000 
#    z 0.000000 0.000000 3.334060 
# 
# 
# High freq. dielectric constant tensor:
#      x y z
#    x 1.691280 0.000000 0.000000 
#    y 0.000000 1.658780 0.000000 
#    z 0.000000 0.000000 1.686760 
# 
# From -- ./inp_files/31135.got.cif
#   From: 2010.03.12/outbox.cif.g09.slc.cpg/sg53_16_cif.got.tgz:31135.got - 2010.04.16 14:36:59.
