data_PCOD8219416
_publ_section_title
;
Structure prediction by ZEFSAII (Michael W. Deem and Ramdas Pophale) SiO2 
 PCOD8219416
Probable space group: P M N A
;
_chemical_formula_sum "Si O2"
_cell_formula_units_Z 64
_cell_length_a 8.974115
_cell_length_b 19.528406
_cell_length_c 20.061650
_cell_angle_alpha 90.000000
_cell_angle_beta 90.000000
_cell_angle_gamma 90.000000
_cell_volume 3515.807397
_symmetry_space_group_name_H-M "P M N A"
_symmetry_group_IT_number 53
_symmetry_cell_setting 'orthorhombic'
loop_
_space_group_symop_operation_xyz
x,y,z
1/2-x,-y,1/2+z
x,-y,-z
1/2-x,y,1/2-z
-x,-y,-z
1/2+x,y,1/2-z
-x,y,z
1/2+x,-y,1/2+z
loop_
_atom_site_type_symbol
_atom_site_label
_atom_site_fract_x
_atom_site_fract_y
_atom_site_fract_z
Si Si1 0.174812 0.298346 0.600528
Si Si2 0.674712 0.534419 0.929986
Si Si3 0.827472 0.333632 0.034071
Si Si4 0.675320 0.056231 0.818264
Si Si5 0.173318 0.898036 0.682766
Si Si6 0.173597 0.429177 0.681231
Si Si7 0.824784 0.840831 0.085249
Si Si8 0.830570 0.818379 0.932361
O O1 0.229190 0.332374 0.532321
O O2 0.210466 0.351711 0.659252
O O3 0.262453 0.228953 0.617435
O O4 0.000000 0.282692 0.594464
O O5 0.500000 0.550734 0.924510
O O6 0.767122 0.604552 0.920685
O O7 0.731792 0.482989 0.873299
O O8 0.714327 0.500000 0.000000
O O9 0.807907 0.263060 0.074611
O O10 0.000000 0.343952 0.014520
O O11 0.750000 0.082976 0.750000
O O12 0.500000 0.069877 0.814171
O O13 0.744246 0.095172 0.881099
O O14 0.714775 0.976990 0.829631
O O15 0.250000 0.870487 0.750000
O O16 0.223331 0.855149 0.619184
O O17 0.000000 0.887526 0.692921
O O18 0.250000 0.446846 0.750000
O O19 0.000000 0.438957 0.690638
O O20 0.000000 0.844180 0.098710
O O21 0.787889 0.842514 0.006808
O O22 0.000000 0.839188 0.916232
#
# Coordination Sequence:
#
# PCOD8219416 Si02
#       8
#     8   8   8   8   8   8   8   8
#     4  10  19  35  55  76 107 147 183 221 271 326
#     4  10  19  36  58  80 107 142 184 224 270 327
#     4  10  20  34  55  85 111 138 180 227 272 322
#     4  10  21  37  56  80 109 145 187 231 276 332
#     4  10  21  37  59  83 108 142 187 231 279 335
#     4  10  22  37  54  78 109 144 180 224 273 323
#     4  10  21  36  55  83 115 147 184 229 275 325
#     4   9  20  37  55  80 115 146 180 226 277 331
#
# _framework density 18.203499000000001
#
# number of rings (size 3 to 8) (size 9 to 14) (size 15 to 20)
#    0.000    2.125    1.250    2.625    0.000    7.250 
#    0.000    4.375    0.000    1.500    0.000    0.000 
#    0.000    0.000    0.000    0.000    0.000    0.000 
#
# Total GULP energy -793809.032974 kJ/mol
# GULP energy per Si atom -12403.266140 kJ/mol
# Density = 1.816207 g / cm^3
# Si number density = 18.203499 Si / 1000 Ang^3
#
#
#
# Elastic Constant Matrix: (Units=GPa)
#
#
# Indices 1 2 3 4 5 6 
#
# 1 75.2482 50.8997 46.0915 0.0000 0.0000 0.0000
# 2 50.8997 94.8260 61.6965 0.0000 0.0000 0.0000
# 3 46.0915 61.6965 110.6415 0.0000 0.0000 0.0000
# 4 0.0000 0.0000 0.0000 38.3569 0.0000 0.0000
# 5 0.0000 0.0000 0.0000 0.0000 35.5556 0.0000
# 6 0.0000 0.0000 0.0000 0.0000 0.0000 34.0398
#
#
#
# Elastic Compliance Matrix: (Units=1/GPa)
#
#
# Indices 1 2 3 4 5 6 
#
# 1 0.021959 -0.009158 -0.004041 0.000000 0.000000 0.000000
# 2 -0.009158 0.020369 -0.007543 0.000000 0.000000 0.000000
# 3 -0.004041 -0.007543 0.014928 0.000000 0.000000 0.000000
# 4 0.000000 0.000000 0.000000 0.026071 0.000000 0.000000
# 5 0.000000 0.000000 0.000000 0.000000 0.028125 0.000000
# 6 0.000000 0.000000 0.000000 0.000000 0.000000 0.029377
#
#
# Mechanical properties :
#
#
# Convention : Reuss Voigt Hill
#
# Bulk Modulus (GPa) = 63.40457 66.45457 64.92957
# Shear Modulus (GPa) = 26.65646 29.72566 28.19106
#
# Velocity S-wave (km/s) = 3.83085 4.04538 3.93957
# Velocity P-wave (km/s) = 7.38063 7.64237 7.51264
#
# Compressibility (1/GPa) = 0.01577173
#
# Stress axis : x y z
#
# Youngs Moduli (GPa) = 45.53899 49.09384 66.98748
#
# Poissons Ratio (x) = 0.44958 0.27072
# Poissons Ratio (y) = 0.41703 0.50532
# Poissons Ratio (z) = 0.18404 0.37034
#
# Static dielectric constant tensor:
#      x y z
#    x 3.377600 0.000000 0.000000 
#    y 0.000000 3.439570 0.000000 
#    z 0.000000 0.000000 2.991450 
# 
# 
# High freq. dielectric constant tensor:
#      x y z
#    x 1.714640 0.000000 0.000000 
#    y 0.000000 1.709390 0.000000 
#    z 0.000000 0.000000 1.692510 
# 
# From -- ./inp_files/26759.got.cif
#   From: 2010.03.12/outbox.cif.g09.slc.cpg/sg53_14_cif.got.tgz:26759.got - 2010.04.16 14:36:59.
