data_PCOD8219153
_publ_section_title
;
Structure prediction by ZEFSAII (Michael W. Deem and Ramdas Pophale) SiO2 
 PCOD8219153
Probable space group: P M N A
;
_chemical_formula_sum "Si O2"
_cell_formula_units_Z 64
_cell_length_a 9.027323
_cell_length_b 20.411011
_cell_length_c 19.110002
_cell_angle_alpha 90.000000
_cell_angle_beta 90.000000
_cell_angle_gamma 90.000000
_cell_volume 3521.147607
_symmetry_space_group_name_H-M "P M N A"
_symmetry_group_IT_number 53
_symmetry_cell_setting 'orthorhombic'
loop_
_space_group_symop_operation_xyz
x,y,z
1/2-x,-y,1/2+z
x,-y,-z
1/2-x,y,1/2-z
-x,-y,-z
1/2+x,y,1/2-z
-x,y,z
1/2+x,-y,1/2+z
loop_
_atom_site_type_symbol
_atom_site_label
_atom_site_fract_x
_atom_site_fract_y
_atom_site_fract_z
Si Si1 0.171120 0.636386 0.681116
Si Si2 0.671462 0.678503 0.969730
Si Si3 0.825106 0.486540 0.679338
Si Si4 0.826475 0.989564 0.820985
Si Si5 0.672104 0.815165 0.042931
Si Si6 0.674213 0.140665 0.678175
Si Si7 0.326429 0.437713 0.546175
Si Si8 0.172182 0.061675 0.452288
O O1 0.250000 0.665440 0.750000
O O2 0.209141 0.680020 0.613149
O O3 0.222292 0.561866 0.665719
O O4 0.000000 0.637822 0.699275
O O5 0.500000 0.657764 0.980498
O O6 0.705587 0.748996 0.001509
O O7 0.778447 0.627548 0.006829
O O8 0.750000 0.460750 0.750000
O O9 0.762977 0.441179 0.618108
O O10 0.000000 0.477703 0.684306
O O11 0.750000 0.965974 0.750000
O O12 0.766913 0.943145 0.882015
O O13 0.000000 0.979916 0.812890
O O14 0.784839 0.065033 0.836944
O O15 0.500000 0.823001 0.062211
O O16 0.763951 0.815650 0.114774
O O17 0.724524 0.873797 0.992921
O O18 0.750000 0.164332 0.750000
O O19 0.500000 0.151657 0.685157
O O20 0.282293 0.500000 0.500000
O O21 0.500000 0.435468 0.562142
O O22 0.000000 0.064494 0.432010
O O23 0.209504 0.000000 0.500000
#
# Coordination Sequence:
#
# PCOD8219153 Si02
#       8
#     8   8   8   8   8   8   8   8
#     4   9  18  32  53  79 106 139 179 221 267 321
#     4  10  21  38  57  80 111 149 187 225 273 330
#     4  10  19  33  55  82 112 143 180 226 275 325
#     4  10  20  33  53  81 111 144 183 231 279 330
#     4  10  21  37  57  81 112 148 186 226 274 330
#     4  10  20  34  55  81 110 142 183 229 276 330
#     4  11  22  35  55  83 112 142 181 226 272 324
#     4  10  19  33  55  81 110 144 181 225 275 327
#
# _framework density 18.175894
#
# number of rings (size 3 to 8) (size 9 to 14) (size 15 to 20)
#    0.000    2.000    2.500    1.500    0.000    3.750 
#    0.000    1.250    0.000    4.500    0.000    0.000 
#    0.000    0.000    0.000    0.000    0.000    0.000 
#
# Total GULP energy -793863.969515 kJ/mol
# GULP energy per Si atom -12404.124524 kJ/mol
# Density = 1.813452 g / cm^3
# Si number density = 18.175894 Si / 1000 Ang^3
#
#
#
# Elastic Constant Matrix: (Units=GPa)
#
#
# Indices 1 2 3 4 5 6 
#
# 1 76.2015 35.2387 66.5675 0.0000 0.0000 0.0000
# 2 35.2387 81.6455 52.8150 0.0000 0.0000 0.0000
# 3 66.5675 52.8150 158.5214 0.0000 0.0000 0.0000
# 4 0.0000 0.0000 0.0000 27.8439 0.0000 0.0000
# 5 0.0000 0.0000 0.0000 0.0000 39.4156 0.0000
# 6 0.0000 0.0000 0.0000 0.0000 0.0000 10.3864
#
#
#
# Elastic Compliance Matrix: (Units=1/GPa)
#
#
# Indices 1 2 3 4 5 6 
#
# 1 0.021937 -0.004473 -0.007722 0.000000 0.000000 0.000000
# 2 -0.004473 0.016525 -0.003627 0.000000 0.000000 0.000000
# 3 -0.007722 -0.003627 0.010759 0.000000 0.000000 0.000000
# 4 0.000000 0.000000 0.000000 0.035914 0.000000 0.000000
# 5 0.000000 0.000000 0.000000 0.000000 0.025371 0.000000
# 6 0.000000 0.000000 0.000000 0.000000 0.000000 0.096280
#
#
# Mechanical properties :
#
#
# Convention : Reuss Voigt Hill
#
# Bulk Modulus (GPa) = 56.89148 69.51229 63.20189
# Shear Modulus (GPa) = 20.46746 26.31231 23.38988
#
# Velocity S-wave (km/s) = 3.35935 3.80893 3.59118
# Velocity P-wave (km/s) = 6.81289 7.59415 7.21410
#
# Compressibility (1/GPa) = 0.01757733
#
# Stress axis : x y z
#
# Youngs Moduli (GPa) = 45.58481 60.51371 92.94227
#
# Poissons Ratio (x) = 0.27069 0.71767
# Poissons Ratio (y) = 0.20391 0.33713
# Poissons Ratio (z) = 0.35199 0.21950
#
# Static dielectric constant tensor:
#      x y z
#    x 3.301250 0.000000 0.000000 
#    y 0.000000 3.156150 0.000000 
#    z 0.000000 0.000000 3.462440 
# 
# 
# High freq. dielectric constant tensor:
#      x y z
#    x 1.707640 0.000000 0.000000 
#    y 0.000000 1.673390 0.000000 
#    z 0.000000 0.000000 1.718240 
# 
# From -- ./inp_files/26768.got.cif
#   From: 2010.03.12/outbox.cif.g09.slc.cpg/sg53_14_cif.got.tgz:26768.got - 2010.04.16 14:36:59.
