data_PCOD8219281
_publ_section_title
;
Structure prediction by ZEFSAII (Michael W. Deem and Ramdas Pophale) SiO2 
 PCOD8219281
Probable space group: P M N A
;
_chemical_formula_sum "Si O2"
_cell_formula_units_Z 64
_cell_length_a 8.612063
_cell_length_b 14.819065
_cell_length_c 24.115397
_cell_angle_alpha 90.000000
_cell_angle_beta 90.000000
_cell_angle_gamma 90.000000
_cell_volume 3077.672592
_symmetry_space_group_name_H-M "P M N A"
_symmetry_group_IT_number 53
_symmetry_cell_setting 'orthorhombic'
loop_
_space_group_symop_operation_xyz
x,y,z
1/2-x,-y,1/2+z
x,-y,-z
1/2-x,y,1/2-z
-x,-y,-z
1/2+x,y,1/2-z
-x,y,z
1/2+x,-y,1/2+z
loop_
_atom_site_type_symbol
_atom_site_label
_atom_site_fract_x
_atom_site_fract_y
_atom_site_fract_z
Si Si1 0.183970 0.817530 0.381954
Si Si2 0.818238 0.854616 0.885722
Si Si3 0.321864 0.534789 0.846062
Si Si4 0.184862 0.215734 0.494686
Si Si5 0.816195 0.013312 0.687956
Si Si6 0.321597 0.724273 0.805879
Si Si7 0.814921 0.584633 0.535211
Si Si8 0.315951 0.345366 0.808014
O O1 0.242658 0.820796 0.445529
O O2 0.250512 0.899770 0.345152
O O3 0.240269 0.723671 0.355194
O O4 0.000000 0.822425 0.381846
O O5 0.758999 0.851208 0.949042
O O6 0.775663 0.758505 0.858467
O O7 0.000000 0.873933 0.884553
O O8 0.730602 0.927831 0.848606
O O9 0.500000 0.510670 0.858366
O O10 0.305981 0.616024 0.802374
O O11 0.246313 0.567728 0.903560
O O12 0.243362 0.443901 0.822335
O O13 0.245397 0.318953 0.487712
O O14 0.000000 0.211209 0.488718
O O15 0.750000 0.008775 0.750000
O O16 0.000000 0.017118 0.693210
O O17 0.250000 0.766366 0.750000
O O18 0.500000 0.754733 0.812052
O O19 0.752587 0.500000 0.500000
O O20 0.000000 0.588033 0.534916
O O21 0.250000 0.310761 0.750000
O O22 0.500000 0.348446 0.803401
#
# Coordination Sequence:
#
# PCOD8219281 Si02
#       8
#     8   8   8   8   8   8   8   8
#     4   9  20  37  62  91 118 152 195 246 296 348
#     4  12  25  41  60  86 118 155 195 242 297 352
#     4   9  17  29  49  81 116 151 191 236 285 339
#     4  10  19  37  62  89 120 155 198 243 292 350
#     4  11  23  42  65  91 120 153 196 244 298 357
#     4  11  21  36  56  83 116 154 194 237 288 345
#     4   9  15  26  51  84 114 149 196 244 283 330
#     4  10  19  34  55  84 120 155 197 243 292 349
#
# _framework density 20.794934000000001
#
# number of rings (size 3 to 8) (size 9 to 14) (size 15 to 20)
#    0.000    1.875    1.250    3.750    0.000    3.500 
#    0.000    5.625    0.000    0.375    0.000    0.000 
#    0.000    0.000    0.000    0.000    0.000    0.000 
#
# Total GULP energy -793460.552111 kJ/mol
# GULP energy per Si atom -12397.821127 kJ/mol
# Density = 2.074760 g / cm^3
# Si number density = 20.794934 Si / 1000 Ang^3
#
#
#
# Elastic Constant Matrix: (Units=GPa)
#
#
# Indices 1 2 3 4 5 6 
#
# 1 45.4436 21.8408 29.9659 0.0000 0.0000 0.0000
# 2 21.8408 111.1148 60.2160 0.0000 0.0000 0.0000
# 3 29.9659 60.2160 174.6397 0.0000 0.0000 0.0000
# 4 0.0000 0.0000 0.0000 38.5619 0.0000 0.0000
# 5 0.0000 0.0000 0.0000 0.0000 27.8700 0.0000
# 6 0.0000 0.0000 0.0000 0.0000 0.0000 12.2488
#
#
#
# Elastic Compliance Matrix: (Units=1/GPa)
#
#
# Indices 1 2 3 4 5 6 
#
# 1 0.025749 -0.003280 -0.003287 0.000000 0.000000 0.000000
# 2 -0.003280 0.011486 -0.003397 0.000000 0.000000 0.000000
# 3 -0.003287 -0.003397 0.007462 0.000000 0.000000 0.000000
# 4 0.000000 0.000000 0.000000 0.025932 0.000000 0.000000
# 5 0.000000 0.000000 0.000000 0.000000 0.035881 0.000000
# 6 0.000000 0.000000 0.000000 0.000000 0.000000 0.081641
#
#
# Mechanical properties :
#
#
# Convention : Reuss Voigt Hill
#
# Bulk Modulus (GPa) = 40.37593 61.69370 51.03482
# Shear Modulus (GPa) = 23.11226 30.34782 26.73004
#
# Velocity S-wave (km/s) = 3.33744 3.82433 3.58915
# Velocity P-wave (km/s) = 5.85745 7.01661 6.46307
#
# Compressibility (1/GPa) = 0.02476723
#
# Stress axis : x y z
#
# Youngs Moduli (GPa) = 38.83593 87.06590 134.01956
#
# Poissons Ratio (x) = 0.28556 0.44057
# Poissons Ratio (y) = 0.12737 0.45533
# Poissons Ratio (z) = 0.12767 0.29580
#
# Static dielectric constant tensor:
#      x y z
#    x 3.273140 0.000000 0.000000 
#    y 0.000000 3.933230 0.000000 
#    z 0.000000 0.000000 3.936990 
# 
# 
# High freq. dielectric constant tensor:
#      x y z
#    x 1.765100 0.000000 0.000000 
#    y 0.000000 1.820870 0.000000 
#    z 0.000000 0.000000 1.829450 
# 
# From -- ./inp_files/34281.got.cif
#   From: 2010.03.12/outbox.cif.g09.slc.cpg/sg53_18_cif.got.tgz:34281.got - 2010.04.16 14:36:59.
