data_PCOD8220587
_publ_section_title
;
Structure prediction by ZEFSAII (Michael W. Deem and Ramdas Pophale) SiO2 
 PCOD8220587
Probable space group: P M N A
;
_chemical_formula_sum "Si O2"
_cell_formula_units_Z 48
_cell_length_a 8.624339
_cell_length_b 17.220142
_cell_length_c 15.743737
_cell_angle_alpha 90.000000
_cell_angle_beta 90.000000
_cell_angle_gamma 90.000000
_cell_volume 2338.139257
_symmetry_space_group_name_H-M "P M N A"
_symmetry_group_IT_number 53
_symmetry_cell_setting 'orthorhombic'
loop_
_space_group_symop_operation_xyz
x,y,z
1/2-x,-y,1/2+z
x,-y,-z
1/2-x,y,1/2-z
-x,-y,-z
1/2+x,y,1/2-z
-x,y,z
1/2+x,-y,1/2+z
loop_
_atom_site_type_symbol
_atom_site_label
_atom_site_fract_x
_atom_site_fract_y
_atom_site_fract_z
Si Si1 0.680824 0.909545 0.493083
Si Si2 0.180313 0.652653 0.661352
Si Si3 0.668159 0.492309 0.403881
Si Si4 0.183109 0.187946 0.655532
Si Si5 0.182669 0.816058 0.842440
Si Si6 0.815748 0.655536 0.157884
O O1 0.500000 0.891238 0.479573
O O2 0.772461 0.879425 0.410619
O O3 0.740160 0.872271 0.582072
O O4 0.715171 0.000000 0.500000
O O5 0.250000 0.625263 0.750000
O O6 0.213307 0.579139 0.602043
O O7 0.265894 0.729851 0.629751
O O8 0.000000 0.671152 0.667276
O O9 0.625542 0.500000 0.500000
O O10 0.500000 0.478124 0.356846
O O11 0.748756 0.572745 0.374129
O O12 0.250000 0.170156 0.750000
O O13 0.249061 0.267692 0.611391
O O14 0.000000 0.193998 0.664622
O O15 0.250000 0.839895 0.750000
O O16 0.000000 0.818781 0.832787
O O17 0.750000 0.668632 0.250000
O O18 0.000000 0.656048 0.152440
#
# Coordination Sequence:
#
# PCOD8220587 Si02
#       6
#     8   8   8   8   8   8
#     4  10  23  43  66  93 125 161 199 245 306 368
#     4  11  22  37  58  83 114 153 198 244 292 348
#     4  10  22  37  54  81 116 156 197 241 295 348
#     4  11  23  40  64  92 125 162 205 252 302 362
#     4  10  21  39  64  90 122 160 201 249 300 360
#     4  10  20  36  58  82 112 153 199 245 295 351
#
# _framework density 20.529146000000001
#
# number of rings (size 3 to 8) (size 9 to 14) (size 15 to 20)
#    0.000    1.667    0.000    6.500    2.333    5.333 
#    0.000    1.667    0.000    0.000    0.000    0.000 
#    0.000    0.000    0.000    0.000    0.000    0.000 
#
# Total GULP energy -594913.312340 kJ/mol
# GULP energy per Si atom -12394.027340 kJ/mol
# Density = 2.048242 g / cm^3
# Si number density = 20.529146 Si / 1000 Ang^3
#
#
#
# Elastic Constant Matrix: (Units=GPa)
#
#
# Indices 1 2 3 4 5 6 
#
# 1 90.6880 34.7940 39.6984 0.0000 0.0000 0.0000
# 2 34.7940 134.4853 64.4738 0.0000 0.0000 0.0000
# 3 39.6984 64.4738 97.7599 0.0000 0.0000 0.0000
# 4 0.0000 0.0000 0.0000 39.4253 0.0000 0.0000
# 5 0.0000 0.0000 0.0000 0.0000 28.0092 0.0000
# 6 0.0000 0.0000 0.0000 0.0000 0.0000 -6.2590
#
#
#
# Elastic Compliance Matrix: (Units=1/GPa)
#
#
# Indices 1 2 3 4 5 6 
#
# 1 0.013557 -0.001270 -0.004668 0.000000 0.000000 0.000000
# 2 -0.001270 0.010993 -0.006734 0.000000 0.000000 0.000000
# 3 -0.004668 -0.006734 0.016566 0.000000 0.000000 0.000000
# 4 0.000000 0.000000 0.000000 0.025364 0.000000 0.000000
# 5 0.000000 0.000000 0.000000 0.000000 0.035703 0.000000
# 6 0.000000 0.000000 0.000000 0.000000 0.000000 -0.159770
#
#
# Mechanical properties :
#
#
# Convention : Reuss Voigt Hill
#
# Bulk Modulus (GPa) = 63.40239 66.76285 65.08262
# Shear Modulus (GPa) = -185.28140 24.49957 -80.39091
#
# Velocity S-wave (km/s) = -9.51046 3.45832 -6.26454
# Velocity P-wave (km/s) = 9.46822 6.96694 4.53371
#
# Compressibility (1/GPa) = 0.01577228
#
# Stress axis : x y z
#
# Youngs Moduli (GPa) = 73.76069 90.96933 60.36440
#
# Poissons Ratio (x) = 0.11550 0.28178
# Poissons Ratio (y) = 0.09365 0.40651
# Poissons Ratio (z) = 0.34432 0.61261
#
# Static dielectric constant tensor:
#      x y z
#    x 3.655930 0.000000 0.000000 
#    y 0.000000 -12.577870 0.000000 
#    z 0.000000 0.000000 3.701090 
# 
# 
# High freq. dielectric constant tensor:
#      x y z
#    x 1.803310 0.000000 0.000000 
#    y 0.000000 1.810290 0.000000 
#    z 0.000000 0.000000 1.796990 
# 
# From -- ./inp_files/20184.got.cif
#   From: 2010.03.12/outbox.cif.g09.slc.cpg/sg53_11_cif.got.tgz:20184.got - 2010.04.16 14:36:59.
