data_PCOD8220669
_publ_section_title
;
Structure prediction by ZEFSAII (Michael W. Deem and Ramdas Pophale) SiO2 
 PCOD8220669
Probable space group: P M N A
;
_chemical_formula_sum "Si O2"
_cell_formula_units_Z 48
_cell_length_a 8.703490
_cell_length_b 17.315445
_cell_length_c 16.003260
_cell_angle_alpha 90.000000
_cell_angle_beta 90.000000
_cell_angle_gamma 90.000000
_cell_volume 2411.768136
_symmetry_space_group_name_H-M "P M N A"
_symmetry_group_IT_number 53
_symmetry_cell_setting 'orthorhombic'
loop_
_space_group_symop_operation_xyz
x,y,z
1/2-x,-y,1/2+z
x,-y,-z
1/2-x,y,1/2-z
-x,-y,-z
1/2+x,y,1/2-z
-x,y,z
1/2+x,-y,1/2+z
loop_
_atom_site_type_symbol
_atom_site_label
_atom_site_fract_x
_atom_site_fract_y
_atom_site_fract_z
Si Si1 0.679521 0.146582 0.161533
Si Si2 0.182760 0.587435 0.500751
Si Si3 0.682412 0.683087 0.159548
Si Si4 0.167487 0.989050 0.405637
Si Si5 0.319516 0.684255 0.842235
Si Si6 0.180091 0.846576 0.162909
O O1 0.750000 0.158735 0.250000
O O2 0.500000 0.131637 0.165337
O O3 0.751914 0.068854 0.122583
O O4 0.715211 0.229769 0.119220
O O5 0.243798 0.500000 0.500000
O O6 0.241388 0.627484 0.414935
O O7 0.246677 0.627269 0.585893
O O8 0.000000 0.591486 0.502407
O O9 0.750000 0.657873 0.250000
O O10 0.500000 0.682036 0.167426
O O11 0.737117 0.768470 0.133774
O O12 0.000000 0.973815 0.360862
O O13 0.127494 0.000000 0.500000
O O14 0.283159 0.917251 0.398293
O O15 0.250000 0.667880 0.750000
O O16 0.500000 0.672449 0.830376
O O17 0.250000 0.874544 0.250000
O O18 0.000000 0.830768 0.168858
#
# Coordination Sequence:
#
# PCOD8220669 Si02
#       6
#     8   8   8   8   8   8
#     4   9  18  32  51  74 100 137 178 220 262 315
#     4   9  19  35  58  86 113 145 184 226 276 339
#     4  10  20  36  60  84 113 149 189 234 282 337
#     4  10  21  34  52  78 109 143 184 225 273 328
#     4   9  18  34  56  81 110 143 183 223 270 325
#     4  11  22  37  56  78 108 144 188 232 279 330
#
# _framework density 19.90241
#
# number of rings (size 3 to 8) (size 9 to 14) (size 15 to 20)
#    0.000    2.333    0.000    3.500    2.333    3.000 
#    0.000    1.667    0.000    3.500    0.000    0.000 
#    0.000    0.000    0.000    0.000    0.000    0.000 
#
# Total GULP energy -594633.360880 kJ/mol
# GULP energy per Si atom -12388.195018 kJ/mol
# Density = 1.985711 g / cm^3
# Si number density = 19.902410 Si / 1000 Ang^3
#
#
#
# Elastic Constant Matrix: (Units=GPa)
#
#
# Indices 1 2 3 4 5 6 
#
# 1 50.2847 30.1798 28.5445 0.0000 0.0000 0.0000
# 2 30.1798 159.8589 79.0838 0.0000 0.0000 0.0000
# 3 28.5445 79.0838 111.7360 0.0000 0.0000 0.0000
# 4 0.0000 0.0000 0.0000 48.2441 0.0000 0.0000
# 5 0.0000 0.0000 0.0000 0.0000 24.7261 0.0000
# 6 0.0000 0.0000 0.0000 0.0000 0.0000 -60.2524
#
#
#
# Elastic Compliance Matrix: (Units=1/GPa)
#
#
# Indices 1 2 3 4 5 6 
#
# 1 0.023790 -0.002285 -0.004460 0.000000 0.000000 0.000000
# 2 -0.002285 0.009845 -0.006385 0.000000 0.000000 0.000000
# 3 -0.004460 -0.006385 0.014608 0.000000 0.000000 0.000000
# 4 0.000000 0.000000 0.000000 0.020728 0.000000 0.000000
# 5 0.000000 0.000000 0.000000 0.000000 0.040443 0.000000
# 6 0.000000 0.000000 0.000000 0.000000 0.000000 -0.016597
#
#
# Mechanical properties :
#
#
# Convention : Reuss Voigt Hill
#
# Bulk Modulus (GPa) = 45.48793 66.38843 55.93818
# Shear Modulus (GPa) = 39.55536 14.81499 27.18518
#
# Velocity S-wave (km/s) = 4.46294 2.73130 3.69985
# Velocity P-wave (km/s) = 7.03294 6.58605 6.81316
#
# Compressibility (1/GPa) = 0.02198385
#
# Stress axis : x y z
#
# Youngs Moduli (GPa) = 42.03452 101.57027 68.45548
#
# Poissons Ratio (x) = 0.23206 0.30534
# Poissons Ratio (y) = 0.09604 0.43706
# Poissons Ratio (z) = 0.18749 0.64849
#
# Static dielectric constant tensor:
#      x y z
#    x 3.376730 0.000000 0.000000 
#    y 0.000000 3.187840 0.000000 
#    z 0.000000 0.000000 1.831890 
# 
# 
# High freq. dielectric constant tensor:
#      x y z
#    x 1.751460 0.000000 0.000000 
#    y 0.000000 1.787010 0.000000 
#    z 0.000000 0.000000 1.771140 
# 
# From -- ./inp_files/20232.got.cif
#   From: 2010.03.12/outbox.cif.g09.slc.cpg/sg53_11_cif.got.tgz:20232.got - 2010.04.16 14:36:59.
