data_PCOD8220902
_publ_section_title
;
Structure prediction by ZEFSAII (Michael W. Deem and Ramdas Pophale) SiO2 
 PCOD8220902
Probable space group: P M N A
;
_chemical_formula_sum "Si O2"
_cell_formula_units_Z 56
_cell_length_a 17.955616
_cell_length_b 15.507625
_cell_length_c 10.498872
_cell_angle_alpha 90.000000
_cell_angle_beta 90.000000
_cell_angle_gamma 90.000000
_cell_volume 2923.399985
_symmetry_space_group_name_H-M "P M N A"
_symmetry_group_IT_number 53
_symmetry_cell_setting 'orthorhombic'
loop_
_space_group_symop_operation_xyz
x,y,z
1/2-x,-y,1/2+z
x,-y,-z
1/2-x,y,1/2-z
-x,-y,-z
1/2+x,y,1/2-z
-x,y,z
1/2+x,-y,1/2+z
loop_
_atom_site_type_symbol
_atom_site_label
_atom_site_fract_x
_atom_site_fract_y
_atom_site_fract_z
Si Si1 0.585117 0.849701 0.724149
Si Si2 0.915245 0.901040 0.490009
Si Si3 0.083451 0.333725 0.139582
Si Si4 0.187720 0.999601 0.142585
Si Si5 0.416982 0.659214 0.341188
Si Si6 0.336216 0.174500 0.757459
Si Si7 0.182898 0.496370 0.150864
O O1 0.500000 0.856656 0.678203
O O2 0.617887 0.755677 0.690886
O O3 0.628529 0.923973 0.649998
O O4 0.592587 0.857479 0.874280
O O5 0.857232 0.852189 0.400444
O O6 0.000000 0.893972 0.437351
O O7 0.891132 0.000000 0.500000
O O8 0.135780 0.411436 0.181986
O O9 0.000000 0.349376 0.194274
O O10 0.079989 0.326182 0.989717
O O11 0.250000 0.013868 0.250000
O O12 0.147602 0.907535 0.166252
O O13 0.222263 0.000000 0.000000
O O14 0.500000 0.641996 0.287627
O O15 0.385950 0.745000 0.278110
O O16 0.366258 0.577819 0.308927
O O17 0.250000 0.201499 0.750000
O O18 0.250000 0.495445 0.250000
O O19 0.206575 0.500000 0.000000
#
# Coordination Sequence:
#
# PCOD8220902 Si02
#       7
#     8   8   8   8   8   8   8
#     4  10  21  38  61  87 119 155 204 253 294 353
#     4  10  20  38  60  83 117 168 209 243 298 363
#     4   9  19  38  61  87 114 149 198 245 291 348
#     4  11  25  38  57  84 120 160 199 248 305 356
#     4  10  20  38  63  86 115 155 200 245 294 351
#     4  11  23  35  56  84 123 156 202 251 300 353
#     4  10  21  40  64  92 120 154 189 236 297 355
#
# _framework density 19.155778000000002
#
# number of rings (size 3 to 8) (size 9 to 14) (size 15 to 20)
#    0.000    1.857    1.429    2.143    4.000    3.143 
#    7.714    0.000    0.000    0.857    0.000    0.000 
#    0.000    0.000    0.000    0.000    0.000    0.000 
#
# Total GULP energy -694380.453760 kJ/mol
# GULP energy per Si atom -12399.650960 kJ/mol
# Density = 1.911218 g / cm^3
# Si number density = 19.155778 Si / 1000 Ang^3
#
#
#
# Elastic Constant Matrix: (Units=GPa)
#
#
# Indices 1 2 3 4 5 6 
#
# 1 111.4742 63.9191 60.3675 0.0000 0.0000 0.0000
# 2 63.9191 158.5589 52.2720 0.0000 0.0000 0.0000
# 3 60.3675 52.2720 66.7826 0.0000 0.0000 0.0000
# 4 0.0000 0.0000 0.0000 28.9413 0.0000 0.0000
# 5 0.0000 0.0000 0.0000 0.0000 28.8764 0.0000
# 6 0.0000 0.0000 0.0000 0.0000 0.0000 97.9853
#
#
#
# Elastic Compliance Matrix: (Units=1/GPa)
#
#
# Indices 1 2 3 4 5 6 
#
# 1 0.018334 -0.002598 -0.014540 0.000000 0.000000 0.000000
# 2 -0.002598 0.008868 -0.004593 0.000000 0.000000 0.000000
# 3 -0.014540 -0.004593 0.031712 0.000000 0.000000 0.000000
# 4 0.000000 0.000000 0.000000 0.034553 0.000000 0.000000
# 5 0.000000 0.000000 0.000000 0.000000 0.034630 0.000000
# 6 0.000000 0.000000 0.000000 0.000000 0.000000 0.010206
#
#
# Mechanical properties :
#
#
# Convention : Reuss Voigt Hill
#
# Bulk Modulus (GPa) = 64.71076 76.65919 70.68497
# Shear Modulus (GPa) = 26.75019 41.84440 34.29729
#
# Velocity S-wave (km/s) = 3.74097 4.67886 4.23595
# Velocity P-wave (km/s) = 7.24669 8.32434 7.80414
#
# Compressibility (1/GPa) = 0.01545338
#
# Stress axis : x y z
#
# Youngs Moduli (GPa) = 54.54396 112.76236 31.53380
#
# Poissons Ratio (x) = 0.29291 0.45849
# Poissons Ratio (y) = 0.14168 0.14484
# Poissons Ratio (z) = 0.79304 0.51794
#
# Static dielectric constant tensor:
#      x y z
#    x 3.654710 0.000000 0.000000 
#    y 0.000000 3.529130 0.000000 
#    z 0.000000 0.000000 3.271560 
# 
# 
# High freq. dielectric constant tensor:
#      x y z
#    x 1.746420 0.000000 0.000000 
#    y 0.000000 1.755910 0.000000 
#    z 0.000000 0.000000 1.736590 
# 
# From -- ./inp_files/11068.got.cif
#   From: 2010.03.12/outbox.cif.g09.slc.cpg/sg53_6_cif.got.tgz:11068.got - 2010.04.16 14:36:59.
