data_PCOD8220378
_publ_section_title
;
Structure prediction by ZEFSAII (Michael W. Deem and Ramdas Pophale) SiO2 
 PCOD8220378
Probable space group: P M N A
;
_chemical_formula_sum "Si O2"
_cell_formula_units_Z 40
_cell_length_a 9.131492
_cell_length_b 10.635565
_cell_length_c 19.055219
_cell_angle_alpha 90.000000
_cell_angle_beta 90.000000
_cell_angle_gamma 90.000000
_cell_volume 1850.615748
_symmetry_space_group_name_H-M "P M N A"
_symmetry_group_IT_number 53
_symmetry_cell_setting 'orthorhombic'
loop_
_space_group_symop_operation_xyz
x,y,z
1/2-x,-y,1/2+z
x,-y,-z
1/2-x,y,1/2-z
-x,-y,-z
1/2+x,y,1/2-z
-x,y,z
1/2+x,-y,1/2+z
loop_
_atom_site_type_symbol
_atom_site_label
_atom_site_fract_x
_atom_site_fract_y
_atom_site_fract_z
Si Si1 0.830645 0.996871 0.822834
Si Si2 0.667896 0.125730 0.463885
Si Si3 0.832899 0.490105 0.320792
Si Si4 0.329723 0.374975 0.036389
Si Si5 0.327460 0.767105 0.175286
O O1 0.750000 0.959512 0.750000
O O2 0.816815 0.884416 0.879140
O O3 0.000000 0.026584 0.806198
O O4 0.755125 0.117389 0.863051
O O5 0.500000 0.143216 0.486612
O O6 0.753750 0.248566 0.491177
O O7 0.731992 0.000000 0.500000
O O8 0.750000 0.455112 0.250000
O O9 0.802291 0.386683 0.380031
O O10 0.794770 0.627624 0.354788
O O11 0.000000 0.492384 0.297339
O O12 0.500000 0.362934 0.017034
O O13 0.264245 0.500000 0.000000
O O14 0.250000 0.772318 0.250000
O O15 0.500000 0.794921 0.179218
#
# Coordination Sequence:
#
# PCOD8220378 Si02
#       5
#     8   8   8   8   8
#     4  10  20  35  57  85 118 152 193 244 293 346
#     4  10  24  44  62  86 120 158 201 246 294 353
#     4   9  19  35  56  86 120 153 193 242 292 348
#     4  10  23  42  63  89 121 156 198 247 298 354
#     4   9  16  28  50  81 116 150 187 230 284 343
#
# _framework density 21.614428
#
# number of rings (size 3 to 8) (size 9 to 14) (size 15 to 20)
#    0.000    2.400    0.000    2.400    2.800    4.800 
#    0.000    4.000    0.000    0.000    0.000    0.000 
#    0.000    0.000    0.000    0.000    0.000    0.000 
#
# Total GULP energy -495664.886622 kJ/mol
# GULP energy per Si atom -12391.622166 kJ/mol
# Density = 2.156523 g / cm^3
# Si number density = 21.614428 Si / 1000 Ang^3
#
#
#
# Elastic Constant Matrix: (Units=GPa)
#
#
# Indices 1 2 3 4 5 6 
#
# 1 98.4058 52.8029 26.7788 0.0000 0.0000 0.0000
# 2 52.8029 140.9810 34.1461 0.0000 0.0000 0.0000
# 3 26.7788 34.1461 51.6672 0.0000 0.0000 0.0000
# 4 0.0000 0.0000 0.0000 38.1058 0.0000 0.0000
# 5 0.0000 0.0000 0.0000 0.0000 21.0706 0.0000
# 6 0.0000 0.0000 0.0000 0.0000 0.0000 24.8665
#
#
#
# Elastic Compliance Matrix: (Units=1/GPa)
#
#
# Indices 1 2 3 4 5 6 
#
# 1 0.013492 -0.004000 -0.004349 0.000000 0.000000 0.000000
# 2 -0.004000 0.009631 -0.004292 0.000000 0.000000 0.000000
# 3 -0.004349 -0.004292 0.024445 0.000000 0.000000 0.000000
# 4 0.000000 0.000000 0.000000 0.026243 0.000000 0.000000
# 5 0.000000 0.000000 0.000000 0.000000 0.047459 0.000000
# 6 0.000000 0.000000 0.000000 0.000000 0.000000 0.040215
#
#
# Mechanical properties :
#
#
# Convention : Reuss Voigt Hill
#
# Bulk Modulus (GPa) = 44.87114 57.61219 51.24167
# Shear Modulus (GPa) = 25.74734 28.63035 27.18884
#
# Velocity S-wave (km/s) = 3.45514 3.64345 3.55054
# Velocity P-wave (km/s) = 6.05988 6.66423 6.36923
#
# Compressibility (1/GPa) = 0.02228604
#
# Stress axis : x y z
#
# Youngs Moduli (GPa) = 74.11915 103.83462 40.90783
#
# Poissons Ratio (x) = 0.41532 0.17792
# Poissons Ratio (y) = 0.29646 0.17557
# Poissons Ratio (z) = 0.32237 0.44563
#
# Static dielectric constant tensor:
#      x y z
#    x 3.769510 0.000000 0.000000 
#    y 0.000000 4.813200 0.000000 
#    z 0.000000 0.000000 3.683090 
# 
# 
# High freq. dielectric constant tensor:
#      x y z
#    x 1.836710 0.000000 0.000000 
#    y 0.000000 1.847540 0.000000 
#    z 0.000000 0.000000 1.846840 
# 
# From -- ./inp_files/30374.got.cif
#   From: 2010.03.12/outbox.cif.g09.slc.cpg/sg53_16_cif.got.tgz:30374.got - 2010.04.16 14:36:59.
