data_PCOD8220150
_publ_section_title
;
Structure prediction by ZEFSAII (Michael W. Deem and Ramdas Pophale) SiO2 
 PCOD8220150
Probable space group: P M N A
;
_chemical_formula_sum "Si O2"
_cell_formula_units_Z 56
_cell_length_a 8.906090
_cell_length_b 20.619162
_cell_length_c 15.371255
_cell_angle_alpha 90.000000
_cell_angle_beta 90.000000
_cell_angle_gamma 90.000000
_cell_volume 2822.717512
_symmetry_space_group_name_H-M "P M N A"
_symmetry_group_IT_number 53
_symmetry_cell_setting 'orthorhombic'
loop_
_space_group_symop_operation_xyz
x,y,z
1/2-x,-y,1/2+z
x,-y,-z
1/2-x,y,1/2-z
-x,-y,-z
1/2+x,y,1/2-z
-x,y,z
1/2+x,-y,1/2+z
loop_
_atom_site_type_symbol
_atom_site_label
_atom_site_fract_x
_atom_site_fract_y
_atom_site_fract_z
Si Si1 0.828592 0.013079 0.403005
Si Si2 0.677373 0.210663 0.513255
Si Si3 0.822948 0.348322 0.514803
Si Si4 0.324019 0.860216 0.661737
Si Si5 0.831414 0.465953 0.907503
Si Si6 0.676377 0.414685 0.164638
Si Si7 0.672579 0.871461 0.161198
O O1 0.815978 0.948795 0.345405
O O2 0.000000 0.038144 0.408514
O O3 0.766780 0.000000 0.500000
O O4 0.728852 0.067006 0.357075
O O5 0.500000 0.216543 0.524713
O O6 0.753003 0.278913 0.533032
O O7 0.721683 0.187551 0.416535
O O8 0.740316 0.158502 0.580189
O O9 0.754265 0.397580 0.585487
O O10 0.779427 0.370701 0.417571
O O11 0.000000 0.346089 0.528268
O O12 0.250000 0.833192 0.750000
O O13 0.500000 0.862188 0.675992
O O14 0.741818 0.512655 0.842569
O O15 0.000000 0.454389 0.872424
O O16 0.835089 0.500000 0.000000
O O17 0.750000 0.381842 0.250000
O O18 0.500000 0.419624 0.176288
O O19 0.750000 0.847877 0.250000
O O20 0.500000 0.848244 0.160266
#
# Coordination Sequence:
#
# PCOD8220150 Si02
#       7
#     8   8   8   8   8   8   8
#     4  10  20  37  62  90 118 151 191 241 300 357
#     4  11  24  41  60  85 117 157 203 247 294 352
#     4  10  21  37  58  82 112 152 192 233 284 341
#     4  11  24  39  59  86 119 157 198 246 298 356
#     4   9  17  32  55  81 109 142 180 223 270 323
#     4  10  20  34  55  85 118 150 188 233 282 337
#     4  11  23  40  63  88 117 152 194 244 299 357
#
# _framework density 19.839037000000001
#
# number of rings (size 3 to 8) (size 9 to 14) (size 15 to 20)
#    0.000    1.714    1.429    3.000    0.000    8.286 
#    0.000    3.571    0.000    0.000    0.000    0.000 
#    0.000    0.000    0.000    0.000    0.000    0.000 
#
# Total GULP energy -694633.372249 kJ/mol
# GULP energy per Si atom -12404.167362 kJ/mol
# Density = 1.979388 g / cm^3
# Si number density = 19.839037 Si / 1000 Ang^3
#
#
#
# Elastic Constant Matrix: (Units=GPa)
#
#
# Indices 1 2 3 4 5 6 
#
# 1 82.5285 21.9217 21.7057 0.0000 0.0000 0.0000
# 2 21.9217 71.1261 -9.8706 0.0000 0.0000 0.0000
# 3 21.7057 -9.8706 62.5544 0.0000 0.0000 0.0000
# 4 0.0000 0.0000 0.0000 16.8200 0.0000 0.0000
# 5 0.0000 0.0000 0.0000 0.0000 34.7413 0.0000
# 6 0.0000 0.0000 0.0000 0.0000 0.0000 30.9666
#
#
#
# Elastic Compliance Matrix: (Units=1/GPa)
#
#
# Indices 1 2 3 4 5 6 
#
# 1 0.015206 -0.005540 -0.006151 0.000000 0.000000 0.000000
# 2 -0.005540 0.016393 0.004509 0.000000 0.000000 0.000000
# 3 -0.006151 0.004509 0.018832 0.000000 0.000000 0.000000
# 4 0.000000 0.000000 0.000000 0.059453 0.000000 0.000000
# 5 0.000000 0.000000 0.000000 0.000000 0.028784 0.000000
# 6 0.000000 0.000000 0.000000 0.000000 0.000000 0.032293
#
#
# Mechanical properties :
#
#
# Convention : Reuss Voigt Hill
#
# Bulk Modulus (GPa) = 27.72598 31.52474 29.62536
# Shear Modulus (GPa) = 25.33607 28.66906 27.00257
#
# Velocity S-wave (km/s) = 3.57751 3.80555 3.69329
# Velocity P-wave (km/s) = 5.57409 5.93585 5.75782
#
# Compressibility (1/GPa) = 0.03606726
#
# Stress axis : x y z
#
# Youngs Moduli (GPa) = 65.76199 61.00219 53.10169
#
# Poissons Ratio (x) = 0.33797 0.32661
# Poissons Ratio (y) = 0.36434 -0.23944
# Poissons Ratio (z) = 0.40448 -0.27506
#
# Static dielectric constant tensor:
#      x y z
#    x 3.722780 0.000000 0.000000 
#    y 0.000000 3.477910 0.000000 
#    z 0.000000 0.000000 3.752110 
# 
# 
# High freq. dielectric constant tensor:
#      x y z
#    x 1.786160 0.000000 0.000000 
#    y 0.000000 1.762880 0.000000 
#    z 0.000000 0.000000 1.772010 
# 
# From -- ./inp_files/20592.got.cif
#   From: 2010.03.12/outbox.cif.g09.slc.cpg/sg53_11_cif.got.tgz:20592.got - 2010.04.16 14:36:59.
