data_PCOD8220704
_publ_section_title
;
Structure prediction by ZEFSAII (Michael W. Deem and Ramdas Pophale) SiO2 
 PCOD8220704
Probable space group: P M N A
;
_chemical_formula_sum "Si O2"
_cell_formula_units_Z 56
_cell_length_a 20.773572
_cell_length_b 15.002302
_cell_length_c 8.789716
_cell_angle_alpha 90.000000
_cell_angle_beta 90.000000
_cell_angle_gamma 90.000000
_cell_volume 2739.327304
_symmetry_space_group_name_H-M "P M N A"
_symmetry_group_IT_number 53
_symmetry_cell_setting 'orthorhombic'
loop_
_space_group_symop_operation_xyz
x,y,z
1/2-x,-y,1/2+z
x,-y,-z
1/2-x,y,1/2-z
-x,-y,-z
1/2+x,y,1/2-z
-x,y,z
1/2+x,-y,1/2+z
loop_
_atom_site_type_symbol
_atom_site_label
_atom_site_fract_x
_atom_site_fract_y
_atom_site_fract_z
Si Si1 0.928014 0.078647 0.109420
Si Si2 0.427229 0.247343 0.894103
Si Si3 0.623461 0.092790 0.068686
Si Si4 0.625157 0.227608 0.569343
Si Si5 0.739612 0.093632 0.570354
Si Si6 0.575957 0.596072 0.571406
Si Si7 0.076527 0.412987 0.418491
O O1 0.878780 0.086286 0.249212
O O2 0.000000 0.058426 0.169145
O O3 0.929904 0.170809 0.015326
O O4 0.903433 0.000000 0.000000
O O5 0.500000 0.267593 0.840615
O O6 0.383560 0.226056 0.749869
O O7 0.427347 0.165209 0.010254
O O8 0.397113 0.330507 0.984249
O O9 0.694466 0.119520 0.014074
O O10 0.600787 0.000000 0.000000
O O11 0.692078 0.176341 0.534643
O O12 0.619864 0.329462 0.511600
O O13 0.750000 0.080535 0.750000
O O14 0.713871 0.000000 0.500000
O O15 0.591057 0.500000 0.500000
O O16 0.500000 0.618687 0.554101
O O17 0.599699 0.593632 0.745199
O O18 0.105293 0.500000 0.500000
O O19 0.000000 0.414846 0.420353
#
# Coordination Sequence:
#
# PCOD8220704 Si02
#       7
#     8   8   8   8   8   8   8
#     4  11  24  39  59  93 134 169 206 267 340 404
#     4  11  21  35  59  90 124 163 206 259 332 397
#     4  11  24  41  62  85 120 164 214 266 318 387
#     4  12  23  38  62  91 128 167 213 268 326 379
#     4  11  26  46  67  91 120 170 228 283 319 380
#     4  10  20  36  61  96 135 173 213 262 330 404
#     4   9  18  34  56  85 124 165 205 250 306 383
#
# _framework density 20.442974
#
# number of rings (size 3 to 8) (size 9 to 14) (size 15 to 20)
#    0.000    1.286    1.429    4.714    6.000    5.714 
#    0.000    0.000    0.000    0.857    3.714    0.000 
#    0.000    0.000    0.000    0.000    0.000    0.000 
#
# Total GULP energy -694431.096979 kJ/mol
# GULP energy per Si atom -12400.555303 kJ/mol
# Density = 2.039645 g / cm^3
# Si number density = 20.442974 Si / 1000 Ang^3
#
#
#
# Elastic Constant Matrix: (Units=GPa)
#
#
# Indices 1 2 3 4 5 6 
#
# 1 69.2100 32.6020 44.0661 0.0000 0.0000 0.0000
# 2 32.6020 169.0798 67.7101 0.0000 0.0000 0.0000
# 3 44.0661 67.7101 169.3978 0.0000 0.0000 0.0000
# 4 0.0000 0.0000 0.0000 44.4136 0.0000 0.0000
# 5 0.0000 0.0000 0.0000 0.0000 67.2783 0.0000
# 6 0.0000 0.0000 0.0000 0.0000 0.0000 12.6422
#
#
#
# Elastic Compliance Matrix: (Units=1/GPa)
#
#
# Indices 1 2 3 4 5 6 
#
# 1 0.017805 -0.001879 -0.003880 0.000000 0.000000 0.000000
# 2 -0.001879 0.007240 -0.002405 0.000000 0.000000 0.000000
# 3 -0.003880 -0.002405 0.007874 0.000000 0.000000 0.000000
# 4 0.000000 0.000000 0.000000 0.022516 0.000000 0.000000
# 5 0.000000 0.000000 0.000000 0.000000 0.014864 0.000000
# 6 0.000000 0.000000 0.000000 0.000000 0.000000 0.079100
#
#
# Mechanical properties :
#
#
# Convention : Reuss Voigt Hill
#
# Bulk Modulus (GPa) = 60.27991 77.38266 68.83128
# Shear Modulus (GPa) = 29.19586 42.42076 35.80831
#
# Velocity S-wave (km/s) = 3.78320 4.56024 4.18978
# Velocity P-wave (km/s) = 6.97383 8.10326 7.55967
#
# Compressibility (1/GPa) = 0.01658928
#
# Stress axis : x y z
#
# Youngs Moduli (GPa) = 56.16506 138.12517 126.99991
#
# Poissons Ratio (x) = 0.25955 0.49282
# Poissons Ratio (y) = 0.10554 0.30544
# Poissons Ratio (z) = 0.21795 0.33219
#
# Static dielectric constant tensor:
#      x y z
#    x 3.314500 0.000000 0.000000 
#    y 0.000000 3.838300 0.000000 
#    z 0.000000 0.000000 3.747040 
# 
# 
# High freq. dielectric constant tensor:
#      x y z
#    x 1.763530 0.000000 0.000000 
#    y 0.000000 1.805930 0.000000 
#    z 0.000000 0.000000 1.818060 
# 
# From -- ./inp_files/11055.got.cif
#   From: 2010.03.12/outbox.cif.g09.slc.cpg/sg53_6_cif.got.tgz:11055.got - 2010.04.16 14:36:59.
