data_PCOD8220037
_publ_section_title
;
Structure prediction by ZEFSAII (Michael W. Deem and Ramdas Pophale) SiO2 
 PCOD8220037
Probable space group: P M N A
;
_chemical_formula_sum "Si O2"
_cell_formula_units_Z 48
_cell_length_a 8.839934
_cell_length_b 16.272006
_cell_length_c 18.014229
_cell_angle_alpha 90.000000
_cell_angle_beta 90.000000
_cell_angle_gamma 90.000000
_cell_volume 2591.229012
_symmetry_space_group_name_H-M "P M N A"
_symmetry_group_IT_number 53
_symmetry_cell_setting 'orthorhombic'
loop_
_space_group_symop_operation_xyz
x,y,z
1/2-x,-y,1/2+z
x,-y,-z
1/2-x,y,1/2-z
-x,-y,-z
1/2+x,y,1/2-z
-x,y,z
1/2+x,-y,1/2+z
loop_
_atom_site_type_symbol
_atom_site_label
_atom_site_fract_x
_atom_site_fract_y
_atom_site_fract_z
Si Si1 0.179344 0.842147 0.328133
Si Si2 0.175064 0.091438 0.971302
Si Si3 0.679474 0.347888 0.330237
Si Si4 0.178672 0.492395 0.916813
Si Si5 0.676808 0.238200 0.050870
Si Si6 0.173911 0.326769 0.600587
O O1 0.250000 0.868192 0.250000
O O2 0.248422 0.901266 0.390644
O O3 0.223074 0.747598 0.345629
O O4 0.000000 0.854124 0.327574
O O5 0.000000 0.116606 0.964969
O O6 0.257238 0.149547 0.030593
O O7 0.196592 0.000000 0.000000
O O8 0.750000 0.341278 0.250000
O O9 0.500000 0.345293 0.325172
O O10 0.738786 0.431983 0.367859
O O11 0.736979 0.270363 0.376988
O O12 0.231059 0.407490 0.879014
O O13 0.000000 0.493214 0.919906
O O14 0.246427 0.500000 0.000000
O O15 0.500000 0.229011 0.067681
O O16 0.707485 0.301219 0.983905
O O17 0.000000 0.348752 0.612357
#
# Coordination Sequence:
#
# PCOD8220037 Si02
#       6
#     8   8   8   8   8   8
#     4  10  21  37  57  85 118 152 188 231 286 336
#     4  10  21  38  62  90 117 148 186 227 276 337
#     4  11  23  38  55  78 111 148 190 238 287 335
#     4  10  20  34  53  78 107 146 192 235 280 329
#     4  10  20  36  58  83 110 144 185 227 276 332
#     4   9  19  33  53  80 108 143 185 227 274 330
#
# _framework density 18.524028999999999
#
# number of rings (size 3 to 8) (size 9 to 14) (size 15 to 20)
#    0.000    2.000    1.667    3.000    0.000    7.000 
#    0.000    4.167    0.000    4.000    0.000    0.000 
#    0.000    0.000    0.000    0.000    0.000    0.000 
#
# Total GULP energy -595367.245712 kJ/mol
# GULP energy per Si atom -12403.484286 kJ/mol
# Density = 1.848187 g / cm^3
# Si number density = 18.524029 Si / 1000 Ang^3
#
#
#
# Elastic Constant Matrix: (Units=GPa)
#
#
# Indices 1 2 3 4 5 6 
#
# 1 79.4666 41.3079 48.3869 0.0000 0.0000 0.0000
# 2 41.3079 93.4764 49.3629 0.0000 0.0000 0.0000
# 3 48.3869 49.3629 132.5346 0.0000 0.0000 0.0000
# 4 0.0000 0.0000 0.0000 27.5947 0.0000 0.0000
# 5 0.0000 0.0000 0.0000 0.0000 27.9334 0.0000
# 6 0.0000 0.0000 0.0000 0.0000 0.0000 32.3145
#
#
#
# Elastic Compliance Matrix: (Units=1/GPa)
#
#
# Indices 1 2 3 4 5 6 
#
# 1 0.018322 -0.005682 -0.004573 0.000000 0.000000 0.000000
# 2 -0.005682 0.015079 -0.003542 0.000000 0.000000 0.000000
# 3 -0.004573 -0.003542 0.010534 0.000000 0.000000 0.000000
# 4 0.000000 0.000000 0.000000 0.036239 0.000000 0.000000
# 5 0.000000 0.000000 0.000000 0.000000 0.035799 0.000000
# 6 0.000000 0.000000 0.000000 0.000000 0.000000 0.030946
#
#
# Mechanical properties :
#
#
# Convention : Reuss Voigt Hill
#
# Bulk Modulus (GPa) = 61.19304 64.84367 63.01835
# Shear Modulus (GPa) = 27.78408 28.66318 28.22363
#
# Velocity S-wave (km/s) = 3.87705 3.93791 3.90760
# Velocity P-wave (km/s) = 7.29028 7.46708 7.37921
#
# Compressibility (1/GPa) = 0.01634173
#
# Stress axis : x y z
#
# Youngs Moduli (GPa) = 54.57997 66.31703 94.93148
#
# Poissons Ratio (x) = 0.37679 0.43411
# Poissons Ratio (y) = 0.31011 0.33624
# Poissons Ratio (z) = 0.24959 0.23489
#
# Static dielectric constant tensor:
#      x y z
#    x 3.425430 0.000000 0.000000 
#    y 0.000000 3.309920 0.000000 
#    z 0.000000 0.000000 3.387350 
# 
# 
# High freq. dielectric constant tensor:
#      x y z
#    x 1.727030 0.000000 0.000000 
#    y 0.000000 1.712310 0.000000 
#    z 0.000000 0.000000 1.712390 
# 
# From -- ./inp_files/26148.got.cif
#   From: 2010.03.12/outbox.cif.g09.slc.cpg/sg53_14_cif.got.tgz:26148.got - 2010.04.16 14:36:59.
