data_PCOD8220549
_publ_section_title
;
Structure prediction by ZEFSAII (Michael W. Deem and Ramdas Pophale) SiO2 
 PCOD8220549
Probable space group: P M N A
;
_chemical_formula_sum "Si O2"
_cell_formula_units_Z 52
_cell_length_a 19.868623
_cell_length_b 25.615567
_cell_length_c 5.212249
_cell_angle_alpha 90.000000
_cell_angle_beta 90.000000
_cell_angle_gamma 90.000000
_cell_volume 2652.753507
_symmetry_space_group_name_H-M "P M N A"
_symmetry_group_IT_number 53
_symmetry_cell_setting 'orthorhombic'
loop_
_space_group_symop_operation_xyz
x,y,z
1/2-x,-y,1/2+z
x,-y,-z
1/2-x,y,1/2-z
-x,-y,-z
1/2+x,y,1/2-z
-x,y,z
1/2+x,-y,1/2+z
loop_
_atom_site_type_symbol
_atom_site_label
_atom_site_fract_x
_atom_site_fract_y
_atom_site_fract_z
Si Si1 0.577733 0.801106 0.244896
Si Si2 0.075262 0.368638 0.291572
Si Si3 0.817892 0.552977 0.613064
Si Si4 0.250000 0.633531 0.250000
Si Si5 0.120695 0.687317 0.187540
Si Si6 0.827272 0.033780 0.250427
Si Si7 0.921844 0.866882 0.750756
O O1 0.500000 0.784294 0.235149
O O2 0.621483 0.749223 0.276515
O O3 0.592830 0.838688 0.482008
O O4 0.599289 0.829435 0.983052
O O5 0.123868 0.418337 0.221979
O O6 0.096043 0.338817 0.549499
O O7 0.000000 0.390538 0.327405
O O8 0.074446 0.328951 0.052196
O O9 0.850192 0.500000 0.500000
O O10 0.750000 0.534032 0.750000
O O11 0.796543 0.597176 0.418357
O O12 0.196769 0.670631 0.105256
O O13 0.750000 0.053287 0.250000
O O14 0.876486 0.082380 0.257938
O O15 0.842758 0.000000 0.500000
O O16 0.843443 0.000000 0.000000
O O17 0.000000 0.883178 0.726003
#
# Coordination Sequence:
#
# PCOD8220549 Si02
#       7
#     8   8   8   4   8   8   8
#     4  10  20  36  57  82 116 154 188 234 292 345
#     4  11  23  38  61  89 117 152 196 247 292 351
#     4  11  21  38  62  83 116 156 194 236 302 359
#     4  10  22  38  58  86 116 150 200 246 280 352
#     4  11  22  39  61  86 120 156 199 242 293 355
#     4  10  21  38  59  83 115 154 193 235 287 340
#     4  10  21  37  57  86 117 149 194 239 281 339
#
# _framework density 19.602274000000001
#
# number of rings (size 3 to 8) (size 9 to 14) (size 15 to 20)
#    0.000    1.538    2.308    3.231    0.000    2.154 
#    2.769    0.000    0.000    3.231    0.000    0.000 
#    0.000    0.000    0.000    0.000    0.000    0.000 
#
# Total GULP energy -644652.567673 kJ/mol
# GULP energy per Si atom -12397.164763 kJ/mol
# Density = 1.955766 g / cm^3
# Si number density = 19.602274 Si / 1000 Ang^3
#
#
#
# Elastic Constant Matrix: (Units=GPa)
#
#
# Indices 1 2 3 4 5 6 
#
# 1 92.4376 62.7532 13.5268 0.0000 0.0000 0.0000
# 2 62.7532 111.3062 14.9737 0.0000 0.0000 0.0000
# 3 13.5268 14.9737 94.1376 0.0000 0.0000 0.0000
# 4 0.0000 0.0000 0.0000 26.7597 0.0000 0.0000
# 5 0.0000 0.0000 0.0000 0.0000 1.6008 0.0000
# 6 0.0000 0.0000 0.0000 0.0000 0.0000 24.5861
#
#
#
# Elastic Compliance Matrix: (Units=1/GPa)
#
#
# Indices 1 2 3 4 5 6 
#
# 1 0.017613 -0.009799 -0.000972 0.000000 0.000000 0.000000
# 2 -0.009799 0.014632 -0.000919 0.000000 0.000000 0.000000
# 3 -0.000972 -0.000919 0.010909 0.000000 0.000000 0.000000
# 4 0.000000 0.000000 0.000000 0.037370 0.000000 0.000000
# 5 0.000000 0.000000 0.000000 0.000000 0.624704 0.000000
# 6 0.000000 0.000000 0.000000 0.000000 0.000000 0.040673
#
#
# Mechanical properties :
#
#
# Convention : Reuss Voigt Hill
#
# Bulk Modulus (GPa) = 50.57498 53.37652 51.97575
# Shear Modulus (GPa) = 6.44435 24.36448 15.40442
#
# Velocity S-wave (km/s) = 1.81513 3.52936 2.80634
# Velocity P-wave (km/s) = 5.49995 6.62551 6.08880
#
# Compressibility (1/GPa) = 0.01977262
#
# Stress axis : x y z
#
# Youngs Moduli (GPa) = 56.77741 68.34106 91.67009
#
# Poissons Ratio (x) = 0.66968 0.08912
# Poissons Ratio (y) = 0.55636 0.08428
# Poissons Ratio (z) = 0.05520 0.06283
#
# Static dielectric constant tensor:
#      x y z
#    x 3.947440 0.000000 0.000000 
#    y 0.000000 3.534490 0.000000 
#    z 0.000000 0.000000 -2.788600 
# 
# 
# High freq. dielectric constant tensor:
#      x y z
#    x 1.761670 0.000000 0.000000 
#    y 0.000000 1.763150 0.000000 
#    z 0.000000 0.000000 1.773400 
# 
# From -- ./inp_files/3001.got.cif
#   From: 2010.03.12/outbox.cif.g09.slc.cpg/sg53_2_cif.got.tgz:3001.got - 2010.04.16 14:36:59.
