data_PCOD8220743
_publ_section_title
;
Structure prediction by ZEFSAII (Michael W. Deem and Ramdas Pophale) SiO2 
 PCOD8220743
Probable space group: P M N A
;
_chemical_formula_sum "Si O2"
_cell_formula_units_Z 64
_cell_length_a 8.767161
_cell_length_b 14.558987
_cell_length_c 25.069582
_cell_angle_alpha 90.000000
_cell_angle_beta 90.000000
_cell_angle_gamma 90.000000
_cell_volume 3199.906091
_symmetry_space_group_name_H-M "P M N A"
_symmetry_group_IT_number 53
_symmetry_cell_setting 'orthorhombic'
loop_
_space_group_symop_operation_xyz
x,y,z
1/2-x,-y,1/2+z
x,-y,-z
1/2-x,y,1/2-z
-x,-y,-z
1/2+x,y,1/2-z
-x,y,z
1/2+x,-y,1/2+z
loop_
_atom_site_type_symbol
_atom_site_label
_atom_site_fract_x
_atom_site_fract_y
_atom_site_fract_z
Si Si1 0.318431 0.784185 0.305284
Si Si2 0.679046 0.526534 0.939208
Si Si3 0.180832 0.278878 0.088251
Si Si4 0.821218 0.983209 0.162516
Si Si5 0.828400 0.962387 0.445286
Si Si6 0.680633 0.820006 0.695915
Si Si7 0.820994 0.647821 0.101088
Si Si8 0.328091 0.235833 0.984387
O O1 0.250000 0.747306 0.250000
O O2 0.500000 0.786373 0.302751
O O3 0.250943 0.887427 0.315375
O O4 0.263500 0.714223 0.351290
O O5 0.500000 0.542072 0.933185
O O6 0.765744 0.617547 0.920835
O O7 0.733393 0.448954 0.897172
O O8 0.723168 0.500000 0.000000
O O9 0.236003 0.240627 0.145659
O O10 0.260022 0.215464 0.042982
O O11 0.000000 0.271256 0.082996
O O12 0.781154 0.996289 0.100873
O O13 0.000000 0.977461 0.168206
O O14 0.758883 0.074218 0.191921
O O15 0.830064 0.852988 0.447510
O O16 0.000000 0.000813 0.436439
O O17 0.758720 0.000000 0.500000
O O18 0.750000 0.777144 0.750000
O O19 0.500000 0.817989 0.699376
O O20 0.000000 0.630345 0.105019
O O21 0.780778 0.691131 0.043953
O O22 0.500000 0.276320 0.989666
#
# Coordination Sequence:
#
# PCOD8220743 Si02
#       8
#     8   8   8   8   8   8   8   8
#     4  10  22  38  59  87 118 156 200 242 289 344
#     4  11  23  39  62  92 120 151 194 241 293 357
#     4  11  23  39  61  90 120 155 197 243 297 356
#     4  10  20  37  58  85 118 154 201 246 288 346
#     4  10  21  34  50  79 118 159 200 241 291 348
#     4  10  23  41  62  88 119 157 203 249 295 346
#     4  11  22  38  60  87 119 155 193 239 293 350
#     4  11  21  34  55  85 120 156 194 239 293 352
#
# _framework density 20.000585999999998
#
# number of rings (size 3 to 8) (size 9 to 14) (size 15 to 20)
#    0.000    1.500    2.500    2.625    0.000    4.250 
#    0.000    0.625    0.000    0.000    0.000    0.000 
#    0.000    0.000    0.000    0.000    0.000    0.000 
#
# Total GULP energy -793583.245693 kJ/mol
# GULP energy per Si atom -12399.738214 kJ/mol
# Density = 1.995506 g / cm^3
# Si number density = 20.000586 Si / 1000 Ang^3
#
#
#
# Elastic Constant Matrix: (Units=GPa)
#
#
# Indices 1 2 3 4 5 6 
#
# 1 30.2013 19.4948 24.0565 0.0000 0.0000 0.0000
# 2 19.4948 74.0677 37.0024 0.0000 0.0000 0.0000
# 3 24.0565 37.0024 133.8518 0.0000 0.0000 0.0000
# 4 0.0000 0.0000 0.0000 22.6471 0.0000 0.0000
# 5 0.0000 0.0000 0.0000 0.0000 34.7874 0.0000
# 6 0.0000 0.0000 0.0000 0.0000 0.0000 22.2459
#
#
#
# Elastic Compliance Matrix: (Units=1/GPa)
#
#
# Indices 1 2 3 4 5 6 
#
# 1 0.042931 -0.008638 -0.005328 0.000000 0.000000 0.000000
# 2 -0.008638 0.017402 -0.003258 0.000000 0.000000 0.000000
# 3 -0.005328 -0.003258 0.009329 0.000000 0.000000 0.000000
# 4 0.000000 0.000000 0.000000 0.044156 0.000000 0.000000
# 5 0.000000 0.000000 0.000000 0.000000 0.028746 0.000000
# 6 0.000000 0.000000 0.000000 0.000000 0.000000 0.044952
#
#
# Mechanical properties :
#
#
# Convention : Reuss Voigt Hill
#
# Bulk Modulus (GPa) = 28.39752 44.35870 36.37811
# Shear Modulus (GPa) = 21.39473 26.44054 23.91763
#
# Velocity S-wave (km/s) = 3.27418 3.63986 3.46185
# Velocity P-wave (km/s) = 5.34068 6.31598 5.84870
#
# Compressibility (1/GPa) = 0.03521434
#
# Stress axis : x y z
#
# Youngs Moduli (GPa) = 23.29342 57.46320 107.18977
#
# Poissons Ratio (x) = 0.49635 0.57109
# Poissons Ratio (y) = 0.20120 0.34926
# Poissons Ratio (z) = 0.12410 0.18724
#
# Static dielectric constant tensor:
#      x y z
#    x 3.480080 0.000000 0.000000 
#    y 0.000000 3.800790 0.000000 
#    z 0.000000 0.000000 3.692500 
# 
# 
# High freq. dielectric constant tensor:
#      x y z
#    x 1.773410 0.000000 0.000000 
#    y 0.000000 1.781950 0.000000 
#    z 0.000000 0.000000 1.777160 
# 
# From -- ./inp_files/34231.got.cif
#   From: 2010.03.12/outbox.cif.g09.slc.cpg/sg53_18_cif.got.tgz:34231.got - 2010.04.16 14:36:59.
