data_PCOD8220457
_publ_section_title
;
Structure prediction by ZEFSAII (Michael W. Deem and Ramdas Pophale) SiO2 
 PCOD8220457
Probable space group: P M N A
;
_chemical_formula_sum "Si O2"
_cell_formula_units_Z 48
_cell_length_a 8.704612
_cell_length_b 9.805909
_cell_length_c 30.494654
_cell_angle_alpha 90.000000
_cell_angle_beta 90.000000
_cell_angle_gamma 90.000000
_cell_volume 2602.920995
_symmetry_space_group_name_H-M "P M N A"
_symmetry_group_IT_number 53
_symmetry_cell_setting 'orthorhombic'
loop_
_space_group_symop_operation_xyz
x,y,z
1/2-x,-y,1/2+z
x,-y,-z
1/2-x,y,1/2-z
-x,-y,-z
1/2+x,y,1/2-z
-x,y,z
1/2+x,-y,1/2+z
loop_
_atom_site_type_symbol
_atom_site_label
_atom_site_fract_x
_atom_site_fract_y
_atom_site_fract_z
Si Si1 0.320496 0.403257 0.371266
Si Si2 0.682382 0.607932 0.296446
Si Si3 0.180841 0.093780 0.459661
Si Si4 0.819246 0.404231 0.462088
Si Si5 0.681489 0.898054 0.203500
Si Si6 0.320172 0.910033 0.631844
O O1 0.500000 0.418425 0.378482
O O2 0.262303 0.496258 0.331444
O O3 0.241322 0.456091 0.415443
O O4 0.275522 0.247644 0.361115
O O5 0.750000 0.561451 0.250000
O O6 0.500000 0.617587 0.293124
O O7 0.748267 0.753609 0.310968
O O8 0.230021 0.248259 0.471078
O O9 0.270862 0.042471 0.416715
O O10 0.000000 0.081999 0.450405
O O11 0.232492 0.000000 0.500000
O O12 0.747780 0.500000 0.500000
O O13 0.000000 0.419558 0.461565
O O14 0.750000 0.945701 0.250000
O O15 0.500000 0.883803 0.208117
O O16 0.722941 0.008312 0.167221
O O17 0.500000 0.937625 0.638625
#
# Coordination Sequence:
#
# PCOD8220457 Si02
#       6
#     8   8   8   8   8   8
#     4   9  20  36  54  77 106 138 173 214 258 307
#     4  10  20  36  55  78 106 136 172 213 258 307
#     4   9  18  33  51  73 103 137 175 217 259 306
#     4   9  18  32  50  73 101 134 172 213 256 304
#     4  11  22  37  56  79 106 138 175 215 261 310
#     4  10  20  36  55  78 108 140 176 217 261 310
#
# _framework density 18.440821
#
# number of rings (size 3 to 8) (size 9 to 14) (size 15 to 20)
#    0.000    2.333    0.000    3.500    0.000    4.667 
#    0.000    3.333    0.000    0.000    0.000    0.000 
#    0.000    0.000    0.000    0.000    0.000    0.000 
#
# Total GULP energy -595331.153594 kJ/mol
# GULP energy per Si atom -12402.732367 kJ/mol
# Density = 1.839885 g / cm^3
# Si number density = 18.440821 Si / 1000 Ang^3
#
#
#
# Elastic Constant Matrix: (Units=GPa)
#
#
# Indices 1 2 3 4 5 6 
#
# 1 62.2110 32.7506 45.2495 0.0000 0.0000 0.0000
# 2 32.7506 94.8469 93.4150 0.0000 0.0000 0.0000
# 3 45.2495 93.4150 154.9502 0.0000 0.0000 0.0000
# 4 0.0000 0.0000 0.0000 43.0983 0.0000 0.0000
# 5 0.0000 0.0000 0.0000 0.0000 35.4265 0.0000
# 6 0.0000 0.0000 0.0000 0.0000 0.0000 15.2880
#
#
#
# Elastic Compliance Matrix: (Units=1/GPa)
#
#
# Indices 1 2 3 4 5 6 
#
# 1 0.020738 -0.002945 -0.004281 0.000000 0.000000 0.000000
# 2 -0.002945 0.026372 -0.015039 0.000000 0.000000 0.000000
# 3 -0.004281 -0.015039 0.016770 0.000000 0.000000 0.000000
# 4 0.000000 0.000000 0.000000 0.023203 0.000000 0.000000
# 5 0.000000 0.000000 0.000000 0.000000 0.028227 0.000000
# 6 0.000000 0.000000 0.000000 0.000000 0.000000 0.065411
#
#
# Mechanical properties :
#
#
# Convention : Reuss Voigt Hill
#
# Bulk Modulus (GPa) = 51.67532 72.75979 62.21755
# Shear Modulus (GPa) = 21.57948 28.13543 24.85745
#
# Velocity S-wave (km/s) = 3.42453 3.91028 3.67544
# Velocity P-wave (km/s) = 6.61208 7.74135 7.19889
#
# Compressibility (1/GPa) = 0.01935160
#
# Stress axis : x y z
#
# Youngs Moduli (GPa) = 48.22013 37.91879 59.62877
#
# Poissons Ratio (x) = 0.11166 0.25526
# Poissons Ratio (y) = 0.14199 0.89676
# Poissons Ratio (z) = 0.20642 0.57026
#
# Static dielectric constant tensor:
#      x y z
#    x 3.353140 0.000000 0.000000 
#    y 0.000000 3.491770 0.000000 
#    z 0.000000 0.000000 3.533400 
# 
# 
# High freq. dielectric constant tensor:
#      x y z
#    x 1.717640 0.000000 0.000000 
#    y 0.000000 1.713330 0.000000 
#    z 0.000000 0.000000 1.722560 
# 
# From -- ./inp_files/37791.got.cif
#   From: 2010.03.12/outbox.cif.g09.slc.cpg/sg53_19_cif.got.tgz:37791.got - 2010.04.16 14:36:59.
