data_PCOD8220718
_publ_section_title
;
Structure prediction by ZEFSAII (Michael W. Deem and Ramdas Pophale) SiO2 
 PCOD8220718
Probable space group: P M N A
;
_chemical_formula_sum "Si O2"
_cell_formula_units_Z 40
_cell_length_a 16.676340
_cell_length_b 7.576191
_cell_length_c 16.309699
_cell_angle_alpha 90.000000
_cell_angle_beta 90.000000
_cell_angle_gamma 90.000000
_cell_volume 2060.618536
_symmetry_space_group_name_H-M "P M N A"
_symmetry_group_IT_number 53
_symmetry_cell_setting 'orthorhombic'
loop_
_space_group_symop_operation_xyz
x,y,z
1/2-x,-y,1/2+z
x,-y,-z
1/2-x,y,1/2-z
-x,-y,-z
1/2+x,y,1/2-z
-x,y,z
1/2+x,-y,1/2+z
loop_
_atom_site_type_symbol
_atom_site_label
_atom_site_fract_x
_atom_site_fract_y
_atom_site_fract_z
Si Si1 0.913880 0.036480 0.095199
Si Si2 0.681105 0.247402 0.183847
Si Si3 0.233654 0.538509 0.091801
Si Si4 0.243223 0.067281 0.592828
Si Si5 0.588228 0.394871 0.322282
O O1 0.906925 0.245814 0.107942
O O2 0.000000 0.969553 0.133436
O O3 0.833159 0.950482 0.132545
O O4 0.915393 0.000000 0.000000
O O5 0.750000 0.255338 0.250000
O O6 0.700487 0.391186 0.113983
O O7 0.600691 0.302428 0.232505
O O8 0.679091 0.051329 0.143584
O O9 0.278664 0.726985 0.099042
O O10 0.156497 0.536768 0.153186
O O11 0.203407 0.500000 0.000000
O O12 0.243766 0.000000 0.500000
O O13 0.500000 0.484244 0.321486
#
# Coordination Sequence:
#
# PCOD8220718 Si02
#       5
#     8   8   8   8   8
#     4   9  16  29  49  76 112 145 174 211 262 332
#     4  10  20  37  53  82 114 143 189 237 280 329
#     4  11  20  34  59  87 110 145 190 235 284 336
#     4  11  19  33  58  81 109 147 187 232 282 331
#     4  10  21  38  56  79 121 157 181 231 289 338
#
# _framework density 19.411649000000001
#
# number of rings (size 3 to 8) (size 9 to 14) (size 15 to 20)
#    0.000    1.800    6.000    1.200    0.000    3.600 
#    0.000    0.000    0.000    1.200    0.000    0.000 
#    0.000    0.000    0.000    0.000    0.000    0.000 
#
# Total GULP energy -495526.006951 kJ/mol
# GULP energy per Si atom -12388.150174 kJ/mol
# Density = 1.936747 g / cm^3
# Si number density = 19.411649 Si / 1000 Ang^3
#
#
#
# Elastic Constant Matrix: (Units=GPa)
#
#
# Indices 1 2 3 4 5 6 
#
# 1 40.5327 20.2204 26.4003 0.0000 0.0000 0.0000
# 2 20.2204 128.6964 39.9087 0.0000 0.0000 0.0000
# 3 26.4003 39.9087 75.3898 0.0000 0.0000 0.0000
# 4 0.0000 0.0000 0.0000 31.6949 0.0000 0.0000
# 5 0.0000 0.0000 0.0000 0.0000 11.4252 0.0000
# 6 0.0000 0.0000 0.0000 0.0000 0.0000 10.9472
#
#
#
# Elastic Compliance Matrix: (Units=1/GPa)
#
#
# Indices 1 2 3 4 5 6 
#
# 1 0.032336 -0.001877 -0.010330 0.000000 0.000000 0.000000
# 2 -0.001877 0.009405 -0.004321 0.000000 0.000000 0.000000
# 3 -0.010330 -0.004321 0.019169 0.000000 0.000000 0.000000
# 4 0.000000 0.000000 0.000000 0.031551 0.000000 0.000000
# 5 0.000000 0.000000 0.000000 0.000000 0.087526 0.000000
# 6 0.000000 0.000000 0.000000 0.000000 0.000000 0.091348
#
#
# Mechanical properties :
#
#
# Convention : Reuss Voigt Hill
#
# Bulk Modulus (GPa) = 35.90191 46.40864 41.15527
# Shear Modulus (GPa) = 15.93996 21.35274 18.64635
#
# Velocity S-wave (km/s) = 2.86869 3.32022 3.10268
# Velocity P-wave (km/s) = 5.43210 6.21755 5.83805
#
# Compressibility (1/GPa) = 0.02785368
#
# Stress axis : x y z
#
# Youngs Moduli (GPa) = 30.92513 106.32367 52.16664
#
# Poissons Ratio (x) = 0.19960 0.53887
# Poissons Ratio (y) = 0.05806 0.22543
# Poissons Ratio (z) = 0.31945 0.45947
#
# Static dielectric constant tensor:
#      x y z
#    x 4.026920 0.000000 0.000000 
#    y 0.000000 3.664250 0.000000 
#    z 0.000000 0.000000 4.210370 
# 
# 
# High freq. dielectric constant tensor:
#      x y z
#    x 1.716270 0.000000 0.000000 
#    y 0.000000 1.749450 0.000000 
#    z 0.000000 0.000000 1.744010 
# 
# From -- ./inp_files/23440.got.cif
#   From: 2010.03.12/outbox.cif.g09.slc.cpg/sg53_12_cif.got.tgz:23440.got - 2010.04.16 14:36:59.
