data_PCOD8220539
_publ_section_title
;
Structure prediction by ZEFSAII (Michael W. Deem and Ramdas Pophale) SiO2 
 PCOD8220539
Probable space group: P M N A
;
_chemical_formula_sum "Si O2"
_cell_formula_units_Z 40
_cell_length_a 8.456239
_cell_length_b 9.682752
_cell_length_c 25.578059
_cell_angle_alpha 90.000000
_cell_angle_beta 90.000000
_cell_angle_gamma 90.000000
_cell_volume 2094.322905
_symmetry_space_group_name_H-M "P M N A"
_symmetry_group_IT_number 53
_symmetry_cell_setting 'orthorhombic'
loop_
_space_group_symop_operation_xyz
x,y,z
1/2-x,-y,1/2+z
x,-y,-z
1/2-x,y,1/2-z
-x,-y,-z
1/2+x,y,1/2-z
-x,y,z
1/2+x,-y,1/2+z
loop_
_atom_site_type_symbol
_atom_site_label
_atom_site_fract_x
_atom_site_fract_y
_atom_site_fract_z
Si Si1 0.185748 0.655845 0.807071
Si Si2 0.684615 0.839292 0.388935
Si Si3 0.325960 0.163190 0.496037
Si Si4 0.815751 0.640548 0.304911
Si Si5 0.681468 0.862152 0.890859
O O1 0.250000 0.694007 0.750000
O O2 0.222143 0.497255 0.820892
O O3 0.276224 0.750023 0.848028
O O4 0.000000 0.683690 0.810207
O O5 0.500000 0.810992 0.378932
O O6 0.735208 0.786059 0.447058
O O7 0.790627 0.756950 0.348113
O O8 0.713597 0.002170 0.382022
O O9 0.500000 0.225423 0.484501
O O10 0.211503 0.204972 0.448392
O O11 0.338750 0.000000 0.500000
O O12 0.750000 0.698197 0.250000
O O13 0.000000 0.605039 0.299241
O O14 0.500000 0.904816 0.886166
#
# Coordination Sequence:
#
# PCOD8220539 Si02
#       5
#     8   8   8   8   8
#     4  11  22  39  59  79 107 143 181 221 270 324
#     4  10  20  36  57  82 111 144 182 222 267 318
#     4   8  16  32  53  77 108 144 178 216 267 321
#     4  11  22  38  58  81 109 142 180 221 270 323
#     4  11  21  34  55  84 113 142 180 224 268 316
#
# _framework density 19.099250000000001
#
# number of rings (size 3 to 8) (size 9 to 14) (size 15 to 20)
#    0.000    1.800    0.000    8.400    0.000    5.200 
#    0.000    5.000    0.000    6.000    0.000    0.000 
#    0.000    0.000    0.000    0.000    0.000    0.000 
#
# Total GULP energy -495995.430265 kJ/mol
# GULP energy per Si atom -12399.885757 kJ/mol
# Density = 1.905578 g / cm^3
# Si number density = 19.099250 Si / 1000 Ang^3
#
#
#
# Elastic Constant Matrix: (Units=GPa)
#
#
# Indices 1 2 3 4 5 6 
#
# 1 85.6263 4.7873 26.4448 0.0000 0.0000 0.0000
# 2 4.7873 48.4277 54.5519 0.0000 0.0000 0.0000
# 3 26.4448 54.5519 133.7402 0.0000 0.0000 0.0000
# 4 0.0000 0.0000 0.0000 -102.8382 0.0000 0.0000
# 5 0.0000 0.0000 0.0000 0.0000 32.5980 0.0000
# 6 0.0000 0.0000 0.0000 0.0000 0.0000 28.5644
#
#
#
# Elastic Compliance Matrix: (Units=1/GPa)
#
#
# Indices 1 2 3 4 5 6 
#
# 1 0.012655 0.002900 -0.003685 0.000000 0.000000 0.000000
# 2 0.002900 0.038867 -0.016427 0.000000 0.000000 0.000000
# 3 -0.003685 -0.016427 0.014906 0.000000 0.000000 0.000000
# 4 0.000000 0.000000 0.000000 -0.009724 0.000000 0.000000
# 5 0.000000 0.000000 0.000000 0.000000 0.030677 0.000000
# 6 0.000000 0.000000 0.000000 0.000000 0.000000 0.035009
#
#
# Mechanical properties :
#
#
# Convention : Reuss Voigt Hill
#
# Bulk Modulus (GPa) = 31.24603 48.81803 40.03203
# Shear Modulus (GPa) = 29.85392 3.79885 16.82638
#
# Velocity S-wave (km/s) = 3.95789 1.41185 2.97138
# Velocity P-wave (km/s) = 6.10588 5.31728 5.72518
#
# Compressibility (1/GPa) = 0.03200407
#
# Stress axis : x y z
#
# Youngs Moduli (GPa) = 79.02232 25.72855 67.08495
#
# Poissons Ratio (x) = -0.07462 0.24723
# Poissons Ratio (y) = -0.22919 1.10202
# Poissons Ratio (z) = 0.29122 0.42265
#
# Static dielectric constant tensor:
#      x y z
#    x 3.521180 0.000000 0.000000 
#    y 0.000000 3.136660 0.000000 
#    z 0.000000 0.000000 3.904680 
# 
# 
# High freq. dielectric constant tensor:
#      x y z
#    x 1.753300 0.000000 0.000000 
#    y 0.000000 1.709470 0.000000 
#    z 0.000000 0.000000 1.758270 
# 
# From -- ./inp_files/33643.got.cif
#   From: 2010.03.12/outbox.cif.g09.slc.cpg/sg53_17_cif.got.tgz:33643.got - 2010.04.16 14:36:59.
