data_PCOD8220781
_publ_section_title
;
Structure prediction by ZEFSAII (Michael W. Deem and Ramdas Pophale) SiO2 
 PCOD8220781
Probable space group: P M N A
;
_chemical_formula_sum "Si O2"
_cell_formula_units_Z 56
_cell_length_a 8.526018
_cell_length_b 17.171407
_cell_length_c 19.628080
_cell_angle_alpha 90.000000
_cell_angle_beta 90.000000
_cell_angle_gamma 90.000000
_cell_volume 2873.624030
_symmetry_space_group_name_H-M "P M N A"
_symmetry_group_IT_number 53
_symmetry_cell_setting 'orthorhombic'
loop_
_space_group_symop_operation_xyz
x,y,z
1/2-x,-y,1/2+z
x,-y,-z
1/2-x,y,1/2-z
-x,-y,-z
1/2+x,y,1/2-z
-x,y,z
1/2+x,-y,1/2+z
loop_
_atom_site_type_symbol
_atom_site_label
_atom_site_fract_x
_atom_site_fract_y
_atom_site_fract_z
Si Si1 0.682246 0.543678 0.405465
Si Si2 0.681923 0.768327 0.564590
Si Si3 0.681832 0.393853 0.041136
Si Si4 0.680193 0.196421 0.588506
Si Si5 0.317980 0.326057 0.821130
Si Si6 0.815130 0.882916 0.676029
Si Si7 0.816368 0.950084 0.178430
O O1 0.500000 0.524010 0.402147
O O2 0.717405 0.594670 0.472703
O O3 0.777405 0.462663 0.405895
O O4 0.732531 0.593222 0.339951
O O5 0.500000 0.748905 0.573077
O O6 0.777477 0.688580 0.574552
O O7 0.717341 0.807217 0.491468
O O8 0.734681 0.827927 0.621506
O O9 0.500000 0.397816 0.021567
O O10 0.500000 0.219938 0.602872
O O11 0.790535 0.260797 0.622015
O O12 0.718115 0.112170 0.619645
O O13 0.250000 0.294995 0.750000
O O14 0.500000 0.342937 0.814464
O O15 0.750000 0.860416 0.750000
O O16 0.000000 0.871035 0.674282
O O17 0.772498 0.971452 0.657387
O O18 0.750000 0.917608 0.250000
O O19 0.000000 0.968192 0.186632
#
# Coordination Sequence:
#
# PCOD8220781 Si02
#       7
#     8   8   8   8   8   8   8
#     4  11  21  37  59  84 115 156 199 241 292 349
#     4  11  22  39  62  89 122 158 196 245 300 355
#     4  11  21  36  59  89 118 151 195 243 292 345
#     4  10  22  38  59  87 121 158 200 244 296 357
#     4  12  24  38  58  85 122 162 203 251 301 357
#     4  11  23  41  63  87 115 152 197 247 302 361
#     4  10  20  37  59  85 116 157 201 244 294 354
#
# _framework density 19.487587999999999
#
# number of rings (size 3 to 8) (size 9 to 14) (size 15 to 20)
#    0.000    1.143    1.429    8.143    0.000    3.429 
#    0.000    3.571    0.000    0.000    0.000    0.000 
#    0.000    0.000    0.000    0.000    0.000    0.000 
#
# Total GULP energy -694754.218001 kJ/mol
# GULP energy per Si atom -12406.325321 kJ/mol
# Density = 1.944323 g / cm^3
# Si number density = 19.487588 Si / 1000 Ang^3
#
#
#
# Elastic Constant Matrix: (Units=GPa)
#
#
# Indices 1 2 3 4 5 6 
#
# 1 97.5900 21.4240 28.9327 0.0000 0.0000 0.0000
# 2 21.4240 100.2504 60.4103 0.0000 0.0000 0.0000
# 3 28.9327 60.4103 100.7017 0.0000 0.0000 0.0000
# 4 0.0000 0.0000 0.0000 23.9692 0.0000 0.0000
# 5 0.0000 0.0000 0.0000 0.0000 31.1395 0.0000
# 6 0.0000 0.0000 0.0000 0.0000 0.0000 29.3957
#
#
#
# Elastic Compliance Matrix: (Units=1/GPa)
#
#
# Indices 1 2 3 4 5 6 
#
# 1 0.011234 -0.000714 -0.002799 0.000000 0.000000 0.000000
# 2 -0.000714 0.015668 -0.009194 0.000000 0.000000 0.000000
# 3 -0.002799 -0.009194 0.016250 0.000000 0.000000 0.000000
# 4 0.000000 0.000000 0.000000 0.041720 0.000000 0.000000
# 5 0.000000 0.000000 0.000000 0.000000 0.032114 0.000000
# 6 0.000000 0.000000 0.000000 0.000000 0.000000 0.034019
#
#
# Mechanical properties :
#
#
# Convention : Reuss Voigt Hill
#
# Bulk Modulus (GPa) = 56.37859 57.78621 57.08240
# Shear Modulus (GPa) = 27.42278 29.41920 28.42099
#
# Velocity S-wave (km/s) = 3.75533 3.88962 3.82306
# Velocity P-wave (km/s) = 6.91351 7.06324 6.98878
#
# Compressibility (1/GPa) = 0.01773723
#
# Stress axis : x y z
#
# Youngs Moduli (GPa) = 89.01884 63.82539 61.53872
#
# Poissons Ratio (x) = 0.04556 0.17227
# Poissons Ratio (y) = 0.06354 0.56578
# Poissons Ratio (z) = 0.24919 0.58680
#
# Static dielectric constant tensor:
#      x y z
#    x 3.663070 0.000000 0.000000 
#    y 0.000000 3.622350 0.000000 
#    z 0.000000 0.000000 3.522360 
# 
# 
# High freq. dielectric constant tensor:
#      x y z
#    x 1.774750 0.000000 0.000000 
#    y 0.000000 1.764070 0.000000 
#    z 0.000000 0.000000 1.745830 
# 
# From -- ./inp_files/31058.got.cif
#   From: 2010.03.12/outbox.cif.g09.slc.cpg/sg53_16_cif.got.tgz:31058.got - 2010.04.16 14:36:59.
