data_PCOD8220740
_publ_section_title
;
Structure prediction by ZEFSAII (Michael W. Deem and Ramdas Pophale) SiO2 
 PCOD8220740
Probable space group: P M N A
;
_chemical_formula_sum "Si O2"
_cell_formula_units_Z 48
_cell_length_a 8.719126
_cell_length_b 30.488982
_cell_length_c 9.339063
_cell_angle_alpha 90.000000
_cell_angle_beta 90.000000
_cell_angle_gamma 90.000000
_cell_volume 2482.671065
_symmetry_space_group_name_H-M "P M N A"
_symmetry_group_IT_number 53
_symmetry_cell_setting 'orthorhombic'
loop_
_space_group_symop_operation_xyz
x,y,z
1/2-x,-y,1/2+z
x,-y,-z
1/2-x,y,1/2-z
-x,-y,-z
1/2+x,y,1/2-z
-x,y,z
1/2+x,-y,1/2+z
loop_
_atom_site_type_symbol
_atom_site_label
_atom_site_fract_x
_atom_site_fract_y
_atom_site_fract_z
Si Si1 0.318110 0.870258 0.593167
Si Si2 0.318429 0.203219 0.900498
Si Si3 0.320588 0.542600 0.406070
Si Si4 0.819111 0.618892 0.593479
Si Si5 0.180522 0.958378 0.594971
Si Si6 0.679450 0.697451 0.101151
O O1 0.250000 0.869852 0.750000
O O2 0.500000 0.869482 0.594557
O O3 0.255831 0.827101 0.518686
O O4 0.257318 0.915379 0.520911
O O5 0.250000 0.188050 0.750000
O O6 0.500000 0.197596 0.899148
O O7 0.267428 0.253121 0.934992
O O8 0.286304 0.500000 0.500000
O O9 0.250000 0.535440 0.250000
O O10 0.500000 0.551884 0.390401
O O11 0.242543 0.583176 0.483951
O O12 0.750000 0.612664 0.750000
O O13 0.770344 0.666274 0.529940
O O14 0.000000 0.613801 0.606268
O O15 0.250000 0.967308 0.750000
O O16 0.000000 0.950456 0.607897
O O17 0.222351 0.000000 0.500000
O O18 0.750000 0.680536 0.250000
O O19 0.500000 0.695472 0.124695
#
# Coordination Sequence:
#
# PCOD8220740 Si02
#       6
#     8   8   8   8   8   8
#     4  11  22  37  57  81 111 147 185 228 279 332
#     4  10  20  37  58  83 114 147 187 231 278 331
#     4  11  24  41  62  88 118 153 192 235 284 337
#     4  11  23  39  59  86 118 152 192 236 284 336
#     4  10  21  37  57  81 109 142 182 227 275 330
#     4   9  20  37  58  83 112 147 186 231 280 333
#
# _framework density 19.334015000000001
#
# number of rings (size 3 to 8) (size 9 to 14) (size 15 to 20)
#    0.000    1.667    0.000    5.500    0.000    8.667 
#    0.000    3.333    0.000    0.000    0.000    0.000 
#    0.000    0.000    0.000    0.000    0.000    0.000 
#
# Total GULP energy -595295.694234 kJ/mol
# GULP energy per Si atom -12401.993630 kJ/mol
# Density = 1.929001 g / cm^3
# Si number density = 19.334015 Si / 1000 Ang^3
#
#
#
# Elastic Constant Matrix: (Units=GPa)
#
#
# Indices 1 2 3 4 5 6 
#
# 1 111.3254 60.7031 51.2891 0.0000 0.0000 0.0000
# 2 60.7031 119.6580 61.1660 0.0000 0.0000 0.0000
# 3 51.2891 61.1660 107.5793 0.0000 0.0000 0.0000
# 4 0.0000 0.0000 0.0000 38.6581 0.0000 0.0000
# 5 0.0000 0.0000 0.0000 0.0000 35.8374 0.0000
# 6 0.0000 0.0000 0.0000 0.0000 0.0000 59.2235
#
#
#
# Elastic Compliance Matrix: (Units=1/GPa)
#
#
# Indices 1 2 3 4 5 6 
#
# 1 0.013306 -0.004945 -0.003533 0.000000 0.000000 0.000000
# 2 -0.004945 0.013619 -0.005386 0.000000 0.000000 0.000000
# 3 -0.003533 -0.005386 0.014042 0.000000 0.000000 0.000000
# 4 0.000000 0.000000 0.000000 0.025868 0.000000 0.000000
# 5 0.000000 0.000000 0.000000 0.000000 0.027904 0.000000
# 6 0.000000 0.000000 0.000000 0.000000 0.000000 0.016885
#
#
# Mechanical properties :
#
#
# Convention : Reuss Voigt Hill
#
# Bulk Modulus (GPa) = 75.52313 76.09769 75.81041
# Shear Modulus (GPa) = 34.77946 37.77075 36.27511
#
# Velocity S-wave (km/s) = 4.24592 4.42474 4.33625
# Velocity P-wave (km/s) = 7.94885 8.09626 8.02289
#
# Compressibility (1/GPa) = 0.01324098
#
# Stress axis : x y z
#
# Youngs Moduli (GPa) = 75.15200 73.42883 71.21618
#
# Poissons Ratio (x) = 0.36308 0.25157
# Poissons Ratio (y) = 0.37160 0.38355
# Poissons Ratio (z) = 0.26548 0.39547
#
# Static dielectric constant tensor:
#      x y z
#    x 3.677030 0.000000 0.000000 
#    y 0.000000 4.013120 0.000000 
#    z 0.000000 0.000000 3.435310 
# 
# 
# High freq. dielectric constant tensor:
#      x y z
#    x 1.767660 0.000000 0.000000 
#    y 0.000000 1.770090 0.000000 
#    z 0.000000 0.000000 1.750520 
# 
# From -- ./inp_files/6627.got.cif
#   From: 2010.03.12/outbox.cif.g09.slc.cpg/sg53_4_cif.got.tgz:6627.got - 2010.04.16 14:36:59.
