data_PCOD8220649
_publ_section_title
;
Structure prediction by ZEFSAII (Michael W. Deem and Ramdas Pophale) SiO2 
 PCOD8220649
Probable space group: P M N A
;
_chemical_formula_sum "Si O2"
_cell_formula_units_Z 64
_cell_length_a 9.005573
_cell_length_b 15.069337
_cell_length_c 24.068800
_cell_angle_alpha 90.000000
_cell_angle_beta 90.000000
_cell_angle_gamma 90.000000
_cell_volume 3266.329057
_symmetry_space_group_name_H-M "P M N A"
_symmetry_group_IT_number 53
_symmetry_cell_setting 'orthorhombic'
loop_
_space_group_symop_operation_xyz
x,y,z
1/2-x,-y,1/2+z
x,-y,-z
1/2-x,y,1/2-z
-x,-y,-z
1/2+x,y,1/2-z
-x,y,z
1/2+x,-y,1/2+z
loop_
_atom_site_type_symbol
_atom_site_label
_atom_site_fract_x
_atom_site_fract_y
_atom_site_fract_z
Si Si1 0.171361 0.203928 0.305789
Si Si2 0.324761 0.401480 0.996750
Si Si3 0.325924 0.333272 0.878540
Si Si4 0.325060 0.634971 0.881317
Si Si5 0.835480 0.897460 0.985188
Si Si6 0.827608 0.142207 0.592188
Si Si7 0.673444 0.051014 0.119637
Si Si8 0.177902 0.481710 0.810079
O O1 0.250000 0.231676 0.250000
O O2 0.219349 0.272754 0.353178
O O3 0.212530 0.102914 0.323534
O O4 0.000000 0.212925 0.293203
O O5 0.500000 0.405602 0.991886
O O6 0.278283 0.352770 0.054022
O O7 0.257094 0.500000 0.000000
O O8 0.266184 0.354169 0.940885
O O9 0.500000 0.357255 0.871552
O O10 0.298383 0.227651 0.868823
O O11 0.230972 0.385949 0.832914
O O12 0.500000 0.612253 0.875945
O O13 0.233621 0.555636 0.853171
O O14 0.747788 0.889623 0.927947
O O15 0.000000 0.858027 0.977855
O O16 0.754661 0.843350 0.033800
O O17 0.840711 0.000000 0.000000
O O18 0.000000 0.134258 0.577347
O O19 0.771699 0.051575 0.622754
O O20 0.500000 0.054441 0.107215
O O21 0.250000 0.499427 0.750000
O O22 0.000000 0.483783 0.805034
#
# Coordination Sequence:
#
# PCOD8220649 Si02
#       8
#     8   8   8   8   8   8   8   8
#     4  10  22  37  57  80 111 147 191 240 285 339
#     4   9  16  30  56  84 113 148 183 220 271 338
#     4  10  20  36  59  86 117 154 192 230 279 342
#     4  10  20  37  60  86 114 148 187 228 276 338
#     4   9  17  29  47  74 108 144 180 223 275 328
#     4   9  18  32  55  81 111 148 188 231 275 330
#     4   9  18  34  53  78 108 144 190 235 276 327
#     4  12  25  41  61  83 111 147 188 237 285 335
#
# _framework density 19.593862999999999
#
# number of rings (size 3 to 8) (size 9 to 14) (size 15 to 20)
#    0.000    2.250    1.250    1.875    1.750    4.000 
#    0.000    1.875    0.000    1.500    0.000    0.000 
#    0.000    0.000    0.000    0.000    0.000    0.000 
#
# Total GULP energy -793305.159960 kJ/mol
# GULP energy per Si atom -12395.393124 kJ/mol
# Density = 1.954927 g / cm^3
# Si number density = 19.593863 Si / 1000 Ang^3
#
#
#
# Elastic Constant Matrix: (Units=GPa)
#
#
# Indices 1 2 3 4 5 6 
#
# 1 53.3025 22.9757 19.2045 0.0000 0.0000 0.0000
# 2 22.9757 87.7733 19.1884 0.0000 0.0000 0.0000
# 3 19.2045 19.1884 77.3554 0.0000 0.0000 0.0000
# 4 0.0000 0.0000 0.0000 28.4629 0.0000 0.0000
# 5 0.0000 0.0000 0.0000 0.0000 24.8775 0.0000
# 6 0.0000 0.0000 0.0000 0.0000 0.0000 18.4441
#
#
#
# Elastic Compliance Matrix: (Units=1/GPa)
#
#
# Indices 1 2 3 4 5 6 
#
# 1 0.022452 -0.004926 -0.004352 0.000000 0.000000 0.000000
# 2 -0.004926 0.013127 -0.002033 0.000000 0.000000 0.000000
# 3 -0.004352 -0.002033 0.014512 0.000000 0.000000 0.000000
# 4 0.000000 0.000000 0.000000 0.035133 0.000000 0.000000
# 5 0.000000 0.000000 0.000000 0.000000 0.040197 0.000000
# 6 0.000000 0.000000 0.000000 0.000000 0.000000 0.054218
#
#
# Mechanical properties :
#
#
# Convention : Reuss Voigt Hill
#
# Bulk Modulus (GPa) = 36.40493 37.90759 37.15626
# Shear Modulus (GPa) = 23.64983 24.82774 24.23879
#
# Velocity S-wave (km/s) = 3.47796 3.56352 3.52100
# Velocity P-wave (km/s) = 5.89478 6.02663 5.96107
#
# Compressibility (1/GPa) = 0.02746881
#
# Stress axis : x y z
#
# Youngs Moduli (GPa) = 44.53930 76.17972 68.90752
#
# Poissons Ratio (x) = 0.37524 0.29990
# Poissons Ratio (y) = 0.21939 0.14011
# Poissons Ratio (z) = 0.19384 0.15490
#
# Static dielectric constant tensor:
#      x y z
#    x 3.437170 0.000000 0.000000 
#    y 0.000000 3.752930 0.000000 
#    z 0.000000 0.000000 3.524120 
# 
# 
# High freq. dielectric constant tensor:
#      x y z
#    x 1.738670 0.000000 0.000000 
#    y 0.000000 1.769860 0.000000 
#    z 0.000000 0.000000 1.750880 
# 
# From -- ./inp_files/34284.got.cif
#   From: 2010.03.12/outbox.cif.g09.slc.cpg/sg53_18_cif.got.tgz:34284.got - 2010.04.16 14:36:59.
