data_PCOD8220456
_publ_section_title
;
Structure prediction by ZEFSAII (Michael W. Deem and Ramdas Pophale) SiO2 
 PCOD8220456
Probable space group: P M N A
;
_chemical_formula_sum "Si O2"
_cell_formula_units_Z 64
_cell_length_a 13.649783
_cell_length_b 9.500270
_cell_length_c 27.377814
_cell_angle_alpha 90.000000
_cell_angle_beta 90.000000
_cell_angle_gamma 90.000000
_cell_volume 3550.262490
_symmetry_space_group_name_H-M "P M N A"
_symmetry_group_IT_number 53
_symmetry_cell_setting 'orthorhombic'
loop_
_space_group_symop_operation_xyz
x,y,z
1/2-x,-y,1/2+z
x,-y,-z
1/2-x,y,1/2-z
-x,-y,-z
1/2+x,y,1/2-z
-x,y,z
1/2+x,-y,1/2+z
loop_
_atom_site_type_symbol
_atom_site_label
_atom_site_fract_x
_atom_site_fract_y
_atom_site_fract_z
Si Si1 0.384256 0.277615 0.279988
Si Si2 0.111110 0.127713 0.968715
Si Si3 0.884240 0.039921 0.782487
Si Si4 0.203312 0.216682 0.869074
Si Si5 0.110657 0.539943 0.689785
Si Si6 0.611482 0.219952 0.809180
Si Si7 0.297123 0.458048 0.365554
Si Si8 0.389765 0.611330 0.537235
O O1 0.500000 0.270394 0.278462
O O2 0.347346 0.352653 0.230364
O O3 0.355650 0.374278 0.324884
O O4 0.340807 0.119136 0.283770
O O5 0.182413 0.161023 0.923527
O O6 0.000000 0.100019 0.949193
O O7 0.109122 0.243799 0.009896
O O8 0.154419 0.000000 0.000000
O O9 0.856858 0.123918 0.830952
O O10 0.846305 0.119904 0.733751
O O11 0.000000 0.034840 0.779607
O O12 0.319108 0.201603 0.856647
O O13 0.168733 0.378996 0.865525
O O14 0.116215 0.380524 0.710555
O O15 0.180335 0.554364 0.642759
O O16 0.000000 0.577722 0.673864
O O17 0.500000 0.180696 0.824228
O O18 0.319700 0.382320 0.416281
O O19 0.344163 0.500000 0.500000
O O20 0.500000 0.566578 0.553535
#
# Coordination Sequence:
#
# PCOD8220456 Si02
#       8
#     8   8   8   8   8   8   8   8
#     4  10  21  34  50  78 112 141 170 210 258 309
#     4  10  22  38  55  77 106 135 166 209 261 313
#     4  10  21  34  50  77 111 141 172 210 256 310
#     4  11  21  34  55  79 103 137 178 215 255 306
#     4   9  19  36  54  74 105 140 175 215 257 301
#     4   9  19  36  55  75 103 140 177 214 255 303
#     4  11  21  33  55  80 103 136 178 214 255 310
#     4  10  20  36  55  77 105 134 165 207 259 311
#
# _framework density 18.026835999999999
#
# number of rings (size 3 to 8) (size 9 to 14) (size 15 to 20)
#    0.000    2.000    1.250    2.250    1.750    6.500 
#    0.000    0.000    0.000    1.500    0.000    0.000 
#    0.000    0.000    0.000    0.000    0.000    0.000 
#
# Total GULP energy -793469.331307 kJ/mol
# GULP energy per Si atom -12397.958302 kJ/mol
# Density = 1.798581 g / cm^3
# Si number density = 18.026836 Si / 1000 Ang^3
#
#
#
# Elastic Constant Matrix: (Units=GPa)
#
#
# Indices 1 2 3 4 5 6 
#
# 1 48.5441 29.3368 54.8071 0.0000 0.0000 0.0000
# 2 29.3368 95.7851 48.3433 0.0000 0.0000 0.0000
# 3 54.8071 48.3433 126.9210 0.0000 0.0000 0.0000
# 4 0.0000 0.0000 0.0000 23.6368 0.0000 0.0000
# 5 0.0000 0.0000 0.0000 0.0000 32.0924 0.0000
# 6 0.0000 0.0000 0.0000 0.0000 0.0000 19.2088
#
#
#
# Elastic Compliance Matrix: (Units=1/GPa)
#
#
# Indices 1 2 3 4 5 6 
#
# 1 0.041750 -0.004566 -0.016290 0.000000 0.000000 0.000000
# 2 -0.004566 0.013424 -0.003142 0.000000 0.000000 0.000000
# 3 -0.016290 -0.003142 0.016110 0.000000 0.000000 0.000000
# 4 0.000000 0.000000 0.000000 0.042307 0.000000 0.000000
# 5 0.000000 0.000000 0.000000 0.000000 0.031160 0.000000
# 6 0.000000 0.000000 0.000000 0.000000 0.000000 0.052059
#
#
# Mechanical properties :
#
#
# Convention : Reuss Voigt Hill
#
# Bulk Modulus (GPa) = 42.93634 59.58048 51.25841
# Shear Modulus (GPa) = 19.79669 24.23846 22.01758
#
# Velocity S-wave (km/s) = 3.31747 3.67082 3.49861
# Velocity P-wave (km/s) = 6.20837 7.14768 6.69452
#
# Compressibility (1/GPa) = 0.02329029
#
# Stress axis : x y z
#
# Youngs Moduli (GPa) = 23.95192 74.49370 62.07444
#
# Poissons Ratio (x) = 0.34012 1.01117
# Poissons Ratio (y) = 0.10936 0.19501
# Poissons Ratio (z) = 0.39017 0.23402
#
# Static dielectric constant tensor:
#      x y z
#    x 3.397040 0.000000 0.000000 
#    y 0.000000 3.628190 0.000000 
#    z 0.000000 0.000000 3.206390 
# 
# 
# High freq. dielectric constant tensor:
#      x y z
#    x 1.692090 0.000000 0.000000 
#    y 0.000000 1.712910 0.000000 
#    z 0.000000 0.000000 1.679220 
# 
# From -- ./inp_files/35331.got.cif
#   From: 2010.03.12/outbox.cif.g09.slc.cpg/sg53_18_cif.got.tgz:35331.got - 2010.04.16 14:36:59.
