data_PCOD8220137
_publ_section_title
;
Structure prediction by ZEFSAII (Michael W. Deem and Ramdas Pophale) SiO2 
 PCOD8220137
Probable space group: P M N A
;
_chemical_formula_sum "Si O2"
_cell_formula_units_Z 48
_cell_length_a 17.469135
_cell_length_b 14.641734
_cell_length_c 9.336005
_cell_angle_alpha 90.000000
_cell_angle_beta 90.000000
_cell_angle_gamma 90.000000
_cell_volume 2387.948682
_symmetry_space_group_name_H-M "P M N A"
_symmetry_group_IT_number 53
_symmetry_cell_setting 'orthorhombic'
loop_
_space_group_symop_operation_xyz
x,y,z
1/2-x,-y,1/2+z
x,-y,-z
1/2-x,y,1/2-z
-x,-y,-z
1/2+x,y,1/2-z
-x,y,z
1/2+x,-y,1/2+z
loop_
_atom_site_type_symbol
_atom_site_label
_atom_site_fract_x
_atom_site_fract_y
_atom_site_fract_z
Si Si1 0.673755 0.541566 0.656866
Si Si2 0.329807 0.086040 0.080580
Si Si3 0.648297 0.916312 0.600030
Si Si4 0.705213 0.751834 0.107865
Si Si5 0.414385 0.625176 0.242648
Si Si6 0.861369 0.285058 0.018473
O O1 0.692369 0.500000 0.500000
O O2 0.750000 0.545668 0.750000
O O3 0.611213 0.478603 0.734428
O O4 0.633037 0.641995 0.648454
O O5 0.374291 0.082659 0.232262
O O6 0.239034 0.079390 0.096228
O O7 0.344042 0.173348 0.979252
O O8 0.364610 0.000000 0.000000
O O9 0.614754 0.819515 0.547256
O O10 0.615582 0.000000 0.500000
O O11 0.750000 0.791812 0.250000
O O12 0.645586 0.671915 0.136881
O O13 0.770774 0.707523 0.012271
O O14 0.500000 0.626570 0.178775
O O15 0.414733 0.682018 0.390048
#
# Coordination Sequence:
#
# PCOD8220137 Si02
#       6
#     8   8   8   8   8   8
#     4  10  20  34  55  84 110 142 185 232 279 330
#     4   9  18  26  49  82 112 144 172 227 276 327
#     4   9  18  30  48  82 118 140 174 223 281 327
#     4   9  18  32  53  80 115 145 183 228 280 337
#     4  10  20  35  55  79 108 147 187 228 280 333
#     4   9  19  32  55  82 109 144 183 227 275 324
#
# _framework density 20.100935
#
# number of rings (size 3 to 8) (size 9 to 14) (size 15 to 20)
#    0.000    2.667    0.000    2.500   14.000    3.000 
#    0.000    0.000    0.000    6.500    0.000    0.000 
#    0.000    0.000    0.000    0.000    0.000    0.000 
#
# Total GULP energy -594641.011261 kJ/mol
# GULP energy per Si atom -12388.354401 kJ/mol
# Density = 2.005518 g / cm^3
# Si number density = 20.100935 Si / 1000 Ang^3
#
#
#
# Elastic Constant Matrix: (Units=GPa)
#
#
# Indices 1 2 3 4 5 6 
#
# 1 43.3485 20.7637 2.1303 0.0000 0.0000 0.0000
# 2 20.7637 170.5549 53.7133 0.0000 0.0000 0.0000
# 3 2.1303 53.7133 77.2846 0.0000 0.0000 0.0000
# 4 0.0000 0.0000 0.0000 35.4055 0.0000 0.0000
# 5 0.0000 0.0000 0.0000 0.0000 4.2395 0.0000
# 6 0.0000 0.0000 0.0000 0.0000 0.0000 1.8933
#
#
#
# Elastic Compliance Matrix: (Units=1/GPa)
#
#
# Indices 1 2 3 4 5 6 
#
# 1 0.024692 -0.003574 0.001803 0.000000 0.000000 0.000000
# 2 -0.003574 0.008023 -0.005478 0.000000 0.000000 0.000000
# 3 0.001803 -0.005478 0.016697 0.000000 0.000000 0.000000
# 4 0.000000 0.000000 0.000000 0.028244 0.000000 0.000000
# 5 0.000000 0.000000 0.000000 0.000000 0.235876 0.000000
# 6 0.000000 0.000000 0.000000 0.000000 0.000000 0.528190
#
#
# Mechanical properties :
#
#
# Convention : Reuss Voigt Hill
#
# Bulk Modulus (GPa) = 28.64081 49.37808 39.00945
# Shear Modulus (GPa) = 5.76131 22.61303 14.18717
#
# Velocity S-wave (km/s) = 1.69482 3.35770 2.65957
# Velocity P-wave (km/s) = 4.25550 6.29687 5.37401
#
# Compressibility (1/GPa) = 0.03491521
#
# Stress axis : x y z
#
# Youngs Moduli (GPa) = 40.49867 124.63424 59.89237
#
# Poissons Ratio (x) = 0.44544 -0.10801
# Poissons Ratio (y) = 0.14474 0.32808
# Poissons Ratio (z) = -0.07303 0.68273
#
# Static dielectric constant tensor:
#      x y z
#    x 2.998000 0.000000 0.000000 
#    y 0.000000 3.997620 0.000000 
#    z 0.000000 0.000000 3.835240 
# 
# 
# High freq. dielectric constant tensor:
#      x y z
#    x 1.724060 0.000000 0.000000 
#    y 0.000000 1.799770 0.000000 
#    z 0.000000 0.000000 1.778220 
# 
# From -- ./inp_files/10893.got.cif
#   From: 2010.03.12/outbox.cif.g09.slc.cpg/sg53_6_cif.got.tgz:10893.got - 2010.04.16 14:36:59.
