data_PCOD8220364
_publ_section_title
;
Structure prediction by ZEFSAII (Michael W. Deem and Ramdas Pophale) SiO2 
 PCOD8220364
Probable space group: P M N A
;
_chemical_formula_sum "Si O2"
_cell_formula_units_Z 64
_cell_length_a 9.085695
_cell_length_b 25.917451
_cell_length_c 14.471627
_cell_angle_alpha 90.000000
_cell_angle_beta 90.000000
_cell_angle_gamma 90.000000
_cell_volume 3407.750578
_symmetry_space_group_name_H-M "P M N A"
_symmetry_group_IT_number 53
_symmetry_cell_setting 'orthorhombic'
loop_
_space_group_symop_operation_xyz
x,y,z
1/2-x,-y,1/2+z
x,-y,-z
1/2-x,y,1/2-z
-x,-y,-z
1/2+x,y,1/2-z
-x,y,z
1/2+x,-y,1/2+z
loop_
_atom_site_type_symbol
_atom_site_label
_atom_site_fract_x
_atom_site_fract_y
_atom_site_fract_z
Si Si1 0.670080 0.206881 0.010437
Si Si2 0.832456 0.673926 0.510080
Si Si3 0.826916 0.388671 0.159682
Si Si4 0.326553 0.869926 0.150954
Si Si5 0.331821 0.602824 0.162849
Si Si6 0.164478 0.501459 0.108715
Si Si7 0.670942 0.059315 0.511147
Si Si8 0.673328 0.136735 0.349282
O O1 0.500000 0.196957 0.035080
O O2 0.705781 0.266577 0.994906
O O3 0.765358 0.186921 0.097207
O O4 0.711266 0.179007 0.914127
O O5 0.716847 0.650119 0.579732
O O6 0.806296 0.644114 0.415878
O O7 0.000000 0.666567 0.545446
O O8 0.750000 0.366395 0.250000
O O9 0.769774 0.446814 0.142023
O O10 0.000000 0.387902 0.170671
O O11 0.250000 0.862542 0.250000
O O12 0.500000 0.876523 0.166918
O O13 0.265018 0.919932 0.097518
O O14 0.250000 0.627194 0.250000
O O15 0.500000 0.594733 0.187196
O O16 0.270177 0.546288 0.141742
O O17 0.000000 0.510713 0.148105
O O18 0.159051 0.500000 0.000000
O O19 0.500000 0.067035 0.535671
O O20 0.709362 0.087633 0.414495
O O21 0.713716 0.000000 0.500000
O O22 0.750000 0.129347 0.250000
O O23 0.500000 0.143614 0.332940
#
# Coordination Sequence:
#
# PCOD8220364 Si02
#       8
#     8   8   8   8   8   8   8   8
#     4   9  20  39  59  79 107 142 183 231 277 324
#     4  10  22  40  59  81 109 141 180 226 275 326
#     4  11  23  38  58  82 110 142 178 220 269 325
#     4  10  20  35  57  83 112 148 189 231 276 326
#     4  11  23  37  57  83 111 143 179 219 268 325
#     4  10  20  37  59  82 109 141 177 219 267 322
#     4   9  19  36  56  82 117 152 188 231 275 322
#     4  10  20  35  57  83 111 146 187 228 274 325
#
# _framework density 18.780716999999999
#
# number of rings (size 3 to 8) (size 9 to 14) (size 15 to 20)
#    0.000    2.000    1.250    1.875    0.000    6.000 
#    0.000    1.250    0.000    0.000    0.000    0.000 
#    0.000    0.000    0.000    0.000    0.000    0.000 
#
# Total GULP energy -793676.799199 kJ/mol
# GULP energy per Si atom -12401.199987 kJ/mol
# Density = 1.873797 g / cm^3
# Si number density = 18.780717 Si / 1000 Ang^3
#
#
#
# Elastic Constant Matrix: (Units=GPa)
#
#
# Indices 1 2 3 4 5 6 
#
# 1 100.3222 56.9038 74.7489 0.0000 0.0000 0.0000
# 2 56.9038 132.1634 57.8827 0.0000 0.0000 0.0000
# 3 74.7489 57.8827 118.7387 0.0000 0.0000 0.0000
# 4 0.0000 0.0000 0.0000 19.2952 0.0000 0.0000
# 5 0.0000 0.0000 0.0000 0.0000 37.7793 0.0000
# 6 0.0000 0.0000 0.0000 0.0000 0.0000 26.4087
#
#
#
# Elastic Compliance Matrix: (Units=1/GPa)
#
#
# Indices 1 2 3 4 5 6 
#
# 1 0.020310 -0.003999 -0.010836 0.000000 0.000000 0.000000
# 2 -0.003999 0.010408 -0.002556 0.000000 0.000000 0.000000
# 3 -0.010836 -0.002556 0.016490 0.000000 0.000000 0.000000
# 4 0.000000 0.000000 0.000000 0.051826 0.000000 0.000000
# 5 0.000000 0.000000 0.000000 0.000000 0.026469 0.000000
# 6 0.000000 0.000000 0.000000 0.000000 0.000000 0.037866
#
#
# Mechanical properties :
#
#
# Convention : Reuss Voigt Hill
#
# Bulk Modulus (GPa) = 80.48433 81.14388 80.81411
# Shear Modulus (GPa) = 24.71653 27.47589 26.09621
#
# Velocity S-wave (km/s) = 3.63169 3.82905 3.73167
# Velocity P-wave (km/s) = 7.78032 7.92771 7.85436
#
# Compressibility (1/GPa) = 0.01242478
#
# Stress axis : x y z
#
# Youngs Moduli (GPa) = 49.23673 96.08378 60.64383
#
# Poissons Ratio (x) = 0.38421 0.65716
# Poissons Ratio (y) = 0.19688 0.15502
# Poissons Ratio (z) = 0.53355 0.24561
#
# Static dielectric constant tensor:
#      x y z
#    x 3.532680 0.000000 0.000000 
#    y 0.000000 3.443070 0.000000 
#    z 0.000000 0.000000 3.546840 
# 
# 
# High freq. dielectric constant tensor:
#      x y z
#    x 1.735660 0.000000 0.000000 
#    y 0.000000 1.726360 0.000000 
#    z 0.000000 0.000000 1.737910 
# 
# From -- ./inp_files/20919.got.cif
#   From: 2010.03.12/outbox.cif.g09.slc.cpg/sg53_11_cif.got.tgz:20919.got - 2010.04.16 14:36:59.
