data_PCOD8221372
_publ_section_title
;
Structure prediction by ZEFSAII (Michael W. Deem and Ramdas Pophale) SiO2 
 PCOD8221372
Probable space group: P M N A
;
_chemical_formula_sum "Si O2"
_cell_formula_units_Z 48
_cell_length_a 9.100429
_cell_length_b 11.205893
_cell_length_c 23.308236
_cell_angle_alpha 90.000000
_cell_angle_beta 90.000000
_cell_angle_gamma 90.000000
_cell_volume 2376.937398
_symmetry_space_group_name_H-M "P M N A"
_symmetry_group_IT_number 53
_symmetry_cell_setting 'orthorhombic'
loop_
_space_group_symop_operation_xyz
x,y,z
1/2-x,-y,1/2+z
x,-y,-z
1/2-x,y,1/2-z
-x,-y,-z
1/2+x,y,1/2-z
-x,y,z
1/2+x,-y,1/2+z
loop_
_atom_site_type_symbol
_atom_site_label
_atom_site_fract_x
_atom_site_fract_y
_atom_site_fract_z
Si Si1 0.171685 0.147120 0.689682
Si Si2 0.674269 0.219899 0.470428
Si Si3 0.828802 0.715305 0.421090
Si Si4 0.333904 0.557567 0.920291
Si Si5 0.836178 0.327796 0.304373
Si Si6 0.825711 0.097252 0.370246
O O1 0.250000 0.170576 0.750000
O O2 0.212318 0.251811 0.644586
O O3 0.000000 0.141978 0.702917
O O4 0.224094 0.024250 0.660023
O O5 0.500000 0.208315 0.469511
O O6 0.734467 0.203640 0.535227
O O7 0.721801 0.351559 0.449418
O O8 0.743858 0.115686 0.431043
O O9 0.791113 0.577637 0.434898
O O10 0.000000 0.743477 0.431032
O O11 0.500000 0.587398 0.941748
O O12 0.327268 0.569033 0.851714
O O13 0.750000 0.375408 0.250000
O O14 0.771894 0.203967 0.328945
O O15 0.000000 0.303964 0.283415
O O16 0.000000 0.103351 0.381782
#
# Coordination Sequence:
#
# PCOD8221372 Si02
#       6
#     8   8   8   8   8   8
#     4  10  22  39  60  84 111 147 187 224 265 319
#     4  11  22  35  56  86 112 136 177 234 284 319
#     4  10  21  38  58  79 109 151 187 215 263 333
#     4   9  19  36  55  76 108 149 186 220 268 333
#     4   9  17  29  48  74 102 135 176 221 267 314
#     4   9  19  37  57  78 108 145 182 220 270 332
#
# _framework density 20.194053
#
# number of rings (size 3 to 8) (size 9 to 14) (size 15 to 20)
#    0.000    2.333    0.000    3.500    0.000    8.000 
#    0.000    3.333    0.000    0.000    0.000    0.000 
#    0.000    0.000    0.000    0.000    0.000    0.000 
#
# Total GULP energy -595141.913324 kJ/mol
# GULP energy per Si atom -12398.789861 kJ/mol
# Density = 2.014809 g / cm^3
# Si number density = 20.194053 Si / 1000 Ang^3
#
#
#
# Elastic Constant Matrix: (Units=GPa)
#
#
# Indices 1 2 3 4 5 6 
#
# 1 78.5196 17.5961 53.9243 0.0000 0.0000 0.0000
# 2 17.5961 30.1933 14.3944 0.0000 0.0000 0.0000
# 3 53.9243 14.3944 125.6154 0.0000 0.0000 0.0000
# 4 0.0000 0.0000 0.0000 25.4424 0.0000 0.0000
# 5 0.0000 0.0000 0.0000 0.0000 38.6684 0.0000
# 6 0.0000 0.0000 0.0000 0.0000 0.0000 28.3431
#
#
#
# Elastic Compliance Matrix: (Units=1/GPa)
#
#
# Indices 1 2 3 4 5 6 
#
# 1 0.019683 -0.007873 -0.007548 0.000000 0.000000 0.000000
# 2 -0.007873 0.038183 -0.000996 0.000000 0.000000 0.000000
# 3 -0.007548 -0.000996 0.011315 0.000000 0.000000 0.000000
# 4 0.000000 0.000000 0.000000 0.039304 0.000000 0.000000
# 5 0.000000 0.000000 0.000000 0.000000 0.025861 0.000000
# 6 0.000000 0.000000 0.000000 0.000000 0.000000 0.035282
#
#
# Mechanical properties :
#
#
# Convention : Reuss Voigt Hill
#
# Bulk Modulus (GPa) = 27.51124 45.12866 36.31995
# Shear Modulus (GPa) = 23.30168 28.38502 25.84335
#
# Velocity S-wave (km/s) = 3.40058 3.75322 3.58124
# Velocity P-wave (km/s) = 5.39181 6.41702 5.92663
#
# Compressibility (1/GPa) = 0.03634878
#
# Stress axis : x y z
#
# Youngs Moduli (GPa) = 50.80444 26.18982 88.37892
#
# Poissons Ratio (x) = 0.20619 0.66704
# Poissons Ratio (y) = 0.39998 0.08800
# Poissons Ratio (z) = 0.38345 0.02608
#
# Static dielectric constant tensor:
#      x y z
#    x 3.419720 0.000000 0.000000 
#    y 0.000000 3.587910 0.000000 
#    z 0.000000 0.000000 3.766880 
# 
# 
# High freq. dielectric constant tensor:
#      x y z
#    x 1.765270 0.000000 0.000000 
#    y 0.000000 1.778280 0.000000 
#    z 0.000000 0.000000 1.800770 
# 
# From -- ./inp_files/33845.got.cif
#   From: 2010.03.12/outbox.cif.g09.slc.cpg/sg53_17_cif.got.tgz:33845.got - 2010.04.16 14:36:59.
