data_PCOD8221407
_publ_section_title
;
Structure prediction by ZEFSAII (Michael W. Deem and Ramdas Pophale) SiO2 
 PCOD8221407
Probable space group: P M N A
;
_chemical_formula_sum "Si O2"
_cell_formula_units_Z 48
_cell_length_a 8.715840
_cell_length_b 30.360168
_cell_length_c 9.123366
_cell_angle_alpha 90.000000
_cell_angle_beta 90.000000
_cell_angle_gamma 90.000000
_cell_volume 2414.173716
_symmetry_space_group_name_H-M "P M N A"
_symmetry_group_IT_number 53
_symmetry_cell_setting 'orthorhombic'
loop_
_space_group_symop_operation_xyz
x,y,z
1/2-x,-y,1/2+z
x,-y,-z
1/2-x,y,1/2-z
-x,-y,-z
1/2+x,y,1/2-z
-x,y,z
1/2+x,-y,1/2+z
loop_
_atom_site_type_symbol
_atom_site_label
_atom_site_fract_x
_atom_site_fract_y
_atom_site_fract_z
Si Si1 0.678562 0.795371 0.090560
Si Si2 0.181474 0.873236 0.909466
Si Si3 0.678886 0.288774 0.097530
Si Si4 0.322363 0.543120 0.095156
Si Si5 0.818601 0.618260 0.906008
Si Si6 0.181282 0.041928 0.910100
O O1 0.750000 0.799818 0.250000
O O2 0.500000 0.806841 0.099854
O O3 0.758071 0.828551 0.979467
O O4 0.707530 0.746465 0.029937
O O5 0.250000 0.879959 0.750000
O O6 0.000000 0.870829 0.896698
O O7 0.236380 0.913995 0.008576
O O8 0.750000 0.271337 0.250000
O O9 0.500000 0.297855 0.123506
O O10 0.759844 0.333639 0.047015
O O11 0.250000 0.531842 0.250000
O O12 0.500000 0.555663 0.109986
O O13 0.296837 0.500000 0.000000
O O14 0.233098 0.584243 0.028393
O O15 0.750000 0.603849 0.750000
O O16 0.000000 0.618717 0.893546
O O17 0.250000 0.041195 0.750000
O O18 0.000000 0.040164 0.896439
O O19 0.243717 0.000000 0.000000
#
# Coordination Sequence:
#
# PCOD8221407 Si02
#       6
#     8   8   8   8   8   8
#     4  11  24  40  60  86 118 155 195 242 293 347
#     4  11  23  39  61  87 117 153 195 242 292 349
#     4  10  21  38  60  86 116 152 195 240 289 346
#     4  11  24  41  62  88 119 155 196 241 290 346
#     4  11  22  38  62  89 120 156 195 241 291 345
#     4  10  22  39  59  86 118 153 194 239 289 345
#
# _framework density 19.882580000000001
#
# number of rings (size 3 to 8) (size 9 to 14) (size 15 to 20)
#    0.000    1.333    0.000    6.500    0.000   10.333 
#    0.000    1.667    0.000    0.000    0.000    0.000 
#    0.000    0.000    0.000    0.000    0.000    0.000 
#
# Total GULP energy -595493.528990 kJ/mol
# GULP energy per Si atom -12406.115187 kJ/mol
# Density = 1.983733 g / cm^3
# Si number density = 19.882580 Si / 1000 Ang^3
#
#
#
# Elastic Constant Matrix: (Units=GPa)
#
#
# Indices 1 2 3 4 5 6 
#
# 1 127.3625 62.0130 62.3711 0.0000 0.0000 0.0000
# 2 62.0130 105.6843 61.8271 0.0000 0.0000 0.0000
# 3 62.3711 61.8271 147.5410 0.0000 0.0000 0.0000
# 4 0.0000 0.0000 0.0000 52.8393 0.0000 0.0000
# 5 0.0000 0.0000 0.0000 0.0000 39.0285 0.0000
# 6 0.0000 0.0000 0.0000 0.0000 0.0000 25.1052
#
#
#
# Elastic Compliance Matrix: (Units=1/GPa)
#
#
# Indices 1 2 3 4 5 6 
#
# 1 0.011784 -0.005299 -0.002761 0.000000 0.000000 0.000000
# 2 -0.005299 0.014918 -0.004011 0.000000 0.000000 0.000000
# 3 -0.002761 -0.004011 0.009626 0.000000 0.000000 0.000000
# 4 0.000000 0.000000 0.000000 0.018925 0.000000 0.000000
# 5 0.000000 0.000000 0.000000 0.000000 0.025622 0.000000
# 6 0.000000 0.000000 0.000000 0.000000 0.000000 0.039832
#
#
# Mechanical properties :
#
#
# Convention : Reuss Voigt Hill
#
# Bulk Modulus (GPa) = 82.06730 83.66777 82.86754
# Shear Modulus (GPa) = 33.57672 36.35305 34.96488
#
# Velocity S-wave (km/s) = 4.11390 4.28060 4.19808
# Velocity P-wave (km/s) = 7.99570 8.16111 8.07883
#
# Compressibility (1/GPa) = 0.01218512
#
# Stress axis : x y z
#
# Youngs Moduli (GPa) = 84.86174 67.03148 103.88755
#
# Poissons Ratio (x) = 0.35523 0.28681
# Poissons Ratio (y) = 0.44972 0.41672
# Poissons Ratio (z) = 0.23428 0.26888
#
# Static dielectric constant tensor:
#      x y z
#    x 3.766040 0.000000 0.000000 
#    y 0.000000 3.812240 0.000000 
#    z 0.000000 0.000000 3.614910 
# 
# 
# High freq. dielectric constant tensor:
#      x y z
#    x 1.789620 0.000000 0.000000 
#    y 0.000000 1.790870 0.000000 
#    z 0.000000 0.000000 1.784160 
# 
# From -- ./inp_files/6762.got.cif
#   From: 2010.03.12/outbox.cif.g09.slc.cpg/sg53_4_cif.got.tgz:6762.got - 2010.04.16 14:36:59.
