data_PCOD8221925
_publ_section_title
;
Structure prediction by ZEFSAII (Michael W. Deem and Ramdas Pophale) SiO2 
 PCOD8221925
Probable space group: P M N A
;
_chemical_formula_sum "Si O2"
_cell_formula_units_Z 64
_cell_length_a 8.747085
_cell_length_b 23.859104
_cell_length_c 15.189853
_cell_angle_alpha 90.000000
_cell_angle_beta 90.000000
_cell_angle_gamma 90.000000
_cell_volume 3170.086028
_symmetry_space_group_name_H-M "P M N A"
_symmetry_group_IT_number 53
_symmetry_cell_setting 'orthorhombic'
loop_
_space_group_symop_operation_xyz
x,y,z
1/2-x,-y,1/2+z
x,-y,-z
1/2-x,y,1/2-z
-x,-y,-z
1/2+x,y,1/2-z
-x,y,z
1/2+x,-y,1/2+z
loop_
_atom_site_type_symbol
_atom_site_label
_atom_site_fract_x
_atom_site_fract_y
_atom_site_fract_z
Si Si1 0.178122 0.390008 0.654230
Si Si2 0.819369 0.624850 0.847290
Si Si3 0.321452 0.119486 0.339035
Si Si4 0.178653 0.513690 0.654844
Si Si5 0.177433 0.808739 0.008201
Si Si6 0.319424 0.995753 0.899750
Si Si7 0.319984 0.891725 0.338087
Si Si8 0.679977 0.690832 0.000997
O O1 0.250000 0.380134 0.750000
O O2 0.209123 0.452383 0.613003
O O3 0.242391 0.346178 0.582894
O O4 0.000000 0.380996 0.668983
O O5 0.750000 0.633246 0.750000
O O6 0.762505 0.566051 0.892181
O O7 0.000000 0.625600 0.839364
O O8 0.764785 0.674484 0.910785
O O9 0.250000 0.144801 0.250000
O O10 0.500000 0.106955 0.328832
O O11 0.289738 0.165644 0.412885
O O12 0.236507 0.062037 0.359569
O O13 0.250000 0.510049 0.750000
O O14 0.000000 0.527723 0.658887
O O15 0.000000 0.792667 0.020063
O O16 0.230880 0.854172 0.079632
O O17 0.281807 0.754756 0.022339
O O18 0.500000 0.999913 0.891205
O O19 0.245307 0.046051 0.846098
O O20 0.263464 0.000000 0.000000
O O21 0.250000 0.864144 0.250000
O O22 0.500000 0.895094 0.330332
O O23 0.500000 0.682236 0.988408
#
# Coordination Sequence:
#
# PCOD8221925 Si02
#       8
#     8   8   8   8   8   8   8   8
#     4   9  20  37  59  87 119 156 195 240 295 352
#     4  11  22  38  60  87 119 154 195 242 296 355
#     4  11  23  41  64  90 121 156 196 239 294 353
#     4   9  16  31  55  84 118 152 190 236 291 353
#     4  10  24  44  62  83 116 157 200 249 298 347
#     4  11  22  37  62  94 126 158 195 239 291 350
#     4  11  23  41  64  90 122 159 199 243 295 351
#     4  11  24  41  61  86 117 156 201 248 297 351
#
# _framework density 20.188727
#
# number of rings (size 3 to 8) (size 9 to 14) (size 15 to 20)
#    0.000    1.625    1.250    4.125    0.000    5.500 
#    0.000    6.250    0.000    0.000    0.000    0.000 
#    0.000    0.000    0.000    0.000    0.000    0.000 
#
# Total GULP energy -793651.584544 kJ/mol
# GULP energy per Si atom -12400.806008 kJ/mol
# Density = 2.014278 g / cm^3
# Si number density = 20.188727 Si / 1000 Ang^3
#
#
#
# Elastic Constant Matrix: (Units=GPa)
#
#
# Indices 1 2 3 4 5 6 
#
# 1 91.7828 31.2547 34.8394 0.0000 0.0000 0.0000
# 2 31.2547 87.8244 18.0410 0.0000 0.0000 0.0000
# 3 34.8394 18.0410 95.4753 0.0000 0.0000 0.0000
# 4 0.0000 0.0000 0.0000 18.1589 0.0000 0.0000
# 5 0.0000 0.0000 0.0000 0.0000 28.2163 0.0000
# 6 0.0000 0.0000 0.0000 0.0000 0.0000 35.0984
#
#
#
# Elastic Compliance Matrix: (Units=1/GPa)
#
#
# Indices 1 2 3 4 5 6 
#
# 1 0.013916 -0.004067 -0.004310 0.000000 0.000000 0.000000
# 2 -0.004067 0.013035 -0.000979 0.000000 0.000000 0.000000
# 3 -0.004310 -0.000979 0.012231 0.000000 0.000000 0.000000
# 4 0.000000 0.000000 0.000000 0.055069 0.000000 0.000000
# 5 0.000000 0.000000 0.000000 0.000000 0.035440 0.000000
# 6 0.000000 0.000000 0.000000 0.000000 0.000000 0.028491
#
#
# Mechanical properties :
#
#
# Convention : Reuss Voigt Hill
#
# Bulk Modulus (GPa) = 48.84916 49.26142 49.05529
# Shear Modulus (GPa) = 27.21554 29.02455 28.12004
#
# Velocity S-wave (km/s) = 3.67557 3.79576 3.73615
# Velocity P-wave (km/s) = 6.50091 6.60786 6.55461
#
# Compressibility (1/GPa) = 0.02047118
#
# Stress axis : x y z
#
# Youngs Moduli (GPa) = 71.85919 76.71733 81.75635
#
# Poissons Ratio (x) = 0.31202 0.35233
# Poissons Ratio (y) = 0.29226 0.08003
# Poissons Ratio (z) = 0.30968 0.07510
#
# Static dielectric constant tensor:
#      x y z
#    x 3.682320 0.000000 0.000000 
#    y 0.000000 3.902970 0.000000 
#    z 0.000000 0.000000 3.821700 
# 
# 
# High freq. dielectric constant tensor:
#      x y z
#    x 1.794340 0.000000 0.000000 
#    y 0.000000 1.789200 0.000000 
#    z 0.000000 0.000000 1.791420 
# 
# From -- ./inp_files/21015.got.cif
#   From: 2010.03.12/outbox.cif.g09.slc.cpg/sg53_11_cif.got.tgz:21015.got - 2010.04.16 14:36:59.
