data_PCOD8221418
_publ_section_title
;
Structure prediction by ZEFSAII (Michael W. Deem and Ramdas Pophale) SiO2 
 PCOD8221418
Probable space group: P M N A
;
_chemical_formula_sum "Si O2"
_cell_formula_units_Z 40
_cell_length_a 7.705059
_cell_length_b 9.715450
_cell_length_c 26.943365
_cell_angle_alpha 90.000000
_cell_angle_beta 90.000000
_cell_angle_gamma 90.000000
_cell_volume 2016.929528
_symmetry_space_group_name_H-M "P M N A"
_symmetry_group_IT_number 53
_symmetry_cell_setting 'orthorhombic'
loop_
_space_group_symop_operation_xyz
x,y,z
1/2-x,-y,1/2+z
x,-y,-z
1/2-x,y,1/2-z
-x,-y,-z
1/2+x,y,1/2-z
-x,y,z
1/2+x,-y,1/2+z
loop_
_atom_site_type_symbol
_atom_site_label
_atom_site_fract_x
_atom_site_fract_y
_atom_site_fract_z
Si Si1 0.298948 0.495351 0.694908
Si Si2 0.000000 0.638742 0.470217
Si Si3 0.194987 0.201831 0.306048
Si Si4 0.702953 0.294269 0.606396
Si Si5 0.192247 0.023608 0.108655
Si Si6 0.500000 0.112672 0.041393
O O1 0.250000 0.443814 0.750000
O O2 0.500000 0.530026 0.693212
O O3 0.204319 0.636810 0.679989
O O4 0.247108 0.376912 0.656183
O O5 0.000000 0.500000 0.500000
O O6 0.825027 0.653157 0.437891
O O7 0.000000 0.742852 0.515373
O O8 0.250000 0.179057 0.250000
O O9 0.315307 0.104907 0.339492
O O10 0.000000 0.151158 0.314549
O O11 0.500000 0.316825 0.592265
O O12 0.745480 0.134880 0.617103
O O13 0.326636 0.100370 0.073451
O O14 0.000000 0.030680 0.084660
O O15 0.500000 0.000000 0.000000
#
# Coordination Sequence:
#
# PCOD8221418 Si02
#       6
#     8   4   8   8   8   4
#     4  10  21  38  60  92 126 168 211 254 317 381
#     4  12  28  44  68  94 128 168 216 270 320 378
#     4  11  22  38  62  95 130 168 215 260 315 384
#     4  10  24  43  64  93 129 164 211 262 317 382
#     4  11  23  42  66  94 129 167 210 267 320 377
#     4  12  24  46  66  98 124 168 222 260 324 382
#
# _framework density 19.832125999999999
#
# number of rings (size 3 to 8) (size 9 to 14) (size 15 to 20)
#    0.000    1.200    3.000    3.600    5.600    2.400 
#    0.000    2.000    0.000    0.000    0.000    0.000 
#    0.000    0.000    0.000    0.000    0.000    0.000 
#
# Total GULP energy -496063.739938 kJ/mol
# GULP energy per Si atom -12401.593498 kJ/mol
# Density = 1.978699 g / cm^3
# Si number density = 19.832126 Si / 1000 Ang^3
#
#
#
# Elastic Constant Matrix: (Units=GPa)
#
#
# Indices 1 2 3 4 5 6 
#
# 1 112.4803 45.1337 56.1205 0.0000 0.0000 0.0000
# 2 45.1337 144.0026 93.9274 0.0000 0.0000 0.0000
# 3 56.1205 93.9274 132.6551 0.0000 0.0000 0.0000
# 4 0.0000 0.0000 0.0000 43.6414 0.0000 0.0000
# 5 0.0000 0.0000 0.0000 0.0000 33.4384 0.0000
# 6 0.0000 0.0000 0.0000 0.0000 0.0000 26.2399
#
#
#
# Elastic Compliance Matrix: (Units=1/GPa)
#
#
# Indices 1 2 3 4 5 6 
#
# 1 0.011317 -0.000788 -0.004230 0.000000 0.000000 0.000000
# 2 -0.000788 0.012959 -0.008842 0.000000 0.000000 0.000000
# 3 -0.004230 -0.008842 0.015588 0.000000 0.000000 0.000000
# 4 0.000000 0.000000 0.000000 0.022914 0.000000 0.000000
# 5 0.000000 0.000000 0.000000 0.000000 0.029906 0.000000
# 6 0.000000 0.000000 0.000000 0.000000 0.000000 0.038110
#
#
# Mechanical properties :
#
#
# Convention : Reuss Voigt Hill
#
# Bulk Modulus (GPa) = 82.34279 86.61126 84.47703
# Shear Modulus (GPa) = 30.75755 33.59436 32.17596
#
# Velocity S-wave (km/s) = 3.94241 4.12021 4.03229
# Velocity P-wave (km/s) = 7.89516 8.14873 8.02295
#
# Compressibility (1/GPa) = 0.01214435
#
# Stress axis : x y z
#
# Youngs Moduli (GPa) = 88.36236 77.16835 64.15022
#
# Poissons Ratio (x) = 0.06082 0.27133
# Poissons Ratio (y) = 0.06964 0.56722
# Poissons Ratio (z) = 0.37374 0.68233
#
# Static dielectric constant tensor:
#      x y z
#    x 3.851790 0.000000 0.000000 
#    y 0.000000 3.662000 0.000000 
#    z 0.000000 0.000000 4.348510 
# 
# 
# High freq. dielectric constant tensor:
#      x y z
#    x 1.792670 0.000000 0.000000 
#    y 0.000000 1.777680 0.000000 
#    z 0.000000 0.000000 1.771980 
# 
# From -- ./inp_files/36077.got.cif
#   From: 2010.03.12/outbox.cif.g09.slc.cpg/sg53_19_cif.got.tgz:36077.got - 2010.04.16 14:36:59.
