data_PCOD8221822
_publ_section_title
;
Structure prediction by ZEFSAII (Michael W. Deem and Ramdas Pophale) SiO2 
 PCOD8221822
Probable space group: P M N A
;
_chemical_formula_sum "Si O2"
_cell_formula_units_Z 56
_cell_length_a 14.232218
_cell_length_b 13.086661
_cell_length_c 14.029682
_cell_angle_alpha 90.000000
_cell_angle_beta 90.000000
_cell_angle_gamma 90.000000
_cell_volume 2613.059310
_symmetry_space_group_name_H-M "P M N A"
_symmetry_group_IT_number 53
_symmetry_cell_setting 'orthorhombic'
loop_
_space_group_symop_operation_xyz
x,y,z
1/2-x,-y,1/2+z
x,-y,-z
1/2-x,y,1/2-z
-x,-y,-z
1/2+x,y,1/2-z
-x,y,z
1/2+x,-y,1/2+z
loop_
_atom_site_type_symbol
_atom_site_label
_atom_site_fract_x
_atom_site_fract_y
_atom_site_fract_z
Si Si1 0.610983 0.809953 0.803612
Si Si2 0.110921 0.584200 0.750775
Si Si3 0.388863 0.119036 0.993293
Si Si4 0.890447 0.052266 0.141369
Si Si5 0.266214 0.746674 0.142276
Si Si6 0.107648 0.846745 0.053183
Si Si7 0.737061 0.514104 0.111418
O O1 0.500000 0.822451 0.808452
O O2 0.636174 0.704211 0.751403
O O3 0.649193 0.824494 0.910825
O O4 0.653899 0.900505 0.737469
O O5 0.169753 0.525782 0.832945
O O6 0.144923 0.546821 0.646630
O O7 0.000000 0.563998 0.765596
O O8 0.500000 0.128642 0.979909
O O9 0.342619 0.177319 0.904291
O O10 0.358891 0.000000 0.000000
O O11 0.000000 0.031819 0.154253
O O12 0.848411 0.942760 0.112393
O O13 0.875999 0.134791 0.058023
O O14 0.250000 0.782682 0.250000
O O15 0.167729 0.749971 0.084966
O O16 0.293554 0.628818 0.137201
O O17 0.000000 0.824507 0.077241
O O18 0.754152 0.500000 0.000000
#
# Coordination Sequence:
#
# PCOD8221822 Si02
#       7
#     8   8   8   8   8   8   8
#     4   9  18  37  66  94 119 161 215 261 319 380
#     4  10  22  43  67  95 128 168 219 271 327 392
#     4  10  24  44  66  96 134 170 214 270 322 384
#     4   8  16  34  59  91 124 157 204 251 301 379
#     4  12  26  43  60  94 127 166 219 260 319 397
#     4   9  20  37  59  88 127 169 203 248 312 381
#     4  11  25  46  66  95 131 165 219 281 329 390
#
# _framework density 21.430817999999999
#
# number of rings (size 3 to 8) (size 9 to 14) (size 15 to 20)
#    0.000    2.143    1.429    1.714    6.000    2.286 
#    0.000    0.000    0.000    0.000    0.000    0.000 
#    0.000    0.000    0.000    0.000    0.000    0.000 
#
# Total GULP energy -694042.313200 kJ/mol
# GULP energy per Si atom -12393.612736 kJ/mol
# Density = 2.138204 g / cm^3
# Si number density = 21.430818 Si / 1000 Ang^3
#
#
#
# Elastic Constant Matrix: (Units=GPa)
#
#
# Indices 1 2 3 4 5 6 
#
# 1 73.4566 25.1352 28.8305 0.0000 0.0000 0.0000
# 2 25.1352 87.4048 38.8026 0.0000 0.0000 0.0000
# 3 28.8305 38.8026 131.7819 0.0000 0.0000 0.0000
# 4 0.0000 0.0000 0.0000 34.3133 0.0000 0.0000
# 5 0.0000 0.0000 0.0000 0.0000 30.0041 0.0000
# 6 0.0000 0.0000 0.0000 0.0000 0.0000 22.9046
#
#
#
# Elastic Compliance Matrix: (Units=1/GPa)
#
#
# Indices 1 2 3 4 5 6 
#
# 1 0.015747 -0.003450 -0.002429 0.000000 0.000000 0.000000
# 2 -0.003450 0.013917 -0.003343 0.000000 0.000000 0.000000
# 3 -0.002429 -0.003343 0.009104 0.000000 0.000000 0.000000
# 4 0.000000 0.000000 0.000000 0.029143 0.000000 0.000000
# 5 0.000000 0.000000 0.000000 0.000000 0.033329 0.000000
# 6 0.000000 0.000000 0.000000 0.000000 0.000000 0.043659
#
#
# Mechanical properties :
#
#
# Convention : Reuss Voigt Hill
#
# Bulk Modulus (GPa) = 49.20298 53.13112 51.16705
# Shear Modulus (GPa) = 29.39105 30.76940 30.08023
#
# Velocity S-wave (km/s) = 3.70731 3.79325 3.75052
# Velocity P-wave (km/s) = 6.42918 6.63556 6.53319
#
# Compressibility (1/GPa) = 0.02032397
#
# Stress axis : x y z
#
# Youngs Moduli (GPa) = 63.50223 71.85298 109.84034
#
# Poissons Ratio (x) = 0.24790 0.26683
# Poissons Ratio (y) = 0.21909 0.36721
# Poissons Ratio (z) = 0.15426 0.24021
#
# Static dielectric constant tensor:
#      x y z
#    x 3.733500 0.000000 0.000000 
#    y 0.000000 4.087630 0.000000 
#    z 0.000000 0.000000 3.928980 
# 
# 
# High freq. dielectric constant tensor:
#      x y z
#    x 1.834810 0.000000 0.000000 
#    y 0.000000 1.840160 0.000000 
#    z 0.000000 0.000000 1.846690 
# 
# From -- ./inp_files/22864.got.cif
#   From: 2010.03.12/outbox.cif.g09.slc.cpg/sg53_12_cif.got.tgz:22864.got - 2010.04.16 14:36:59.
