data_PCOD8221748
_publ_section_title
;
Structure prediction by ZEFSAII (Michael W. Deem and Ramdas Pophale) SiO2 
 PCOD8221748
Probable space group: P M N A
;
_chemical_formula_sum "Si O2"
_cell_formula_units_Z 48
_cell_length_a 8.811702
_cell_length_b 15.010260
_cell_length_c 17.456161
_cell_angle_alpha 90.000000
_cell_angle_beta 90.000000
_cell_angle_gamma 90.000000
_cell_volume 2308.855510
_symmetry_space_group_name_H-M "P M N A"
_symmetry_group_IT_number 53
_symmetry_cell_setting 'orthorhombic'
loop_
_space_group_symop_operation_xyz
x,y,z
1/2-x,-y,1/2+z
x,-y,-z
1/2-x,y,1/2-z
-x,-y,-z
1/2+x,y,1/2-z
-x,y,z
1/2+x,-y,1/2+z
loop_
_atom_site_type_symbol
_atom_site_label
_atom_site_fract_x
_atom_site_fract_y
_atom_site_fract_z
Si Si1 0.821393 0.815648 0.908693
Si Si2 0.822458 0.864102 0.081731
Si Si3 0.679377 0.980132 0.830047
Si Si4 0.675989 0.472913 0.915704
Si Si5 0.178005 0.312865 0.831884
Si Si6 0.677405 0.346211 0.167994
O O1 0.756610 0.717506 0.893885
O O2 0.000000 0.817354 0.893870
O O3 0.741745 0.882903 0.850138
O O4 0.780059 0.841245 0.995037
O O5 0.727735 0.950772 0.104369
O O6 0.771757 0.782755 0.135773
O O7 0.000000 0.885517 0.090380
O O8 0.750000 0.012510 0.750000
O O9 0.500000 0.976891 0.822751
O O10 0.500000 0.446147 0.916647
O O11 0.771582 0.387858 0.891188
O O12 0.708089 0.552727 0.856907
O O13 0.731246 0.500000 0.000000
O O14 0.250000 0.330475 0.750000
O O15 0.000000 0.318296 0.822436
O O16 0.750000 0.328795 0.250000
O O17 0.500000 0.324378 0.171124
#
# Coordination Sequence:
#
# PCOD8221748 Si02
#       6
#     8   8   8   8   8   8
#     4  11  23  41  64  89 121 157 196 245 299 355
#     4  10  23  42  63  90 122 157 197 244 298 353
#     4  12  25  41  63  90 121 158 200 245 295 352
#     4  10  22  40  62  89 121 157 198 247 300 353
#     4  11  23  39  61  89 121 158 200 245 295 352
#     4  11  23  39  60  87 120 157 200 247 296 353
#
# _framework density 20.789521000000001
#
# number of rings (size 3 to 8) (size 9 to 14) (size 15 to 20)
#    0.000    1.167    0.000    6.000    0.000    9.000 
#    0.000    0.000    0.000    0.000    0.000    0.000 
#    0.000    0.000    0.000    0.000    0.000    0.000 
#
# Total GULP energy -595620.724714 kJ/mol
# GULP energy per Si atom -12408.765098 kJ/mol
# Density = 2.074220 g / cm^3
# Si number density = 20.789521 Si / 1000 Ang^3
#
#
#
# Elastic Constant Matrix: (Units=GPa)
#
#
# Indices 1 2 3 4 5 6 
#
# 1 97.2797 32.2311 32.7424 0.0000 0.0000 0.0000
# 2 32.2311 69.0043 6.5189 0.0000 0.0000 0.0000
# 3 32.7424 6.5189 88.6553 0.0000 0.0000 0.0000
# 4 0.0000 0.0000 0.0000 36.2043 0.0000 0.0000
# 5 0.0000 0.0000 0.0000 0.0000 30.7438 0.0000
# 6 0.0000 0.0000 0.0000 0.0000 0.0000 35.4499
#
#
#
# Elastic Compliance Matrix: (Units=1/GPa)
#
#
# Indices 1 2 3 4 5 6 
#
# 1 0.013849 -0.006027 -0.004672 0.000000 0.000000 0.000000
# 2 -0.006027 0.017216 0.000960 0.000000 0.000000 0.000000
# 3 -0.004672 0.000960 0.012934 0.000000 0.000000 0.000000
# 4 0.000000 0.000000 0.000000 0.027621 0.000000 0.000000
# 5 0.000000 0.000000 0.000000 0.000000 0.032527 0.000000
# 6 0.000000 0.000000 0.000000 0.000000 0.000000 0.028209
#
#
# Mechanical properties :
#
#
# Convention : Reuss Voigt Hill
#
# Bulk Modulus (GPa) = 40.77941 44.21378 42.49660
# Shear Modulus (GPa) = 31.24837 32.70938 31.97888
#
# Velocity S-wave (km/s) = 3.88117 3.97086 3.92627
# Velocity P-wave (km/s) = 6.30417 6.50670 6.40624
#
# Compressibility (1/GPa) = 0.02452218
#
# Stress axis : x y z
#
# Youngs Moduli (GPa) = 72.20727 58.08389 77.31346
#
# Poissons Ratio (x) = 0.35009 0.36117
# Poissons Ratio (y) = 0.43522 -0.07423
# Poissons Ratio (z) = 0.33732 -0.05577
#
# Static dielectric constant tensor:
#      x y z
#    x 3.737180 0.000000 0.000000 
#    y 0.000000 3.833290 0.000000 
#    z 0.000000 0.000000 3.977110 
# 
# 
# High freq. dielectric constant tensor:
#      x y z
#    x 1.816910 0.000000 0.000000 
#    y 0.000000 1.826780 0.000000 
#    z 0.000000 0.000000 1.829150 
# 
# From -- ./inp_files/26286.got.cif
#   From: 2010.03.12/outbox.cif.g09.slc.cpg/sg53_14_cif.got.tgz:26286.got - 2010.04.16 14:36:59.
