data_PCOD8221060
_publ_section_title
;
Structure prediction by ZEFSAII (Michael W. Deem and Ramdas Pophale) SiO2 
 PCOD8221060
Probable space group: P M N A
;
_chemical_formula_sum "Si O2"
_cell_formula_units_Z 60
_cell_length_a 8.854037
_cell_length_b 18.481226
_cell_length_c 18.091745
_cell_angle_alpha 90.000000
_cell_angle_beta 90.000000
_cell_angle_gamma 90.000000
_cell_volume 2960.414810
_symmetry_space_group_name_H-M "P M N A"
_symmetry_group_IT_number 53
_symmetry_cell_setting 'orthorhombic'
loop_
_space_group_symop_operation_xyz
x,y,z
1/2-x,-y,1/2+z
x,-y,-z
1/2-x,y,1/2-z
-x,-y,-z
1/2+x,y,1/2-z
-x,y,z
1/2+x,-y,1/2+z
loop_
_atom_site_type_symbol
_atom_site_label
_atom_site_fract_x
_atom_site_fract_y
_atom_site_fract_z
Si Si1 0.164176 0.684641 0.142688
Si Si2 0.320779 0.951151 0.670520
Si Si3 0.321116 0.145186 0.041601
Si Si4 0.169935 0.905917 0.376519
Si Si5 0.824637 0.530855 0.178607
Si Si6 0.320255 0.291290 0.484102
Si Si7 0.250000 0.201067 0.750000
Si Si8 0.831324 0.440179 0.437890
O O1 0.251795 0.610667 0.164479
O O2 0.140404 0.743597 0.207058
O O3 0.000000 0.656387 0.118012
O O4 0.231940 0.721455 0.069326
O O5 0.250000 0.928712 0.750000
O O6 0.500000 0.939065 0.674011
O O7 0.249038 0.907252 0.602874
O O8 0.286879 0.034913 0.653285
O O9 0.500000 0.147518 0.051367
O O10 0.250721 0.223596 0.059313
O O11 0.277487 0.119956 0.958059
O O12 0.165060 0.843920 0.313472
O O13 0.000000 0.937803 0.382184
O O14 0.750000 0.496634 0.250000
O O15 0.789542 0.472722 0.117267
O O16 0.000000 0.538303 0.192109
O O17 0.500000 0.293269 0.470138
O O18 0.241314 0.365124 0.461526
O O19 0.846117 0.500000 0.500000
O O20 0.000000 0.426227 0.405301
#
# Coordination Sequence:
#
# PCOD8221060 Si02
#       8
#     8   8   8   8   8   8   4   8
#     4  10  21  34  55  88 129 171 209 252 308 374
#     4  12  26  45  70  97 127 169 219 272 328 387
#     4  11  24  44  67  97 134 171 216 270 326 385
#     4  11  24  40  64  97 136 177 215 262 318 382
#     4  11  22  39  60  88 124 166 209 259 314 375
#     4  11  22  40  63  92 125 166 217 266 318 377
#     4  12  20  38  60  96 138 178 210 252 312 378
#     4  11  23  39  61  90 122 164 213 262 314 374
#
# _framework density 20.267429
#
# number of rings (size 3 to 8) (size 9 to 14) (size 15 to 20)
#    0.000    0.933    4.000    3.600    0.000    3.733 
#    0.000    0.667    0.000    0.000    0.000    0.000 
#    0.000    0.000    0.000    0.000    0.000    0.000 
#
# Total GULP energy -743466.750755 kJ/mol
# GULP energy per Si atom -12391.112513 kJ/mol
# Density = 2.022130 g / cm^3
# Si number density = 20.267429 Si / 1000 Ang^3
#
#
#
# Elastic Constant Matrix: (Units=GPa)
#
#
# Indices 1 2 3 4 5 6 
#
# 1 111.1379 37.1848 35.7868 0.0000 0.0000 0.0000
# 2 37.1848 120.3515 55.4929 0.0000 0.0000 0.0000
# 3 35.7868 55.4929 118.4599 0.0000 0.0000 0.0000
# 4 0.0000 0.0000 0.0000 10.9736 0.0000 0.0000
# 5 0.0000 0.0000 0.0000 0.0000 27.5783 0.0000
# 6 0.0000 0.0000 0.0000 0.0000 0.0000 32.9433
#
#
#
# Elastic Compliance Matrix: (Units=1/GPa)
#
#
# Indices 1 2 3 4 5 6 
#
# 1 0.010427 -0.002257 -0.002093 0.000000 0.000000 0.000000
# 2 -0.002257 0.011087 -0.004512 0.000000 0.000000 0.000000
# 3 -0.002093 -0.004512 0.011188 0.000000 0.000000 0.000000
# 4 0.000000 0.000000 0.000000 0.091128 0.000000 0.000000
# 5 0.000000 0.000000 0.000000 0.000000 0.036260 0.000000
# 6 0.000000 0.000000 0.000000 0.000000 0.000000 0.030355
#
#
# Mechanical properties :
#
#
# Convention : Reuss Voigt Hill
#
# Bulk Modulus (GPa) = 66.76291 67.43091 67.09691
# Shear Modulus (GPa) = 23.45658 29.06469 26.26063
#
# Velocity S-wave (km/s) = 3.40568 3.79101 3.60350
# Velocity P-wave (km/s) = 6.96257 7.24604 7.10572
#
# Compressibility (1/GPa) = 0.01497838
#
# Stress axis : x y z
#
# Youngs Moduli (GPa) = 95.90739 90.19931 89.38546
#
# Poissons Ratio (x) = 0.20354 0.18707
# Poissons Ratio (y) = 0.21642 0.40329
# Poissons Ratio (z) = 0.20072 0.40696
#
# Static dielectric constant tensor:
#      x y z
#    x 3.693380 0.000000 0.000000 
#    y 0.000000 3.557200 0.000000 
#    z 0.000000 0.000000 3.785720 
# 
# 
# High freq. dielectric constant tensor:
#      x y z
#    x 1.791110 0.000000 0.000000 
#    y 0.000000 1.794670 0.000000 
#    z 0.000000 0.000000 1.792490 
# 
# From -- ./inp_files/26578.got.cif
#   From: 2010.03.12/outbox.cif.g09.slc.cpg/sg53_14_cif.got.tgz:26578.got - 2010.04.16 14:36:59.
