data_PCOD8221420
_publ_section_title
;
Structure prediction by ZEFSAII (Michael W. Deem and Ramdas Pophale) SiO2 
 PCOD8221420
Probable space group: P M N A
;
_chemical_formula_sum "Si O2"
_cell_formula_units_Z 48
_cell_length_a 8.732365
_cell_length_b 29.936591
_cell_length_c 9.144529
_cell_angle_alpha 90.000000
_cell_angle_beta 90.000000
_cell_angle_gamma 90.000000
_cell_volume 2390.537527
_symmetry_space_group_name_H-M "P M N A"
_symmetry_group_IT_number 53
_symmetry_cell_setting 'orthorhombic'
loop_
_space_group_symop_operation_xyz
x,y,z
1/2-x,-y,1/2+z
x,-y,-z
1/2-x,y,1/2-z
-x,-y,-z
1/2+x,y,1/2-z
-x,y,z
1/2+x,-y,1/2+z
loop_
_atom_site_type_symbol
_atom_site_label
_atom_site_fract_x
_atom_site_fract_y
_atom_site_fract_z
Si Si1 0.681190 0.121864 0.592407
Si Si2 0.319233 0.457853 0.408987
Si Si3 0.678790 0.700765 0.902747
Si Si4 0.179322 0.804352 0.596358
Si Si5 0.180846 0.372778 0.906565
Si Si6 0.677180 0.955878 0.905792
O O1 0.750000 0.110778 0.750000
O O2 0.500000 0.123104 0.605192
O O3 0.742016 0.169517 0.536419
O O4 0.731753 0.084327 0.478974
O O5 0.256012 0.500000 0.500000
O O6 0.250000 0.459374 0.250000
O O7 0.500000 0.460253 0.395582
O O8 0.266016 0.412442 0.486943
O O9 0.750000 0.684561 0.750000
O O10 0.500000 0.690769 0.897375
O O11 0.715007 0.752532 0.930812
O O12 0.754616 0.673955 0.034761
O O13 0.250000 0.820491 0.750000
O O14 0.000000 0.814654 0.599277
O O15 0.250000 0.383422 0.750000
O O16 0.000000 0.369409 0.893360
O O17 0.750000 0.966169 0.750000
O O18 0.500000 0.942245 0.889757
O O19 0.697752 0.000000 0.000000
#
# Coordination Sequence:
#
# PCOD8221420 Si02
#       6
#     8   8   8   8   8   8
#     4  12  25  41  62  88 121 158 198 245 295 349
#     4  10  22  39  59  85 115 149 190 235 286 343
#     4  10  21  38  61  87 117 153 194 241 291 347
#     4  10  21  39  62  88 118 154 196 241 292 348
#     4  11  23  38  58  84 116 153 194 240 290 346
#     4  11  24  42  65  92 123 159 199 243 292 347
#
# _framework density 20.079165
#
# number of rings (size 3 to 8) (size 9 to 14) (size 15 to 20)
#    0.000    1.333    0.000    5.500    0.000    8.333 
#    0.000    0.000    0.000    0.000    0.000    0.000 
#    0.000    0.000    0.000    0.000    0.000    0.000 
#
# Total GULP energy -595561.480151 kJ/mol
# GULP energy per Si atom -12407.530836 kJ/mol
# Density = 2.003346 g / cm^3
# Si number density = 20.079165 Si / 1000 Ang^3
#
#
#
# Elastic Constant Matrix: (Units=GPa)
#
#
# Indices 1 2 3 4 5 6 
#
# 1 119.6728 52.4965 58.3205 0.0000 0.0000 0.0000
# 2 52.4965 96.6093 55.3630 0.0000 0.0000 0.0000
# 3 58.3205 55.3630 151.0961 0.0000 0.0000 0.0000
# 4 0.0000 0.0000 0.0000 85.9118 0.0000 0.0000
# 5 0.0000 0.0000 0.0000 0.0000 42.1445 0.0000
# 6 0.0000 0.0000 0.0000 0.0000 0.0000 24.1364
#
#
#
# Elastic Compliance Matrix: (Units=1/GPa)
#
#
# Indices 1 2 3 4 5 6 
#
# 1 0.011839 -0.004828 -0.002800 0.000000 0.000000 0.000000
# 2 -0.004828 0.015071 -0.003659 0.000000 0.000000 0.000000
# 3 -0.002800 -0.003659 0.009040 0.000000 0.000000 0.000000
# 4 0.000000 0.000000 0.000000 0.011640 0.000000 0.000000
# 5 0.000000 0.000000 0.000000 0.000000 0.023728 0.000000
# 6 0.000000 0.000000 0.000000 0.000000 0.000000 0.041431
#
#
# Mechanical properties :
#
#
# Convention : Reuss Voigt Hill
#
# Bulk Modulus (GPa) = 74.76542 77.74868 76.25705
# Shear Modulus (GPa) = 35.77001 43.85175 39.81088
#
# Velocity S-wave (km/s) = 4.22530 4.67834 4.45758
# Velocity P-wave (km/s) = 7.81795 8.24546 8.03455
#
# Compressibility (1/GPa) = 0.01337517
#
# Stress axis : x y z
#
# Youngs Moduli (GPa) = 84.46733 66.35167 110.62210
#
# Poissons Ratio (x) = 0.32036 0.30980
# Poissons Ratio (y) = 0.40783 0.40472
# Poissons Ratio (z) = 0.23655 0.24275
#
# Static dielectric constant tensor:
#      x y z
#    x 3.748800 0.000000 0.000000 
#    y 0.000000 3.808460 0.000000 
#    z 0.000000 0.000000 3.714360 
# 
# 
# High freq. dielectric constant tensor:
#      x y z
#    x 1.795980 0.000000 0.000000 
#    y 0.000000 1.797230 0.000000 
#    z 0.000000 0.000000 1.792830 
# 
# From -- ./inp_files/6656.got.cif
#   From: 2010.03.12/outbox.cif.g09.slc.cpg/sg53_4_cif.got.tgz:6656.got - 2010.04.16 14:36:59.
