data_PCOD8221194
_publ_section_title
;
Structure prediction by ZEFSAII (Michael W. Deem and Ramdas Pophale) SiO2 
 PCOD8221194
Probable space group: P M N A
;
_chemical_formula_sum "Si O2"
_cell_formula_units_Z 48
_cell_length_a 10.075021
_cell_length_b 27.394950
_cell_length_c 8.735597
_cell_angle_alpha 90.000000
_cell_angle_beta 90.000000
_cell_angle_gamma 90.000000
_cell_volume 2411.065799
_symmetry_space_group_name_H-M "P M N A"
_symmetry_group_IT_number 53
_symmetry_cell_setting 'orthorhombic'
loop_
_space_group_symop_operation_xyz
x,y,z
1/2-x,-y,1/2+z
x,-y,-z
1/2-x,y,1/2-z
-x,-y,-z
1/2+x,y,1/2-z
-x,y,z
1/2+x,-y,1/2+z
loop_
_atom_site_type_symbol
_atom_site_label
_atom_site_fract_x
_atom_site_fract_y
_atom_site_fract_z
Si Si1 0.000000 0.296695 0.412255
Si Si2 0.000000 0.399404 0.538704
Si Si3 0.500000 0.379778 0.604214
Si Si4 0.848787 0.955185 0.610576
Si Si5 0.500000 0.724444 0.555272
Si Si6 0.232304 0.240504 0.572965
Si Si7 0.348326 0.868090 0.113245
Si Si8 0.765530 0.449723 0.927153
O O1 0.000000 0.282774 0.235780
O O2 0.868884 0.277679 0.495878
O O3 0.000000 0.354947 0.420756
O O4 0.000000 0.378479 0.711549
O O5 0.126484 0.432801 0.501523
O O6 0.500000 0.325515 0.539542
O O7 0.628949 0.407236 0.540608
O O8 0.750000 0.959373 0.750000
O O9 0.821124 0.904461 0.525534
O O10 0.000000 0.957487 0.670794
O O11 0.818591 0.000000 0.500000
O O12 0.372810 0.756366 0.511137
O O13 0.250000 0.254958 0.750000
O O14 0.177327 0.186152 0.552469
O O15 0.250000 0.881993 0.250000
O O16 0.500000 0.872704 0.172264
O O17 0.750000 0.460251 0.750000
O O18 0.815394 0.500000 0.000000
#
# Coordination Sequence:
#
# PCOD8221194 Si02
#       8
#     4   4   4   8   4   8   8   8
#     4  12  24  41  61  92 126 155 202 266 309 360
#     4  10  21  37  59  80 114 155 197 238 293 368
#     4  10  21  39  57  84 112 155 199 238 293 372
#     4  10  22  40  62  93 130 170 215 267 324 379
#     4  12  26  39  63  94 122 159 206 258 321 354
#     4  11  23  42  64  88 121 167 208 252 308 385
#     4  10  22  40  64  93 123 162 212 260 307 373
#     4  10  21  36  57  83 112 148 192 241 295 355
#
# _framework density 19.908207000000001
#
# number of rings (size 3 to 8) (size 9 to 14) (size 15 to 20)
#    0.000    1.500    0.833    4.000    3.500    5.000 
#    0.000    0.000    0.000    0.000    0.000    0.000 
#    0.000    0.000    0.000    0.000    0.000    0.000 
#
# Total GULP energy -595474.932716 kJ/mol
# GULP energy per Si atom -12405.727765 kJ/mol
# Density = 1.986290 g / cm^3
# Si number density = 19.908207 Si / 1000 Ang^3
#
#
#
# Elastic Constant Matrix: (Units=GPa)
#
#
# Indices 1 2 3 4 5 6 
#
# 1 138.0043 27.3298 44.3581 0.0000 0.0000 0.0000
# 2 27.3298 75.6018 34.7263 0.0000 0.0000 0.0000
# 3 44.3581 34.7263 95.0440 0.0000 0.0000 0.0000
# 4 0.0000 0.0000 0.0000 22.5811 0.0000 0.0000
# 5 0.0000 0.0000 0.0000 0.0000 19.7455 0.0000
# 6 0.0000 0.0000 0.0000 0.0000 0.0000 29.1301
#
#
#
# Elastic Compliance Matrix: (Units=1/GPa)
#
#
# Indices 1 2 3 4 5 6 
#
# 1 0.008670 -0.001533 -0.003486 0.000000 0.000000 0.000000
# 2 -0.001533 0.016166 -0.005191 0.000000 0.000000 0.000000
# 3 -0.003486 -0.005191 0.014045 0.000000 0.000000 0.000000
# 4 0.000000 0.000000 0.000000 0.044285 0.000000 0.000000
# 5 0.000000 0.000000 0.000000 0.000000 0.050644 0.000000
# 6 0.000000 0.000000 0.000000 0.000000 0.000000 0.034329
#
#
# Mechanical properties :
#
#
# Convention : Reuss Voigt Hill
#
# Bulk Modulus (GPa) = 54.16963 57.94207 56.05585
# Shear Modulus (GPa) = 25.67870 27.77372 26.72621
#
# Velocity S-wave (km/s) = 3.59535 3.73914 3.66795
# Velocity P-wave (km/s) = 6.67114 6.91443 6.79388
#
# Compressibility (1/GPa) = 0.01846053
#
# Stress axis : x y z
#
# Youngs Moduli (GPa) = 115.33551 61.85918 71.19821
#
# Poissons Ratio (x) = 0.09482 0.24823
# Poissons Ratio (y) = 0.17679 0.36960
# Poissons Ratio (z) = 0.40212 0.32112
#
# Static dielectric constant tensor:
#      x y z
#    x 3.952960 0.000000 0.000000 
#    y 0.000000 3.663340 0.000000 
#    z 0.000000 0.000000 3.481810 
# 
# 
# High freq. dielectric constant tensor:
#      x y z
#    x 1.796160 0.000000 0.000000 
#    y 0.000000 1.788770 0.000000 
#    z 0.000000 0.000000 1.765740 
# 
# From -- ./inp_files/6870.got.cif
#   From: 2010.03.12/outbox.cif.g09.slc.cpg/sg53_4_cif.got.tgz:6870.got - 2010.04.16 14:36:59.
