data_PCOD8221445
_publ_section_title
;
Structure prediction by ZEFSAII (Michael W. Deem and Ramdas Pophale) SiO2 
 PCOD8221445
Probable space group: P M N A
;
_chemical_formula_sum "Si O2"
_cell_formula_units_Z 24
_cell_length_a 16.500118
_cell_length_b 12.868232
_cell_length_c 4.917022
_cell_angle_alpha 90.000000
_cell_angle_beta 90.000000
_cell_angle_gamma 90.000000
_cell_volume 1044.018234
_symmetry_space_group_name_H-M "P M N A"
_symmetry_group_IT_number 53
_symmetry_cell_setting 'orthorhombic'
loop_
_space_group_symop_operation_xyz
x,y,z
1/2-x,-y,1/2+z
x,-y,-z
1/2-x,y,1/2-z
-x,-y,-z
1/2+x,y,1/2-z
-x,y,z
1/2+x,-y,1/2+z
loop_
_atom_site_type_symbol
_atom_site_label
_atom_site_fract_x
_atom_site_fract_y
_atom_site_fract_z
Si Si1 0.410450 0.930191 0.256162
Si Si2 0.659721 0.284264 0.837696
Si Si3 0.407930 0.605394 0.636448
O O1 0.500000 0.888865 0.349227
O O2 0.351228 0.839501 0.144414
O O3 0.371515 0.000000 0.500000
O O4 0.423843 0.000000 0.000000
O O5 0.750000 0.313431 0.750000
O O6 0.595651 0.311292 0.602801
O O7 0.642886 0.350707 0.109621
O O8 0.371588 0.500000 0.500000
O O9 0.500000 0.587420 0.734785
#
# Coordination Sequence:
#
# PCOD8221445 Si02
#       3
#     8   8   8
#     4  10  21  38  62  91 126 172 221 266 317 387
#     4  12  25  41  65  99 136 170 212 274 341 396
#     4  11  24  44  69  94 126 173 225 272 323 394
#
# _framework density 22.988102999999999
#
# number of rings (size 3 to 8) (size 9 to 14) (size 15 to 20)
#    0.000    1.000    0.000    7.000    0.000    9.333 
#    0.000    0.000    0.000    0.000    0.000    0.000 
#    0.000    0.000    0.000    0.000    0.000    0.000 
#
# Total GULP energy -297428.712103 kJ/mol
# GULP energy per Si atom -12392.863004 kJ/mol
# Density = 2.293578 g / cm^3
# Si number density = 22.988103 Si / 1000 Ang^3
#
#
#
# Elastic Constant Matrix: (Units=GPa)
#
#
# Indices 1 2 3 4 5 6 
#
# 1 52.6410 72.0745 39.3376 0.0000 0.0000 0.0000
# 2 72.0745 132.6615 75.4614 0.0000 0.0000 0.0000
# 3 39.3376 75.4614 173.8987 0.0000 0.0000 0.0000
# 4 0.0000 0.0000 0.0000 44.1493 0.0000 0.0000
# 5 0.0000 0.0000 0.0000 0.0000 -10.7491 0.0000
# 6 0.0000 0.0000 0.0000 0.0000 0.0000 46.1353
#
#
#
# Elastic Compliance Matrix: (Units=1/GPa)
#
#
# Indices 1 2 3 4 5 6 
#
# 1 0.074282 -0.040893 0.000942 0.000000 0.000000 0.000000
# 2 -0.040893 0.032520 -0.004861 0.000000 0.000000 0.000000
# 3 0.000942 -0.004861 0.007647 0.000000 0.000000 0.000000
# 4 0.000000 0.000000 0.000000 0.022650 0.000000 0.000000
# 5 0.000000 0.000000 0.000000 0.000000 -0.093031 0.000000
# 6 0.000000 0.000000 0.000000 0.000000 0.000000 0.021675
#
#
# Mechanical properties :
#
#
# Convention : Reuss Voigt Hill
#
# Bulk Modulus (GPa) = 40.28332 81.43868 60.86100
# Shear Modulus (GPa) = 30.55409 27.39561 28.97485
#
# Velocity S-wave (km/s) = 3.64967 3.45589 3.55410
# Velocity P-wave (km/s) = 5.94321 7.17130 6.58594
#
# Compressibility (1/GPa) = 0.02482417
#
# Stress axis : x y z
#
# Youngs Moduli (GPa) = 13.46217 30.75011 130.76980
#
# Poissons Ratio (x) = 1.25746 -0.12314
# Poissons Ratio (y) = 0.55051 0.63573
# Poissons Ratio (z) = -0.01268 0.14949
#
# Static dielectric constant tensor:
#      x y z
#    x 3.846320 0.000000 0.000000 
#    y 0.000000 3.817840 0.000000 
#    z 0.000000 0.000000 4.223950 
# 
# 
# High freq. dielectric constant tensor:
#      x y z
#    x 1.888800 0.000000 0.000000 
#    y 0.000000 1.918520 0.000000 
#    z 0.000000 0.000000 1.921060 
# 
# From -- ./inp_files/1101.got.cif
#   From: 2010.03.12/outbox.cif.g09.slc.cpg/sg53_1_cif.got.tgz:1101.got - 2010.04.16 14:36:59.
