data_PCOD8221564
_publ_section_title
;
Structure prediction by ZEFSAII (Michael W. Deem and Ramdas Pophale) SiO2 
 PCOD8221564
Probable space group: P M N A
;
_chemical_formula_sum "Si O2"
_cell_formula_units_Z 64
_cell_length_a 8.676196
_cell_length_b 11.950666
_cell_length_c 30.861111
_cell_angle_alpha 90.000000
_cell_angle_beta 90.000000
_cell_angle_gamma 90.000000
_cell_volume 3199.875048
_symmetry_space_group_name_H-M "P M N A"
_symmetry_group_IT_number 53
_symmetry_cell_setting 'orthorhombic'
loop_
_space_group_symop_operation_xyz
x,y,z
1/2-x,-y,1/2+z
x,-y,-z
1/2-x,y,1/2-z
-x,-y,-z
1/2+x,y,1/2-z
-x,y,z
1/2+x,-y,1/2+z
loop_
_atom_site_type_symbol
_atom_site_label
_atom_site_fract_x
_atom_site_fract_y
_atom_site_fract_z
Si Si1 0.322477 0.534171 0.049036
Si Si2 0.679582 0.254953 0.586655
Si Si3 0.181969 0.020136 0.952522
Si Si4 0.319129 0.517823 0.293780
Si Si5 0.181639 0.613675 0.878609
Si Si6 0.818670 0.127005 0.126622
Si Si7 0.180325 0.743121 0.321135
Si Si8 0.682007 0.010852 0.795391
O O1 0.500000 0.564155 0.058316
O O2 0.213778 0.641056 0.055790
O O3 0.271134 0.433284 0.080053
O O4 0.295677 0.500000 0.000000
O O5 0.500000 0.252821 0.599890
O O6 0.784542 0.268862 0.628449
O O7 0.730482 0.143388 0.562089
O O8 0.244150 0.930252 0.917577
O O9 0.000000 0.007608 0.955826
O O10 0.256270 0.000000 0.000000
O O11 0.250000 0.463504 0.250000
O O12 0.500000 0.508123 0.291047
O O13 0.258590 0.450187 0.335623
O O14 0.270235 0.647310 0.295468
O O15 0.224626 0.743245 0.874381
O O16 0.000000 0.595196 0.885330
O O17 0.737131 0.072059 0.167469
O O18 0.000000 0.106959 0.131586
O O19 0.000000 0.727510 0.312888
O O20 0.241021 0.863226 0.304716
O O21 0.750000 0.968509 0.750000
O O22 0.500000 0.007419 0.793326
#
# Coordination Sequence:
#
# PCOD8221564 Si02
#       8
#     8   8   8   8   8   8   8   8
#     4  11  25  42  61  88 125 165 204 248 302 360
#     4  11  21  36  64  94 122 158 201 251 303 358
#     4   9  19  35  59  92 123 156 198 246 299 352
#     4  11  23  39  60  89 120 155 202 248 303 361
#     4  10  23  41  63  90 119 159 207 252 298 357
#     4  10  21  40  63  87 122 159 200 252 301 355
#     4  11  22  38  61  90 125 160 196 247 306 360
#     4  11  24  40  61  89 122 159 203 249 300 361
#
# _framework density 20.000779999999999
#
# number of rings (size 3 to 8) (size 9 to 14) (size 15 to 20)
#    0.000    1.500    2.500    2.250    1.750    5.000 
#    0.000    1.250    0.000    1.875    0.000    0.000 
#    0.000    0.000    0.000    0.000    0.000    0.000 
#
# Total GULP energy -793874.784320 kJ/mol
# GULP energy per Si atom -12404.293505 kJ/mol
# Density = 1.995526 g / cm^3
# Si number density = 20.000780 Si / 1000 Ang^3
#
#
#
# Elastic Constant Matrix: (Units=GPa)
#
#
# Indices 1 2 3 4 5 6 
#
# 1 44.0506 29.3287 34.7606 0.0000 0.0000 0.0000
# 2 29.3287 133.3187 62.1184 0.0000 0.0000 0.0000
# 3 34.7606 62.1184 162.8773 0.0000 0.0000 0.0000
# 4 0.0000 0.0000 0.0000 27.9170 0.0000 0.0000
# 5 0.0000 0.0000 0.0000 0.0000 27.9373 0.0000
# 6 0.0000 0.0000 0.0000 0.0000 0.0000 20.7183
#
#
#
# Elastic Compliance Matrix: (Units=1/GPa)
#
#
# Indices 1 2 3 4 5 6 
#
# 1 0.029175 -0.004277 -0.004595 0.000000 0.000000 0.000000
# 2 -0.004277 0.009749 -0.002805 0.000000 0.000000 0.000000
# 3 -0.004595 -0.002805 0.008190 0.000000 0.000000 0.000000
# 4 0.000000 0.000000 0.000000 0.035820 0.000000 0.000000
# 5 0.000000 0.000000 0.000000 0.000000 0.035794 0.000000
# 6 0.000000 0.000000 0.000000 0.000000 0.000000 0.048267
#
#
# Mechanical properties :
#
#
# Convention : Reuss Voigt Hill
#
# Bulk Modulus (GPa) = 42.08958 65.85133 53.97046
# Shear Modulus (GPa) = 25.21815 29.58378 27.40097
#
# Velocity S-wave (km/s) = 3.55471 3.85012 3.70536
# Velocity P-wave (km/s) = 6.15935 7.26364 6.73417
#
# Compressibility (1/GPa) = 0.02375885
#
# Stress axis : x y z
#
# Youngs Moduli (GPa) = 34.27605 102.57670 122.09816
#
# Poissons Ratio (x) = 0.43873 0.56106
# Poissons Ratio (y) = 0.14660 0.34251
# Poissons Ratio (z) = 0.15750 0.28775
#
# Static dielectric constant tensor:
#      x y z
#    x 3.476250 0.000000 0.000000 
#    y 0.000000 3.753020 0.000000 
#    z 0.000000 0.000000 3.840890 
# 
# 
# High freq. dielectric constant tensor:
#      x y z
#    x 1.767430 0.000000 0.000000 
#    y 0.000000 1.784970 0.000000 
#    z 0.000000 0.000000 1.796340 
# 
# From -- ./inp_files/38252.got.cif
#   From: 2010.03.12/outbox.cif.g09.slc.cpg/sg53_20_cif.got.tgz:38252.got - 2010.04.16 14:36:59.
