data_PCOD8221164
_publ_section_title
;
Structure prediction by ZEFSAII (Michael W. Deem and Ramdas Pophale) SiO2 
 PCOD8221164
Probable space group: P M N A
;
_chemical_formula_sum "Si O2"
_cell_formula_units_Z 40
_cell_length_a 17.349970
_cell_length_b 9.079949
_cell_length_c 12.830185
_cell_angle_alpha 90.000000
_cell_angle_beta 90.000000
_cell_angle_gamma 90.000000
_cell_volume 2021.226837
_symmetry_space_group_name_H-M "P M N A"
_symmetry_group_IT_number 53
_symmetry_cell_setting 'orthorhombic'
loop_
_space_group_symop_operation_xyz
x,y,z
1/2-x,-y,1/2+z
x,-y,-z
1/2-x,y,1/2-z
-x,-y,-z
1/2+x,y,1/2-z
-x,y,z
1/2+x,-y,1/2+z
loop_
_atom_site_type_symbol
_atom_site_label
_atom_site_fract_x
_atom_site_fract_y
_atom_site_fract_z
Si Si1 0.088097 0.071512 0.112196
Si Si2 0.217482 0.838351 0.460860
Si Si3 0.315396 0.632681 0.331087
Si Si4 0.412211 0.832375 0.210478
Si Si5 0.285230 0.317604 0.363111
O O1 0.143218 0.209731 0.123662
O O2 0.000000 0.126488 0.117736
O O3 0.104736 0.964405 0.209960
O O4 0.103715 0.000000 0.000000
O O5 0.289966 0.776158 0.396010
O O6 0.139335 0.844931 0.393896
O O7 0.214050 0.727519 0.559925
O O8 0.239770 0.000000 0.500000
O O9 0.250000 0.594304 0.250000
O O10 0.393437 0.678993 0.270700
O O11 0.321257 0.478387 0.393099
O O12 0.500000 0.828849 0.172650
O O13 0.250000 0.305022 0.250000
#
# Coordination Sequence:
#
# PCOD8221164 Si02
#       5
#     8   8   8   8   8
#     4  10  21  36  55  82 114 147 189 242 292 341
#     4  11  21  35  58  84 113 150 194 238 290 350
#     4   9  20  36  56  82 111 145 186 233 283 340
#     4  10  21  38  58  84 119 154 191 239 298 358
#     4  11  21  35  57  82 110 147 194 242 288 346
#
# _framework density 19.789961000000002
#
# number of rings (size 3 to 8) (size 9 to 14) (size 15 to 20)
#    0.000    1.800    0.000    4.800    0.000    2.800 
#    0.000    1.000    0.000   21.600    0.000    0.000 
#    0.000    0.000    0.000    0.000    0.000    0.000 
#
# Total GULP energy -495571.496318 kJ/mol
# GULP energy per Si atom -12389.287408 kJ/mol
# Density = 1.974492 g / cm^3
# Si number density = 19.789961 Si / 1000 Ang^3
#
#
#
# Elastic Constant Matrix: (Units=GPa)
#
#
# Indices 1 2 3 4 5 6 
#
# 1 116.6389 72.4642 60.6013 0.0000 0.0000 0.0000
# 2 72.4642 158.1836 53.1714 0.0000 0.0000 0.0000
# 3 60.6013 53.1714 125.3072 0.0000 0.0000 0.0000
# 4 0.0000 0.0000 0.0000 33.7964 0.0000 0.0000
# 5 0.0000 0.0000 0.0000 0.0000 35.3473 0.0000
# 6 0.0000 0.0000 0.0000 0.0000 0.0000 32.7460
#
#
#
# Elastic Compliance Matrix: (Units=1/GPa)
#
#
# Indices 1 2 3 4 5 6 
#
# 1 0.014042 -0.004840 -0.004737 0.000000 0.000000 0.000000
# 2 -0.004840 0.009042 -0.001496 0.000000 0.000000 0.000000
# 3 -0.004737 -0.001496 0.010906 0.000000 0.000000 0.000000
# 4 0.000000 0.000000 0.000000 0.029589 0.000000 0.000000
# 5 0.000000 0.000000 0.000000 0.000000 0.028291 0.000000
# 6 0.000000 0.000000 0.000000 0.000000 0.000000 0.030538
#
#
# Mechanical properties :
#
#
# Convention : Reuss Voigt Hill
#
# Bulk Modulus (GPa) = 84.43540 85.84484 85.14012
# Shear Modulus (GPa) = 33.66966 34.63748 34.15357
#
# Velocity S-wave (km/s) = 4.12922 4.18814 4.15879
# Velocity P-wave (km/s) = 8.09273 8.17677 8.13486
#
# Compressibility (1/GPa) = 0.01184337
#
# Stress axis : x y z
#
# Youngs Moduli (GPa) = 71.21608 110.59595 91.69206
#
# Poissons Ratio (x) = 0.53531 0.43435
# Poissons Ratio (y) = 0.34470 0.13716
# Poissons Ratio (z) = 0.33735 0.16544
#
# Static dielectric constant tensor:
#      x y z
#    x 3.620260 0.000000 0.000000 
#    y 0.000000 3.879940 0.000000 
#    z 0.000000 0.000000 3.419520 
# 
# 
# High freq. dielectric constant tensor:
#      x y z
#    x 1.754350 0.000000 0.000000 
#    y 0.000000 1.777460 0.000000 
#    z 0.000000 0.000000 1.786740 
# 
# From -- ./inp_files/16684.got.cif
#   From: 2010.03.12/outbox.cif.g09.slc.cpg/sg53_9_cif.got.tgz:16684.got - 2010.04.16 14:36:59.
