data_PCOD8221033
_publ_section_title
;
Structure prediction by ZEFSAII (Michael W. Deem and Ramdas Pophale) SiO2 
 PCOD8221033
Probable space group: P M N A
;
_chemical_formula_sum "Si O2"
_cell_formula_units_Z 56
_cell_length_a 13.230276
_cell_length_b 9.846806
_cell_length_c 21.391678
_cell_angle_alpha 90.000000
_cell_angle_beta 90.000000
_cell_angle_gamma 90.000000
_cell_volume 2786.821411
_symmetry_space_group_name_H-M "P M N A"
_symmetry_group_IT_number 53
_symmetry_cell_setting 'orthorhombic'
loop_
_space_group_symop_operation_xyz
x,y,z
1/2-x,-y,1/2+z
x,-y,-z
1/2-x,y,1/2-z
-x,-y,-z
1/2+x,y,1/2-z
-x,y,z
1/2+x,-y,1/2+z
loop_
_atom_site_type_symbol
_atom_site_label
_atom_site_fract_x
_atom_site_fract_y
_atom_site_fract_z
Si Si1 0.276006 0.153293 0.016751
Si Si2 0.823624 0.507455 0.334554
Si Si3 0.615155 0.177674 0.384707
Si Si4 0.117021 0.780445 0.394809
Si Si5 0.613860 0.233380 0.129966
Si Si6 0.387570 0.444589 0.303163
Si Si7 0.768026 0.991704 0.680787
O O1 0.178115 0.218360 0.052291
O O2 0.369626 0.151351 0.065347
O O3 0.312986 0.237449 0.956353
O O4 0.248542 0.000000 0.000000
O O5 0.880329 0.641950 0.355581
O O6 0.843489 0.384889 0.382770
O O7 0.871797 0.445184 0.271241
O O8 0.702820 0.538286 0.330734
O O9 0.500000 0.149128 0.404035
O O10 0.622759 0.294417 0.332137
O O11 0.662988 0.038207 0.356155
O O12 0.000000 0.812196 0.411535
O O13 0.161829 0.899871 0.353257
O O14 0.500000 0.236790 0.151222
O O15 0.674149 0.153263 0.184228
O O16 0.500000 0.502889 0.319003
O O17 0.750000 0.047967 0.750000
#
# Coordination Sequence:
#
# PCOD8221033 Si02
#       7
#     8   8   8   8   8   8   8
#     4  11  22  42  63  93 128 170 215 265 314 381
#     4  11  23  40  64  97 128 161 215 265 316 391
#     4  10  21  41  69  97 124 166 219 271 319 373
#     4  12  26  43  63  92 136 175 209 267 332 382
#     4  11  21  38  65  91 120 165 215 263 320 377
#     4  10  20  40  68  93 126 166 205 262 327 381
#     4  11  23  39  60  97 127 168 213 268 319 390
#
# _framework density 20.094577000000001
#
# number of rings (size 3 to 8) (size 9 to 14) (size 15 to 20)
#    0.000    1.143    5.714    3.000    2.000    3.714 
#    0.000    2.857    0.000    1.714    0.000    0.000 
#    0.000    0.000    0.000    0.000    0.000    0.000 
#
# Total GULP energy -693979.868220 kJ/mol
# GULP energy per Si atom -12392.497647 kJ/mol
# Density = 2.004884 g / cm^3
# Si number density = 20.094577 Si / 1000 Ang^3
#
#
#
# Elastic Constant Matrix: (Units=GPa)
#
#
# Indices 1 2 3 4 5 6 
#
# 1 171.8234 33.0864 55.1839 0.0000 0.0000 0.0000
# 2 33.0864 86.5766 35.6621 0.0000 0.0000 0.0000
# 3 55.1839 35.6621 111.4246 0.0000 0.0000 0.0000
# 4 0.0000 0.0000 0.0000 23.5147 0.0000 0.0000
# 5 0.0000 0.0000 0.0000 0.0000 22.7403 0.0000
# 6 0.0000 0.0000 0.0000 0.0000 0.0000 24.7207
#
#
#
# Elastic Compliance Matrix: (Units=1/GPa)
#
#
# Indices 1 2 3 4 5 6 
#
# 1 0.007076 -0.001452 -0.003040 0.000000 0.000000 0.000000
# 2 -0.001452 0.013602 -0.003634 0.000000 0.000000 0.000000
# 3 -0.003040 -0.003634 0.011643 0.000000 0.000000 0.000000
# 4 0.000000 0.000000 0.000000 0.042527 0.000000 0.000000
# 5 0.000000 0.000000 0.000000 0.000000 0.043975 0.000000
# 6 0.000000 0.000000 0.000000 0.000000 0.000000 0.040452
#
#
# Mechanical properties :
#
#
# Convention : Reuss Voigt Hill
#
# Bulk Modulus (GPa) = 62.23012 68.63217 65.43114
# Shear Modulus (GPa) = 27.64214 30.58796 29.11505
#
# Velocity S-wave (km/s) = 3.71293 3.90577 3.81057
# Velocity P-wave (km/s) = 7.02972 7.38707 7.21061
#
# Compressibility (1/GPa) = 0.01606939
#
# Stress axis : x y z
#
# Youngs Moduli (GPa) = 141.32777 73.51623 85.88651
#
# Poissons Ratio (x) = 0.10675 0.26106
# Poissons Ratio (y) = 0.20521 0.31215
# Poissons Ratio (z) = 0.42958 0.26719
#
# Static dielectric constant tensor:
#      x y z
#    x 3.916100 0.000000 0.000000 
#    y 0.000000 3.452150 0.000000 
#    z 0.000000 0.000000 3.688290 
# 
# 
# High freq. dielectric constant tensor:
#      x y z
#    x 1.796910 0.000000 0.000000 
#    y 0.000000 1.761260 0.000000 
#    z 0.000000 0.000000 1.777350 
# 
# From -- ./inp_files/32470.got.cif
#   From: 2010.03.12/outbox.cif.g09.slc.cpg/sg53_17_cif.got.tgz:32470.got - 2010.04.16 14:36:59.
