data_PCOD8221670
_publ_section_title
;
Structure prediction by ZEFSAII (Michael W. Deem and Ramdas Pophale) SiO2 
 PCOD8221670
Probable space group: P M N A
;
_chemical_formula_sum "Si O2"
_cell_formula_units_Z 64
_cell_length_a 8.766136
_cell_length_b 23.736525
_cell_length_c 15.384358
_cell_angle_alpha 90.000000
_cell_angle_beta 90.000000
_cell_angle_gamma 90.000000
_cell_volume 3201.140387
_symmetry_space_group_name_H-M "P M N A"
_symmetry_group_IT_number 53
_symmetry_cell_setting 'orthorhombic'
loop_
_space_group_symop_operation_xyz
x,y,z
1/2-x,-y,1/2+z
x,-y,-z
1/2-x,y,1/2-z
-x,-y,-z
1/2+x,y,1/2-z
-x,y,z
1/2+x,-y,1/2+z
loop_
_atom_site_type_symbol
_atom_site_label
_atom_site_fract_x
_atom_site_fract_y
_atom_site_fract_z
Si Si1 0.820280 0.256816 0.591999
Si Si2 0.820489 0.367710 0.338026
Si Si3 0.679274 0.365635 0.663598
Si Si4 0.321945 0.065642 0.005716
Si Si5 0.319728 0.743560 0.595560
Si Si6 0.320108 0.865579 0.658306
Si Si7 0.323036 0.564803 0.507191
Si Si8 0.321326 0.864913 0.159416
O O1 0.767815 0.306755 0.654314
O O2 0.727877 0.263310 0.503618
O O3 0.773243 0.198858 0.638206
O O4 0.000000 0.259562 0.572406
O O5 0.750000 0.393796 0.250000
O O6 0.759237 0.304404 0.347811
O O7 0.776218 0.406588 0.418616
O O8 0.000000 0.365962 0.329484
O O9 0.750000 0.394365 0.750000
O O10 0.500000 0.354817 0.673538
O O11 0.716451 0.406543 0.584057
O O12 0.500000 0.078627 0.019160
O O13 0.231768 0.089555 0.087384
O O14 0.260946 0.094999 0.917772
O O15 0.286999 0.000000 0.000000
O O16 0.500000 0.736288 0.602624
O O17 0.262302 0.803508 0.631403
O O18 0.250000 0.883362 0.750000
O O19 0.500000 0.866983 0.665962
O O20 0.276128 0.500000 0.500000
O O21 0.500000 0.572301 0.531429
O O22 0.250000 0.884839 0.250000
O O23 0.500000 0.871370 0.169163
#
# Coordination Sequence:
#
# PCOD8221670 Si02
#       8
#     8   8   8   8   8   8   8   8
#     4  11  21  36  61  91 123 159 199 248 307 368
#     4  12  25  41  65  94 127 165 206 255 308 370
#     4  11  23  39  62  90 125 162 202 251 303 365
#     4  10  22  42  64  87 120 161 206 255 307 360
#     4  11  22  38  62  93 126 162 201 249 311 372
#     4  11  24  40  63  92 124 162 203 252 306 367
#     4  10  23  44  66  90 124 165 208 258 309 360
#     4  10  22  38  59  88 120 158 198 246 300 359
#
# _framework density 19.992874
#
# number of rings (size 3 to 8) (size 9 to 14) (size 15 to 20)
#    0.000    1.250    2.500    3.375    0.000    7.000 
#    0.000    2.500    0.000    0.000    0.000    0.000 
#    0.000    0.000    0.000    0.000    0.000    0.000 
#
# Total GULP energy -794009.226488 kJ/mol
# GULP energy per Si atom -12406.394164 kJ/mol
# Density = 1.994737 g / cm^3
# Si number density = 19.992874 Si / 1000 Ang^3
#
#
#
# Elastic Constant Matrix: (Units=GPa)
#
#
# Indices 1 2 3 4 5 6 
#
# 1 86.3624 45.8184 48.8601 0.0000 0.0000 0.0000
# 2 45.8184 122.8828 54.9655 0.0000 0.0000 0.0000
# 3 48.8601 54.9655 154.8901 0.0000 0.0000 0.0000
# 4 0.0000 0.0000 0.0000 151.6612 0.0000 0.0000
# 5 0.0000 0.0000 0.0000 0.0000 37.5357 0.0000
# 6 0.0000 0.0000 0.0000 0.0000 0.0000 -5.9520
#
#
#
# Elastic Compliance Matrix: (Units=1/GPa)
#
#
# Indices 1 2 3 4 5 6 
#
# 1 0.015847 -0.004366 -0.003450 0.000000 0.000000 0.000000
# 2 -0.004366 0.010876 -0.002482 0.000000 0.000000 0.000000
# 3 -0.003450 -0.002482 0.008425 0.000000 0.000000 0.000000
# 4 0.000000 0.000000 0.000000 0.006594 0.000000 0.000000
# 5 0.000000 0.000000 0.000000 0.000000 0.026641 0.000000
# 6 0.000000 0.000000 0.000000 0.000000 0.000000 -0.168009
#
#
# Mechanical properties :
#
#
# Convention : Reuss Voigt Hill
#
# Bulk Modulus (GPa) = 68.71550 73.71370 71.21460
# Shear Modulus (GPa) = -67.40385 50.94839 -8.22773
#
# Velocity S-wave (km/s) = -5.81267 5.05357 -2.03083
# Velocity P-wave (km/s) = 3.25652 8.42624 5.49530
#
# Compressibility (1/GPa) = 0.01455276
#
# Stress axis : x y z
#
# Youngs Moduli (GPa) = 63.10364 91.94545 118.68995
#
# Poissons Ratio (x) = 0.40141 0.40944
# Poissons Ratio (y) = 0.27549 0.29464
# Poissons Ratio (z) = 0.21769 0.22824
#
# Static dielectric constant tensor:
#      x y z
#    x 3.580230 0.000000 0.000000 
#    y 0.000000 3.779320 0.000000 
#    z 0.000000 0.000000 3.776750 
# 
# 
# High freq. dielectric constant tensor:
#      x y z
#    x 1.781870 0.000000 0.000000 
#    y 0.000000 1.777580 0.000000 
#    z 0.000000 0.000000 1.797850 
# 
# From -- ./inp_files/20806.got.cif
#   From: 2010.03.12/outbox.cif.g09.slc.cpg/sg53_11_cif.got.tgz:20806.got - 2010.04.16 14:36:59.
