data_PCOD8221100
_publ_section_title
;
Structure prediction by ZEFSAII (Michael W. Deem and Ramdas Pophale) SiO2 
 PCOD8221100
Probable space group: P M N A
;
_chemical_formula_sum "Si O2"
_cell_formula_units_Z 64
_cell_length_a 8.692560
_cell_length_b 20.289148
_cell_length_c 19.493213
_cell_angle_alpha 90.000000
_cell_angle_beta 90.000000
_cell_angle_gamma 90.000000
_cell_volume 3437.913422
_symmetry_space_group_name_H-M "P M N A"
_symmetry_group_IT_number 53
_symmetry_cell_setting 'orthorhombic'
loop_
_space_group_symop_operation_xyz
x,y,z
1/2-x,-y,1/2+z
x,-y,-z
1/2-x,y,1/2-z
-x,-y,-z
1/2+x,y,1/2-z
-x,y,z
1/2+x,-y,1/2+z
loop_
_atom_site_type_symbol
_atom_site_label
_atom_site_fract_x
_atom_site_fract_y
_atom_site_fract_z
Si Si1 0.818731 0.121926 0.400836
Si Si2 0.681525 0.407084 0.674710
Si Si3 0.819043 0.291779 0.923564
Si Si4 0.168946 0.016337 0.579855
Si Si5 0.318540 0.654664 0.569754
Si Si6 0.181313 0.752469 0.677171
Si Si7 0.183446 0.155599 0.550395
Si Si8 0.818871 0.484058 0.423200
O O1 0.746092 0.048292 0.386669
O O2 0.782979 0.170502 0.337846
O O3 0.756651 0.154655 0.471516
O O4 0.000000 0.111261 0.410663
O O5 0.750000 0.409858 0.750000
O O6 0.500000 0.411483 0.679742
O O7 0.733517 0.339008 0.638491
O O8 0.738184 0.468478 0.630643
O O9 0.745742 0.220108 0.911427
O O10 0.000000 0.282686 0.926156
O O11 0.760651 0.324765 0.994155
O O12 0.000000 0.022966 0.612922
O O13 0.155168 0.000000 0.500000
O O14 0.248524 0.088607 0.588050
O O15 0.500000 0.641641 0.571190
O O16 0.272936 0.711860 0.621167
O O17 0.229873 0.589893 0.594604
O O18 0.250000 0.733241 0.750000
O O19 0.000000 0.737118 0.673782
O O20 0.000000 0.156467 0.553190
O O21 0.761357 0.500000 0.500000
O O22 0.000000 0.492837 0.415877
#
# Coordination Sequence:
#
# PCOD8221100 Si02
#       8
#     8   8   8   8   8   8   8   8
#     4   8  14  26  46  72 103 137 177 228 276 322
#     4  11  24  43  63  87 117 151 187 226 277 331
#     4  10  21  35  55  82 116 149 178 222 282 332
#     4   7  11  21  41  72 103 130 169 222 272 317
#     4  11  22  38  59  83 112 148 186 229 279 332
#     4  11  22  36  53  77 109 147 190 235 283 336
#     4   9  15  26  50  80 105 135 181 228 270 322
#     4  11  23  39  63  92 118 147 185 228 272 327
#
# _framework density 18.615943000000001
#
# number of rings (size 3 to 8) (size 9 to 14) (size 15 to 20)
#    0.000    2.250    2.500    3.000    0.000    2.500 
#    0.000    2.500    0.000    5.625    0.000    3.500 
#    0.000    0.000    0.000    0.000    0.000    0.000 
#
# Total GULP energy -793153.193423 kJ/mol
# GULP energy per Si atom -12393.018647 kJ/mol
# Density = 1.857357 g / cm^3
# Si number density = 18.615943 Si / 1000 Ang^3
#
#
#
# Elastic Constant Matrix: (Units=GPa)
#
#
# Indices 1 2 3 4 5 6 
#
# 1 28.7553 26.6693 26.7353 0.0000 0.0000 0.0000
# 2 26.6693 154.6148 51.3785 0.0000 0.0000 0.0000
# 3 26.7353 51.3785 105.4662 0.0000 0.0000 0.0000
# 4 0.0000 0.0000 0.0000 22.4780 0.0000 0.0000
# 5 0.0000 0.0000 0.0000 0.0000 15.0690 0.0000
# 6 0.0000 0.0000 0.0000 0.0000 0.0000 17.2903
#
#
#
# Elastic Compliance Matrix: (Units=1/GPa)
#
#
# Indices 1 2 3 4 5 6 
#
# 1 0.048683 -0.005126 -0.009844 0.000000 0.000000 0.000000
# 2 -0.005126 0.008257 -0.002723 0.000000 0.000000 0.000000
# 3 -0.009844 -0.002723 0.013303 0.000000 0.000000 0.000000
# 4 0.000000 0.000000 0.000000 0.044488 0.000000 0.000000
# 5 0.000000 0.000000 0.000000 0.000000 0.066361 0.000000
# 6 0.000000 0.000000 0.000000 0.000000 0.000000 0.057836
#
#
# Mechanical properties :
#
#
# Convention : Reuss Voigt Hill
#
# Bulk Modulus (GPa) = 28.68822 55.37807 42.03314
# Shear Modulus (GPa) = 17.48665 23.23767 20.36216
#
# Velocity S-wave (km/s) = 3.06819 3.53692 3.31086
# Velocity P-wave (km/s) = 5.29110 6.81850 6.10277
#
# Compressibility (1/GPa) = 0.03485752
#
# Stress axis : x y z
#
# Youngs Moduli (GPa) = 20.54125 121.11395 75.16841
#
# Poissons Ratio (x) = 0.62085 0.73993
# Poissons Ratio (y) = 0.10530 0.20467
# Poissons Ratio (z) = 0.20220 0.32977
#
# Static dielectric constant tensor:
#      x y z
#    x 3.164510 0.000000 0.000000 
#    y 0.000000 3.863260 0.000000 
#    z 0.000000 0.000000 3.156170 
# 
# 
# High freq. dielectric constant tensor:
#      x y z
#    x 1.698460 0.000000 0.000000 
#    y 0.000000 1.747530 0.000000 
#    z 0.000000 0.000000 1.688450 
# 
# From -- ./inp_files/26969.got.cif
#   From: 2010.03.12/outbox.cif.g09.slc.cpg/sg53_14_cif.got.tgz:26969.got - 2010.04.16 14:36:59.
