data_PCOD8221697
_publ_section_title
;
Structure prediction by ZEFSAII (Michael W. Deem and Ramdas Pophale) SiO2 
 PCOD8221697
Probable space group: P M N A
;
_chemical_formula_sum "Si O2"
_cell_formula_units_Z 40
_cell_length_a 8.905974
_cell_length_b 25.626928
_cell_length_c 9.153651
_cell_angle_alpha 90.000000
_cell_angle_beta 90.000000
_cell_angle_gamma 90.000000
_cell_volume 2089.162981
_symmetry_space_group_name_H-M "P M N A"
_symmetry_group_IT_number 53
_symmetry_cell_setting 'orthorhombic'
loop_
_space_group_symop_operation_xyz
x,y,z
1/2-x,-y,1/2+z
x,-y,-z
1/2-x,y,1/2-z
-x,-y,-z
1/2+x,y,1/2-z
-x,y,z
1/2+x,-y,1/2+z
loop_
_atom_site_type_symbol
_atom_site_label
_atom_site_fract_x
_atom_site_fract_y
_atom_site_fract_z
Si Si1 0.675580 0.951406 0.592991
Si Si2 0.822235 0.240644 0.407775
Si Si3 0.822658 0.150292 0.906665
Si Si4 0.176760 0.453679 0.597827
Si Si5 0.175053 0.337712 0.596740
O O1 0.750000 0.949430 0.750000
O O2 0.500000 0.958246 0.618158
O O3 0.714868 0.898978 0.507113
O O4 0.739678 0.000000 0.500000
O O5 0.750000 0.233013 0.250000
O O6 0.753393 0.200117 0.520910
O O7 0.779522 0.297813 0.468923
O O8 0.000000 0.232096 0.395607
O O9 0.750000 0.140135 0.750000
O O10 0.000000 0.159479 0.889840
O O11 0.243303 0.500000 0.500000
O O12 0.250000 0.464485 0.750000
O O13 0.222529 0.395690 0.541837
O O14 0.000000 0.458575 0.612445
O O15 0.250000 0.322432 0.750000
O O16 0.000000 0.334856 0.628878
#
# Coordination Sequence:
#
# PCOD8221697 Si02
#       5
#     8   8   8   8   8
#     4  10  22  39  59  85 115 147 184 226 272 322
#     4  11  23  38  56  80 111 144 181 225 273 324
#     4  11  23  39  60  85 113 146 185 226 272 325
#     4   9  18  33  52  75 104 136 173 217 264 316
#     4   9  19  35  54  76 103 138 177 218 265 318
#
# _framework density 19.146424
#
# number of rings (size 3 to 8) (size 9 to 14) (size 15 to 20)
#    0.000    2.000    0.000    3.000    0.000    8.000 
#    0.000    0.000    0.000    0.000    0.000    0.000 
#    0.000    0.000    0.000    0.000    0.000    0.000 
#
# Total GULP energy -496006.037755 kJ/mol
# GULP energy per Si atom -12400.150944 kJ/mol
# Density = 1.910285 g / cm^3
# Si number density = 19.146424 Si / 1000 Ang^3
#
#
#
# Elastic Constant Matrix: (Units=GPa)
#
#
# Indices 1 2 3 4 5 6 
#
# 1 59.7462 52.2886 56.0148 0.0000 0.0000 0.0000
# 2 52.2886 137.2259 78.3404 0.0000 0.0000 0.0000
# 3 56.0148 78.3404 143.4803 0.0000 0.0000 0.0000
# 4 0.0000 0.0000 0.0000 34.0725 0.0000 0.0000
# 5 0.0000 0.0000 0.0000 0.0000 37.1374 0.0000
# 6 0.0000 0.0000 0.0000 0.0000 0.0000 20.5715
#
#
#
# Elastic Compliance Matrix: (Units=1/GPa)
#
#
# Indices 1 2 3 4 5 6 
#
# 1 0.030404 -0.006987 -0.008055 0.000000 0.000000 0.000000
# 2 -0.006987 0.012193 -0.003930 0.000000 0.000000 0.000000
# 3 -0.008055 -0.003930 0.012260 0.000000 0.000000 0.000000
# 4 0.000000 0.000000 0.000000 0.029349 0.000000 0.000000
# 5 0.000000 0.000000 0.000000 0.000000 0.026927 0.000000
# 6 0.000000 0.000000 0.000000 0.000000 0.000000 0.048611
#
#
# Mechanical properties :
#
#
# Convention : Reuss Voigt Hill
#
# Bulk Modulus (GPa) = 59.12265 79.30445 69.21355
# Shear Modulus (GPa) = 24.59120 28.61019 26.60069
#
# Velocity S-wave (km/s) = 3.58771 3.86979 3.73141
# Velocity P-wave (km/s) = 6.93602 7.84072 7.40221
#
# Compressibility (1/GPa) = 0.01691399
#
# Stress axis : x y z
#
# Youngs Moduli (GPa) = 32.89042 82.01508 81.56644
#
# Poissons Ratio (x) = 0.57301 0.65702
# Poissons Ratio (y) = 0.22979 0.32054
# Poissons Ratio (z) = 0.26493 0.32230
#
# Static dielectric constant tensor:
#      x y z
#    x 3.518590 0.000000 0.000000 
#    y 0.000000 4.036890 0.000000 
#    z 0.000000 0.000000 3.477330 
# 
# 
# High freq. dielectric constant tensor:
#      x y z
#    x 1.744550 0.000000 0.000000 
#    y 0.000000 1.765800 0.000000 
#    z 0.000000 0.000000 1.747740 
# 
# From -- ./inp_files/6270.got.cif
#   From: 2010.03.12/outbox.cif.g09.slc.cpg/sg53_4_cif.got.tgz:6270.got - 2010.04.16 14:36:59.
