data_PCOD8221892
_publ_section_title
;
Structure prediction by ZEFSAII (Michael W. Deem and Ramdas Pophale) SiO2 
 PCOD8221892
Probable space group: P M N A
;
_chemical_formula_sum "Si O2"
_cell_formula_units_Z 16
_cell_length_a 24.687759
_cell_length_b 5.025404
_cell_length_c 5.166348
_cell_angle_alpha 90.000000
_cell_angle_beta 90.000000
_cell_angle_gamma 90.000000
_cell_volume 640.967939
_symmetry_space_group_name_H-M "P M N A"
_symmetry_group_IT_number 53
_symmetry_cell_setting 'orthorhombic'
loop_
_space_group_symop_operation_xyz
x,y,z
1/2-x,-y,1/2+z
x,-y,-z
1/2-x,y,1/2-z
-x,-y,-z
1/2+x,y,1/2-z
-x,y,z
1/2+x,-y,1/2+z
loop_
_atom_site_type_symbol
_atom_site_label
_atom_site_fract_x
_atom_site_fract_y
_atom_site_fract_z
Si Si1 0.857272 0.500000 0.000000
Si Si2 0.215280 0.000000 0.000000
Si Si3 0.560991 0.173948 0.757380
O O1 0.897059 0.419509 0.761792
O O2 0.820733 0.251219 0.085525
O O3 0.250000 0.083308 0.750000
O O4 0.500000 0.286813 0.790103
O O5 0.566194 0.000000 0.500000
O O6 0.578691 0.000000 0.000000
#
# Coordination Sequence:
#
# PCOD8221892 Si02
#       3
#     4   4   8
#     4  12  25  50  78 104 148 198 247 306 390 444
#     4  12  30  50  73 106 141 190 258 324 372 440
#     4  10  23  43  71 112 152 190 240 295 367 460
#
# _framework density 24.962247000000001
#
# number of rings (size 3 to 8) (size 9 to 14) (size 15 to 20)
#    0.000    1.000    2.500    2.250    3.500    6.000 
#    0.000    7.500    0.000    0.000    0.000    0.000 
#    0.000    0.000    0.000    0.000    0.000    0.000 
#
# Total GULP energy -198444.576514 kJ/mol
# GULP energy per Si atom -12402.786032 kJ/mol
# Density = 2.490543 g / cm^3
# Si number density = 24.962247 Si / 1000 Ang^3
#
#
#
# Elastic Constant Matrix: (Units=GPa)
#
#
# Indices 1 2 3 4 5 6 
#
# 1 174.0362 91.5012 61.1531 0.0000 0.0000 0.0000
# 2 91.5012 169.5263 57.1624 0.0000 0.0000 0.0000
# 3 61.1531 57.1624 173.2937 0.0000 0.0000 0.0000
# 4 0.0000 0.0000 0.0000 30.8554 0.0000 0.0000
# 5 0.0000 0.0000 0.0000 0.0000 -12.2556 0.0000
# 6 0.0000 0.0000 0.0000 0.0000 0.0000 -63.7916
#
#
#
# Elastic Compliance Matrix: (Units=1/GPa)
#
#
# Indices 1 2 3 4 5 6 
#
# 1 0.008425 -0.003989 -0.001658 0.000000 0.000000 0.000000
# 2 -0.003989 0.008525 -0.001405 0.000000 0.000000 0.000000
# 3 -0.001658 -0.001405 0.006819 0.000000 0.000000 0.000000
# 4 0.000000 0.000000 0.000000 0.032409 0.000000 0.000000
# 5 0.000000 0.000000 0.000000 0.000000 -0.081595 0.000000
# 6 0.000000 0.000000 0.000000 0.000000 0.000000 -0.015676
#
#
# Mechanical properties :
#
#
# Convention : Reuss Voigt Hill
#
# Bulk Modulus (GPa) = 103.43504 104.05443 103.74473
# Shear Modulus (GPa) = -210.36336 11.43093 -99.46621
#
# Velocity S-wave (km/s) = -9.18997 2.14225 -6.31927
# Velocity P-wave (km/s) = 8.43095 6.92056 3.40490
#
# Compressibility (1/GPa) = 0.00966790
#
# Stress axis : x y z
#
# Youngs Moduli (GPa) = 118.68790 117.29804 146.65383
#
# Poissons Ratio (x) = 0.46787 0.24308
# Poissons Ratio (y) = 0.47341 0.20599
# Poissons Ratio (z) = 0.19673 0.16475
#
# Static dielectric constant tensor:
#      x y z
#    x 5.069700 0.000000 0.000000 
#    y 0.000000 4.589780 0.000000 
#    z 0.000000 0.000000 4.210980 
# 
# 
# High freq. dielectric constant tensor:
#      x y z
#    x 2.012330 0.000000 0.000000 
#    y 0.000000 1.997620 0.000000 
#    z 0.000000 0.000000 1.990710 
# 
# From -- ./inp_files/3140.got.cif
#   From: 2010.03.12/outbox.cif.g09.slc.cpg/sg53_2_cif.got.tgz:3140.got - 2010.04.16 14:36:59.
