data_PCOD8221659
_publ_section_title
;
Structure prediction by ZEFSAII (Michael W. Deem and Ramdas Pophale) SiO2 
 PCOD8221659
Probable space group: P M N A
;
_chemical_formula_sum "Si O2"
_cell_formula_units_Z 24
_cell_length_a 19.630447
_cell_length_b 4.974345
_cell_length_c 11.224262
_cell_angle_alpha 90.000000
_cell_angle_beta 90.000000
_cell_angle_gamma 90.000000
_cell_volume 1096.033649
_symmetry_space_group_name_H-M "P M N A"
_symmetry_group_IT_number 53
_symmetry_cell_setting 'orthorhombic'
loop_
_space_group_symop_operation_xyz
x,y,z
1/2-x,-y,1/2+z
x,-y,-z
1/2-x,y,1/2-z
-x,-y,-z
1/2+x,y,1/2-z
-x,y,z
1/2+x,-y,1/2+z
loop_
_atom_site_type_symbol
_atom_site_label
_atom_site_fract_x
_atom_site_fract_y
_atom_site_fract_z
Si Si1 0.362430 0.356218 0.712761
Si Si2 0.000000 0.250385 0.914577
Si Si3 0.813235 0.158289 0.330671
Si Si4 0.262306 0.500000 0.500000
O O1 0.434182 0.247118 0.668378
O O2 0.372250 0.641285 0.779660
O O3 0.309692 0.371659 0.602659
O O4 0.335481 0.149754 0.814802
O O5 0.000000 0.500000 0.000000
O O6 0.000000 0.000000 0.000000
O O7 0.750000 0.233073 0.250000
O O8 0.787511 0.251725 0.461358
#
# Coordination Sequence:
#
# PCOD8221659 Si02
#       4
#     8   4   8   4
#     4  11  23  39  60  92 123 159 208 249 316 373
#     4  12  24  40  62  87 126 167 200 260 314 371
#     4  10  22  37  60  89 123 163 199 255 311 370
#     4  10  22  41  64  91 132 158 206 266 316 380
#
# _framework density 21.897138000000002
#
# number of rings (size 3 to 8) (size 9 to 14) (size 15 to 20)
#    0.000    1.333    1.667    5.000    4.667    6.667 
#    0.000    0.000    0.000    6.000    0.000    0.000 
#    0.000    0.000    0.000    0.000    0.000    0.000 
#
# Total GULP energy -297401.737899 kJ/mol
# GULP energy per Si atom -12391.739079 kJ/mol
# Density = 2.184730 g / cm^3
# Si number density = 21.897138 Si / 1000 Ang^3
#
#
#
# Elastic Constant Matrix: (Units=GPa)
#
#
# Indices 1 2 3 4 5 6 
#
# 1 93.8639 13.2941 29.5650 0.0000 0.0000 0.0000
# 2 13.2941 119.0302 15.8825 0.0000 0.0000 0.0000
# 3 29.5650 15.8825 64.5755 0.0000 0.0000 0.0000
# 4 0.0000 0.0000 0.0000 38.8225 0.0000 0.0000
# 5 0.0000 0.0000 0.0000 0.0000 29.6523 0.0000
# 6 0.0000 0.0000 0.0000 0.0000 0.0000 25.9827
#
#
#
# Elastic Compliance Matrix: (Units=1/GPa)
#
#
# Indices 1 2 3 4 5 6 
#
# 1 0.012498 -0.000654 -0.005561 0.000000 0.000000 0.000000
# 2 -0.000654 0.008721 -0.001845 0.000000 0.000000 0.000000
# 3 -0.005561 -0.001845 0.018486 0.000000 0.000000 0.000000
# 4 0.000000 0.000000 0.000000 0.025758 0.000000 0.000000
# 5 0.000000 0.000000 0.000000 0.000000 0.033724 0.000000
# 6 0.000000 0.000000 0.000000 0.000000 0.000000 0.038487
#
#
# Mechanical properties :
#
#
# Convention : Reuss Voigt Hill
#
# Bulk Modulus (GPa) = 42.40304 43.88364 43.14334
# Shear Modulus (GPa) = 30.92990 33.47338 32.20164
#
# Velocity S-wave (km/s) = 3.76241 3.91406 3.83898
# Velocity P-wave (km/s) = 6.18717 6.36481 6.27661
#
# Compressibility (1/GPa) = 0.02358322
#
# Stress axis : x y z
#
# Youngs Moduli (GPa) = 80.01294 114.67232 54.09567
#
# Poissons Ratio (x) = 0.07497 0.30084
# Poissons Ratio (y) = 0.05231 0.09983
# Poissons Ratio (z) = 0.44497 0.21163
#
# Static dielectric constant tensor:
#      x y z
#    x 5.650040 0.000000 0.000000 
#    y 0.000000 4.024040 0.000000 
#    z 0.000000 0.000000 4.299890 
# 
# 
# High freq. dielectric constant tensor:
#      x y z
#    x 1.827840 0.000000 0.000000 
#    y 0.000000 1.884700 0.000000 
#    z 0.000000 0.000000 1.861400 
# 
# From -- ./inp_files/16355.got.cif
#   From: 2010.03.12/outbox.cif.g09.slc.cpg/sg53_9_cif.got.tgz:16355.got - 2010.04.16 14:36:59.
