data_PCOD8221335
_publ_section_title
;
Structure prediction by ZEFSAII (Michael W. Deem and Ramdas Pophale) SiO2 
 PCOD8221335
Probable space group: P M N A
;
_chemical_formula_sum "Si O2"
_cell_formula_units_Z 64
_cell_length_a 23.275453
_cell_length_b 9.090988
_cell_length_c 13.829072
_cell_angle_alpha 90.000000
_cell_angle_beta 90.000000
_cell_angle_gamma 90.000000
_cell_volume 2926.188266
_symmetry_space_group_name_H-M "P M N A"
_symmetry_group_IT_number 53
_symmetry_cell_setting 'orthorhombic'
loop_
_space_group_symop_operation_xyz
x,y,z
1/2-x,-y,1/2+z
x,-y,-z
1/2-x,y,1/2-z
-x,-y,-z
1/2+x,y,1/2-z
-x,y,z
1/2+x,-y,1/2+z
loop_
_atom_site_type_symbol
_atom_site_label
_atom_site_fract_x
_atom_site_fract_y
_atom_site_fract_z
Si Si1 0.138604 0.854175 0.948382
Si Si2 0.433482 0.753728 0.847493
Si Si3 0.724193 0.618145 0.584591
Si Si4 0.065155 0.281277 0.892894
Si Si5 0.394081 0.983009 0.264964
Si Si6 0.808551 0.241577 0.686643
Si Si7 0.867940 0.492620 0.224414
Si Si8 0.660612 0.664441 0.981848
O O1 0.195682 0.761968 0.958259
O O2 0.122301 0.887537 0.838931
O O3 0.086465 0.772588 0.002472
O O4 0.157372 0.000000 0.000000
O O5 0.500000 0.713661 0.868468
O O6 0.406804 0.631686 0.774771
O O7 0.395469 0.753067 0.945945
O O8 0.431435 0.923415 0.811113
O O9 0.722519 0.500000 0.500000
O O10 0.691283 0.571037 0.681303
O O11 0.791646 0.653045 0.605225
O O12 0.070726 0.148067 0.815503
O O13 0.097090 0.430996 0.862984
O O14 0.000000 0.325664 0.904181
O O15 0.337058 0.913394 0.216567
O O16 0.750000 0.259310 0.750000
O O17 0.851812 0.376907 0.703484
O O18 0.804794 0.253278 0.569959
O O19 0.638185 0.500000 0.000000
#
# Coordination Sequence:
#
# PCOD8221335 Si02
#       8
#     8   8   8   8   8   8   8   8
#     4  10  21  37  59  94 135 178 218 272 343 396
#     4  12  26  46  68  98 140 183 236 289 332 403
#     4  11  21  40  66  97 135 167 216 281 344 415
#     4  10  21  39  63  94 134 183 234 275 330 407
#     4  10  24  42  63  94 133 184 228 275 343 403
#     4  11  24  45  72  99 132 171 224 283 349 425
#     4  11  22  41  68 101 132 180 226 278 345 408
#     4  11  25  44  69 102 129 174 222 284 361 410
#
# _framework density 21.871458000000001
#
# number of rings (size 3 to 8) (size 9 to 14) (size 15 to 20)
#    0.000    1.250    3.750    2.250    3.500    4.500 
#    0.000    2.500    0.000    0.000    0.000    0.000 
#    0.000    0.000    0.000    0.000    0.000    0.000 
#
# Total GULP energy -793064.325129 kJ/mol
# GULP energy per Si atom -12391.630080 kJ/mol
# Density = 2.182168 g / cm^3
# Si number density = 21.871458 Si / 1000 Ang^3
#
#
#
# Elastic Constant Matrix: (Units=GPa)
#
#
# Indices 1 2 3 4 5 6 
#
# 1 132.3502 44.1775 37.4362 0.0000 0.0000 0.0000
# 2 44.1775 64.7675 31.0564 0.0000 0.0000 0.0000
# 3 37.4362 31.0564 91.8699 0.0000 0.0000 0.0000
# 4 0.0000 0.0000 0.0000 16.1404 0.0000 0.0000
# 5 0.0000 0.0000 0.0000 0.0000 25.7447 0.0000
# 6 0.0000 0.0000 0.0000 0.0000 0.0000 27.2698
#
#
#
# Elastic Compliance Matrix: (Units=1/GPa)
#
#
# Indices 1 2 3 4 5 6 
#
# 1 0.010123 -0.005880 -0.002137 0.000000 0.000000 0.000000
# 2 -0.005880 0.021842 -0.004988 0.000000 0.000000 0.000000
# 3 -0.002137 -0.004988 0.013442 0.000000 0.000000 0.000000
# 4 0.000000 0.000000 0.000000 0.061956 0.000000 0.000000
# 5 0.000000 0.000000 0.000000 0.000000 0.038843 0.000000
# 6 0.000000 0.000000 0.000000 0.000000 0.000000 0.036671
#
#
# Mechanical properties :
#
#
# Convention : Reuss Voigt Hill
#
# Bulk Modulus (GPa) = 51.55379 57.14755 54.35067
# Shear Modulus (GPa) = 23.21775 25.58549 24.40162
#
# Velocity S-wave (km/s) = 3.26169 3.42396 3.34381
# Velocity P-wave (km/s) = 6.14876 6.46660 6.30968
#
# Compressibility (1/GPa) = 0.01939722
#
# Stress axis : x y z
#
# Youngs Moduli (GPa) = 98.78541 45.78308 74.39395
#
# Poissons Ratio (x) = 0.26920 0.15900
# Poissons Ratio (y) = 0.58085 0.37105
# Poissons Ratio (z) = 0.21114 0.22835
#
# Static dielectric constant tensor:
#      x y z
#    x 3.943470 0.000000 0.000000 
#    y 0.000000 4.045070 0.000000 
#    z 0.000000 0.000000 4.202450 
# 
# 
# High freq. dielectric constant tensor:
#      x y z
#    x 1.850800 0.000000 0.000000 
#    y 0.000000 1.869380 0.000000 
#    z 0.000000 0.000000 1.854030 
# 
# From -- ./inp_files/24712.got.cif
#   From: 2010.03.12/outbox.cif.g09.slc.cpg/sg53_13_cif.got.tgz:24712.got - 2010.04.16 14:36:59.
