data_PCOD8221703
_publ_section_title
;
Structure prediction by ZEFSAII (Michael W. Deem and Ramdas Pophale) SiO2 
 PCOD8221703
Probable space group: P M N A
;
_chemical_formula_sum "Si O2"
_cell_formula_units_Z 48
_cell_length_a 22.586466
_cell_length_b 11.456032
_cell_length_c 9.696141
_cell_angle_alpha 90.000000
_cell_angle_beta 90.000000
_cell_angle_gamma 90.000000
_cell_volume 2508.888868
_symmetry_space_group_name_H-M "P M N A"
_symmetry_group_IT_number 53
_symmetry_cell_setting 'orthorhombic'
loop_
_space_group_symop_operation_xyz
x,y,z
1/2-x,-y,1/2+z
x,-y,-z
1/2-x,y,1/2-z
-x,-y,-z
1/2+x,y,1/2-z
-x,y,z
1/2+x,-y,1/2+z
loop_
_atom_site_type_symbol
_atom_site_label
_atom_site_fract_x
_atom_site_fract_y
_atom_site_fract_z
Si Si1 0.569832 0.999194 0.845822
Si Si2 0.757572 0.616440 0.586197
Si Si3 0.429810 0.248234 0.730724
Si Si4 0.881351 0.637701 0.490764
Si Si5 0.933257 0.247650 0.264963
Si Si6 0.629868 0.361870 0.475726
O O1 0.500000 0.986702 0.861981
O O2 0.592479 0.884824 0.763290
O O3 0.586836 0.113639 0.759133
O O4 0.597931 0.000000 0.000000
O O5 0.766489 0.500000 0.500000
O O6 0.750000 0.592901 0.750000
O O7 0.817898 0.686031 0.549906
O O8 0.698770 0.677771 0.524751
O O9 0.500000 0.270630 0.744104
O O10 0.407716 0.283185 0.579799
O O11 0.391935 0.328616 0.832840
O O12 0.888454 0.500000 0.500000
O O13 0.931768 0.702875 0.579161
O O14 0.000000 0.249762 0.209369
O O15 0.894318 0.335034 0.175316
O O16 0.622976 0.500000 0.500000
#
# Coordination Sequence:
#
# PCOD8221703 Si02
#       6
#     8   8   8   8   8   8
#     4   9  18  36  59  83 114 156 206 243 277 345
#     4  10  22  39  60  84 115 158 207 242 281 353
#     4  11  23  38  59  89 122 157 197 243 296 356
#     4  11  22  35  59  87 117 153 199 242 291 354
#     4  11  21  36  60  86 117 159 193 239 303 349
#     4  11  24  39  58  86 126 157 190 244 302 352
#
# _framework density 19.131976000000002
#
# number of rings (size 3 to 8) (size 9 to 14) (size 15 to 20)
#    0.000    1.500    3.333    2.000    7.000    4.667 
#    0.000    2.500    0.000    6.000    0.000    0.000 
#    0.000    0.000    0.000    0.000    0.000    0.000 
#
# Total GULP energy -595000.723974 kJ/mol
# GULP energy per Si atom -12395.848416 kJ/mol
# Density = 1.908843 g / cm^3
# Si number density = 19.131976 Si / 1000 Ang^3
#
#
#
# Elastic Constant Matrix: (Units=GPa)
#
#
# Indices 1 2 3 4 5 6 
#
# 1 86.2859 36.2229 26.0541 0.0000 0.0000 0.0000
# 2 36.2229 110.4643 20.9571 0.0000 0.0000 0.0000
# 3 26.0541 20.9571 72.9786 0.0000 0.0000 0.0000
# 4 0.0000 0.0000 0.0000 33.0973 0.0000 0.0000
# 5 0.0000 0.0000 0.0000 0.0000 29.9690 0.0000
# 6 0.0000 0.0000 0.0000 0.0000 0.0000 3.8098
#
#
#
# Elastic Compliance Matrix: (Units=1/GPa)
#
#
# Indices 1 2 3 4 5 6 
#
# 1 0.014477 -0.003984 -0.004024 0.000000 0.000000 0.000000
# 2 -0.003984 0.010671 -0.001642 0.000000 0.000000 0.000000
# 3 -0.004024 -0.001642 0.015611 0.000000 0.000000 0.000000
# 4 0.000000 0.000000 0.000000 0.030214 0.000000 0.000000
# 5 0.000000 0.000000 0.000000 0.000000 0.033368 0.000000
# 6 0.000000 0.000000 0.000000 0.000000 0.000000 0.262480
#
#
# Mechanical properties :
#
#
# Convention : Reuss Voigt Hill
#
# Bulk Modulus (GPa) = 46.60237 48.46633 47.53435
# Shear Modulus (GPa) = 12.71381 25.80820 19.26100
#
# Velocity S-wave (km/s) = 2.58065 3.67680 3.17637
# Velocity P-wave (km/s) = 5.76983 6.58884 6.19289
#
# Compressibility (1/GPa) = 0.02145814
#
# Stress axis : x y z
#
# Youngs Moduli (GPa) = 69.07556 93.71604 64.05767
#
# Poissons Ratio (x) = 0.37334 0.25779
# Poissons Ratio (y) = 0.27518 0.10518
# Poissons Ratio (z) = 0.27799 0.15388
#
# Static dielectric constant tensor:
#      x y z
#    x 3.727680 0.000000 0.000000 
#    y 0.000000 3.475170 0.000000 
#    z 0.000000 0.000000 3.461410 
# 
# 
# High freq. dielectric constant tensor:
#      x y z
#    x 1.735530 0.000000 0.000000 
#    y 0.000000 1.731330 0.000000 
#    z 0.000000 0.000000 1.752680 
# 
# From -- ./inp_files/11774.got.cif
#   From: 2010.03.12/outbox.cif.g09.slc.cpg/sg53_6_cif.got.tgz:11774.got - 2010.04.16 14:36:59.
