data_PCOD8221131
_publ_section_title
;
Structure prediction by ZEFSAII (Michael W. Deem and Ramdas Pophale) SiO2 
 PCOD8221131
Probable space group: P M N A
;
_chemical_formula_sum "Si O2"
_cell_formula_units_Z 48
_cell_length_a 8.369702
_cell_length_b 11.891732
_cell_length_c 25.678851
_cell_angle_alpha 90.000000
_cell_angle_beta 90.000000
_cell_angle_gamma 90.000000
_cell_volume 2555.822539
_symmetry_space_group_name_H-M "P M N A"
_symmetry_group_IT_number 53
_symmetry_cell_setting 'orthorhombic'
loop_
_space_group_symop_operation_xyz
x,y,z
1/2-x,-y,1/2+z
x,-y,-z
1/2-x,y,1/2-z
-x,-y,-z
1/2+x,y,1/2-z
-x,y,z
1/2+x,-y,1/2+z
loop_
_atom_site_type_symbol
_atom_site_label
_atom_site_fract_x
_atom_site_fract_y
_atom_site_fract_z
Si Si1 0.687112 0.989737 0.611865
Si Si2 0.312362 0.163484 0.807533
Si Si3 0.319379 0.759537 0.571176
Si Si4 0.183510 0.148985 0.530753
Si Si5 0.315839 0.476861 0.058782
Si Si6 0.184472 0.317515 0.889295
O O1 0.500000 0.019448 0.611911
O O2 0.770063 0.050920 0.660258
O O3 0.764603 0.032072 0.557452
O O4 0.715765 0.854621 0.615354
O O5 0.250000 0.144187 0.750000
O O6 0.500000 0.182409 0.807687
O O7 0.228460 0.275491 0.831194
O O8 0.500000 0.715108 0.575528
O O9 0.298605 0.822717 0.516697
O O10 0.203710 0.652803 0.575602
O O11 0.201436 0.248407 0.572427
O O12 0.000000 0.142478 0.512328
O O13 0.500000 0.509997 0.061506
O O14 0.219909 0.551061 0.101023
O O15 0.250627 0.500000 0.000000
O O16 0.000000 0.291688 0.900540
#
# Coordination Sequence:
#
# PCOD8221131 Si02
#       6
#     8   8   8   8   8   8
#     4  10  21  36  53  78 109 141 182 226 274 327
#     4  11  22  39  63  87 111 139 178 227 283 332
#     4  11  22  34  51  75 108 150 188 224 268 324
#     4  11  20  31  49  75 108 146 185 224 269 320
#     4  11  22  35  53  78 111 151 192 230 271 326
#     4  11  21  35  56  81 111 145 186 230 276 324
#
# _framework density 18.780647999999999
#
# number of rings (size 3 to 8) (size 9 to 14) (size 15 to 20)
#    0.000    1.167    1.667    8.500    0.000    5.333 
#    0.000    0.000    0.000    1.000    0.000    2.333 
#    0.000    0.000    0.000    0.000    0.000    0.000 
#
# Total GULP energy -595234.008951 kJ/mol
# GULP energy per Si atom -12400.708520 kJ/mol
# Density = 1.873790 g / cm^3
# Si number density = 18.780648 Si / 1000 Ang^3
#
#
#
# Elastic Constant Matrix: (Units=GPa)
#
#
# Indices 1 2 3 4 5 6 
#
# 1 88.9156 24.6405 6.8455 0.0000 0.0000 0.0000
# 2 24.6405 123.8451 32.4406 0.0000 0.0000 0.0000
# 3 6.8455 32.4406 60.1303 0.0000 0.0000 0.0000
# 4 0.0000 0.0000 0.0000 1.9356 0.0000 0.0000
# 5 0.0000 0.0000 0.0000 0.0000 22.9425 0.0000
# 6 0.0000 0.0000 0.0000 0.0000 0.0000 30.6591
#
#
#
# Elastic Compliance Matrix: (Units=1/GPa)
#
#
# Indices 1 2 3 4 5 6 
#
# 1 0.011903 -0.002345 -0.000090 0.000000 0.000000 0.000000
# 2 -0.002345 0.009865 -0.005055 0.000000 0.000000 0.000000
# 3 -0.000090 -0.005055 0.019368 0.000000 0.000000 0.000000
# 4 0.000000 0.000000 0.000000 0.516628 0.000000 0.000000
# 5 0.000000 0.000000 0.000000 0.000000 0.043587 0.000000
# 6 0.000000 0.000000 0.000000 0.000000 0.000000 0.032617
#
#
# Mechanical properties :
#
#
# Convention : Reuss Voigt Hill
#
# Bulk Modulus (GPa) = 38.23169 44.52712 41.37940
# Shear Modulus (GPa) = 7.60261 25.03840 16.32050
#
# Velocity S-wave (km/s) = 2.01417 3.65527 2.95109
# Velocity P-wave (km/s) = 5.08039 6.44788 5.80454
#
# Compressibility (1/GPa) = 0.02615631
#
# Stress axis : x y z
#
# Youngs Moduli (GPa) = 84.01011 101.36467 51.63082
#
# Poissons Ratio (x) = 0.23767 0.00465
# Poissons Ratio (y) = 0.19698 0.26102
# Poissons Ratio (z) = 0.00757 0.51245
#
# Static dielectric constant tensor:
#      x y z
#    x 3.443320 0.000000 0.000000 
#    y 0.000000 3.543890 0.000000 
#    z 0.000000 0.000000 3.409400 
# 
# 
# High freq. dielectric constant tensor:
#      x y z
#    x 1.745980 0.000000 0.000000 
#    y 0.000000 1.734670 0.000000 
#    z 0.000000 0.000000 1.686080 
# 
# From -- ./inp_files/33910.got.cif
#   From: 2010.03.12/outbox.cif.g09.slc.cpg/sg53_17_cif.got.tgz:33910.got - 2010.04.16 14:36:59.
