data_PCOD8221548
_publ_section_title
;
Structure prediction by ZEFSAII (Michael W. Deem and Ramdas Pophale) SiO2 
 PCOD8221548
Probable space group: P M N A
;
_chemical_formula_sum "Si O2"
_cell_formula_units_Z 64
_cell_length_a 13.881014
_cell_length_b 12.539968
_cell_length_c 17.830962
_cell_angle_alpha 90.000000
_cell_angle_beta 90.000000
_cell_angle_gamma 90.000000
_cell_volume 3103.790467
_symmetry_space_group_name_H-M "P M N A"
_symmetry_group_IT_number 53
_symmetry_cell_setting 'orthorhombic'
loop_
_space_group_symop_operation_xyz
x,y,z
1/2-x,-y,1/2+z
x,-y,-z
1/2-x,y,1/2-z
-x,-y,-z
1/2+x,y,1/2-z
-x,y,z
1/2+x,-y,1/2+z
loop_
_atom_site_type_symbol
_atom_site_label
_atom_site_fract_x
_atom_site_fract_y
_atom_site_fract_z
Si Si1 0.391366 0.602167 0.295037
Si Si2 0.801978 0.537442 0.358880
Si Si3 0.110270 0.714194 0.448274
Si Si4 0.103936 0.082218 0.637593
Si Si5 0.611906 0.983978 0.587539
Si Si6 0.111008 0.693361 0.620014
Si Si7 0.352366 0.158389 0.709943
Si Si8 0.228146 0.113211 0.334160
O O1 0.500000 0.557592 0.308833
O O2 0.361443 0.589604 0.208839
O O3 0.313584 0.537630 0.345234
O O4 0.390818 0.726768 0.315756
O O5 0.826098 0.609876 0.430734
O O6 0.836878 0.418722 0.372437
O O7 0.153012 0.816086 0.403774
O O8 0.117065 0.736746 0.536067
O O9 0.000000 0.692084 0.423742
O O10 0.082779 0.105936 0.725392
O O11 0.000000 0.061286 0.599733
O O12 0.165797 0.976983 0.624325
O O13 0.500000 0.961418 0.601958
O O14 0.648153 0.086196 0.635306
O O15 0.633203 0.000000 0.500000
O O16 0.672157 0.881391 0.618226
O O17 0.170715 0.776016 0.670754
O O18 0.000000 0.685593 0.647363
O O19 0.250000 0.170019 0.750000
O O20 0.250000 0.074561 0.250000
#
# Coordination Sequence:
#
# PCOD8221548 Si02
#       8
#     8   8   8   8   8   8   8   8
#     4  11  22  36  63  98 131 167 218 276 325 374
#     4  11  22  39  64  93 130 168 215 265 330 383
#     4  10  21  39  67  99 126 160 206 268 343 395
#     4  11  20  35  63  94 125 156 199 261 330 387
#     4  11  25  42  62  90 129 177 219 260 320 391
#     4  11  26  44  63  92 130 171 214 264 326 397
#     4  12  19  38  63  96 130 163 211 273 332 377
#     4  12  26  41  62  89 127 170 218 259 321 379
#
# _framework density 20.619948000000001
#
# number of rings (size 3 to 8) (size 9 to 14) (size 15 to 20)
#    0.000    0.875    5.000    3.000    3.500    1.500 
#    0.000    2.500    0.000    1.500    0.000    0.000 
#    0.000    0.000    0.000    0.000    0.000    0.000 
#
# Total GULP energy -793574.497444 kJ/mol
# GULP energy per Si atom -12399.601523 kJ/mol
# Density = 2.057302 g / cm^3
# Si number density = 20.619948 Si / 1000 Ang^3
#
#
#
# Elastic Constant Matrix: (Units=GPa)
#
#
# Indices 1 2 3 4 5 6 
#
# 1 148.4960 37.6474 28.8170 0.0000 0.0000 0.0000
# 2 37.6474 111.4152 13.1857 0.0000 0.0000 0.0000
# 3 28.8170 13.1857 67.2160 0.0000 0.0000 0.0000
# 4 0.0000 0.0000 0.0000 24.5132 0.0000 0.0000
# 5 0.0000 0.0000 0.0000 0.0000 27.9374 0.0000
# 6 0.0000 0.0000 0.0000 0.0000 0.0000 25.5775
#
#
#
# Elastic Compliance Matrix: (Units=1/GPa)
#
#
# Indices 1 2 3 4 5 6 
#
# 1 0.007890 -0.002320 -0.002928 0.000000 0.000000 0.000000
# 2 -0.002320 0.009871 -0.000942 0.000000 0.000000 0.000000
# 3 -0.002928 -0.000942 0.016317 0.000000 0.000000 0.000000
# 4 0.000000 0.000000 0.000000 0.040794 0.000000 0.000000
# 5 0.000000 0.000000 0.000000 0.000000 0.035794 0.000000
# 6 0.000000 0.000000 0.000000 0.000000 0.000000 0.039097
#
#
# Mechanical properties :
#
#
# Convention : Reuss Voigt Hill
#
# Bulk Modulus (GPa) = 46.08303 54.04750 50.06527
# Shear Modulus (GPa) = 29.52014 32.10410 30.81212
#
# Velocity S-wave (km/s) = 3.78779 3.95009 3.86979
# Velocity P-wave (km/s) = 6.44415 6.86094 6.65581
#
# Compressibility (1/GPa) = 0.02169996
#
# Stress axis : x y z
#
# Youngs Moduli (GPa) = 126.73549 101.30962 61.28444
#
# Poissons Ratio (x) = 0.23501 0.17943
# Poissons Ratio (y) = 0.29399 0.05772
# Poissons Ratio (z) = 0.37105 0.09542
#
# Static dielectric constant tensor:
#      x y z
#    x 4.108550 0.000000 0.000000 
#    y 0.000000 3.547870 0.000000 
#    z 0.000000 0.000000 3.715320 
# 
# 
# High freq. dielectric constant tensor:
#      x y z
#    x 1.820150 0.000000 0.000000 
#    y 0.000000 1.793350 0.000000 
#    z 0.000000 0.000000 1.791760 
# 
# From -- ./inp_files/28574.got.cif
#   From: 2010.03.12/outbox.cif.g09.slc.cpg/sg53_15_cif.got.tgz:28574.got - 2010.04.16 14:36:59.
