data_PCOD8221499
_publ_section_title
;
Structure prediction by ZEFSAII (Michael W. Deem and Ramdas Pophale) SiO2 
 PCOD8221499
Probable space group: P M N A
;
_chemical_formula_sum "Si O2"
_cell_formula_units_Z 32
_cell_length_a 14.845525
_cell_length_b 5.197497
_cell_length_c 17.849297
_cell_angle_alpha 90.000000
_cell_angle_beta 90.000000
_cell_angle_gamma 90.000000
_cell_volume 1377.244111
_symmetry_space_group_name_H-M "P M N A"
_symmetry_group_IT_number 53
_symmetry_cell_setting 'orthorhombic'
loop_
_space_group_symop_operation_xyz
x,y,z
1/2-x,-y,1/2+z
x,-y,-z
1/2-x,y,1/2-z
-x,-y,-z
1/2+x,y,1/2-z
-x,y,z
1/2+x,-y,1/2+z
loop_
_atom_site_type_symbol
_atom_site_label
_atom_site_fract_x
_atom_site_fract_y
_atom_site_fract_z
Si Si1 0.402042 0.063873 0.913964
Si Si2 0.778470 0.745921 0.050907
Si Si3 0.107386 0.754618 0.195072
Si Si4 0.603957 0.255484 0.222927
O O1 0.500000 0.179947 0.885402
O O2 0.318838 0.260808 0.906336
O O3 0.380646 0.805017 0.865648
O O4 0.413578 0.000000 0.000000
O O5 0.857607 0.731517 0.110858
O O6 0.788708 0.500000 0.000000
O O7 0.786749 0.000000 0.000000
O O8 0.146107 0.523746 0.248180
O O9 0.000000 0.752210 0.191522
O O10 0.145964 0.016946 0.230700
O O11 0.500000 0.269755 0.242777
#
# Coordination Sequence:
#
# PCOD8221499 Si02
#       4
#     8   8   8   8
#     4   9  20  40  63  87 119 158 201 251 301 353
#     4  11  24  40  60  90 123 160 207 249 299 366
#     4  10  21  39  62  90 123 156 197 249 299 356
#     4   9  19  37  62  89 117 154 198 243 299 360
#
# _framework density 23.234805999999999
#
# number of rings (size 3 to 8) (size 9 to 14) (size 15 to 20)
#    0.000    2.250    0.000    1.500    0.000    6.500 
#    0.000   10.000    0.000    0.000    0.000    0.000 
#    0.000    0.000    0.000    0.000    0.000    0.000 
#
# Total GULP energy -396508.114682 kJ/mol
# GULP energy per Si atom -12390.878584 kJ/mol
# Density = 2.318192 g / cm^3
# Si number density = 23.234806 Si / 1000 Ang^3
#
#
#
# Elastic Constant Matrix: (Units=GPa)
#
#
# Indices 1 2 3 4 5 6 
#
# 1 60.7604 17.8808 39.0092 0.0000 0.0000 0.0000
# 2 17.8808 130.5541 42.7864 0.0000 0.0000 0.0000
# 3 39.0092 42.7864 120.7818 0.0000 0.0000 0.0000
# 4 0.0000 0.0000 0.0000 -34.9498 0.0000 0.0000
# 5 0.0000 0.0000 0.0000 0.0000 -62.8775 0.0000
# 6 0.0000 0.0000 0.0000 0.0000 0.0000 11.3052
#
#
#
# Elastic Compliance Matrix: (Units=1/GPa)
#
#
# Indices 1 2 3 4 5 6 
#
# 1 0.020825 -0.000733 -0.006466 0.000000 0.000000 0.000000
# 2 -0.000733 0.008692 -0.002842 0.000000 0.000000 0.000000
# 3 -0.006466 -0.002842 0.011375 0.000000 0.000000 0.000000
# 4 0.000000 0.000000 0.000000 -0.028612 0.000000 0.000000
# 5 0.000000 0.000000 0.000000 0.000000 -0.015904 0.000000
# 6 0.000000 0.000000 0.000000 0.000000 0.000000 0.088455
#
#
# Mechanical properties :
#
#
# Convention : Reuss Voigt Hill
#
# Bulk Modulus (GPa) = 48.05756 56.82769 52.44262
# Shear Modulus (GPa) = 44.70297 -3.14309 20.77994
#
# Velocity S-wave (km/s) = 4.39106 -1.16434 2.99381
# Velocity P-wave (km/s) = 6.81446 4.76482 5.87964
#
# Compressibility (1/GPa) = 0.02080838
#
# Stress axis : x y z
#
# Youngs Moduli (GPa) = 48.01856 115.05463 87.91468
#
# Poissons Ratio (x) = 0.08434 0.56848
# Poissons Ratio (y) = 0.03520 0.24987
# Poissons Ratio (z) = 0.31050 0.32701
#
# Static dielectric constant tensor:
#      x y z
#    x 4.513690 0.000000 0.000000 
#    y 0.000000 4.272390 0.000000 
#    z 0.000000 0.000000 4.107520 
# 
# 
# High freq. dielectric constant tensor:
#      x y z
#    x 1.912750 0.000000 0.000000 
#    y 0.000000 1.911710 0.000000 
#    z 0.000000 0.000000 1.929050 
# 
# From -- ./inp_files/27835.got.cif
#   From: 2010.03.12/outbox.cif.g09.slc.cpg/sg53_14_cif.got.tgz:27835.got - 2010.04.16 14:36:59.
