data_PCOD8221362
_publ_section_title
;
Structure prediction by ZEFSAII (Michael W. Deem and Ramdas Pophale) SiO2 
 PCOD8221362
Probable space group: P M N A
;
_chemical_formula_sum "Si O2"
_cell_formula_units_Z 48
_cell_length_a 13.684122
_cell_length_b 9.947813
_cell_length_c 16.940978
_cell_angle_alpha 90.000000
_cell_angle_beta 90.000000
_cell_angle_gamma 90.000000
_cell_volume 2306.125981
_symmetry_space_group_name_H-M "P M N A"
_symmetry_group_IT_number 53
_symmetry_cell_setting 'orthorhombic'
loop_
_space_group_symop_operation_xyz
x,y,z
1/2-x,-y,1/2+z
x,-y,-z
1/2-x,y,1/2-z
-x,-y,-z
1/2+x,y,1/2-z
-x,y,z
1/2+x,-y,1/2+z
loop_
_atom_site_type_symbol
_atom_site_label
_atom_site_fract_x
_atom_site_fract_y
_atom_site_fract_z
Si Si1 0.728595 0.304001 0.158368
Si Si2 0.889623 0.545014 0.915547
Si Si3 0.108530 0.458417 0.589459
Si Si4 0.314705 0.792926 0.149629
Si Si5 0.610625 0.720763 0.314735
Si Si6 0.113537 0.943762 0.584881
O O1 0.750000 0.272453 0.250000
O O2 0.832467 0.324727 0.115589
O O3 0.668119 0.441287 0.146338
O O4 0.674150 0.182432 0.115093
O O5 0.881099 0.426384 0.851998
O O6 0.000000 0.593197 0.928206
O O7 0.845113 0.500000 0.000000
O O8 0.105178 0.500000 0.500000
O O9 0.157713 0.310699 0.580702
O O10 0.000000 0.450156 0.625463
O O11 0.196665 0.815994 0.149369
O O12 0.360712 0.711345 0.223402
O O13 0.368470 0.935226 0.145739
O O14 0.500000 0.778333 0.328055
O O15 0.000000 0.902555 0.582563
O O16 0.149378 0.000000 0.500000
#
# Coordination Sequence:
#
# PCOD8221362 Si02
#       6
#     8   8   8   8   8   8
#     4  12  25  40  62  98 134 172 206 265 338 394
#     4  10  22  41  65  95 129 168 211 260 316 378
#     4  11  22  38  65  96 125 163 220 277 324 384
#     4  11  22  39  65  93 122 165 213 263 321 376
#     4  10  21  37  64  94 123 159 209 263 310 372
#     4  11  26  46  66  91 128 172 218 272 331 387
#
# _framework density 20.814126000000002
#
# number of rings (size 3 to 8) (size 9 to 14) (size 15 to 20)
#    0.000    1.167    1.667    4.500    4.667    5.333 
#    0.000    0.833    0.000    1.000    0.000    0.000 
#    0.000    0.000    0.000    0.000    0.000    0.000 
#
# Total GULP energy -594977.752854 kJ/mol
# GULP energy per Si atom -12395.369851 kJ/mol
# Density = 2.076675 g / cm^3
# Si number density = 20.814126 Si / 1000 Ang^3
#
#
#
# Elastic Constant Matrix: (Units=GPa)
#
#
# Indices 1 2 3 4 5 6 
#
# 1 134.6301 37.4973 51.4004 0.0000 0.0000 0.0000
# 2 37.4973 101.6461 36.6129 0.0000 0.0000 0.0000
# 3 51.4004 36.6129 99.1733 0.0000 0.0000 0.0000
# 4 0.0000 0.0000 0.0000 25.1331 0.0000 0.0000
# 5 0.0000 0.0000 0.0000 0.0000 26.8826 0.0000
# 6 0.0000 0.0000 0.0000 0.0000 0.0000 28.0135
#
#
#
# Elastic Compliance Matrix: (Units=1/GPa)
#
#
# Indices 1 2 3 4 5 6 
#
# 1 0.009606 -0.002019 -0.004234 0.000000 0.000000 0.000000
# 2 -0.002019 0.011771 -0.003299 0.000000 0.000000 0.000000
# 3 -0.004234 -0.003299 0.013496 0.000000 0.000000 0.000000
# 4 0.000000 0.000000 0.000000 0.039788 0.000000 0.000000
# 5 0.000000 0.000000 0.000000 0.000000 0.037199 0.000000
# 6 0.000000 0.000000 0.000000 0.000000 0.000000 0.035697
#
#
# Mechanical properties :
#
#
# Convention : Reuss Voigt Hill
#
# Bulk Modulus (GPa) = 63.41283 65.16342 64.28812
# Shear Modulus (GPa) = 29.08374 30.00177 29.54275
#
# Velocity S-wave (km/s) = 3.74211 3.80071 3.77153
# Velocity P-wave (km/s) = 7.01453 7.11589 7.06539
#
# Compressibility (1/GPa) = 0.01576968
#
# Stress axis : x y z
#
# Youngs Moduli (GPa) = 104.09743 84.95280 74.09809
#
# Poissons Ratio (x) = 0.17151 0.31370
# Poissons Ratio (y) = 0.21016 0.24448
# Poissons Ratio (z) = 0.44070 0.28029
#
# Static dielectric constant tensor:
#      x y z
#    x 4.295440 0.000000 0.000000 
#    y 0.000000 3.668750 0.000000 
#    z 0.000000 0.000000 3.892750 
# 
# 
# High freq. dielectric constant tensor:
#      x y z
#    x 1.835510 0.000000 0.000000 
#    y 0.000000 1.788230 0.000000 
#    z 0.000000 0.000000 1.821340 
# 
# From -- ./inp_files/28305.got.cif
#   From: 2010.03.12/outbox.cif.g09.slc.cpg/sg53_15_cif.got.tgz:28305.got - 2010.04.16 14:36:59.
