data_PCOD8221197
_publ_section_title
;
Structure prediction by ZEFSAII (Michael W. Deem and Ramdas Pophale) SiO2 
 PCOD8221197
Probable space group: P M N A
;
_chemical_formula_sum "Si O2"
_cell_formula_units_Z 48
_cell_length_a 7.685811
_cell_length_b 10.068100
_cell_length_c 30.843840
_cell_angle_alpha 90.000000
_cell_angle_beta 90.000000
_cell_angle_gamma 90.000000
_cell_volume 2386.743028
_symmetry_space_group_name_H-M "P M N A"
_symmetry_group_IT_number 53
_symmetry_cell_setting 'orthorhombic'
loop_
_space_group_symop_operation_xyz
x,y,z
1/2-x,-y,1/2+z
x,-y,-z
1/2-x,y,1/2-z
-x,-y,-z
1/2+x,y,1/2-z
-x,y,z
1/2+x,-y,1/2+z
loop_
_atom_site_type_symbol
_atom_site_label
_atom_site_fract_x
_atom_site_fract_y
_atom_site_fract_z
Si Si1 0.000000 0.588561 0.934816
Si Si2 0.203382 0.476182 0.702503
Si Si3 0.000000 0.307143 0.968574
Si Si4 0.304090 0.027815 0.135384
Si Si5 0.794974 0.819274 0.297831
Si Si6 0.708933 0.324419 0.128586
Si Si7 0.192983 0.942687 0.043757
O O1 0.180482 0.634330 0.913204
O O2 0.000000 0.428884 0.935496
O O3 0.000000 0.646741 0.982424
O O4 0.250000 0.531258 0.750000
O O5 0.286314 0.328833 0.695656
O O6 0.273316 0.580001 0.667253
O O7 0.000000 0.465461 0.697081
O O8 0.827461 0.217343 0.959661
O O9 0.500000 0.035462 0.151643
O O10 0.209412 0.920655 0.166955
O O11 0.303080 0.980424 0.085654
O O12 0.227827 0.175588 0.140641
O O13 0.750000 0.872777 0.250000
O O14 0.000000 0.810346 0.304493
O O15 0.500000 0.332229 0.119121
O O16 0.000000 0.009541 0.048132
O O17 0.283499 0.000000 0.000000
#
# Coordination Sequence:
#
# PCOD8221197 Si02
#       7
#     4   8   4   8   8   8   8
#     4  11  22  40  64  84 124 157 200 241 310 346
#     4   9  19  35  55  80 115 151 195 244 291 349
#     4   9  21  38  58  92 115 154 195 256 285 362
#     4  10  21  36  57  85 116 153 196 240 299 349
#     4   9  19  36  55  81 114 149 190 245 293 344
#     4  10  23  39  58  87 119 158 197 247 289 358
#     4   9  19  35  57  81 115 147 187 243 286 343
#
# _framework density 20.111087000000001
#
# number of rings (size 3 to 8) (size 9 to 14) (size 15 to 20)
#    0.500    2.000    0.000    1.000    4.667    1.667 
#    0.000    2.500    0.000    0.000    0.000    0.000 
#    0.000    0.000    0.000    0.000    0.000    0.000 
#
# Total GULP energy -594839.507484 kJ/mol
# GULP energy per Si atom -12392.489739 kJ/mol
# Density = 2.006531 g / cm^3
# Si number density = 20.111087 Si / 1000 Ang^3
#
#
#
# Elastic Constant Matrix: (Units=GPa)
#
#
# Indices 1 2 3 4 5 6 
#
# 1 37.1104 17.0833 10.7900 0.0000 0.0000 0.0000
# 2 17.0833 163.8217 78.0400 0.0000 0.0000 0.0000
# 3 10.7900 78.0400 130.0459 0.0000 0.0000 0.0000
# 4 0.0000 0.0000 0.0000 44.2704 0.0000 0.0000
# 5 0.0000 0.0000 0.0000 0.0000 26.7810 0.0000
# 6 0.0000 0.0000 0.0000 0.0000 0.0000 51.2693
#
#
#
# Elastic Compliance Matrix: (Units=1/GPa)
#
#
# Indices 1 2 3 4 5 6 
#
# 1 0.028366 -0.002572 -0.000810 0.000000 0.000000 0.000000
# 2 -0.002572 0.008781 -0.005056 0.000000 0.000000 0.000000
# 3 -0.000810 -0.005056 0.010791 0.000000 0.000000 0.000000
# 4 0.000000 0.000000 0.000000 0.022588 0.000000 0.000000
# 5 0.000000 0.000000 0.000000 0.000000 0.037340 0.000000
# 6 0.000000 0.000000 0.000000 0.000000 0.000000 0.019505
#
#
# Mechanical properties :
#
#
# Convention : Reuss Voigt Hill
#
# Bulk Modulus (GPa) = 32.19402 60.31162 46.25282
# Shear Modulus (GPa) = 32.34123 39.46847 35.90485
#
# Velocity S-wave (km/s) = 4.01450 4.43484 4.22990
# Velocity P-wave (km/s) = 6.12627 7.50187 6.84870
#
# Compressibility (1/GPa) = 0.03106167
#
# Stress axis : x y z
#
# Youngs Moduli (GPa) = 35.25324 113.88282 92.67082
#
# Poissons Ratio (x) = 0.29292 0.07507
# Poissons Ratio (y) = 0.09068 0.46854
# Poissons Ratio (z) = 0.02856 0.57579
#
# Static dielectric constant tensor:
#      x y z
#    x 3.304600 0.000000 0.000000 
#    y 0.000000 4.160060 0.000000 
#    z 0.000000 0.000000 3.568170 
# 
# 
# High freq. dielectric constant tensor:
#      x y z
#    x 1.756590 0.000000 0.000000 
#    y 0.000000 1.795060 0.000000 
#    z 0.000000 0.000000 1.786090 
# 
# From -- ./inp_files/37854.got.cif
#   From: 2010.03.12/outbox.cif.g09.slc.cpg/sg53_19_cif.got.tgz:37854.got - 2010.04.16 14:36:59.
