data_PCOD8221410
_publ_section_title
;
Structure prediction by ZEFSAII (Michael W. Deem and Ramdas Pophale) SiO2 
 PCOD8221410
Probable space group: P M N A
;
_chemical_formula_sum "Si O2"
_cell_formula_units_Z 48
_cell_length_a 8.839956
_cell_length_b 14.772041
_cell_length_c 18.414991
_cell_angle_alpha 90.000000
_cell_angle_beta 90.000000
_cell_angle_gamma 90.000000
_cell_volume 2404.706729
_symmetry_space_group_name_H-M "P M N A"
_symmetry_group_IT_number 53
_symmetry_cell_setting 'orthorhombic'
loop_
_space_group_symop_operation_xyz
x,y,z
1/2-x,-y,1/2+z
x,-y,-z
1/2-x,y,1/2-z
-x,-y,-z
1/2+x,y,1/2-z
-x,y,z
1/2+x,-y,1/2+z
loop_
_atom_site_type_symbol
_atom_site_label
_atom_site_fract_x
_atom_site_fract_y
_atom_site_fract_z
Si Si1 0.677466 0.518282 0.674973
Si Si2 0.325371 0.020535 0.326437
Si Si3 0.176515 0.349424 0.604695
Si Si4 0.172392 0.646993 0.562851
Si Si5 0.824392 0.144814 0.445593
Si Si6 0.673603 0.162717 0.595371
O O1 0.750000 0.552369 0.750000
O O2 0.500000 0.513798 0.684984
O O3 0.737460 0.418852 0.656116
O O4 0.716326 0.588883 0.611885
O O5 0.250000 0.041003 0.250000
O O6 0.500000 0.050083 0.324808
O O7 0.308401 0.914795 0.344567
O O8 0.238232 0.079685 0.384754
O O9 0.209971 0.373652 0.520992
O O10 0.232767 0.248840 0.623086
O O11 0.000000 0.354342 0.622012
O O12 0.200117 0.752098 0.579800
O O13 0.000000 0.618731 0.580203
O O14 0.736394 0.124428 0.519682
O O15 0.000000 0.125123 0.459945
O O16 0.500000 0.191156 0.584322
#
# Coordination Sequence:
#
# PCOD8221410 Si02
#       6
#     8   8   8   8   8   8
#     4  12  25  39  58  84 116 154 192 234 285 341
#     4  11  24  39  57  83 117 155 192 236 287 341
#     4  10  21  39  63  88 116 150 189 236 287 340
#     4   9  20  39  61  86 115 148 187 233 284 337
#     4  10  21  38  62  88 115 150 191 237 288 341
#     4  10  21  38  60  87 117 150 193 240 285 337
#
# _framework density 19.960854000000001
#
# number of rings (size 3 to 8) (size 9 to 14) (size 15 to 20)
#    0.000    1.667    0.000    5.500    0.000   12.000 
#    0.000    1.667    0.000    0.000    0.000    0.000 
#    0.000    0.000    0.000    0.000    0.000    0.000 
#
# Total GULP energy -595500.148025 kJ/mol
# GULP energy per Si atom -12406.253084 kJ/mol
# Density = 1.991542 g / cm^3
# Si number density = 19.960854 Si / 1000 Ang^3
#
#
#
# Elastic Constant Matrix: (Units=GPa)
#
#
# Indices 1 2 3 4 5 6 
#
# 1 116.3138 27.2478 18.1477 0.0000 0.0000 0.0000
# 2 27.2478 50.7110 7.7986 0.0000 0.0000 0.0000
# 3 18.1477 7.7986 30.4491 0.0000 0.0000 0.0000
# 4 0.0000 0.0000 0.0000 13.3400 0.0000 0.0000
# 5 0.0000 0.0000 0.0000 0.0000 35.6124 0.0000
# 6 0.0000 0.0000 0.0000 0.0000 0.0000 32.9168
#
#
#
# Elastic Compliance Matrix: (Units=1/GPa)
#
#
# Indices 1 2 3 4 5 6 
#
# 1 0.010525 -0.004883 -0.005022 0.000000 0.000000 0.000000
# 2 -0.004883 0.022793 -0.002928 0.000000 0.000000 0.000000
# 3 -0.005022 -0.002928 0.036585 0.000000 0.000000 0.000000
# 4 0.000000 0.000000 0.000000 0.074963 0.000000 0.000000
# 5 0.000000 0.000000 0.000000 0.000000 0.028080 0.000000
# 6 0.000000 0.000000 0.000000 0.000000 0.000000 0.030380
#
#
# Mechanical properties :
#
#
# Convention : Reuss Voigt Hill
#
# Bulk Modulus (GPa) = 22.60520 33.76245 28.18382
# Shear Modulus (GPa) = 20.51393 25.99249 23.25321
#
# Velocity S-wave (km/s) = 3.20927 3.61248 3.41683
# Velocity P-wave (km/s) = 5.00818 5.86098 5.45128
#
# Compressibility (1/GPa) = 0.04423762
#
# Stress axis : x y z
#
# Youngs Moduli (GPa) = 95.01305 43.87232 27.33373
#
# Poissons Ratio (x) = 0.21422 0.13728
# Poissons Ratio (y) = 0.46393 0.08002
# Poissons Ratio (z) = 0.47718 0.12844
#
# Static dielectric constant tensor:
#      x y z
#    x 3.765930 0.000000 0.000000 
#    y 0.000000 3.666510 0.000000 
#    z 0.000000 0.000000 3.547780 
# 
# 
# High freq. dielectric constant tensor:
#      x y z
#    x 1.792460 0.000000 0.000000 
#    y 0.000000 1.786710 0.000000 
#    z 0.000000 0.000000 1.774980 
# 
# From -- ./inp_files/26187.got.cif
#   From: 2010.03.12/outbox.cif.g09.slc.cpg/sg53_14_cif.got.tgz:26187.got - 2010.04.16 14:36:59.
