data_PCOD8221063
_publ_section_title
;
Structure prediction by ZEFSAII (Michael W. Deem and Ramdas Pophale) SiO2 
 PCOD8221063
Probable space group: P M N A
;
_chemical_formula_sum "Si O2"
_cell_formula_units_Z 56
_cell_length_a 15.677129
_cell_length_b 9.348054
_cell_length_c 19.506911
_cell_angle_alpha 90.000000
_cell_angle_beta 90.000000
_cell_angle_gamma 90.000000
_cell_volume 2858.750456
_symmetry_space_group_name_H-M "P M N A"
_symmetry_group_IT_number 53
_symmetry_cell_setting 'orthorhombic'
loop_
_space_group_symop_operation_xyz
x,y,z
1/2-x,-y,1/2+z
x,-y,-z
1/2-x,y,1/2-z
-x,-y,-z
1/2+x,y,1/2-z
-x,y,z
1/2+x,-y,1/2+z
loop_
_atom_site_type_symbol
_atom_site_label
_atom_site_fract_x
_atom_site_fract_y
_atom_site_fract_z
Si Si1 0.130597 0.171425 0.096769
Si Si2 0.404211 0.560609 0.866885
Si Si3 0.844780 0.266228 0.246611
Si Si4 0.403433 0.965103 0.840814
Si Si5 0.000000 0.673639 0.996069
Si Si6 0.098490 0.752098 0.406243
Si Si7 0.500000 0.941966 0.424452
Si Si8 0.180014 0.792305 0.549455
O O1 0.124928 0.252776 0.169082
O O2 0.225289 0.151197 0.066990
O O3 0.083714 0.277086 0.044326
O O4 0.085562 0.014829 0.107923
O O5 0.500000 0.582905 0.895627
O O6 0.402013 0.621270 0.789218
O O7 0.379089 0.395319 0.869041
O O8 0.336251 0.638181 0.916060
O O9 0.750000 0.327506 0.250000
O O10 0.844463 0.110630 0.284109
O O11 0.500000 0.931416 0.819425
O O12 0.386322 0.902679 0.916801
O O13 0.385663 0.133635 0.845615
O O14 0.000000 0.500000 0.000000
O O15 0.000000 0.766102 0.069527
O O16 0.163105 0.782149 0.468690
O O17 0.000000 0.758229 0.431998
O O18 0.500000 0.000000 0.500000
#
# Coordination Sequence:
#
# PCOD8221063 Si02
#       8
#     8   8   8   8   4   8   4   8
#     4  10  21  38  63  86 111 153 196 244 287 342
#     4  10  21  35  57  85 119 161 190 232 284 353
#     4  11  20  39  59  82 110 146 204 233 279 344
#     4  10  21  34  56  86 116 152 188 239 282 341
#     4  10  24  44  62  90 120 144 194 247 299 352
#     4  10  21  36  52  86 127 150 185 231 291 351
#     4   8  20  40  62  86 114 146 188 243 293 338
#     4  11  19  34  60  85 114 152 195 232 287 345
#
# _framework density 19.588977
#
# number of rings (size 3 to 8) (size 9 to 14) (size 15 to 20)
#    0.000    2.000    2.857    3.429    4.000    6.857 
#    0.000    2.143    0.000    0.000    0.000    0.000 
#    0.000    0.000    0.000    0.000    0.000    0.000 
#
# Total GULP energy -693935.936558 kJ/mol
# GULP energy per Si atom -12391.713153 kJ/mol
# Density = 1.954439 g / cm^3
# Si number density = 19.588977 Si / 1000 Ang^3
#
#
#
# Elastic Constant Matrix: (Units=GPa)
#
#
# Indices 1 2 3 4 5 6 
#
# 1 74.4522 22.2280 14.6042 0.0000 0.0000 0.0000
# 2 22.2280 129.0244 15.9235 0.0000 0.0000 0.0000
# 3 14.6042 15.9235 72.8370 0.0000 0.0000 0.0000
# 4 0.0000 0.0000 0.0000 5.2386 0.0000 0.0000
# 5 0.0000 0.0000 0.0000 0.0000 28.1624 0.0000
# 6 0.0000 0.0000 0.0000 0.0000 0.0000 7.5012
#
#
#
# Elastic Compliance Matrix: (Units=1/GPa)
#
#
# Indices 1 2 3 4 5 6 
#
# 1 0.014569 -0.002209 -0.002438 0.000000 0.000000 0.000000
# 2 -0.002209 0.008300 -0.001372 0.000000 0.000000 0.000000
# 3 -0.002438 -0.001372 0.014518 0.000000 0.000000 0.000000
# 4 0.000000 0.000000 0.000000 0.190892 0.000000 0.000000
# 5 0.000000 0.000000 0.000000 0.000000 0.035508 0.000000
# 6 0.000000 0.000000 0.000000 0.000000 0.000000 0.133312
#
#
# Mechanical properties :
#
#
# Convention : Reuss Voigt Hill
#
# Bulk Modulus (GPa) = 39.44829 42.42500 40.93665
# Shear Modulus (GPa) = 11.97355 23.08430 17.52892
#
# Velocity S-wave (km/s) = 2.47501 3.43656 2.99463
# Velocity P-wave (km/s) = 5.32440 6.11974 5.73587
#
# Compressibility (1/GPa) = 0.02534964
#
# Stress axis : x y z
#
# Youngs Moduli (GPa) = 68.63782 120.47723 68.87980
#
# Poissons Ratio (x) = 0.26614 0.16795
# Poissons Ratio (y) = 0.15162 0.09448
# Poissons Ratio (z) = 0.16736 0.16526
#
# Static dielectric constant tensor:
#      x y z
#    x 3.540340 0.000000 0.000000 
#    y 0.000000 3.931140 0.000000 
#    z 0.000000 0.000000 3.512420 
# 
# 
# High freq. dielectric constant tensor:
#      x y z
#    x 1.762590 0.000000 0.000000 
#    y 0.000000 1.757170 0.000000 
#    z 0.000000 0.000000 1.743620 
# 
# From -- ./inp_files/32519.got.cif
#   From: 2010.03.12/outbox.cif.g09.slc.cpg/sg53_17_cif.got.tgz:32519.got - 2010.04.16 14:36:59.
