data_PCOD8222181
_publ_section_title
;
Structure prediction by ZEFSAII (Michael W. Deem and Ramdas Pophale) SiO2 
 PCOD8222181
Probable space group: P M N A
;
_chemical_formula_sum "Si O2"
_cell_formula_units_Z 40
_cell_length_a 9.515651
_cell_length_b 23.924221
_cell_length_c 8.525164
_cell_angle_alpha 90.000000
_cell_angle_beta 90.000000
_cell_angle_gamma 90.000000
_cell_volume 1940.792267
_symmetry_space_group_name_H-M "P M N A"
_symmetry_group_IT_number 53
_symmetry_cell_setting 'orthorhombic'
loop_
_space_group_symop_operation_xyz
x,y,z
1/2-x,-y,1/2+z
x,-y,-z
1/2-x,y,1/2-z
-x,-y,-z
1/2+x,y,1/2-z
-x,y,z
1/2+x,-y,1/2+z
loop_
_atom_site_type_symbol
_atom_site_label
_atom_site_fract_x
_atom_site_fract_y
_atom_site_fract_z
Si Si1 0.500000 0.561732 0.437637
Si Si2 0.252701 0.367024 0.434992
Si Si3 0.339650 0.054857 0.898153
Si Si4 0.338661 0.255237 0.598094
Si Si5 0.836764 0.856948 0.908823
Si Si6 0.000000 0.562999 0.436698
O O1 0.500000 0.500000 0.500000
O O2 0.373276 0.592782 0.513954
O O3 0.500000 0.562578 0.250471
O O4 0.250000 0.356616 0.250000
O O5 0.262716 0.307568 0.519101
O O6 0.123914 0.401397 0.495638
O O7 0.250000 0.035610 0.750000
O O8 0.500000 0.075854 0.859430
O O9 0.247396 0.103330 0.974624
O O10 0.351937 0.000000 0.000000
O O11 0.250000 0.237592 0.750000
O O12 0.500000 0.269752 0.643778
O O13 0.335615 0.205151 0.475540
O O14 0.750000 0.857658 0.750000
O O15 0.000000 0.876675 0.884424
O O16 0.000000 0.500000 0.500000
#
# Coordination Sequence:
#
# PCOD8222181 Si02
#       6
#     4   8   8   8   8   4
#     4  12  24  44  68  94 132 168 215 268 323 398
#     4  12  25  44  66  96 131 169 217 269 329 395
#     4  11  24  42  66  98 136 179 228 281 341 404
#     4  11  25  44  67  97 132 172 219 272 330 396
#     4  11  24  43  67  98 136 177 226 279 337 401
#     4  12  26  44  68  98 128 172 215 266 333 392
#
# _framework density 20.610140000000001
#
# number of rings (size 3 to 8) (size 9 to 14) (size 15 to 20)
#    0.000    0.600    1.000    7.200    1.400    6.400 
#    0.000    0.000    0.000    0.000    0.000    0.000 
#    0.000    0.000    0.000    0.000    0.000    0.000 
#
# Total GULP energy -495878.686350 kJ/mol
# GULP energy per Si atom -12396.967159 kJ/mol
# Density = 2.056323 g / cm^3
# Si number density = 20.610140 Si / 1000 Ang^3
#
#
#
# Elastic Constant Matrix: (Units=GPa)
#
#
# Indices 1 2 3 4 5 6 
#
# 1 188.1079 43.2705 42.5403 0.0000 0.0000 0.0000
# 2 43.2705 89.1162 -8.9339 0.0000 0.0000 0.0000
# 3 42.5403 -8.9339 88.7081 0.0000 0.0000 0.0000
# 4 0.0000 0.0000 0.0000 39.1489 0.0000 0.0000
# 5 0.0000 0.0000 0.0000 0.0000 39.4249 0.0000
# 6 0.0000 0.0000 0.0000 0.0000 0.0000 39.0711
#
#
#
# Elastic Compliance Matrix: (Units=1/GPa)
#
#
# Indices 1 2 3 4 5 6 
#
# 1 0.007039 -0.003794 -0.003758 0.000000 0.000000 0.000000
# 2 -0.003794 0.013381 0.003167 0.000000 0.000000 0.000000
# 3 -0.003758 0.003167 0.013394 0.000000 0.000000 0.000000
# 4 0.000000 0.000000 0.000000 0.025543 0.000000 0.000000
# 5 0.000000 0.000000 0.000000 0.000000 0.025365 0.000000
# 6 0.000000 0.000000 0.000000 0.000000 0.000000 0.025594
#
#
# Mechanical properties :
#
#
# Convention : Reuss Voigt Hill
#
# Bulk Modulus (GPa) = 39.92915 57.74288 48.83602
# Shear Modulus (GPa) = 39.23610 42.79935 41.01773
#
# Velocity S-wave (km/s) = 4.36791 4.56193 4.46597
# Velocity P-wave (km/s) = 6.69729 7.47167 7.09506
#
# Compressibility (1/GPa) = 0.02504436
#
# Stress axis : x y z
#
# Youngs Moduli (GPa) = 142.07217 74.73193 74.66112
#
# Poissons Ratio (x) = 0.28356 0.28054
# Poissons Ratio (y) = 0.53907 -0.23647
# Poissons Ratio (z) = 0.53384 -0.23669
#
# Static dielectric constant tensor:
#      x y z
#    x 4.275740 0.000000 0.000000 
#    y 0.000000 3.899550 0.000000 
#    z 0.000000 0.000000 4.192850 
# 
# 
# High freq. dielectric constant tensor:
#      x y z
#    x 1.833560 0.000000 0.000000 
#    y 0.000000 1.824600 0.000000 
#    z 0.000000 0.000000 1.820950 
# 
# From -- ./inp_files/6352.got.cif
#   From: 2010.03.12/outbox.cif.g09.slc.cpg/sg53_4_cif.got.tgz:6352.got - 2010.04.16 14:36:59.
