data_PCOD8222068
_publ_section_title
;
Structure prediction by ZEFSAII (Michael W. Deem and Ramdas Pophale) SiO2 
 PCOD8222068
Probable space group: P M N A
;
_chemical_formula_sum "Si O2"
_cell_formula_units_Z 64
_cell_length_a 29.186051
_cell_length_b 9.532363
_cell_length_c 11.452809
_cell_angle_alpha 90.000000
_cell_angle_beta 90.000000
_cell_angle_gamma 90.000000
_cell_volume 3186.309272
_symmetry_space_group_name_H-M "P M N A"
_symmetry_group_IT_number 53
_symmetry_cell_setting 'orthorhombic'
loop_
_space_group_symop_operation_xyz
x,y,z
1/2-x,-y,1/2+z
x,-y,-z
1/2-x,y,1/2-z
-x,-y,-z
1/2+x,y,1/2-z
-x,y,z
1/2+x,-y,1/2+z
loop_
_atom_site_type_symbol
_atom_site_label
_atom_site_fract_x
_atom_site_fract_y
_atom_site_fract_z
Si Si1 0.445985 0.832511 0.632445
Si Si2 0.854045 0.765301 0.756753
Si Si3 0.382502 0.281961 0.770114
Si Si4 0.165320 0.667410 0.499077
Si Si5 0.760752 0.274452 0.883828
Si Si6 0.162456 0.497100 0.878291
Si Si7 0.948102 0.852965 0.129352
Si Si8 0.169125 0.045106 0.874607
O O1 0.500000 0.810362 0.670712
O O2 0.408714 0.750263 0.712203
O O3 0.439342 0.784275 0.497887
O O4 0.426515 0.991692 0.643171
O O5 0.848188 0.737334 0.620208
O O6 0.825136 0.652311 0.832643
O O7 0.829847 0.912861 0.787414
O O8 0.370532 0.265815 0.905553
O O9 0.366626 0.434402 0.728633
O O10 0.435330 0.252997 0.736576
O O11 0.360165 0.168487 0.682746
O O12 0.160763 0.500000 0.500000
O O13 0.216065 0.714447 0.463922
O O14 0.750000 0.300494 0.750000
O O15 0.793937 0.403137 0.915689
O O16 0.781346 0.117524 0.898924
O O17 0.133637 0.500000 0.000000
O O18 0.000000 0.890717 0.143108
O O19 0.148381 0.000000 0.000000
#
# Coordination Sequence:
#
# PCOD8222068 Si02
#       8
#     8   8   8   8   8   8   8   8
#     4   9  18  35  64 101 136 163 209 268 332 408
#     4  12  23  40  67  98 130 177 220 261 344 397
#     4  11  21  41  62  87 132 165 218 266 318 386
#     4  12  25  46  66  86 126 188 233 267 313 406
#     4  11  22  44  61  84 126 166 220 273 320 376
#     4  11  22  37  64  89 118 169 217 270 325 383
#     4   9  17  34  64  98 132 169 204 266 338 400
#     4  11  23  39  63  95 128 159 205 282 338 383
#
# _framework density 20.085934999999999
#
# number of rings (size 3 to 8) (size 9 to 14) (size 15 to 20)
#    0.000    1.250    5.000    4.125    0.000    1.500 
#    0.000    3.125    0.000    4.500    0.000    0.000 
#    0.000    0.000    0.000    0.000    0.000    0.000 
#
# Total GULP energy -792927.791586 kJ/mol
# GULP energy per Si atom -12389.496744 kJ/mol
# Density = 2.004022 g / cm^3
# Si number density = 20.085935 Si / 1000 Ang^3
#
#
#
# Elastic Constant Matrix: (Units=GPa)
#
#
# Indices 1 2 3 4 5 6 
#
# 1 65.1003 31.9131 45.5399 0.0000 0.0000 0.0000
# 2 31.9131 90.3672 38.1973 0.0000 0.0000 0.0000
# 3 45.5399 38.1973 146.8600 0.0000 0.0000 0.0000
# 4 0.0000 0.0000 0.0000 35.2571 0.0000 0.0000
# 5 0.0000 0.0000 0.0000 0.0000 32.6733 0.0000
# 6 0.0000 0.0000 0.0000 0.0000 0.0000 19.4320
#
#
#
# Elastic Compliance Matrix: (Units=1/GPa)
#
#
# Indices 1 2 3 4 5 6 
#
# 1 0.021753 -0.005427 -0.005334 0.000000 0.000000 0.000000
# 2 -0.005427 0.013787 -0.001903 0.000000 0.000000 0.000000
# 3 -0.005334 -0.001903 0.008958 0.000000 0.000000 0.000000
# 4 0.000000 0.000000 0.000000 0.028363 0.000000 0.000000
# 5 0.000000 0.000000 0.000000 0.000000 0.030606 0.000000
# 6 0.000000 0.000000 0.000000 0.000000 0.000000 0.051462
#
#
# Mechanical properties :
#
#
# Convention : Reuss Voigt Hill
#
# Bulk Modulus (GPa) = 52.16574 59.29202 55.72888
# Shear Modulus (GPa) = 26.78866 29.91762 28.35314
#
# Velocity S-wave (km/s) = 3.65595 3.86357 3.76119
# Velocity P-wave (km/s) = 6.62185 7.03464 6.83136
#
# Compressibility (1/GPa) = 0.01916967
#
# Stress axis : x y z
#
# Youngs Moduli (GPa) = 45.97157 72.53209 111.63151
#
# Poissons Ratio (x) = 0.39366 0.59540
# Poissons Ratio (y) = 0.24951 0.21242
# Poissons Ratio (z) = 0.24519 0.13802
#
# Static dielectric constant tensor:
#      x y z
#    x 4.496180 0.000000 0.000000 
#    y 0.000000 3.940730 0.000000 
#    z 0.000000 0.000000 3.760990 
# 
# 
# High freq. dielectric constant tensor:
#      x y z
#    x 1.772430 0.000000 0.000000 
#    y 0.000000 1.786230 0.000000 
#    z 0.000000 0.000000 1.778480 
# 
# From -- ./inp_files/19062.got.cif
#   From: 2010.03.12/outbox.cif.g09.slc.cpg/sg53_10_cif.got.tgz:19062.got - 2010.04.16 14:36:59.
