data_PCOD8222448
_publ_section_title
;
Structure prediction by ZEFSAII (Michael W. Deem and Ramdas Pophale) SiO2 
 PCOD8222448
Probable space group: P C C A
;
_chemical_formula_sum "Si O2"
_cell_formula_units_Z 48
_cell_length_a 24.083243
_cell_length_b 11.480588
_cell_length_c 9.464521
_cell_angle_alpha 90.000000
_cell_angle_beta 90.000000
_cell_angle_gamma 90.000000
_cell_volume 2616.843429
_symmetry_space_group_name_H-M "P C C A"
_symmetry_group_IT_number 54
_symmetry_cell_setting 'orthorhombic'
loop_
_space_group_symop_operation_xyz
x,y,z
1/2-x,-y,z
1/2+x,-y,1/2-z
-x,y,1/2-z
-x,-y,-z
1/2+x,y,-z
1/2-x,y,1/2+z
x,-y,1/2+z
loop_
_atom_site_type_symbol
_atom_site_label
_atom_site_fract_x
_atom_site_fract_y
_atom_site_fract_z
Si Si1 0.433460 0.862937 0.264142
Si Si2 0.415644 0.295204 0.380833
Si Si3 0.178267 0.425511 0.755148
Si Si4 0.061328 0.953303 0.473950
Si Si5 0.250000 0.500000 0.506521
Si Si6 0.500000 0.458550 0.250000
Si Si7 0.097389 0.621216 0.683800
O O1 0.500000 0.864221 0.250000
O O2 0.413842 0.730682 0.287435
O O3 0.408969 0.940197 0.392238
O O4 0.408974 0.921128 0.120810
O O5 0.368334 0.323189 0.262227
O O6 0.436135 0.161637 0.374021
O O7 0.469575 0.375820 0.362354
O O8 0.388417 0.328600 0.530330
O O9 0.214848 0.414201 0.611718
O O10 0.149053 0.552239 0.748727
O O11 0.213062 0.420924 0.901130
O O12 0.000000 0.000000 0.500000
O O13 0.543856 0.539007 0.331203
#
# Coordination Sequence:
#
# PCOD8222448 Si02
#       7
#     8   8   8   8   4   4   8
#     4   9  17  32  48  70 103 148 184 217 254 307
#     4  10  20  33  50  80 112 148 185 227 270 336
#     4  10  20  36  58  82 109 135 184 224 296 340
#     4   9  19  32  49  69 106 147 191 217 253 312
#     4  10  20  38  58  80 108 138 176 244 290 348
#     4  10  20  28  48  74 118 146 178 218 266 330
#     4  10  18  34  49  78 109 147 178 219 271 338
#
# _framework density 18.34271
#
# number of rings (size 3 to 8) (size 9 to 14) (size 15 to 20)
#    0.000    2.333    2.500    0.500    3.500    0.000 
#    3.000    0.000    0.000    0.000    0.000    7.000 
#    0.000    0.000    0.000    0.000    0.000    0.000 
#
# Total GULP energy -594693.976458 kJ/mol
# GULP energy per Si atom -12389.457843 kJ/mol
# Density = 1.830096 g / cm^3
# Si number density = 18.342710 Si / 1000 Ang^3
#
#
#
# Elastic Constant Matrix: (Units=GPa)
#
#
# Indices 1 2 3 4 5 6 
#
# 1 69.0710 38.2136 28.2169 0.0000 0.0000 0.0000
# 2 38.2136 117.0128 32.3983 0.0000 0.0000 0.0000
# 3 28.2169 32.3983 79.7010 0.0000 0.0000 0.0000
# 4 0.0000 0.0000 0.0000 28.2461 0.0000 0.0000
# 5 0.0000 0.0000 0.0000 0.0000 26.4171 0.0000
# 6 0.0000 0.0000 0.0000 0.0000 0.0000 17.9419
#
#
#
# Elastic Compliance Matrix: (Units=1/GPa)
#
#
# Indices 1 2 3 4 5 6 
#
# 1 0.019159 -0.004934 -0.004777 0.000000 0.000000 0.000000
# 2 -0.004934 0.010901 -0.002684 0.000000 0.000000 0.000000
# 3 -0.004777 -0.002684 0.015329 0.000000 0.000000 0.000000
# 4 0.000000 0.000000 0.000000 0.035403 0.000000 0.000000
# 5 0.000000 0.000000 0.000000 0.000000 0.037854 0.000000
# 6 0.000000 0.000000 0.000000 0.000000 0.000000 0.055735
#
#
# Mechanical properties :
#
#
# Convention : Reuss Voigt Hill
#
# Bulk Modulus (GPa) = 48.54873 51.49357 50.02115
# Shear Modulus (GPa) = 24.26717 25.65142 24.95929
#
# Velocity S-wave (km/s) = 3.64123 3.74365 3.69280
# Velocity P-wave (km/s) = 6.64855 6.84255 6.74625
#
# Compressibility (1/GPa) = 0.02059786
#
# Stress axis : x y z
#
# Youngs Moduli (GPa) = 52.19378 91.73741 65.23431
#
# Poissons Ratio (x) = 0.45266 0.31164
# Poissons Ratio (y) = 0.25754 0.17510
# Poissons Ratio (z) = 0.24935 0.24624
#
# Static dielectric constant tensor:
#      x y z
#    x 3.235130 0.000000 0.000000 
#    y 0.000000 3.483660 0.000000 
#    z 0.000000 0.000000 3.644800 
# 
# 
# High freq. dielectric constant tensor:
#      x y z
#    x 1.674560 0.000000 0.000000 
#    y 0.000000 1.699080 0.000000 
#    z 0.000000 0.000000 1.715740 
# 
# From -- ./inp_files/5207.got.cif
#   From: 2010.03.12/outbox.cif.g09.slc.cpg/sg54_3_cif.got.tgz:5207.got - 2010.04.16 15:00:50.
