data_PCOD8222371
_publ_section_title
;
Structure prediction by ZEFSAII (Michael W. Deem and Ramdas Pophale) SiO2 
 PCOD8222371
Probable space group: P C C A
;
_chemical_formula_sum "Si O2"
_cell_formula_units_Z 48
_cell_length_a 5.179457
_cell_length_b 15.511977
_cell_length_c 33.473498
_cell_angle_alpha 90.000000
_cell_angle_beta 90.000000
_cell_angle_gamma 90.000000
_cell_volume 2689.381932
_symmetry_space_group_name_H-M "P C C A"
_symmetry_group_IT_number 54
_symmetry_cell_setting 'orthorhombic'
loop_
_space_group_symop_operation_xyz
x,y,z
1/2-x,-y,z
1/2+x,-y,1/2-z
-x,y,1/2-z
-x,-y,-z
1/2+x,y,-z
1/2-x,y,1/2+z
x,-y,1/2+z
loop_
_atom_site_type_symbol
_atom_site_label
_atom_site_fract_x
_atom_site_fract_y
_atom_site_fract_z
Si Si1 0.002882 0.451832 0.797440
Si Si2 0.250000 0.000000 0.968865
Si Si3 0.443072 0.254881 0.296671
Si Si4 0.690776 0.162961 0.983495
Si Si5 0.250000 0.000000 0.726873
Si Si6 0.392993 0.913330 0.092607
Si Si7 0.929989 0.840885 0.823193
O O1 0.250000 0.500000 0.815447
O O2 0.029463 0.353166 0.810803
O O3 0.750000 0.500000 0.814894
O O4 0.000000 0.458311 0.750000
O O5 0.381694 0.064430 0.937547
O O6 0.088893 0.067810 0.997266
O O7 0.500000 0.244582 0.250000
O O8 0.655328 0.206033 0.322731
O O9 0.157022 0.217965 0.304988
O O10 0.772689 0.151170 0.936588
O O11 0.420123 0.212471 0.992509
O O12 0.101211 0.927900 0.701772
O O13 0.500000 0.958619 0.750000
O O14 0.498276 0.863479 0.131192
O O15 0.250000 0.000000 0.107112
#
# Coordination Sequence:
#
# PCOD8222371 Si02
#       7
#     8   4   8   8   4   8   8
#     4   9  17  32  58  83  96 112 145 193 250 321
#     4  10  18  30  48  66  88 116 172 222 258 290
#     4  11  23  40  54  72 101 128 162 209 264 308
#     4  10  17  29  47  66  86 113 155 217 252 299
#     4  12  24  38  50  60  82 130 198 232 244 274
#     4  11  20  32  46  66  92 123 173 223 243 285
#     4  12  25  35  50  69  96 136 174 219 257 277
#
# _framework density 17.847966
#
# number of rings (size 3 to 8) (size 9 to 14) (size 15 to 20)
#    0.000    1.333    3.333    5.000    2.333    3.333 
#    0.000    0.000    0.000    0.000    0.000    0.000 
#    0.000    0.000    0.000    0.000    0.000  233.333 
#
# Total GULP energy -594655.120236 kJ/mol
# GULP energy per Si atom -12388.648338 kJ/mol
# Density = 1.780734 g / cm^3
# Si number density = 17.847966 Si / 1000 Ang^3
#
#
#
# Elastic Constant Matrix: (Units=GPa)
#
#
# Indices 1 2 3 4 5 6 
#
# 1 109.9542 30.4269 20.4771 0.0000 0.0000 0.0000
# 2 30.4269 77.8392 23.3309 0.0000 0.0000 0.0000
# 3 20.4771 23.3309 95.3020 0.0000 0.0000 0.0000
# 4 0.0000 0.0000 0.0000 1.8797 0.0000 0.0000
# 5 0.0000 0.0000 0.0000 0.0000 -6.9377 0.0000
# 6 0.0000 0.0000 0.0000 0.0000 0.0000 28.8922
#
#
#
# Elastic Compliance Matrix: (Units=1/GPa)
#
#
# Indices 1 2 3 4 5 6 
#
# 1 0.010352 -0.003647 -0.001331 0.000000 0.000000 0.000000
# 2 -0.003647 0.015150 -0.002925 0.000000 0.000000 0.000000
# 3 -0.001331 -0.002925 0.011495 0.000000 0.000000 0.000000
# 4 0.000000 0.000000 0.000000 0.531997 0.000000 0.000000
# 5 0.000000 0.000000 0.000000 0.000000 -0.144141 0.000000
# 6 0.000000 0.000000 0.000000 0.000000 0.000000 0.034611
#
#
# Mechanical properties :
#
#
# Convention : Reuss Voigt Hill
#
# Bulk Modulus (GPa) = 47.19462 47.95170 47.57316
# Shear Modulus (GPa) = 10.36624 18.69090 14.52857
#
# Velocity S-wave (km/s) = 2.41261 3.23960 2.85620
# Velocity P-wave (km/s) = 5.85328 6.39675 6.13104
#
# Compressibility (1/GPa) = 0.02118886
#
# Stress axis : x y z
#
# Youngs Moduli (GPa) = 96.59991 66.00877 86.99367
#
# Poissons Ratio (x) = 0.24077 0.11582
# Poissons Ratio (y) = 0.35235 0.25446
# Poissons Ratio (z) = 0.12861 0.19308
#
# Static dielectric constant tensor:
#      x y z
#    x 3.735840 0.000000 0.000000 
#    y 0.000000 3.013520 0.000000 
#    z 0.000000 0.000000 3.169940 
# 
# 
# High freq. dielectric constant tensor:
#      x y z
#    x 1.719310 0.000000 0.000000 
#    y 0.000000 1.635780 0.000000 
#    z 0.000000 0.000000 1.670820 
# 
# From -- ./inp_files/27170.got.cif
#   From: 2010.03.12/outbox.cif.g09.slc.cpg/sg54_14_cif.got.tgz:27170.got - 2010.04.16 15:00:50.
