data_PCOD8222954
_publ_section_title
;
Structure prediction by ZEFSAII (Michael W. Deem and Ramdas Pophale) SiO2 
 PCOD8222954
Probable space group: P C C A
;
_chemical_formula_sum "Si O2"
_cell_formula_units_Z 48
_cell_length_a 13.865473
_cell_length_b 11.807993
_cell_length_c 14.051881
_cell_angle_alpha 90.000000
_cell_angle_beta 90.000000
_cell_angle_gamma 90.000000
_cell_volume 2300.621848
_symmetry_space_group_name_H-M "P C C A"
_symmetry_group_IT_number 54
_symmetry_cell_setting 'orthorhombic'
loop_
_space_group_symop_operation_xyz
x,y,z
1/2-x,-y,z
1/2+x,-y,1/2-z
-x,y,1/2-z
-x,-y,-z
1/2+x,y,-z
1/2-x,y,1/2+z
x,-y,1/2+z
loop_
_atom_site_type_symbol
_atom_site_label
_atom_site_fract_x
_atom_site_fract_y
_atom_site_fract_z
Si Si1 0.873335 0.268123 0.084966
Si Si2 0.097715 0.663541 0.111918
Si Si3 0.733214 0.626700 0.254214
Si Si4 0.503285 0.106333 0.361258
Si Si5 0.138440 0.023539 0.480685
Si Si6 0.455811 0.420384 0.649538
O O1 0.795040 0.298388 0.164015
O O2 0.883498 0.133361 0.084222
O O3 0.978138 0.326429 0.099500
O O4 0.837976 0.309455 0.981420
O O5 0.167748 0.672278 0.202532
O O6 0.016294 0.758423 0.128075
O O7 0.049747 0.540375 0.094802
O O8 0.750000 0.500000 0.216814
O O9 0.650871 0.631224 0.335687
O O10 0.500000 0.070414 0.250000
O O11 0.589049 0.037390 0.415219
O O12 0.404635 0.078785 0.417709
O O13 0.250000 0.000000 0.498940
O O14 0.500000 0.453775 0.750000
#
# Coordination Sequence:
#
# PCOD8222954 Si02
#       6
#     8   8   8   8   8   8
#     4  10  21  39  60  88 122 168 204 255 324 364
#     4  10  20  38  60  97 123 161 213 255 314 375
#     4   9  20  36  59  92 131 162 208 255 306 382
#     4  10  23  43  66  94 122 166 216 260 326 372
#     4  10  24  46  63  92 130 161 220 268 309 387
#     4   9  18  36  60  89 128 161 201 256 311 378
#
# _framework density 20.863924999999998
#
# number of rings (size 3 to 8) (size 9 to 14) (size 15 to 20)
#    0.000    2.333    0.000    1.000    2.333    4.667 
#   21.000    0.000    0.000    0.000    0.000    0.000 
#    0.000    0.000    0.000    0.000    0.000    0.000 
#
# Total GULP energy -595065.904794 kJ/mol
# GULP energy per Si atom -12397.206350 kJ/mol
# Density = 2.081644 g / cm^3
# Si number density = 20.863925 Si / 1000 Ang^3
#
#
#
# Elastic Constant Matrix: (Units=GPa)
#
#
# Indices 1 2 3 4 5 6 
#
# 1 107.4799 47.2033 35.1570 0.0000 0.0000 0.0000
# 2 47.2033 115.1927 50.7439 0.0000 0.0000 0.0000
# 3 35.1570 50.7439 120.4616 0.0000 0.0000 0.0000
# 4 0.0000 0.0000 0.0000 27.7837 0.0000 0.0000
# 5 0.0000 0.0000 0.0000 0.0000 27.6628 0.0000
# 6 0.0000 0.0000 0.0000 0.0000 0.0000 26.8726
#
#
#
# Elastic Compliance Matrix: (Units=1/GPa)
#
#
# Indices 1 2 3 4 5 6 
#
# 1 0.011623 -0.004013 -0.001702 0.000000 0.000000 0.000000
# 2 -0.004013 0.012045 -0.003903 0.000000 0.000000 0.000000
# 3 -0.001702 -0.003903 0.010442 0.000000 0.000000 0.000000
# 4 0.000000 0.000000 0.000000 0.035992 0.000000 0.000000
# 5 0.000000 0.000000 0.000000 0.000000 0.036150 0.000000
# 6 0.000000 0.000000 0.000000 0.000000 0.000000 0.037213
#
#
# Mechanical properties :
#
#
# Convention : Reuss Voigt Hill
#
# Bulk Modulus (GPa) = 67.22705 67.70473 67.46589
# Shear Modulus (GPa) = 29.82264 30.46584 30.14424
#
# Velocity S-wave (km/s) = 3.78483 3.82542 3.80518
# Velocity P-wave (km/s) = 7.16879 7.21338 7.19112
#
# Compressibility (1/GPa) = 0.01487496
#
# Stress axis : x y z
#
# Youngs Moduli (GPa) = 86.03427 83.02347 95.76747
#
# Poissons Ratio (x) = 0.33320 0.16297
# Poissons Ratio (y) = 0.34528 0.37373
# Poissons Ratio (z) = 0.14640 0.32400
#
# Static dielectric constant tensor:
#      x y z
#    x 3.837500 0.000000 0.000000 
#    y 0.000000 3.716090 0.000000 
#    z 0.000000 0.000000 3.824670 
# 
# 
# High freq. dielectric constant tensor:
#      x y z
#    x 1.808600 0.000000 0.000000 
#    y 0.000000 1.815690 0.000000 
#    z 0.000000 0.000000 1.818940 
# 
# From -- ./inp_files/13414.got.cif
#   From: 2010.03.12/outbox.cif.g09.slc.cpg/sg54_7_cif.got.tgz:13414.got - 2010.04.16 15:00:50.
