data_PCOD8222418
_publ_section_title
;
Structure prediction by ZEFSAII (Michael W. Deem and Ramdas Pophale) SiO2 
 PCOD8222418
Probable space group: P C C A
;
_chemical_formula_sum "Si O2"
_cell_formula_units_Z 44
_cell_length_a 25.988008
_cell_length_b 10.358848
_cell_length_c 8.723995
_cell_angle_alpha 90.000000
_cell_angle_beta 90.000000
_cell_angle_gamma 90.000000
_cell_volume 2348.550269
_symmetry_space_group_name_H-M "P C C A"
_symmetry_group_IT_number 54
_symmetry_cell_setting 'orthorhombic'
loop_
_space_group_symop_operation_xyz
x,y,z
1/2-x,-y,z
1/2+x,-y,1/2-z
-x,y,1/2-z
-x,-y,-z
1/2+x,y,-z
1/2-x,y,1/2+z
x,-y,1/2+z
loop_
_atom_site_type_symbol
_atom_site_label
_atom_site_fract_x
_atom_site_fract_y
_atom_site_fract_z
Si Si1 0.250000 0.500000 1.000000
Si Si2 0.603575 0.858499 0.068725
Si Si3 0.200617 0.252566 0.580865
Si Si4 0.200617 0.747434 0.419135
Si Si5 0.603575 0.858499 0.431275
Si Si6 0.500000 0.142938 0.432560
O O1 0.287225 0.593974 0.900970
O O2 0.287225 0.406026 0.099029
O O3 0.597584 0.868420 0.250000
O O4 0.651074 0.767615 0.025086
O O5 0.552190 0.791893 0.996875
O O6 0.613269 0.000000 0.000000
O O7 0.250000 0.183743 0.500000
O O8 0.191525 0.193404 0.750000
O O9 0.151074 0.767615 0.525085
O O10 0.552190 0.791893 0.503125
O O11 0.500000 0.143539 0.250000
O O12 0.500000 0.000000 0.500000
#
# Coordination Sequence:
#
# PCOD8222418 Si02
#       6
#     4   8   8   8   8   8
#     4   8  22  36  60  74 106 132 182 214 268 308
#     4  11  21  34  53  79 110 142 176 215 260 312
#     4  10  20  35  55  79 105 138 176 217 262 312
#     4  10  20  35  55  79 105 138 176 217 262 312
#     4  11  21  34  53  79 110 142 176 215 260 312
#     4  10  18  32  52  75 106 141 176 212 255 311
#
# _framework density 18.734961999999999
#
# number of rings (size 3 to 8) (size 9 to 14) (size 15 to 20)
#    1.091    0.727    0.000    8.727    0.000    0.727 
#    0.000    3.636    0.000    1.091    0.000    0.000 
#    0.000    0.000    0.000    0.000    0.000    0.000 
#
# Total GULP energy -545120.186646 kJ/mol
# GULP energy per Si atom -12389.095151 kJ/mol
# Density = 1.869232 g / cm^3
# Si number density = 18.734962 Si / 1000 Ang^3
#
#
#
# Elastic Constant Matrix: (Units=GPa)
#
#
# Indices 1 2 3 4 5 6 
#
# 1 181.2304 33.9957 66.5082 0.0000 0.0000 0.0000
# 2 33.9957 42.2580 17.7804 0.0000 0.0000 0.0000
# 3 66.5082 17.7804 188.8452 0.0000 0.0000 0.0000
# 4 0.0000 0.0000 0.0000 17.7490 0.0000 0.0000
# 5 0.0000 0.0000 0.0000 0.0000 34.6097 0.0000
# 6 0.0000 0.0000 0.0000 0.0000 0.0000 3.1411
#
#
#
# Elastic Compliance Matrix: (Units=1/GPa)
#
#
# Indices 1 2 3 4 5 6 
#
# 1 0.007202 -0.004921 -0.002073 0.000000 0.000000 0.000000
# 2 -0.004921 0.028003 -0.000903 0.000000 0.000000 0.000000
# 3 -0.002073 -0.000903 0.006110 0.000000 0.000000 0.000000
# 4 0.000000 0.000000 0.000000 0.056341 0.000000 0.000000
# 5 0.000000 0.000000 0.000000 0.000000 0.028894 0.000000
# 6 0.000000 0.000000 0.000000 0.000000 0.000000 0.318359
#
#
# Mechanical properties :
#
#
# Convention : Reuss Voigt Hill
#
# Bulk Modulus (GPa) = 39.18477 72.10025 55.64251
# Shear Modulus (GPa) = 10.65617 30.70324 20.67971
#
# Velocity S-wave (km/s) = 2.38751 4.05263 3.32596
# Velocity P-wave (km/s) = 5.34425 7.77601 6.67185
#
# Compressibility (1/GPa) = 0.02552012
#
# Stress axis : x y z
#
# Youngs Moduli (GPa) = 138.85498 35.70985 163.65374
#
# Poissons Ratio (x) = 0.17574 0.33925
# Poissons Ratio (y) = 0.68337 0.14784
# Poissons Ratio (z) = 0.28784 0.03226
#
# Static dielectric constant tensor:
#      x y z
#    x 4.050870 0.000000 0.000000 
#    y 0.000000 2.880770 0.000000 
#    z 0.000000 0.000000 3.453170 
# 
# 
# High freq. dielectric constant tensor:
#      x y z
#    x 1.744840 0.000000 0.000000 
#    y 0.000000 1.664460 0.000000 
#    z 0.000000 0.000000 1.747040 
# 
# From -- ./inp_files/5113.got.cif
#   From: 2010.03.12/outbox.cif.g09.slc.cpg/sg54_3_cif.got.tgz:5113.got - 2010.04.16 15:00:50.
