data_PCOD8222937
_publ_section_title
;
Structure prediction by ZEFSAII (Michael W. Deem and Ramdas Pophale) SiO2 
 PCOD8222937
Probable space group: P C C A
;
_chemical_formula_sum "Si O2"
_cell_formula_units_Z 36
_cell_length_a 8.064869
_cell_length_b 9.621752
_cell_length_c 23.014820
_cell_angle_alpha 90.000000
_cell_angle_beta 90.000000
_cell_angle_gamma 90.000000
_cell_volume 1785.907902
_symmetry_space_group_name_H-M "P C C A"
_symmetry_group_IT_number 54
_symmetry_cell_setting 'orthorhombic'
loop_
_space_group_symop_operation_xyz
x,y,z
1/2-x,-y,z
1/2+x,-y,1/2-z
-x,y,1/2-z
-x,-y,-z
1/2+x,y,-z
1/2-x,y,1/2+z
x,-y,1/2+z
loop_
_atom_site_type_symbol
_atom_site_label
_atom_site_fract_x
_atom_site_fract_y
_atom_site_fract_z
Si Si1 0.750000 0.000000 0.177373
Si Si2 0.817246 0.731052 0.737707
Si Si3 0.750000 0.500000 0.328837
Si Si4 0.043301 0.128447 0.422094
Si Si5 0.593580 0.577815 0.125451
Si Si6 0.750000 0.000000 0.978874
O O1 0.792884 0.865370 0.217985
O O2 0.598481 0.959421 0.134644
O O3 0.744588 0.644745 0.792204
O O4 0.831244 0.618538 0.687404
O O5 0.000000 0.792635 0.750000
O O6 0.579898 0.492994 0.366742
O O7 0.053117 0.291181 0.413480
O O8 0.854580 0.092739 0.434725
O O9 0.145241 0.100532 0.480341
O O10 0.750000 0.500000 0.094734
#
# Coordination Sequence:
#
# PCOD8222937 Si02
#       6
#     4   8   4   8   8   4
#     4   9  18  36  55  84 120 146 193 248 284 335
#     4   9  18  35  53  80 117 156 199 234 278 339
#     4  10  20  38  58  80 116 170 198 224 294 340
#     4   9  19  38  62  87 113 148 193 243 310 355
#     4  10  20  38  57  84 119 153 196 246 284 359
#     4   9  18  40  65  82 112 150 185 248 308 381
#
# _framework density 20.157813000000001
#
# number of rings (size 3 to 8) (size 9 to 14) (size 15 to 20)
#    0.000    2.667    1.111    0.000    0.000    0.000 
#   24.000    8.889    0.000    0.000    0.000    0.000 
#    0.000    0.000    0.000    0.000    0.000    0.000 
#
# Total GULP energy -446036.332207 kJ/mol
# GULP energy per Si atom -12389.898117 kJ/mol
# Density = 2.011193 g / cm^3
# Si number density = 20.157813 Si / 1000 Ang^3
#
#
#
# Elastic Constant Matrix: (Units=GPa)
#
#
# Indices 1 2 3 4 5 6 
#
# 1 142.0429 85.5411 40.8516 0.0000 0.0000 0.0000
# 2 85.5411 130.8092 48.5048 0.0000 0.0000 0.0000
# 3 40.8516 48.5048 54.6034 0.0000 0.0000 0.0000
# 4 0.0000 0.0000 0.0000 11.4208 0.0000 0.0000
# 5 0.0000 0.0000 0.0000 0.0000 4.4494 0.0000
# 6 0.0000 0.0000 0.0000 0.0000 0.0000 25.6822
#
#
#
# Elastic Compliance Matrix: (Units=1/GPa)
#
#
# Indices 1 2 3 4 5 6 
#
# 1 0.011929 -0.006698 -0.002975 0.000000 0.000000 0.000000
# 2 -0.006698 0.015160 -0.008456 0.000000 0.000000 0.000000
# 3 -0.002975 -0.008456 0.028051 0.000000 0.000000 0.000000
# 4 0.000000 0.000000 0.000000 0.087559 0.000000 0.000000
# 5 0.000000 0.000000 0.000000 0.000000 0.224749 0.000000
# 6 0.000000 0.000000 0.000000 0.000000 0.000000 0.038938
#
#
# Mechanical properties :
#
#
# Convention : Reuss Voigt Hill
#
# Bulk Modulus (GPa) = 52.95813 75.25006 64.10409
# Shear Modulus (GPa) = 11.13737 18.48101 14.80919
#
# Velocity S-wave (km/s) = 2.35310 3.03118 2.71341
# Velocity P-wave (km/s) = 5.80617 7.04715 6.45654
#
# Compressibility (1/GPa) = 0.01888284
#
# Stress axis : x y z
#
# Youngs Moduli (GPa) = 83.82662 65.96195 35.64892
#
# Poissons Ratio (x) = 0.44180 0.10606
# Poissons Ratio (y) = 0.56146 0.30145
# Poissons Ratio (z) = 0.24940 0.55778
#
# Static dielectric constant tensor:
#      x y z
#    x 3.796140 0.000000 0.000000 
#    y 0.000000 3.597950 0.000000 
#    z 0.000000 0.000000 3.561680 
# 
# 
# High freq. dielectric constant tensor:
#      x y z
#    x 1.782190 0.000000 0.000000 
#    y 0.000000 1.783360 0.000000 
#    z 0.000000 0.000000 1.767530 
# 
# From -- ./inp_files/25692.got.cif
#   From: 2010.03.12/outbox.cif.g09.slc.cpg/sg54_13_cif.got.tgz:25692.got - 2010.04.16 15:00:50.
