data_PCOD8222156
_publ_section_title
;
Structure prediction by ZEFSAII (Michael W. Deem and Ramdas Pophale) SiO2 
 PCOD8222156
Probable space group: P M N A
;
_chemical_formula_sum "Si O2"
_cell_formula_units_Z 48
_cell_length_a 8.908070
_cell_length_b 9.518662
_cell_length_c 27.453020
_cell_angle_alpha 90.000000
_cell_angle_beta 90.000000
_cell_angle_gamma 90.000000
_cell_volume 2327.821383
_symmetry_space_group_name_H-M "P M N A"
_symmetry_group_IT_number 53
_symmetry_cell_setting 'orthorhombic'
loop_
_space_group_symop_operation_xyz
x,y,z
1/2-x,-y,1/2+z
x,-y,-z
1/2-x,y,1/2-z
-x,-y,-z
1/2+x,y,1/2-z
-x,y,z
1/2+x,-y,1/2+z
loop_
_atom_site_type_symbol
_atom_site_label
_atom_site_fract_x
_atom_site_fract_y
_atom_site_fract_z
Si Si1 0.330077 0.981473 0.140965
Si Si2 0.825040 0.099398 0.954584
Si Si3 0.327471 0.510814 0.641611
Si Si4 0.669597 0.711898 0.202632
Si Si5 0.323556 0.597976 0.045451
Si Si6 0.826957 0.785182 0.799808
O O1 0.500000 0.034279 0.132563
O O2 0.239990 0.986899 0.090829
O O3 0.328495 0.821527 0.158718
O O4 0.251944 0.073854 0.182141
O O5 0.748459 0.249743 0.962202
O O6 0.000000 0.125769 0.946174
O O7 0.792198 0.000000 0.000000
O O8 0.500000 0.469278 0.632816
O O9 0.262161 0.423552 0.686512
O O10 0.236031 0.482135 0.592775
O O11 0.309990 0.672434 0.656951
O O12 0.750000 0.776827 0.250000
O O13 0.500000 0.668202 0.215703
O O14 0.500000 0.619944 0.051394
O O15 0.282083 0.500000 0.000000
O O16 0.750000 0.732808 0.750000
O O17 0.000000 0.817047 0.788470
#
# Coordination Sequence:
#
# PCOD8222156 Si02
#       6
#     8   8   8   8   8   8
#     4  11  24  42  66  95 129 170 214 266 321 381
#     4  11  25  44  68  98 131 169 214 266 321 384
#     4  11  24  42  66  94 128 170 214 268 322 381
#     4  11  23  39  63  94 126 164 211 261 318 383
#     4  11  25  44  67  98 131 169 215 266 322 385
#     4  11  25  43  64  95 131 172 220 265 320 382
#
# _framework density 20.620139000000002
#
# number of rings (size 3 to 8) (size 9 to 14) (size 15 to 20)
#    0.000    1.000    1.667    4.000    2.333   10.000 
#    0.000    0.000    0.000    0.000    0.000    0.000 
#    0.000    0.000    0.000    0.000    0.000    0.000 
#
# Total GULP energy -595521.709100 kJ/mol
# GULP energy per Si atom -12406.702273 kJ/mol
# Density = 2.057321 g / cm^3
# Si number density = 20.620139 Si / 1000 Ang^3
#
#
#
# Elastic Constant Matrix: (Units=GPa)
#
#
# Indices 1 2 3 4 5 6 
#
# 1 138.5361 50.0483 67.3141 0.0000 0.0000 0.0000
# 2 50.0483 81.3793 31.6557 0.0000 0.0000 0.0000
# 3 67.3141 31.6557 128.9390 0.0000 0.0000 0.0000
# 4 0.0000 0.0000 0.0000 35.0300 0.0000 0.0000
# 5 0.0000 0.0000 0.0000 0.0000 38.5909 0.0000
# 6 0.0000 0.0000 0.0000 0.0000 0.0000 24.4701
#
#
#
# Elastic Compliance Matrix: (Units=1/GPa)
#
#
# Indices 1 2 3 4 5 6 
#
# 1 0.011347 -0.005168 -0.004655 0.000000 0.000000 0.000000
# 2 -0.005168 0.015939 -0.001215 0.000000 0.000000 0.000000
# 3 -0.004655 -0.001215 0.010484 0.000000 0.000000 0.000000
# 4 0.000000 0.000000 0.000000 0.028547 0.000000 0.000000
# 5 0.000000 0.000000 0.000000 0.000000 0.025913 0.000000
# 6 0.000000 0.000000 0.000000 0.000000 0.000000 0.040866
#
#
# Mechanical properties :
#
#
# Convention : Reuss Voigt Hill
#
# Bulk Modulus (GPa) = 63.71849 71.87675 67.79762
# Shear Modulus (GPa) = 31.17121 32.94060 32.05591
#
# Velocity S-wave (km/s) = 3.89226 4.00121 3.94711
# Velocity P-wave (km/s) = 7.15317 7.50196 7.32964
#
# Compressibility (1/GPa) = 0.01569403
#
# Stress axis : x y z
#
# Youngs Moduli (GPa) = 88.12745 62.73913 95.38078
#
# Poissons Ratio (x) = 0.32422 0.44402
# Poissons Ratio (y) = 0.45542 0.11592
# Poissons Ratio (z) = 0.41025 0.07625
#
# Static dielectric constant tensor:
#      x y z
#    x 3.961380 0.000000 0.000000 
#    y 0.000000 3.604810 0.000000 
#    z 0.000000 0.000000 3.752920 
# 
# 
# High freq. dielectric constant tensor:
#      x y z
#    x 1.826260 0.000000 0.000000 
#    y 0.000000 1.808360 0.000000 
#    z 0.000000 0.000000 1.818740 
# 
# From -- ./inp_files/37723.got.cif
#   From: 2010.03.12/outbox.cif.g09.slc.cpg/sg53_19_cif.got.tgz:37723.got - 2010.04.16 14:36:59.
