data_PCOD8222228
_publ_section_title
;
Structure prediction by ZEFSAII (Michael W. Deem and Ramdas Pophale) SiO2 
 PCOD8222228
Probable space group: P M N A
;
_chemical_formula_sum "Si O2"
_cell_formula_units_Z 20
_cell_length_a 26.699620
_cell_length_b 5.832188
_cell_length_c 5.072712
_cell_angle_alpha 90.000000
_cell_angle_beta 90.000000
_cell_angle_gamma 90.000000
_cell_volume 789.908526
_symmetry_space_group_name_H-M "P M N A"
_symmetry_group_IT_number 53
_symmetry_cell_setting 'orthorhombic'
loop_
_space_group_symop_operation_xyz
x,y,z
1/2-x,-y,1/2+z
x,-y,-z
1/2-x,y,1/2-z
-x,-y,-z
1/2+x,y,1/2-z
-x,y,z
1/2+x,-y,1/2+z
loop_
_atom_site_type_symbol
_atom_site_label
_atom_site_fract_x
_atom_site_fract_y
_atom_site_fract_z
Si Si1 0.000000 0.339967 0.248916
Si Si2 0.250000 0.844587 0.250000
Si Si3 0.327575 0.500000 0.000000
Si Si4 0.392450 0.855414 0.749602
O O1 0.000000 0.500000 0.500000
O O2 0.951901 0.178332 0.242763
O O3 0.000000 0.500000 0.000000
O O4 0.204795 0.684746 0.342493
O O5 0.267036 0.000000 0.500000
O O6 0.362808 0.615723 0.776019
O O7 0.374357 0.000000 0.500000
O O8 0.376215 0.000000 0.000000
#
# Coordination Sequence:
#
# PCOD8222228 Si02
#       4
#     4   4   4   8
#     4  12  24  50  78 113 165 208 249 320 385 459
#     4  12  30  56  82 114 158 206 266 332 410 466
#     4  12  30  53  82 116 160 203 270 332 394 470
#     4  12  28  49  80 117 159 209 261 314 392 466
#
# _framework density 25.319388
#
# number of rings (size 3 to 8) (size 9 to 14) (size 15 to 20)
#    0.000    0.000    2.000    6.000    0.000   16.000 
#    0.000    0.000    0.000    0.000    0.000    0.000 
#    0.000    0.000    0.000    0.000    0.000    0.000 
#
# Total GULP energy -248121.775619 kJ/mol
# GULP energy per Si atom -12406.088781 kJ/mol
# Density = 2.526176 g / cm^3
# Si number density = 25.319388 Si / 1000 Ang^3
#
#
#
# Elastic Constant Matrix: (Units=GPa)
#
#
# Indices 1 2 3 4 5 6 
#
# 1 167.3409 77.7835 43.0860 0.0000 0.0000 0.0000
# 2 77.7835 160.3448 90.7408 0.0000 0.0000 0.0000
# 3 43.0860 90.7408 220.5388 0.0000 0.0000 0.0000
# 4 0.0000 0.0000 0.0000 65.2243 0.0000 0.0000
# 5 0.0000 0.0000 0.0000 0.0000 16.2938 0.0000
# 6 0.0000 0.0000 0.0000 0.0000 0.0000 43.4592
#
#
#
# Elastic Compliance Matrix: (Units=1/GPa)
#
#
# Indices 1 2 3 4 5 6 
#
# 1 0.007716 -0.003767 0.000043 0.000000 0.000000 0.000000
# 2 -0.003767 0.009969 -0.003366 0.000000 0.000000 0.000000
# 3 0.000043 -0.003366 0.005911 0.000000 0.000000 0.000000
# 4 0.000000 0.000000 0.000000 0.015332 0.000000 0.000000
# 5 0.000000 0.000000 0.000000 0.000000 0.061373 0.000000
# 6 0.000000 0.000000 0.000000 0.000000 0.000000 0.023010
#
#
# Mechanical properties :
#
#
# Convention : Reuss Voigt Hill
#
# Bulk Modulus (GPa) = 106.21341 107.93835 107.07588
# Shear Modulus (GPa) = 35.55458 47.43640 41.49549
#
# Velocity S-wave (km/s) = 3.75139 4.33311 4.05270
# Velocity P-wave (km/s) = 7.79772 8.23151 8.01755
#
# Compressibility (1/GPa) = 0.00941501
#
# Stress axis : x y z
#
# Youngs Moduli (GPa) = 129.60285 100.31492 169.18095
#
# Poissons Ratio (x) = 0.37789 -0.00719
# Poissons Ratio (y) = 0.48822 0.56940
# Poissons Ratio (z) = -0.00551 0.33762
#
# Static dielectric constant tensor:
#      x y z
#    x 4.784900 0.000000 0.000000 
#    y 0.000000 4.882380 0.000000 
#    z 0.000000 0.000000 4.770840 
# 
# 
# High freq. dielectric constant tensor:
#      x y z
#    x 2.031480 0.000000 0.000000 
#    y 0.000000 2.026870 0.000000 
#    z 0.000000 0.000000 2.024550 
# 
# From -- ./inp_files/3983.got.cif
#   From: 2010.03.12/outbox.cif.g09.slc.cpg/sg53_2_cif.got.tgz:3983.got - 2010.04.16 14:36:59.
