data_PCOD8222086
_publ_section_title
;
Structure prediction by ZEFSAII (Michael W. Deem and Ramdas Pophale) SiO2 
 PCOD8222086
Probable space group: P M N A
;
_chemical_formula_sum "Si O2"
_cell_formula_units_Z 40
_cell_length_a 8.838215
_cell_length_b 13.650530
_cell_length_c 18.105266
_cell_angle_alpha 90.000000
_cell_angle_beta 90.000000
_cell_angle_gamma 90.000000
_cell_volume 2184.333697
_symmetry_space_group_name_H-M "P M N A"
_symmetry_group_IT_number 53
_symmetry_cell_setting 'orthorhombic'
loop_
_space_group_symop_operation_xyz
x,y,z
1/2-x,-y,1/2+z
x,-y,-z
1/2-x,y,1/2-z
-x,-y,-z
1/2+x,y,1/2-z
-x,y,z
1/2+x,-y,1/2+z
loop_
_atom_site_type_symbol
_atom_site_label
_atom_site_fract_x
_atom_site_fract_y
_atom_site_fract_z
Si Si1 0.826434 0.694423 0.175806
Si Si2 0.820939 0.202883 0.459310
Si Si3 0.820700 0.092868 0.169813
Si Si4 0.321217 0.888147 0.402419
Si Si5 0.323853 0.607338 0.477076
O O1 0.750000 0.655729 0.250000
O O2 0.764871 0.801131 0.151369
O O3 0.000000 0.704238 0.194984
O O4 0.795656 0.617030 0.110591
O O5 0.748226 0.178588 0.380244
O O6 0.759754 0.124293 0.518779
O O7 0.773488 0.313222 0.479081
O O8 0.000000 0.195280 0.454610
O O9 0.750000 0.102282 0.250000
O O10 0.000000 0.103732 0.174781
O O11 0.772514 0.989195 0.134629
O O12 0.500000 0.880936 0.417304
O O13 0.268384 0.500000 0.500000
O O14 0.500000 0.624741 0.496041
#
# Coordination Sequence:
#
# PCOD8222086 Si02
#       5
#     8   8   8   8   8
#     4   9  17  30  50  78 106 131 164 209 263 315
#     4  11  22  35  54  80 108 138 176 221 266 317
#     4  11  22  36  54  77 109 146 183 221 261 309
#     4   9  19  35  54  76 105 142 179 215 259 313
#     4   9  19  38  60  77  99 137 180 220 269 325
#
# _framework density 18.31222
#
# number of rings (size 3 to 8) (size 9 to 14) (size 15 to 20)
#    0.000    2.200    0.000    4.800    0.000    7.600 
#    0.000    1.000    0.000    2.400    0.000    0.000 
#    0.000    0.000    0.000    0.000    0.000    0.000 
#
# Total GULP energy -496089.009123 kJ/mol
# GULP energy per Si atom -12402.225228 kJ/mol
# Density = 1.827054 g / cm^3
# Si number density = 18.312220 Si / 1000 Ang^3
#
#
#
# Elastic Constant Matrix: (Units=GPa)
#
#
# Indices 1 2 3 4 5 6 
#
# 1 79.3051 34.4982 60.3462 0.0000 0.0000 0.0000
# 2 34.4982 78.6120 62.0142 0.0000 0.0000 0.0000
# 3 60.3462 62.0142 147.6242 0.0000 0.0000 0.0000
# 4 0.0000 0.0000 0.0000 20.2421 0.0000 0.0000
# 5 0.0000 0.0000 0.0000 0.0000 37.5171 0.0000
# 6 0.0000 0.0000 0.0000 0.0000 0.0000 -30.1218
#
#
#
# Elastic Compliance Matrix: (Units=1/GPa)
#
#
# Indices 1 2 3 4 5 6 
#
# 1 0.018852 -0.003281 -0.006328 0.000000 0.000000 0.000000
# 2 -0.003281 0.019597 -0.006891 0.000000 0.000000 0.000000
# 3 -0.006328 -0.006891 0.012256 0.000000 0.000000 0.000000
# 4 0.000000 0.000000 0.000000 0.049402 0.000000 0.000000
# 5 0.000000 0.000000 0.000000 0.000000 0.026654 0.000000
# 6 0.000000 0.000000 0.000000 0.000000 0.000000 -0.033199
#
#
# Mechanical properties :
#
#
# Convention : Reuss Voigt Hill
#
# Bulk Modulus (GPa) = 56.48434 68.80650 62.64542
# Shear Modulus (GPa) = 37.74621 15.43966 26.59294
#
# Velocity S-wave (km/s) = 4.54503 2.90683 3.81490
# Velocity P-wave (km/s) = 7.64560 6.99442 7.32725
#
# Compressibility (1/GPa) = 0.01770402
#
# Stress axis : x y z
#
# Youngs Moduli (GPa) = 53.04451 51.02928 81.59597
#
# Poissons Ratio (x) = 0.16743 0.51635
# Poissons Ratio (y) = 0.17404 0.56227
# Poissons Ratio (z) = 0.33567 0.35164
#
# Static dielectric constant tensor:
#      x y z
#    x 3.268980 0.000000 0.000000 
#    y 0.000000 3.325050 0.000000 
#    z 0.000000 0.000000 3.479490 
# 
# 
# High freq. dielectric constant tensor:
#      x y z
#    x 1.706640 0.000000 0.000000 
#    y 0.000000 1.696960 0.000000 
#    z 0.000000 0.000000 1.714560 
# 
# From -- ./inp_files/19883.got.cif
#   From: 2010.03.12/outbox.cif.g09.slc.cpg/sg53_10_cif.got.tgz:19883.got - 2010.04.16 14:36:59.
