data_PCOD8222938
_publ_section_title
;
Structure prediction by ZEFSAII (Michael W. Deem and Ramdas Pophale) SiO2 
 PCOD8222938
Probable space group: P C C A
;
_chemical_formula_sum "Si O2"
_cell_formula_units_Z 28
_cell_length_a 5.029283
_cell_length_b 11.154361
_cell_length_c 25.372773
_cell_angle_alpha 90.000000
_cell_angle_beta 90.000000
_cell_angle_gamma 90.000000
_cell_volume 1423.372937
_symmetry_space_group_name_H-M "P C C A"
_symmetry_group_IT_number 54
_symmetry_cell_setting 'orthorhombic'
loop_
_space_group_symop_operation_xyz
x,y,z
1/2-x,-y,z
1/2+x,-y,1/2-z
-x,y,1/2-z
-x,-y,-z
1/2+x,y,-z
1/2-x,y,1/2+z
x,-y,1/2+z
loop_
_atom_site_type_symbol
_atom_site_label
_atom_site_fract_x
_atom_site_fract_y
_atom_site_fract_z
Si Si1 0.750000 0.000000 0.214582
Si Si2 0.112217 0.255362 0.808867
Si Si3 0.830389 0.366788 0.475564
Si Si4 0.129848 0.372465 0.145572
O O1 0.804996 0.882112 0.179871
O O2 0.500000 0.965522 0.250000
O O3 0.363088 0.342304 0.821230
O O4 0.000000 0.275974 0.750000
O O5 0.863879 0.276769 0.846900
O O6 0.750000 0.500000 0.496369
O O7 0.549359 0.300752 0.487062
O O8 0.937860 0.370053 0.416066
O O9 0.250000 0.500000 0.164208
#
# Coordination Sequence:
#
# PCOD8222938 Si02
#       4
#     4   8   8   8
#     4  10  20  38  58  74  96 136 194 238 254 286
#     4  11  22  37  55  78 108 145 182 221 262 310
#     4   9  17  31  51  75 104 138 176 218 257 302
#     4  11  22  35  54  83 115 143 175 212 269 336
#
# _framework density 19.671583999999999
#
# number of rings (size 3 to 8) (size 9 to 14) (size 15 to 20)
#    0.000    1.714    0.000    6.857    0.000    6.857 
#    0.000    1.429    0.000    0.000    0.000   20.000 
#    0.000    0.000    0.000    0.000    0.000    0.000 
#
# Total GULP energy -346932.029991 kJ/mol
# GULP energy per Si atom -12390.429643 kJ/mol
# Density = 1.962681 g / cm^3
# Si number density = 19.671584 Si / 1000 Ang^3
#
#
#
# Elastic Constant Matrix: (Units=GPa)
#
#
# Indices 1 2 3 4 5 6 
#
# 1 171.0768 33.5624 48.7592 0.0000 0.0000 0.0000
# 2 33.5624 64.5289 39.6079 0.0000 0.0000 0.0000
# 3 48.7592 39.6079 74.6109 0.0000 0.0000 0.0000
# 4 0.0000 0.0000 0.0000 3.6994 0.0000 0.0000
# 5 0.0000 0.0000 0.0000 0.0000 40.6813 0.0000
# 6 0.0000 0.0000 0.0000 0.0000 0.0000 32.8175
#
#
#
# Elastic Compliance Matrix: (Units=1/GPa)
#
#
# Indices 1 2 3 4 5 6 
#
# 1 0.007254 -0.001280 -0.004061 0.000000 0.000000 0.000000
# 2 -0.001280 0.023213 -0.011486 0.000000 0.000000 0.000000
# 3 -0.004061 -0.011486 0.022154 0.000000 0.000000 0.000000
# 4 0.000000 0.000000 0.000000 0.270312 0.000000 0.000000
# 5 0.000000 0.000000 0.000000 0.000000 0.024581 0.000000
# 6 0.000000 0.000000 0.000000 0.000000 0.000000 0.030472
#
#
# Mechanical properties :
#
#
# Convention : Reuss Voigt Hill
#
# Bulk Modulus (GPa) = 52.72447 61.56396 57.14422
# Shear Modulus (GPa) = 11.96280 27.99213 19.97746
#
# Velocity S-wave (km/s) = 2.46870 3.77632 3.19023
# Velocity P-wave (km/s) = 5.91494 7.09774 6.53316
#
# Compressibility (1/GPa) = 0.01896652
#
# Stress axis : x y z
#
# Youngs Moduli (GPa) = 137.85679 43.07914 45.13804
#
# Poissons Ratio (x) = 0.05515 0.18330
# Poissons Ratio (y) = 0.17650 0.51846
# Poissons Ratio (z) = 0.55982 0.49482
#
# Static dielectric constant tensor:
#      x y z
#    x 4.236230 0.000000 0.000000 
#    y 0.000000 3.401270 0.000000 
#    z 0.000000 0.000000 3.299670 
# 
# 
# High freq. dielectric constant tensor:
#      x y z
#    x 1.809060 0.000000 0.000000 
#    y 0.000000 1.722020 0.000000 
#    z 0.000000 0.000000 1.745610 
# 
# From -- ./inp_files/25097.got.cif
#   From: 2010.03.12/outbox.cif.g09.slc.cpg/sg54_13_cif.got.tgz:25097.got - 2010.04.16 15:00:50.
