data_PCOD8222473
_publ_section_title
;
Structure prediction by ZEFSAII (Michael W. Deem and Ramdas Pophale) SiO2 
 PCOD8222473
Probable space group: P C C A
;
_chemical_formula_sum "Si O2"
_cell_formula_units_Z 64
_cell_length_a 18.303974
_cell_length_b 9.314795
_cell_length_c 19.108235
_cell_angle_alpha 90.000000
_cell_angle_beta 90.000000
_cell_angle_gamma 90.000000
_cell_volume 3257.911370
_symmetry_space_group_name_H-M "P C C A"
_symmetry_group_IT_number 54
_symmetry_cell_setting 'orthorhombic'
loop_
_space_group_symop_operation_xyz
x,y,z
1/2-x,-y,z
1/2+x,-y,1/2-z
-x,y,1/2-z
-x,-y,-z
1/2+x,y,-z
1/2-x,y,1/2+z
x,-y,1/2+z
loop_
_atom_site_type_symbol
_atom_site_label
_atom_site_fract_x
_atom_site_fract_y
_atom_site_fract_z
Si Si1 0.388174 0.346279 0.995549
Si Si2 0.465157 0.580069 0.358308
Si Si3 0.484792 0.000410 0.828698
Si Si4 0.142327 0.782715 0.799864
Si Si5 0.233744 0.166951 0.426889
Si Si6 0.399516 0.227669 0.649571
Si Si7 0.356230 0.665052 0.005337
Si Si8 0.513267 0.715300 0.589794
O O1 0.450919 0.373902 0.938319
O O2 0.335500 0.216832 0.972639
O O3 0.342453 0.493215 0.009262
O O4 0.428731 0.295966 0.066148
O O5 0.395318 0.627903 0.312662
O O6 0.541452 0.648147 0.332450
O O7 0.470936 0.408316 0.353033
O O8 0.500000 0.949936 0.750000
O O9 0.413683 0.099808 0.830251
O O10 0.554780 0.081624 0.861426
O O11 0.467600 0.865658 0.876197
O O12 0.217218 0.801838 0.844139
O O13 0.154794 0.794195 0.716350
O O14 0.301548 0.263321 0.450266
O O15 0.250000 0.000000 0.440224
O O16 0.349450 0.265400 0.582790
O O17 0.437398 0.696156 0.978811
#
# Coordination Sequence:
#
# PCOD8222473 Si02
#       8
#     8   8   8   8   8   8   8   8
#     4  10  20  37  57  87 122 147 189 251 295 341
#     4   9  16  33  57  89 115 147 186 234 293 348
#     4   9  20  33  53  85 122 152 185 242 295 339
#     4   9  20  38  56  81 117 160 195 235 285 363
#     4  11  24  39  59  82 113 159 204 236 298 356
#     4  10  18  35  58  85 116 150 194 233 292 346
#     4  11  21  37  61  89 117 156 192 243 301 351
#     4  11  19  33  60  91 123 143 192 251 290 340
#
# _framework density 19.644487000000002
#
# number of rings (size 3 to 8) (size 9 to 14) (size 15 to 20)
#    0.000    2.000    2.500    3.000    1.750    1.500 
#    0.000    0.625    2.750    4.500    0.000    0.000 
#    0.000    0.000    0.000    0.000    0.000    0.000 
#
# Total GULP energy -793416.302322 kJ/mol
# GULP energy per Si atom -12397.129724 kJ/mol
# Density = 1.959978 g / cm^3
# Si number density = 19.644487 Si / 1000 Ang^3
#
#
#
# Elastic Constant Matrix: (Units=GPa)
#
#
# Indices 1 2 3 4 5 6 
#
# 1 69.4145 31.1781 37.3327 0.0000 0.0000 0.0000
# 2 31.1781 120.8074 56.1455 0.0000 0.0000 0.0000
# 3 37.3327 56.1455 86.2655 0.0000 0.0000 0.0000
# 4 0.0000 0.0000 0.0000 20.5632 0.0000 0.0000
# 5 0.0000 0.0000 0.0000 0.0000 32.7512 0.0000
# 6 0.0000 0.0000 0.0000 0.0000 0.0000 24.5988
#
#
#
# Elastic Compliance Matrix: (Units=1/GPa)
#
#
# Indices 1 2 3 4 5 6 
#
# 1 0.018977 -0.001549 -0.007204 0.000000 0.000000 0.000000
# 2 -0.001549 0.011994 -0.007136 0.000000 0.000000 0.000000
# 3 -0.007204 -0.007136 0.019354 0.000000 0.000000 0.000000
# 4 0.000000 0.000000 0.000000 0.048631 0.000000 0.000000
# 5 0.000000 0.000000 0.000000 0.000000 0.030533 0.000000
# 6 0.000000 0.000000 0.000000 0.000000 0.000000 0.040652
#
#
# Mechanical properties :
#
#
# Convention : Reuss Voigt Hill
#
# Bulk Modulus (GPa) = 53.91896 58.42222 56.17059
# Shear Modulus (GPa) = 24.02683 25.70469 24.86576
#
# Velocity S-wave (km/s) = 3.50105 3.62123 3.56165
# Velocity P-wave (km/s) = 6.62194 6.87668 6.75051
#
# Compressibility (1/GPa) = 0.01854635
#
# Stress axis : x y z
#
# Youngs Moduli (GPa) = 52.69639 83.37649 51.66916
#
# Poissons Ratio (x) = 0.12919 0.37222
# Poissons Ratio (y) = 0.08165 0.36869
# Poissons Ratio (z) = 0.37962 0.59494
#
# Static dielectric constant tensor:
#      x y z
#    x 3.313660 0.000000 0.000000 
#    y 0.000000 3.604700 0.000000 
#    z 0.000000 0.000000 3.521820 
# 
# 
# High freq. dielectric constant tensor:
#      x y z
#    x 1.736960 0.000000 0.000000 
#    y 0.000000 1.767180 0.000000 
#    z 0.000000 0.000000 1.757140 
# 
# From -- ./inp_files/21937.got.cif
#   From: 2010.03.12/outbox.cif.g09.slc.cpg/sg54_11_cif.got.tgz:21937.got - 2010.04.16 15:00:50.
