data_PCOD8222868
_publ_section_title
;
Structure prediction by ZEFSAII (Michael W. Deem and Ramdas Pophale) SiO2 
 PCOD8222868
Probable space group: P C C A
;
_chemical_formula_sum "Si O2"
_cell_formula_units_Z 56
_cell_length_a 20.790169
_cell_length_b 8.761699
_cell_length_c 15.154742
_cell_angle_alpha 90.000000
_cell_angle_beta 90.000000
_cell_angle_gamma 90.000000
_cell_volume 2760.545414
_symmetry_space_group_name_H-M "P C C A"
_symmetry_group_IT_number 54
_symmetry_cell_setting 'orthorhombic'
loop_
_space_group_symop_operation_xyz
x,y,z
1/2-x,-y,z
1/2+x,-y,1/2-z
-x,y,1/2-z
-x,-y,-z
1/2+x,y,-z
1/2-x,y,1/2+z
x,-y,1/2+z
loop_
_atom_site_type_symbol
_atom_site_label
_atom_site_fract_x
_atom_site_fract_y
_atom_site_fract_z
Si Si1 0.064507 0.922565 0.529534
Si Si2 0.179243 0.980551 0.767046
Si Si3 0.850846 0.171809 0.897880
Si Si4 0.574394 0.396545 0.272230
Si Si5 0.620620 0.278968 0.831716
Si Si6 0.133579 0.770700 0.383973
Si Si7 0.229185 0.331033 0.022469
O O1 0.067060 0.834442 0.624161
O O2 0.079990 0.790426 0.458955
O O3 0.114389 0.062598 0.531887
O O4 0.000000 0.000000 0.500000
O O5 0.154030 0.808091 0.751248
O O6 0.250000 0.000000 0.808125
O O7 0.182363 0.067130 0.674380
O O8 0.132204 0.067360 0.833679
O O9 0.900694 0.292315 0.853582
O O10 0.794104 0.247163 0.952057
O O11 0.500000 0.361685 0.250000
O O12 0.583965 0.572881 0.296662
O O13 0.615709 0.363802 0.183969
O O14 0.676463 0.323692 0.900178
O O15 0.201557 0.735548 0.430828
O O16 0.250000 0.500000 0.002256
#
# Coordination Sequence:
#
# PCOD8222868 Si02
#       7
#     8   8   8   8   8   8   8
#     4  10  22  42  62  92 126 166 214 252 309 378
#     4  10  20  36  60  92 121 153 200 254 310 374
#     4  10  21  39  68  85 125 177 192 256 322 376
#     4  11  23  44  63  90 127 171 219 255 311 380
#     4  10  22  39  66  89 122 170 206 253 320 386
#     4  10  25  38  60  95 122 157 210 268 302 369
#     4  11  21  41  62  93 128 159 206 255 329 377
#
# _framework density 20.285845999999999
#
# number of rings (size 3 to 8) (size 9 to 14) (size 15 to 20)
#    0.000    1.714    2.857    0.857    2.000    2.286 
#    2.571    3.571    0.000    0.000    0.000    0.000 
#    0.000    0.000    0.000    0.000    0.000    0.000 
#
# Total GULP energy -694129.120474 kJ/mol
# GULP energy per Si atom -12395.162866 kJ/mol
# Density = 2.023967 g / cm^3
# Si number density = 20.285846 Si / 1000 Ang^3
#
#
#
# Elastic Constant Matrix: (Units=GPa)
#
#
# Indices 1 2 3 4 5 6 
#
# 1 108.8399 37.0917 39.2609 0.0000 0.0000 0.0000
# 2 37.0917 109.8872 38.4276 0.0000 0.0000 0.0000
# 3 39.2609 38.4276 83.1012 0.0000 0.0000 0.0000
# 4 0.0000 0.0000 0.0000 32.1041 0.0000 0.0000
# 5 0.0000 0.0000 0.0000 0.0000 41.4365 0.0000
# 6 0.0000 0.0000 0.0000 0.0000 0.0000 37.4135
#
#
#
# Elastic Compliance Matrix: (Units=1/GPa)
#
#
# Indices 1 2 3 4 5 6 
#
# 1 0.011574 -0.002379 -0.004368 0.000000 0.000000 0.000000
# 2 -0.002379 0.011345 -0.004122 0.000000 0.000000 0.000000
# 3 -0.004368 -0.004122 0.016003 0.000000 0.000000 0.000000
# 4 0.000000 0.000000 0.000000 0.031149 0.000000 0.000000
# 5 0.000000 0.000000 0.000000 0.000000 0.024133 0.000000
# 6 0.000000 0.000000 0.000000 0.000000 0.000000 0.026728
#
#
# Mechanical properties :
#
#
# Convention : Reuss Voigt Hill
#
# Bulk Modulus (GPa) = 58.19437 59.04318 58.61878
# Shear Modulus (GPa) = 33.69293 34.66071 34.17682
#
# Velocity S-wave (km/s) = 4.07985 4.13802 4.10904
# Velocity P-wave (km/s) = 7.13744 7.21109 7.17436
#
# Compressibility (1/GPa) = 0.01718379
#
# Stress axis : x y z
#
# Youngs Moduli (GPa) = 86.39837 88.14599 62.48733
#
# Poissons Ratio (x) = 0.20973 0.27294
# Poissons Ratio (y) = 0.20557 0.25757
# Poissons Ratio (z) = 0.37739 0.36333
#
# Static dielectric constant tensor:
#      x y z
#    x 3.660280 0.000000 0.000000 
#    y 0.000000 3.529380 0.000000 
#    z 0.000000 0.000000 3.795850 
# 
# 
# High freq. dielectric constant tensor:
#      x y z
#    x 1.785190 0.000000 0.000000 
#    y 0.000000 1.798460 0.000000 
#    z 0.000000 0.000000 1.790790 
# 
# From -- ./inp_files/14700.got.cif
#   From: 2010.03.12/outbox.cif.g09.slc.cpg/sg54_8_cif.got.tgz:14700.got - 2010.04.16 15:00:50.
