data_PCOD8222488
_publ_section_title
;
Structure prediction by ZEFSAII (Michael W. Deem and Ramdas Pophale) SiO2 
 PCOD8222488
Probable space group: P C C A
;
_chemical_formula_sum "Si O2"
_cell_formula_units_Z 36
_cell_length_a 13.922849
_cell_length_b 5.544169
_cell_length_c 20.735604
_cell_angle_alpha 90.000000
_cell_angle_beta 90.000000
_cell_angle_gamma 90.000000
_cell_volume 1600.594291
_symmetry_space_group_name_H-M "P C C A"
_symmetry_group_IT_number 54
_symmetry_cell_setting 'orthorhombic'
loop_
_space_group_symop_operation_xyz
x,y,z
1/2-x,-y,z
1/2+x,-y,1/2-z
-x,y,1/2-z
-x,-y,-z
1/2+x,y,-z
1/2-x,y,1/2+z
x,-y,1/2+z
loop_
_atom_site_type_symbol
_atom_site_label
_atom_site_fract_x
_atom_site_fract_y
_atom_site_fract_z
Si Si1 0.943136 0.890743 0.098024
Si Si2 0.923980 0.256334 0.463038
Si Si3 0.250000 0.000000 0.085221
Si Si4 0.250000 0.000000 0.826877
Si Si5 0.618867 0.364038 0.357210
Si Si6 0.250000 0.500000 0.248354
O O1 0.843008 0.956295 0.129614
O O2 0.020106 0.790142 0.150890
O O3 0.936213 0.689624 0.039717
O O4 0.980296 0.139466 0.066813
O O5 0.892327 0.483443 0.422045
O O6 0.838430 0.062603 0.460633
O O7 0.284685 0.208522 0.133179
O O8 0.260350 0.250320 0.787868
O O9 0.648615 0.502631 0.291937
#
# Coordination Sequence:
#
# PCOD8222488 Si02
#       6
#     8   8   4   4   8   4
#     4  10  25  44  70 107 145 182 241 301 381 429
#     4  10  20  41  74 106 142 182 236 304 377 437
#     4  10  18  36  66 110 140 182 230 296 362 428
#     4  12  30  54  68 110 152 198 244 306 356 442
#     4  11  22  43  72 107 137 195 244 302 353 443
#     4  12  28  50  74 100 148 200 256 288 358 432
#
# _framework density 22.491644999999998
#
# number of rings (size 3 to 8) (size 9 to 14) (size 15 to 20)
#    0.000    1.333    2.222    2.000    6.222    0.889 
#    4.000    0.000    0.000    0.000    0.000    0.000 
#    0.000    0.000    0.000    0.000    0.000    0.000 
#
# Total GULP energy -446048.936986 kJ/mol
# GULP energy per Si atom -12390.248250 kJ/mol
# Density = 2.244045 g / cm^3
# Si number density = 22.491645 Si / 1000 Ang^3
#
#
#
# Elastic Constant Matrix: (Units=GPa)
#
#
# Indices 1 2 3 4 5 6 
#
# 1 173.0729 47.6522 86.1970 0.0000 0.0000 0.0000
# 2 47.6522 123.2464 66.0813 0.0000 0.0000 0.0000
# 3 86.1970 66.0813 123.2473 0.0000 0.0000 0.0000
# 4 0.0000 0.0000 0.0000 10.0630 0.0000 0.0000
# 5 0.0000 0.0000 0.0000 0.0000 36.8607 0.0000
# 6 0.0000 0.0000 0.0000 0.0000 0.0000 33.4204
#
#
#
# Elastic Compliance Matrix: (Units=1/GPa)
#
#
# Indices 1 2 3 4 5 6 
#
# 1 0.008868 -0.000145 -0.006124 0.000000 0.000000 0.000000
# 2 -0.000145 0.011390 -0.006005 0.000000 0.000000 0.000000
# 3 -0.006124 -0.006005 0.015617 0.000000 0.000000 0.000000
# 4 0.000000 0.000000 0.000000 0.099374 0.000000 0.000000
# 5 0.000000 0.000000 0.000000 0.000000 0.027129 0.000000
# 6 0.000000 0.000000 0.000000 0.000000 0.000000 0.029922
#
#
# Mechanical properties :
#
#
# Convention : Reuss Voigt Hill
#
# Bulk Modulus (GPa) = 88.29906 91.04750 89.67328
# Shear Modulus (GPa) = 22.66298 30.71124 26.68711
#
# Velocity S-wave (km/s) = 3.17774 3.69921 3.44835
# Velocity P-wave (km/s) = 7.26690 7.66903 7.47067
#
# Compressibility (1/GPa) = 0.01132515
#
# Stress axis : x y z
#
# Youngs Moduli (GPa) = 112.76486 87.79751 64.03296
#
# Poissons Ratio (x) = 0.01273 0.39216
# Poissons Ratio (y) = 0.01635 0.38455
# Poissons Ratio (z) = 0.69061 0.52726
#
# Static dielectric constant tensor:
#      x y z
#    x 4.334470 0.000000 0.000000 
#    y 0.000000 4.335460 0.000000 
#    z 0.000000 0.000000 4.058030 
# 
# 
# High freq. dielectric constant tensor:
#      x y z
#    x 1.902640 0.000000 0.000000 
#    y 0.000000 1.891040 0.000000 
#    z 0.000000 0.000000 1.870940 
# 
# From -- ./inp_files/21372.got.cif
#   From: 2010.03.12/outbox.cif.g09.slc.cpg/sg54_11_cif.got.tgz:21372.got - 2010.04.16 15:00:50.
