data_PCOD8222002
_publ_section_title
;
Structure prediction by ZEFSAII (Michael W. Deem and Ramdas Pophale) SiO2 
 PCOD8222002
Probable space group: P M N A
;
_chemical_formula_sum "Si O2"
_cell_formula_units_Z 48
_cell_length_a 8.863917
_cell_length_b 14.991264
_cell_length_c 20.376902
_cell_angle_alpha 90.000000
_cell_angle_beta 90.000000
_cell_angle_gamma 90.000000
_cell_volume 2707.709632
_symmetry_space_group_name_H-M "P M N A"
_symmetry_group_IT_number 53
_symmetry_cell_setting 'orthorhombic'
loop_
_space_group_symop_operation_xyz
x,y,z
1/2-x,-y,1/2+z
x,-y,-z
1/2-x,y,1/2-z
-x,-y,-z
1/2+x,y,1/2-z
-x,y,z
1/2+x,-y,1/2+z
loop_
_atom_site_type_symbol
_atom_site_label
_atom_site_fract_x
_atom_site_fract_y
_atom_site_fract_z
Si Si1 0.830562 0.301200 0.842506
Si Si2 0.669252 0.727661 0.491950
Si Si3 0.177619 0.879785 0.316725
Si Si4 0.677341 0.499182 0.685126
Si Si5 0.178398 0.921253 0.048097
Si Si6 0.176852 0.569189 0.555376
O O1 0.715129 0.225557 0.819127
O O2 0.777087 0.395018 0.813716
O O3 0.000000 0.274229 0.819687
O O4 0.828405 0.314441 0.920140
O O5 0.500000 0.723248 0.521396
O O6 0.726454 0.829763 0.487941
O O7 0.781847 0.670603 0.536603
O O8 0.250000 0.920558 0.250000
O O9 0.243248 0.930038 0.380809
O O10 0.000000 0.894257 0.315000
O O11 0.750000 0.542964 0.750000
O O12 0.500000 0.512539 0.685646
O O13 0.742060 0.549123 0.622868
O O14 0.000000 0.922131 0.060986
O O15 0.231328 0.000000 0.000000
O O16 0.234326 0.500000 0.500000
O O17 0.000000 0.560279 0.565605
#
# Coordination Sequence:
#
# PCOD8222002 Si02
#       6
#     8   8   8   8   8   8
#     4   9  18  32  50  74 104 139 175 212 261 317
#     4   9  17  32  54  79 104 136 175 214 262 312
#     4  11  21  32  50  76 109 143 176 214 261 319
#     4  11  22  35  51  72 103 141 181 225 270 317
#     4   9  19  37  59  82 109 139 174 218 270 324
#     4  11  22  34  51  76 106 141 182 220 257 307
#
# _framework density 17.727159
#
# number of rings (size 3 to 8) (size 9 to 14) (size 15 to 20)
#    0.000    2.000    1.667    4.000    0.000    6.333 
#    0.000    0.000    0.000    1.000    0.000    4.667 
#    0.000    0.000    0.000    0.000    0.000    0.000 
#
# Total GULP energy -595207.384618 kJ/mol
# GULP energy per Si atom -12400.153846 kJ/mol
# Density = 1.768681 g / cm^3
# Si number density = 17.727159 Si / 1000 Ang^3
#
#
#
# Elastic Constant Matrix: (Units=GPa)
#
#
# Indices 1 2 3 4 5 6 
#
# 1 77.2507 40.1838 52.1004 0.0000 0.0000 0.0000
# 2 40.1838 78.4083 64.5685 0.0000 0.0000 0.0000
# 3 52.1004 64.5685 133.1959 0.0000 0.0000 0.0000
# 4 0.0000 0.0000 0.0000 12.5922 0.0000 0.0000
# 5 0.0000 0.0000 0.0000 0.0000 32.0686 0.0000
# 6 0.0000 0.0000 0.0000 0.0000 0.0000 19.2757
#
#
#
# Elastic Compliance Matrix: (Units=1/GPa)
#
#
# Indices 1 2 3 4 5 6 
#
# 1 0.019179 -0.006077 -0.004556 0.000000 0.000000 0.000000
# 2 -0.006077 0.023154 -0.008847 0.000000 0.000000 0.000000
# 3 -0.004556 -0.008847 0.013578 0.000000 0.000000 0.000000
# 4 0.000000 0.000000 0.000000 0.079414 0.000000 0.000000
# 5 0.000000 0.000000 0.000000 0.000000 0.031183 0.000000
# 6 0.000000 0.000000 0.000000 0.000000 0.000000 0.051879
#
#
# Mechanical properties :
#
#
# Convention : Reuss Voigt Hill
#
# Bulk Modulus (GPa) = 58.99428 66.95115 62.97271
# Shear Modulus (GPa) = 19.01161 21.58745 20.29953
#
# Velocity S-wave (km/s) = 3.27839 3.49343 3.38762
# Velocity P-wave (km/s) = 6.90520 7.35674 7.13454
#
# Compressibility (1/GPa) = 0.01695080
#
# Stress axis : x y z
#
# Youngs Moduli (GPa) = 52.14108 43.18973 73.64628
#
# Poissons Ratio (x) = 0.26248 0.33552
# Poissons Ratio (y) = 0.31688 0.65154
# Poissons Ratio (z) = 0.23755 0.38209
#
# Static dielectric constant tensor:
#      x y z
#    x 3.222950 0.000000 0.000000 
#    y 0.000000 3.098550 0.000000 
#    z 0.000000 0.000000 3.360530 
# 
# 
# High freq. dielectric constant tensor:
#      x y z
#    x 1.687540 0.000000 0.000000 
#    y 0.000000 1.652760 0.000000 
#    z 0.000000 0.000000 1.688190 
# 
# From -- ./inp_files/30539.got.cif
#   From: 2010.03.12/outbox.cif.g09.slc.cpg/sg53_16_cif.got.tgz:30539.got - 2010.04.16 14:36:59.
