data_PCOD8222820
_publ_section_title
;
Structure prediction by ZEFSAII (Michael W. Deem and Ramdas Pophale) SiO2 
 PCOD8222820
Probable space group: P C C A
;
_chemical_formula_sum "Si O2"
_cell_formula_units_Z 60
_cell_length_a 15.531018
_cell_length_b 14.482993
_cell_length_c 13.115078
_cell_angle_alpha 90.000000
_cell_angle_beta 90.000000
_cell_angle_gamma 90.000000
_cell_volume 2950.048267
_symmetry_space_group_name_H-M "P C C A"
_symmetry_group_IT_number 54
_symmetry_cell_setting 'orthorhombic'
loop_
_space_group_symop_operation_xyz
x,y,z
1/2-x,-y,z
1/2+x,-y,1/2-z
-x,y,1/2-z
-x,-y,-z
1/2+x,y,-z
1/2-x,y,1/2+z
x,-y,1/2+z
loop_
_atom_site_type_symbol
_atom_site_label
_atom_site_fract_x
_atom_site_fract_y
_atom_site_fract_z
Si Si1 0.691351 0.914527 0.965706
Si Si2 0.079884 0.050882 0.121449
Si Si3 0.797729 0.630697 0.081453
Si Si4 0.250000 0.500000 0.597223
Si Si5 0.105927 0.111530 0.335870
Si Si6 0.827795 0.222197 0.433627
Si Si7 0.140334 0.691090 0.782530
Si Si8 0.902368 0.508332 0.235867
O O1 0.728976 0.817333 0.926173
O O2 0.750000 0.000000 0.933372
O O3 0.600047 0.945840 0.915664
O O4 0.683107 0.909275 0.087664
O O5 0.131684 0.073328 0.225856
O O6 0.111025 0.133483 0.047497
O O7 0.978371 0.057082 0.130215
O O8 0.729723 0.667950 0.162726
O O9 0.861471 0.560332 0.138572
O O10 0.755578 0.586684 0.979406
O O11 0.846610 0.719386 0.035978
O O12 0.163895 0.485612 0.667487
O O13 0.089964 0.222787 0.333430
O O14 0.842990 0.284955 0.335177
O O15 0.083145 0.599230 0.791975
O O16 0.000000 0.548524 0.250000
#
# Coordination Sequence:
#
# PCOD8222820 Si02
#       8
#     8   8   8   4   8   8   8   8
#     4  10  20  36  58  87 113 152 200 247 310 378
#     4   9  21  37  54  87 122 148 201 254 303 374
#     4  12  21  43  63  88 125 171 213 265 335 383
#     4  12  22  44  66  88 130 170 214 276 324 396
#     4  10  20  35  61  83 115 163 193 248 313 377
#     4  10  21  37  60  89 116 160 206 255 307 385
#     4  11  21  38  63  89 125 162 213 264 321 387
#     4  12  26  41  64  97 130 171 221 277 334 394
#
# _framework density 20.338650999999999
#
# number of rings (size 3 to 8) (size 9 to 14) (size 15 to 20)
#    0.000    1.333    5.333    0.400    3.733    3.200 
#    2.400    0.000    0.000    0.000    0.000    0.000 
#    0.000    0.000    0.000    0.000    0.000    0.000 
#
# Total GULP energy -743285.880440 kJ/mol
# GULP energy per Si atom -12388.098007 kJ/mol
# Density = 2.029236 g / cm^3
# Si number density = 20.338651 Si / 1000 Ang^3
#
#
#
# Elastic Constant Matrix: (Units=GPa)
#
#
# Indices 1 2 3 4 5 6 
#
# 1 70.3958 10.3734 27.8226 0.0000 0.0000 0.0000
# 2 10.3734 84.8904 31.1416 0.0000 0.0000 0.0000
# 3 27.8226 31.1416 66.0611 0.0000 0.0000 0.0000
# 4 0.0000 0.0000 0.0000 34.5907 0.0000 0.0000
# 5 0.0000 0.0000 0.0000 0.0000 26.8857 0.0000
# 6 0.0000 0.0000 0.0000 0.0000 0.0000 24.8950
#
#
#
# Elastic Compliance Matrix: (Units=1/GPa)
#
#
# Indices 1 2 3 4 5 6 
#
# 1 0.017073 0.000667 -0.007505 0.000000 0.000000 0.000000
# 2 0.000667 0.014269 -0.007007 0.000000 0.000000 0.000000
# 3 -0.007505 -0.007007 0.021602 0.000000 0.000000 0.000000
# 4 0.000000 0.000000 0.000000 0.028910 0.000000 0.000000
# 5 0.000000 0.000000 0.000000 0.000000 0.037195 0.000000
# 6 0.000000 0.000000 0.000000 0.000000 0.000000 0.040169
#
#
# Mechanical properties :
#
#
# Convention : Reuss Voigt Hill
#
# Bulk Modulus (GPa) = 39.59935 40.00251 39.80093
# Shear Modulus (GPa) = 25.59828 27.40825 26.50327
#
# Velocity S-wave (km/s) = 3.55153 3.67494 3.61376
# Velocity P-wave (km/s) = 6.02744 6.14149 6.08473
#
# Compressibility (1/GPa) = 0.02525294
#
# Stress axis : x y z
#
# Youngs Moduli (GPa) = 58.57075 70.08192 46.29263
#
# Poissons Ratio (x) = -0.04674 0.34743
# Poissons Ratio (y) = -0.03906 0.32439
# Poissons Ratio (z) = 0.43958 0.49109
#
# Static dielectric constant tensor:
#      x y z
#    x 3.597490 0.000000 0.000000 
#    y 0.000000 4.011310 0.000000 
#    z 0.000000 0.000000 3.846350 
# 
# 
# High freq. dielectric constant tensor:
#      x y z
#    x 1.774470 0.000000 0.000000 
#    y 0.000000 1.801220 0.000000 
#    z 0.000000 0.000000 1.797550 
# 
# From -- ./inp_files/13603.got.cif
#   From: 2010.03.12/outbox.cif.g09.slc.cpg/sg54_7_cif.got.tgz:13603.got - 2010.04.16 15:00:50.
