data_PCOD8222196
_publ_section_title
;
Structure prediction by ZEFSAII (Michael W. Deem and Ramdas Pophale) SiO2 
 PCOD8222196
Probable space group: P M N A
;
_chemical_formula_sum "Si O2"
_cell_formula_units_Z 32
_cell_length_a 12.419439
_cell_length_b 5.406871
_cell_length_c 18.505747
_cell_angle_alpha 90.000000
_cell_angle_beta 90.000000
_cell_angle_gamma 90.000000
_cell_volume 1242.666547
_symmetry_space_group_name_H-M "P M N A"
_symmetry_group_IT_number 53
_symmetry_cell_setting 'orthorhombic'
loop_
_space_group_symop_operation_xyz
x,y,z
1/2-x,-y,1/2+z
x,-y,-z
1/2-x,y,1/2-z
-x,-y,-z
1/2+x,y,1/2-z
-x,y,z
1/2+x,-y,1/2+z
loop_
_atom_site_type_symbol
_atom_site_label
_atom_site_fract_x
_atom_site_fract_y
_atom_site_fract_z
Si Si1 0.000000 0.355435 0.744230
Si Si2 0.208148 0.211186 0.674715
Si Si3 0.882880 0.828981 0.568228
Si Si4 0.826655 0.427905 0.076549
Si Si5 0.000000 0.157949 0.161256
O O1 0.895457 0.382256 0.692506
O O2 0.000000 0.597591 0.791491
O O3 0.000000 0.099624 0.794336
O O4 0.250000 0.103525 0.750000
O O5 0.308742 0.349041 0.634423
O O6 0.163324 0.974797 0.635475
O O7 0.795610 0.622883 0.552066
O O8 0.000000 0.712458 0.586478
O O9 0.895160 0.000000 0.500000
O O10 0.892483 0.195281 0.110897
O O11 0.884637 0.500000 0.000000
#
# Coordination Sequence:
#
# PCOD8222196 Si02
#       5
#     4   8   8   8   4
#     4  12  28  50  75 115 154 204 265 321 392 451
#     4  12  25  45  73 107 154 197 258 318 389 459
#     4  11  25  45  73 109 151 201 256 325 391 466
#     4  12  27  47  76 113 154 206 261 320 394 467
#     4  12  29  54  78 113 160 210 259 323 382 474
#
# _framework density 25.751073999999999
#
# number of rings (size 3 to 8) (size 9 to 14) (size 15 to 20)
#    0.000    0.250    6.250    1.875    5.250    1.500 
#    0.000    1.875    0.000    0.000    0.000    0.000 
#    0.000    0.000    0.000    0.000    0.000    0.000 
#
# Total GULP energy -396430.685119 kJ/mol
# GULP energy per Si atom -12388.458910 kJ/mol
# Density = 2.569246 g / cm^3
# Si number density = 25.751074 Si / 1000 Ang^3
#
#
#
# Elastic Constant Matrix: (Units=GPa)
#
#
# Indices 1 2 3 4 5 6 
#
# 1 132.1585 1.0049 13.5910 0.0000 0.0000 0.0000
# 2 1.0049 77.0659 18.8001 0.0000 0.0000 0.0000
# 3 13.5910 18.8001 134.7632 0.0000 0.0000 0.0000
# 4 0.0000 0.0000 0.0000 19.2334 0.0000 0.0000
# 5 0.0000 0.0000 0.0000 0.0000 31.4391 0.0000
# 6 0.0000 0.0000 0.0000 0.0000 0.0000 44.9133
#
#
#
# Elastic Compliance Matrix: (Units=1/GPa)
#
#
# Indices 1 2 3 4 5 6 
#
# 1 0.007647 0.000092 -0.000784 0.000000 0.000000 0.000000
# 2 0.000092 0.013434 -0.001883 0.000000 0.000000 0.000000
# 3 -0.000784 -0.001883 0.007762 0.000000 0.000000 0.000000
# 4 0.000000 0.000000 0.000000 0.051993 0.000000 0.000000
# 5 0.000000 0.000000 0.000000 0.000000 0.031807 0.000000
# 6 0.000000 0.000000 0.000000 0.000000 0.000000 0.022265
#
#
# Mechanical properties :
#
#
# Convention : Reuss Voigt Hill
#
# Bulk Modulus (GPa) = 42.20933 45.64218 43.92576
# Shear Modulus (GPa) = 33.79355 39.82327 36.80841
#
# Velocity S-wave (km/s) = 3.62652 3.93678 3.78483
# Velocity P-wave (km/s) = 5.82773 6.19897 6.01621
#
# Compressibility (1/GPa) = 0.02369144
#
# Stress axis : x y z
#
# Youngs Moduli (GPa) = 130.77720 74.43715 128.82908
#
# Poissons Ratio (x) = -0.00681 0.10099
# Poissons Ratio (y) = -0.01197 0.24263
# Poissons Ratio (z) = 0.10252 0.14019
#
# Static dielectric constant tensor:
#      x y z
#    x 6.376140 0.000000 0.000000 
#    y 0.000000 3.981570 0.000000 
#    z 0.000000 0.000000 4.881920 
# 
# 
# High freq. dielectric constant tensor:
#      x y z
#    x 2.053690 0.000000 0.000000 
#    y 0.000000 2.000870 0.000000 
#    z 0.000000 0.000000 2.053000 
# 
# From -- ./inp_files/27853.got.cif
#   From: 2010.03.12/outbox.cif.g09.slc.cpg/sg53_14_cif.got.tgz:27853.got - 2010.04.16 14:36:59.
