data_PCOD8222639
_publ_section_title
;
Structure prediction by ZEFSAII (Michael W. Deem and Ramdas Pophale) SiO2 
 PCOD8222639
Probable space group: P C C A
;
_chemical_formula_sum "Si O2"
_cell_formula_units_Z 56
_cell_length_a 19.821197
_cell_length_b 9.199717
_cell_length_c 15.002476
_cell_angle_alpha 90.000000
_cell_angle_beta 90.000000
_cell_angle_gamma 90.000000
_cell_volume 2735.692542
_symmetry_space_group_name_H-M "P C C A"
_symmetry_group_IT_number 54
_symmetry_cell_setting 'orthorhombic'
loop_
_space_group_symop_operation_xyz
x,y,z
1/2-x,-y,z
1/2+x,-y,1/2-z
-x,y,1/2-z
-x,-y,-z
1/2+x,y,-z
1/2-x,y,1/2+z
x,-y,1/2+z
loop_
_atom_site_type_symbol
_atom_site_label
_atom_site_fract_x
_atom_site_fract_y
_atom_site_fract_z
Si Si1 0.365411 0.802158 0.003529
Si Si2 0.473706 0.964088 0.096761
Si Si3 0.116858 0.828841 0.202549
Si Si4 0.118507 0.959075 0.856400
Si Si5 0.851587 0.383257 0.654804
Si Si6 0.244254 0.170276 0.138094
Si Si7 0.300290 0.303945 0.813980
O O1 0.381518 0.658329 0.943629
O O2 0.367307 0.942339 0.941202
O O3 0.418684 0.833609 0.084862
O O4 0.290608 0.790509 0.044629
O O5 0.538990 0.916071 0.153948
O O6 0.444378 0.112561 0.141940
O O7 0.500000 0.000000 0.000000
O O8 0.100978 0.692667 0.269080
O O9 0.178071 0.775371 0.138916
O O10 0.141164 0.961800 0.265589
O O11 0.163137 0.817375 0.872742
O O12 0.846451 0.553370 0.673066
O O13 0.776271 0.317365 0.653828
O O14 0.200227 0.256949 0.211084
O O15 0.250000 0.000000 0.156477
#
# Coordination Sequence:
#
# PCOD8222639 Si02
#       7
#     8   8   8   8   8   8   8
#     4  10  21  34  55  86 113 145 189 245 297 336
#     4  10  20  32  52  84 111 141 192 251 283 327
#     4  10  19  35  58  82 108 151 193 238 294 347
#     4  10  20  33  58  81 113 151 197 240 283 344
#     4   9  22  37  57  81 122 156 189 238 298 377
#     4  11  19  32  59  88 110 139 191 249 289 343
#     4  10  20  38  55  86 115 153 192 232 298 365
#
# _framework density 20.470136
#
# number of rings (size 3 to 8) (size 9 to 14) (size 15 to 20)
#    0.000    2.000    2.857    0.429    2.000    0.000 
#    0.000    9.286    0.000   18.857    0.000    0.000 
#    0.000    0.000    0.000    0.000    0.000    0.000 
#
# Total GULP energy -693814.031300 kJ/mol
# GULP energy per Si atom -12389.536273 kJ/mol
# Density = 2.042355 g / cm^3
# Si number density = 20.470136 Si / 1000 Ang^3
#
#
#
# Elastic Constant Matrix: (Units=GPa)
#
#
# Indices 1 2 3 4 5 6 
#
# 1 49.8416 -3.1533 18.3814 0.0000 0.0000 0.0000
# 2 -3.1533 91.8598 15.7010 0.0000 0.0000 0.0000
# 3 18.3814 15.7010 64.1296 0.0000 0.0000 0.0000
# 4 0.0000 0.0000 0.0000 16.8296 0.0000 0.0000
# 5 0.0000 0.0000 0.0000 0.0000 35.3275 0.0000
# 6 0.0000 0.0000 0.0000 0.0000 0.0000 19.8951
#
#
#
# Elastic Compliance Matrix: (Units=1/GPa)
#
#
# Indices 1 2 3 4 5 6 
#
# 1 0.022775 0.001980 -0.007013 0.000000 0.000000 0.000000
# 2 0.001980 0.011534 -0.003392 0.000000 0.000000 0.000000
# 3 -0.007013 -0.003392 0.018434 0.000000 0.000000 0.000000
# 4 0.000000 0.000000 0.000000 0.059419 0.000000 0.000000
# 5 0.000000 0.000000 0.000000 0.000000 0.028307 0.000000
# 6 0.000000 0.000000 0.000000 0.000000 0.000000 0.050264
#
#
# Mechanical properties :
#
#
# Convention : Reuss Voigt Hill
#
# Bulk Modulus (GPa) = 27.85904 29.74326 28.80115
# Shear Modulus (GPa) = 22.77437 26.07057 24.42247
#
# Velocity S-wave (km/s) = 3.33913 3.57261 3.45784
# Velocity P-wave (km/s) = 5.33906 5.61958 5.48112
#
# Compressibility (1/GPa) = 0.03589499
#
# Stress axis : x y z
#
# Youngs Moduli (GPa) = 43.90738 86.70152 54.24792
#
# Poissons Ratio (x) = -0.17171 0.38044
# Poissons Ratio (y) = -0.08696 0.18398
# Poissons Ratio (z) = 0.30792 0.29405
#
# Static dielectric constant tensor:
#      x y z
#    x 4.170760 0.000000 0.000000 
#    y 0.000000 3.533280 0.000000 
#    z 0.000000 0.000000 3.811190 
# 
# 
# High freq. dielectric constant tensor:
#      x y z
#    x 1.793590 0.000000 0.000000 
#    y 0.000000 1.761740 0.000000 
#    z 0.000000 0.000000 1.803360 
# 
# From -- ./inp_files/14678.got.cif
#   From: 2010.03.12/outbox.cif.g09.slc.cpg/sg54_8_cif.got.tgz:14678.got - 2010.04.16 15:00:50.
