data_PCOD8222837
_publ_section_title
;
Structure prediction by ZEFSAII (Michael W. Deem and Ramdas Pophale) SiO2 
 PCOD8222837
Probable space group: P C C A
;
_chemical_formula_sum "Si O2"
_cell_formula_units_Z 32
_cell_length_a 16.538099
_cell_length_b 5.004013
_cell_length_c 19.118069
_cell_angle_alpha 90.000000
_cell_angle_beta 90.000000
_cell_angle_gamma 90.000000
_cell_volume 1582.151405
_symmetry_space_group_name_H-M "P C C A"
_symmetry_group_IT_number 54
_symmetry_cell_setting 'orthorhombic'
loop_
_space_group_symop_operation_xyz
x,y,z
1/2-x,-y,z
1/2+x,-y,1/2-z
-x,y,1/2-z
-x,-y,-z
1/2+x,y,-z
1/2-x,y,1/2+z
x,-y,1/2+z
loop_
_atom_site_type_symbol
_atom_site_label
_atom_site_fract_x
_atom_site_fract_y
_atom_site_fract_z
Si Si1 0.694590 0.249097 0.473067
Si Si2 0.407515 0.111757 0.744508
Si Si3 0.306989 0.754539 0.373912
Si Si4 0.157723 0.399623 0.672164
O O1 0.750000 0.500000 0.485761
O O2 0.651249 0.214345 0.548672
O O3 0.635850 0.303939 0.407141
O O4 0.750000 0.000000 0.452326
O O5 0.500000 0.021796 0.750000
O O6 0.378617 0.238584 0.817787
O O7 0.399797 0.349362 0.687922
O O8 0.356032 0.849934 0.723843
O O9 0.250000 0.500000 0.363687
O O10 0.250000 0.000000 0.359467
O O11 0.250000 0.500000 0.679125
#
# Coordination Sequence:
#
# PCOD8222837 Si02
#       4
#     8   8   8   8
#     4   9  18  33  56  84 106 133 185 241 275 316
#     4  12  24  37  54  85 120 149 182 228 278 330
#     4  10  20  36  58  81 108 144 186 230 277 328
#     4  11  21  38  61  82 106 146 192 231 272 328
#
# _framework density 20.225624
#
# number of rings (size 3 to 8) (size 9 to 14) (size 15 to 20)
#    0.000    1.500    0.000    8.250    0.000    0.000 
#    0.000    2.500    0.000    0.000    0.000    0.000 
#    0.000    0.000    0.000    0.000    0.000    0.000 
#
# Total GULP energy -396613.816854 kJ/mol
# GULP energy per Si atom -12394.181777 kJ/mol
# Density = 2.017959 g / cm^3
# Si number density = 20.225624 Si / 1000 Ang^3
#
#
#
# Elastic Constant Matrix: (Units=GPa)
#
#
# Indices 1 2 3 4 5 6 
#
# 1 73.6595 29.8323 59.8206 0.0000 0.0000 0.0000
# 2 29.8323 138.1519 38.1062 0.0000 0.0000 0.0000
# 3 59.8206 38.1062 150.2641 0.0000 0.0000 0.0000
# 4 0.0000 0.0000 0.0000 31.7619 0.0000 0.0000
# 5 0.0000 0.0000 0.0000 0.0000 8.2054 0.0000
# 6 0.0000 0.0000 0.0000 0.0000 0.0000 23.7434
#
#
#
# Elastic Compliance Matrix: (Units=1/GPa)
#
#
# Indices 1 2 3 4 5 6 
#
# 1 0.020759 -0.002369 -0.007664 0.000000 0.000000 0.000000
# 2 -0.002369 0.008053 -0.001099 0.000000 0.000000 0.000000
# 3 -0.007664 -0.001099 0.009985 0.000000 0.000000 0.000000
# 4 0.000000 0.000000 0.000000 0.031484 0.000000 0.000000
# 5 0.000000 0.000000 0.000000 0.000000 0.121871 0.000000
# 6 0.000000 0.000000 0.000000 0.000000 0.000000 0.042117
#
#
# Mechanical properties :
#
#
# Convention : Reuss Voigt Hill
#
# Bulk Modulus (GPa) = 60.48273 68.62153 64.55213
# Shear Modulus (GPa) = 19.08079 28.36322 23.72201
#
# Velocity S-wave (km/s) = 3.07481 3.74885 3.42843
# Velocity P-wave (km/s) = 6.52494 7.26224 6.90344
#
# Compressibility (1/GPa) = 0.01653365
#
# Stress axis : x y z
#
# Youngs Moduli (GPa) = 48.17163 124.17543 100.15454
#
# Poissons Ratio (x) = 0.29416 0.76754
# Poissons Ratio (y) = 0.11411 0.11009
# Poissons Ratio (z) = 0.36916 0.13649
#
# Static dielectric constant tensor:
#      x y z
#    x 3.077680 0.000000 0.000000 
#    y 0.000000 3.863880 0.000000 
#    z 0.000000 0.000000 4.471290 
# 
# 
# High freq. dielectric constant tensor:
#      x y z
#    x 1.723610 0.000000 0.000000 
#    y 0.000000 1.820560 0.000000 
#    z 0.000000 0.000000 1.815340 
# 
# From -- ./inp_files/17678.got.cif
#   From: 2010.03.12/outbox.cif.g09.slc.cpg/sg54_9_cif.got.tgz:17678.got - 2010.04.16 15:00:50.
