data_PCOD8222329
_publ_section_title
;
Structure prediction by ZEFSAII (Michael W. Deem and Ramdas Pophale) SiO2 
 PCOD8222329
Probable space group: P C C A
;
_chemical_formula_sum "Si O2"
_cell_formula_units_Z 56
_cell_length_a 16.087531
_cell_length_b 33.763610
_cell_length_c 5.262152
_cell_angle_alpha 90.000000
_cell_angle_beta 90.000000
_cell_angle_gamma 90.000000
_cell_volume 2858.259533
_symmetry_space_group_name_H-M "P C C A"
_symmetry_group_IT_number 54
_symmetry_cell_setting 'orthorhombic'
loop_
_space_group_symop_operation_xyz
x,y,z
1/2-x,-y,z
1/2+x,-y,1/2-z
-x,y,1/2-z
-x,-y,-z
1/2+x,y,-z
1/2-x,y,1/2+z
x,-y,1/2+z
loop_
_atom_site_type_symbol
_atom_site_label
_atom_site_fract_x
_atom_site_fract_y
_atom_site_fract_z
Si Si1 0.945682 0.590999 0.497792
Si Si2 0.945932 0.106405 0.000797
Si Si3 0.199640 0.258977 0.541845
Si Si4 0.155326 0.483082 0.484396
Si Si5 0.697939 0.168758 0.470562
Si Si6 0.406390 0.983012 0.497804
Si Si7 0.447513 0.681064 0.502132
O O1 0.861044 0.564265 0.505063
O O2 0.914023 0.636092 0.481539
O O3 0.000000 0.583850 0.750000
O O4 0.000000 0.580305 0.250000
O O5 0.000000 0.109476 0.750000
O O6 0.880906 0.141390 0.998979
O O7 0.900879 0.064144 0.008457
O O8 0.000000 0.111963 0.250000
O O9 0.230860 0.266667 0.827555
O O10 0.166780 0.214088 0.515953
O O11 0.127863 0.289339 0.482117
O O12 0.250000 0.500000 0.478182
O O13 0.110179 0.501448 0.730412
O O14 0.740103 0.159450 0.201424
O O15 0.500000 0.000000 0.500000
O O16 0.360226 0.999406 0.749382
O O17 0.500000 0.687283 0.250000
O O18 0.500000 0.691959 0.750000
#
# Coordination Sequence:
#
# PCOD8222329 Si02
#       7
#     8   8   8   8   8   8   8
#     4  10  21  37  57  83 113 148 186 225 288 340
#     4  12  21  33  59  90 106 143 204 239 278 336
#     4  10  21  40  61  86 114 157 196 222 284 354
#     4  10  21  37  53  78 112 146 186 236 276 316
#     4  10  23  41  57  79 124 158 180 232 294 348
#     4  10  16  30  49  78 107 141 173 244 287 321
#     4  10  21  38  61  89 121 148 184 246 292 334
#
# _framework density 19.592343
#
# number of rings (size 3 to 8) (size 9 to 14) (size 15 to 20)
#    0.000    1.714    2.857    2.571    0.000    2.857 
#    5.143    0.000    0.000    2.571    0.000    0.000 
#    0.000    0.000    0.000    0.000    0.000    0.000 
#
# Total GULP energy -694093.873395 kJ/mol
# GULP energy per Si atom -12394.533453 kJ/mol
# Density = 1.954775 g / cm^3
# Si number density = 19.592343 Si / 1000 Ang^3
#
#
#
# Elastic Constant Matrix: (Units=GPa)
#
#
# Indices 1 2 3 4 5 6 
#
# 1 59.2611 66.3912 21.9927 0.0000 0.0000 0.0000
# 2 66.3912 137.3298 37.6311 0.0000 0.0000 0.0000
# 3 21.9927 37.6311 161.7852 0.0000 0.0000 0.0000
# 4 0.0000 0.0000 0.0000 25.9836 0.0000 0.0000
# 5 0.0000 0.0000 0.0000 0.0000 28.1360 0.0000
# 6 0.0000 0.0000 0.0000 0.0000 0.0000 -40.6018
#
#
#
# Elastic Compliance Matrix: (Units=1/GPa)
#
#
# Indices 1 2 3 4 5 6 
#
# 1 0.036942 -0.017605 -0.000927 0.000000 0.000000 0.000000
# 2 -0.017605 0.016168 -0.001367 0.000000 0.000000 0.000000
# 3 -0.000927 -0.001367 0.006625 0.000000 0.000000 0.000000
# 4 0.000000 0.000000 0.000000 0.038486 0.000000 0.000000
# 5 0.000000 0.000000 0.000000 0.000000 0.035542 0.000000
# 6 0.000000 0.000000 0.000000 0.000000 0.000000 -0.024629
#
#
# Mechanical properties :
#
#
# Convention : Reuss Voigt Hill
#
# Bulk Modulus (GPa) = 50.16146 67.82291 58.99219
# Shear Modulus (GPa) = 32.13835 18.19430 25.16632
#
# Velocity S-wave (km/s) = 4.05452 3.05067 3.58788
# Velocity P-wave (km/s) = 6.89761 6.86302 6.88033
#
# Compressibility (1/GPa) = 0.01993562
#
# Stress axis : x y z
#
# Youngs Moduli (GPa) = 27.06937 61.85185 150.94193
#
# Poissons Ratio (x) = 1.08893 0.13990
# Poissons Ratio (y) = 0.47657 0.20639
# Poissons Ratio (z) = 0.02509 0.08457
#
# Static dielectric constant tensor:
#      x y z
#    x 3.055700 0.000000 0.000000 
#    y 0.000000 3.841830 0.000000 
#    z 0.000000 0.000000 6.470420 
# 
# 
# High freq. dielectric constant tensor:
#      x y z
#    x 1.719110 0.000000 0.000000 
#    y 0.000000 1.774320 0.000000 
#    z 0.000000 0.000000 1.804580 
# 
# From -- ./inp_files/733.got.cif
#   From: 2010.03.12/outbox.cif.g09.slc.cpg/sg54_1_cif.got.tgz:733.got - 2010.04.16 15:00:50.
