data_PCOD8222353
_publ_section_title
;
Structure prediction by ZEFSAII (Michael W. Deem and Ramdas Pophale) SiO2 
 PCOD8222353
Probable space group: P C C A
;
_chemical_formula_sum "Si O2"
_cell_formula_units_Z 32
_cell_length_a 12.487338
_cell_length_b 20.679089
_cell_length_c 5.347781
_cell_angle_alpha 90.000000
_cell_angle_beta 90.000000
_cell_angle_gamma 90.000000
_cell_volume 1380.940235
_symmetry_space_group_name_H-M "P C C A"
_symmetry_group_IT_number 54
_symmetry_cell_setting 'orthorhombic'
loop_
_space_group_symop_operation_xyz
x,y,z
1/2-x,-y,z
1/2+x,-y,1/2-z
-x,y,1/2-z
-x,-y,-z
1/2+x,y,-z
1/2-x,y,1/2+z
x,-y,1/2+z
loop_
_atom_site_type_symbol
_atom_site_label
_atom_site_fract_x
_atom_site_fract_y
_atom_site_fract_z
Si Si1 0.182421 0.331976 0.756178
Si Si2 0.370310 0.525654 0.857683
Si Si3 0.500000 0.144860 0.750000
Si Si4 0.871238 0.025787 0.148637
Si Si5 0.000000 0.771536 0.250000
O O1 0.235365 0.328109 0.484344
O O2 0.120073 0.399216 0.788534
O O3 0.104408 0.271860 0.762481
O O4 0.250000 0.500000 0.902786
O O5 0.427323 0.488438 0.625431
O O6 0.391673 0.100985 0.779715
O O7 0.493715 0.186742 0.500883
O O8 0.750000 0.000000 0.117078
O O9 0.926550 0.987197 0.379326
#
# Coordination Sequence:
#
# PCOD8222353 Si02
#       5
#     8   8   4   8   4
#     4  12  23  45  70  93 142 184 229 297 339 405
#     4  10  16  32  64  94 123 171 223 286 366 387
#     4  12  24  49  68  95 154 172 216 296 314 410
#     4  10  21  41  71 105 132 171 216 272 347 389
#     4  12  30  47  64 109 136 194 240 256 342 422
#
# _framework density 23.172618
#
# number of rings (size 3 to 8) (size 9 to 14) (size 15 to 20)
#    0.000    1.000    5.000    3.750    0.000    0.000 
#   27.000    1.250    0.000    0.000    0.000    0.000 
#    0.000    0.000    0.000    0.000    0.000    0.000 
#
# Total GULP energy -396456.616829 kJ/mol
# GULP energy per Si atom -12389.269276 kJ/mol
# Density = 2.311988 g / cm^3
# Si number density = 23.172618 Si / 1000 Ang^3
#
#
#
# Elastic Constant Matrix: (Units=GPa)
#
#
# Indices 1 2 3 4 5 6 
#
# 1 58.9236 30.9161 20.6040 0.0000 0.0000 0.0000
# 2 30.9161 163.2064 56.7222 0.0000 0.0000 0.0000
# 3 20.6040 56.7222 189.0551 0.0000 0.0000 0.0000
# 4 0.0000 0.0000 0.0000 59.3400 0.0000 0.0000
# 5 0.0000 0.0000 0.0000 0.0000 21.7471 0.0000
# 6 0.0000 0.0000 0.0000 0.0000 0.0000 65.1408
#
#
#
# Elastic Compliance Matrix: (Units=1/GPa)
#
#
# Indices 1 2 3 4 5 6 
#
# 1 0.019050 -0.003223 -0.001109 0.000000 0.000000 0.000000
# 2 -0.003223 0.007386 -0.001865 0.000000 0.000000 0.000000
# 3 -0.001109 -0.001865 0.005970 0.000000 0.000000 0.000000
# 4 0.000000 0.000000 0.000000 0.016852 0.000000 0.000000
# 5 0.000000 0.000000 0.000000 0.000000 0.045983 0.000000
# 6 0.000000 0.000000 0.000000 0.000000 0.000000 0.015351
#
#
# Mechanical properties :
#
#
# Convention : Reuss Voigt Hill
#
# Bulk Modulus (GPa) = 49.97057 69.74107 59.85582
# Shear Modulus (GPa) = 38.56332 49.44175 44.00254
#
# Velocity S-wave (km/s) = 4.08386 4.62413 4.36237
# Velocity P-wave (km/s) = 6.62182 7.65975 7.15962
#
# Compressibility (1/GPa) = 0.02001178
#
# Stress axis : x y z
#
# Youngs Moduli (GPa) = 52.49316 135.39398 167.50971
#
# Poissons Ratio (x) = 0.43640 0.18579
# Poissons Ratio (y) = 0.16919 0.31236
# Poissons Ratio (z) = 0.05822 0.25247
#
# Static dielectric constant tensor:
#      x y z
#    x 4.400050 0.000000 0.000000 
#    y 0.000000 4.217520 0.000000 
#    z 0.000000 0.000000 5.463360 
# 
# 
# High freq. dielectric constant tensor:
#      x y z
#    x 1.930420 0.000000 0.000000 
#    y 0.000000 1.904790 0.000000 
#    z 0.000000 0.000000 1.973090 
# 
# From -- ./inp_files/394.got.cif
#   From: 2010.03.12/outbox.cif.g09.slc.cpg/sg54_1_cif.got.tgz:394.got - 2010.04.16 15:00:50.
