data_PCOD8222703
_publ_section_title
;
Structure prediction by ZEFSAII (Michael W. Deem and Ramdas Pophale) SiO2 
 PCOD8222703
Probable space group: P C C A
;
_chemical_formula_sum "Si O2"
_cell_formula_units_Z 56
_cell_length_a 8.585464
_cell_length_b 18.993492
_cell_length_c 16.325318
_cell_angle_alpha 90.000000
_cell_angle_beta 90.000000
_cell_angle_gamma 90.000000
_cell_volume 2662.136005
_symmetry_space_group_name_H-M "P C C A"
_symmetry_group_IT_number 54
_symmetry_cell_setting 'orthorhombic'
loop_
_space_group_symop_operation_xyz
x,y,z
1/2-x,-y,z
1/2+x,-y,1/2-z
-x,y,1/2-z
-x,-y,-z
1/2+x,y,-z
1/2-x,y,1/2+z
x,-y,1/2+z
loop_
_atom_site_type_symbol
_atom_site_label
_atom_site_fract_x
_atom_site_fract_y
_atom_site_fract_z
Si Si1 0.781271 0.424633 0.386802
Si Si2 0.712095 0.291892 0.086488
Si Si3 0.169108 0.868545 0.414116
Si Si4 0.327399 0.075339 0.071194
Si Si5 0.681804 0.305040 0.263700
Si Si6 0.040128 0.373171 0.494411
Si Si7 0.817392 0.853531 0.264682
O O1 0.750000 0.500000 0.342576
O O2 0.750204 0.360041 0.327004
O O3 0.957334 0.414873 0.419871
O O4 0.661372 0.425617 0.462908
O O5 0.632791 0.214862 0.082545
O O6 0.765948 0.314133 0.176999
O O7 0.583665 0.347809 0.060133
O O8 0.868296 0.302184 0.033706
O O9 0.284754 0.882055 0.489205
O O10 0.253030 0.879498 0.323969
O O11 0.015467 0.918021 0.423051
O O12 0.255657 0.101748 0.157827
O O13 0.250000 0.000000 0.057548
O O14 0.500000 0.316737 0.250000
O O15 0.721126 0.225837 0.292583
O O16 0.000000 0.862004 0.250000
#
# Coordination Sequence:
#
# PCOD8222703 Si02
#       7
#     8   8   8   8   8   8   8
#     4  11  23  40  59  88 124 163 201 254 320 375
#     4  10  20  38  62  89 113 155 208 256 301 363
#     4  10  21  38  62  87 123 160 202 252 308 360
#     4  11  22  37  60  92 122 160 203 246 309 378
#     4  10  19  38  60  86 115 157 208 250 309 369
#     4  10  22  37  61  87 118 156 202 260 303 370
#     4   8  19  37  60  85 117 161 204 251 301 369
#
# _framework density 21.035740000000001
#
# number of rings (size 3 to 8) (size 9 to 14) (size 15 to 20)
#    0.000    2.000    1.429    2.571    4.000    1.143 
#    2.571    2.857    0.000    0.000    0.000    0.000 
#    0.000    0.000    0.000    0.000    0.000    0.000 
#
# Total GULP energy -693755.951221 kJ/mol
# GULP energy per Si atom -12388.499129 kJ/mol
# Density = 2.098786 g / cm^3
# Si number density = 21.035740 Si / 1000 Ang^3
#
#
#
# Elastic Constant Matrix: (Units=GPa)
#
#
# Indices 1 2 3 4 5 6 
#
# 1 59.1099 24.4211 21.5132 0.0000 0.0000 0.0000
# 2 24.4211 82.6317 37.2288 0.0000 0.0000 0.0000
# 3 21.5132 37.2288 137.5203 0.0000 0.0000 0.0000
# 4 0.0000 0.0000 0.0000 23.7300 0.0000 0.0000
# 5 0.0000 0.0000 0.0000 0.0000 22.2182 0.0000
# 6 0.0000 0.0000 0.0000 0.0000 0.0000 22.6336
#
#
#
# Elastic Compliance Matrix: (Units=1/GPa)
#
#
# Indices 1 2 3 4 5 6 
#
# 1 0.019616 -0.005028 -0.001708 0.000000 0.000000 0.000000
# 2 -0.005028 0.015072 -0.003294 0.000000 0.000000 0.000000
# 3 -0.001708 -0.003294 0.008430 0.000000 0.000000 0.000000
# 4 0.000000 0.000000 0.000000 0.042141 0.000000 0.000000
# 5 0.000000 0.000000 0.000000 0.000000 0.045008 0.000000
# 6 0.000000 0.000000 0.000000 0.000000 0.000000 0.044182
#
#
# Mechanical properties :
#
#
# Convention : Reuss Voigt Hill
#
# Bulk Modulus (GPa) = 43.36490 49.50978 46.43734
# Shear Modulus (GPa) = 24.72859 26.78959 25.75909
#
# Velocity S-wave (km/s) = 3.43235 3.57252 3.50314
# Velocity P-wave (km/s) = 6.03056 6.37215 6.20371
#
# Compressibility (1/GPa) = 0.02306013
#
# Stress axis : x y z
#
# Youngs Moduli (GPa) = 50.97750 66.34901 118.61838
#
# Poissons Ratio (x) = 0.33361 0.20255
# Poissons Ratio (y) = 0.25632 0.39068
# Poissons Ratio (z) = 0.08705 0.21853
#
# Static dielectric constant tensor:
#      x y z
#    x 3.642920 0.000000 0.000000 
#    y 0.000000 3.666870 0.000000 
#    z 0.000000 0.000000 4.381320 
# 
# 
# High freq. dielectric constant tensor:
#      x y z
#    x 1.799180 0.000000 0.000000 
#    y 0.000000 1.812610 0.000000 
#    z 0.000000 0.000000 1.841780 
# 
# From -- ./inp_files/11872.got.cif
#   From: 2010.03.12/outbox.cif.g09.slc.cpg/sg54_6_cif.got.tgz:11872.got - 2010.04.16 15:00:50.
