data_PCOD8222486
_publ_section_title
;
Structure prediction by ZEFSAII (Michael W. Deem and Ramdas Pophale) SiO2 
 PCOD8222486
Probable space group: P C C A
;
_chemical_formula_sum "Si O2"
_cell_formula_units_Z 48
_cell_length_a 14.322104
_cell_length_b 17.875133
_cell_length_c 9.357451
_cell_angle_alpha 90.000000
_cell_angle_beta 90.000000
_cell_angle_gamma 90.000000
_cell_volume 2395.596481
_symmetry_space_group_name_H-M "P C C A"
_symmetry_group_IT_number 54
_symmetry_cell_setting 'orthorhombic'
loop_
_space_group_symop_operation_xyz
x,y,z
1/2-x,-y,z
1/2+x,-y,1/2-z
-x,y,1/2-z
-x,-y,-z
1/2+x,y,-z
1/2-x,y,1/2+z
x,-y,1/2+z
loop_
_atom_site_type_symbol
_atom_site_label
_atom_site_fract_x
_atom_site_fract_y
_atom_site_fract_z
Si Si1 0.719811 0.414949 0.212065
Si Si2 0.648183 0.345427 0.494763
Si Si3 0.016396 0.073947 0.588163
Si Si4 0.639897 0.192085 0.063016
Si Si5 0.545735 0.342619 0.100652
Si Si6 0.180467 0.182005 0.607895
O O1 0.750000 0.500000 0.208639
O O2 0.708107 0.387427 0.373614
O O3 0.801213 0.363586 0.143539
O O4 0.620851 0.408267 0.128667
O O5 0.539470 0.372784 0.498075
O O6 0.642545 0.256857 0.467514
O O7 0.118323 0.110238 0.564365
O O8 0.000000 0.050522 0.750000
O O9 0.943496 0.135676 0.540099
O O10 0.000000 0.000000 0.500000
O O11 0.601750 0.274751 0.027942
O O12 0.682601 0.191677 0.221792
O O13 0.715702 0.167149 0.947108
O O14 0.500000 0.313738 0.250000
#
# Coordination Sequence:
#
# PCOD8222486 Si02
#       6
#     8   8   8   8   8   8
#     4  11  23  37  59  90 125 157 201 259 302 354
#     4  11  20  39  64  84 119 162 207 244 305 367
#     4  10  23  41  63  89 126 161 200 249 310 365
#     4  11  20  38  64  89 118 154 210 243 301 368
#     4  10  18  36  63  81 114 164 201 236 301 371
#     4  11  20  37  66  90 114 164 202 251 294 370
#
# _framework density 20.036762
#
# number of rings (size 3 to 8) (size 9 to 14) (size 15 to 20)
#    0.000    1.333    6.667    1.000    0.000    2.667 
#    0.000    5.833    0.000    0.000    0.000    0.000 
#    0.000    0.000    0.000    0.000    0.000    0.000 
#
# Total GULP energy -595223.986758 kJ/mol
# GULP energy per Si atom -12400.499724 kJ/mol
# Density = 1.999116 g / cm^3
# Si number density = 20.036762 Si / 1000 Ang^3
#
#
#
# Elastic Constant Matrix: (Units=GPa)
#
#
# Indices 1 2 3 4 5 6 
#
# 1 128.4154 34.3965 48.0941 0.0000 0.0000 0.0000
# 2 34.3965 112.5957 38.4352 0.0000 0.0000 0.0000
# 3 48.0941 38.4352 49.1329 0.0000 0.0000 0.0000
# 4 0.0000 0.0000 0.0000 25.4138 0.0000 0.0000
# 5 0.0000 0.0000 0.0000 0.0000 32.6949 0.0000
# 6 0.0000 0.0000 0.0000 0.0000 0.0000 24.1045
#
#
#
# Elastic Compliance Matrix: (Units=1/GPa)
#
#
# Indices 1 2 3 4 5 6 
#
# 1 0.012313 0.000481 -0.012430 0.000000 0.000000 0.000000
# 2 0.000481 0.012136 -0.009965 0.000000 0.000000 0.000000
# 3 -0.012430 -0.009965 0.040315 0.000000 0.000000 0.000000
# 4 0.000000 0.000000 0.000000 0.039349 0.000000 0.000000
# 5 0.000000 0.000000 0.000000 0.000000 0.030586 0.000000
# 6 0.000000 0.000000 0.000000 0.000000 0.000000 0.041486
#
#
# Mechanical properties :
#
#
# Convention : Reuss Voigt Hill
#
# Bulk Modulus (GPa) = 47.75960 59.11062 53.43511
# Shear Modulus (GPa) = 22.02744 27.72386 24.87565
#
# Velocity S-wave (km/s) = 3.31924 3.72378 3.52732
# Velocity P-wave (km/s) = 6.21108 6.93209 6.58147
#
# Compressibility (1/GPa) = 0.02093820
#
# Stress axis : x y z
#
# Youngs Moduli (GPa) = 81.21204 82.40111 24.80481
#
# Poissons Ratio (x) = -0.03966 0.30831
# Poissons Ratio (y) = -0.03909 0.24717
# Poissons Ratio (z) = 1.00944 0.82109
#
# Static dielectric constant tensor:
#      x y z
#    x 4.062500 0.000000 0.000000 
#    y 0.000000 6.555650 0.000000 
#    z 0.000000 0.000000 3.633040 
# 
# 
# High freq. dielectric constant tensor:
#      x y z
#    x 1.800170 0.000000 0.000000 
#    y 0.000000 1.772310 0.000000 
#    z 0.000000 0.000000 1.760960 
# 
# From -- ./inp_files/3573.got.cif
#   From: 2010.03.12/outbox.cif.g09.slc.cpg/sg54_2_cif.got.tgz:3573.got - 2010.04.16 15:00:50.
