data_PCOD8222237
_publ_section_title
;
Structure prediction by ZEFSAII (Michael W. Deem and Ramdas Pophale) SiO2 
 PCOD8222237
Probable space group: P M N A
;
_chemical_formula_sum "Si O2"
_cell_formula_units_Z 64
_cell_length_a 9.896374
_cell_length_b 18.426861
_cell_length_c 24.799466
_cell_angle_alpha 90.000000
_cell_angle_beta 90.000000
_cell_angle_gamma 90.000000
_cell_volume 4522.408501
_symmetry_space_group_name_H-M "P M N A"
_symmetry_group_IT_number 53
_symmetry_cell_setting 'orthorhombic'
loop_
_space_group_symop_operation_xyz
x,y,z
1/2-x,-y,1/2+z
x,-y,-z
1/2-x,y,1/2-z
-x,-y,-z
1/2+x,y,1/2-z
-x,y,z
1/2+x,-y,1/2+z
loop_
_atom_site_type_symbol
_atom_site_label
_atom_site_fract_x
_atom_site_fract_y
_atom_site_fract_z
Si Si1 0.651312 0.048264 0.420961
Si Si2 0.346914 0.165775 0.106400
Si Si3 0.160193 0.485387 0.415162
Si Si4 0.843153 0.438661 0.299336
Si Si5 0.651804 0.104867 0.542074
Si Si6 0.344280 0.224128 0.987016
Si Si7 0.339583 0.613260 0.010557
Si Si8 0.153792 0.730800 0.702756
O O1 0.500000 0.058276 0.398055
O O2 0.754190 0.094829 0.384828
O O3 0.658574 0.077067 0.481404
O O4 0.691754 0.963002 0.419493
O O5 0.500000 0.139442 0.114381
O O6 0.305379 0.226534 0.149168
O O7 0.326514 0.202321 0.048782
O O8 0.212093 0.476957 0.353881
O O9 0.216923 0.422143 0.454912
O O10 0.205251 0.563627 0.438638
O O11 0.000000 0.478617 0.414658
O O12 0.750000 0.466154 0.250000
O O13 0.823714 0.353540 0.309022
O O14 0.000000 0.457756 0.287155
O O15 0.500000 0.131669 0.555534
O O16 0.756340 0.170865 0.551002
O O17 0.500000 0.218535 0.968495
O O18 0.284749 0.305429 0.980657
O O19 0.500000 0.616541 0.006235
O O20 0.250000 0.758999 0.750000
O O21 0.000000 0.746389 0.719971
#
# Coordination Sequence:
#
# PCOD8222237 Si02
#       8
#     8   8   8   8   8   8   8   8
#     4   8  14  24  36  49  67  94 124 147 168 202
#     4   9  16  24  35  52  73  95 119 150 184 214
#     4   8  13  22  37  55  75  99 126 156 188 222
#     4   9  16  26  40  56  74  98 127 157 188 220
#     4   8  14  24  35  48  70  97 121 144 170 204
#     4   9  15  22  35  55  75  94 119 151 184 216
#     4   8  13  21  35  56  77  97 125 158 188 221
#     4   9  17  27  37  51  72  96 122 152 183 213
#
# _framework density 14.151751000000001
#
# number of rings (size 3 to 8) (size 9 to 14) (size 15 to 20)
#    0.000    3.500    0.000    2.250    0.000    4.000 
#    0.000    2.500    0.000    3.000    0.000    1.750 
#    0.000    1.000    0.000    7.000    0.000    3.875 
#
# Total GULP energy -793124.414620 kJ/mol
# GULP energy per Si atom -12392.568978 kJ/mol
# Density = 1.411954 g / cm^3
# Si number density = 14.151751 Si / 1000 Ang^3
#
#
#
# Elastic Constant Matrix: (Units=GPa)
#
#
# Indices 1 2 3 4 5 6 
#
# 1 51.7154 43.7068 30.4020 0.0000 0.0000 0.0000
# 2 43.7068 99.1335 32.2689 0.0000 0.0000 0.0000
# 3 30.4020 32.2689 67.1076 0.0000 0.0000 0.0000
# 4 0.0000 0.0000 0.0000 18.6408 0.0000 0.0000
# 5 0.0000 0.0000 0.0000 0.0000 16.8627 0.0000
# 6 0.0000 0.0000 0.0000 0.0000 0.0000 14.8731
#
#
#
# Elastic Compliance Matrix: (Units=1/GPa)
#
#
# Indices 1 2 3 4 5 6 
#
# 1 0.035941 -0.012503 -0.010270 0.000000 0.000000 0.000000
# 2 -0.012503 0.016309 -0.002178 0.000000 0.000000 0.000000
# 3 -0.010270 -0.002178 0.020602 0.000000 0.000000 0.000000
# 4 0.000000 0.000000 0.000000 0.053646 0.000000 0.000000
# 5 0.000000 0.000000 0.000000 0.000000 0.059303 0.000000
# 6 0.000000 0.000000 0.000000 0.000000 0.000000 0.067235
#
#
# Mechanical properties :
#
#
# Convention : Reuss Voigt Hill
#
# Bulk Modulus (GPa) = 43.57512 47.85687 45.71599
# Shear Modulus (GPa) = 16.09857 17.51391 16.80624
#
# Velocity S-wave (km/s) = 3.37644 3.52174 3.44986
# Velocity P-wave (km/s) = 6.78665 7.10121 6.94571
#
# Compressibility (1/GPa) = 0.02294888
#
# Stress axis : x y z
#
# Youngs Moduli (GPa) = 27.82351 61.31714 48.54010
#
# Poissons Ratio (x) = 0.76663 0.49853
# Poissons Ratio (y) = 0.34787 0.10572
# Poissons Ratio (z) = 0.28576 0.13354
#
# Static dielectric constant tensor:
#      x y z
#    x 2.725100 0.000000 0.000000 
#    y 0.000000 2.959250 0.000000 
#    z 0.000000 0.000000 2.616230 
# 
# 
# High freq. dielectric constant tensor:
#      x y z
#    x 1.521210 0.000000 0.000000 
#    y 0.000000 1.535170 0.000000 
#    z 0.000000 0.000000 1.502860 
# 
# From -- ./inp_files/34586.got.cif
#   From: 2010.03.12/outbox.cif.g09.slc.cpg/sg53_18_cif.got.tgz:34586.got - 2010.04.16 14:36:59.
