data_PCOD8222217
_publ_section_title
;
Structure prediction by ZEFSAII (Michael W. Deem and Ramdas Pophale) SiO2 
 PCOD8222217
Probable space group: P M N A
;
_chemical_formula_sum "Si O2"
_cell_formula_units_Z 36
_cell_length_a 20.885405
_cell_length_b 5.009071
_cell_length_c 16.594018
_cell_angle_alpha 90.000000
_cell_angle_beta 90.000000
_cell_angle_gamma 90.000000
_cell_volume 1736.007694
_symmetry_space_group_name_H-M "P M N A"
_symmetry_group_IT_number 53
_symmetry_cell_setting 'orthorhombic'
loop_
_space_group_symop_operation_xyz
x,y,z
1/2-x,-y,1/2+z
x,-y,-z
1/2-x,y,1/2-z
-x,-y,-z
1/2+x,y,1/2-z
-x,y,z
1/2+x,-y,1/2+z
loop_
_atom_site_type_symbol
_atom_site_label
_atom_site_fract_x
_atom_site_fract_y
_atom_site_fract_z
Si Si1 0.607240 0.331465 0.681983
Si Si2 0.818958 0.936266 0.593149
Si Si3 0.925051 0.844437 0.713616
Si Si4 0.747435 0.553336 0.343673
Si Si5 0.000000 0.748490 0.055930
O O1 0.581948 0.581358 0.732897
O O2 0.674286 0.378180 0.637141
O O3 0.561777 0.250005 0.610387
O O4 0.610424 0.083170 0.741405
O O5 0.793970 0.198987 0.638833
O O6 0.830182 0.000000 0.500000
O O7 0.886297 0.826585 0.629529
O O8 0.767133 0.700307 0.602486
O O9 0.000000 0.901602 0.696784
O O10 0.750000 0.471842 0.250000
O O11 0.000000 0.500000 0.000000
O O12 0.000000 0.000000 0.000000
#
# Coordination Sequence:
#
# PCOD8222217 Si02
#       5
#     8   8   8   8   4
#     4  12  24  42  71  95 127 182 228 269 329 408
#     4  12  26  43  67 105 140 168 219 295 341 386
#     4  12  22  42  70  98 129 178 229 268 330 411
#     4  12  23  44  71  98 131 180 230 270 333 411
#     4  12  26  44  62  98 137 166 217 284 332 378
#
# _framework density 20.737235999999999
#
# number of rings (size 3 to 8) (size 9 to 14) (size 15 to 20)
#    0.000    0.000    6.667    4.000    0.000    3.111 
#    0.000    0.000    0.000    5.333    0.000    0.000 
#    0.000    0.000    0.000    0.000    0.000    0.000 
#
# Total GULP energy -446518.063544 kJ/mol
# GULP energy per Si atom -12403.279543 kJ/mol
# Density = 2.069004 g / cm^3
# Si number density = 20.737236 Si / 1000 Ang^3
#
#
#
# Elastic Constant Matrix: (Units=GPa)
#
#
# Indices 1 2 3 4 5 6 
#
# 1 150.3813 34.5012 58.1366 0.0000 0.0000 0.0000
# 2 34.5012 143.6534 49.6647 0.0000 0.0000 0.0000
# 3 58.1366 49.6647 142.0611 0.0000 0.0000 0.0000
# 4 0.0000 0.0000 0.0000 40.3959 0.0000 0.0000
# 5 0.0000 0.0000 0.0000 0.0000 36.9164 0.0000
# 6 0.0000 0.0000 0.0000 0.0000 0.0000 36.7815
#
#
#
# Elastic Compliance Matrix: (Units=1/GPa)
#
#
# Indices 1 2 3 4 5 6 
#
# 1 0.008000 -0.000898 -0.002960 0.000000 0.000000 0.000000
# 2 -0.000898 0.008019 -0.002436 0.000000 0.000000 0.000000
# 3 -0.002960 -0.002436 0.009102 0.000000 0.000000 0.000000
# 4 0.000000 0.000000 0.000000 0.024755 0.000000 0.000000
# 5 0.000000 0.000000 0.000000 0.000000 0.027088 0.000000
# 6 0.000000 0.000000 0.000000 0.000000 0.000000 0.027188
#
#
# Mechanical properties :
#
#
# Convention : Reuss Voigt Hill
#
# Bulk Modulus (GPa) = 79.78701 80.07790 79.93245
# Shear Modulus (GPa) = 41.35038 42.40499 41.87769
#
# Velocity S-wave (km/s) = 4.47029 4.52693 4.49870
# Velocity P-wave (km/s) = 8.07486 8.12548 8.10021
#
# Compressibility (1/GPa) = 0.01253337
#
# Stress axis : x y z
#
# Youngs Moduli (GPa) = 124.99833 124.70296 109.86393
#
# Poissons Ratio (x) = 0.11199 0.32519
# Poissons Ratio (y) = 0.11225 0.26762
# Poissons Ratio (z) = 0.36999 0.30377
#
# Static dielectric constant tensor:
#      x y z
#    x 4.143770 0.000000 0.000000 
#    y 0.000000 3.933820 0.000000 
#    z 0.000000 0.000000 3.730870 
# 
# 
# High freq. dielectric constant tensor:
#      x y z
#    x 1.825500 0.000000 0.000000 
#    y 0.000000 1.832070 0.000000 
#    z 0.000000 0.000000 1.805830 
# 
# From -- ./inp_files/24067.got.cif
#   From: 2010.03.12/outbox.cif.g09.slc.cpg/sg53_13_cif.got.tgz:24067.got - 2010.04.16 14:36:59.
