data_PCOD8222444
_publ_section_title
;
Structure prediction by ZEFSAII (Michael W. Deem and Ramdas Pophale) SiO2 
 PCOD8222444
Probable space group: P C C A
;
_chemical_formula_sum "Si O2"
_cell_formula_units_Z 40
_cell_length_a 10.695331
_cell_length_b 8.529156
_cell_length_c 22.124262
_cell_angle_alpha 90.000000
_cell_angle_beta 90.000000
_cell_angle_gamma 90.000000
_cell_volume 2018.222671
_symmetry_space_group_name_H-M "P C C A"
_symmetry_group_IT_number 54
_symmetry_cell_setting 'orthorhombic'
loop_
_space_group_symop_operation_xyz
x,y,z
1/2-x,-y,z
1/2+x,-y,1/2-z
-x,y,1/2-z
-x,-y,-z
1/2+x,y,-z
1/2-x,y,1/2+z
x,-y,1/2+z
loop_
_atom_site_type_symbol
_atom_site_label
_atom_site_fract_x
_atom_site_fract_y
_atom_site_fract_z
Si Si1 0.503702 0.373586 0.094424
Si Si2 0.865146 0.312960 0.232850
Si Si3 0.884916 0.653141 0.281526
Si Si4 0.854569 0.622702 0.521047
Si Si5 0.243281 0.817054 0.383107
O O1 0.406145 0.398105 0.149151
O O2 0.563775 0.537912 0.073425
O O3 0.601620 0.245810 0.119257
O O4 0.431917 0.310212 0.035298
O O5 0.876212 0.500301 0.238232
O O6 0.748277 0.255250 0.275722
O O7 0.831300 0.270286 0.164678
O O8 0.000000 0.235190 0.250000
O O9 0.000000 0.750424 0.250000
O O10 0.750000 0.500000 0.497822
O O11 0.794428 0.776846 0.550350
O O12 0.250000 0.000000 0.370600
#
# Coordination Sequence:
#
# PCOD8222444 Si02
#       5
#     8   8   8   8   8
#     4  10  20  38  63  91 115 155 204 259 304 353
#     4  10  21  35  57  89 116 156 196 248 306 353
#     4  10  18  33  63  88 115 148 198 256 307 350
#     4   9  20  36  62  93 118 147 206 256 302 355
#     4  11  23  41  60  84 128 167 198 245 307 372
#
# _framework density 19.819420000000001
#
# number of rings (size 3 to 8) (size 9 to 14) (size 15 to 20)
#    0.000    2.000    2.000    2.400    8.400    0.800 
#    7.200    0.000    0.000    0.000    0.000    0.000 
#    0.000    0.000    0.000    0.000    0.000    0.000 
#
# Total GULP energy -495612.202998 kJ/mol
# GULP energy per Si atom -12390.305075 kJ/mol
# Density = 1.977431 g / cm^3
# Si number density = 19.819420 Si / 1000 Ang^3
#
#
#
# Elastic Constant Matrix: (Units=GPa)
#
#
# Indices 1 2 3 4 5 6 
#
# 1 168.0110 17.9841 61.4473 0.0000 0.0000 0.0000
# 2 17.9841 58.0485 42.6126 0.0000 0.0000 0.0000
# 3 61.4473 42.6126 108.8965 0.0000 0.0000 0.0000
# 4 0.0000 0.0000 0.0000 9.2346 0.0000 0.0000
# 5 0.0000 0.0000 0.0000 0.0000 48.0425 0.0000
# 6 0.0000 0.0000 0.0000 0.0000 0.0000 11.6301
#
#
#
# Elastic Compliance Matrix: (Units=1/GPa)
#
#
# Indices 1 2 3 4 5 6 
#
# 1 0.007550 0.001106 -0.004693 0.000000 0.000000 0.000000
# 2 0.001106 0.024332 -0.010146 0.000000 0.000000 0.000000
# 3 -0.004693 -0.010146 0.015801 0.000000 0.000000 0.000000
# 4 0.000000 0.000000 0.000000 0.108288 0.000000 0.000000
# 5 0.000000 0.000000 0.000000 0.000000 0.020815 0.000000
# 6 0.000000 0.000000 0.000000 0.000000 0.000000 0.085984
#
#
# Mechanical properties :
#
#
# Convention : Reuss Voigt Hill
#
# Bulk Modulus (GPa) = 49.46047 64.33822 56.89935
# Shear Modulus (GPa) = 16.83641 27.97556 22.40599
#
# Velocity S-wave (km/s) = 2.91776 3.76110 3.36595
# Velocity P-wave (km/s) = 6.03000 7.16895 6.62400
#
# Compressibility (1/GPa) = 0.02021817
#
# Stress axis : x y z
#
# Youngs Moduli (GPa) = 132.45007 41.09810 63.28600
#
# Poissons Ratio (x) = -0.04546 0.29701
# Poissons Ratio (y) = -0.14649 0.64207
# Poissons Ratio (z) = 0.62160 0.41696
#
# Static dielectric constant tensor:
#      x y z
#    x 4.604490 0.000000 0.000000 
#    y 0.000000 2.931540 0.000000 
#    z 0.000000 0.000000 3.555050 
# 
# 
# High freq. dielectric constant tensor:
#      x y z
#    x 1.798980 0.000000 0.000000 
#    y 0.000000 1.700970 0.000000 
#    z 0.000000 0.000000 1.780780 
# 
# From -- ./inp_files/21014.got.cif
#   From: 2010.03.12/outbox.cif.g09.slc.cpg/sg54_11_cif.got.tgz:21014.got - 2010.04.16 15:00:50.
