data_PCOD8222026
_publ_section_title
;
Structure prediction by ZEFSAII (Michael W. Deem and Ramdas Pophale) SiO2 
 PCOD8222026
Probable space group: P M N A
;
_chemical_formula_sum "Si O2"
_cell_formula_units_Z 56
_cell_length_a 17.405644
_cell_length_b 11.704768
_cell_length_c 14.393948
_cell_angle_alpha 90.000000
_cell_angle_beta 90.000000
_cell_angle_gamma 90.000000
_cell_volume 2932.464991
_symmetry_space_group_name_H-M "P M N A"
_symmetry_group_IT_number 53
_symmetry_cell_setting 'orthorhombic'
loop_
_space_group_symop_operation_xyz
x,y,z
1/2-x,-y,1/2+z
x,-y,-z
1/2-x,y,1/2-z
-x,-y,-z
1/2+x,y,1/2-z
-x,y,z
1/2+x,-y,1/2+z
loop_
_atom_site_type_symbol
_atom_site_label
_atom_site_fract_x
_atom_site_fract_y
_atom_site_fract_z
Si Si1 0.915766 0.752284 0.313319
Si Si2 0.083796 0.398410 0.868257
Si Si3 0.591622 0.529690 0.100640
Si Si4 0.089582 0.828561 0.837945
Si Si5 0.838812 0.405215 0.228780
Si Si6 0.662825 0.948272 0.278291
Si Si7 0.589824 0.825743 0.450483
O O1 0.922472 0.690925 0.214996
O O2 0.876638 0.658068 0.380576
O O3 0.866199 0.866427 0.304746
O O4 0.000000 0.787673 0.349840
O O5 0.144963 0.498576 0.850329
O O6 0.105909 0.312572 0.952338
O O7 0.000000 0.456247 0.884776
O O8 0.500000 0.531913 0.104245
O O9 0.617735 0.437510 0.176371
O O10 0.624477 0.500000 0.000000
O O11 0.134889 0.716253 0.808252
O O12 0.000000 0.806422 0.821941
O O13 0.118235 0.931912 0.773403
O O14 0.106859 0.865338 0.944523
O O15 0.750000 0.402183 0.250000
O O16 0.750000 0.971461 0.250000
O O17 0.647119 0.890586 0.379319
O O18 0.500000 0.851266 0.423872
#
# Coordination Sequence:
#
# PCOD8222026 Si02
#       7
#     8   8   8   8   8   8   8
#     4   8  15  30  53  79 103 137 187 231 266 319
#     4   8  15  31  54  78 107 141 182 225 272 333
#     4   9  18  36  61  83 106 149 202 238 270 332
#     4  11  22  38  60  81 111 156 199 237 283 341
#     4  11  22  36  51  83 122 152 181 232 300 356
#     4  11  21  34  54  82 116 148 183 232 288 346
#     4   9  19  36  60  87 108 143 196 241 277 336
#
# _framework density 19.096563
#
# number of rings (size 3 to 8) (size 9 to 14) (size 15 to 20)
#    0.000    2.429    0.000    5.143    0.000    6.857 
#    5.143    2.143    0.000    0.000    0.000    4.000 
#    0.000    0.000    0.000    0.000    0.000    0.000 
#
# Total GULP energy -693938.805638 kJ/mol
# GULP energy per Si atom -12391.764386 kJ/mol
# Density = 1.905310 g / cm^3
# Si number density = 19.096563 Si / 1000 Ang^3
#
#
#
# Elastic Constant Matrix: (Units=GPa)
#
#
# Indices 1 2 3 4 5 6 
#
# 1 88.1886 39.9884 13.1445 0.0000 0.0000 0.0000
# 2 39.9884 105.8053 19.9014 0.0000 0.0000 0.0000
# 3 13.1445 19.9014 56.0236 0.0000 0.0000 0.0000
# 4 0.0000 0.0000 0.0000 28.7813 0.0000 0.0000
# 5 0.0000 0.0000 0.0000 0.0000 -35.4301 0.0000
# 6 0.0000 0.0000 0.0000 0.0000 0.0000 21.1689
#
#
#
# Elastic Compliance Matrix: (Units=1/GPa)
#
#
# Indices 1 2 3 4 5 6 
#
# 1 0.013799 -0.004936 -0.001484 0.000000 0.000000 0.000000
# 2 -0.004936 0.011894 -0.003067 0.000000 0.000000 0.000000
# 3 -0.001484 -0.003067 0.019287 0.000000 0.000000 0.000000
# 4 0.000000 0.000000 0.000000 0.034745 0.000000 0.000000
# 5 0.000000 0.000000 0.000000 0.000000 -0.028225 0.000000
# 6 0.000000 0.000000 0.000000 0.000000 0.000000 0.047239
#
#
# Mechanical properties :
#
#
# Convention : Reuss Voigt Hill
#
# Bulk Modulus (GPa) = 38.45308 44.00956 41.23132
# Shear Modulus (GPa) = 39.56272 14.70289 27.13281
#
# Velocity S-wave (km/s) = 4.55655 2.77776 3.77347
# Velocity P-wave (km/s) = 6.91829 5.77787 6.37364
#
# Compressibility (1/GPa) = 0.02600572
#
# Stress axis : x y z
#
# Youngs Moduli (GPa) = 72.47047 84.07797 51.84764
#
# Poissons Ratio (x) = 0.41501 0.07695
# Poissons Ratio (y) = 0.35771 0.15901
# Poissons Ratio (z) = 0.10755 0.25786
#
# Static dielectric constant tensor:
#      x y z
#    x 3.527450 0.000000 0.000000 
#    y 0.000000 3.742090 0.000000 
#    z 0.000000 0.000000 3.582630 
# 
# 
# High freq. dielectric constant tensor:
#      x y z
#    x 1.724320 0.000000 0.000000 
#    y 0.000000 1.751880 0.000000 
#    z 0.000000 0.000000 1.719060 
# 
# From -- ./inp_files/22851.got.cif
#   From: 2010.03.12/outbox.cif.g09.slc.cpg/sg53_12_cif.got.tgz:22851.got - 2010.04.16 14:36:59.
