data_PCOD8223770
_publ_section_title
;
Structure prediction by ZEFSAII (Michael W. Deem and Ramdas Pophale) SiO2 
 PCOD8223770
Probable space group: P C C A
;
_chemical_formula_sum "Si O2"
_cell_formula_units_Z 32
_cell_length_a 4.960984
_cell_length_b 12.242872
_cell_length_c 23.908871
_cell_angle_alpha 90.000000
_cell_angle_beta 90.000000
_cell_angle_gamma 90.000000
_cell_volume 1452.145737
_symmetry_space_group_name_H-M "P C C A"
_symmetry_group_IT_number 54
_symmetry_cell_setting 'orthorhombic'
loop_
_space_group_symop_operation_xyz
x,y,z
1/2-x,-y,z
1/2+x,-y,1/2-z
-x,y,1/2-z
-x,-y,-z
1/2+x,y,-z
1/2-x,y,1/2+z
x,-y,1/2+z
loop_
_atom_site_type_symbol
_atom_site_label
_atom_site_fract_x
_atom_site_fract_y
_atom_site_fract_z
Si Si1 0.006894 0.705247 0.845567
Si Si2 0.250000 0.000000 0.395541
Si Si3 0.750000 0.500000 0.786838
Si Si4 0.003403 0.834156 0.187513
Si Si5 0.446575 0.198523 0.960686
O O1 0.887635 0.590297 0.826119
O O2 0.805041 0.799693 0.826673
O O3 0.294819 0.731800 0.816737
O O4 0.045291 0.708755 0.912498
O O5 0.059235 0.927319 0.357011
O O6 0.436468 0.922646 0.433943
O O7 0.500000 0.547456 0.750000
O O8 0.000000 0.882475 0.250000
O O9 0.695972 0.217028 0.999991
#
# Coordination Sequence:
#
# PCOD8223770 Si02
#       5
#     8   4   4   8   8
#     4  11  24  42  63  93 123 159 208 252 304 371
#     4  10  24  38  62  92 122 166 216 250 298 370
#     4  12  24  42  70  96 122 158 198 250 312 374
#     4  11  23  40  60  90 131 165 197 250 310 369
#     4  11  23  41  62  87 122 165 209 259 302 348
#
# _framework density 22.036353999999999
#
# number of rings (size 3 to 8) (size 9 to 14) (size 15 to 20)
#    0.000    1.000    0.000    8.250    0.000   12.000 
#    0.000    1.250    0.000    0.000    0.000    0.000 
#    0.000    0.000    0.000    0.000    0.000    0.000 
#
# Total GULP energy -396804.529351 kJ/mol
# GULP energy per Si atom -12400.141542 kJ/mol
# Density = 2.198620 g / cm^3
# Si number density = 22.036354 Si / 1000 Ang^3
#
#
#
# Elastic Constant Matrix: (Units=GPa)
#
#
# Indices 1 2 3 4 5 6 
#
# 1 115.3391 9.3758 61.6744 0.0000 0.0000 0.0000
# 2 9.3758 87.0443 46.6312 0.0000 0.0000 0.0000
# 3 61.6744 46.6312 181.2767 0.0000 0.0000 0.0000
# 4 0.0000 0.0000 0.0000 31.9404 0.0000 0.0000
# 5 0.0000 0.0000 0.0000 0.0000 45.2576 0.0000
# 6 0.0000 0.0000 0.0000 0.0000 0.0000 23.2663
#
#
#
# Elastic Compliance Matrix: (Units=1/GPa)
#
#
# Indices 1 2 3 4 5 6 
#
# 1 0.010662 0.000922 -0.003864 0.000000 0.000000 0.000000
# 2 0.000922 0.013404 -0.003762 0.000000 0.000000 0.000000
# 3 -0.003864 -0.003762 0.007799 0.000000 0.000000 0.000000
# 4 0.000000 0.000000 0.000000 0.031308 0.000000 0.000000
# 5 0.000000 0.000000 0.000000 0.000000 0.022096 0.000000
# 6 0.000000 0.000000 0.000000 0.000000 0.000000 0.042981
#
#
# Mechanical properties :
#
#
# Convention : Reuss Voigt Hill
#
# Bulk Modulus (GPa) = 54.18257 68.78032 61.48145
# Shear Modulus (GPa) = 33.82718 37.82477 35.82597
#
# Velocity S-wave (km/s) = 3.92224 4.14753 4.03645
# Velocity P-wave (km/s) = 6.71961 7.36315 7.04873
#
# Compressibility (1/GPa) = 0.01845612
#
# Stress axis : x y z
#
# Youngs Moduli (GPa) = 93.79497 74.60272 128.22390
#
# Poissons Ratio (x) = -0.06877 0.49551
# Poissons Ratio (y) = -0.08647 0.48235
# Poissons Ratio (z) = 0.36246 0.28064
#
# Static dielectric constant tensor:
#      x y z
#    x 4.155700 0.000000 0.000000 
#    y 0.000000 3.742270 0.000000 
#    z 0.000000 0.000000 4.380590 
# 
# 
# High freq. dielectric constant tensor:
#      x y z
#    x 1.890460 0.000000 0.000000 
#    y 0.000000 1.838130 0.000000 
#    z 0.000000 0.000000 1.885860 
# 
# From -- ./inp_files/19522.got.cif
#   From: 2010.03.12/outbox.cif.g09.slc.cpg/sg54_10_cif.got.tgz:19522.got - 2010.04.16 15:00:50.
