data_PCOD8223853
_publ_section_title
;
Structure prediction by ZEFSAII (Michael W. Deem and Ramdas Pophale) SiO2 
 PCOD8223853
Probable space group: P C C A
;
_chemical_formula_sum "Si O2"
_cell_formula_units_Z 40
_cell_length_a 9.397903
_cell_length_b 13.507574
_cell_length_c 14.163071
_cell_angle_alpha 90.000000
_cell_angle_beta 90.000000
_cell_angle_gamma 90.000000
_cell_volume 1797.900884
_symmetry_space_group_name_H-M "P C C A"
_symmetry_group_IT_number 54
_symmetry_cell_setting 'orthorhombic'
loop_
_space_group_symop_operation_xyz
x,y,z
1/2-x,-y,z
1/2+x,-y,1/2-z
-x,y,1/2-z
-x,-y,-z
1/2+x,y,-z
1/2-x,y,1/2+z
x,-y,1/2+z
loop_
_atom_site_type_symbol
_atom_site_label
_atom_site_fract_x
_atom_site_fract_y
_atom_site_fract_z
Si Si1 0.498033 0.627559 0.432706
Si Si2 0.903874 0.803724 0.037053
Si Si3 0.750000 0.500000 0.491848
Si Si4 0.325277 0.900047 0.573671
Si Si5 0.726711 0.111000 0.218876
Si Si6 0.500000 0.236123 0.750000
O O1 0.526296 0.695110 0.526004
O O2 0.633367 0.553728 0.425101
O O3 0.344818 0.573470 0.442543
O O4 0.492214 0.695042 0.341053
O O5 0.844161 0.817410 0.142384
O O6 0.027110 0.885490 0.017994
O O7 0.782013 0.812978 0.958032
O O8 0.365242 0.897631 0.684784
O O9 0.250000 0.000000 0.540454
O O10 0.870211 0.160998 0.253923
O O11 0.750000 0.000000 0.177107
#
# Coordination Sequence:
#
# PCOD8223853 Si02
#       6
#     8   8   4   8   8   4
#     4  11  24  44  73  96 136 167 230 280 360 410
#     4  12  23  43  67 100 131 193 223 283 337 408
#     4  10  24  48  70 100 124 174 214 296 358 426
#     4  11  24  39  63  95 140 182 237 275 324 386
#     4  11  26  40  65  99 147 184 236 277 326 385
#     4  12  24  44  68 104 136 182 224 292 328 412
#
# _framework density 22.248166000000001
#
# number of rings (size 3 to 8) (size 9 to 14) (size 15 to 20)
#    0.000    0.800    2.000    5.400    5.600    0.800 
#    0.000    0.000    0.000    0.000    0.000    0.000 
#    0.000    0.000    0.000    0.000    0.000    0.000 
#
# Total GULP energy -495877.757924 kJ/mol
# GULP energy per Si atom -12396.943948 kJ/mol
# Density = 2.219753 g / cm^3
# Si number density = 22.248166 Si / 1000 Ang^3
#
#
#
# Elastic Constant Matrix: (Units=GPa)
#
#
# Indices 1 2 3 4 5 6 
#
# 1 104.6353 18.5847 22.4271 0.0000 0.0000 0.0000
# 2 18.5847 75.3432 26.4058 0.0000 0.0000 0.0000
# 3 22.4271 26.4058 84.1734 0.0000 0.0000 0.0000
# 4 0.0000 0.0000 0.0000 23.7003 0.0000 0.0000
# 5 0.0000 0.0000 0.0000 0.0000 30.5759 0.0000
# 6 0.0000 0.0000 0.0000 0.0000 0.0000 46.0632
#
#
#
# Elastic Compliance Matrix: (Units=1/GPa)
#
#
# Indices 1 2 3 4 5 6 
#
# 1 0.010344 -0.001782 -0.002197 0.000000 0.000000 0.000000
# 2 -0.001782 0.015219 -0.004300 0.000000 0.000000 0.000000
# 3 -0.002197 -0.004300 0.013815 0.000000 0.000000 0.000000
# 4 0.000000 0.000000 0.000000 0.042194 0.000000 0.000000
# 5 0.000000 0.000000 0.000000 0.000000 0.032705 0.000000
# 6 0.000000 0.000000 0.000000 0.000000 0.000000 0.021709
#
#
# Mechanical properties :
#
#
# Convention : Reuss Voigt Hill
#
# Bulk Modulus (GPa) = 43.81933 44.33189 44.07561
# Shear Modulus (GPa) = 31.22073 33.18351 32.20212
#
# Velocity S-wave (km/s) = 3.75012 3.86621 3.80861
# Velocity P-wave (km/s) = 6.20400 6.31660 6.26055
#
# Compressibility (1/GPa) = 0.02282098
#
# Stress axis : x y z
#
# Youngs Moduli (GPa) = 96.67079 65.70749 72.38769
#
# Poissons Ratio (x) = 0.11706 0.15905
# Poissons Ratio (y) = 0.17222 0.31124
# Poissons Ratio (z) = 0.21241 0.28252
#
# Static dielectric constant tensor:
#      x y z
#    x 4.254160 0.000000 0.000000 
#    y 0.000000 4.109190 0.000000 
#    z 0.000000 0.000000 3.790600 
# 
# 
# High freq. dielectric constant tensor:
#      x y z
#    x 1.899680 0.000000 0.000000 
#    y 0.000000 1.874370 0.000000 
#    z 0.000000 0.000000 1.861330 
# 
# From -- ./inp_files/11530.got.cif
#   From: 2010.03.12/outbox.cif.g09.slc.cpg/sg54_6_cif.got.tgz:11530.got - 2010.04.16 15:00:50.
