data_PCOD8223096
_publ_section_title
;
Structure prediction by ZEFSAII (Michael W. Deem and Ramdas Pophale) SiO2 
 PCOD8223096
Probable space group: P C C A
;
_chemical_formula_sum "Si O2"
_cell_formula_units_Z 32
_cell_length_a 14.841515
_cell_length_b 8.966060
_cell_length_c 11.136229
_cell_angle_alpha 90.000000
_cell_angle_beta 90.000000
_cell_angle_gamma 90.000000
_cell_volume 1481.897035
_symmetry_space_group_name_H-M "P C C A"
_symmetry_group_IT_number 54
_symmetry_cell_setting 'orthorhombic'
loop_
_space_group_symop_operation_xyz
x,y,z
1/2-x,-y,z
1/2+x,-y,1/2-z
-x,y,1/2-z
-x,-y,-z
1/2+x,y,-z
1/2-x,y,1/2+z
x,-y,1/2+z
loop_
_atom_site_type_symbol
_atom_site_label
_atom_site_fract_x
_atom_site_fract_y
_atom_site_fract_z
Si Si1 0.627833 0.239609 0.943748
Si Si2 0.349103 0.497022 0.719763
Si Si3 0.500000 0.707669 0.250000
Si Si4 0.598186 0.811980 0.719255
Si Si5 0.750000 0.000000 0.832862
O O1 0.657399 0.409117 0.908794
O O2 0.540027 0.194784 0.860673
O O3 0.709869 0.127764 0.917706
O O4 0.601425 0.234521 0.081051
O O5 0.250000 0.500000 0.780748
O O6 0.419190 0.400113 0.800744
O O7 0.384619 0.664504 0.700737
O O8 0.500000 0.877303 0.750000
O O9 0.672279 0.936596 0.746710
#
# Coordination Sequence:
#
# PCOD8223096 Si02
#       5
#     8   8   4   8   4
#     4  10  24  46  66  99 139 176 222 292 331 406
#     4  10  20  43  68 102 128 174 226 279 342 395
#     4   8  20  42  68  96 134 168 224 286 344 382
#     4  12  25  45  74 103 133 184 233 275 350 411
#     4  12  26  48  62 104 140 186 232 276 346 406
#
# _framework density 21.593944
#
# number of rings (size 3 to 8) (size 9 to 14) (size 15 to 20)
#    1.500    0.000    3.750    0.750    1.750    6.000 
#    9.000    0.000    0.000    0.000    0.000    0.000 
#    0.000    0.000    0.000    0.000    0.000    0.000 
#
# Total GULP energy -396462.592433 kJ/mol
# GULP energy per Si atom -12389.456014 kJ/mol
# Density = 2.154479 g / cm^3
# Si number density = 21.593944 Si / 1000 Ang^3
#
#
#
# Elastic Constant Matrix: (Units=GPa)
#
#
# Indices 1 2 3 4 5 6 
#
# 1 175.1148 46.0539 50.2299 0.0000 0.0000 0.0000
# 2 46.0539 99.1944 51.7538 0.0000 0.0000 0.0000
# 3 50.2299 51.7538 103.0794 0.0000 0.0000 0.0000
# 4 0.0000 0.0000 0.0000 13.0752 0.0000 0.0000
# 5 0.0000 0.0000 0.0000 0.0000 24.3122 0.0000
# 6 0.0000 0.0000 0.0000 0.0000 0.0000 48.2506
#
#
#
# Elastic Compliance Matrix: (Units=1/GPa)
#
#
# Indices 1 2 3 4 5 6 
#
# 1 0.006910 -0.001967 -0.002380 0.000000 0.000000 0.000000
# 2 -0.001967 0.014219 -0.006181 0.000000 0.000000 0.000000
# 3 -0.002380 -0.006181 0.013964 0.000000 0.000000 0.000000
# 4 0.000000 0.000000 0.000000 0.076480 0.000000 0.000000
# 5 0.000000 0.000000 0.000000 0.000000 0.041132 0.000000
# 6 0.000000 0.000000 0.000000 0.000000 0.000000 0.020725
#
#
# Mechanical properties :
#
#
# Convention : Reuss Voigt Hill
#
# Bulk Modulus (GPa) = 71.23035 74.82932 73.02984
# Shear Modulus (GPa) = 25.10478 32.41767 28.76123
#
# Velocity S-wave (km/s) = 3.41337 3.87879 3.65350
# Velocity P-wave (km/s) = 6.97084 7.40190 7.18960
#
# Compressibility (1/GPa) = 0.01403896
#
# Stress axis : x y z
#
# Youngs Moduli (GPa) = 144.70888 70.32838 71.61158
#
# Poissons Ratio (x) = 0.13831 0.17044
# Poissons Ratio (y) = 0.28459 0.44261
# Poissons Ratio (z) = 0.34441 0.43468
#
# Static dielectric constant tensor:
#      x y z
#    x 4.147410 0.000000 0.000000 
#    y 0.000000 3.843210 0.000000 
#    z 0.000000 0.000000 3.317010 
# 
# 
# High freq. dielectric constant tensor:
#      x y z
#    x 1.867780 0.000000 0.000000 
#    y 0.000000 1.849290 0.000000 
#    z 0.000000 0.000000 1.800790 
# 
# From -- ./inp_files/8098.got.cif
#   From: 2010.03.12/outbox.cif.g09.slc.cpg/sg54_5_cif.got.tgz:8098.got - 2010.04.16 15:00:50.
