data_PCOD8223618
_publ_section_title
;
Structure prediction by ZEFSAII (Michael W. Deem and Ramdas Pophale) SiO2 
 PCOD8223618
Probable space group: P C C A
;
_chemical_formula_sum "Si O2"
_cell_formula_units_Z 40
_cell_length_a 11.417912
_cell_length_b 5.932734
_cell_length_c 25.976618
_cell_angle_alpha 90.000000
_cell_angle_beta 90.000000
_cell_angle_gamma 90.000000
_cell_volume 1759.641420
_symmetry_space_group_name_H-M "P C C A"
_symmetry_group_IT_number 54
_symmetry_cell_setting 'orthorhombic'
loop_
_space_group_symop_operation_xyz
x,y,z
1/2-x,-y,z
1/2+x,-y,1/2-z
-x,y,1/2-z
-x,-y,-z
1/2+x,y,-z
1/2-x,y,1/2+z
x,-y,1/2+z
loop_
_atom_site_type_symbol
_atom_site_label
_atom_site_fract_x
_atom_site_fract_y
_atom_site_fract_z
Si Si1 0.950351 0.810617 0.303591
Si Si2 0.250000 0.000000 0.440479
Si Si3 0.866163 0.129666 0.391047
Si Si4 0.361875 0.623314 0.872291
Si Si5 0.250000 0.500000 0.669374
Si Si6 0.547563 0.314471 0.540003
O O1 0.828242 0.671340 0.296091
O O2 0.000000 0.910532 0.250000
O O3 0.053286 0.654097 0.324402
O O4 0.933117 0.006574 0.344763
O O5 0.332633 0.149273 0.403693
O O6 0.163509 0.163323 0.475207
O O7 0.837548 0.374676 0.369215
O O8 0.942803 0.145315 0.443456
O O9 0.750000 0.000000 0.408095
O O10 0.250000 0.500000 0.848227
O O11 0.422638 0.447912 0.909357
O O12 0.500000 0.500000 0.500000
#
# Coordination Sequence:
#
# PCOD8223618 Si02
#       6
#     8   4   8   8   4   8
#     4  11  23  41  68 101 138 182 224 277 337 404
#     4  10  22  46  68  96 140 172 226 284 348 406
#     4  10  22  45  67  97 139 179 228 283 342 410
#     4  10  22  43  65  98 136 175 222 279 332 399
#     4  10  22  44  64  98 138 176 232 276 340 406
#     4  11  23  45  71  99 133 179 233 282 349 417
#
# _framework density 22.731905999999999
#
# number of rings (size 3 to 8) (size 9 to 14) (size 15 to 20)
#    0.000    1.600    4.000    0.000    1.400    1.600 
#   12.600    0.000    0.000    0.000    0.000    0.000 
#    0.000    0.000    0.000    0.000    0.000    0.000 
#
# Total GULP energy -495703.483496 kJ/mol
# GULP energy per Si atom -12392.587087 kJ/mol
# Density = 2.268017 g / cm^3
# Si number density = 22.731906 Si / 1000 Ang^3
#
#
#
# Elastic Constant Matrix: (Units=GPa)
#
#
# Indices 1 2 3 4 5 6 
#
# 1 143.6573 45.4026 62.8063 0.0000 0.0000 0.0000
# 2 45.4026 93.9025 33.0136 0.0000 0.0000 0.0000
# 3 62.8063 33.0136 86.6376 0.0000 0.0000 0.0000
# 4 0.0000 0.0000 0.0000 20.4637 0.0000 0.0000
# 5 0.0000 0.0000 0.0000 0.0000 21.7939 0.0000
# 6 0.0000 0.0000 0.0000 0.0000 0.0000 40.6888
#
#
#
# Elastic Compliance Matrix: (Units=1/GPa)
#
#
# Indices 1 2 3 4 5 6 
#
# 1 0.010816 -0.002855 -0.006752 0.000000 0.000000 0.000000
# 2 -0.002855 0.013051 -0.002903 0.000000 0.000000 0.000000
# 3 -0.006752 -0.002903 0.017544 0.000000 0.000000 0.000000
# 4 0.000000 0.000000 0.000000 0.048867 0.000000 0.000000
# 5 0.000000 0.000000 0.000000 0.000000 0.045884 0.000000
# 6 0.000000 0.000000 0.000000 0.000000 0.000000 0.024577
#
#
# Mechanical properties :
#
#
# Convention : Reuss Voigt Hill
#
# Bulk Modulus (GPa) = 61.02034 67.40471 64.21253
# Shear Modulus (GPa) = 26.14755 28.78761 27.46758
#
# Velocity S-wave (km/s) = 3.39522 3.56251 3.47987
# Velocity P-wave (km/s) = 6.50168 6.82923 6.66746
#
# Compressibility (1/GPa) = 0.01638798
#
# Stress axis : x y z
#
# Youngs Moduli (GPa) = 92.45887 76.62497 57.00080
#
# Poissons Ratio (x) = 0.21880 0.38490
# Poissons Ratio (y) = 0.26401 0.16547
# Poissons Ratio (z) = 0.62433 0.22244
#
# Static dielectric constant tensor:
#      x y z
#    x 4.755420 0.000000 0.000000 
#    y 0.000000 4.069500 0.000000 
#    z 0.000000 0.000000 3.576610 
# 
# 
# High freq. dielectric constant tensor:
#      x y z
#    x 1.923970 0.000000 0.000000 
#    y 0.000000 1.905720 0.000000 
#    z 0.000000 0.000000 1.858640 
# 
# From -- ./inp_files/26118.got.cif
#   From: 2010.03.12/outbox.cif.g09.slc.cpg/sg54_14_cif.got.tgz:26118.got - 2010.04.16 15:00:50.
