data_PCOD8223313
_publ_section_title
;
Structure prediction by ZEFSAII (Michael W. Deem and Ramdas Pophale) SiO2 
 PCOD8223313
Probable space group: P C C A
;
_chemical_formula_sum "Si O2"
_cell_formula_units_Z 32
_cell_length_a 5.481238
_cell_length_b 8.685680
_cell_length_c 30.816355
_cell_angle_alpha 90.000000
_cell_angle_beta 90.000000
_cell_angle_gamma 90.000000
_cell_volume 1467.113635
_symmetry_space_group_name_H-M "P C C A"
_symmetry_group_IT_number 54
_symmetry_cell_setting 'orthorhombic'
loop_
_space_group_symop_operation_xyz
x,y,z
1/2-x,-y,z
1/2+x,-y,1/2-z
-x,y,1/2-z
-x,-y,-z
1/2+x,y,-z
1/2-x,y,1/2+z
x,-y,1/2+z
loop_
_atom_site_type_symbol
_atom_site_label
_atom_site_fract_x
_atom_site_fract_y
_atom_site_fract_z
Si Si1 0.750000 0.500000 0.473307
Si Si2 0.500000 0.909635 0.750000
Si Si3 0.250000 0.500000 0.872246
Si Si4 0.575562 0.257660 0.911440
Si Si5 0.455768 0.761533 0.659604
Si Si6 0.750000 0.000000 0.103520
O O1 0.500000 0.500000 0.500000
O O2 0.739565 0.338313 0.445642
O O3 0.422932 0.805603 0.709397
O O4 0.750000 0.000000 0.738203
O O5 0.367221 0.383064 0.905950
O O6 0.444483 0.586760 0.841717
O O7 0.697247 0.227789 0.864580
O O8 0.452291 0.092669 0.925789
O O9 0.637911 0.873583 0.634865
#
# Coordination Sequence:
#
# PCOD8223313 Si02
#       6
#     4   4   4   8   8   4
#     4  12  27  46  73 106 138 184 232 297 366 435
#     4  12  26  44  64 102 146 186 236 292 342 402
#     4  10  21  40  67  98 130 182 236 281 338 425
#     4  11  22  44  70 101 136 184 233 288 357 436
#     4  11  22  42  68  99 138 187 234 284 349 414
#     4  10  22  38  72  98 134 188 234 276 348 428
#
# _framework density 21.811533000000001
#
# number of rings (size 3 to 8) (size 9 to 14) (size 15 to 20)
#    0.000    1.000    3.750    3.000    7.000    0.000 
#    4.500    1.250    0.000    0.000    0.000    0.000 
#    0.000    0.000    0.000    0.000    0.000    0.000 
#
# Total GULP energy -396524.219396 kJ/mol
# GULP energy per Si atom -12391.381856 kJ/mol
# Density = 2.176189 g / cm^3
# Si number density = 21.811533 Si / 1000 Ang^3
#
#
#
# Elastic Constant Matrix: (Units=GPa)
#
#
# Indices 1 2 3 4 5 6 
#
# 1 124.1369 46.3806 42.2062 0.0000 0.0000 0.0000
# 2 46.3806 125.0879 38.6652 0.0000 0.0000 0.0000
# 3 42.2062 38.6652 106.2440 0.0000 0.0000 0.0000
# 4 0.0000 0.0000 0.0000 21.9501 0.0000 0.0000
# 5 0.0000 0.0000 0.0000 0.0000 31.6450 0.0000
# 6 0.0000 0.0000 0.0000 0.0000 0.0000 48.1739
#
#
#
# Elastic Compliance Matrix: (Units=1/GPa)
#
#
# Indices 1 2 3 4 5 6 
#
# 1 0.010131 -0.002831 -0.002995 0.000000 0.000000 0.000000
# 2 -0.002831 0.009799 -0.002441 0.000000 0.000000 0.000000
# 3 -0.002995 -0.002441 0.011490 0.000000 0.000000 0.000000
# 4 0.000000 0.000000 0.000000 0.045558 0.000000 0.000000
# 5 0.000000 0.000000 0.000000 0.000000 0.031601 0.000000
# 6 0.000000 0.000000 0.000000 0.000000 0.000000 0.020758
#
#
# Mechanical properties :
#
#
# Convention : Reuss Voigt Hill
#
# Bulk Modulus (GPa) = 67.17376 67.77475 67.47426
# Shear Modulus (GPa) = 33.14921 35.56826 34.35873
#
# Velocity S-wave (km/s) = 3.90269 4.04258 3.97325
# Velocity P-wave (km/s) = 7.15348 7.27532 7.21466
#
# Compressibility (1/GPa) = 0.01488676
#
# Stress axis : x y z
#
# Youngs Moduli (GPa) = 98.70229 102.05433 87.02920
#
# Poissons Ratio (x) = 0.28891 0.26061
# Poissons Ratio (y) = 0.27942 0.21247
# Poissons Ratio (z) = 0.29557 0.24916
#
# Static dielectric constant tensor:
#      x y z
#    x 4.273410 0.000000 0.000000 
#    y 0.000000 4.747630 0.000000 
#    z 0.000000 0.000000 3.770580 
# 
# 
# High freq. dielectric constant tensor:
#      x y z
#    x 1.877450 0.000000 0.000000 
#    y 0.000000 1.869120 0.000000 
#    z 0.000000 0.000000 1.820960 
# 
# From -- ./inp_files/26909.got.cif
#   From: 2010.03.12/outbox.cif.g09.slc.cpg/sg54_14_cif.got.tgz:26909.got - 2010.04.16 15:00:50.
