data_PCOD8223431
_publ_section_title
;
Structure prediction by ZEFSAII (Michael W. Deem and Ramdas Pophale) SiO2 
 PCOD8223431
Probable space group: P C C A
;
_chemical_formula_sum "Si O2"
_cell_formula_units_Z 52
_cell_length_a 24.288684
_cell_length_b 12.551186
_cell_length_c 8.902459
_cell_angle_alpha 90.000000
_cell_angle_beta 90.000000
_cell_angle_gamma 90.000000
_cell_volume 2713.930567
_symmetry_space_group_name_H-M "P C C A"
_symmetry_group_IT_number 54
_symmetry_cell_setting 'orthorhombic'
loop_
_space_group_symop_operation_xyz
x,y,z
1/2-x,-y,z
1/2+x,-y,1/2-z
-x,y,1/2-z
-x,-y,-z
1/2+x,y,-z
1/2-x,y,1/2+z
x,-y,1/2+z
loop_
_atom_site_type_symbol
_atom_site_label
_atom_site_fract_x
_atom_site_fract_y
_atom_site_fract_z
Si Si1 0.958821 0.465835 0.867948
Si Si2 0.914951 0.359530 0.135812
Si Si3 0.943044 0.050073 0.450547
Si Si4 0.628696 0.039066 0.215975
Si Si5 0.000000 0.211820 0.250000
Si Si6 0.824455 0.813148 0.659126
Si Si7 0.268081 0.882282 0.631538
O O1 0.926551 0.556386 0.771348
O O2 0.000000 0.404253 0.750000
O O3 0.912016 0.402028 0.962133
O O4 0.000000 0.500000 0.000000
O O5 0.967484 0.281807 0.129488
O O6 0.858928 0.295976 0.171099
O O7 0.907872 0.096850 0.588974
O O8 0.953940 0.144762 0.335951
O O9 0.906384 0.959721 0.369406
O O10 0.000000 0.000000 0.500000
O O11 0.685353 0.102488 0.239523
O O12 0.637504 0.917406 0.163702
O O13 0.782646 0.817392 0.799291
O O14 0.790303 0.812400 0.504844
O O15 0.250000 0.000000 0.573686
#
# Coordination Sequence:
#
# PCOD8223431 Si02
#       7
#     8   8   8   8   4   8   8
#     4   9  18  38  65  86 119 147 181 238 313 385
#     4  11  21  40  63  91 116 154 190 249 314 367
#     4  12  21  35  52  84 131 174 196 237 289 348
#     4  11  21  36  56  81 124 172 204 237 292 337
#     4  12  22  34  58  84 130 160 198 234 288 362
#     4  11  22  38  60  85 114 154 215 253 284 350
#     4  10  22  38  60  85 117 165 210 251 286 327
#
# _framework density 19.160399999999999
#
# number of rings (size 3 to 8) (size 9 to 14) (size 15 to 20)
#    0.000    1.231    6.923    1.385    2.154    0.000 
#    2.769    3.077    0.000    2.769    0.000    0.000 
#    0.000    0.000    0.000    0.000    0.000    0.000 
#
# Total GULP energy -644320.194872 kJ/mol
# GULP energy per Si atom -12390.772978 kJ/mol
# Density = 1.911679 g / cm^3
# Si number density = 19.160400 Si / 1000 Ang^3
#
#
#
# Elastic Constant Matrix: (Units=GPa)
#
#
# Indices 1 2 3 4 5 6 
#
# 1 103.8382 38.8018 43.5052 0.0000 0.0000 0.0000
# 2 38.8018 63.4460 34.6789 0.0000 0.0000 0.0000
# 3 43.5052 34.6789 116.4400 0.0000 0.0000 0.0000
# 4 0.0000 0.0000 0.0000 16.2773 0.0000 0.0000
# 5 0.0000 0.0000 0.0000 0.0000 40.8927 0.0000
# 6 0.0000 0.0000 0.0000 0.0000 0.0000 35.7404
#
#
#
# Elastic Compliance Matrix: (Units=1/GPa)
#
#
# Indices 1 2 3 4 5 6 
#
# 1 0.013332 -0.006487 -0.003049 0.000000 0.000000 0.000000
# 2 -0.006487 0.021982 -0.004123 0.000000 0.000000 0.000000
# 3 -0.003049 -0.004123 0.010955 0.000000 0.000000 0.000000
# 4 0.000000 0.000000 0.000000 0.061435 0.000000 0.000000
# 5 0.000000 0.000000 0.000000 0.000000 0.024454 0.000000
# 6 0.000000 0.000000 0.000000 0.000000 0.000000 0.027980
#
#
# Mechanical properties :
#
#
# Convention : Reuss Voigt Hill
#
# Bulk Modulus (GPa) = 52.76748 57.52178 55.14463
# Shear Modulus (GPa) = 25.80328 29.69797 27.75063
#
# Velocity S-wave (km/s) = 3.67372 3.94123 3.80982
# Velocity P-wave (km/s) = 6.75238 7.12723 6.94234
#
# Compressibility (1/GPa) = 0.01895107
#
# Stress axis : x y z
#
# Youngs Moduli (GPa) = 75.00851 45.49124 91.27905
#
# Poissons Ratio (x) = 0.29509 0.27833
# Poissons Ratio (y) = 0.48656 0.37637
# Poissons Ratio (z) = 0.22872 0.18757
#
# Static dielectric constant tensor:
#      x y z
#    x 3.667720 0.000000 0.000000 
#    y 0.000000 3.439690 0.000000 
#    z 0.000000 0.000000 3.853680 
# 
# 
# High freq. dielectric constant tensor:
#      x y z
#    x 1.753530 0.000000 0.000000 
#    y 0.000000 1.689150 0.000000 
#    z 0.000000 0.000000 1.765580 
# 
# From -- ./inp_files/5547.got.cif
#   From: 2010.03.12/outbox.cif.g09.slc.cpg/sg54_3_cif.got.tgz:5547.got - 2010.04.16 15:00:50.
