data_PCOD8223143
_publ_section_title
;
Structure prediction by ZEFSAII (Michael W. Deem and Ramdas Pophale) SiO2 
 PCOD8223143
Probable space group: P C C A
;
_chemical_formula_sum "Si O2"
_cell_formula_units_Z 64
_cell_length_a 27.147158
_cell_length_b 12.165734
_cell_length_c 9.454810
_cell_angle_alpha 90.000000
_cell_angle_beta 90.000000
_cell_angle_gamma 90.000000
_cell_volume 3122.593799
_symmetry_space_group_name_H-M "P C C A"
_symmetry_group_IT_number 54
_symmetry_cell_setting 'orthorhombic'
loop_
_space_group_symop_operation_xyz
x,y,z
1/2-x,-y,z
1/2+x,-y,1/2-z
-x,y,1/2-z
-x,-y,-z
1/2+x,y,-z
1/2-x,y,1/2+z
x,-y,1/2+z
loop_
_atom_site_type_symbol
_atom_site_label
_atom_site_fract_x
_atom_site_fract_y
_atom_site_fract_z
Si Si1 0.357435 0.511200 0.543785
Si Si2 0.203822 0.574249 0.792418
Si Si3 0.189162 0.878374 0.023789
Si Si4 0.445485 0.068803 0.194956
Si Si5 0.605837 0.269506 0.396675
Si Si6 0.743715 0.209508 0.202878
Si Si7 0.111396 0.062007 0.981902
Si Si8 0.854115 0.715024 0.086882
O O1 0.340219 0.477085 0.699842
O O2 0.312620 0.567133 0.456311
O O3 0.401621 0.603564 0.551882
O O4 0.374964 0.399877 0.470212
O O5 0.250000 0.500000 0.762891
O O6 0.217271 0.698308 0.743526
O O7 0.227296 0.877076 0.894696
O O8 0.147085 0.785793 0.002842
O O9 0.218207 0.859267 0.171615
O O10 0.161198 0.994959 0.018096
O O11 0.500000 0.052319 0.250000
O O12 0.441641 0.188686 0.114829
O O13 0.405257 0.052026 0.318451
O O14 0.433939 0.974483 0.080590
O O15 0.626499 0.272063 0.241840
O O16 0.705139 0.275201 0.101206
O O17 0.124452 0.188833 0.013385
#
# Coordination Sequence:
#
# PCOD8223143 Si02
#       8
#     8   8   8   8   8   8   8   8
#     4  12  20  35  55  79 115 159 207 249 304 334
#     4  12  22  30  52  78 113 160 218 262 276 329
#     4  10  21  37  56  80 118 165 205 254 291 344
#     4  10  21  42  73  95 113 145 194 257 322 398
#     4   9  19  38  57  86 118 149 196 252 313 359
#     4  11  21  35  53  81 118 167 221 251 286 327
#     4  10  23  42  63  88 124 153 197 248 317 376
#     4  10  21  36  54  81 119 165 198 248 293 344
#
# _framework density 20.495781999999998
#
# number of rings (size 3 to 8) (size 9 to 14) (size 15 to 20)
#    0.000    1.500    3.750    3.000    0.000    2.500 
#    0.000    5.000    0.000    3.750    0.000    0.000 
#    0.000    0.000    0.000    0.000    0.000    0.000 
#
# Total GULP energy -793010.868445 kJ/mol
# GULP energy per Si atom -12390.794819 kJ/mol
# Density = 2.044913 g / cm^3
# Si number density = 20.495782 Si / 1000 Ang^3
#
#
#
# Elastic Constant Matrix: (Units=GPa)
#
#
# Indices 1 2 3 4 5 6 
#
# 1 39.8811 32.8481 18.3773 0.0000 0.0000 0.0000
# 2 32.8481 126.6908 17.9693 0.0000 0.0000 0.0000
# 3 18.3773 17.9693 53.7415 0.0000 0.0000 0.0000
# 4 0.0000 0.0000 0.0000 6.6001 0.0000 0.0000
# 5 0.0000 0.0000 0.0000 0.0000 19.9009 0.0000
# 6 0.0000 0.0000 0.0000 0.0000 0.0000 17.8415
#
#
#
# Elastic Compliance Matrix: (Units=1/GPa)
#
#
# Indices 1 2 3 4 5 6 
#
# 1 0.036116 -0.007991 -0.009678 0.000000 0.000000 0.000000
# 2 -0.007991 0.010054 -0.000629 0.000000 0.000000 0.000000
# 3 -0.009678 -0.000629 0.022128 0.000000 0.000000 0.000000
# 4 0.000000 0.000000 0.000000 0.151513 0.000000 0.000000
# 5 0.000000 0.000000 0.000000 0.000000 0.050249 0.000000
# 6 0.000000 0.000000 0.000000 0.000000 0.000000 0.056049
#
#
# Mechanical properties :
#
#
# Convention : Reuss Voigt Hill
#
# Bulk Modulus (GPa) = 31.54497 39.85589 35.70043
# Shear Modulus (GPa) = 13.39496 18.94307 16.16902
#
# Velocity S-wave (km/s) = 2.55923 3.04343 2.81177
# Velocity P-wave (km/s) = 4.91500 5.64253 5.29128
#
# Compressibility (1/GPa) = 0.03170078
#
# Stress axis : x y z
#
# Youngs Moduli (GPa) = 27.68818 99.45823 45.19263
#
# Poissons Ratio (x) = 0.79482 0.43739
# Poissons Ratio (y) = 0.22127 0.02843
# Poissons Ratio (z) = 0.26797 0.06257
#
# Static dielectric constant tensor:
#      x y z
#    x 3.501170 0.000000 0.000000 
#    y 0.000000 5.032960 0.000000 
#    z 0.000000 0.000000 3.969230 
# 
# 
# High freq. dielectric constant tensor:
#      x y z
#    x 1.746180 0.000000 0.000000 
#    y 0.000000 1.815260 0.000000 
#    z 0.000000 0.000000 1.803220 
# 
# From -- ./inp_files/5971.got.cif
#   From: 2010.03.12/outbox.cif.g09.slc.cpg/sg54_3_cif.got.tgz:5971.got - 2010.04.16 15:00:50.
