data_PCOD8223515
_publ_section_title
;
Structure prediction by ZEFSAII (Michael W. Deem and Ramdas Pophale) SiO2 
 PCOD8223515
Probable space group: P C C A
;
_chemical_formula_sum "Si O2"
_cell_formula_units_Z 44
_cell_length_a 4.985611
_cell_length_b 14.222876
_cell_length_c 30.162235
_cell_angle_alpha 90.000000
_cell_angle_beta 90.000000
_cell_angle_gamma 90.000000
_cell_volume 2138.795851
_symmetry_space_group_name_H-M "P C C A"
_symmetry_group_IT_number 54
_symmetry_cell_setting 'orthorhombic'
loop_
_space_group_symop_operation_xyz
x,y,z
1/2-x,-y,z
1/2+x,-y,1/2-z
-x,y,1/2-z
-x,-y,-z
1/2+x,y,-z
1/2-x,y,1/2+z
x,-y,1/2+z
loop_
_atom_site_type_symbol
_atom_site_label
_atom_site_fract_x
_atom_site_fract_y
_atom_site_fract_z
Si Si1 0.250324 0.393378 0.280928
Si Si2 0.828795 0.736656 0.637072
Si Si3 0.707633 0.860720 0.471271
Si Si4 0.012736 0.940123 0.619898
Si Si5 0.810597 0.312526 0.917653
Si Si6 0.750000 0.500000 0.468349
O O1 0.250000 0.500000 0.300806
O O2 0.500000 0.377029 0.250000
O O3 0.269268 0.314852 0.318841
O O4 0.000000 0.374465 0.250000
O O5 0.596092 0.727520 0.599788
O O6 0.915253 0.845671 0.645378
O O7 0.097387 0.684503 0.621971
O O8 0.498257 0.886492 0.509708
O O9 0.649767 0.917741 0.426982
O O10 0.702601 0.750936 0.458286
O O11 0.250000 0.000000 0.645510
O O12 0.750000 0.000000 0.612389
O O13 0.818126 0.416429 0.935391
O O14 0.500000 0.500000 0.500000
#
# Coordination Sequence:
#
# PCOD8223515 Si02
#       6
#     8   8   8   8   8   4
#     4  10  22  40  66  99 130 158 191 242 305 374
#     4  11  23  41  64  89 124 161 201 250 308 371
#     4  11  21  36  55  78 115 153 201 262 312 353
#     4  11  23  39  59  87 118 158 210 257 312 366
#     4  11  23  37  58  85 117 166 209 253 302 366
#     4  12  24  38  56  82 120 166 216 260 300 352
#
# _framework density 20.572324999999999
#
# number of rings (size 3 to 8) (size 9 to 14) (size 15 to 20)
#    0.000    1.091    0.000    8.727    2.545    2.182 
#    0.000    0.000    0.000    2.182    0.000    0.000 
#    0.000    0.000    0.000    0.000    0.000    0.000 
#
# Total GULP energy -545378.875489 kJ/mol
# GULP energy per Si atom -12394.974443 kJ/mol
# Density = 2.052550 g / cm^3
# Si number density = 20.572325 Si / 1000 Ang^3
#
#
#
# Elastic Constant Matrix: (Units=GPa)
#
#
# Indices 1 2 3 4 5 6 
#
# 1 142.5956 59.4892 24.6256 0.0000 0.0000 0.0000
# 2 59.4892 162.7616 57.6122 0.0000 0.0000 0.0000
# 3 24.6256 57.6122 63.7923 0.0000 0.0000 0.0000
# 4 0.0000 0.0000 0.0000 4.8933 0.0000 0.0000
# 5 0.0000 0.0000 0.0000 0.0000 -12.1966 0.0000
# 6 0.0000 0.0000 0.0000 0.0000 0.0000 36.9993
#
#
#
# Elastic Compliance Matrix: (Units=1/GPa)
#
#
# Indices 1 2 3 4 5 6 
#
# 1 0.008295 -0.002790 -0.000682 0.000000 0.000000 0.000000
# 2 -0.002790 0.009970 -0.007927 0.000000 0.000000 0.000000
# 3 -0.000682 -0.007927 0.023098 0.000000 0.000000 0.000000
# 4 0.000000 0.000000 0.000000 0.204362 0.000000 0.000000
# 5 0.000000 0.000000 0.000000 0.000000 -0.081990 0.000000
# 6 0.000000 0.000000 0.000000 0.000000 0.000000 0.027028
#
#
# Mechanical properties :
#
#
# Convention : Reuss Voigt Hill
#
# Bulk Modulus (GPa) = 53.86688 72.51151 63.18919
# Shear Modulus (GPa) = 22.75334 21.10069 21.92702
#
# Velocity S-wave (km/s) = 3.32929 3.20610 3.26828
# Velocity P-wave (km/s) = 6.40468 7.00208 6.71003
#
# Compressibility (1/GPa) = 0.01856428
#
# Stress axis : x y z
#
# Youngs Moduli (GPa) = 120.55894 100.30551 43.29417
#
# Poissons Ratio (x) = 0.27988 0.02953
# Poissons Ratio (y) = 0.33639 0.34317
# Poissons Ratio (z) = 0.08222 0.79508
#
# Static dielectric constant tensor:
#      x y z
#    x 4.043440 0.000000 0.000000 
#    y 0.000000 3.988510 0.000000 
#    z 0.000000 0.000000 3.305380 
# 
# 
# High freq. dielectric constant tensor:
#      x y z
#    x 1.834390 0.000000 0.000000 
#    y 0.000000 1.819910 0.000000 
#    z 0.000000 0.000000 1.765950 
# 
# From -- ./inp_files/25302.got.cif
#   From: 2010.03.12/outbox.cif.g09.slc.cpg/sg54_13_cif.got.tgz:25302.got - 2010.04.16 15:00:50.
