data_PCOD8223852
_publ_section_title
;
Structure prediction by ZEFSAII (Michael W. Deem and Ramdas Pophale) SiO2 
 PCOD8223852
Probable space group: P C C A
;
_chemical_formula_sum "Si O2"
_cell_formula_units_Z 32
_cell_length_a 13.058371
_cell_length_b 9.566991
_cell_length_c 11.071785
_cell_angle_alpha 90.000000
_cell_angle_beta 90.000000
_cell_angle_gamma 90.000000
_cell_volume 1383.190547
_symmetry_space_group_name_H-M "P C C A"
_symmetry_group_IT_number 54
_symmetry_cell_setting 'orthorhombic'
loop_
_space_group_symop_operation_xyz
x,y,z
1/2-x,-y,z
1/2+x,-y,1/2-z
-x,y,1/2-z
-x,-y,-z
1/2+x,y,-z
1/2-x,y,1/2+z
x,-y,1/2+z
loop_
_atom_site_type_symbol
_atom_site_label
_atom_site_fract_x
_atom_site_fract_y
_atom_site_fract_z
Si Si1 0.000000 0.832649 0.750000
Si Si2 0.640417 0.061536 0.327482
Si Si3 0.750000 0.500000 0.573625
Si Si4 0.418408 0.689113 0.838314
Si Si5 0.088969 0.280310 0.480359
O O1 0.925607 0.741259 0.663543
O O2 0.933972 0.929029 0.839948
O O3 0.605373 0.157094 0.214259
O O4 0.639018 0.146870 0.453058
O O5 0.750000 0.000000 0.298793
O O6 0.812720 0.393934 0.657889
O O7 0.832578 0.590029 0.496362
O O8 0.500000 0.612629 0.750000
O O9 0.474742 0.693136 0.967790
#
# Coordination Sequence:
#
# PCOD8223852 Si02
#       5
#     4   8   4   8   8
#     4  12  24  46  72 102 140 184 226 300 346 418
#     4  11  24  44  74 102 140 178 233 292 354 424
#     4  12  26  44  72 100 140 192 240 278 362 426
#     4  10  24  48  68 103 141 182 233 299 347 423
#     4  11  26  45  69 104 141 186 234 292 356 417
#
# _framework density 23.134917000000002
#
# number of rings (size 3 to 8) (size 9 to 14) (size 15 to 20)
#    0.000    1.000    3.750    3.000    5.250    5.000 
#    0.000    0.000    0.000    0.000    0.000    0.000 
#    0.000    0.000    0.000    0.000    0.000    0.000 
#
# Total GULP energy -396684.147543 kJ/mol
# GULP energy per Si atom -12396.379611 kJ/mol
# Density = 2.308226 g / cm^3
# Si number density = 23.134917 Si / 1000 Ang^3
#
#
#
# Elastic Constant Matrix: (Units=GPa)
#
#
# Indices 1 2 3 4 5 6 
#
# 1 147.1847 57.4245 36.2899 0.0000 0.0000 0.0000
# 2 57.4245 91.6237 48.1279 0.0000 0.0000 0.0000
# 3 36.2899 48.1279 109.8943 0.0000 0.0000 0.0000
# 4 0.0000 0.0000 0.0000 11.8481 0.0000 0.0000
# 5 0.0000 0.0000 0.0000 0.0000 34.1451 0.0000
# 6 0.0000 0.0000 0.0000 0.0000 0.0000 60.1740
#
#
#
# Elastic Compliance Matrix: (Units=1/GPa)
#
#
# Indices 1 2 3 4 5 6 
#
# 1 0.009029 -0.005316 -0.000654 0.000000 0.000000 0.000000
# 2 -0.005316 0.017304 -0.005823 0.000000 0.000000 0.000000
# 3 -0.000654 -0.005823 0.011866 0.000000 0.000000 0.000000
# 4 0.000000 0.000000 0.000000 0.084402 0.000000 0.000000
# 5 0.000000 0.000000 0.000000 0.000000 0.029287 0.000000
# 6 0.000000 0.000000 0.000000 0.000000 0.000000 0.016618
#
#
# Mechanical properties :
#
#
# Convention : Reuss Voigt Hill
#
# Bulk Modulus (GPa) = 68.42484 70.26526 69.34505
# Shear Modulus (GPa) = 25.38545 35.02413 30.20479
#
# Velocity S-wave (km/s) = 3.31611 3.89512 3.61722
# Velocity P-wave (km/s) = 6.65603 7.11809 6.89093
#
# Compressibility (1/GPa) = 0.01461458
#
# Stress axis : x y z
#
# Youngs Moduli (GPa) = 110.75076 57.78846 84.27624
#
# Poissons Ratio (x) = 0.30718 0.05509
# Poissons Ratio (y) = 0.58871 0.49075
# Poissons Ratio (z) = 0.07240 0.33651
#
# Static dielectric constant tensor:
#      x y z
#    x 4.431080 0.000000 0.000000 
#    y 0.000000 4.203370 0.000000 
#    z 0.000000 0.000000 3.768110 
# 
# 
# High freq. dielectric constant tensor:
#      x y z
#    x 1.932660 0.000000 0.000000 
#    y 0.000000 1.913710 0.000000 
#    z 0.000000 0.000000 1.891120 
# 
# From -- ./inp_files/7987.got.cif
#   From: 2010.03.12/outbox.cif.g09.slc.cpg/sg54_4_cif.got.tgz:7987.got - 2010.04.16 15:00:50.
