data_PCOD8223059
_publ_section_title
;
Structure prediction by ZEFSAII (Michael W. Deem and Ramdas Pophale) SiO2 
 PCOD8223059
Probable space group: P C C A
;
_chemical_formula_sum "Si O2"
_cell_formula_units_Z 32
_cell_length_a 9.724775
_cell_length_b 6.349233
_cell_length_c 25.720406
_cell_angle_alpha 90.000000
_cell_angle_beta 90.000000
_cell_angle_gamma 90.000000
_cell_volume 1588.102928
_symmetry_space_group_name_H-M "P C C A"
_symmetry_group_IT_number 54
_symmetry_cell_setting 'orthorhombic'
loop_
_space_group_symop_operation_xyz
x,y,z
1/2-x,-y,z
1/2+x,-y,1/2-z
-x,y,1/2-z
-x,-y,-z
1/2+x,y,-z
1/2-x,y,1/2+z
x,-y,1/2+z
loop_
_atom_site_type_symbol
_atom_site_label
_atom_site_fract_x
_atom_site_fract_y
_atom_site_fract_z
Si Si1 0.250000 0.500000 0.474484
Si Si2 0.112729 0.869380 0.033800
Si Si3 0.392465 0.390892 0.794133
Si Si4 0.750000 0.000000 0.676402
Si Si5 0.430254 0.682601 0.887162
O O1 0.347779 0.650442 0.507450
O O2 0.144536 0.630109 0.440406
O O3 0.064065 0.808562 0.092747
O O4 0.250000 0.000000 0.041530
O O5 0.000000 0.000000 0.000000
O O6 0.250000 0.500000 0.779418
O O7 0.500000 0.451247 0.750000
O O8 0.363288 0.138351 0.792361
O O9 0.452975 0.477871 0.849778
O O10 0.669752 0.835500 0.642474
#
# Coordination Sequence:
#
# PCOD8223059 Si02
#       5
#     4   8   8   4   8
#     4  12  22  42  68  92 134 182 216 268 320 394
#     4  12  26  40  66  99 136 175 226 266 320 388
#     4  10  23  44  69  93 127 166 216 268 334 390
#     4  10  20  40  72  90 126 170 216 264 336 394
#     4  11  22  41  67  93 131 175 215 265 331 385
#
# _framework density 20.149826000000001
#
# number of rings (size 3 to 8) (size 9 to 14) (size 15 to 20)
#    0.000    1.000    6.250    2.250    0.000    4.000 
#    6.750    0.000    0.000    0.000    0.000    0.000 
#    0.000    0.000    0.000    0.000    0.000    0.000 
#
# Total GULP energy -396511.847281 kJ/mol
# GULP energy per Si atom -12390.995228 kJ/mol
# Density = 2.010396 g / cm^3
# Si number density = 20.149826 Si / 1000 Ang^3
#
#
#
# Elastic Constant Matrix: (Units=GPa)
#
#
# Indices 1 2 3 4 5 6 
#
# 1 110.0582 31.4707 42.1547 0.0000 0.0000 0.0000
# 2 31.4707 106.5917 23.8806 0.0000 0.0000 0.0000
# 3 42.1547 23.8806 80.5534 0.0000 0.0000 0.0000
# 4 0.0000 0.0000 0.0000 15.6757 0.0000 0.0000
# 5 0.0000 0.0000 0.0000 0.0000 36.8466 0.0000
# 6 0.0000 0.0000 0.0000 0.0000 0.0000 41.2760
#
#
#
# Elastic Compliance Matrix: (Units=1/GPa)
#
#
# Indices 1 2 3 4 5 6 
#
# 1 0.011851 -0.002260 -0.005532 0.000000 0.000000 0.000000
# 2 -0.002260 0.010480 -0.001924 0.000000 0.000000 0.000000
# 3 -0.005532 -0.001924 0.015880 0.000000 0.000000 0.000000
# 4 0.000000 0.000000 0.000000 0.063793 0.000000 0.000000
# 5 0.000000 0.000000 0.000000 0.000000 0.027140 0.000000
# 6 0.000000 0.000000 0.000000 0.000000 0.000000 0.024227
#
#
# Mechanical properties :
#
#
# Convention : Reuss Voigt Hill
#
# Bulk Modulus (GPa) = 53.25187 54.69060 53.97123
# Shear Modulus (GPa) = 27.92334 32.07281 29.99808
#
# Velocity S-wave (km/s) = 3.72665 3.99396 3.86262
# Velocity P-wave (km/s) = 6.70840 6.96203 6.83639
#
# Compressibility (1/GPa) = 0.01877868
#
# Stress axis : x y z
#
# Youngs Moduli (GPa) = 84.38034 95.42116 62.97394
#
# Poissons Ratio (x) = 0.21561 0.34837
# Poissons Ratio (y) = 0.19067 0.12118
# Poissons Ratio (z) = 0.46679 0.18362
#
# Static dielectric constant tensor:
#      x y z
#    x 3.866980 0.000000 0.000000 
#    y 0.000000 4.797290 0.000000 
#    z 0.000000 0.000000 3.632810 
# 
# 
# High freq. dielectric constant tensor:
#      x y z
#    x 1.788510 0.000000 0.000000 
#    y 0.000000 1.806590 0.000000 
#    z 0.000000 0.000000 1.770620 
# 
# From -- ./inp_files/20892.got.cif
#   From: 2010.03.12/outbox.cif.g09.slc.cpg/sg54_11_cif.got.tgz:20892.got - 2010.04.16 15:00:50.
