data_PCOD8223940
_publ_section_title
;
Structure prediction by ZEFSAII (Michael W. Deem and Ramdas Pophale) SiO2 
 PCOD8223940
Probable space group: P C C A
;
_chemical_formula_sum "Si O2"
_cell_formula_units_Z 52
_cell_length_a 18.411375
_cell_length_b 8.414772
_cell_length_c 14.746167
_cell_angle_alpha 90.000000
_cell_angle_beta 90.000000
_cell_angle_gamma 90.000000
_cell_volume 2284.587125
_symmetry_space_group_name_H-M "P C C A"
_symmetry_group_IT_number 54
_symmetry_cell_setting 'orthorhombic'
loop_
_space_group_symop_operation_xyz
x,y,z
1/2-x,-y,z
1/2+x,-y,1/2-z
-x,y,1/2-z
-x,-y,-z
1/2+x,y,-z
1/2-x,y,1/2+z
x,-y,1/2+z
loop_
_atom_site_type_symbol
_atom_site_label
_atom_site_fract_x
_atom_site_fract_y
_atom_site_fract_z
Si Si1 0.927278 0.591286 0.521801
Si Si2 0.100059 0.871469 0.856281
Si Si3 0.669687 0.046870 0.980374
Si Si4 0.256101 0.185632 0.780977
Si Si5 0.193405 0.372444 0.951366
Si Si6 0.370484 0.215700 0.143101
Si Si7 0.500000 0.899199 0.750000
O O1 0.943302 0.738098 0.587697
O O2 0.877802 0.468399 0.577634
O O3 0.882784 0.647826 0.432015
O O4 0.000000 0.500000 0.500000
O O5 0.154951 0.793135 0.779876
O O6 0.037976 0.986067 0.821329
O O7 0.149568 0.979255 0.921527
O O8 0.666919 0.238933 0.976292
O O9 0.750000 0.000000 0.955092
O O10 0.623136 0.960698 0.901943
O O11 0.228668 0.286322 0.865984
O O12 0.207867 0.240679 0.693854
O O13 0.250000 0.000000 0.796354
O O14 0.250000 0.500000 0.993745
O O15 0.438855 0.218900 0.210534
#
# Coordination Sequence:
#
# PCOD8223940 Si02
#       7
#     8   8   8   8   8   8   4
#     4  11  28  47  69 103 148 191 227 289 371 438
#     4  11  23  47  71 103 138 188 240 291 356 414
#     4  11  21  42  76  99 128 182 246 292 327 417
#     4  12  21  46  75 102 135 186 241 300 343 407
#     4  12  22  42  71 100 139 187 229 282 364 422
#     4  11  27  44  73 105 138 188 249 292 345 421
#     4  12  26  42  72 110 142 184 244 290 358 414
#
# _framework density 22.761223999999999
#
# number of rings (size 3 to 8) (size 9 to 14) (size 15 to 20)
#    0.000    0.615    6.154    1.385    6.462    1.231 
#    2.769    3.846    0.000    0.000    0.000    0.000 
#    0.000    0.000    0.000    0.000    0.000    0.000 
#
# Total GULP energy -644181.970168 kJ/mol
# GULP energy per Si atom -12388.114811 kJ/mol
# Density = 2.270942 g / cm^3
# Si number density = 22.761224 Si / 1000 Ang^3
#
#
#
# Elastic Constant Matrix: (Units=GPa)
#
#
# Indices 1 2 3 4 5 6 
#
# 1 96.6513 18.5697 22.4334 0.0000 0.0000 0.0000
# 2 18.5697 106.7050 16.1300 0.0000 0.0000 0.0000
# 3 22.4334 16.1300 59.7993 0.0000 0.0000 0.0000
# 4 0.0000 0.0000 0.0000 22.5417 0.0000 0.0000
# 5 0.0000 0.0000 0.0000 0.0000 34.9545 0.0000
# 6 0.0000 0.0000 0.0000 0.0000 0.0000 43.0724
#
#
#
# Elastic Compliance Matrix: (Units=1/GPa)
#
#
# Indices 1 2 3 4 5 6 
#
# 1 0.011533 -0.001411 -0.003946 0.000000 0.000000 0.000000
# 2 -0.001411 0.009943 -0.002153 0.000000 0.000000 0.000000
# 3 -0.003946 -0.002153 0.018784 0.000000 0.000000 0.000000
# 4 0.000000 0.000000 0.000000 0.044362 0.000000 0.000000
# 5 0.000000 0.000000 0.000000 0.000000 0.028609 0.000000
# 6 0.000000 0.000000 0.000000 0.000000 0.000000 0.023217
#
#
# Mechanical properties :
#
#
# Convention : Reuss Voigt Hill
#
# Bulk Modulus (GPa) = 39.61866 41.93574 40.77720
# Shear Modulus (GPa) = 31.27349 33.84854 32.56102
#
# Velocity S-wave (km/s) = 3.71075 3.86050 3.78636
# Velocity P-wave (km/s) = 5.98360 6.19156 6.08847
#
# Compressibility (1/GPa) = 0.02524063
#
# Stress axis : x y z
#
# Youngs Moduli (GPa) = 86.70442 100.57802 53.23779
#
# Poissons Ratio (x) = 0.14188 0.21009
# Poissons Ratio (y) = 0.12231 0.11460
# Poissons Ratio (z) = 0.34215 0.21651
#
# Static dielectric constant tensor:
#      x y z
#    x 4.327470 0.000000 0.000000 
#    y 0.000000 3.790080 0.000000 
#    z 0.000000 0.000000 3.931920 
# 
# 
# High freq. dielectric constant tensor:
#      x y z
#    x 1.905900 0.000000 0.000000 
#    y 0.000000 1.897150 0.000000 
#    z 0.000000 0.000000 1.880440 
# 
# From -- ./inp_files/18625.got.cif
#   From: 2010.03.12/outbox.cif.g09.slc.cpg/sg54_10_cif.got.tgz:18625.got - 2010.04.16 15:00:50.
