data_PCOD8223728
_publ_section_title
;
Structure prediction by ZEFSAII (Michael W. Deem and Ramdas Pophale) SiO2 
 PCOD8223728
Probable space group: P C C A
;
_chemical_formula_sum "Si O2"
_cell_formula_units_Z 56
_cell_length_a 14.840290
_cell_length_b 11.789385
_cell_length_c 13.870894
_cell_angle_alpha 90.000000
_cell_angle_beta 90.000000
_cell_angle_gamma 90.000000
_cell_volume 2426.822379
_symmetry_space_group_name_H-M "P C C A"
_symmetry_group_IT_number 54
_symmetry_cell_setting 'orthorhombic'
loop_
_space_group_symop_operation_xyz
x,y,z
1/2-x,-y,z
1/2+x,-y,1/2-z
-x,y,1/2-z
-x,-y,-z
1/2+x,y,-z
1/2-x,y,1/2+z
x,-y,1/2+z
loop_
_atom_site_type_symbol
_atom_site_label
_atom_site_fract_x
_atom_site_fract_y
_atom_site_fract_z
Si Si1 0.147104 0.485757 0.665824
Si Si2 0.092969 0.712888 0.303543
Si Si3 0.965308 0.664009 0.463341
Si Si4 0.340575 0.892110 0.098965
Si Si5 0.540688 0.298604 0.846651
Si Si6 0.233301 0.123133 0.313483
Si Si7 0.841269 0.136724 0.990754
O O1 0.250000 0.500000 0.637080
O O2 0.132279 0.400313 0.754342
O O3 0.091248 0.442960 0.573810
O O4 0.113593 0.611560 0.693011
O O5 0.173028 0.806273 0.304807
O O6 0.000000 0.753911 0.250000
O O7 0.062763 0.677662 0.411346
O O8 0.910175 0.778800 0.439911
O O9 0.974345 0.640669 0.577640
O O10 0.423695 0.807231 0.090314
O O11 0.313787 0.898737 0.211375
O O12 0.259003 0.833613 0.043219
O O13 0.366833 0.011016 0.048882
O O14 0.500000 0.246444 0.750000
O O15 0.160700 0.166245 0.393678
O O16 0.250000 0.000000 0.359600
#
# Coordination Sequence:
#
# PCOD8223728 Si02
#       7
#     8   8   8   8   8   8   8
#     4  11  24  45  74  98 130 174 229 281 344 416
#     4  10  23  43  69 103 134 178 224 285 351 409
#     4  11  24  43  68  98 138 176 224 284 354 403
#     4  11  23  41  65  93 134 182 221 278 333 404
#     4  12  25  45  64  97 137 171 229 286 340 401
#     4  12  22  41  67  96 133 181 225 272 335 417
#     4  11  23  42  64  98 136 178 229 274 332 421
#
# _framework density 23.075443
#
# number of rings (size 3 to 8) (size 9 to 14) (size 15 to 20)
#    0.000    0.857    2.857    6.857    0.000    0.571 
#    2.571    1.429    0.000    0.000    0.000    0.000 
#    0.000    0.000    0.000    0.000    0.000    0.000 
#
# Total GULP energy -693948.291057 kJ/mol
# GULP energy per Si atom -12391.933769 kJ/mol
# Density = 2.302292 g / cm^3
# Si number density = 23.075443 Si / 1000 Ang^3
#
#
#
# Elastic Constant Matrix: (Units=GPa)
#
#
# Indices 1 2 3 4 5 6 
#
# 1 63.2560 41.7924 4.5190 0.0000 0.0000 0.0000
# 2 41.7924 97.1801 6.6257 0.0000 0.0000 0.0000
# 3 4.5190 6.6257 109.0730 0.0000 0.0000 0.0000
# 4 0.0000 0.0000 0.0000 25.1375 0.0000 0.0000
# 5 0.0000 0.0000 0.0000 0.0000 25.8889 0.0000
# 6 0.0000 0.0000 0.0000 0.0000 0.0000 41.8571
#
#
#
# Elastic Compliance Matrix: (Units=1/GPa)
#
#
# Indices 1 2 3 4 5 6 
#
# 1 0.022096 -0.009479 -0.000340 0.000000 0.000000 0.000000
# 2 -0.009479 0.014400 -0.000482 0.000000 0.000000 0.000000
# 3 -0.000340 -0.000482 0.009212 0.000000 0.000000 0.000000
# 4 0.000000 0.000000 0.000000 0.039781 0.000000 0.000000
# 5 0.000000 0.000000 0.000000 0.000000 0.038627 0.000000
# 6 0.000000 0.000000 0.000000 0.000000 0.000000 0.023891
#
#
# Mechanical properties :
#
#
# Convention : Reuss Voigt Hill
#
# Bulk Modulus (GPa) = 39.83221 41.70927 40.77074
# Shear Modulus (GPa) = 28.25252 33.01485 30.63368
#
# Velocity S-wave (km/s) = 3.50287 3.78661 3.64750
# Velocity P-wave (km/s) = 5.80167 6.10183 5.95364
#
# Compressibility (1/GPa) = 0.02510531
#
# Stress axis : x y z
#
# Youngs Moduli (GPa) = 45.25753 69.44663 108.55974
#
# Poissons Ratio (x) = 0.65830 0.03687
# Poissons Ratio (y) = 0.42900 0.05232
# Poissons Ratio (z) = 0.01537 0.03347
#
# Static dielectric constant tensor:
#      x y z
#    x 4.130050 0.000000 0.000000 
#    y 0.000000 4.255550 0.000000 
#    z 0.000000 0.000000 4.252530 
# 
# 
# High freq. dielectric constant tensor:
#      x y z
#    x 1.902860 0.000000 0.000000 
#    y 0.000000 1.911940 0.000000 
#    z 0.000000 0.000000 1.930890 
# 
# From -- ./inp_files/13500.got.cif
#   From: 2010.03.12/outbox.cif.g09.slc.cpg/sg54_7_cif.got.tgz:13500.got - 2010.04.16 15:00:50.
