data_PCOD8223656
_publ_section_title
;
Structure prediction by ZEFSAII (Michael W. Deem and Ramdas Pophale) SiO2 
 PCOD8223656
Probable space group: P C C A
;
_chemical_formula_sum "Si O2"
_cell_formula_units_Z 40
_cell_length_a 7.606483
_cell_length_b 12.066657
_cell_length_c 18.007533
_cell_angle_alpha 90.000000
_cell_angle_beta 90.000000
_cell_angle_gamma 90.000000
_cell_volume 1652.818199
_symmetry_space_group_name_H-M "P C C A"
_symmetry_group_IT_number 54
_symmetry_cell_setting 'orthorhombic'
loop_
_space_group_symop_operation_xyz
x,y,z
1/2-x,-y,z
1/2+x,-y,1/2-z
-x,y,1/2-z
-x,-y,-z
1/2+x,y,-z
1/2-x,y,1/2+z
x,-y,1/2+z
loop_
_atom_site_type_symbol
_atom_site_label
_atom_site_fract_x
_atom_site_fract_y
_atom_site_fract_z
Si Si1 0.500000 0.286557 0.250000
Si Si2 0.424377 0.131712 0.920269
Si Si3 0.250000 0.000000 0.546927
Si Si4 0.299629 0.120186 0.765920
Si Si5 0.892117 0.642805 0.943947
Si Si6 0.014246 0.401966 0.599071
O O1 0.667667 0.209773 0.269186
O O2 0.448754 0.363573 0.320009
O O3 0.596483 0.054654 0.903485
O O4 0.280661 0.116586 0.855493
O O5 0.481706 0.258257 0.921399
O O6 0.331518 0.098180 0.996814
O O7 0.500000 0.155303 0.750000
O O8 0.250000 0.000000 0.732727
O O9 0.695078 0.662521 0.917033
O O10 0.966850 0.534282 0.902715
O O11 0.878955 0.630629 0.033633
#
# Coordination Sequence:
#
# PCOD8223656 Si02
#       6
#     4   8   4   8   8   8
#     4  12  28  50  74 106 158 190 246 318 370 458
#     4  11  23  42  67 106 137 190 235 309 359 434
#     4  10  24  38  68 106 148 174 242 300 360 446
#     4  12  27  46  71 103 145 196 242 295 374 446
#     4  10  22  45  74 102 145 185 252 301 373 442
#     4  10  24  46  71 109 139 197 244 307 372 443
#
# _framework density 24.201087999999999
#
# number of rings (size 3 to 8) (size 9 to 14) (size 15 to 20)
#    0.000    1.200    2.000    2.400    7.000    1.600 
#    9.000    0.000    0.000    0.000    0.000    0.000 
#    0.000    0.000    0.000    0.000    0.000    0.000 
#
# Total GULP energy -496158.881046 kJ/mol
# GULP energy per Si atom -12403.972026 kJ/mol
# Density = 2.414601 g / cm^3
# Si number density = 24.201088 Si / 1000 Ang^3
#
#
#
# Elastic Constant Matrix: (Units=GPa)
#
#
# Indices 1 2 3 4 5 6 
#
# 1 82.5611 32.3914 2.2258 0.0000 0.0000 0.0000
# 2 32.3914 128.9041 46.0047 0.0000 0.0000 0.0000
# 3 2.2258 46.0047 88.3941 0.0000 0.0000 0.0000
# 4 0.0000 0.0000 0.0000 29.5583 0.0000 0.0000
# 5 0.0000 0.0000 0.0000 0.0000 40.1786 0.0000
# 6 0.0000 0.0000 0.0000 0.0000 0.0000 35.1611
#
#
#
# Elastic Compliance Matrix: (Units=1/GPa)
#
#
# Indices 1 2 3 4 5 6 
#
# 1 0.013659 -0.004065 0.001771 0.000000 0.000000 0.000000
# 2 -0.004065 0.010737 -0.005486 0.000000 0.000000 0.000000
# 3 0.001771 -0.005486 0.014123 0.000000 0.000000 0.000000
# 4 0.000000 0.000000 0.000000 0.033831 0.000000 0.000000
# 5 0.000000 0.000000 0.000000 0.000000 0.024889 0.000000
# 6 0.000000 0.000000 0.000000 0.000000 0.000000 0.028440
#
#
# Mechanical properties :
#
#
# Convention : Reuss Voigt Hill
#
# Bulk Modulus (GPa) = 43.55043 51.23368 47.39205
# Shear Modulus (GPa) = 33.58151 35.59544 34.58848
#
# Velocity S-wave (km/s) = 3.72910 3.83929 3.78459
# Velocity P-wave (km/s) = 6.04780 6.39292 6.22275
#
# Compressibility (1/GPa) = 0.02296189
#
# Stress axis : x y z
#
# Youngs Moduli (GPa) = 73.21114 93.13743 70.80466
#
# Poissons Ratio (x) = 0.37856 -0.12543
# Poissons Ratio (y) = 0.29757 0.38841
# Poissons Ratio (z) = -0.12969 0.51092
#
# Static dielectric constant tensor:
#      x y z
#    x 4.372280 0.000000 0.000000 
#    y 0.000000 4.304410 0.000000 
#    z 0.000000 0.000000 4.253900 
# 
# 
# High freq. dielectric constant tensor:
#      x y z
#    x 1.960750 0.000000 0.000000 
#    y 0.000000 1.966690 0.000000 
#    z 0.000000 0.000000 1.953920 
# 
# From -- ./inp_files/16402.got.cif
#   From: 2010.03.12/outbox.cif.g09.slc.cpg/sg54_9_cif.got.tgz:16402.got - 2010.04.16 15:00:50.
