data_PCOD8223961
_publ_section_title
;
Structure prediction by ZEFSAII (Michael W. Deem and Ramdas Pophale) SiO2 
 PCOD8223961
Probable space group: P C C A
;
_chemical_formula_sum "Si O2"
_cell_formula_units_Z 40
_cell_length_a 8.339850
_cell_length_b 16.902565
_cell_length_c 11.496240
_cell_angle_alpha 90.000000
_cell_angle_beta 90.000000
_cell_angle_gamma 90.000000
_cell_volume 1620.565824
_symmetry_space_group_name_H-M "P C C A"
_symmetry_group_IT_number 54
_symmetry_cell_setting 'orthorhombic'
loop_
_space_group_symop_operation_xyz
x,y,z
1/2-x,-y,z
1/2+x,-y,1/2-z
-x,y,1/2-z
-x,-y,-z
1/2+x,y,-z
1/2-x,y,1/2+z
x,-y,1/2+z
loop_
_atom_site_type_symbol
_atom_site_label
_atom_site_fract_x
_atom_site_fract_y
_atom_site_fract_z
Si Si1 0.000000 0.188746 0.750000
Si Si2 0.000000 0.074676 0.250000
Si Si3 0.750000 0.500000 0.069857
Si Si4 0.492826 0.609524 0.061634
Si Si5 0.750000 0.000000 0.911248
Si Si6 0.252697 0.144273 0.917730
Si Si7 0.787356 0.713439 0.411045
O O1 0.080112 0.136369 0.852441
O O2 0.144914 0.241886 0.701072
O O3 0.902186 0.014560 0.330266
O O4 0.892611 0.134837 0.176151
O O5 0.632284 0.562832 0.139358
O O6 0.631387 0.453216 0.986923
O O7 0.384574 0.675200 0.127860
O O8 0.584545 0.648476 0.952080
O O9 0.777424 0.076401 0.988553
O O10 0.258504 0.228600 0.979758
#
# Coordination Sequence:
#
# PCOD8223961 Si02
#       7
#     4   4   4   8   4   8   8
#     4  12  26  45  70 102 147 190 246 298 365 416
#     4  12  28  47  74 100 137 192 240 300 369 418
#     4   8  16  34  68 106 130 192 234 278 366 428
#     4   9  18  36  67 104 141 184 239 288 353 428
#     4  12  28  52  72 104 142 182 240 298 358 434
#     4  12  27  46  71 103 142 188 244 297 357 427
#     4  11  22  41  65 105 143 191 239 300 351 428
#
# _framework density 24.682738000000001
#
# number of rings (size 3 to 8) (size 9 to 14) (size 15 to 20)
#    0.000    1.200    2.000    3.600    2.800    5.600 
#    0.000    0.000    0.000    7.200    0.000    0.000 
#    0.000    0.000    0.000    0.000    0.000    0.000 
#
# Total GULP energy -495647.163168 kJ/mol
# GULP energy per Si atom -12391.179079 kJ/mol
# Density = 2.462656 g / cm^3
# Si number density = 24.682738 Si / 1000 Ang^3
#
#
#
# Elastic Constant Matrix: (Units=GPa)
#
#
# Indices 1 2 3 4 5 6 
#
# 1 178.3502 79.4503 53.3959 0.0000 0.0000 0.0000
# 2 79.4503 126.6136 44.6992 0.0000 0.0000 0.0000
# 3 53.3959 44.6992 91.7888 0.0000 0.0000 0.0000
# 4 0.0000 0.0000 0.0000 0.2967 0.0000 0.0000
# 5 0.0000 0.0000 0.0000 0.0000 36.5728 0.0000
# 6 0.0000 0.0000 0.0000 0.0000 0.0000 66.5571
#
#
#
# Elastic Compliance Matrix: (Units=1/GPa)
#
#
# Indices 1 2 3 4 5 6 
#
# 1 0.008330 -0.004247 -0.002778 0.000000 0.000000 0.000000
# 2 -0.004247 0.011703 -0.003229 0.000000 0.000000 0.000000
# 3 -0.002778 -0.003229 0.014083 0.000000 0.000000 0.000000
# 4 0.000000 0.000000 0.000000 3.370942 0.000000 0.000000
# 5 0.000000 0.000000 0.000000 0.000000 0.027343 0.000000
# 6 0.000000 0.000000 0.000000 0.000000 0.000000 0.015025
#
#
# Mechanical properties :
#
#
# Convention : Reuss Voigt Hill
#
# Bulk Modulus (GPa) = 73.47799 83.53816 78.50807
# Shear Modulus (GPa) = 1.43990 35.29912 18.36951
#
# Velocity S-wave (km/s) = 0.76461 3.78579 2.73101
# Velocity P-wave (km/s) = 5.53291 7.28202 6.46687
#
# Compressibility (1/GPa) = 0.01360952
#
# Stress axis : x y z
#
# Youngs Moduli (GPa) = 120.04226 85.45112 71.00835
#
# Poissons Ratio (x) = 0.36288 0.19726
# Poissons Ratio (y) = 0.50977 0.22925
# Poissons Ratio (z) = 0.33348 0.27588
#
# Static dielectric constant tensor:
#      x y z
#    x 5.225430 0.000000 0.000000 
#    y 0.000000 5.043220 0.000000 
#    z 0.000000 0.000000 4.156730 
# 
# 
# High freq. dielectric constant tensor:
#      x y z
#    x 2.015250 0.000000 0.000000 
#    y 0.000000 2.002790 0.000000 
#    z 0.000000 0.000000 1.939930 
# 
# From -- ./inp_files/6935.got.cif
#   From: 2010.03.12/outbox.cif.g09.slc.cpg/sg54_4_cif.got.tgz:6935.got - 2010.04.16 15:00:50.
