data_PCOD8223321
_publ_section_title
;
Structure prediction by ZEFSAII (Michael W. Deem and Ramdas Pophale) SiO2 
 PCOD8223321
Probable space group: P C C A
;
_chemical_formula_sum "Si O2"
_cell_formula_units_Z 36
_cell_length_a 14.895852
_cell_length_b 20.805057
_cell_length_c 5.226024
_cell_angle_alpha 90.000000
_cell_angle_beta 90.000000
_cell_angle_gamma 90.000000
_cell_volume 1619.592133
_symmetry_space_group_name_H-M "P C C A"
_symmetry_group_IT_number 54
_symmetry_cell_setting 'orthorhombic'
loop_
_space_group_symop_operation_xyz
x,y,z
1/2-x,-y,z
1/2+x,-y,1/2-z
-x,y,1/2-z
-x,-y,-z
1/2+x,y,-z
1/2-x,y,1/2+z
x,-y,1/2+z
loop_
_atom_site_type_symbol
_atom_site_label
_atom_site_fract_x
_atom_site_fract_y
_atom_site_fract_z
Si Si1 0.786675 0.928020 0.370729
Si Si2 0.302370 0.760821 0.339343
Si Si3 0.500000 0.457044 0.750000
Si Si4 0.806600 0.609523 0.695867
Si Si5 0.551437 0.857557 0.003297
O O1 0.738780 0.891701 0.608457
O O2 0.892030 0.920583 0.415326
O O3 0.750000 0.000000 0.333917
O O4 0.235900 0.782437 0.566529
O O5 0.319276 0.685308 0.328648
O O6 0.395778 0.795666 0.395284
O O7 0.500000 0.500000 0.500000
O O8 0.592176 0.416194 0.734574
O O9 0.756404 0.586772 0.434362
O O10 0.500000 0.884189 0.250000
O O11 0.500000 0.834366 0.750000
#
# Coordination Sequence:
#
# PCOD8223321 Si02
#       5
#     8   8   4   8   8
#     4  10  21  41  63  82 116 169 205 243 310 383
#     4  10  21  41  65  90 124 169 209 256 323 392
#     4  12  26  42  66 100 134 182 226 278 336 390
#     4  10  23  43  66  96 132 175 226 272 331 395
#     4  12  24  38  61  98 126 154 208 270 325 379
#
# _framework density 22.227817999999999
#
# number of rings (size 3 to 8) (size 9 to 14) (size 15 to 20)
#    0.000    1.333    0.000    5.333    1.556    2.667 
#    2.000   13.333    0.000    0.000    0.000    0.000 
#    0.000    0.000    0.000    0.000    0.000    0.000 
#
# Total GULP energy -446045.407845 kJ/mol
# GULP energy per Si atom -12390.150218 kJ/mol
# Density = 2.217723 g / cm^3
# Si number density = 22.227818 Si / 1000 Ang^3
#
#
#
# Elastic Constant Matrix: (Units=GPa)
#
#
# Indices 1 2 3 4 5 6 
#
# 1 150.8414 54.6635 56.6863 0.0000 0.0000 0.0000
# 2 54.6635 63.8733 56.9592 0.0000 0.0000 0.0000
# 3 56.6863 56.9592 174.8538 0.0000 0.0000 0.0000
# 4 0.0000 0.0000 0.0000 23.2130 0.0000 0.0000
# 5 0.0000 0.0000 0.0000 0.0000 49.8980 0.0000
# 6 0.0000 0.0000 0.0000 0.0000 0.0000 -58.6951
#
#
#
# Elastic Compliance Matrix: (Units=1/GPa)
#
#
# Indices 1 2 3 4 5 6 
#
# 1 0.009657 -0.007713 -0.000618 0.000000 0.000000 0.000000
# 2 -0.007713 0.028227 -0.006694 0.000000 0.000000 0.000000
# 3 -0.000618 -0.006694 0.008100 0.000000 0.000000 0.000000
# 4 0.000000 0.000000 0.000000 0.043079 0.000000 0.000000
# 5 0.000000 0.000000 0.000000 0.000000 0.020041 0.000000
# 6 0.000000 0.000000 0.000000 0.000000 0.000000 -0.017037
#
#
# Mechanical properties :
#
#
# Convention : Reuss Voigt Hill
#
# Bulk Modulus (GPa) = 62.76519 80.68738 71.72629
# Shear Modulus (GPa) = 39.23733 17.63381 28.43557
#
# Velocity S-wave (km/s) = 4.20603 2.81965 3.58058
# Velocity P-wave (km/s) = 7.20320 6.85416 7.03085
#
# Compressibility (1/GPa) = 0.01593240
#
# Stress axis : x y z
#
# Youngs Moduli (GPa) = 103.55166 35.42708 123.45437
#
# Poissons Ratio (x) = 0.27326 0.07630
# Poissons Ratio (y) = 0.79874 0.82645
# Poissons Ratio (z) = 0.06400 0.23716
#
# Static dielectric constant tensor:
#      x y z
#    x 4.117140 0.000000 0.000000 
#    y 0.000000 4.249490 0.000000 
#    z 0.000000 0.000000 5.159650 
# 
# 
# High freq. dielectric constant tensor:
#      x y z
#    x 1.872160 0.000000 0.000000 
#    y 0.000000 1.876390 0.000000 
#    z 0.000000 0.000000 1.916140 
# 
# From -- ./inp_files/185.got.cif
#   From: 2010.03.12/outbox.cif.g09.slc.cpg/sg54_1_cif.got.tgz:185.got - 2010.04.16 15:00:50.
