data_PCOD8223544
_publ_section_title
;
Structure prediction by ZEFSAII (Michael W. Deem and Ramdas Pophale) SiO2 
 PCOD8223544
Probable space group: P C C A
;
_chemical_formula_sum "Si O2"
_cell_formula_units_Z 32
_cell_length_a 17.603956
_cell_length_b 7.395550
_cell_length_c 10.147402
_cell_angle_alpha 90.000000
_cell_angle_beta 90.000000
_cell_angle_gamma 90.000000
_cell_volume 1321.099772
_symmetry_space_group_name_H-M "P C C A"
_symmetry_group_IT_number 54
_symmetry_cell_setting 'orthorhombic'
loop_
_space_group_symop_operation_xyz
x,y,z
1/2-x,-y,z
1/2+x,-y,1/2-z
-x,y,1/2-z
-x,-y,-z
1/2+x,y,-z
1/2-x,y,1/2+z
x,-y,1/2+z
loop_
_atom_site_type_symbol
_atom_site_label
_atom_site_fract_x
_atom_site_fract_y
_atom_site_fract_z
Si Si1 0.713266 0.311064 0.345945
Si Si2 0.047400 0.081531 0.882397
Si Si3 0.674435 0.796939 0.121148
Si Si4 0.078443 0.546931 0.311166
O O1 0.750000 0.500000 0.385421
O O2 0.761290 0.209478 0.232916
O O3 0.713050 0.189597 0.477515
O O4 0.627429 0.350000 0.300419
O O5 0.062620 0.293261 0.917927
O O6 0.000000 0.069465 0.750000
O O7 0.125721 0.976294 0.857122
O O8 0.000000 0.000000 0.000000
O O9 0.622761 0.616999 0.122407
O O10 0.000000 0.471934 0.250000
#
# Coordination Sequence:
#
# PCOD8223544 Si02
#       4
#     8   8   8   8
#     4  10  22  41  64  94 129 167 216 262 320 399
#     4  11  25  43  66  99 129 165 222 269 320 396
#     4  11  23  43  67  93 132 173 211 269 329 383
#     4  10  22  41  66  95 128 166 214 270 325 383
#
# _framework density 24.222242999999999
#
# number of rings (size 3 to 8) (size 9 to 14) (size 15 to 20)
#    0.000    1.500    0.000    6.000    0.000   11.000 
#    0.000    7.500    0.000    0.000    0.000    0.000 
#    0.000    0.000    0.000    0.000    0.000    0.000 
#
# Total GULP energy -396897.220731 kJ/mol
# GULP energy per Si atom -12403.038148 kJ/mol
# Density = 2.416711 g / cm^3
# Si number density = 24.222243 Si / 1000 Ang^3
#
#
#
# Elastic Constant Matrix: (Units=GPa)
#
#
# Indices 1 2 3 4 5 6 
#
# 1 141.7546 22.2912 47.5707 0.0000 0.0000 0.0000
# 2 22.2912 73.4508 13.8034 0.0000 0.0000 0.0000
# 3 47.5707 13.8034 118.8276 0.0000 0.0000 0.0000
# 4 0.0000 0.0000 0.0000 3.1634 0.0000 0.0000
# 5 0.0000 0.0000 0.0000 0.0000 34.2768 0.0000
# 6 0.0000 0.0000 0.0000 0.0000 0.0000 41.1777
#
#
#
# Elastic Compliance Matrix: (Units=1/GPa)
#
#
# Indices 1 2 3 4 5 6 
#
# 1 0.008418 -0.001964 -0.003142 0.000000 0.000000 0.000000
# 2 -0.001964 0.014377 -0.000884 0.000000 0.000000 0.000000
# 3 -0.003142 -0.000884 0.009776 0.000000 0.000000 0.000000
# 4 0.000000 0.000000 0.000000 0.316114 0.000000 0.000000
# 5 0.000000 0.000000 0.000000 0.000000 0.029174 0.000000
# 6 0.000000 0.000000 0.000000 0.000000 0.000000 0.024285
#
#
# Mechanical properties :
#
#
# Convention : Reuss Voigt Hill
#
# Bulk Modulus (GPa) = 48.56474 55.70708 52.13591
# Shear Modulus (GPa) = 11.87686 32.41477 22.14581
#
# Velocity S-wave (km/s) = 2.21674 3.66214 3.02698
# Velocity P-wave (km/s) = 5.16189 6.39765 5.81270
#
# Compressibility (1/GPa) = 0.02059107
#
# Stress axis : x y z
#
# Youngs Moduli (GPa) = 118.79836 69.55681 102.29207
#
# Poissons Ratio (x) = 0.13662 0.32137
# Poissons Ratio (y) = 0.23335 0.09040
# Poissons Ratio (z) = 0.37323 0.06147
#
# Static dielectric constant tensor:
#      x y z
#    x 4.669930 0.000000 0.000000 
#    y 0.000000 4.710260 0.000000 
#    z 0.000000 0.000000 3.964200 
# 
# 
# High freq. dielectric constant tensor:
#      x y z
#    x 1.982280 0.000000 0.000000 
#    y 0.000000 1.971280 0.000000 
#    z 0.000000 0.000000 1.951280 
# 
# From -- ./inp_files/4476.got.cif
#   From: 2010.03.12/outbox.cif.g09.slc.cpg/sg54_3_cif.got.tgz:4476.got - 2010.04.16 15:00:50.
