data_PCOD8223087
_publ_section_title
;
Structure prediction by ZEFSAII (Michael W. Deem and Ramdas Pophale) SiO2 
 PCOD8223087
Probable space group: P C C A
;
_chemical_formula_sum "Si O2"
_cell_formula_units_Z 32
_cell_length_a 8.649016
_cell_length_b 12.359229
_cell_length_c 15.346180
_cell_angle_alpha 90.000000
_cell_angle_beta 90.000000
_cell_angle_gamma 90.000000
_cell_volume 1640.432510
_symmetry_space_group_name_H-M "P C C A"
_symmetry_group_IT_number 54
_symmetry_cell_setting 'orthorhombic'
loop_
_space_group_symop_operation_xyz
x,y,z
1/2-x,-y,z
1/2+x,-y,1/2-z
-x,y,1/2-z
-x,-y,-z
1/2+x,y,-z
1/2-x,y,1/2+z
x,-y,1/2+z
loop_
_atom_site_type_symbol
_atom_site_label
_atom_site_fract_x
_atom_site_fract_y
_atom_site_fract_z
Si Si1 0.359964 0.298301 0.085105
Si Si2 0.817647 0.299047 0.249050
Si Si3 0.149312 0.898526 0.196909
Si Si4 0.696033 0.616967 0.572625
O O1 0.251329 0.349913 0.161247
O O2 0.400533 0.173904 0.112579
O O3 0.511950 0.371116 0.074792
O O4 0.267277 0.295466 0.994252
O O5 0.753698 0.176276 0.239041
O O6 0.760913 0.369959 0.169093
O O7 0.000000 0.298871 0.250000
O O8 0.000000 0.938817 0.250000
O O9 0.250000 0.000000 0.164875
O O10 0.750000 0.500000 0.537923
#
# Coordination Sequence:
#
# PCOD8223087 Si02
#       4
#     8   8   8   8
#     4  10  23  42  60  96 133 163 225 276 310 409
#     4  10  21  40  64  92 132 168 219 275 319 393
#     4  10  20  42  69  92 129 166 218 274 334 382
#     4  12  23  40  65  92 132 179 215 276 330 384
#
# _framework density 19.507051000000001
#
# number of rings (size 3 to 8) (size 9 to 14) (size 15 to 20)
#    1.500    0.000    2.500    3.750    0.000    3.000 
#    0.000    2.500    0.000    0.000    0.000    0.000 
#    0.000    0.000    0.000    0.000    0.000    0.000 
#
# Total GULP energy -396637.052218 kJ/mol
# GULP energy per Si atom -12394.907882 kJ/mol
# Density = 1.946265 g / cm^3
# Si number density = 19.507051 Si / 1000 Ang^3
#
#
#
# Elastic Constant Matrix: (Units=GPa)
#
#
# Indices 1 2 3 4 5 6 
#
# 1 168.8914 32.0609 40.6075 0.0000 0.0000 0.0000
# 2 32.0609 84.9149 16.2882 0.0000 0.0000 0.0000
# 3 40.6075 16.2882 92.5429 0.0000 0.0000 0.0000
# 4 0.0000 0.0000 0.0000 -33.7141 0.0000 0.0000
# 5 0.0000 0.0000 0.0000 0.0000 34.3832 0.0000
# 6 0.0000 0.0000 0.0000 0.0000 0.0000 39.1315
#
#
#
# Elastic Compliance Matrix: (Units=1/GPa)
#
#
# Indices 1 2 3 4 5 6 
#
# 1 0.006968 -0.002116 -0.002685 0.000000 0.000000 0.000000
# 2 -0.002116 0.012830 -0.001330 0.000000 0.000000 0.000000
# 3 -0.002685 -0.001330 0.012218 0.000000 0.000000 0.000000
# 4 0.000000 0.000000 0.000000 -0.029661 0.000000 0.000000
# 5 0.000000 0.000000 0.000000 0.000000 0.029084 0.000000
# 6 0.000000 0.000000 0.000000 0.000000 0.000000 0.025555
#
#
# Mechanical properties :
#
#
# Convention : Reuss Voigt Hill
#
# Bulk Modulus (GPa) = 50.62015 58.25138 54.43576
# Shear Modulus (GPa) = 65.92705 25.11962 45.52333
#
# Velocity S-wave (km/s) = 5.81978 3.59237 4.83606
# Velocity P-wave (km/s) = 8.43599 6.86538 7.69088
#
# Compressibility (1/GPa) = 0.01975498
#
# Stress axis : x y z
#
# Youngs Moduli (GPa) = 143.50802 77.93943 81.84561
#
# Poissons Ratio (x) = 0.16491 0.21977
# Poissons Ratio (y) = 0.30365 0.10884
# Poissons Ratio (z) = 0.38535 0.10364
#
# Static dielectric constant tensor:
#      x y z
#    x 3.662190 0.000000 0.000000 
#    y 0.000000 3.261200 0.000000 
#    z 0.000000 0.000000 3.964060 
# 
# 
# High freq. dielectric constant tensor:
#      x y z
#    x 1.775280 0.000000 0.000000 
#    y 0.000000 1.736920 0.000000 
#    z 0.000000 0.000000 1.752100 
# 
# From -- ./inp_files/11244.got.cif
#   From: 2010.03.12/outbox.cif.g09.slc.cpg/sg54_6_cif.got.tgz:11244.got - 2010.04.16 15:00:50.
