data_PCOD8223430
_publ_section_title
;
Structure prediction by ZEFSAII (Michael W. Deem and Ramdas Pophale) SiO2 
 PCOD8223430
Probable space group: P C C A
;
_chemical_formula_sum "Si O2"
_cell_formula_units_Z 44
_cell_length_a 5.259465
_cell_length_b 23.991659
_cell_length_c 16.681484
_cell_angle_alpha 90.000000
_cell_angle_beta 90.000000
_cell_angle_gamma 90.000000
_cell_volume 2104.924547
_symmetry_space_group_name_H-M "P C C A"
_symmetry_group_IT_number 54
_symmetry_cell_setting 'orthorhombic'
loop_
_space_group_symop_operation_xyz
x,y,z
1/2-x,-y,z
1/2+x,-y,1/2-z
-x,y,1/2-z
-x,-y,-z
1/2+x,y,-z
1/2-x,y,1/2+z
x,-y,1/2+z
loop_
_atom_site_type_symbol
_atom_site_label
_atom_site_fract_x
_atom_site_fract_y
_atom_site_fract_z
Si Si1 0.674581 0.055985 0.049676
Si Si2 0.277090 0.821581 0.946848
Si Si3 0.346838 0.559437 0.168509
Si Si4 0.988589 0.352742 0.448174
Si Si5 0.500000 0.642693 0.750000
Si Si6 0.637517 0.730990 0.172281
O O1 0.719033 0.115908 0.091562
O O2 0.750000 0.000000 0.101942
O O3 0.379619 0.052976 0.023760
O O4 0.293045 0.779739 0.871885
O O5 0.516799 0.811622 0.004509
O O6 0.250000 0.500000 0.137096
O O7 0.500000 0.549579 0.250000
O O8 0.507687 0.587790 0.097624
O O9 0.121593 0.602990 0.183240
O O10 0.258641 0.347523 0.490719
O O11 0.944993 0.299871 0.388537
O O12 0.309657 0.680509 0.798806
O O13 0.500000 0.757554 0.250000
#
# Coordination Sequence:
#
# PCOD8223430 Si02
#       6
#     8   8   8   8   4   8
#     4   8  14  28  52  83 119 159 201 248 300 358
#     4  10  22  38  59  94 129 160 207 263 314 356
#     4  12  25  44  72  93 121 164 208 254 306 384
#     4  12  26  44  66  94 129 158 198 255 317 364
#     4  12  22  44  66  90 120 158 218 248 296 376
#     4  12  25  40  65  89 122 171 209 255 303 383
#
# _framework density 20.903362000000001
#
# number of rings (size 3 to 8) (size 9 to 14) (size 15 to 20)
#    0.000    1.091    4.545    2.182    2.545    0.727 
#    0.000    0.000    0.000    0.000    2.364    0.000 
#    0.000    0.000    0.000    0.000    0.000    0.000 
#
# Total GULP energy -545243.448244 kJ/mol
# GULP energy per Si atom -12391.896551 kJ/mol
# Density = 2.085578 g / cm^3
# Si number density = 20.903362 Si / 1000 Ang^3
#
#
#
# Elastic Constant Matrix: (Units=GPa)
#
#
# Indices 1 2 3 4 5 6 
#
# 1 96.6606 18.4737 20.7732 0.0000 0.0000 0.0000
# 2 18.4737 138.5959 38.2898 0.0000 0.0000 0.0000
# 3 20.7732 38.2898 76.8485 0.0000 0.0000 0.0000
# 4 0.0000 0.0000 0.0000 76.6798 0.0000 0.0000
# 5 0.0000 0.0000 0.0000 0.0000 19.2454 0.0000
# 6 0.0000 0.0000 0.0000 0.0000 0.0000 269.4819
#
#
#
# Elastic Compliance Matrix: (Units=1/GPa)
#
#
# Indices 1 2 3 4 5 6 
#
# 1 0.011051 -0.000751 -0.002613 0.000000 0.000000 0.000000
# 2 -0.000751 0.008418 -0.003991 0.000000 0.000000 0.000000
# 3 -0.002613 -0.003991 0.015708 0.000000 0.000000 0.000000
# 4 0.000000 0.000000 0.000000 0.013041 0.000000 0.000000
# 5 0.000000 0.000000 0.000000 0.000000 0.051961 0.000000
# 6 0.000000 0.000000 0.000000 0.000000 0.000000 0.003711
#
#
# Mechanical properties :
#
#
# Convention : Reuss Voigt Hill
#
# Bulk Modulus (GPa) = 48.86232 51.90872 50.38552
# Shear Modulus (GPa) = 39.86573 88.71930 64.29251
#
# Velocity S-wave (km/s) = 4.37182 6.52187 5.55192
# Velocity P-wave (km/s) = 6.99356 9.03325 8.07804
#
# Compressibility (1/GPa) = 0.02046567
#
# Stress axis : x y z
#
# Youngs Moduli (GPa) = 90.49322 118.79318 63.66363
#
# Poissons Ratio (x) = 0.08922 0.16635
# Poissons Ratio (y) = 0.06797 0.25410
# Poissons Ratio (z) = 0.23645 0.47413
#
# Static dielectric constant tensor:
#      x y z
#    x 3.800580 0.000000 0.000000 
#    y 0.000000 4.391050 0.000000 
#    z 0.000000 0.000000 3.954190 
# 
# 
# High freq. dielectric constant tensor:
#      x y z
#    x 1.831130 0.000000 0.000000 
#    y 0.000000 1.840650 0.000000 
#    z 0.000000 0.000000 1.774600 
# 
# From -- ./inp_files/15913.got.cif
#   From: 2010.03.12/outbox.cif.g09.slc.cpg/sg54_8_cif.got.tgz:15913.got - 2010.04.16 15:00:50.
