data_PCOD8223077
_publ_section_title
;
Structure prediction by ZEFSAII (Michael W. Deem and Ramdas Pophale) SiO2 
 PCOD8223077
Probable space group: P C C A
;
_chemical_formula_sum "Si O2"
_cell_formula_units_Z 32
_cell_length_a 11.392089
_cell_length_b 12.275471
_cell_length_c 9.317068
_cell_angle_alpha 90.000000
_cell_angle_beta 90.000000
_cell_angle_gamma 90.000000
_cell_volume 1302.929146
_symmetry_space_group_name_H-M "P C C A"
_symmetry_group_IT_number 54
_symmetry_cell_setting 'orthorhombic'
loop_
_space_group_symop_operation_xyz
x,y,z
1/2-x,-y,z
1/2+x,-y,1/2-z
-x,y,1/2-z
-x,-y,-z
1/2+x,y,-z
1/2-x,y,1/2+z
x,-y,1/2+z
loop_
_atom_site_type_symbol
_atom_site_label
_atom_site_fract_x
_atom_site_fract_y
_atom_site_fract_z
Si Si1 0.750000 0.500000 0.136294
Si Si2 0.956467 0.641472 0.598402
Si Si3 0.816808 0.855155 0.622080
Si Si4 0.250000 0.000000 0.129745
Si Si5 0.889724 0.695117 0.156314
O O1 0.650766 0.564820 0.042781
O O2 0.812235 0.597348 0.229265
O O3 0.917399 0.766054 0.617913
O O4 0.000000 0.593363 0.750000
O O5 0.065581 0.640776 0.491159
O O6 0.828183 0.924000 0.474818
O O7 0.833609 0.928751 0.764923
O O8 0.686966 0.801956 0.628872
O O9 0.000000 0.731281 0.250000
#
# Coordination Sequence:
#
# PCOD8223077 Si02
#       5
#     4   8   8   4   8
#     4  10  24  40  64  90 124 160 196 244 296 354
#     4  11  23  40  62  91 122 158 199 243 296 356
#     4  10  22  40  62  88 122 156 198 250 296 350
#     4  10  20  42  64  84 120 160 196 250 304 344
#     4  11  23  40  62  91 122 158 199 243 296 356
#
# _framework density 24.560046
#
# number of rings (size 3 to 8) (size 9 to 14) (size 15 to 20)
#    0.000    1.500    0.000    4.500    0.000    8.000 
#    0.000   25.000    0.000    0.000    0.000    0.000 
#    0.000    0.000    0.000    0.000    0.000    0.000 
#
# Total GULP energy -396578.023502 kJ/mol
# GULP energy per Si atom -12393.063234 kJ/mol
# Density = 2.450415 g / cm^3
# Si number density = 24.560046 Si / 1000 Ang^3
#
#
#
# Elastic Constant Matrix: (Units=GPa)
#
#
# Indices 1 2 3 4 5 6 
#
# 1 97.3596 40.0897 25.8811 0.0000 0.0000 0.0000
# 2 40.0897 146.2732 34.2574 0.0000 0.0000 0.0000
# 3 25.8811 34.2574 141.6084 0.0000 0.0000 0.0000
# 4 0.0000 0.0000 0.0000 28.7840 0.0000 0.0000
# 5 0.0000 0.0000 0.0000 0.0000 16.5102 0.0000
# 6 0.0000 0.0000 0.0000 0.0000 0.0000 38.2667
#
#
#
# Elastic Compliance Matrix: (Units=1/GPa)
#
#
# Indices 1 2 3 4 5 6 
#
# 1 0.011857 -0.002907 -0.001464 0.000000 0.000000 0.000000
# 2 -0.002907 0.007960 -0.001394 0.000000 0.000000 0.000000
# 3 -0.001464 -0.001394 0.007667 0.000000 0.000000 0.000000
# 4 0.000000 0.000000 0.000000 0.034742 0.000000 0.000000
# 5 0.000000 0.000000 0.000000 0.000000 0.060569 0.000000
# 6 0.000000 0.000000 0.000000 0.000000 0.000000 0.026132
#
#
# Mechanical properties :
#
#
# Convention : Reuss Voigt Hill
#
# Bulk Modulus (GPa) = 62.68241 65.07752 63.87996
# Shear Modulus (GPa) = 30.16148 35.71303 32.93726
#
# Velocity S-wave (km/s) = 3.50819 3.81742 3.66606
# Velocity P-wave (km/s) = 6.47976 6.78123 6.63221
#
# Compressibility (1/GPa) = 0.01595344
#
# Stress axis : x y z
#
# Youngs Moduli (GPa) = 84.33594 125.63137 130.43625
#
# Poissons Ratio (x) = 0.36520 0.19094
# Poissons Ratio (y) = 0.24516 0.18187
# Poissons Ratio (z) = 0.12346 0.17517
#
# Static dielectric constant tensor:
#      x y z
#    x 4.351210 0.000000 0.000000 
#    y 0.000000 4.659110 0.000000 
#    z 0.000000 0.000000 4.244080 
# 
# 
# High freq. dielectric constant tensor:
#      x y z
#    x 1.967050 0.000000 0.000000 
#    y 0.000000 2.002100 0.000000 
#    z 0.000000 0.000000 1.952560 
# 
# From -- ./inp_files/2873.got.cif
#   From: 2010.03.12/outbox.cif.g09.slc.cpg/sg54_2_cif.got.tgz:2873.got - 2010.04.16 15:00:50.
