data_PCOD8223527
_publ_section_title
;
Structure prediction by ZEFSAII (Michael W. Deem and Ramdas Pophale) SiO2 
 PCOD8223527
Probable space group: P C C A
;
_chemical_formula_sum "Si O2"
_cell_formula_units_Z 40
_cell_length_a 14.758537
_cell_length_b 7.518366
_cell_length_c 16.125467
_cell_angle_alpha 90.000000
_cell_angle_beta 90.000000
_cell_angle_gamma 90.000000
_cell_volume 1789.283153
_symmetry_space_group_name_H-M "P C C A"
_symmetry_group_IT_number 54
_symmetry_cell_setting 'orthorhombic'
loop_
_space_group_symop_operation_xyz
x,y,z
1/2-x,-y,z
1/2+x,-y,1/2-z
-x,y,1/2-z
-x,-y,-z
1/2+x,y,-z
1/2-x,y,1/2+z
x,-y,1/2+z
loop_
_atom_site_type_symbol
_atom_site_label
_atom_site_fract_x
_atom_site_fract_y
_atom_site_fract_z
Si Si1 0.250000 0.000000 0.224712
Si Si2 0.060002 0.528997 0.079239
Si Si3 0.175195 0.753435 0.505373
Si Si4 0.000000 0.426103 0.750000
Si Si5 0.139626 0.900529 0.075548
Si Si6 0.310206 0.327662 0.314937
O O1 0.162426 0.983196 0.165552
O O2 0.254974 0.830221 0.284467
O O3 0.013919 0.460401 0.165155
O O4 0.067466 0.743761 0.086051
O O5 0.150162 0.413436 0.064670
O O6 0.000000 0.500000 0.000000
O O7 0.275642 0.807617 0.530380
O O8 0.166979 0.690587 0.411357
O O9 0.109685 0.927561 0.520201
O O10 0.905020 0.319993 0.736288
O O11 0.250000 0.500000 0.296927
#
# Coordination Sequence:
#
# PCOD8223527 Si02
#       6
#     4   8   8   4   8   8
#     4  10  22  40  68  98 138 184 234 298 352 426
#     4  12  24  45  66 100 146 186 226 301 360 426
#     4  10  23  43  71 100 132 186 237 291 360 430
#     4  12  28  44  68 112 142 184 250 294 358 440
#     4  10  23  42  71 101 129 186 240 284 363 430
#     4  12  25  46  71 102 143 187 240 299 358 433
#
# _framework density 22.355322000000001
#
# number of rings (size 3 to 8) (size 9 to 14) (size 15 to 20)
#    0.000    1.200    4.000    3.000    5.600    0.800 
#    0.000    2.000    0.000    0.000    0.000    0.000 
#    0.000    0.000    0.000    0.000    0.000    0.000 
#
# Total GULP energy -495527.664297 kJ/mol
# GULP energy per Si atom -12388.191607 kJ/mol
# Density = 2.230444 g / cm^3
# Si number density = 22.355322 Si / 1000 Ang^3
#
#
#
# Elastic Constant Matrix: (Units=GPa)
#
#
# Indices 1 2 3 4 5 6 
#
# 1 68.6391 40.9765 41.0312 0.0000 0.0000 0.0000
# 2 40.9765 158.0188 49.2014 0.0000 0.0000 0.0000
# 3 41.0312 49.2014 171.1289 0.0000 0.0000 0.0000
# 4 0.0000 0.0000 0.0000 39.1886 0.0000 0.0000
# 5 0.0000 0.0000 0.0000 0.0000 20.5879 0.0000
# 6 0.0000 0.0000 0.0000 0.0000 0.0000 28.9665
#
#
#
# Elastic Compliance Matrix: (Units=1/GPa)
#
#
# Indices 1 2 3 4 5 6 
#
# 1 0.018910 -0.003835 -0.003431 0.000000 0.000000 0.000000
# 2 -0.003835 0.007728 -0.001302 0.000000 0.000000 0.000000
# 3 -0.003431 -0.001302 0.007041 0.000000 0.000000 0.000000
# 4 0.000000 0.000000 0.000000 0.025518 0.000000 0.000000
# 5 0.000000 0.000000 0.000000 0.000000 0.048572 0.000000
# 6 0.000000 0.000000 0.000000 0.000000 0.000000 0.034523
#
#
# Mechanical properties :
#
#
# Convention : Reuss Voigt Hill
#
# Bulk Modulus (GPa) = 60.45584 73.35612 66.90598
# Shear Modulus (GPa) = 30.31356 35.52045 32.91700
#
# Velocity S-wave (km/s) = 3.68637 3.99043 3.84141
# Velocity P-wave (km/s) = 6.72465 7.35638 7.04760
#
# Compressibility (1/GPa) = 0.01654100
#
# Stress axis : x y z
#
# Youngs Moduli (GPa) = 52.88309 129.39280 142.03083
#
# Poissons Ratio (x) = 0.49624 0.48735
# Poissons Ratio (y) = 0.20281 0.18499
# Poissons Ratio (z) = 0.18146 0.16853
#
# Static dielectric constant tensor:
#      x y z
#    x 3.923640 0.000000 0.000000 
#    y 0.000000 4.877940 0.000000 
#    z 0.000000 0.000000 4.339230 
# 
# 
# High freq. dielectric constant tensor:
#      x y z
#    x 1.854240 0.000000 0.000000 
#    y 0.000000 1.880030 0.000000 
#    z 0.000000 0.000000 1.903100 
# 
# From -- ./inp_files/13280.got.cif
#   From: 2010.03.12/outbox.cif.g09.slc.cpg/sg54_7_cif.got.tgz:13280.got - 2010.04.16 15:00:50.
