data_PCOD8223176
_publ_section_title
;
Structure prediction by ZEFSAII (Michael W. Deem and Ramdas Pophale) SiO2 
 PCOD8223176
Probable space group: P C C A
;
_chemical_formula_sum "Si O2"
_cell_formula_units_Z 56
_cell_length_a 5.202399
_cell_length_b 16.144121
_cell_length_c 31.086591
_cell_angle_alpha 90.000000
_cell_angle_beta 90.000000
_cell_angle_gamma 90.000000
_cell_volume 2610.905546
_symmetry_space_group_name_H-M "P C C A"
_symmetry_group_IT_number 54
_symmetry_cell_setting 'orthorhombic'
loop_
_space_group_symop_operation_xyz
x,y,z
1/2-x,-y,z
1/2+x,-y,1/2-z
-x,y,1/2-z
-x,-y,-z
1/2+x,y,-z
1/2-x,y,1/2+z
x,-y,1/2+z
loop_
_atom_site_type_symbol
_atom_site_label
_atom_site_fract_x
_atom_site_fract_y
_atom_site_fract_z
Si Si1 0.121003 0.676831 0.479000
Si Si2 0.060154 0.869649 0.477388
Si Si3 0.506397 0.054378 0.112268
Si Si4 0.789559 0.408536 0.844133
Si Si5 0.625134 0.910751 0.796803
Si Si6 0.786444 0.409449 0.102676
Si Si7 0.757839 0.262628 0.277660
O O1 0.343222 0.637198 0.509819
O O2 0.088634 0.773410 0.487439
O O3 0.210482 0.661615 0.430532
O O4 0.328797 0.909875 0.494032
O O5 0.999798 0.879693 0.426559
O O6 0.548374 0.096970 0.159688
O O7 0.750000 0.000000 0.101921
O O8 0.250000 0.000000 0.111910
O O9 0.750000 0.500000 0.822992
O O10 0.580302 0.396939 0.882177
O O11 0.752045 0.334073 0.812077
O O12 0.084885 0.402489 0.858463
O O13 0.500000 0.909120 0.750000
O O14 0.806397 0.829080 0.798516
O O15 0.750000 0.000000 0.800828
O O16 0.750000 0.500000 0.081064
O O17 0.500000 0.261400 0.250000
O O18 0.000000 0.286566 0.250000
#
# Coordination Sequence:
#
# PCOD8223176 Si02
#       7
#     8   8   8   8   8   8   8
#     4  10  21  37  57  86 120 159 203 248 309 365
#     4  10  22  40  59  87 125 161 203 259 313 365
#     4  11  24  40  62  93 118 161 215 248 316 381
#     4  10  22  40  61  91 126 160 202 254 309 366
#     4  10  22  42  65  91 130 163 204 265 310 368
#     4  10  21  38  60  88 121 161 202 248 310 364
#     4  11  24  41  64  94 120 162 211 246 315 377
#
# _framework density 21.448498000000001
#
# number of rings (size 3 to 8) (size 9 to 14) (size 15 to 20)
#    0.000    1.714    0.000    3.429    2.000    6.286 
#    5.143    0.000    0.000    0.000    0.000    0.000 
#    0.000    0.000    0.000    0.000    0.000    0.000 
#
# Total GULP energy -693816.191540 kJ/mol
# GULP energy per Si atom -12389.574849 kJ/mol
# Density = 2.139968 g / cm^3
# Si number density = 21.448498 Si / 1000 Ang^3
#
#
#
# Elastic Constant Matrix: (Units=GPa)
#
#
# Indices 1 2 3 4 5 6 
#
# 1 127.1245 23.8795 29.3132 0.0000 0.0000 0.0000
# 2 23.8795 89.4989 37.7931 0.0000 0.0000 0.0000
# 3 29.3132 37.7931 125.4478 0.0000 0.0000 0.0000
# 4 0.0000 0.0000 0.0000 40.6547 0.0000 0.0000
# 5 0.0000 0.0000 0.0000 0.0000 21.9175 0.0000
# 6 0.0000 0.0000 0.0000 0.0000 0.0000 20.7426
#
#
#
# Elastic Compliance Matrix: (Units=1/GPa)
#
#
# Indices 1 2 3 4 5 6 
#
# 1 0.008520 -0.001641 -0.001496 0.000000 0.000000 0.000000
# 2 -0.001641 0.013118 -0.003569 0.000000 0.000000 0.000000
# 3 -0.001496 -0.003569 0.009396 0.000000 0.000000 0.000000
# 4 0.000000 0.000000 0.000000 0.024597 0.000000 0.000000
# 5 0.000000 0.000000 0.000000 0.000000 0.045626 0.000000
# 6 0.000000 0.000000 0.000000 0.000000 0.000000 0.048210
#
#
# Mechanical properties :
#
#
# Convention : Reuss Voigt Hill
#
# Bulk Modulus (GPa) = 56.74831 58.22699 57.48765
# Shear Modulus (GPa) = 29.62907 33.40197 31.51552
#
# Velocity S-wave (km/s) = 3.72076 3.95056 3.83738
# Velocity P-wave (km/s) = 6.70627 6.92932 6.81871
#
# Compressibility (1/GPa) = 0.01762167
#
# Stress axis : x y z
#
# Youngs Moduli (GPa) = 117.37582 76.23032 106.42652
#
# Poissons Ratio (x) = 0.12512 0.15925
# Poissons Ratio (y) = 0.19265 0.37979
# Poissons Ratio (z) = 0.17563 0.27203
#
# Static dielectric constant tensor:
#      x y z
#    x 4.293610 0.000000 0.000000 
#    y 0.000000 4.097340 0.000000 
#    z 0.000000 0.000000 3.966000 
# 
# 
# High freq. dielectric constant tensor:
#      x y z
#    x 1.852930 0.000000 0.000000 
#    y 0.000000 1.841070 0.000000 
#    z 0.000000 0.000000 1.837930 
# 
# From -- ./inp_files/27203.got.cif
#   From: 2010.03.12/outbox.cif.g09.slc.cpg/sg54_14_cif.got.tgz:27203.got - 2010.04.16 15:00:50.
