data_PCOD8224517
_publ_section_title
;
Structure prediction by ZEFSAII (Michael W. Deem and Ramdas Pophale) SiO2 
 PCOD8224517
Probable space group: P B A M
;
_chemical_formula_sum "Si O2"
_cell_formula_units_Z 64
_cell_length_a 30.457479
_cell_length_b 14.391157
_cell_length_c 9.005816
_cell_angle_alpha 90.000000
_cell_angle_beta 90.000000
_cell_angle_gamma 90.000000
_cell_volume 3947.414519
_symmetry_space_group_name_H-M "P B A M"
_symmetry_group_IT_number 55
_symmetry_cell_setting 'orthorhombic'
loop_
_space_group_symop_operation_xyz
x,y,z
-x,-y,z
1/2+x,1/2-y,-z
1/2-x,1/2+y,-z
-x,-y,-z
x,y,-z
1/2-x,1/2+y,z
1/2+x,1/2-y,z
loop_
_atom_site_type_symbol
_atom_site_label
_atom_site_fract_x
_atom_site_fract_y
_atom_site_fract_z
Si Si1 0.635001 0.819705 0.170798
Si Si2 0.454755 0.103341 0.826254
Si Si3 0.448933 0.894372 0.824728
Si Si4 0.132629 0.332010 0.667906
Si Si5 0.705881 0.676824 0.830210
Si Si6 0.817793 0.480545 0.668231
Si Si7 0.270387 0.524377 0.172928
Si Si8 0.784984 0.783701 0.676713
O O1 0.583163 0.821428 0.213654
O O2 0.656863 0.718612 0.192542
O O3 0.659986 0.885789 0.283219
O O4 0.640620 0.853992 0.000000
O O5 0.502414 0.136407 0.766335
O O6 0.441421 0.000578 0.768021
O O7 0.461064 0.092053 0.000000
O O8 0.413071 0.824183 0.756062
O O9 0.443894 0.885840 0.000000
O O10 0.123371 0.301545 0.500000
O O11 0.147284 0.438178 0.679248
O O12 0.170986 0.267081 0.735636
O O13 0.701295 0.567891 0.790154
O O14 0.741513 0.731582 0.733029
O O15 0.721483 0.688440 0.000000
O O16 0.799877 0.469628 0.500000
O O17 0.778584 0.502612 0.780069
O O18 0.287858 0.610868 0.267141
O O19 0.271701 0.550964 0.000000
O O20 0.783048 0.780907 0.500000
#
# Coordination Sequence:
#
# PCOD8224517 Si02
#       8
#     8   8   8   8   8   8   8   8
#     4  10  18  31  49  70  95 129 162 196 238 283
#     4   8  15  27  45  70  98 123 156 195 237 288
#     4   9  16  28  47  70  94 126 160 193 235 290
#     4  10  21  33  45  68  99 129 162 198 239 283
#     4  10  21  33  49  72  96 125 163 201 239 283
#     4  11  20  30  45  68  97 129 163 196 234 281
#     4  11  22  35  48  68  97 127 164 205 240 279
#     4  11  22  35  50  69  96 129 164 201 241 287
#
# _framework density 16.213142999999999
#
# number of rings (size 3 to 8) (size 9 to 14) (size 15 to 20)
#    0.000    2.000    3.750    1.875    0.000    2.000 
#    0.000    1.875    0.000    0.000    0.000    0.875 
#    0.000    7.000    0.000    0.000    0.000    0.000 
#
# Total GULP energy -793217.929484 kJ/mol
# GULP energy per Si atom -12394.030148 kJ/mol
# Density = 1.617624 g / cm^3
# Si number density = 16.213143 Si / 1000 Ang^3
#
#
#
# Elastic Constant Matrix: (Units=GPa)
#
#
# Indices 1 2 3 4 5 6 
#
# 1 119.3928 35.4612 30.5434 0.0000 0.0000 0.0000
# 2 35.4612 70.4045 28.6086 0.0000 0.0000 0.0000
# 3 30.5434 28.6086 44.0602 0.0000 0.0000 0.0000
# 4 0.0000 0.0000 0.0000 18.5710 0.0000 0.0000
# 5 0.0000 0.0000 0.0000 0.0000 17.4694 0.0000
# 6 0.0000 0.0000 0.0000 0.0000 0.0000 25.1040
#
#
#
# Elastic Compliance Matrix: (Units=1/GPa)
#
#
# Indices 1 2 3 4 5 6 
#
# 1 0.010694 -0.003225 -0.005320 0.000000 0.000000 0.000000
# 2 -0.003225 0.020267 -0.010924 0.000000 0.000000 0.000000
# 3 -0.005320 -0.010924 0.033477 0.000000 0.000000 0.000000
# 4 0.000000 0.000000 0.000000 0.053847 0.000000 0.000000
# 5 0.000000 0.000000 0.000000 0.000000 0.057243 0.000000
# 6 0.000000 0.000000 0.000000 0.000000 0.000000 0.039834
#
#
# Mechanical properties :
#
#
# Convention : Reuss Voigt Hill
#
# Bulk Modulus (GPa) = 39.21365 47.00933 43.11149
# Shear Modulus (GPa) = 19.02587 21.51182 20.26884
#
# Velocity S-wave (km/s) = 3.42933 3.64650 3.53958
# Velocity P-wave (km/s) = 6.31817 6.84009 6.58430
#
# Compressibility (1/GPa) = 0.02550132
#
# Stress axis : x y z
#
# Youngs Moduli (GPa) = 93.50647 49.34171 29.87138
#
# Poissons Ratio (x) = 0.15912 0.15890
# Poissons Ratio (y) = 0.30155 0.32631
# Poissons Ratio (z) = 0.49742 0.53900
#
# Static dielectric constant tensor:
#      x y z
#    x 3.313480 0.000000 0.000000 
#    y 0.000000 2.971580 0.000000 
#    z 0.000000 0.000000 3.025490 
# 
# 
# High freq. dielectric constant tensor:
#      x y z
#    x 1.618700 0.000000 0.000000 
#    y 0.000000 1.595520 0.000000 
#    z 0.000000 0.000000 1.618190 
# 
# From -- ./inp_files/6926.got.cif
#   From: 2010.03.12/outbox.cif.g09.slc.cpg/sg55_4_cif.got.tgz:6926.got - 2010.04.16 15:19:21.
