data_PCOD8224626
_publ_section_title
;
Structure prediction by ZEFSAII (Michael W. Deem and Ramdas Pophale) SiO2 
 PCOD8224626
Probable space group: P B A M
;
_chemical_formula_sum "Si O2"
_cell_formula_units_Z 56
_cell_length_a 14.641784
_cell_length_b 22.136235
_cell_length_c 8.828412
_cell_angle_alpha 90.000000
_cell_angle_beta 90.000000
_cell_angle_gamma 90.000000
_cell_volume 2861.411675
_symmetry_space_group_name_H-M "P B A M"
_symmetry_group_IT_number 55
_symmetry_cell_setting 'orthorhombic'
loop_
_space_group_symop_operation_xyz
x,y,z
-x,-y,z
1/2+x,1/2-y,-z
1/2-x,1/2+y,-z
-x,-y,-z
x,y,-z
1/2-x,1/2+y,z
1/2+x,1/2-y,z
loop_
_atom_site_type_symbol
_atom_site_label
_atom_site_fract_x
_atom_site_fract_y
_atom_site_fract_z
Si Si1 0.913055 0.420239 0.679229
Si Si2 0.084828 0.804719 0.820380
Si Si3 0.807980 0.310707 0.179609
Si Si4 0.888900 0.554513 0.677726
Si Si5 0.103156 0.021381 0.172935
Si Si6 0.306641 0.412301 0.323084
Si Si7 0.610043 0.342066 0.179641
O O1 0.899862 0.412090 0.500000
O O2 0.851802 0.372144 0.764248
O O3 0.882888 0.486081 0.741077
O O4 0.019224 0.410935 0.729666
O O5 0.136703 0.746364 0.751865
O O6 0.137166 0.864860 0.773578
O O7 0.980342 0.807433 0.758273
O O8 0.085299 0.801885 0.000000
O O9 0.701981 0.307809 0.234155
O O10 0.812372 0.309823 0.000000
O O11 0.894987 0.545152 0.500000
O O12 0.800290 0.593626 0.722773
O O13 0.163584 0.979936 0.281869
O O14 0.111010 0.089082 0.238872
O O15 0.139022 0.017137 0.000000
O O16 0.000000 0.000000 0.182084
O O17 0.322521 0.400374 0.500000
O O18 0.604069 0.344307 0.000000
#
# Coordination Sequence:
#
# PCOD8224626 Si02
#       7
#     8   8   8   8   8   8   8
#     4   9  17  35  58  76 103 141 176 205 259 327
#     4  10  21  38  54  71 104 146 179 206 261 327
#     4  10  21  35  55  79 103 135 179 227 261 297
#     4   8  17  33  54  79 107 141 169 207 265 321
#     4  10  18  32  55  77 105 145 177 205 265 335
#     4  11  21  33  52  81 111 133 173 226 264 300
#     4   9  18  35  55  76 105 139 175 214 261 320
#
# _framework density 19.570761000000001
#
# number of rings (size 3 to 8) (size 9 to 14) (size 15 to 20)
#    0.000    2.429    1.429    2.143    0.000    2.000 
#    0.000    5.714    0.000    0.000    0.000    0.000 
#    0.000    0.000    0.000    0.000    0.000    0.000 
#
# Total GULP energy -694185.663073 kJ/mol
# GULP energy per Si atom -12396.172555 kJ/mol
# Density = 1.952622 g / cm^3
# Si number density = 19.570761 Si / 1000 Ang^3
#
#
#
# Elastic Constant Matrix: (Units=GPa)
#
#
# Indices 1 2 3 4 5 6 
#
# 1 165.2298 67.8132 16.0357 0.0000 0.0000 0.0000
# 2 67.8132 94.4064 6.5560 0.0000 0.0000 0.0000
# 3 16.0357 6.5560 8.1088 0.0000 0.0000 0.0000
# 4 0.0000 0.0000 0.0000 9.7084 0.0000 0.0000
# 5 0.0000 0.0000 0.0000 0.0000 17.6042 0.0000
# 6 0.0000 0.0000 0.0000 0.0000 0.0000 33.0502
#
#
#
# Elastic Compliance Matrix: (Units=1/GPa)
#
#
# Indices 1 2 3 4 5 6 
#
# 1 0.010024 -0.006170 -0.014835 0.000000 0.000000 0.000000
# 2 -0.006170 0.015021 0.000058 0.000000 0.000000 0.000000
# 3 -0.014835 0.000058 0.152613 0.000000 0.000000 0.000000
# 4 0.000000 0.000000 0.000000 0.103003 0.000000 0.000000
# 5 0.000000 0.000000 0.000000 0.000000 0.056805 0.000000
# 6 0.000000 0.000000 0.000000 0.000000 0.000000 0.030257
#
#
# Mechanical properties :
#
#
# Convention : Reuss Voigt Hill
#
# Bulk Modulus (GPa) = 7.36577 49.83945 28.60261
# Shear Modulus (GPa) = 10.99210 23.89523 17.44367
#
# Velocity S-wave (km/s) = 2.37251 3.49802 2.98872
# Velocity P-wave (km/s) = 3.35811 6.46811 5.15332
#
# Compressibility (1/GPa) = 0.13576313
#
# Stress axis : x y z
#
# Youngs Moduli (GPa) = 99.75674 66.57455 6.55253
#
# Poissons Ratio (x) = 0.41079 0.09721
# Poissons Ratio (y) = 0.61554 -0.00038
# Poissons Ratio (z) = 1.47990 -0.00386
#
# Static dielectric constant tensor:
#      x y z
#    x 4.277510 0.000000 0.000000 
#    y 0.000000 3.568770 0.000000 
#    z 0.000000 0.000000 3.145610 
# 
# 
# High freq. dielectric constant tensor:
#      x y z
#    x 1.783520 0.000000 0.000000 
#    y 0.000000 1.753830 0.000000 
#    z 0.000000 0.000000 1.721730 
# 
# From -- ./inp_files/6102.got.cif
#   From: 2010.03.12/outbox.cif.g09.slc.cpg/sg55_4_cif.got.tgz:6102.got - 2010.04.16 15:19:21.
