data_PCOD8224520
_publ_section_title
;
Structure prediction by ZEFSAII (Michael W. Deem and Ramdas Pophale) SiO2 
 PCOD8224520
Probable space group: P B A M
;
_chemical_formula_sum "Si O2"
_cell_formula_units_Z 64
_cell_length_a 21.407472
_cell_length_b 8.985246
_cell_length_c 17.901669
_cell_angle_alpha 90.000000
_cell_angle_beta 90.000000
_cell_angle_gamma 90.000000
_cell_volume 3443.411133
_symmetry_space_group_name_H-M "P B A M"
_symmetry_group_IT_number 55
_symmetry_cell_setting 'orthorhombic'
loop_
_space_group_symop_operation_xyz
x,y,z
-x,-y,z
1/2+x,1/2-y,-z
1/2-x,1/2+y,-z
-x,-y,-z
x,y,-z
1/2-x,1/2+y,z
1/2+x,1/2-y,z
loop_
_atom_site_type_symbol
_atom_site_label
_atom_site_fract_x
_atom_site_fract_y
_atom_site_fract_z
Si Si1 0.118694 0.185783 0.786413
Si Si2 0.180812 0.330433 0.915343
Si Si3 0.826740 0.143846 0.353292
Si Si4 0.959353 0.144942 0.415293
Si Si5 0.257220 0.621677 0.700847
Si Si6 0.498946 0.823023 0.721599
Si Si7 0.103668 0.846901 0.200073
Si Si8 0.297589 0.145851 0.857477
O O1 0.123918 0.283746 0.861458
O O2 0.181261 0.195991 0.736861
O O3 0.070132 0.261348 0.730594
O O4 0.096231 0.022773 0.815940
O O5 0.240769 0.239315 0.889416
O O6 0.191835 0.506407 0.910966
O O7 0.163440 0.289011 0.000000
O O8 0.883976 0.119693 0.411146
O O9 0.782330 0.287065 0.361335
O O10 0.853943 0.158635 0.271880
O O11 0.777901 0.010022 0.353312
O O12 0.976448 0.188125 0.500000
O O13 0.976829 0.281350 0.361283
O O14 0.000000 0.000000 0.390801
O O15 0.214675 0.581213 0.773396
O O16 0.539013 0.738772 0.785311
O O17 0.500000 0.000000 0.731873
O O18 0.142199 0.755670 0.137585
#
# Coordination Sequence:
#
# PCOD8224520 Si02
#       8
#     8   8   8   8   8   8   8   8
#     4  10  19  34  55  78 106 140 183 225 270 329
#     4  11  21  32  49  75 110 145 180 223 272 327
#     4   9  17  30  50  77 105 135 175 221 272 317
#     4  10  21  38  57  77 108 148 186 223 267 325
#     4   9  16  28  50  75 100 131 173 223 263 311
#     4  11  21  34  58  86 107 132 174 226 275 324
#     4   9  18  33  54  78 103 135 181 232 270 315
#     4  10  18  31  49  74 104 140 181 224 272 317
#
# _framework density 18.586220999999998
#
# number of rings (size 3 to 8) (size 9 to 14) (size 15 to 20)
#    0.000    2.125    0.000    7.500    0.000    2.250 
#    0.000    1.250    0.000    6.375    0.000    0.000 
#    0.000    0.000    0.000    0.000    0.000    0.000 
#
# Total GULP energy -792953.679954 kJ/mol
# GULP energy per Si atom -12389.901249 kJ/mol
# Density = 1.854392 g / cm^3
# Si number density = 18.586221 Si / 1000 Ang^3
#
#
#
# Elastic Constant Matrix: (Units=GPa)
#
#
# Indices 1 2 3 4 5 6 
#
# 1 73.6341 33.7320 20.9951 0.0000 0.0000 0.0000
# 2 33.7320 105.0780 19.5812 0.0000 0.0000 0.0000
# 3 20.9951 19.5812 60.4856 0.0000 0.0000 0.0000
# 4 0.0000 0.0000 0.0000 15.2812 0.0000 0.0000
# 5 0.0000 0.0000 0.0000 0.0000 11.9860 0.0000
# 6 0.0000 0.0000 0.0000 0.0000 0.0000 34.7315
#
#
#
# Elastic Compliance Matrix: (Units=1/GPa)
#
#
# Indices 1 2 3 4 5 6 
#
# 1 0.016949 -0.004624 -0.004386 0.000000 0.000000 0.000000
# 2 -0.004624 0.011389 -0.002082 0.000000 0.000000 0.000000
# 3 -0.004386 -0.002082 0.018729 0.000000 0.000000 0.000000
# 4 0.000000 0.000000 0.000000 0.065440 0.000000 0.000000
# 5 0.000000 0.000000 0.000000 0.000000 0.083431 0.000000
# 6 0.000000 0.000000 0.000000 0.000000 0.000000 0.028792
#
#
# Mechanical properties :
#
#
# Convention : Reuss Voigt Hill
#
# Bulk Modulus (GPa) = 40.18726 43.09047 41.63887
# Shear Modulus (GPa) = 19.59171 23.39236 21.49204
#
# Velocity S-wave (km/s) = 3.25021 3.55150 3.40419
# Velocity P-wave (km/s) = 5.97948 6.32867 6.15655
#
# Compressibility (1/GPa) = 0.02488351
#
# Stress axis : x y z
#
# Youngs Moduli (GPa) = 58.99882 87.80385 53.39173
#
# Poissons Ratio (x) = 0.40598 0.23420
# Poissons Ratio (y) = 0.27279 0.11117
# Poissons Ratio (z) = 0.25880 0.18281
#
# Static dielectric constant tensor:
#      x y z
#    x 3.745470 0.000000 0.000000 
#    y 0.000000 3.784140 0.000000 
#    z 0.000000 0.000000 3.186440 
# 
# 
# High freq. dielectric constant tensor:
#      x y z
#    x 1.722790 0.000000 0.000000 
#    y 0.000000 1.727730 0.000000 
#    z 0.000000 0.000000 1.679800 
# 
# From -- ./inp_files/21979.got.cif
#   From: 2010.03.12/outbox.cif.g09.slc.cpg/sg55_11_cif.got.tgz:21979.got - 2010.04.16 15:19:21.
