data_PCOD8224232
_publ_section_title
;
Structure prediction by ZEFSAII (Michael W. Deem and Ramdas Pophale) SiO2 
 PCOD8224232
Probable space group: P B A M
;
_chemical_formula_sum "Si O2"
_cell_formula_units_Z 48
_cell_length_a 26.265573
_cell_length_b 5.222444
_cell_length_c 21.946911
_cell_angle_alpha 90.000000
_cell_angle_beta 90.000000
_cell_angle_gamma 90.000000
_cell_volume 3010.468407
_symmetry_space_group_name_H-M "P B A M"
_symmetry_group_IT_number 55
_symmetry_cell_setting 'orthorhombic'
loop_
_space_group_symop_operation_xyz
x,y,z
-x,-y,z
1/2+x,1/2-y,-z
1/2-x,1/2+y,-z
-x,-y,-z
x,y,-z
1/2-x,1/2+y,z
1/2+x,1/2-y,z
loop_
_atom_site_type_symbol
_atom_site_label
_atom_site_fract_x
_atom_site_fract_y
_atom_site_fract_z
Si Si1 0.966214 0.250491 0.933955
Si Si2 0.607311 0.601259 0.429684
Si Si3 0.778214 0.025870 0.572480
Si Si4 0.560556 0.735465 0.803681
Si Si5 0.553579 0.097587 0.612597
Si Si6 0.446810 0.768074 0.752062
O O1 0.928525 0.221736 0.876343
O O2 0.000000 0.500000 0.922662
O O3 0.937706 0.274717 0.000000
O O4 0.000000 0.000000 0.935440
O O5 0.607721 0.686475 0.500000
O O6 0.663428 0.530782 0.405696
O O7 0.572890 0.346519 0.423759
O O8 0.590271 0.850497 0.391172
O O9 0.775513 0.024720 0.500000
O O10 0.748335 0.271437 0.598893
O O11 0.500416 0.750394 0.787553
O O12 0.584265 0.490364 0.768590
O O13 0.586141 0.993340 0.777568
O O14 0.544603 0.197687 0.680774
O O15 0.500000 0.000000 0.584888
#
# Coordination Sequence:
#
# PCOD8224232 Si02
#       6
#     8   8   8   8   8   8
#     4  10  16  22  33  53  74  92 119 175 243 265
#     4  11  24  37  50  70  90 110 142 179 226 280
#     4   9  17  33  56  74  87 103 126 166 222 279
#     4  10  15  27  40  53  69 100 146 184 214 249
#     4  12  23  34  48  63  90 124 154 183 211 253
#     4  10  18  27  42  55  70 104 150 180 204 237
#
# _framework density 15.944364
#
# number of rings (size 3 to 8) (size 9 to 14) (size 15 to 20)
#    0.000    1.667    5.000    3.000    2.333    4.667 
#    0.000    0.000    0.000    0.000    0.000    0.000 
#    0.000    0.000    0.000    0.000    0.000    0.000 
#
# Total GULP energy -594690.835435 kJ/mol
# GULP energy per Si atom -12389.392405 kJ/mol
# Density = 1.590807 g / cm^3
# Si number density = 15.944364 Si / 1000 Ang^3
#
#
#
# Elastic Constant Matrix: (Units=GPa)
#
#
# Indices 1 2 3 4 5 6 
#
# 1 45.0174 20.7172 16.6393 0.0000 0.0000 0.0000
# 2 20.7172 151.5039 20.3618 0.0000 0.0000 0.0000
# 3 16.6393 20.3618 60.8810 0.0000 0.0000 0.0000
# 4 0.0000 0.0000 0.0000 13.8125 0.0000 0.0000
# 5 0.0000 0.0000 0.0000 0.0000 -0.1113 0.0000
# 6 0.0000 0.0000 0.0000 0.0000 0.0000 20.0493
#
#
#
# Elastic Compliance Matrix: (Units=1/GPa)
#
#
# Indices 1 2 3 4 5 6 
#
# 1 0.025718 -0.002693 -0.006128 0.000000 0.000000 0.000000
# 2 -0.002693 0.007193 -0.001670 0.000000 0.000000 0.000000
# 3 -0.006128 -0.001670 0.018659 0.000000 0.000000 0.000000
# 4 0.000000 0.000000 0.000000 0.072398 0.000000 0.000000
# 5 0.000000 0.000000 0.000000 0.000000 -8.987684 0.000000
# 6 0.000000 0.000000 0.000000 0.000000 0.000000 0.049877
#
#
# Mechanical properties :
#
#
# Convention : Reuss Voigt Hill
#
# Bulk Modulus (GPa) = 32.69266 41.42653 37.05960
# Shear Modulus (GPa) = -0.56930 20.06237 9.74653
#
# Velocity S-wave (km/s) = -0.59819 3.55106 2.47510
# Velocity P-wave (km/s) = 4.48014 6.54612 5.60907
#
# Compressibility (1/GPa) = 0.03058791
#
# Stress axis : x y z
#
# Youngs Moduli (GPa) = 38.88304 139.02073 53.59400
#
# Poissons Ratio (x) = 0.37441 0.32844
# Poissons Ratio (y) = 0.10472 0.08949
# Poissons Ratio (z) = 0.23828 0.23212
#
# Static dielectric constant tensor:
#      x y z
#    x 2.571200 0.000000 0.000000 
#    y 0.000000 4.683180 0.000000 
#    z 0.000000 0.000000 3.168510 
# 
# 
# High freq. dielectric constant tensor:
#      x y z
#    x 1.527410 0.000000 0.000000 
#    y 0.000000 1.655910 0.000000 
#    z 0.000000 0.000000 1.601530 
# 
# From -- ./inp_files/23155.got.cif
#   From: 2010.03.12/outbox.cif.g09.slc.cpg/sg55_12_cif.got.tgz:23155.got - 2010.04.16 15:19:21.
