data_PCOD8224532
_publ_section_title
;
Structure prediction by ZEFSAII (Michael W. Deem and Ramdas Pophale) SiO2 
 PCOD8224532
Probable space group: P B A M
;
_chemical_formula_sum "Si O2"
_cell_formula_units_Z 64
_cell_length_a 23.247938
_cell_length_b 19.072398
_cell_length_c 8.515983
_cell_angle_alpha 90.000000
_cell_angle_beta 90.000000
_cell_angle_gamma 90.000000
_cell_volume 3775.935138
_symmetry_space_group_name_H-M "P B A M"
_symmetry_group_IT_number 55
_symmetry_cell_setting 'orthorhombic'
loop_
_space_group_symop_operation_xyz
x,y,z
-x,-y,z
1/2+x,1/2-y,-z
1/2-x,1/2+y,-z
-x,-y,-z
x,y,-z
1/2-x,1/2+y,z
1/2+x,1/2-y,z
loop_
_atom_site_type_symbol
_atom_site_label
_atom_site_fract_x
_atom_site_fract_y
_atom_site_fract_z
Si Si1 0.728097 0.343320 0.683746
Si Si2 0.163975 0.731630 0.181339
Si Si3 0.671734 0.217015 0.181883
Si Si4 0.057901 0.362765 0.182207
Si Si5 0.220636 0.857336 0.317080
Si Si6 0.242094 0.505691 0.313964
Si Si7 0.112229 0.500273 0.685473
Si Si8 0.063648 0.650937 0.681954
O O1 0.714641 0.338976 0.500000
O O2 0.791731 0.312868 0.713712
O O3 0.679687 0.299346 0.777237
O O4 0.726785 0.423567 0.745927
O O5 0.172628 0.814162 0.220812
O O6 0.099430 0.708662 0.221206
O O7 0.177817 0.718565 0.000000
O O8 0.607667 0.192956 0.223705
O O9 0.715730 0.173006 0.287749
O O10 0.686149 0.203551 0.000000
O O11 0.076561 0.440691 0.227365
O O12 0.003124 0.338545 0.281308
O O13 0.041927 0.361084 0.000000
O O14 0.206309 0.851418 0.500000
O O15 0.220394 0.938518 0.260920
O O16 0.236140 0.509039 0.500000
O O17 0.177221 0.500054 0.247665
O O18 0.109234 0.486494 0.500000
O O19 0.083202 0.573476 0.732398
O O20 0.075493 0.664057 0.500000
#
# Coordination Sequence:
#
# PCOD8224532 Si02
#       8
#     8   8   8   8   8   8   8   8
#     4  10  18  32  52  73  97 128 166 205 245 291
#     4  11  21  33  48  71 101 129 161 204 250 292
#     4  10  20  33  46  69 100 130 163 203 246 290
#     4  11  23  35  48  70 102 134 169 208 248 291
#     4  10  18  31  52  72  95 128 164 201 242 291
#     4   9  17  30  50  75 100 127 164 204 243 285
#     4  10  19  34  50  69  98 133 172 207 238 282
#     4  11  22  36  53  70  94 132 176 210 242 289
#
# _framework density 16.949442999999999
#
# number of rings (size 3 to 8) (size 9 to 14) (size 15 to 20)
#    0.000    1.750    2.500    4.875    0.000    4.000 
#    0.000    2.500    0.000    0.000    0.000    0.875 
#    0.000    7.000    0.000    0.000    0.000    0.000 
#
# Total GULP energy -793682.806005 kJ/mol
# GULP energy per Si atom -12401.293844 kJ/mol
# Density = 1.691087 g / cm^3
# Si number density = 16.949443 Si / 1000 Ang^3
#
#
#
# Elastic Constant Matrix: (Units=GPa)
#
#
# Indices 1 2 3 4 5 6 
#
# 1 82.5296 49.3922 18.1631 0.0000 0.0000 0.0000
# 2 49.3922 117.0507 18.5908 0.0000 0.0000 0.0000
# 3 18.1631 18.5908 41.5712 0.0000 0.0000 0.0000
# 4 0.0000 0.0000 0.0000 16.1927 0.0000 0.0000
# 5 0.0000 0.0000 0.0000 0.0000 24.2003 0.0000
# 6 0.0000 0.0000 0.0000 0.0000 0.0000 24.5442
#
#
#
# Elastic Compliance Matrix: (Units=1/GPa)
#
#
# Indices 1 2 3 4 5 6 
#
# 1 0.016969 -0.006440 -0.004534 0.000000 0.000000 0.000000
# 2 -0.006440 0.011641 -0.002392 0.000000 0.000000 0.000000
# 3 -0.004534 -0.002392 0.027106 0.000000 0.000000 0.000000
# 4 0.000000 0.000000 0.000000 0.061756 0.000000 0.000000
# 5 0.000000 0.000000 0.000000 0.000000 0.041322 0.000000
# 6 0.000000 0.000000 0.000000 0.000000 0.000000 0.040743
#
#
# Mechanical properties :
#
#
# Convention : Reuss Voigt Hill
#
# Bulk Modulus (GPa) = 34.50265 45.93817 40.22041
# Shear Modulus (GPa) = 21.19270 23.32113 22.25692
#
# Velocity S-wave (km/s) = 3.53986 3.71337 3.62765
# Velocity P-wave (km/s) = 6.09163 6.74888 6.42866
#
# Compressibility (1/GPa) = 0.02898328
#
# Stress axis : x y z
#
# Youngs Moduli (GPa) = 58.93055 85.90406 36.89259
#
# Poissons Ratio (x) = 0.55326 0.16727
# Poissons Ratio (y) = 0.37954 0.08824
# Poissons Ratio (z) = 0.26718 0.20548
#
# Static dielectric constant tensor:
#      x y z
#    x 3.007340 0.000000 0.000000 
#    y 0.000000 3.451860 0.000000 
#    z 0.000000 0.000000 3.090120 
# 
# 
# High freq. dielectric constant tensor:
#      x y z
#    x 1.623600 0.000000 0.000000 
#    y 0.000000 1.651310 0.000000 
#    z 0.000000 0.000000 1.655320 
# 
# From -- ./inp_files/9149.got.cif
#   From: 2010.03.12/outbox.cif.g09.slc.cpg/sg55_5_cif.got.tgz:9149.got - 2010.04.16 15:19:21.
