data_PCOD8224148
_publ_section_title
;
Structure prediction by ZEFSAII (Michael W. Deem and Ramdas Pophale) SiO2 
 PCOD8224148
Probable space group: P C C A
;
_chemical_formula_sum "Si O2"
_cell_formula_units_Z 24
_cell_length_a 16.248053
_cell_length_b 4.934076
_cell_length_c 13.582313
_cell_angle_alpha 90.000000
_cell_angle_beta 90.000000
_cell_angle_gamma 90.000000
_cell_volume 1088.882194
_symmetry_space_group_name_H-M "P C C A"
_symmetry_group_IT_number 54
_symmetry_cell_setting 'orthorhombic'
loop_
_space_group_symop_operation_xyz
x,y,z
1/2-x,-y,z
1/2+x,-y,1/2-z
-x,y,1/2-z
-x,-y,-z
1/2+x,y,-z
1/2-x,y,1/2+z
x,-y,1/2+z
loop_
_atom_site_type_symbol
_atom_site_label
_atom_site_fract_x
_atom_site_fract_y
_atom_site_fract_z
Si Si1 0.440957 0.749434 0.013659
Si Si2 0.909099 0.385943 0.270989
Si Si3 0.659153 0.118672 0.170640
O O1 0.396082 0.724933 0.118837
O O2 0.500000 0.500000 0.000000
O O3 0.367622 0.760006 0.934398
O O4 0.500000 0.000000 0.000000
O O5 0.846166 0.633275 0.249038
O O6 0.000000 0.504891 0.250000
O O7 0.899578 0.130412 0.198736
O O8 0.750000 0.000000 0.166575
#
# Coordination Sequence:
#
# PCOD8224148 Si02
#       3
#     8   8   8
#     4  12  23  41  72 103 134 188 241 287 348 432
#     4  12  23  43  74 102 139 189 240 286 354 435
#     4  12  26  45  67 106 147 179 234 305 356 414
#
# _framework density 22.040951
#
# number of rings (size 3 to 8) (size 9 to 14) (size 15 to 20)
#    0.000    0.000    6.667    4.000    0.000    1.333 
#    0.000    6.667    0.000    0.000    0.000    0.000 
#    0.000    0.000    0.000    0.000    0.000    0.000 
#
# Total GULP energy -297680.788744 kJ/mol
# GULP energy per Si atom -12403.366198 kJ/mol
# Density = 2.199078 g / cm^3
# Si number density = 22.040951 Si / 1000 Ang^3
#
#
#
# Elastic Constant Matrix: (Units=GPa)
#
#
# Indices 1 2 3 4 5 6 
#
# 1 113.1236 57.4618 80.5185 0.0000 0.0000 0.0000
# 2 57.4618 174.5301 64.4209 0.0000 0.0000 0.0000
# 3 80.5185 64.4209 159.3669 0.0000 0.0000 0.0000
# 4 0.0000 0.0000 0.0000 39.7679 0.0000 0.0000
# 5 0.0000 0.0000 0.0000 0.0000 28.9557 0.0000
# 6 0.0000 0.0000 0.0000 0.0000 0.0000 53.1682
#
#
#
# Elastic Compliance Matrix: (Units=1/GPa)
#
#
# Indices 1 2 3 4 5 6 
#
# 1 0.014649 -0.002458 -0.006408 0.000000 0.000000 0.000000
# 2 -0.002458 0.007147 -0.001647 0.000000 0.000000 0.000000
# 3 -0.006408 -0.001647 0.010178 0.000000 0.000000 0.000000
# 4 0.000000 0.000000 0.000000 0.025146 0.000000 0.000000
# 5 0.000000 0.000000 0.000000 0.000000 0.034536 0.000000
# 6 0.000000 0.000000 0.000000 0.000000 0.000000 0.018808
#
#
# Mechanical properties :
#
#
# Convention : Reuss Voigt Hill
#
# Bulk Modulus (GPa) = 91.33634 94.64701 92.99168
# Shear Modulus (GPa) = 36.99878 40.68629 38.84254
#
# Velocity S-wave (km/s) = 4.10156 4.30110 4.20252
# Velocity P-wave (km/s) = 7.99749 8.22804 8.11358
#
# Compressibility (1/GPa) = 0.01094854
#
# Stress axis : x y z
#
# Youngs Moduli (GPa) = 68.26232 139.92106 98.24935
#
# Poissons Ratio (x) = 0.34391 0.62957
# Poissons Ratio (y) = 0.16778 0.16183
# Poissons Ratio (z) = 0.43742 0.23047
#
# Static dielectric constant tensor:
#      x y z
#    x 3.664360 0.000000 0.000000 
#    y 0.000000 4.189650 0.000000 
#    z 0.000000 0.000000 3.421750 
# 
# 
# High freq. dielectric constant tensor:
#      x y z
#    x 1.850450 0.000000 0.000000 
#    y 0.000000 1.893290 0.000000 
#    z 0.000000 0.000000 1.876240 
# 
# From -- ./inp_files/8583.got.cif
#   From: 2010.03.12/outbox.cif.g09.slc.cpg/sg54_5_cif.got.tgz:8583.got - 2010.04.16 15:00:50.
