data_PCOD8224843
_publ_section_title
;
Structure prediction by ZEFSAII (Michael W. Deem and Ramdas Pophale) SiO2 
 PCOD8224843
Probable space group: P B A M
;
_chemical_formula_sum "Si O2"
_cell_formula_units_Z 48
_cell_length_a 19.234234
_cell_length_b 15.558411
_cell_length_c 9.089871
_cell_angle_alpha 90.000000
_cell_angle_beta 90.000000
_cell_angle_gamma 90.000000
_cell_volume 2720.181327
_symmetry_space_group_name_H-M "P B A M"
_symmetry_group_IT_number 55
_symmetry_cell_setting 'orthorhombic'
loop_
_space_group_symop_operation_xyz
x,y,z
-x,-y,z
1/2+x,1/2-y,-z
1/2-x,1/2+y,-z
-x,-y,-z
x,y,-z
1/2-x,1/2+y,z
1/2+x,1/2-y,z
loop_
_atom_site_type_symbol
_atom_site_label
_atom_site_fract_x
_atom_site_fract_y
_atom_site_fract_z
Si Si1 0.202470 0.240878 0.670477
Si Si2 0.544086 0.081477 0.329095
Si Si3 0.052182 0.068273 0.169752
Si Si4 0.442214 0.756520 0.829897
Si Si5 0.293606 0.931294 0.668043
Si Si6 0.790613 0.925039 0.174141
O O1 0.198490 0.216307 0.500000
O O2 0.126237 0.250393 0.734031
O O3 0.237685 0.334891 0.691373
O O4 0.241199 0.163137 0.755952
O O5 0.531987 0.101301 0.500000
O O6 0.514653 0.163368 0.236544
O O7 0.624766 0.064781 0.293714
O O8 0.500000 0.000000 0.276465
O O9 0.019490 0.164235 0.188101
O O10 0.130427 0.062771 0.234728
O O11 0.059110 0.043044 0.000000
O O12 0.000000 0.000000 0.247839
O O13 0.423874 0.773549 0.000000
O O14 0.281709 0.960943 0.500000
O O15 0.254534 0.993999 0.778455
O O16 0.788390 0.914659 0.000000
#
# Coordination Sequence:
#
# PCOD8224843 Si02
#       6
#     8   8   8   8   8   8
#     4   9  17  31  50  68  92 128 164 194 230 283
#     4   9  18  33  51  69  92 125 162 197 237 286
#     4   8  15  29  47  67  93 123 152 184 228 279
#     4   9  16  27  47  72  94 120 157 196 235 281
#     4   9  18  32  50  70  93 125 158 192 238 285
#     4  10  19  30  49  74  96 122 157 199 240 280
#
# _framework density 17.645883000000001
#
# number of rings (size 3 to 8) (size 9 to 14) (size 15 to 20)
#    0.000    3.000    0.000    3.500    0.000    3.667 
#    0.000    1.667    0.000   22.000    0.000    0.000 
#    0.000    0.000    0.000    0.000    0.000    0.000 
#
# Total GULP energy -594737.313238 kJ/mol
# GULP energy per Si atom -12390.360692 kJ/mol
# Density = 1.760572 g / cm^3
# Si number density = 17.645883 Si / 1000 Ang^3
#
#
#
# Elastic Constant Matrix: (Units=GPa)
#
#
# Indices 1 2 3 4 5 6 
#
# 1 41.6050 48.2356 25.3014 0.0000 0.0000 0.0000
# 2 48.2356 159.7831 65.8816 0.0000 0.0000 0.0000
# 3 25.3014 65.8816 80.1912 0.0000 0.0000 0.0000
# 4 0.0000 0.0000 0.0000 34.7728 0.0000 0.0000
# 5 0.0000 0.0000 0.0000 0.0000 15.7526 0.0000
# 6 0.0000 0.0000 0.0000 0.0000 0.0000 27.4181
#
#
#
# Elastic Compliance Matrix: (Units=1/GPa)
#
#
# Indices 1 2 3 4 5 6 
#
# 1 0.037749 -0.009807 -0.003853 0.000000 0.000000 0.000000
# 2 -0.009807 0.012012 -0.006775 0.000000 0.000000 0.000000
# 3 -0.003853 -0.006775 0.019252 0.000000 0.000000 0.000000
# 4 0.000000 0.000000 0.000000 0.028758 0.000000 0.000000
# 5 0.000000 0.000000 0.000000 0.000000 0.063482 0.000000
# 6 0.000000 0.000000 0.000000 0.000000 0.000000 0.036472
#
#
# Mechanical properties :
#
#
# Convention : Reuss Voigt Hill
#
# Bulk Modulus (GPa) = 35.53272 62.26850 48.90061
# Shear Modulus (GPa) = 20.16333 25.06609 22.61471
#
# Velocity S-wave (km/s) = 3.38400 3.77305 3.58381
# Velocity P-wave (km/s) = 5.95390 7.37195 6.70054
#
# Compressibility (1/GPa) = 0.02814308
#
# Stress axis : x y z
#
# Youngs Moduli (GPa) = 26.49104 83.24836 51.94355
#
# Poissons Ratio (x) = 0.81640 0.20016
# Poissons Ratio (y) = 0.25979 0.35189
# Poissons Ratio (z) = 0.10208 0.56397
#
# Static dielectric constant tensor:
#      x y z
#    x 2.980240 0.000000 0.000000 
#    y 0.000000 4.051310 0.000000 
#    z 0.000000 0.000000 3.262440 
# 
# 
# High freq. dielectric constant tensor:
#      x y z
#    x 1.629860 0.000000 0.000000 
#    y 0.000000 1.705220 0.000000 
#    z 0.000000 0.000000 1.676690 
# 
# From -- ./inp_files/5810.got.cif
#   From: 2010.03.12/outbox.cif.g09.slc.cpg/sg55_3_cif.got.tgz:5810.got - 2010.04.16 15:19:21.
