data_PCOD8224347
_publ_section_title
;
Structure prediction by ZEFSAII (Michael W. Deem and Ramdas Pophale) SiO2 
 PCOD8224347
Probable space group: P B A M
;
_chemical_formula_sum "Si O2"
_cell_formula_units_Z 64
_cell_length_a 26.401120
_cell_length_b 17.903965
_cell_length_c 9.541060
_cell_angle_alpha 90.000000
_cell_angle_beta 90.000000
_cell_angle_gamma 90.000000
_cell_volume 4509.913355
_symmetry_space_group_name_H-M "P B A M"
_symmetry_group_IT_number 55
_symmetry_cell_setting 'orthorhombic'
loop_
_space_group_symop_operation_xyz
x,y,z
-x,-y,z
1/2+x,1/2-y,-z
1/2-x,1/2+y,-z
-x,-y,-z
x,y,-z
1/2-x,1/2+y,z
1/2+x,1/2-y,z
loop_
_atom_site_type_symbol
_atom_site_label
_atom_site_fract_x
_atom_site_fract_y
_atom_site_fract_z
Si Si1 0.738876 0.429895 0.836008
Si Si2 0.149705 0.824107 0.338952
Si Si3 0.058087 0.920437 0.334768
Si Si4 0.640410 0.336059 0.163209
Si Si5 0.200349 0.305927 0.155404
Si Si6 0.250276 0.420966 0.337883
Si Si7 0.198619 0.709656 0.154419
Si Si8 0.555859 0.411603 0.334589
O O1 0.685684 0.391953 0.795504
O O2 0.746405 0.500792 0.739261
O O3 0.785255 0.373805 0.800583
O O4 0.739434 0.451886 0.000000
O O5 0.141125 0.803374 0.500000
O O6 0.100348 0.864574 0.272518
O O7 0.196483 0.879724 0.319140
O O8 0.158164 0.745557 0.260340
O O9 0.064798 0.924808 0.500000
O O10 0.002182 0.890935 0.296755
O O11 0.066887 0.004540 0.278721
O O12 0.655386 0.250492 0.198729
O O13 0.591294 0.353853 0.254375
O O14 0.627376 0.344434 0.000000
O O15 0.205222 0.372422 0.267867
O O16 0.251300 0.258783 0.150580
O O17 0.190170 0.339497 0.000000
O O18 0.236759 0.433455 0.500000
O O19 0.173842 0.708243 0.000000
O O20 0.565664 0.404802 0.500000
#
# Coordination Sequence:
#
# PCOD8224347 Si02
#       8
#     8   8   8   8   8   8   8   8
#     4   9  17  28  40  54  77 107 131 154 191 236
#     4   9  16  26  39  55  77 103 130 161 194 225
#     4   8  15  27  40  55  77 106 135 159 193 237
#     4   9  17  28  41  57  77 103 135 165 193 228
#     4   8  15  28  41  52  74 106 130 153 192 235
#     4  10  18  25  38  61  81  98 129 167 192 219
#     4   8  15  27  40  54  72  98 132 160 185 226
#     4   9  16  27  42  56  75 105 136 165 194 226
#
# _framework density 14.190958999999999
#
# number of rings (size 3 to 8) (size 9 to 14) (size 15 to 20)
#    0.000    3.250    0.000    3.375    0.000    3.000 
#    0.000    5.000    0.000    0.000    0.000    0.000 
#    0.000    1.000    0.000   11.250    0.000    5.000 
#
# Total GULP energy -793246.021640 kJ/mol
# GULP energy per Si atom -12394.469088 kJ/mol
# Density = 1.415866 g / cm^3
# Si number density = 14.190959 Si / 1000 Ang^3
#
#
#
# Elastic Constant Matrix: (Units=GPa)
#
#
# Indices 1 2 3 4 5 6 
#
# 1 71.0296 33.8444 37.2000 0.0000 0.0000 0.0000
# 2 33.8444 67.1564 50.3346 0.0000 0.0000 0.0000
# 3 37.2000 50.3346 69.8593 0.0000 0.0000 0.0000
# 4 0.0000 0.0000 0.0000 26.0633 0.0000 0.0000
# 5 0.0000 0.0000 0.0000 0.0000 19.0346 0.0000
# 6 0.0000 0.0000 0.0000 0.0000 0.0000 26.0118
#
#
#
# Elastic Compliance Matrix: (Units=1/GPa)
#
#
# Indices 1 2 3 4 5 6 
#
# 1 0.020155 -0.004594 -0.007422 0.000000 0.000000 0.000000
# 2 -0.004594 0.033421 -0.021633 0.000000 0.000000 0.000000
# 3 -0.007422 -0.021633 0.033854 0.000000 0.000000 0.000000
# 4 0.000000 0.000000 0.000000 0.038368 0.000000 0.000000
# 5 0.000000 0.000000 0.000000 0.000000 0.052536 0.000000
# 6 0.000000 0.000000 0.000000 0.000000 0.000000 0.038444
#
#
# Mechanical properties :
#
#
# Convention : Reuss Voigt Hill
#
# Bulk Modulus (GPa) = 49.67838 50.08924 49.88381
# Shear Modulus (GPa) = 17.19469 19.99970 18.59720
#
# Velocity S-wave (km/s) = 3.48467 3.75817 3.62400
# Velocity P-wave (km/s) = 7.16056 7.36241 7.26219
#
# Compressibility (1/GPa) = 0.02012948
#
# Stress axis : x y z
#
# Youngs Moduli (GPa) = 49.61562 29.92174 29.53862
#
# Poissons Ratio (x) = 0.13747 0.21924
# Poissons Ratio (y) = 0.22795 0.63902
# Poissons Ratio (z) = 0.36826 0.64731
#
# Static dielectric constant tensor:
#      x y z
#    x 2.720190 0.000000 0.000000 
#    y 0.000000 2.797580 0.000000 
#    z 0.000000 0.000000 2.789070 
# 
# 
# High freq. dielectric constant tensor:
#      x y z
#    x 1.512120 0.000000 0.000000 
#    y 0.000000 1.528690 0.000000 
#    z 0.000000 0.000000 1.537370 
# 
# From -- ./inp_files/8180.got.cif
#   From: 2010.03.12/outbox.cif.g09.slc.cpg/sg55_5_cif.got.tgz:8180.got - 2010.04.16 15:19:21.
