data_PCOD8224698
_publ_section_title
;
Structure prediction by ZEFSAII (Michael W. Deem and Ramdas Pophale) SiO2 
 PCOD8224698
Probable space group: P B A M
;
_chemical_formula_sum "Si O2"
_cell_formula_units_Z 64
_cell_length_a 23.428402
_cell_length_b 15.362937
_cell_length_c 8.706262
_cell_angle_alpha 90.000000
_cell_angle_beta 90.000000
_cell_angle_gamma 90.000000
_cell_volume 3133.636732
_symmetry_space_group_name_H-M "P B A M"
_symmetry_group_IT_number 55
_symmetry_cell_setting 'orthorhombic'
loop_
_space_group_symop_operation_xyz
x,y,z
-x,-y,z
1/2+x,1/2-y,-z
1/2-x,1/2+y,-z
-x,-y,-z
x,y,-z
1/2-x,1/2+y,z
1/2+x,1/2-y,z
loop_
_atom_site_type_symbol
_atom_site_label
_atom_site_fract_x
_atom_site_fract_y
_atom_site_fract_z
Si Si1 0.882415 0.396069 0.324578
Si Si2 0.310065 0.748114 0.681211
Si Si3 0.382666 0.595487 0.821519
Si Si4 0.376419 0.415487 0.319906
Si Si5 0.005037 0.328815 0.675550
Si Si6 0.879595 0.587547 0.318839
Si Si7 0.510203 0.646166 0.823395
Si Si8 0.187791 0.754517 0.179962
O O1 0.861299 0.381750 0.500000
O O2 0.864481 0.490875 0.257578
O O3 0.855937 0.322341 0.217851
O O4 0.950888 0.392189 0.317303
O O5 0.310273 0.736436 0.500000
O O6 0.354813 0.680804 0.750511
O O7 0.329921 0.845365 0.729200
O O8 0.247702 0.730364 0.744617
O O9 0.357552 0.510468 0.738323
O O10 0.450486 0.598227 0.794246
O O11 0.367318 0.590972 0.000000
O O12 0.366830 0.408748 0.500000
O O13 0.442439 0.399351 0.281035
O O14 0.335530 0.345398 0.241769
O O15 0.016120 0.297373 0.500000
O O16 0.059546 0.379223 0.744669
O O17 0.994061 0.246818 0.782829
O O18 0.885803 0.579418 0.500000
O O19 0.529448 0.637107 0.000000
O O20 0.196017 0.762050 0.000000
#
# Coordination Sequence:
#
# PCOD8224698 Si02
#       8
#     8   8   8   8   8   8   8   8
#     4  10  20  37  63  94 126 161 203 251 304 372
#     4  11  23  42  66  91 122 164 216 264 304 364
#     4  11  24  42  64  94 130 166 203 254 319 379
#     4  12  25  42  66  94 123 163 213 261 310 375
#     4  10  18  33  61  93 126 162 199 243 303 370
#     4   9  19  36  62  95 126 158 201 250 301 358
#     4  11  22  37  61  93 132 167 199 248 314 378
#     4  12  26  44  63  87 124 165 209 264 320 372
#
# _framework density 20.423553999999999
#
# number of rings (size 3 to 8) (size 9 to 14) (size 15 to 20)
#    0.000    1.250    2.500    4.125    0.000    5.500 
#    0.000    5.625    0.000    1.500    0.000    0.000 
#    0.000    0.000    0.000    0.000    0.000    0.000 
#
# Total GULP energy -793877.785954 kJ/mol
# GULP energy per Si atom -12404.340406 kJ/mol
# Density = 2.037707 g / cm^3
# Si number density = 20.423554 Si / 1000 Ang^3
#
#
#
# Elastic Constant Matrix: (Units=GPa)
#
#
# Indices 1 2 3 4 5 6 
#
# 1 52.5614 -11.5080 20.1071 0.0000 0.0000 0.0000
# 2 -11.5080 102.5636 35.2801 0.0000 0.0000 0.0000
# 3 20.1071 35.2801 122.7664 0.0000 0.0000 0.0000
# 4 0.0000 0.0000 0.0000 17.9877 0.0000 0.0000
# 5 0.0000 0.0000 0.0000 0.0000 26.4020 0.0000
# 6 0.0000 0.0000 0.0000 0.0000 0.0000 13.4932
#
#
#
# Elastic Compliance Matrix: (Units=1/GPa)
#
#
# Indices 1 2 3 4 5 6 
#
# 1 0.021723 0.004063 -0.004725 0.000000 0.000000 0.000000
# 2 0.004063 0.011579 -0.003993 0.000000 0.000000 0.000000
# 3 -0.004725 -0.003993 0.010067 0.000000 0.000000 0.000000
# 4 0.000000 0.000000 0.000000 0.055593 0.000000 0.000000
# 5 0.000000 0.000000 0.000000 0.000000 0.037876 0.000000
# 6 0.000000 0.000000 0.000000 0.000000 0.000000 0.074111
#
#
# Mechanical properties :
#
#
# Convention : Reuss Voigt Hill
#
# Bulk Modulus (GPa) = 29.36191 40.62776 34.99484
# Shear Modulus (GPa) = 21.58769 27.17741 24.38255
#
# Velocity S-wave (km/s) = 3.25468 3.65182 3.45895
# Velocity P-wave (km/s) = 5.34150 6.14140 5.75537
#
# Compressibility (1/GPa) = 0.03405773
#
# Stress axis : x y z
#
# Youngs Moduli (GPa) = 46.03511 86.35986 99.33451
#
# Poissons Ratio (x) = -0.35086 0.46939
# Poissons Ratio (y) = -0.18703 0.39665
# Poissons Ratio (z) = 0.21753 0.34484
#
# Static dielectric constant tensor:
#      x y z
#    x 3.713600 0.000000 0.000000 
#    y 0.000000 3.881340 0.000000 
#    z 0.000000 0.000000 3.620040 
# 
# 
# High freq. dielectric constant tensor:
#      x y z
#    x 1.796160 0.000000 0.000000 
#    y 0.000000 1.812330 0.000000 
#    z 0.000000 0.000000 1.787950 
# 
# From -- ./inp_files/9705.got.cif
#   From: 2010.03.12/outbox.cif.g09.slc.cpg/sg55_5_cif.got.tgz:9705.got - 2010.04.16 15:19:21.
