data_PCOD8224489
_publ_section_title
;
Structure prediction by ZEFSAII (Michael W. Deem and Ramdas Pophale) SiO2 
 PCOD8224489
Probable space group: P B A M
;
_chemical_formula_sum "Si O2"
_cell_formula_units_Z 40
_cell_length_a 20.769412
_cell_length_b 12.433926
_cell_length_c 9.024060
_cell_angle_alpha 90.000000
_cell_angle_beta 90.000000
_cell_angle_gamma 90.000000
_cell_volume 2330.421370
_symmetry_space_group_name_H-M "P B A M"
_symmetry_group_IT_number 55
_symmetry_cell_setting 'orthorhombic'
loop_
_space_group_symop_operation_xyz
x,y,z
-x,-y,z
1/2+x,1/2-y,-z
1/2-x,1/2+y,-z
-x,-y,-z
x,y,-z
1/2-x,1/2+y,z
1/2+x,1/2-y,z
loop_
_atom_site_type_symbol
_atom_site_label
_atom_site_fract_x
_atom_site_fract_y
_atom_site_fract_z
Si Si1 0.193686 0.610247 0.672782
Si Si2 0.840294 0.179762 0.826130
Si Si3 0.164025 0.185405 0.329131
Si Si4 0.302197 0.892535 0.173564
Si Si5 0.925134 0.008906 0.671445
O O1 0.178145 0.606755 0.500000
O O2 0.152503 0.705764 0.745546
O O3 0.268975 0.626594 0.706380
O O4 0.171894 0.498480 0.745397
O O5 0.772278 0.126030 0.783513
O O6 0.897295 0.103688 0.771500
O O7 0.846257 0.198857 0.000000
O O8 0.160803 0.220640 0.500000
O O9 0.155945 0.291467 0.229478
O O10 0.107067 0.104460 0.285496
O O11 0.312149 0.906635 0.000000
O O12 0.911028 0.036082 0.500000
O O13 0.000000 0.000000 0.706047
#
# Coordination Sequence:
#
# PCOD8224489 Si02
#       5
#     8   8   8   8   8
#     4  10  18  30  51  74 101 133 166 207 253 303
#     4  10  20  32  48  73 105 135 168 207 253 305
#     4   9  18  31  48  72 100 132 168 203 247 299
#     4  10  19  30  48  74 104 133 162 206 256 301
#     4  10  20  35  54  75 102 136 175 213 246 293
#
# _framework density 17.164277999999999
#
# number of rings (size 3 to 8) (size 9 to 14) (size 15 to 20)
#    0.000    2.200    2.000    1.800    0.000    3.600 
#    0.000    0.000    0.000    1.200    0.000    8.400 
#    0.000    0.000    0.000    0.000    0.000    0.000 
#
# Total GULP energy -496171.531553 kJ/mol
# GULP energy per Si atom -12404.288289 kJ/mol
# Density = 1.712521 g / cm^3
# Si number density = 17.164278 Si / 1000 Ang^3
#
#
#
# Elastic Constant Matrix: (Units=GPa)
#
#
# Indices 1 2 3 4 5 6 
#
# 1 65.8395 45.8368 30.6715 0.0000 0.0000 0.0000
# 2 45.8368 152.3994 72.1693 0.0000 0.0000 0.0000
# 3 30.6715 72.1693 85.7116 0.0000 0.0000 0.0000
# 4 0.0000 0.0000 0.0000 32.3117 0.0000 0.0000
# 5 0.0000 0.0000 0.0000 0.0000 18.4228 0.0000
# 6 0.0000 0.0000 0.0000 0.0000 0.0000 20.2049
#
#
#
# Elastic Compliance Matrix: (Units=1/GPa)
#
#
# Indices 1 2 3 4 5 6 
#
# 1 0.019804 -0.004325 -0.003445 0.000000 0.000000 0.000000
# 2 -0.004325 0.011858 -0.008436 0.000000 0.000000 0.000000
# 3 -0.003445 -0.008436 0.020003 0.000000 0.000000 0.000000
# 4 0.000000 0.000000 0.000000 0.030949 0.000000 0.000000
# 5 0.000000 0.000000 0.000000 0.000000 0.054280 0.000000
# 6 0.000000 0.000000 0.000000 0.000000 0.000000 0.049493
#
#
# Mechanical properties :
#
#
# Convention : Reuss Voigt Hill
#
# Bulk Modulus (GPa) = 51.94255 66.81175 59.37715
# Shear Modulus (GPa) = 22.20067 24.53941 23.37004
#
# Velocity S-wave (km/s) = 3.60032 3.78521 3.69392
# Velocity P-wave (km/s) = 6.90006 7.62320 7.27062
#
# Compressibility (1/GPa) = 0.01925204
#
# Stress axis : x y z
#
# Youngs Moduli (GPa) = 50.49361 84.33369 49.99143
#
# Poissons Ratio (x) = 0.36475 0.17223
# Poissons Ratio (y) = 0.21839 0.42175
# Poissons Ratio (z) = 0.17396 0.71148
#
# Static dielectric constant tensor:
#      x y z
#    x 2.843410 0.000000 0.000000 
#    y 0.000000 3.267250 0.000000 
#    z 0.000000 0.000000 3.196850 
# 
# 
# High freq. dielectric constant tensor:
#      x y z
#    x 1.615140 0.000000 0.000000 
#    y 0.000000 1.674430 0.000000 
#    z 0.000000 0.000000 1.671490 
# 
# From -- ./inp_files/3614.got.cif
#   From: 2010.03.12/outbox.cif.g09.slc.cpg/sg55_2_cif.got.tgz:3614.got - 2010.04.16 15:19:21.
