data_PCOD8224208
_publ_section_title
;
Structure prediction by ZEFSAII (Michael W. Deem and Ramdas Pophale) SiO2 
 PCOD8224208
Probable space group: P C C A
;
_chemical_formula_sum "Si O2"
_cell_formula_units_Z 24
_cell_length_a 7.511311
_cell_length_b 5.449123
_cell_length_c 23.595018
_cell_angle_alpha 90.000000
_cell_angle_beta 90.000000
_cell_angle_gamma 90.000000
_cell_volume 965.745444
_symmetry_space_group_name_H-M "P C C A"
_symmetry_group_IT_number 54
_symmetry_cell_setting 'orthorhombic'
loop_
_space_group_symop_operation_xyz
x,y,z
1/2-x,-y,z
1/2+x,-y,1/2-z
-x,y,1/2-z
-x,-y,-z
1/2+x,y,-z
1/2-x,y,1/2+z
x,-y,1/2+z
loop_
_atom_site_type_symbol
_atom_site_label
_atom_site_fract_x
_atom_site_fract_y
_atom_site_fract_z
Si Si1 0.991824 0.251204 0.964425
Si Si2 0.568853 0.153438 0.688150
Si Si3 0.750000 0.000000 0.887295
Si Si4 0.250000 0.500000 0.888033
O O1 0.167671 0.275649 0.924846
O O2 0.806928 0.229667 0.928202
O O3 0.000000 0.500000 0.000000
O O4 0.000000 0.000000 0.000000
O O5 0.500000 0.224818 0.750000
O O6 0.419207 0.017219 0.652806
O O7 0.596087 0.401480 0.652969
O O8 0.750000 0.000000 0.692980
#
# Coordination Sequence:
#
# PCOD8224208 Si02
#       4
#     8   8   4   4
#     4  12  27  49  80 124 165 221 277 337 413 498
#     4  12  27  52  81 120 160 212 278 349 419 499
#     4  12  26  50  86 112 168 218 268 342 422 486
#     4  12  28  48  78 120 170 204 286 342 408 506
#
# _framework density 24.851268000000001
#
# number of rings (size 3 to 8) (size 9 to 14) (size 15 to 20)
#    0.000    0.000    5.000    4.000    0.000    8.000 
#    0.000    0.000    0.000    0.000    0.000    0.000 
#    0.000    0.000    0.000    0.000    0.000    0.000 
#
# Total GULP energy -297326.532796 kJ/mol
# GULP energy per Si atom -12388.605533 kJ/mol
# Density = 2.479471 g / cm^3
# Si number density = 24.851268 Si / 1000 Ang^3
#
#
#
# Elastic Constant Matrix: (Units=GPa)
#
#
# Indices 1 2 3 4 5 6 
#
# 1 158.8745 55.7675 83.6741 0.0000 0.0000 0.0000
# 2 55.7675 155.0623 98.3248 0.0000 0.0000 0.0000
# 3 83.6741 98.3248 198.8081 0.0000 0.0000 0.0000
# 4 0.0000 0.0000 0.0000 27.1440 0.0000 0.0000
# 5 0.0000 0.0000 0.0000 0.0000 56.2260 0.0000
# 6 0.0000 0.0000 0.0000 0.0000 0.0000 46.8746
#
#
#
# Elastic Compliance Matrix: (Units=1/GPa)
#
#
# Indices 1 2 3 4 5 6 
#
# 1 0.008216 -0.001110 -0.002909 0.000000 0.000000 0.000000
# 2 -0.001110 0.009546 -0.004254 0.000000 0.000000 0.000000
# 3 -0.002909 -0.004254 0.008358 0.000000 0.000000 0.000000
# 4 0.000000 0.000000 0.000000 0.036841 0.000000 0.000000
# 5 0.000000 0.000000 0.000000 0.000000 0.017785 0.000000
# 6 0.000000 0.000000 0.000000 0.000000 0.000000 0.021334
#
#
# Mechanical properties :
#
#
# Convention : Reuss Voigt Hill
#
# Bulk Modulus (GPa) = 104.45033 109.80863 107.12948
# Shear Modulus (GPa) = 41.04553 44.38081 42.71317
#
# Velocity S-wave (km/s) = 4.06846 4.23052 4.15028
# Velocity P-wave (km/s) = 8.01194 8.25502 8.13439
#
# Compressibility (1/GPa) = 0.00957393
#
# Stress axis : x y z
#
# Youngs Moduli (GPa) = 121.71367 104.76029 119.64662
#
# Poissons Ratio (x) = 0.11633 0.34802
# Poissons Ratio (y) = 0.13515 0.50893
# Poissons Ratio (z) = 0.35404 0.44561
#
# Static dielectric constant tensor:
#      x y z
#    x 4.843660 0.000000 0.000000 
#    y 0.000000 4.430940 0.000000 
#    z 0.000000 0.000000 5.208870 
# 
# 
# High freq. dielectric constant tensor:
#      x y z
#    x 2.009010 0.000000 0.000000 
#    y 0.000000 1.973550 0.000000 
#    z 0.000000 0.000000 2.017040 
# 
# From -- ./inp_files/23097.got.cif
#   From: 2010.03.12/outbox.cif.g09.slc.cpg/sg54_12_cif.got.tgz:23097.got - 2010.04.16 15:00:50.
