data_PCOD8224062
_publ_section_title
;
Structure prediction by ZEFSAII (Michael W. Deem and Ramdas Pophale) SiO2 
 PCOD8224062
Probable space group: P C C A
;
_chemical_formula_sum "Si O2"
_cell_formula_units_Z 36
_cell_length_a 8.971791
_cell_length_b 8.629526
_cell_length_c 19.401538
_cell_angle_alpha 90.000000
_cell_angle_beta 90.000000
_cell_angle_gamma 90.000000
_cell_volume 1502.111767
_symmetry_space_group_name_H-M "P C C A"
_symmetry_group_IT_number 54
_symmetry_cell_setting 'orthorhombic'
loop_
_space_group_symop_operation_xyz
x,y,z
1/2-x,-y,z
1/2+x,-y,1/2-z
-x,y,1/2-z
-x,-y,-z
1/2+x,y,-z
1/2-x,y,1/2+z
x,-y,1/2+z
loop_
_atom_site_type_symbol
_atom_site_label
_atom_site_fract_x
_atom_site_fract_y
_atom_site_fract_z
Si Si1 0.722083 0.827195 0.422502
Si Si2 0.406820 0.952812 0.812365
Si Si3 0.055342 0.236529 0.946514
Si Si4 0.250000 0.500000 0.904305
Si Si5 0.491708 0.292553 0.829671
O O1 0.613286 0.859411 0.487745
O O2 0.649197 0.696431 0.371192
O O3 0.877058 0.751076 0.447894
O O4 0.750000 0.000000 0.389806
O O5 0.500000 0.875664 0.750000
O O6 0.389352 0.833872 0.874349
O O7 0.250000 0.000000 0.779120
O O8 0.476345 0.109184 0.841346
O O9 0.134680 0.404291 0.951484
O O10 0.353402 0.387737 0.858722
O O11 0.500000 0.340584 0.750000
#
# Coordination Sequence:
#
# PCOD8224062 Si02
#       5
#     8   8   8   4   8
#     4  12  26  47  77 112 139 191 251 317 358 424
#     4  11  24  44  74 108 142 192 248 303 352 426
#     4  12  27  45  77 105 151 189 246 301 372 433
#     4  12  28  50  68 108 154 200 232 302 372 452
#     4  11  27  46  74 108 148 192 246 297 368 438
#
# _framework density 23.966259999999998
#
# number of rings (size 3 to 8) (size 9 to 14) (size 15 to 20)
#    0.000    0.444    4.444    2.667    6.222    7.111 
#    0.000    0.000    0.000    0.000    0.000    0.000 
#    0.000    0.000    0.000    0.000    0.000    0.000 
#
# Total GULP energy -446220.379317 kJ/mol
# GULP energy per Si atom -12395.010537 kJ/mol
# Density = 2.391171 g / cm^3
# Si number density = 23.966260 Si / 1000 Ang^3
#
#
#
# Elastic Constant Matrix: (Units=GPa)
#
#
# Indices 1 2 3 4 5 6 
#
# 1 194.6032 25.1364 59.2401 0.0000 0.0000 0.0000
# 2 25.1364 53.6169 13.3670 0.0000 0.0000 0.0000
# 3 59.2401 13.3670 135.5889 0.0000 0.0000 0.0000
# 4 0.0000 0.0000 0.0000 17.7156 0.0000 0.0000
# 5 0.0000 0.0000 0.0000 0.0000 37.1982 0.0000
# 6 0.0000 0.0000 0.0000 0.0000 0.0000 37.7650
#
#
#
# Elastic Compliance Matrix: (Units=1/GPa)
#
#
# Indices 1 2 3 4 5 6 
#
# 1 0.006188 -0.002283 -0.002479 0.000000 0.000000 0.000000
# 2 -0.002283 0.019963 -0.000971 0.000000 0.000000 0.000000
# 3 -0.002479 -0.000971 0.008554 0.000000 0.000000 0.000000
# 4 0.000000 0.000000 0.000000 0.056447 0.000000 0.000000
# 5 0.000000 0.000000 0.000000 0.000000 0.026883 0.000000
# 6 0.000000 0.000000 0.000000 0.000000 0.000000 0.026480
#
#
# Mechanical properties :
#
#
# Convention : Reuss Voigt Hill
#
# Bulk Modulus (GPa) = 43.02816 64.36624 53.69720
# Shear Modulus (GPa) = 30.53876 37.60679 34.07277
#
# Velocity S-wave (km/s) = 3.57352 3.96555 3.77463
# Velocity P-wave (km/s) = 5.91772 6.91974 6.43825
#
# Compressibility (1/GPa) = 0.02324059
#
# Stress axis : x y z
#
# Youngs Moduli (GPa) = 161.60105 50.09228 116.90687
#
# Poissons Ratio (x) = 0.11437 0.28976
# Poissons Ratio (y) = 0.36896 0.11346
# Poissons Ratio (z) = 0.40054 0.04862
#
# Static dielectric constant tensor:
#      x y z
#    x 5.917050 0.000000 0.000000 
#    y 0.000000 4.105260 0.000000 
#    z 0.000000 0.000000 4.137700 
# 
# 
# High freq. dielectric constant tensor:
#      x y z
#    x 1.980230 0.000000 0.000000 
#    y 0.000000 1.926590 0.000000 
#    z 0.000000 0.000000 1.949410 
# 
# From -- ./inp_files/20099.got.cif
#   From: 2010.03.12/outbox.cif.g09.slc.cpg/sg54_11_cif.got.tgz:20099.got - 2010.04.16 15:00:50.
