data_PCOD8224988
_publ_section_title
;
Structure prediction by ZEFSAII (Michael W. Deem and Ramdas Pophale) SiO2 
 PCOD8224988
Probable space group: P B A M
;
_chemical_formula_sum "Si O2"
_cell_formula_units_Z 56
_cell_length_a 18.223944
_cell_length_b 18.596327
_cell_length_c 9.155499
_cell_angle_alpha 90.000000
_cell_angle_beta 90.000000
_cell_angle_gamma 90.000000
_cell_volume 3102.784162
_symmetry_space_group_name_H-M "P B A M"
_symmetry_group_IT_number 55
_symmetry_cell_setting 'orthorhombic'
loop_
_space_group_symop_operation_xyz
x,y,z
-x,-y,z
1/2+x,1/2-y,-z
1/2-x,1/2+y,-z
-x,-y,-z
x,y,-z
1/2-x,1/2+y,z
1/2+x,1/2-y,z
loop_
_atom_site_type_symbol
_atom_site_label
_atom_site_fract_x
_atom_site_fract_y
_atom_site_fract_z
Si Si1 0.512227 0.787222 0.836042
Si Si2 0.605885 0.402773 0.826609
Si Si3 0.657244 0.252943 0.839165
Si Si4 0.972611 0.578051 0.671431
Si Si5 0.963406 0.148444 0.668545
Si Si6 0.333431 0.461747 0.667479
Si Si7 0.190270 0.380513 0.670117
O O1 0.427259 0.768778 0.841073
O O2 0.522403 0.863750 0.756028
O O3 0.552861 0.724891 0.745023
O O4 0.544977 0.791371 0.000000
O O5 0.659293 0.335746 0.784838
O O6 0.527956 0.395951 0.746532
O O7 0.645766 0.474243 0.774796
O O8 0.591373 0.404563 0.000000
O O9 0.702205 0.198921 0.737112
O O10 0.691740 0.246543 0.000000
O O11 0.983534 0.591070 0.500000
O O12 0.887270 0.584921 0.716464
O O13 0.000000 0.500000 0.720234
O O14 0.985379 0.161266 0.500000
O O15 0.889780 0.103247 0.683131
O O16 0.331109 0.489335 0.500000
O O17 0.254231 0.433972 0.721596
O O18 0.195604 0.367740 0.500000
#
# Coordination Sequence:
#
# PCOD8224988 Si02
#       7
#     8   8   8   8   8   8   8
#     4   9  17  30  49  73  98 123 156 198 243 293
#     4  10  20  33  51  75 100 128 165 205 244 290
#     4   8  16  31  49  69  92 119 155 196 236 284
#     4   9  17  31  53  77  99 127 165 209 253 294
#     4  10  19  32  50  71  98 131 166 204 244 289
#     4  10  21  34  48  71 102 133 165 202 245 293
#     4   9  18  33  51  71  96 128 165 201 242 292
#
# _framework density 18.048307999999999
#
# number of rings (size 3 to 8) (size 9 to 14) (size 15 to 20)
#    0.000    2.714    0.000    2.571    0.000    7.714 
#    0.000    1.429    0.000    6.857    0.000    0.000 
#    0.000    0.000    0.000    0.000    0.000    0.000 
#
# Total GULP energy -694306.726056 kJ/mol
# GULP energy per Si atom -12398.334394 kJ/mol
# Density = 1.800723 g / cm^3
# Si number density = 18.048308 Si / 1000 Ang^3
#
#
#
# Elastic Constant Matrix: (Units=GPa)
#
#
# Indices 1 2 3 4 5 6 
#
# 1 57.5440 41.1186 32.8996 0.0000 0.0000 0.0000
# 2 41.1186 140.8100 63.7379 0.0000 0.0000 0.0000
# 3 32.8996 63.7379 89.5951 0.0000 0.0000 0.0000
# 4 0.0000 0.0000 0.0000 36.1842 0.0000 0.0000
# 5 0.0000 0.0000 0.0000 0.0000 12.9103 0.0000
# 6 0.0000 0.0000 0.0000 0.0000 0.0000 16.8946
#
#
#
# Elastic Compliance Matrix: (Units=1/GPa)
#
#
# Indices 1 2 3 4 5 6 
#
# 1 0.023710 -0.004399 -0.005577 0.000000 0.000000 0.000000
# 2 -0.004399 0.011291 -0.006417 0.000000 0.000000 0.000000
# 3 -0.005577 -0.006417 0.017774 0.000000 0.000000 0.000000
# 4 0.000000 0.000000 0.000000 0.027636 0.000000 0.000000
# 5 0.000000 0.000000 0.000000 0.000000 0.077458 0.000000
# 6 0.000000 0.000000 0.000000 0.000000 0.000000 0.059190
#
#
# Mechanical properties :
#
#
# Convention : Reuss Voigt Hill
#
# Bulk Modulus (GPa) = 50.02721 62.60681 56.31701
# Shear Modulus (GPa) = 19.49250 23.21069 21.35159
#
# Velocity S-wave (km/s) = 3.28993 3.59002 3.44324
# Velocity P-wave (km/s) = 6.49694 7.20750 6.86142
#
# Compressibility (1/GPa) = 0.01998912
#
# Stress axis : x y z
#
# Youngs Moduli (GPa) = 42.17637 88.56503 56.26143
#
# Poissons Ratio (x) = 0.38963 0.31375
# Poissons Ratio (y) = 0.18555 0.36103
# Poissons Ratio (z) = 0.23520 0.56833
#
# Static dielectric constant tensor:
#      x y z
#    x 3.115720 0.000000 0.000000 
#    y 0.000000 3.561050 0.000000 
#    z 0.000000 0.000000 3.474740 
# 
# 
# High freq. dielectric constant tensor:
#      x y z
#    x 1.662940 0.000000 0.000000 
#    y 0.000000 1.708530 0.000000 
#    z 0.000000 0.000000 1.703770 
# 
# From -- ./inp_files/8907.got.cif
#   From: 2010.03.12/outbox.cif.g09.slc.cpg/sg55_5_cif.got.tgz:8907.got - 2010.04.16 15:19:21.
