data_PCOD8224893
_publ_section_title
;
Structure prediction by ZEFSAII (Michael W. Deem and Ramdas Pophale) SiO2 
 PCOD8224893
Probable space group: P B A M
;
_chemical_formula_sum "Si O2"
_cell_formula_units_Z 64
_cell_length_a 21.473918
_cell_length_b 18.677798
_cell_length_c 9.011777
_cell_angle_alpha 90.000000
_cell_angle_beta 90.000000
_cell_angle_gamma 90.000000
_cell_volume 3614.493108
_symmetry_space_group_name_H-M "P B A M"
_symmetry_group_IT_number 55
_symmetry_cell_setting 'orthorhombic'
loop_
_space_group_symop_operation_xyz
x,y,z
-x,-y,z
1/2+x,1/2-y,-z
1/2-x,1/2+y,-z
-x,-y,-z
x,y,-z
1/2-x,1/2+y,z
1/2+x,1/2-y,z
loop_
_atom_site_type_symbol
_atom_site_label
_atom_site_fract_x
_atom_site_fract_y
_atom_site_fract_z
Si Si1 0.934049 0.032423 0.672846
Si Si2 0.095275 0.678655 0.324116
Si Si3 0.893074 0.175913 0.169641
Si Si4 0.807233 0.971003 0.670031
Si Si5 0.770108 0.106814 0.166488
Si Si6 0.984285 0.578351 0.324885
Si Si7 0.361086 0.927853 0.832616
Si Si8 0.805869 0.416992 0.173363
O O1 0.932786 0.054890 0.500000
O O2 0.922506 0.102333 0.771890
O O3 0.881710 0.970486 0.702812
O O4 0.000000 0.000000 0.720188
O O5 0.101416 0.677306 0.500000
O O6 0.083478 0.758927 0.269195
O O7 0.157923 0.646479 0.254951
O O8 0.036091 0.633307 0.267171
O O9 0.817177 0.173562 0.179680
O O10 0.914374 0.187336 0.000000
O O11 0.792638 0.952671 0.500000
O O12 0.766146 0.917086 0.770410
O O13 0.787153 0.051956 0.704436
O O14 0.697209 0.127353 0.186072
O O15 0.777200 0.071642 0.000000
O O16 0.982894 0.576946 0.500000
O O17 0.916189 0.601331 0.269691
O O18 0.000000 0.500000 0.259939
O O19 0.338106 0.007326 0.786005
O O20 0.386119 0.929078 0.000000
O O21 0.806478 0.400980 0.000000
#
# Coordination Sequence:
#
# PCOD8224893 Si02
#       8
#     8   8   8   8   8   8   8   8
#     4   9  18  34  57  83 109 138 174 218 266 316
#     4  11  22  35  52  73 103 140 179 221 266 318
#     4  10  20  35  55  78 106 136 174 218 267 323
#     4   9  16  27  48  77 103 128 162 205 252 301
#     4   8  16  31  49  72  99 127 159 204 254 299
#     4  10  20  33  48  72 105 139 176 217 258 302
#     4   9  17  29  49  74  99 128 166 209 250 299
#     4  10  19  31  48  73 103 134 169 211 261 306
#
# _framework density 17.706493999999999
#
# number of rings (size 3 to 8) (size 9 to 14) (size 15 to 20)
#    0.000    2.500    1.250    2.250    0.000    4.500 
#    0.000    0.000    2.750    0.000    0.000    0.000 
#    0.000    0.000    0.000    0.000    0.000    0.000 
#
# Total GULP energy -793248.649003 kJ/mol
# GULP energy per Si atom -12394.510141 kJ/mol
# Density = 1.766619 g / cm^3
# Si number density = 17.706494 Si / 1000 Ang^3
#
#
#
# Elastic Constant Matrix: (Units=GPa)
#
#
# Indices 1 2 3 4 5 6 
#
# 1 134.0277 42.8493 43.7217 0.0000 0.0000 0.0000
# 2 42.8493 65.8657 31.1806 0.0000 0.0000 0.0000
# 3 43.7217 31.1806 67.6252 0.0000 0.0000 0.0000
# 4 0.0000 0.0000 0.0000 24.4189 0.0000 0.0000
# 5 0.0000 0.0000 0.0000 0.0000 28.3977 0.0000
# 6 0.0000 0.0000 0.0000 0.0000 0.0000 21.4911
#
#
#
# Elastic Compliance Matrix: (Units=1/GPa)
#
#
# Indices 1 2 3 4 5 6 
#
# 1 0.010443 -0.004602 -0.004630 0.000000 0.000000 0.000000
# 2 -0.004602 0.021450 -0.006915 0.000000 0.000000 0.000000
# 3 -0.004630 -0.006915 0.020969 0.000000 0.000000 0.000000
# 4 0.000000 0.000000 0.000000 0.040952 0.000000 0.000000
# 5 0.000000 0.000000 0.000000 0.000000 0.035214 0.000000
# 6 0.000000 0.000000 0.000000 0.000000 0.000000 0.046531
#
#
# Mechanical properties :
#
#
# Convention : Reuss Voigt Hill
#
# Bulk Modulus (GPa) = 48.61786 55.89133 52.25460
# Shear Modulus (GPa) = 23.28759 24.84600 24.06679
#
# Velocity S-wave (km/s) = 3.63050 3.75001 3.69074
# Velocity P-wave (km/s) = 6.71501 7.09818 6.90925
#
# Compressibility (1/GPa) = 0.02056857
#
# Stress axis : x y z
#
# Youngs Moduli (GPa) = 95.76117 46.62094 47.68981
#
# Poissons Ratio (x) = 0.21454 0.22079
# Poissons Ratio (y) = 0.44068 0.32976
# Poissons Ratio (z) = 0.44334 0.32237
#
# Static dielectric constant tensor:
#      x y z
#    x 3.542910 0.000000 0.000000 
#    y 0.000000 2.925600 0.000000 
#    z 0.000000 0.000000 3.273160 
# 
# 
# High freq. dielectric constant tensor:
#      x y z
#    x 1.692660 0.000000 0.000000 
#    y 0.000000 1.637390 0.000000 
#    z 0.000000 0.000000 1.692010 
# 
# From -- ./inp_files/9882.got.cif
#   From: 2010.03.12/outbox.cif.g09.slc.cpg/sg55_5_cif.got.tgz:9882.got - 2010.04.16 15:19:21.
