data_PCOD8224157
_publ_section_title
;
Structure prediction by ZEFSAII (Michael W. Deem and Ramdas Pophale) SiO2 
 PCOD8224157
Probable space group: P C C A
;
_chemical_formula_sum "Si O2"
_cell_formula_units_Z 32
_cell_length_a 7.531951
_cell_length_b 12.470933
_cell_length_c 14.324234
_cell_angle_alpha 90.000000
_cell_angle_beta 90.000000
_cell_angle_gamma 90.000000
_cell_volume 1345.481835
_symmetry_space_group_name_H-M "P C C A"
_symmetry_group_IT_number 54
_symmetry_cell_setting 'orthorhombic'
loop_
_space_group_symop_operation_xyz
x,y,z
1/2-x,-y,z
1/2+x,-y,1/2-z
-x,y,1/2-z
-x,-y,-z
1/2+x,y,-z
1/2-x,y,1/2+z
x,-y,1/2+z
loop_
_atom_site_type_symbol
_atom_site_label
_atom_site_fract_x
_atom_site_fract_y
_atom_site_fract_z
Si Si1 0.000000 0.094680 0.250000
Si Si2 0.737348 0.756043 0.634787
Si Si3 0.801163 0.381848 0.288674
Si Si4 0.750000 0.000000 0.890230
Si Si5 0.353824 0.224583 0.060474
O O1 0.160417 0.164536 0.294199
O O2 0.075823 0.015518 0.172415
O O3 0.688513 0.650543 0.696331
O O4 0.858106 0.726691 0.544351
O O5 0.548816 0.797421 0.599339
O O6 0.750000 0.500000 0.323104
O O7 0.766928 0.299636 0.373629
O O8 0.000000 0.372404 0.250000
O O9 0.731791 0.893386 0.952374
#
# Coordination Sequence:
#
# PCOD8224157 Si02
#       5
#     4   8   8   4   8
#     4  12  24  42  72  98 152 186 242 284 354 432
#     4  12  25  48  71 106 145 188 241 291 358 419
#     4  12  25  49  75 105 142 187 238 297 355 419
#     4  12  24  42  68 106 144 194 230 294 348 424
#     4  12  27  45  72 109 144 190 238 292 353 428
#
# _framework density 23.783300000000001
#
# number of rings (size 3 to 8) (size 9 to 14) (size 15 to 20)
#    0.000    0.000    3.750    6.750    0.000    6.000 
#    0.000    5.000    0.000    0.000    0.000    0.000 
#    0.000    0.000    0.000    0.000    0.000    0.000 
#
# Total GULP energy -396663.463537 kJ/mol
# GULP energy per Si atom -12395.733236 kJ/mol
# Density = 2.372917 g / cm^3
# Si number density = 23.783300 Si / 1000 Ang^3
#
#
#
# Elastic Constant Matrix: (Units=GPa)
#
#
# Indices 1 2 3 4 5 6 
#
# 1 85.2020 23.4982 12.8288 0.0000 0.0000 0.0000
# 2 23.4982 145.0840 50.3798 0.0000 0.0000 0.0000
# 3 12.8288 50.3798 131.8949 0.0000 0.0000 0.0000
# 4 0.0000 0.0000 0.0000 11.2108 0.0000 0.0000
# 5 0.0000 0.0000 0.0000 0.0000 43.0541 0.0000
# 6 0.0000 0.0000 0.0000 0.0000 0.0000 31.4200
#
#
#
# Elastic Compliance Matrix: (Units=1/GPa)
#
#
# Indices 1 2 3 4 5 6 
#
# 1 0.012314 -0.001820 -0.000503 0.000000 0.000000 0.000000
# 2 -0.001820 0.008216 -0.002961 0.000000 0.000000 0.000000
# 3 -0.000503 -0.002961 0.008762 0.000000 0.000000 0.000000
# 4 0.000000 0.000000 0.000000 0.089200 0.000000 0.000000
# 5 0.000000 0.000000 0.000000 0.000000 0.023227 0.000000
# 6 0.000000 0.000000 0.000000 0.000000 0.000000 0.031827
#
#
# Mechanical properties :
#
#
# Convention : Reuss Voigt Hill
#
# Bulk Modulus (GPa) = 53.40614 59.51050 56.45832
# Shear Modulus (GPa) = 26.26691 35.50193 30.88442
#
# Velocity S-wave (km/s) = 3.32690 3.86777 3.60749
# Velocity P-wave (km/s) = 6.10424 6.70988 6.41421
#
# Compressibility (1/GPa) = 0.01872444
#
# Stress axis : x y z
#
# Youngs Moduli (GPa) = 81.20564 121.72055 114.13283
#
# Poissons Ratio (x) = 0.22153 0.05736
# Poissons Ratio (y) = 0.14779 0.33796
# Poissons Ratio (z) = 0.04081 0.36042
#
# Static dielectric constant tensor:
#      x y z
#    x 4.325740 0.000000 0.000000 
#    y 0.000000 4.450760 0.000000 
#    z 0.000000 0.000000 4.589100 
# 
# 
# High freq. dielectric constant tensor:
#      x y z
#    x 1.958450 0.000000 0.000000 
#    y 0.000000 1.927720 0.000000 
#    z 0.000000 0.000000 1.953030 
# 
# From -- ./inp_files/11351.got.cif
#   From: 2010.03.12/outbox.cif.g09.slc.cpg/sg54_6_cif.got.tgz:11351.got - 2010.04.16 15:00:50.
