data_PCOD8224752
_publ_section_title
;
Structure prediction by ZEFSAII (Michael W. Deem and Ramdas Pophale) SiO2 
 PCOD8224752
Probable space group: P B A M
;
_chemical_formula_sum "Si O2"
_cell_formula_units_Z 48
_cell_length_a 19.066721
_cell_length_b 15.165045
_cell_length_c 8.821143
_cell_angle_alpha 90.000000
_cell_angle_beta 90.000000
_cell_angle_gamma 90.000000
_cell_volume 2550.613051
_symmetry_space_group_name_H-M "P B A M"
_symmetry_group_IT_number 55
_symmetry_cell_setting 'orthorhombic'
loop_
_space_group_symop_operation_xyz
x,y,z
-x,-y,z
1/2+x,1/2-y,-z
1/2-x,1/2+y,-z
-x,-y,-z
x,y,-z
1/2-x,1/2+y,z
1/2+x,1/2-y,z
loop_
_atom_site_type_symbol
_atom_site_label
_atom_site_fract_x
_atom_site_fract_y
_atom_site_fract_z
Si Si1 0.177310 0.375112 0.680255
Si Si2 0.922791 0.273456 0.320176
Si Si3 0.670939 0.626322 0.178576
Si Si4 0.924423 0.777967 0.678821
Si Si5 0.574997 0.972256 0.320710
Si Si6 0.079778 0.022650 0.677197
O O1 0.188676 0.373743 0.500000
O O2 0.250479 0.377681 0.763376
O O3 0.134869 0.288955 0.737544
O O4 0.135026 0.461395 0.735182
O O5 0.919553 0.260371 0.500000
O O6 0.864478 0.212794 0.246284
O O7 0.905497 0.373358 0.271087
O O8 0.999316 0.247381 0.255159
O O9 0.631051 0.538286 0.227908
O O10 0.670104 0.633070 0.000000
O O11 0.930434 0.769062 0.500000
O O12 0.904054 0.877031 0.726147
O O13 0.568556 0.978556 0.500000
O O14 0.500000 0.000000 0.249646
O O15 0.094059 0.006570 0.500000
O O16 0.000000 0.000000 0.717821
#
# Coordination Sequence:
#
# PCOD8224752 Si02
#       6
#     8   8   8   8   8   8
#     4  10  20  37  60  88 119 149 184 233 288 342
#     4  10  18  35  62  90 115 144 186 239 288 338
#     4  12  26  40  53  79 120 161 195 233 280 335
#     4   9  17  32  61  92 113 139 184 237 288 339
#     4   9  16  30  61  96 117 137 180 239 291 337
#     4  10  19  36  63  89 111 143 189 242 291 338
#
# _framework density 18.819005000000001
#
# number of rings (size 3 to 8) (size 9 to 14) (size 15 to 20)
#    0.000    2.000    3.333    1.500    0.000    1.667 
#    0.000    9.167    0.000    1.000    0.000    0.000 
#    0.000    0.000    0.000    0.000    0.000    0.000 
#
# Total GULP energy -595224.404665 kJ/mol
# GULP energy per Si atom -12400.508431 kJ/mol
# Density = 1.877617 g / cm^3
# Si number density = 18.819005 Si / 1000 Ang^3
#
#
#
# Elastic Constant Matrix: (Units=GPa)
#
#
# Indices 1 2 3 4 5 6 
#
# 1 149.0149 98.7011 42.1555 0.0000 0.0000 0.0000
# 2 98.7011 185.9686 44.7521 0.0000 0.0000 0.0000
# 3 42.1555 44.7521 49.1305 0.0000 0.0000 0.0000
# 4 0.0000 0.0000 0.0000 -8.4344 0.0000 0.0000
# 5 0.0000 0.0000 0.0000 0.0000 -13.1003 0.0000
# 6 0.0000 0.0000 0.0000 0.0000 0.0000 29.4506
#
#
#
# Elastic Compliance Matrix: (Units=1/GPa)
#
#
# Indices 1 2 3 4 5 6 
#
# 1 0.011389 -0.004730 -0.005464 0.000000 0.000000 0.000000
# 2 -0.004730 0.008851 -0.004004 0.000000 0.000000 0.000000
# 3 -0.005464 -0.004004 0.028689 0.000000 0.000000 0.000000
# 4 0.000000 0.000000 0.000000 -0.118563 0.000000 0.000000
# 5 0.000000 0.000000 0.000000 0.000000 -0.076334 0.000000
# 6 0.000000 0.000000 0.000000 0.000000 0.000000 0.033955
#
#
# Mechanical properties :
#
#
# Convention : Reuss Voigt Hill
#
# Bulk Modulus (GPa) = 48.69946 83.92570 66.31258
# Shear Modulus (GPa) = -65.12871 14.81687 -25.15592
#
# Velocity S-wave (km/s) = -5.88923 2.80899 -3.66010
# Velocity P-wave (km/s) = 4.50667 7.43059 4.17753
#
# Compressibility (1/GPa) = 0.02053411
#
# Stress axis : x y z
#
# Youngs Moduli (GPa) = 87.80100 112.97994 34.85616
#
# Poissons Ratio (x) = 0.53439 0.19046
# Poissons Ratio (y) = 0.41529 0.13956
# Poissons Ratio (z) = 0.47975 0.45236
#
# Static dielectric constant tensor:
#      x y z
#    x 3.507960 0.000000 0.000000 
#    y 0.000000 2.658940 0.000000 
#    z 0.000000 0.000000 2.976900 
# 
# 
# High freq. dielectric constant tensor:
#      x y z
#    x 1.735330 0.000000 0.000000 
#    y 0.000000 1.752850 0.000000 
#    z 0.000000 0.000000 1.681460 
# 
# From -- ./inp_files/5622.got.cif
#   From: 2010.03.12/outbox.cif.g09.slc.cpg/sg55_3_cif.got.tgz:5622.got - 2010.04.16 15:19:21.
