data_PCOD8224007
_publ_section_title
;
Structure prediction by ZEFSAII (Michael W. Deem and Ramdas Pophale) SiO2 
 PCOD8224007
Probable space group: P C C A
;
_chemical_formula_sum "Si O2"
_cell_formula_units_Z 56
_cell_length_a 19.556207
_cell_length_b 8.177730
_cell_length_c 16.709586
_cell_angle_alpha 90.000000
_cell_angle_beta 90.000000
_cell_angle_gamma 90.000000
_cell_volume 2672.286902
_symmetry_space_group_name_H-M "P C C A"
_symmetry_group_IT_number 54
_symmetry_cell_setting 'orthorhombic'
loop_
_space_group_symop_operation_xyz
x,y,z
1/2-x,-y,z
1/2+x,-y,1/2-z
-x,y,1/2-z
-x,-y,-z
1/2+x,y,-z
1/2-x,y,1/2+z
x,-y,1/2+z
loop_
_atom_site_type_symbol
_atom_site_label
_atom_site_fract_x
_atom_site_fract_y
_atom_site_fract_z
Si Si1 0.809950 0.130952 0.584299
Si Si2 0.370767 0.082541 0.250213
Si Si3 0.434868 0.655749 0.107128
Si Si4 0.544419 0.862489 0.538274
Si Si5 0.750000 0.000000 0.353252
Si Si6 0.534378 0.684457 0.831013
Si Si7 0.000000 0.138905 0.250000
Si Si8 0.283356 0.322878 0.562375
O O1 0.830407 0.168050 0.675896
O O2 0.879107 0.063011 0.542682
O O3 0.790578 0.295272 0.534304
O O4 0.750000 0.000000 0.579159
O O5 0.395536 0.224561 0.190746
O O6 0.316741 0.973665 0.201682
O O7 0.435588 0.972232 0.277776
O O8 0.449360 0.464509 0.111665
O O9 0.475921 0.752561 0.175518
O O10 0.353780 0.683347 0.111848
O O11 0.460643 0.707153 0.019913
O O12 0.517306 0.809726 0.625415
O O13 0.500000 0.000000 0.500000
O O14 0.740507 0.165335 0.405975
O O15 0.500000 0.619478 0.750000
O O16 0.250000 0.500000 0.577545
#
# Coordination Sequence:
#
# PCOD8224007 Si02
#       8
#     8   8   8   8   4   8   4   8
#     4  11  23  42  67  97 135 177 230 288 344 417
#     4  12  23  42  68 100 136 180 232 277 356 418
#     4  11  24  42  69  99 140 177 239 290 346 422
#     4  11  24  43  70 101 133 182 237 282 350 421
#     4  12  24  42  74  94 138 186 224 292 354 420
#     4  12  23  41  67  97 141 181 221 292 351 410
#     4  12  22  42  68 104 134 186 224 298 342 414
#     4  11  25  46  68 100 137 184 236 286 351 421
#
# _framework density 20.955833999999999
#
# number of rings (size 3 to 8) (size 9 to 14) (size 15 to 20)
#    0.000    0.571    5.714    3.000    2.000    1.143 
#    0.000    6.429    0.000    0.000    0.000    0.000 
#    0.000    0.000    0.000    0.000    0.000    0.000 
#
# Total GULP energy -694120.555050 kJ/mol
# GULP energy per Si atom -12395.009912 kJ/mol
# Density = 2.090814 g / cm^3
# Si number density = 20.955834 Si / 1000 Ang^3
#
#
#
# Elastic Constant Matrix: (Units=GPa)
#
#
# Indices 1 2 3 4 5 6 
#
# 1 126.4235 61.2358 55.9621 0.0000 0.0000 0.0000
# 2 61.2358 129.5378 46.9695 0.0000 0.0000 0.0000
# 3 55.9621 46.9695 118.6078 0.0000 0.0000 0.0000
# 4 0.0000 0.0000 0.0000 35.7525 0.0000 0.0000
# 5 0.0000 0.0000 0.0000 0.0000 34.9611 0.0000
# 6 0.0000 0.0000 0.0000 0.0000 0.0000 31.0254
#
#
#
# Elastic Compliance Matrix: (Units=1/GPa)
#
#
# Indices 1 2 3 4 5 6 
#
# 1 0.011593 -0.004083 -0.003853 0.000000 0.000000 0.000000
# 2 -0.004083 0.010452 -0.002213 0.000000 0.000000 0.000000
# 3 -0.003853 -0.002213 0.011125 0.000000 0.000000 0.000000
# 4 0.000000 0.000000 0.000000 0.027970 0.000000 0.000000
# 5 0.000000 0.000000 0.000000 0.000000 0.028603 0.000000
# 6 0.000000 0.000000 0.000000 0.000000 0.000000 0.032232
#
#
# Mechanical properties :
#
#
# Convention : Reuss Voigt Hill
#
# Bulk Modulus (GPa) = 77.68139 78.10043 77.89091
# Shear Modulus (GPa) = 34.11464 34.37461 34.24462
#
# Velocity S-wave (km/s) = 4.03914 4.05450 4.04683
# Velocity P-wave (km/s) = 7.67479 7.69861 7.68671
#
# Compressibility (1/GPa) = 0.01287310
#
# Stress axis : x y z
#
# Youngs Moduli (GPa) = 86.25637 95.67243 89.88554
#
# Poissons Ratio (x) = 0.39067 0.34633
# Poissons Ratio (y) = 0.35222 0.19888
# Poissons Ratio (z) = 0.33234 0.21168
#
# Static dielectric constant tensor:
#      x y z
#    x 3.926700 0.000000 0.000000 
#    y 0.000000 3.577060 0.000000 
#    z 0.000000 0.000000 3.956090 
# 
# 
# High freq. dielectric constant tensor:
#      x y z
#    x 1.830810 0.000000 0.000000 
#    y 0.000000 1.804820 0.000000 
#    z 0.000000 0.000000 1.833680 
# 
# From -- ./inp_files/18907.got.cif
#   From: 2010.03.12/outbox.cif.g09.slc.cpg/sg54_10_cif.got.tgz:18907.got - 2010.04.16 15:00:50.
