data_PCOD8224561
_publ_section_title
;
Structure prediction by ZEFSAII (Michael W. Deem and Ramdas Pophale) SiO2 
 PCOD8224561
Probable space group: P B A M
;
_chemical_formula_sum "Si O2"
_cell_formula_units_Z 56
_cell_length_a 14.117490
_cell_length_b 22.153269
_cell_length_c 9.051122
_cell_angle_alpha 90.000000
_cell_angle_beta 90.000000
_cell_angle_gamma 90.000000
_cell_volume 2830.725314
_symmetry_space_group_name_H-M "P B A M"
_symmetry_group_IT_number 55
_symmetry_cell_setting 'orthorhombic'
loop_
_space_group_symop_operation_xyz
x,y,z
-x,-y,z
1/2+x,1/2-y,-z
1/2-x,1/2+y,-z
-x,-y,-z
x,y,-z
1/2-x,1/2+y,z
1/2+x,1/2-y,z
loop_
_atom_site_type_symbol
_atom_site_label
_atom_site_fract_x
_atom_site_fract_y
_atom_site_fract_z
Si Si1 0.885645 0.665821 0.674773
Si Si2 0.279799 0.541717 0.333218
Si Si3 0.418432 0.616502 0.827840
Si Si4 0.403222 0.426273 0.667730
Si Si5 0.991774 0.243417 0.169573
Si Si6 0.198570 0.822129 0.173494
Si Si7 0.097468 0.471726 0.324116
O O1 0.873451 0.669396 0.500000
O O2 0.979662 0.701542 0.724354
O O3 0.797150 0.698968 0.754229
O O4 0.893710 0.596997 0.731800
O O5 0.260715 0.564179 0.500000
O O6 0.314756 0.598799 0.235823
O O7 0.364354 0.493639 0.330943
O O8 0.184213 0.512705 0.264632
O O9 0.496274 0.575101 0.748128
O O10 0.440448 0.686421 0.796558
O O11 0.422606 0.601882 0.000000
O O12 0.414668 0.402722 0.500000
O O13 0.327390 0.385299 0.751900
O O14 0.882875 0.227108 0.205396
O O15 0.002884 0.263452 0.000000
O O16 0.210913 0.832363 0.000000
O O17 0.100434 0.471595 0.500000
O O18 0.000000 0.500000 0.263585
#
# Coordination Sequence:
#
# PCOD8224561 Si02
#       7
#     8   8   8   8   8   8   8
#     4  11  21  37  63  90 113 147 196 244 286 343
#     4  10  19  33  54  81 113 150 186 232 288 338
#     4  10  21  35  52  80 117 152 187 228 285 354
#     4  10  18  31  53  83 114 144 186 234 282 338
#     4   9  21  40  57  80 116 156 192 236 292 345
#     4  10  20  36  59  83 114 155 192 233 292 353
#     4   9  19  38  60  83 115 149 186 236 293 346
#
# _framework density 19.782914999999999
#
# number of rings (size 3 to 8) (size 9 to 14) (size 15 to 20)
#    0.000    2.143    1.429    3.000    0.000    6.286 
#    2.571    0.000    0.000    3.000    0.000    0.000 
#    0.000    0.000    0.000    0.000    0.000    0.000 
#
# Total GULP energy -694408.200260 kJ/mol
# GULP energy per Si atom -12400.146433 kJ/mol
# Density = 1.973789 g / cm^3
# Si number density = 19.782915 Si / 1000 Ang^3
#
#
#
# Elastic Constant Matrix: (Units=GPa)
#
#
# Indices 1 2 3 4 5 6 
#
# 1 104.9720 50.3853 42.5653 0.0000 0.0000 0.0000
# 2 50.3853 55.6525 31.9428 0.0000 0.0000 0.0000
# 3 42.5653 31.9428 92.1434 0.0000 0.0000 0.0000
# 4 0.0000 0.0000 0.0000 21.5187 0.0000 0.0000
# 5 0.0000 0.0000 0.0000 0.0000 25.5891 0.0000
# 6 0.0000 0.0000 0.0000 0.0000 0.0000 29.3922
#
#
#
# Elastic Compliance Matrix: (Units=1/GPa)
#
#
# Indices 1 2 3 4 5 6 
#
# 1 0.017596 -0.014063 -0.003253 0.000000 0.000000 0.000000
# 2 -0.014063 0.033672 -0.005176 0.000000 0.000000 0.000000
# 3 -0.003253 -0.005176 0.014150 0.000000 0.000000 0.000000
# 4 0.000000 0.000000 0.000000 0.046471 0.000000 0.000000
# 5 0.000000 0.000000 0.000000 0.000000 0.039079 0.000000
# 6 0.000000 0.000000 0.000000 0.000000 0.000000 0.034023
#
#
# Mechanical properties :
#
#
# Convention : Reuss Voigt Hill
#
# Bulk Modulus (GPa) = 48.94247 55.83942 52.39095
# Shear Modulus (GPa) = 21.11611 23.82498 22.47054
#
# Velocity S-wave (km/s) = 3.27064 3.47410 3.37390
# Velocity P-wave (km/s) = 6.24950 6.66182 6.45895
#
# Compressibility (1/GPa) = 0.02043215
#
# Stress axis : x y z
#
# Youngs Moduli (GPa) = 56.83256 29.69839 70.67214
#
# Poissons Ratio (x) = 0.41765 0.22990
# Poissons Ratio (y) = 0.79924 0.36583
# Poissons Ratio (z) = 0.18488 0.15373
#
# Static dielectric constant tensor:
#      x y z
#    x 3.715710 0.000000 0.000000 
#    y 0.000000 3.399970 0.000000 
#    z 0.000000 0.000000 3.481320 
# 
# 
# High freq. dielectric constant tensor:
#      x y z
#    x 1.773970 0.000000 0.000000 
#    y 0.000000 1.753260 0.000000 
#    z 0.000000 0.000000 1.760660 
# 
# From -- ./inp_files/6201.got.cif
#   From: 2010.03.12/outbox.cif.g09.slc.cpg/sg55_4_cif.got.tgz:6201.got - 2010.04.16 15:19:21.
