data_PCOD8224740
_publ_section_title
;
Structure prediction by ZEFSAII (Michael W. Deem and Ramdas Pophale) SiO2 
 PCOD8224740
Probable space group: P B A M
;
_chemical_formula_sum "Si O2"
_cell_formula_units_Z 64
_cell_length_a 24.505020
_cell_length_b 15.504116
_cell_length_c 8.370445
_cell_angle_alpha 90.000000
_cell_angle_beta 90.000000
_cell_angle_gamma 90.000000
_cell_volume 3180.172058
_symmetry_space_group_name_H-M "P B A M"
_symmetry_group_IT_number 55
_symmetry_cell_setting 'orthorhombic'
loop_
_space_group_symop_operation_xyz
x,y,z
-x,-y,z
1/2+x,1/2-y,-z
1/2-x,1/2+y,-z
-x,-y,-z
x,y,-z
1/2-x,1/2+y,z
1/2+x,1/2-y,z
loop_
_atom_site_type_symbol
_atom_site_label
_atom_site_fract_x
_atom_site_fract_y
_atom_site_fract_z
Si Si1 0.812222 0.757683 0.689886
Si Si2 0.564536 0.251868 0.689742
Si Si3 0.623771 0.844046 0.316574
Si Si4 0.734777 0.601320 0.311162
Si Si5 0.124980 0.836994 0.818145
Si Si6 0.983349 0.097782 0.685043
Si Si7 0.763998 0.409779 0.689529
Si Si8 0.009763 0.596094 0.309059
O O1 0.815069 0.758289 0.500000
O O2 0.873855 0.755028 0.760338
O O3 0.778031 0.673685 0.746455
O O4 0.782679 0.844561 0.754845
O O5 0.567434 0.250316 0.500000
O O6 0.530399 0.336165 0.745578
O O7 0.535388 0.164376 0.753628
O O8 0.623056 0.872101 0.500000
O O9 0.625458 0.741782 0.304043
O O10 0.677711 0.883310 0.234479
O O11 0.568378 0.878025 0.235653
O O12 0.724701 0.608095 0.500000
O O13 0.678133 0.607261 0.218377
O O14 0.755660 0.507725 0.259011
O O15 0.070997 0.892248 0.788267
O O16 0.125985 0.804397 0.000000
O O17 0.970452 0.116606 0.500000
O O18 0.000000 0.000000 0.713321
O O19 0.765607 0.398958 0.500000
O O20 0.010057 0.598894 0.500000
O O21 0.000000 0.500000 0.244320
#
# Coordination Sequence:
#
# PCOD8224740 Si02
#       8
#     8   8   8   8   8   8   8   8
#     4   9  17  29  48  79 113 138 172 223 273 328
#     4   9  17  29  47  79 115 141 170 217 277 333
#     4  10  18  35  58  82 111 143 186 232 277 327
#     4  10  20  35  57  83 113 146 183 231 284 332
#     4  12  24  38  57  80 112 152 194 235 277 328
#     4  10  21  37  60  85 109 144 187 233 285 339
#     4   9  18  30  52  82 107 138 180 230 279 325
#     4   9  17  27  47  80 115 142 169 218 280 331
#
# _framework density 20.124697000000001
#
# number of rings (size 3 to 8) (size 9 to 14) (size 15 to 20)
#    0.000    2.250    2.500    1.125    3.500    0.250 
#    0.000    0.625    0.000    1.125    0.000    0.000 
#    0.000    0.000    0.000    0.000    0.000    0.000 
#
# Total GULP energy -793394.988406 kJ/mol
# GULP energy per Si atom -12396.796694 kJ/mol
# Density = 2.007889 g / cm^3
# Si number density = 20.124697 Si / 1000 Ang^3
#
#
#
# Elastic Constant Matrix: (Units=GPa)
#
#
# Indices 1 2 3 4 5 6 
#
# 1 195.9853 78.5085 19.2567 0.0000 0.0000 0.0000
# 2 78.5085 161.4718 10.0915 0.0000 0.0000 0.0000
# 3 19.2567 10.0915 15.8766 0.0000 0.0000 0.0000
# 4 0.0000 0.0000 0.0000 1.8139 0.0000 0.0000
# 5 0.0000 0.0000 0.0000 0.0000 2.9955 0.0000
# 6 0.0000 0.0000 0.0000 0.0000 0.0000 32.0928
#
#
#
# Elastic Compliance Matrix: (Units=1/GPa)
#
#
# Indices 1 2 3 4 5 6 
#
# 1 0.006930 -0.002962 -0.006522 0.000000 0.000000 0.000000
# 2 -0.002962 0.007715 -0.001312 0.000000 0.000000 0.000000
# 3 -0.006522 -0.001312 0.071730 0.000000 0.000000 0.000000
# 4 0.000000 0.000000 0.000000 0.551306 0.000000 0.000000
# 5 0.000000 0.000000 0.000000 0.000000 0.333837 0.000000
# 6 0.000000 0.000000 0.000000 0.000000 0.000000 0.031160
#
#
# Mechanical properties :
#
#
# Convention : Reuss Voigt Hill
#
# Bulk Modulus (GPa) = 15.43602 65.44967 40.44285
# Shear Modulus (GPa) = 4.78074 25.07891 14.92983
#
# Velocity S-wave (km/s) = 1.54296 3.53395 2.72668
# Velocity P-wave (km/s) = 3.29562 7.01744 5.48204
#
# Compressibility (1/GPa) = 0.06478355
#
# Stress axis : x y z
#
# Youngs Moduli (GPa) = 144.30708 129.61832 13.94108
#
# Poissons Ratio (x) = 0.38388 0.09093
# Poissons Ratio (y) = 0.42738 0.01829
# Poissons Ratio (z) = 0.94124 0.17001
#
# Static dielectric constant tensor:
#      x y z
#    x 4.341580 0.000000 0.000000 
#    y 0.000000 3.726170 0.000000 
#    z 0.000000 0.000000 2.932210 
# 
# 
# High freq. dielectric constant tensor:
#      x y z
#    x 1.804790 0.000000 0.000000 
#    y 0.000000 1.793690 0.000000 
#    z 0.000000 0.000000 1.716920 
# 
# From -- ./inp_files/9708.got.cif
#   From: 2010.03.12/outbox.cif.g09.slc.cpg/sg55_5_cif.got.tgz:9708.got - 2010.04.16 15:19:21.
