data_PCOD8224549
_publ_section_title
;
Structure prediction by ZEFSAII (Michael W. Deem and Ramdas Pophale) SiO2 
 PCOD8224549
Probable space group: P B A M
;
_chemical_formula_sum "Si O2"
_cell_formula_units_Z 56
_cell_length_a 18.215474
_cell_length_b 18.845491
_cell_length_c 8.665332
_cell_angle_alpha 90.000000
_cell_angle_beta 90.000000
_cell_angle_gamma 90.000000
_cell_volume 2974.631281
_symmetry_space_group_name_H-M "P B A M"
_symmetry_group_IT_number 55
_symmetry_cell_setting 'orthorhombic'
loop_
_space_group_symop_operation_xyz
x,y,z
-x,-y,z
1/2+x,1/2-y,-z
1/2-x,1/2+y,-z
-x,-y,-z
x,y,-z
1/2-x,1/2+y,z
1/2+x,1/2-y,z
loop_
_atom_site_type_symbol
_atom_site_label
_atom_site_fract_x
_atom_site_fract_y
_atom_site_fract_z
Si Si1 0.341600 0.241623 0.678486
Si Si2 0.303972 0.382175 0.818514
Si Si3 0.167659 0.455167 0.322064
Si Si4 0.039018 0.932250 0.178117
Si Si5 0.877371 0.399488 0.177766
Si Si6 0.953035 0.636813 0.174362
Si Si7 0.988993 0.219850 0.176015
O O1 0.324412 0.229185 0.500000
O O2 0.289917 0.304725 0.742811
O O3 0.328629 0.167817 0.769139
O O4 0.425467 0.264946 0.701995
O O5 0.237619 0.433810 0.778495
O O6 0.379885 0.416536 0.753436
O O7 0.309340 0.370786 0.000000
O O8 0.189082 0.450368 0.500000
O O9 0.145116 0.534416 0.281058
O O10 0.099794 0.402600 0.291812
O O11 0.986735 0.862272 0.199202
O O12 0.049860 0.951369 0.000000
O O13 0.000000 0.000000 0.260585
O O14 0.963307 0.385357 0.205850
O O15 0.860804 0.416223 0.000000
O O16 0.946029 0.722588 0.200408
O O17 0.929916 0.616227 0.000000
O O18 0.957798 0.229715 0.000000
#
# Coordination Sequence:
#
# PCOD8224549 Si02
#       7
#     8   8   8   8   8   8   8
#     4  10  18  31  53  78 102 128 166 215 260 305
#     4  10  20  36  55  74 103 143 181 215 262 326
#     4  12  24  35  50  76 110 142 176 223 274 318
#     4   8  14  28  54  83 103 125 168 223 267 305
#     4  10  20  36  57  79 104 138 179 217 260 320
#     4   9  18  33  52  74 103 140 181 220 261 320
#     4   8  15  29  50  75 102 133 168 206 253 314
#
# _framework density 18.825862999999998
#
# number of rings (size 3 to 8) (size 9 to 14) (size 15 to 20)
#    0.000    2.429    0.000    5.571    0.000    4.571 
#    0.000    1.429    0.000   14.143    0.000    0.000 
#    0.000    0.000    0.000    0.000    0.000    0.000 
#
# Total GULP energy -694082.972796 kJ/mol
# GULP energy per Si atom -12394.338800 kJ/mol
# Density = 1.878301 g / cm^3
# Si number density = 18.825863 Si / 1000 Ang^3
#
#
#
# Elastic Constant Matrix: (Units=GPa)
#
#
# Indices 1 2 3 4 5 6 
#
# 1 52.6948 43.3254 13.1637 0.0000 0.0000 0.0000
# 2 43.3254 145.9788 17.0709 0.0000 0.0000 0.0000
# 3 13.1637 17.0709 59.4913 0.0000 0.0000 0.0000
# 4 0.0000 0.0000 0.0000 23.2666 0.0000 0.0000
# 5 0.0000 0.0000 0.0000 0.0000 19.5352 0.0000
# 6 0.0000 0.0000 0.0000 0.0000 0.0000 11.8721
#
#
#
# Elastic Compliance Matrix: (Units=1/GPa)
#
#
# Indices 1 2 3 4 5 6 
#
# 1 0.025843 -0.007244 -0.003639 0.000000 0.000000 0.000000
# 2 -0.007244 0.009119 -0.001014 0.000000 0.000000 0.000000
# 3 -0.003639 -0.001014 0.017905 0.000000 0.000000 0.000000
# 4 0.000000 0.000000 0.000000 0.042980 0.000000 0.000000
# 5 0.000000 0.000000 0.000000 0.000000 0.051190 0.000000
# 6 0.000000 0.000000 0.000000 0.000000 0.000000 0.084231
#
#
# Mechanical properties :
#
#
# Convention : Reuss Voigt Hill
#
# Bulk Modulus (GPa) = 34.39742 45.03166 39.71454
# Shear Modulus (GPa) = 18.88553 23.24179 21.06366
#
# Velocity S-wave (km/s) = 3.17072 3.51745 3.34858
# Velocity P-wave (km/s) = 5.63167 6.36150 6.00768
#
# Compressibility (1/GPa) = 0.02907194
#
# Stress axis : x y z
#
# Youngs Moduli (GPa) = 38.69582 109.66237 55.84913
#
# Poissons Ratio (x) = 0.79442 0.20326
# Poissons Ratio (y) = 0.28032 0.05661
# Poissons Ratio (z) = 0.14083 0.11117
#
# Static dielectric constant tensor:
#      x y z
#    x 3.130530 0.000000 0.000000 
#    y 0.000000 3.873790 0.000000 
#    z 0.000000 0.000000 3.235690 
# 
# 
# High freq. dielectric constant tensor:
#      x y z
#    x 1.686250 0.000000 0.000000 
#    y 0.000000 1.751880 0.000000 
#    z 0.000000 0.000000 1.717150 
# 
# From -- ./inp_files/7808.got.cif
#   From: 2010.03.12/outbox.cif.g09.slc.cpg/sg55_4_cif.got.tgz:7808.got - 2010.04.16 15:19:21.
