data_PCOD8224408
_publ_section_title
;
Structure prediction by ZEFSAII (Michael W. Deem and Ramdas Pophale) SiO2 
 PCOD8224408
Probable space group: P B A M
;
_chemical_formula_sum "Si O2"
_cell_formula_units_Z 56
_cell_length_a 13.814029
_cell_length_b 32.312755
_cell_length_c 7.790046
_cell_angle_alpha 90.000000
_cell_angle_beta 90.000000
_cell_angle_gamma 90.000000
_cell_volume 3477.237650
_symmetry_space_group_name_H-M "P B A M"
_symmetry_group_IT_number 55
_symmetry_cell_setting 'orthorhombic'
loop_
_space_group_symop_operation_xyz
x,y,z
-x,-y,z
1/2+x,1/2-y,-z
1/2-x,1/2+y,-z
-x,-y,-z
x,y,-z
1/2-x,1/2+y,z
1/2+x,1/2-y,z
loop_
_atom_site_type_symbol
_atom_site_label
_atom_site_fract_x
_atom_site_fract_y
_atom_site_fract_z
Si Si1 0.402135 0.226535 0.194716
Si Si2 0.609472 0.606077 0.698320
Si Si3 0.114255 0.268468 0.796341
Si Si4 0.616276 0.454757 0.000000
Si Si5 0.304366 0.307167 0.304410
Si Si6 0.886890 0.046872 0.000000
Si Si7 0.786679 0.815702 0.203696
Si Si8 0.615100 0.397732 0.691404
O O1 0.507573 0.222580 0.283656
O O2 0.363189 0.273532 0.195690
O O3 0.321324 0.195730 0.273762
O O4 0.416723 0.213424 0.000000
O O5 0.631161 0.593704 0.500000
O O6 0.666368 0.647111 0.755678
O O7 0.646632 0.570082 0.825873
O O8 0.495890 0.614401 0.727993
O O9 0.189062 0.301631 0.718765
O O10 0.143179 0.221918 0.743122
O O11 0.116116 0.272603 0.000000
O O12 0.501546 0.457060 0.000000
O O13 0.660201 0.501080 0.000000
O O14 0.652814 0.431198 0.829084
O O15 0.335076 0.300611 0.500000
O O16 0.820764 0.856682 0.298370
O O17 0.787887 0.822615 0.000000
O O18 0.626106 0.416618 0.500000
#
# Coordination Sequence:
#
# PCOD8224408 Si02
#       8
#     8   8   8   4   8   4   8   8
#     4   9  18  30  44  62  86 119 156 191 221 254
#     4   9  19  30  43  68  92 116 152 183 215 264
#     4   9  18  30  44  62  86 120 156 188 223 256
#     4   9  18  32  44  69  89 111 153 177 214 274
#     4  10  19  29  42  63  90 118 151 188 220 260
#     4   9  18  30  50  63  87 123 141 177 226 262
#     4   9  16  27  42  62  89 118 153 191 219 258
#     4  10  18  29  46  65  91 121 147 183 221 259
#
# _framework density 16.104738000000001
#
# number of rings (size 3 to 8) (size 9 to 14) (size 15 to 20)
#    0.000    2.714    0.714    2.143    2.000    3.429 
#    0.000    2.857    0.000    0.000    0.000    0.000 
#    0.000    2.286    0.000    4.429    0.000    0.286 
#
# Total GULP energy -694149.391581 kJ/mol
# GULP energy per Si atom -12395.524850 kJ/mol
# Density = 1.606808 g / cm^3
# Si number density = 16.104738 Si / 1000 Ang^3
#
#
#
# Elastic Constant Matrix: (Units=GPa)
#
#
# Indices 1 2 3 4 5 6 
#
# 1 87.6405 40.1691 20.7155 0.0000 0.0000 0.0000
# 2 40.1691 118.0319 45.6327 0.0000 0.0000 0.0000
# 3 20.7155 45.6327 64.9081 0.0000 0.0000 0.0000
# 4 0.0000 0.0000 0.0000 14.8394 0.0000 0.0000
# 5 0.0000 0.0000 0.0000 0.0000 13.9248 0.0000
# 6 0.0000 0.0000 0.0000 0.0000 0.0000 16.9681
#
#
#
# Elastic Compliance Matrix: (Units=1/GPa)
#
#
# Indices 1 2 3 4 5 6 
#
# 1 0.013624 -0.004059 -0.001495 0.000000 0.000000 0.000000
# 2 -0.004059 0.012844 -0.007734 0.000000 0.000000 0.000000
# 3 -0.001495 -0.007734 0.021321 0.000000 0.000000 0.000000
# 4 0.000000 0.000000 0.000000 0.067388 0.000000 0.000000
# 5 0.000000 0.000000 0.000000 0.000000 0.071814 0.000000
# 6 0.000000 0.000000 0.000000 0.000000 0.000000 0.058934
#
#
# Mechanical properties :
#
#
# Convention : Reuss Voigt Hill
#
# Bulk Modulus (GPa) = 47.14041 53.73502 50.43771
# Shear Modulus (GPa) = 17.88453 20.08400 18.98426
#
# Velocity S-wave (km/s) = 3.33605 3.53524 3.43709
# Velocity P-wave (km/s) = 6.64633 7.07830 6.86571
#
# Compressibility (1/GPa) = 0.02121322
#
# Stress axis : x y z
#
# Youngs Moduli (GPa) = 73.40106 77.85904 46.90230
#
# Poissons Ratio (x) = 0.31600 0.07010
# Poissons Ratio (y) = 0.29791 0.36276
# Poissons Ratio (z) = 0.10971 0.60218
#
# Static dielectric constant tensor:
#      x y z
#    x 3.115540 0.000000 0.000000 
#    y 0.000000 2.975690 0.000000 
#    z 0.000000 0.000000 3.072620 
# 
# 
# High freq. dielectric constant tensor:
#      x y z
#    x 1.591690 0.000000 0.000000 
#    y 0.000000 1.592170 0.000000 
#    z 0.000000 0.000000 1.626220 
# 
# From -- ./inp_files/6898.got.cif
#   From: 2010.03.12/outbox.cif.g09.slc.cpg/sg55_4_cif.got.tgz:6898.got - 2010.04.16 15:19:21.
