data_PCOD8224636
_publ_section_title
;
Structure prediction by ZEFSAII (Michael W. Deem and Ramdas Pophale) SiO2 
 PCOD8224636
Probable space group: P B A M
;
_chemical_formula_sum "Si O2"
_cell_formula_units_Z 48
_cell_length_a 14.388608
_cell_length_b 13.457522
_cell_length_c 12.066988
_cell_angle_alpha 90.000000
_cell_angle_beta 90.000000
_cell_angle_gamma 90.000000
_cell_volume 2336.591326
_symmetry_space_group_name_H-M "P B A M"
_symmetry_group_IT_number 55
_symmetry_cell_setting 'orthorhombic'
loop_
_space_group_symop_operation_xyz
x,y,z
-x,-y,z
1/2+x,1/2-y,-z
1/2-x,1/2+y,-z
-x,-y,-z
x,y,-z
1/2-x,1/2+y,z
1/2+x,1/2-y,z
loop_
_atom_site_type_symbol
_atom_site_label
_atom_site_fract_x
_atom_site_fract_y
_atom_site_fract_z
Si Si1 0.633888 0.781648 0.374169
Si Si2 0.362426 0.986881 0.123129
Si Si3 0.789112 0.902342 0.748963
Si Si4 0.495243 0.151704 0.807855
Si Si5 0.915094 0.058142 0.326247
Si Si6 0.975615 0.864313 0.125769
O O1 0.640135 0.819629 0.500000
O O2 0.728092 0.815820 0.309922
O O3 0.545520 0.834118 0.316333
O O4 0.616786 0.662956 0.376646
O O5 0.266703 0.029128 0.166899
O O6 0.435170 0.076390 0.120124
O O7 0.400890 0.895470 0.199209
O O8 0.346504 0.945169 0.000000
O O9 0.875367 0.855323 0.814793
O O10 0.828871 0.982621 0.661517
O O11 0.488461 0.252206 0.876842
O O12 0.949196 0.072332 0.197230
O O13 0.000000 0.000000 0.388949
O O14 0.970320 0.905674 0.000000
#
# Coordination Sequence:
#
# PCOD8224636 Si02
#       6
#     8   8   8   8   8   8
#     4  10  22  41  61  82 113 151 198 251 296 335
#     4  10  18  32  55  82 117 155 183 227 290 347
#     4  10  22  35  56  88 122 147 192 244 282 348
#     4   9  19  35  54  80 111 148 196 236 277 345
#     4   9  21  40  61  86 120 154 196 242 287 356
#     4  10  19  35  59  87 121 158 189 228 287 352
#
# _framework density 20.542743999999999
#
# number of rings (size 3 to 8) (size 9 to 14) (size 15 to 20)
#    0.000    2.333    0.000    2.500    2.333    4.667 
#    0.000   14.167    0.000    0.000    0.000    0.000 
#    0.000    0.000    0.000    0.000    0.000    0.000 
#
# Total GULP energy -594637.649894 kJ/mol
# GULP energy per Si atom -12388.284373 kJ/mol
# Density = 2.049599 g / cm^3
# Si number density = 20.542744 Si / 1000 Ang^3
#
#
#
# Elastic Constant Matrix: (Units=GPa)
#
#
# Indices 1 2 3 4 5 6 
#
# 1 89.0220 38.1800 32.8059 0.0000 0.0000 0.0000
# 2 38.1800 108.2615 12.5666 0.0000 0.0000 0.0000
# 3 32.8059 12.5666 109.7834 0.0000 0.0000 0.0000
# 4 0.0000 0.0000 0.0000 7.7848 0.0000 0.0000
# 5 0.0000 0.0000 0.0000 0.0000 9.2340 0.0000
# 6 0.0000 0.0000 0.0000 0.0000 0.0000 33.9952
#
#
#
# Elastic Compliance Matrix: (Units=1/GPa)
#
#
# Indices 1 2 3 4 5 6 
#
# 1 0.014679 -0.004730 -0.003845 0.000000 0.000000 0.000000
# 2 -0.004730 0.010886 0.000168 0.000000 0.000000 0.000000
# 3 -0.003845 0.000168 0.010239 0.000000 0.000000 0.000000
# 4 0.000000 0.000000 0.000000 0.128455 0.000000 0.000000
# 5 0.000000 0.000000 0.000000 0.000000 0.108296 0.000000
# 6 0.000000 0.000000 0.000000 0.000000 0.000000 0.029416
#
#
# Mechanical properties :
#
#
# Convention : Reuss Voigt Hill
#
# Bulk Modulus (GPa) = 52.66610 52.68576 52.67593
# Shear Modulus (GPa) = 15.37918 25.10375 20.24147
#
# Velocity S-wave (km/s) = 2.73910 3.49954 3.14241
# Velocity P-wave (km/s) = 5.97466 6.48318 6.23411
#
# Compressibility (1/GPa) = 0.01898754
#
# Stress axis : x y z
#
# Youngs Moduli (GPa) = 68.12507 91.86363 97.66934
#
# Poissons Ratio (x) = 0.43455 0.37553
# Poissons Ratio (y) = 0.32226 -0.01636
# Poissons Ratio (z) = 0.26194 -0.01539
#
# Static dielectric constant tensor:
#      x y z
#    x 3.896070 0.000000 0.000000 
#    y 0.000000 3.962130 0.000000 
#    z 0.000000 0.000000 3.374120 
# 
# 
# High freq. dielectric constant tensor:
#      x y z
#    x 1.800390 0.000000 0.000000 
#    y 0.000000 1.819720 0.000000 
#    z 0.000000 0.000000 1.777100 
# 
# From -- ./inp_files/14142.got.cif
#   From: 2010.03.12/outbox.cif.g09.slc.cpg/sg55_8_cif.got.tgz:14142.got - 2010.04.16 15:19:21.
