data_PCOD8224975
_publ_section_title
;
Structure prediction by ZEFSAII (Michael W. Deem and Ramdas Pophale) SiO2 
 PCOD8224975
Probable space group: P B A M
;
_chemical_formula_sum "Si O2"
_cell_formula_units_Z 64
_cell_length_a 24.160230
_cell_length_b 14.407229
_cell_length_c 8.911179
_cell_angle_alpha 90.000000
_cell_angle_beta 90.000000
_cell_angle_gamma 90.000000
_cell_volume 3101.820708
_symmetry_space_group_name_H-M "P B A M"
_symmetry_group_IT_number 55
_symmetry_cell_setting 'orthorhombic'
loop_
_space_group_symop_operation_xyz
x,y,z
-x,-y,z
1/2+x,1/2-y,-z
1/2-x,1/2+y,-z
-x,-y,-z
x,y,-z
1/2-x,1/2+y,z
1/2+x,1/2-y,z
loop_
_atom_site_type_symbol
_atom_site_label
_atom_site_fract_x
_atom_site_fract_y
_atom_site_fract_z
Si Si1 0.053706 0.557051 0.824935
Si Si2 0.141784 0.440193 0.329680
Si Si3 0.304352 0.664165 0.174848
Si Si4 0.253688 0.856012 0.822968
Si Si5 0.558502 0.541995 0.171275
Si Si6 0.328418 0.483393 0.676571
Si Si7 0.093438 0.243493 0.330813
Si Si8 0.482711 0.260404 0.169756
O O1 0.108970 0.526716 0.738860
O O2 0.047945 0.665588 0.787082
O O3 0.000000 0.500000 0.768057
O O4 0.062805 0.537794 0.000000
O O5 0.159354 0.462257 0.500000
O O6 0.196868 0.420409 0.236152
O O7 0.100204 0.353724 0.321161
O O8 0.263076 0.747941 0.221549
O O9 0.291203 0.570782 0.267634
O O10 0.366481 0.694409 0.213326
O O11 0.299667 0.641398 0.000000
O O12 0.196505 0.889692 0.748902
O O13 0.250230 0.867516 0.000000
O O14 0.500000 0.500000 0.228020
O O15 0.608076 0.502520 0.272496
O O16 0.559354 0.653782 0.183483
O O17 0.568825 0.509993 0.000000
O O18 0.325297 0.475413 0.500000
O O19 0.105505 0.207486 0.500000
O O20 0.031635 0.218579 0.284842
O O21 0.506364 0.252505 0.000000
#
# Coordination Sequence:
#
# PCOD8224975 Si02
#       8
#     8   8   8   8   8   8   8   8
#     4  10  19  32  52  80 118 163 208 251 300 368
#     4  10  20  34  54  83 119 158 200 251 306 356
#     4  10  21  39  65  91 116 155 203 249 297 358
#     4  10  22  42  67  91 118 156 205 253 299 361
#     4  10  22  41  64  89 119 158 207 258 306 365
#     4  12  25  42  66  95 128 161 199 254 316 375
#     4  10  19  31  53  85 120 154 195 248 300 355
#     4  10  20  34  54  82 116 159 204 248 300 360
#
# _framework density 20.633044000000002
#
# number of rings (size 3 to 8) (size 9 to 14) (size 15 to 20)
#    0.000    1.750    1.250    3.375    0.000    5.000 
#    2.250    0.000    0.000    0.000    0.000    0.000 
#    0.000    0.000    0.000    0.000    0.000    0.000 
#
# Total GULP energy -793772.238311 kJ/mol
# GULP energy per Si atom -12402.691224 kJ/mol
# Density = 2.058608 g / cm^3
# Si number density = 20.633044 Si / 1000 Ang^3
#
#
#
# Elastic Constant Matrix: (Units=GPa)
#
#
# Indices 1 2 3 4 5 6 
#
# 1 79.1894 30.6439 41.3241 0.0000 0.0000 0.0000
# 2 30.6439 111.2969 39.6593 0.0000 0.0000 0.0000
# 3 41.3241 39.6593 101.0590 0.0000 0.0000 0.0000
# 4 0.0000 0.0000 0.0000 24.9456 0.0000 0.0000
# 5 0.0000 0.0000 0.0000 0.0000 27.1712 0.0000
# 6 0.0000 0.0000 0.0000 0.0000 0.0000 28.5825
#
#
#
# Elastic Compliance Matrix: (Units=1/GPa)
#
#
# Indices 1 2 3 4 5 6 
#
# 1 0.016634 -0.002507 -0.005818 0.000000 0.000000 0.000000
# 2 -0.002507 0.010823 -0.003223 0.000000 0.000000 0.000000
# 3 -0.005818 -0.003223 0.013539 0.000000 0.000000 0.000000
# 4 0.000000 0.000000 0.000000 0.040087 0.000000 0.000000
# 5 0.000000 0.000000 0.000000 0.000000 0.036804 0.000000
# 6 0.000000 0.000000 0.000000 0.000000 0.000000 0.034986
#
#
# Mechanical properties :
#
#
# Convention : Reuss Voigt Hill
#
# Bulk Modulus (GPa) = 55.86033 57.19998 56.53015
# Shear Modulus (GPa) = 27.48221 28.13439 27.80830
#
# Velocity S-wave (km/s) = 3.65355 3.69665 3.67516
# Velocity P-wave (km/s) = 6.70298 6.78255 6.74288
#
# Compressibility (1/GPa) = 0.01790179
#
# Stress axis : x y z
#
# Youngs Moduli (GPa) = 60.11740 92.39182 73.86102
#
# Poissons Ratio (x) = 0.23160 0.42973
# Poissons Ratio (y) = 0.15070 0.23802
# Poissons Ratio (z) = 0.34977 0.29773
#
# Static dielectric constant tensor:
#      x y z
#    x 3.461750 0.000000 0.000000 
#    y 0.000000 3.941460 0.000000 
#    z 0.000000 0.000000 3.665780 
# 
# 
# High freq. dielectric constant tensor:
#      x y z
#    x 1.786500 0.000000 0.000000 
#    y 0.000000 1.815060 0.000000 
#    z 0.000000 0.000000 1.804880 
# 
# From -- ./inp_files/9772.got.cif
#   From: 2010.03.12/outbox.cif.g09.slc.cpg/sg55_5_cif.got.tgz:9772.got - 2010.04.16 15:19:21.
