data_PCOD8224845
_publ_section_title
;
Structure prediction by ZEFSAII (Michael W. Deem and Ramdas Pophale) SiO2 
 PCOD8224845
Probable space group: P B A M
;
_chemical_formula_sum "Si O2"
_cell_formula_units_Z 60
_cell_length_a 5.063386
_cell_length_b 19.323558
_cell_length_c 30.675967
_cell_angle_alpha 90.000000
_cell_angle_beta 90.000000
_cell_angle_gamma 90.000000
_cell_volume 3001.417383
_symmetry_space_group_name_H-M "P B A M"
_symmetry_group_IT_number 55
_symmetry_cell_setting 'orthorhombic'
loop_
_space_group_symop_operation_xyz
x,y,z
-x,-y,z
1/2+x,1/2-y,-z
1/2-x,1/2+y,-z
-x,-y,-z
x,y,-z
1/2-x,1/2+y,z
1/2+x,1/2-y,z
loop_
_atom_site_type_symbol
_atom_site_label
_atom_site_fract_x
_atom_site_fract_y
_atom_site_fract_z
Si Si1 0.954297 0.293984 0.410443
Si Si2 0.469484 0.798284 0.685000
Si Si3 0.443648 0.657858 0.950459
Si Si4 0.524596 0.710709 0.137576
Si Si5 0.532822 0.577046 0.190819
Si Si6 0.031942 0.577823 0.751625
Si Si7 0.092435 0.296074 0.500000
Si Si8 0.958581 0.573773 0.049427
O O1 0.646558 0.273578 0.412151
O O2 0.015262 0.330300 0.364169
O O3 0.028492 0.338034 0.454625
O O4 0.199535 0.757229 0.693723
O O5 0.483150 0.865134 0.715120
O O6 0.530560 0.715724 0.915522
O O7 0.655783 0.595959 0.947955
O O8 0.161380 0.630896 0.932003
O O9 0.432608 0.688866 0.000000
O O10 0.788151 0.743827 0.157175
O O11 0.493638 0.631184 0.151776
O O12 0.500000 0.500000 0.171051
O O13 0.324839 0.588988 0.229656
O O14 0.825433 0.587682 0.209315
O O15 0.000000 0.500000 0.731970
O O16 0.894152 0.229357 0.500000
O O17 0.000000 0.500000 0.073666
O O18 0.058570 0.564949 0.000000
#
# Coordination Sequence:
#
# PCOD8224845 Si02
#       8
#     8   8   8   8   8   8   4   8
#     4   8  14  23  36  60  93 128 168 212 257 304
#     4  10  19  30  49  78 107 135 173 220 266 311
#     4  10  21  37  56  81 113 145 174 208 253 303
#     4  12  26  42  61  87 114 141 177 216 254 303
#     4  10  23  42  61  81 107 140 176 213 258 313
#     4  10  21  38  58  80 107 139 173 211 263 322
#     4   8  12  20  34  52  85 130 167 206 256 302
#     4   9  17  31  53  81 110 140 176 214 249 289
#
# _framework density 19.990553999999999
#
# number of rings (size 3 to 8) (size 9 to 14) (size 15 to 20)
#    0.000    2.267    0.000    2.800    0.000    6.400 
#    0.000    1.333    0.000    0.000    0.000    0.467 
#    0.000    0.000    0.000   35.867    0.000    1.333 
#
# Total GULP energy -743446.046661 kJ/mol
# GULP energy per Si atom -12390.767444 kJ/mol
# Density = 1.994505 g / cm^3
# Si number density = 19.990554 Si / 1000 Ang^3
#
#
#
# Elastic Constant Matrix: (Units=GPa)
#
#
# Indices 1 2 3 4 5 6 
#
# 1 91.9687 18.6173 8.3992 0.0000 0.0000 0.0000
# 2 18.6173 88.4060 48.7870 0.0000 0.0000 0.0000
# 3 8.3992 48.7870 83.9171 0.0000 0.0000 0.0000
# 4 0.0000 0.0000 0.0000 8.0727 0.0000 0.0000
# 5 0.0000 0.0000 0.0000 0.0000 16.6347 0.0000
# 6 0.0000 0.0000 0.0000 0.0000 0.0000 24.3534
#
#
#
# Elastic Compliance Matrix: (Units=1/GPa)
#
#
# Indices 1 2 3 4 5 6 
#
# 1 0.011365 -0.002600 0.000374 0.000000 0.000000 0.000000
# 2 -0.002600 0.017249 -0.009768 0.000000 0.000000 0.000000
# 3 0.000374 -0.009768 0.017558 0.000000 0.000000 0.000000
# 4 0.000000 0.000000 0.000000 0.123874 0.000000 0.000000
# 5 0.000000 0.000000 0.000000 0.000000 0.060115 0.000000
# 6 0.000000 0.000000 0.000000 0.000000 0.000000 0.041062
#
#
# Mechanical properties :
#
#
# Convention : Reuss Voigt Hill
#
# Bulk Modulus (GPa) = 45.07580 46.21096 45.64338
# Shear Modulus (GPa) = 16.52309 22.37806 19.45057
#
# Velocity S-wave (km/s) = 2.87809 3.34942 3.12266
# Velocity P-wave (km/s) = 5.80017 6.17452 5.99027
#
# Compressibility (1/GPa) = 0.02218485
#
# Stress axis : x y z
#
# Youngs Moduli (GPa) = 87.98643 57.97274 56.95399
#
# Poissons Ratio (x) = 0.15071 -0.02129
# Poissons Ratio (y) = 0.22874 0.55634
# Poissons Ratio (z) = -0.03289 0.56629
#
# Static dielectric constant tensor:
#      x y z
#    x 3.887010 0.000000 0.000000 
#    y 0.000000 3.309970 0.000000 
#    z 0.000000 0.000000 3.786950 
# 
# 
# High freq. dielectric constant tensor:
#      x y z
#    x 1.809310 0.000000 0.000000 
#    y 0.000000 1.732630 0.000000 
#    z 0.000000 0.000000 1.770760 
# 
# From -- ./inp_files/24120.got.cif
#   From: 2010.03.12/outbox.cif.g09.slc.cpg/sg55_13_cif.got.tgz:24120.got - 2010.04.16 15:19:21.
