data_PCOD8224852
_publ_section_title
;
Structure prediction by ZEFSAII (Michael W. Deem and Ramdas Pophale) SiO2 
 PCOD8224852
Probable space group: P B A M
;
_chemical_formula_sum "Si O2"
_cell_formula_units_Z 64
_cell_length_a 15.489384
_cell_length_b 22.503545
_cell_length_c 9.140169
_cell_angle_alpha 90.000000
_cell_angle_beta 90.000000
_cell_angle_gamma 90.000000
_cell_volume 3185.952603
_symmetry_space_group_name_H-M "P B A M"
_symmetry_group_IT_number 55
_symmetry_cell_setting 'orthorhombic'
loop_
_space_group_symop_operation_xyz
x,y,z
-x,-y,z
1/2+x,1/2-y,-z
1/2-x,1/2+y,-z
-x,-y,-z
x,y,-z
1/2-x,1/2+y,z
1/2+x,1/2-y,z
loop_
_atom_site_type_symbol
_atom_site_label
_atom_site_fract_x
_atom_site_fract_y
_atom_site_fract_z
Si Si1 0.816398 0.062153 0.829599
Si Si2 0.163613 0.056050 0.335549
Si Si3 0.011971 0.564136 0.664902
Si Si4 0.496762 0.570041 0.841582
Si Si5 0.560258 0.189761 0.324456
Si Si6 0.824250 0.367381 0.338922
Si Si7 0.736812 0.182404 0.828970
Si Si8 0.396092 0.236346 0.829011
O O1 0.744445 0.111763 0.795665
O O2 0.909426 0.090311 0.783403
O O3 0.797479 0.001103 0.746347
O O4 0.819617 0.045859 0.000000
O O5 0.145846 0.035493 0.500000
O O6 0.077164 0.085766 0.272489
O O7 0.227742 0.110704 0.323482
O O8 0.977104 0.556951 0.500000
O O9 0.113913 0.575571 0.671941
O O10 0.000000 0.500000 0.747114
O O11 0.962621 0.622300 0.730470
O O12 0.500000 0.500000 0.860568
O O13 0.476766 0.599772 0.000000
O O14 0.559499 0.194837 0.500000
O O15 0.655108 0.207069 0.263082
O O16 0.487070 0.235270 0.260766
O O17 0.838829 0.337239 0.500000
O O18 0.843605 0.323232 0.207192
O O19 0.828771 0.211681 0.783113
O O20 0.719261 0.194550 0.000000
O O21 0.418723 0.239468 0.000000
#
# Coordination Sequence:
#
# PCOD8224852 Si02
#       8
#     8   8   8   8   8   8   8   8
#     4   9  19  35  53  76 109 145 183 229 279 333
#     4  10  19  30  50  80 114 145 179 227 280 335
#     4   8  15  29  51  77 108 145 179 210 262 336
#     4   8  15  30  49  68  99 143 182 216 264 325
#     4  10  21  37  61  88 117 152 185 233 293 343
#     4   9  19  34  52  77 111 146 182 229 278 334
#     4  10  22  40  61  85 114 150 192 241 287 338
#     4  10  21  40  62  81 110 150 194 238 281 332
#
# _framework density 20.088183000000001
#
# number of rings (size 3 to 8) (size 9 to 14) (size 15 to 20)
#    0.000    2.750    0.000    2.625    1.750    4.750 
#    2.250    0.000    0.000    1.875    0.000    0.000 
#    0.000    0.000    0.000    0.000    0.000    0.000 
#
# Total GULP energy -792900.082423 kJ/mol
# GULP energy per Si atom -12389.063788 kJ/mol
# Density = 2.004246 g / cm^3
# Si number density = 20.088183 Si / 1000 Ang^3
#
#
#
# Elastic Constant Matrix: (Units=GPa)
#
#
# Indices 1 2 3 4 5 6 
#
# 1 105.4952 13.9890 45.1000 0.0000 0.0000 0.0000
# 2 13.9890 37.6869 18.2539 0.0000 0.0000 0.0000
# 3 45.1000 18.2539 74.1419 0.0000 0.0000 0.0000
# 4 0.0000 0.0000 0.0000 20.0931 0.0000 0.0000
# 5 0.0000 0.0000 0.0000 0.0000 32.6250 0.0000
# 6 0.0000 0.0000 0.0000 0.0000 0.0000 23.9165
#
#
#
# Elastic Compliance Matrix: (Units=1/GPa)
#
#
# Indices 1 2 3 4 5 6 
#
# 1 0.012852 -0.001117 -0.007543 0.000000 0.000000 0.000000
# 2 -0.001117 0.030224 -0.006762 0.000000 0.000000 0.000000
# 3 -0.007543 -0.006762 0.019740 0.000000 0.000000 0.000000
# 4 0.000000 0.000000 0.000000 0.049768 0.000000 0.000000
# 5 0.000000 0.000000 0.000000 0.000000 0.030651 0.000000
# 6 0.000000 0.000000 0.000000 0.000000 0.000000 0.041812
#
#
# Mechanical properties :
#
#
# Convention : Reuss Voigt Hill
#
# Bulk Modulus (GPa) = 31.27583 41.33441 36.30512
# Shear Modulus (GPa) = 22.07029 24.65900 23.36465
#
# Velocity S-wave (km/s) = 3.31822 3.50742 3.41413
# Velocity P-wave (km/s) = 5.50307 6.08472 5.80119
#
# Compressibility (1/GPa) = 0.03197357
#
# Stress axis : x y z
#
# Youngs Moduli (GPa) = 77.81040 33.08611 50.65728
#
# Poissons Ratio (x) = 0.03696 0.38209
# Poissons Ratio (y) = 0.08693 0.34253
# Poissons Ratio (z) = 0.58689 0.22372
#
# Static dielectric constant tensor:
#      x y z
#    x 4.337710 0.000000 0.000000 
#    y 0.000000 3.571860 0.000000 
#    z 0.000000 0.000000 3.538290 
# 
# 
# High freq. dielectric constant tensor:
#      x y z
#    x 1.791450 0.000000 0.000000 
#    y 0.000000 1.761110 0.000000 
#    z 0.000000 0.000000 1.765940 
# 
# From -- ./inp_files/6509.got.cif
#   From: 2010.03.12/outbox.cif.g09.slc.cpg/sg55_4_cif.got.tgz:6509.got - 2010.04.16 15:19:21.
