data_PCOD8224319
_publ_section_title
;
Structure prediction by ZEFSAII (Michael W. Deem and Ramdas Pophale) SiO2 
 PCOD8224319
Probable space group: P B A M
;
_chemical_formula_sum "Si O2"
_cell_formula_units_Z 64
_cell_length_a 15.127142
_cell_length_b 24.676995
_cell_length_c 9.043498
_cell_angle_alpha 90.000000
_cell_angle_beta 90.000000
_cell_angle_gamma 90.000000
_cell_volume 3375.869141
_symmetry_space_group_name_H-M "P B A M"
_symmetry_group_IT_number 55
_symmetry_cell_setting 'orthorhombic'
loop_
_space_group_symop_operation_xyz
x,y,z
-x,-y,z
1/2+x,1/2-y,-z
1/2-x,1/2+y,-z
-x,-y,-z
x,y,-z
1/2-x,1/2+y,z
1/2+x,1/2-y,z
loop_
_atom_site_type_symbol
_atom_site_label
_atom_site_fract_x
_atom_site_fract_y
_atom_site_fract_z
Si Si1 0.934742 0.302760 0.177404
Si Si2 0.783058 0.988677 0.667528
Si Si3 0.866126 0.078469 0.173694
Si Si4 0.357650 0.659743 0.163451
Si Si5 0.126891 0.284260 0.162343
Si Si6 0.180489 0.800061 0.175556
Si Si7 0.961260 0.921814 0.669699
Si Si8 0.691817 0.881129 0.674982
O O1 0.881444 0.249094 0.234901
O O2 0.894208 0.358037 0.243467
O O3 0.035733 0.303728 0.239815
O O4 0.932295 0.304307 0.000000
O O5 0.766516 0.007539 0.500000
O O6 0.878137 0.960848 0.684687
O O7 0.708155 0.944739 0.714745
O O8 0.782233 0.042058 0.771874
O O9 0.856759 0.141250 0.220405
O O10 0.950745 0.053010 0.257971
O O11 0.877113 0.071757 0.000000
O O12 0.384958 0.720820 0.144453
O O13 0.442380 0.632318 0.237832
O O14 0.273350 0.654518 0.268376
O O15 0.338266 0.634715 0.000000
O O16 0.219708 0.297046 0.245414
O O17 0.131107 0.311587 0.000000
O O18 0.188376 0.793329 0.000000
O O19 0.980973 0.907900 0.500000
O O20 0.684003 0.873550 0.500000
#
# Coordination Sequence:
#
# PCOD8224319 Si02
#       8
#     8   8   8   8   8   8   8   8
#     4  10  18  32  56  79 100 135 176 209 253 312
#     4   9  20  36  51  68  99 141 174 211 267 316
#     4  11  21  32  51  76 103 136 179 222 258 314
#     4  10  17  30  53  76 100 136 177 214 250 305
#     4   9  17  30  52  77 104 137 170 212 265 309
#     4   9  18  33  50  77 112 137 166 215 266 307
#     4  10  20  33  49  72 107 143 172 213 267 317
#     4  10  20  34  51  74 105 136 166 211 264 307
#
# _framework density 18.958081
#
# number of rings (size 3 to 8) (size 9 to 14) (size 15 to 20)
#    0.000    2.250    1.250    3.375    0.000    6.500 
#    0.000    3.750    0.000    0.750    0.000    5.250 
#    0.000    0.000    0.000    0.000    0.000    0.000 
#
# Total GULP energy -793039.275596 kJ/mol
# GULP energy per Si atom -12391.238681 kJ/mol
# Density = 1.891493 g / cm^3
# Si number density = 18.958081 Si / 1000 Ang^3
#
#
#
# Elastic Constant Matrix: (Units=GPa)
#
#
# Indices 1 2 3 4 5 6 
#
# 1 83.6526 0.4261 9.1848 0.0000 0.0000 0.0000
# 2 0.4261 40.8385 19.0124 0.0000 0.0000 0.0000
# 3 9.1848 19.0124 54.6167 0.0000 0.0000 0.0000
# 4 0.0000 0.0000 0.0000 15.4678 0.0000 0.0000
# 5 0.0000 0.0000 0.0000 0.0000 15.9822 0.0000
# 6 0.0000 0.0000 0.0000 0.0000 0.0000 19.1984
#
#
#
# Elastic Compliance Matrix: (Units=1/GPa)
#
#
# Indices 1 2 3 4 5 6 
#
# 1 0.012212 0.000989 -0.002398 0.000000 0.000000 0.000000
# 2 0.000989 0.029303 -0.010367 0.000000 0.000000 0.000000
# 3 -0.002398 -0.010367 0.022321 0.000000 0.000000 0.000000
# 4 0.000000 0.000000 0.000000 0.064651 0.000000 0.000000
# 5 0.000000 0.000000 0.000000 0.000000 0.062569 0.000000
# 6 0.000000 0.000000 0.000000 0.000000 0.000000 0.052088
#
#
# Mechanical properties :
#
#
# Convention : Reuss Voigt Hill
#
# Bulk Modulus (GPa) = 24.82318 26.26161 25.54240
# Shear Modulus (GPa) = 17.84922 20.16197 19.00559
#
# Velocity S-wave (km/s) = 3.07173 3.26468 3.16967
# Velocity P-wave (km/s) = 5.06980 5.30032 5.18634
#
# Compressibility (1/GPa) = 0.04028492
#
# Stress axis : x y z
#
# Youngs Moduli (GPa) = 81.88364 34.12664 44.79999
#
# Poissons Ratio (x) = -0.03375 0.10743
# Poissons Ratio (y) = -0.08098 0.46443
# Poissons Ratio (z) = 0.19636 0.35378
#
# Static dielectric constant tensor:
#      x y z
#    x 3.564420 0.000000 0.000000 
#    y 0.000000 3.571280 0.000000 
#    z 0.000000 0.000000 3.326360 
# 
# 
# High freq. dielectric constant tensor:
#      x y z
#    x 1.722610 0.000000 0.000000 
#    y 0.000000 1.727010 0.000000 
#    z 0.000000 0.000000 1.713000 
# 
# From -- ./inp_files/6599.got.cif
#   From: 2010.03.12/outbox.cif.g09.slc.cpg/sg55_4_cif.got.tgz:6599.got - 2010.04.16 15:19:21.
