data_PCOD8225661
_publ_section_title
;
Structure prediction by ZEFSAII (Michael W. Deem and Ramdas Pophale) SiO2 
 PCOD8225661
Probable space group: P B A M
;
_chemical_formula_sum "Si O2"
_cell_formula_units_Z 64
_cell_length_a 15.702709
_cell_length_b 22.673222
_cell_length_c 9.303766
_cell_angle_alpha 90.000000
_cell_angle_beta 90.000000
_cell_angle_gamma 90.000000
_cell_volume 3312.429179
_symmetry_space_group_name_H-M "P B A M"
_symmetry_group_IT_number 55
_symmetry_cell_setting 'orthorhombic'
loop_
_space_group_symop_operation_xyz
x,y,z
-x,-y,z
1/2+x,1/2-y,-z
1/2-x,1/2+y,-z
-x,-y,-z
x,y,-z
1/2-x,1/2+y,z
1/2+x,1/2-y,z
loop_
_atom_site_type_symbol
_atom_site_label
_atom_site_fract_x
_atom_site_fract_y
_atom_site_fract_z
Si Si1 0.411208 0.025443 0.670032
Si Si2 0.805957 0.253295 0.842181
Si Si3 0.256327 0.941182 0.666484
Si Si4 0.132350 0.652274 0.657570
Si Si5 0.438603 0.446022 0.333605
Si Si6 0.036850 0.825634 0.170506
Si Si7 0.963741 0.724652 0.339731
Si Si8 0.332158 0.838227 0.838279
O O1 0.422071 0.028790 0.500000
O O2 0.396488 0.091202 0.731969
O O3 0.500000 0.000000 0.735969
O O4 0.328221 0.988035 0.714160
O O5 0.797336 0.313001 0.749437
O O6 0.872735 0.203675 0.789599
O O7 0.713487 0.224848 0.842811
O O8 0.835064 0.273711 0.000000
O O9 0.269266 0.923538 0.500000
O O10 0.160288 0.964969 0.692886
O O11 0.268942 0.884985 0.767078
O O12 0.170723 0.638560 0.500000
O O13 0.056998 0.698736 0.645410
O O14 0.500000 0.500000 0.290322
O O15 0.451830 0.428491 0.500000
O O16 0.465413 0.390922 0.236059
O O17 0.964511 0.784810 0.245922
O O18 0.019896 0.829208 0.000000
O O19 0.926432 0.737058 0.500000
O O20 0.913835 0.671722 0.260803
O O21 0.357059 0.858389 0.000000
#
# Coordination Sequence:
#
# PCOD8225661 Si02
#       8
#     8   8   8   8   8   8   8   8
#     4   9  17  32  54  81 112 144 182 231 282 336
#     4   9  19  34  53  75 106 141 175 220 276 332
#     4  10  20  35  58  82 109 149 194 238 287 339
#     4   9  18  33  54  78 106 140 180 222 273 330
#     4  10  21  37  56  80 112 149 194 247 292 342
#     4  10  19  36  58  80 108 145 184 229 289 346
#     4  10  20  34  55  84 111 142 182 229 282 341
#     4  11  21  35  54  80 112 143 183 231 282 341
#
# _framework density 19.321169000000001
#
# number of rings (size 3 to 8) (size 9 to 14) (size 15 to 20)
#    0.000    2.250    1.250    1.875    0.000    4.250 
#    2.250    0.625    0.000    1.500    0.000    0.000 
#    0.000    0.000    0.000    0.000    0.000    0.000 
#
# Total GULP energy -793260.470218 kJ/mol
# GULP energy per Si atom -12394.694847 kJ/mol
# Density = 1.927719 g / cm^3
# Si number density = 19.321169 Si / 1000 Ang^3
#
#
#
# Elastic Constant Matrix: (Units=GPa)
#
#
# Indices 1 2 3 4 5 6 
#
# 1 72.3867 32.6810 30.2053 0.0000 0.0000 0.0000
# 2 32.6810 119.0975 48.8363 0.0000 0.0000 0.0000
# 3 30.2053 48.8363 94.7850 0.0000 0.0000 0.0000
# 4 0.0000 0.0000 0.0000 15.5521 0.0000 0.0000
# 5 0.0000 0.0000 0.0000 0.0000 17.7589 0.0000
# 6 0.0000 0.0000 0.0000 0.0000 0.0000 30.2545
#
#
#
# Elastic Compliance Matrix: (Units=1/GPa)
#
#
# Indices 1 2 3 4 5 6 
#
# 1 0.016767 -0.003055 -0.003769 0.000000 0.000000 0.000000
# 2 -0.003055 0.011202 -0.004798 0.000000 0.000000 0.000000
# 3 -0.003769 -0.004798 0.014223 0.000000 0.000000 0.000000
# 4 0.000000 0.000000 0.000000 0.064300 0.000000 0.000000
# 5 0.000000 0.000000 0.000000 0.000000 0.056310 0.000000
# 6 0.000000 0.000000 0.000000 0.000000 0.000000 0.033053
#
#
# Mechanical properties :
#
#
# Convention : Reuss Voigt Hill
#
# Bulk Modulus (GPa) = 52.77691 56.63494 54.70593
# Shear Modulus (GPa) = 22.18118 24.34953 23.26535
#
# Velocity S-wave (km/s) = 3.39193 3.55385 3.47383
# Velocity P-wave (km/s) = 6.53568 6.79822 6.66824
#
# Compressibility (1/GPa) = 0.01894768
#
# Stress axis : x y z
#
# Youngs Moduli (GPa) = 59.64162 89.26645 70.30679
#
# Poissons Ratio (x) = 0.27275 0.26497
# Poissons Ratio (y) = 0.18223 0.33734
# Poissons Ratio (z) = 0.22478 0.42831
#
# Static dielectric constant tensor:
#      x y z
#    x 3.405210 0.000000 0.000000 
#    y 0.000000 3.486610 0.000000 
#    z 0.000000 0.000000 3.629250 
# 
# 
# High freq. dielectric constant tensor:
#      x y z
#    x 1.738080 0.000000 0.000000 
#    y 0.000000 1.746950 0.000000 
#    z 0.000000 0.000000 1.741420 
# 
# From -- ./inp_files/6525.got.cif
#   From: 2010.03.12/outbox.cif.g09.slc.cpg/sg55_4_cif.got.tgz:6525.got - 2010.04.16 15:19:21.
