data_PCOD8225679
_publ_section_title
;
Structure prediction by ZEFSAII (Michael W. Deem and Ramdas Pophale) SiO2 
 PCOD8225679
Probable space group: P B A M
;
_chemical_formula_sum "Si O2"
_cell_formula_units_Z 64
_cell_length_a 14.531130
_cell_length_b 23.996855
_cell_length_c 9.061628
_cell_angle_alpha 90.000000
_cell_angle_beta 90.000000
_cell_angle_gamma 90.000000
_cell_volume 3159.802547
_symmetry_space_group_name_H-M "P B A M"
_symmetry_group_IT_number 55
_symmetry_cell_setting 'orthorhombic'
loop_
_space_group_symop_operation_xyz
x,y,z
-x,-y,z
1/2+x,1/2-y,-z
1/2-x,1/2+y,-z
-x,-y,-z
x,y,-z
1/2-x,1/2+y,z
1/2+x,1/2-y,z
loop_
_atom_site_type_symbol
_atom_site_label
_atom_site_fract_x
_atom_site_fract_y
_atom_site_fract_z
Si Si1 0.249348 0.915638 0.334910
Si Si2 0.069901 0.547701 0.326820
Si Si3 0.940206 0.947234 0.329060
Si Si4 0.350506 0.756032 0.173629
Si Si5 0.934996 0.641201 0.664854
Si Si6 0.679624 0.703724 0.328898
Si Si7 0.760817 0.974487 0.826109
Si Si8 0.979221 0.823383 0.669297
O O1 0.216671 0.933169 0.500000
O O2 0.359027 0.907685 0.332559
O O3 0.201573 0.859254 0.283893
O O4 0.220238 0.961698 0.217770
O O5 0.088901 0.538968 0.500000
O O6 0.165565 0.546457 0.241653
O O7 0.000000 0.500000 0.268818
O O8 0.029027 0.609445 0.293709
O O9 0.915451 0.956319 0.500000
O O10 0.846057 0.939670 0.238067
O O11 0.995757 0.889434 0.304211
O O12 0.000000 0.000000 0.271331
O O13 0.410873 0.808979 0.225010
O O14 0.245919 0.756150 0.235189
O O15 0.398276 0.699410 0.227648
O O16 0.345332 0.756356 0.000000
O O17 0.940413 0.667108 0.500000
O O18 0.702674 0.713902 0.500000
O O19 0.571937 0.711892 0.293841
O O20 0.756748 0.967508 0.000000
O O21 0.951151 0.813216 0.500000
#
# Coordination Sequence:
#
# PCOD8225679 Si02
#       8
#     8   8   8   8   8   8   8   8
#     4   9  16  32  57  83 112 149 199 248 285 336
#     4  10  19  36  59  83 114 159 210 254 297 348
#     4  10  22  43  69  92 115 151 204 258 303 355
#     4  11  23  38  59  89 126 158 189 238 302 366
#     4   9  18  35  59  82 109 152 207 255 289 336
#     4   9  19  38  65  90 111 146 200 253 294 341
#     4  12  24  34  51  86 128 163 191 233 302 373
#     4  10  21  41  68  93 116 152 204 255 300 352
#
# _framework density 20.254428999999998
#
# number of rings (size 3 to 8) (size 9 to 14) (size 15 to 20)
#    0.000    2.000    1.250    3.750    0.000    6.000 
#    2.250    1.250    0.000    0.000    0.000    0.000 
#    0.000    0.000    0.000    0.000    0.000    0.000 
#
# Total GULP energy -793555.642539 kJ/mol
# GULP energy per Si atom -12399.306915 kJ/mol
# Density = 2.020833 g / cm^3
# Si number density = 20.254429 Si / 1000 Ang^3
#
#
#
# Elastic Constant Matrix: (Units=GPa)
#
#
# Indices 1 2 3 4 5 6 
#
# 1 112.8776 30.3504 50.7430 0.0000 0.0000 0.0000
# 2 30.3504 68.9255 33.1657 0.0000 0.0000 0.0000
# 3 50.7430 33.1657 99.9420 0.0000 0.0000 0.0000
# 4 0.0000 0.0000 0.0000 17.2714 0.0000 0.0000
# 5 0.0000 0.0000 0.0000 0.0000 14.0846 0.0000
# 6 0.0000 0.0000 0.0000 0.0000 0.0000 29.0465
#
#
#
# Elastic Compliance Matrix: (Units=1/GPa)
#
#
# Indices 1 2 3 4 5 6 
#
# 1 0.011910 -0.002778 -0.005125 0.000000 0.000000 0.000000
# 2 -0.002778 0.017913 -0.004534 0.000000 0.000000 0.000000
# 3 -0.005125 -0.004534 0.014112 0.000000 0.000000 0.000000
# 4 0.000000 0.000000 0.000000 0.057899 0.000000 0.000000
# 5 0.000000 0.000000 0.000000 0.000000 0.071000 0.000000
# 6 0.000000 0.000000 0.000000 0.000000 0.000000 0.034428
#
#
# Mechanical properties :
#
#
# Convention : Reuss Voigt Hill
#
# Bulk Modulus (GPa) = 52.46209 56.69592 54.57901
# Shear Modulus (GPa) = 20.96516 23.24624 22.10570
#
# Velocity S-wave (km/s) = 3.22077 3.39146 3.30722
# Velocity P-wave (km/s) = 6.30785 6.58701 6.44894
#
# Compressibility (1/GPa) = 0.01906138
#
# Stress axis : x y z
#
# Youngs Moduli (GPa) = 83.96226 55.82385 70.85917
#
# Poissons Ratio (x) = 0.15510 0.36316
# Poissons Ratio (y) = 0.23328 0.32127
# Poissons Ratio (z) = 0.43031 0.25310
#
# Static dielectric constant tensor:
#      x y z
#    x 3.804670 0.000000 0.000000 
#    y 0.000000 3.517190 0.000000 
#    z 0.000000 0.000000 3.381450 
# 
# 
# High freq. dielectric constant tensor:
#      x y z
#    x 1.797630 0.000000 0.000000 
#    y 0.000000 1.780460 0.000000 
#    z 0.000000 0.000000 1.764440 
# 
# From -- ./inp_files/6494.got.cif
#   From: 2010.03.12/outbox.cif.g09.slc.cpg/sg55_4_cif.got.tgz:6494.got - 2010.04.16 15:19:21.
