data_PCOD8225158
_publ_section_title
;
Structure prediction by ZEFSAII (Michael W. Deem and Ramdas Pophale) SiO2 
 PCOD8225158
Probable space group: P B A M
;
_chemical_formula_sum "Si O2"
_cell_formula_units_Z 48
_cell_length_a 25.141885
_cell_length_b 8.953800
_cell_length_c 13.101010
_cell_angle_alpha 90.000000
_cell_angle_beta 90.000000
_cell_angle_gamma 90.000000
_cell_volume 2949.239236
_symmetry_space_group_name_H-M "P B A M"
_symmetry_group_IT_number 55
_symmetry_cell_setting 'orthorhombic'
loop_
_space_group_symop_operation_xyz
x,y,z
-x,-y,z
1/2+x,1/2-y,-z
1/2-x,1/2+y,-z
-x,-y,-z
x,y,-z
1/2-x,1/2+y,z
1/2+x,1/2-y,z
loop_
_atom_site_type_symbol
_atom_site_label
_atom_site_fract_x
_atom_site_fract_y
_atom_site_fract_z
Si Si1 0.700663 0.323483 0.118182
Si Si2 0.189543 0.830043 0.117844
Si Si3 0.936961 0.518455 0.385213
Si Si4 0.997610 0.831999 0.117541
Si Si5 0.600671 0.167336 0.802733
Si Si6 0.906038 0.337483 0.788998
O O1 0.758712 0.264108 0.146863
O O2 0.700089 0.498079 0.142273
O O3 0.658834 0.239232 0.190050
O O4 0.687296 0.289661 0.000000
O O5 0.141456 0.775520 0.188412
O O6 0.173606 0.806321 0.000000
O O7 0.915259 0.537989 0.500000
O O8 0.919237 0.661595 0.316006
O O9 0.910397 0.370891 0.332998
O O10 0.000000 0.500000 0.384248
O O11 0.037970 0.729022 0.178049
O O12 0.938460 0.768271 0.130008
O O13 0.014598 0.832165 0.000000
O O14 0.000000 0.000000 0.161214
O O15 0.602366 0.997167 0.846724
#
# Coordination Sequence:
#
# PCOD8225158 Si02
#       6
#     8   8   8   8   8   8
#     4  10  20  33  50  76 110 144 174 206 247 304
#     4  10  20  33  50  76 110 144 174 206 247 304
#     4   9  18  36  58  78 100 130 174 223 274 313
#     4  11  21  31  45  72 112 144 165 201 251 311
#     4  10  19  33  51  78  96 138 172 213 258 308
#     4  10  19  33  51  78  96 138 172 213 258 308
#
# _framework density 16.275385
#
# number of rings (size 3 to 8) (size 9 to 14) (size 15 to 20)
#    1.000    1.000    1.667    3.500    0.000    7.333 
#    0.000    0.000    0.000    6.000    0.000    0.000 
#    0.000    0.000    0.000    0.000    0.000    0.000 
#
# Total GULP energy -595005.592329 kJ/mol
# GULP energy per Si atom -12395.949840 kJ/mol
# Density = 1.623834 g / cm^3
# Si number density = 16.275385 Si / 1000 Ang^3
#
#
#
# Elastic Constant Matrix: (Units=GPa)
#
#
# Indices 1 2 3 4 5 6 
#
# 1 65.0577 13.6463 25.1567 0.0000 0.0000 0.0000
# 2 13.6463 82.0515 21.6211 0.0000 0.0000 0.0000
# 3 25.1567 21.6211 70.6816 0.0000 0.0000 0.0000
# 4 0.0000 0.0000 0.0000 7.6672 0.0000 0.0000
# 5 0.0000 0.0000 0.0000 0.0000 19.9758 0.0000
# 6 0.0000 0.0000 0.0000 0.0000 0.0000 39.5004
#
#
#
# Elastic Compliance Matrix: (Units=1/GPa)
#
#
# Indices 1 2 3 4 5 6 
#
# 1 0.017974 -0.001418 -0.005964 0.000000 0.000000 0.000000
# 2 -0.001418 0.013368 -0.003584 0.000000 0.000000 0.000000
# 3 -0.005964 -0.003584 0.017367 0.000000 0.000000 0.000000
# 4 0.000000 0.000000 0.000000 0.130425 0.000000 0.000000
# 5 0.000000 0.000000 0.000000 0.000000 0.050061 0.000000
# 6 0.000000 0.000000 0.000000 0.000000 0.000000 0.025316
#
#
# Mechanical properties :
#
#
# Convention : Reuss Voigt Hill
#
# Bulk Modulus (GPa) = 37.34535 37.62659 37.48597
# Shear Modulus (GPa) = 17.52117 23.91981 20.72049
#
# Velocity S-wave (km/s) = 3.28463 3.83782 3.57195
# Velocity P-wave (km/s) = 6.11398 6.54273 6.33199
#
# Compressibility (1/GPa) = 0.02677710
#
# Stress axis : x y z
#
# Youngs Moduli (GPa) = 55.63460 74.80652 57.58054
#
# Poissons Ratio (x) = 0.10607 0.34339
# Poissons Ratio (y) = 0.07889 0.20640
# Poissons Ratio (z) = 0.33179 0.26814
#
# Static dielectric constant tensor:
#      x y z
#    x 3.000020 0.000000 0.000000 
#    y 0.000000 3.113320 0.000000 
#    z 0.000000 0.000000 2.865740 
# 
# 
# High freq. dielectric constant tensor:
#      x y z
#    x 1.633000 0.000000 0.000000 
#    y 0.000000 1.631160 0.000000 
#    z 0.000000 0.000000 1.588090 
# 
# From -- ./inp_files/15881.got.cif
#   From: 2010.03.12/outbox.cif.g09.slc.cpg/sg55_8_cif.got.tgz:15881.got - 2010.04.16 15:19:21.
