data_PCOD8225810
_publ_section_title
;
Structure prediction by ZEFSAII (Michael W. Deem and Ramdas Pophale) SiO2 
 PCOD8225810
Probable space group: P B A M
;
_chemical_formula_sum "Si O2"
_cell_formula_units_Z 56
_cell_length_a 13.049140
_cell_length_b 13.434187
_cell_length_c 18.387038
_cell_angle_alpha 90.000000
_cell_angle_beta 90.000000
_cell_angle_gamma 90.000000
_cell_volume 3223.332102
_symmetry_space_group_name_H-M "P B A M"
_symmetry_group_IT_number 55
_symmetry_cell_setting 'orthorhombic'
loop_
_space_group_symop_operation_xyz
x,y,z
-x,-y,z
1/2+x,1/2-y,-z
1/2-x,1/2+y,-z
-x,-y,-z
x,y,-z
1/2-x,1/2+y,z
1/2+x,1/2-y,z
loop_
_atom_site_type_symbol
_atom_site_label
_atom_site_fract_x
_atom_site_fract_y
_atom_site_fract_z
Si Si1 0.215832 0.368858 0.810995
Si Si2 0.392374 0.218149 0.192914
Si Si3 0.745656 0.431960 0.269013
Si Si4 0.339874 0.038093 0.581717
Si Si5 0.919444 0.770742 0.719771
Si Si6 0.963305 0.611838 0.917989
Si Si7 0.463531 0.837125 0.580549
O O1 0.305179 0.293295 0.833891
O O2 0.265391 0.468945 0.778817
O O3 0.141480 0.324826 0.749513
O O4 0.149508 0.386169 0.883155
O O5 0.344109 0.127356 0.238718
O O6 0.469013 0.278826 0.244699
O O7 0.453730 0.179264 0.123192
O O8 0.755606 0.452555 0.355235
O O9 0.640682 0.371043 0.260719
O O10 0.291717 0.044115 0.500000
O O11 0.419620 0.128445 0.591954
O O12 0.393150 0.932591 0.592876
O O13 0.933007 0.752648 0.633882
O O14 0.000000 0.500000 0.916256
O O15 0.954865 0.652620 0.000000
O O16 0.447934 0.793592 0.500000
#
# Coordination Sequence:
#
# PCOD8225810 Si02
#       7
#     8   8   8   8   8   8   8
#     4  10  21  35  55  81 108 141 176 221 266 316
#     4  10  21  36  54  82 109 138 180 220 266 320
#     4  11  19  32  54  76 106 145 182 228 272 319
#     4   9  17  28  48  74 102 138 180 230 283 323
#     4  10  20  31  52  78 100 143 187 222 270 324
#     4  10  20  36  61  88 111 140 175 212 257 315
#     4   9  16  28  47  72 101 135 179 232 282 325
#
# _framework density 17.373325999999999
#
# number of rings (size 3 to 8) (size 9 to 14) (size 15 to 20)
#    0.000    2.143    4.286    0.857    0.000    1.714 
#    0.000    0.000    0.000    0.857    0.000    6.000 
#    0.000    0.000    0.000    0.000    0.000    0.000 
#
# Total GULP energy -694327.340177 kJ/mol
# GULP energy per Si atom -12398.702503 kJ/mol
# Density = 1.733378 g / cm^3
# Si number density = 17.373326 Si / 1000 Ang^3
#
#
#
# Elastic Constant Matrix: (Units=GPa)
#
#
# Indices 1 2 3 4 5 6 
#
# 1 62.5369 27.8416 37.8661 0.0000 0.0000 0.0000
# 2 27.8416 63.6437 39.4339 0.0000 0.0000 0.0000
# 3 37.8661 39.4339 133.1777 0.0000 0.0000 0.0000
# 4 0.0000 0.0000 0.0000 18.3369 0.0000 0.0000
# 5 0.0000 0.0000 0.0000 0.0000 62.7237 0.0000
# 6 0.0000 0.0000 0.0000 0.0000 0.0000 24.8133
#
#
#
# Elastic Compliance Matrix: (Units=1/GPa)
#
#
# Indices 1 2 3 4 5 6 
#
# 1 0.021529 -0.006889 -0.004081 0.000000 0.000000 0.000000
# 2 -0.006889 0.021447 -0.004392 0.000000 0.000000 0.000000
# 3 -0.004081 -0.004392 0.009970 0.000000 0.000000 0.000000
# 4 0.000000 0.000000 0.000000 0.054535 0.000000 0.000000
# 5 0.000000 0.000000 0.000000 0.000000 0.015943 0.000000
# 6 0.000000 0.000000 0.000000 0.000000 0.000000 0.040301
#
#
# Mechanical properties :
#
#
# Convention : Reuss Voigt Hill
#
# Bulk Modulus (GPa) = 45.00203 52.18238 48.59220
# Shear Modulus (GPa) = 24.77008 31.45590 28.11299
#
# Velocity S-wave (km/s) = 3.78001 4.25971 4.02701
# Velocity P-wave (km/s) = 6.70899 7.36849 7.04646
#
# Compressibility (1/GPa) = 0.02222122
#
# Stress axis : x y z
#
# Youngs Moduli (GPa) = 46.44912 46.62567 100.30479
#
# Poissons Ratio (x) = 0.32121 0.40938
# Poissons Ratio (y) = 0.32000 0.44052
# Poissons Ratio (z) = 0.18958 0.20477
#
# Static dielectric constant tensor:
#      x y z
#    x 3.085210 0.000000 0.000000 
#    y 0.000000 3.019430 0.000000 
#    z 0.000000 0.000000 3.346050 
# 
# 
# High freq. dielectric constant tensor:
#      x y z
#    x 1.657670 0.000000 0.000000 
#    y 0.000000 1.654560 0.000000 
#    z 0.000000 0.000000 1.673760 
# 
# From -- ./inp_files/21674.got.cif
#   From: 2010.03.12/outbox.cif.g09.slc.cpg/sg55_11_cif.got.tgz:21674.got - 2010.04.16 15:19:21.
