data_PCOD8225207
_publ_section_title
;
Structure prediction by ZEFSAII (Michael W. Deem and Ramdas Pophale) SiO2 
 PCOD8225207
Probable space group: P B A M
;
_chemical_formula_sum "Si O2"
_cell_formula_units_Z 48
_cell_length_a 12.231955
_cell_length_b 24.741031
_cell_length_c 9.086035
_cell_angle_alpha 90.000000
_cell_angle_beta 90.000000
_cell_angle_gamma 90.000000
_cell_volume 2749.717474
_symmetry_space_group_name_H-M "P B A M"
_symmetry_group_IT_number 55
_symmetry_cell_setting 'orthorhombic'
loop_
_space_group_symop_operation_xyz
x,y,z
-x,-y,z
1/2+x,1/2-y,-z
1/2-x,1/2+y,-z
-x,-y,-z
x,y,-z
1/2-x,1/2+y,z
1/2+x,1/2-y,z
loop_
_atom_site_type_symbol
_atom_site_label
_atom_site_fract_x
_atom_site_fract_y
_atom_site_fract_z
Si Si1 0.769746 0.171073 0.172302
Si Si2 0.086489 0.927044 0.826029
Si Si3 0.637190 0.771780 0.333611
Si Si4 0.162502 0.609705 0.666360
Si Si5 0.652020 0.455657 0.825893
Si Si6 0.480574 0.839858 0.827914
O O1 0.849699 0.124825 0.237275
O O2 0.791459 0.226519 0.255584
O O3 0.646749 0.152325 0.204592
O O4 0.789277 0.180840 0.000000
O O5 0.959377 0.924642 0.779297
O O6 0.142665 0.982423 0.770952
O O7 0.095113 0.927276 0.000000
O O8 0.609031 0.754029 0.500000
O O9 0.706662 0.828064 0.332431
O O10 0.523666 0.783463 0.245213
O O11 0.143024 0.589476 0.500000
O O12 0.246846 0.570629 0.744479
O O13 0.046175 0.609662 0.754037
O O14 0.670766 0.451832 0.000000
O O15 0.506341 0.838095 0.000000
#
# Coordination Sequence:
#
# PCOD8225207 Si02
#       6
#     8   8   8   8   8   8
#     4  10  19  33  54  78 105 132 170 217 257 307
#     4   8  17  32  51  80 105 131 169 216 264 303
#     4   9  20  34  49  72 103 137 168 204 255 310
#     4   9  19  34  51  73 102 135 170 211 255 302
#     4   9  16  32  57  76 102 136 172 213 258 313
#     4   9  18  33  52  74  99 131 171 210 252 302
#
# _framework density 17.456339
#
# number of rings (size 3 to 8) (size 9 to 14) (size 15 to 20)
#    1.000    2.000    0.000    2.000    0.000    2.667 
#    0.000    9.167    0.000    5.000    0.000    0.000 
#    0.000    0.000    0.000    0.000    0.000    0.000 
#
# Total GULP energy -594743.217462 kJ/mol
# GULP energy per Si atom -12390.483697 kJ/mol
# Density = 1.741661 g / cm^3
# Si number density = 17.456339 Si / 1000 Ang^3
#
#
#
# Elastic Constant Matrix: (Units=GPa)
#
#
# Indices 1 2 3 4 5 6 
#
# 1 48.5845 -2.3903 24.8809 0.0000 0.0000 0.0000
# 2 -2.3903 27.6796 9.0679 0.0000 0.0000 0.0000
# 3 24.8809 9.0679 73.0186 0.0000 0.0000 0.0000
# 4 0.0000 0.0000 0.0000 18.9265 0.0000 0.0000
# 5 0.0000 0.0000 0.0000 0.0000 6.3811 0.0000
# 6 0.0000 0.0000 0.0000 0.0000 0.0000 32.9090
#
#
#
# Elastic Compliance Matrix: (Units=1/GPa)
#
#
# Indices 1 2 3 4 5 6 
#
# 1 0.025657 0.005295 -0.009400 0.000000 0.000000 0.000000
# 2 0.005295 0.038753 -0.006617 0.000000 0.000000 0.000000
# 3 -0.009400 -0.006617 0.017720 0.000000 0.000000 0.000000
# 4 0.000000 0.000000 0.000000 0.052836 0.000000 0.000000
# 5 0.000000 0.000000 0.000000 0.000000 0.156713 0.000000
# 6 0.000000 0.000000 0.000000 0.000000 0.000000 0.030387
#
#
# Mechanical properties :
#
#
# Convention : Reuss Voigt Hill
#
# Bulk Modulus (GPa) = 16.47822 23.59994 20.03908
# Shear Modulus (GPa) = 13.74617 19.49160 16.61889
#
# Velocity S-wave (km/s) = 2.80922 3.34517 3.08884
# Velocity P-wave (km/s) = 4.47017 5.33563 4.92196
#
# Compressibility (1/GPa) = 0.06068616
#
# Stress axis : x y z
#
# Youngs Moduli (GPa) = 38.97535 25.80464 56.43350
#
# Poissons Ratio (x) = -0.13664 0.53049
# Poissons Ratio (y) = -0.20638 0.37341
# Poissons Ratio (z) = 0.36638 0.17075
#
# Static dielectric constant tensor:
#      x y z
#    x 3.158400 0.000000 0.000000 
#    y 0.000000 3.243810 0.000000 
#    z 0.000000 0.000000 3.125430 
# 
# 
# High freq. dielectric constant tensor:
#      x y z
#    x 1.664840 0.000000 0.000000 
#    y 0.000000 1.659390 0.000000 
#    z 0.000000 0.000000 1.666190 
# 
# From -- ./inp_files/4173.got.cif
#   From: 2010.03.12/outbox.cif.g09.slc.cpg/sg55_3_cif.got.tgz:4173.got - 2010.04.16 15:19:21.
