data_PCOD8225813
_publ_section_title
;
Structure prediction by ZEFSAII (Michael W. Deem and Ramdas Pophale) SiO2 
 PCOD8225813
Probable space group: P B A M
;
_chemical_formula_sum "Si O2"
_cell_formula_units_Z 64
_cell_length_a 20.442154
_cell_length_b 20.294701
_cell_length_c 8.801519
_cell_angle_alpha 90.000000
_cell_angle_beta 90.000000
_cell_angle_gamma 90.000000
_cell_volume 3651.463332
_symmetry_space_group_name_H-M "P B A M"
_symmetry_group_IT_number 55
_symmetry_cell_setting 'orthorhombic'
loop_
_space_group_symop_operation_xyz
x,y,z
-x,-y,z
1/2+x,1/2-y,-z
1/2-x,1/2+y,-z
-x,-y,-z
x,y,-z
1/2-x,1/2+y,z
1/2+x,1/2-y,z
loop_
_atom_site_type_symbol
_atom_site_label
_atom_site_fract_x
_atom_site_fract_y
_atom_site_fract_z
Si Si1 0.203047 0.100727 0.329624
Si Si2 0.516712 0.306841 0.177195
Si Si3 0.552768 0.437787 0.329300
Si Si4 0.262562 0.476296 0.166724
Si Si5 0.906743 0.059715 0.168366
Si Si6 0.340176 0.729414 0.819428
Si Si7 0.746913 0.163507 0.319384
Si Si8 0.611399 0.691797 0.325387
O O1 0.228316 0.115598 0.500000
O O2 0.128913 0.077114 0.334366
O O3 0.204849 0.168092 0.232726
O O4 0.251153 0.044433 0.259072
O O5 0.513875 0.384226 0.225429
O O6 0.584548 0.276748 0.241337
O O7 0.449593 0.271846 0.238847
O O8 0.517371 0.298327 0.000000
O O9 0.524087 0.436288 0.500000
O O10 0.543402 0.509599 0.250651
O O11 0.339487 0.477653 0.139250
O O12 0.240607 0.410468 0.254744
O O13 0.227922 0.478388 0.000000
O O14 0.895152 0.115081 0.293277
O O15 0.931598 0.084404 0.000000
O O16 0.313933 0.796378 0.746417
O O17 0.337474 0.733507 0.000000
O O18 0.743626 0.158201 0.500000
O O19 0.813353 0.204326 0.271036
O O20 0.602711 0.709793 0.500000
#
# Coordination Sequence:
#
# PCOD8225813 Si02
#       8
#     8   8   8   8   8   8   8   8
#     4   9  16  27  44  65  90 120 153 190 230 271
#     4  10  20  32  45  62  85 114 149 187 226 268
#     4   9  16  26  40  58  82 113 149 186 221 257
#     4   9  16  27  44  65  90 120 153 190 230 271
#     4   9  16  26  40  58  82 113 149 186 221 257
#     4  10  20  33  49  69  93 122 156 193 233 277
#     4  10  20  33  49  69  93 122 156 193 233 277
#     4  10  20  32  45  62  85 114 149 187 226 268
#
# _framework density 17.52722
#
# number of rings (size 3 to 8) (size 9 to 14) (size 15 to 20)
#    0.000    2.500    0.000    3.000    0.000    9.500 
#    0.000    2.500    0.000    0.000    0.000    0.000 
#    0.000    1.000    0.000   10.500    0.000    6.250 
#
# Total GULP energy -792854.062334 kJ/mol
# GULP energy per Si atom -12388.344724 kJ/mol
# Density = 1.748733 g / cm^3
# Si number density = 17.527220 Si / 1000 Ang^3
#
#
#
# Elastic Constant Matrix: (Units=GPa)
#
#
# Indices 1 2 3 4 5 6 
#
# 1 27.0236 -10.8819 3.9119 0.0000 0.0000 0.0000
# 2 -10.8819 17.1082 2.3202 0.0000 0.0000 0.0000
# 3 3.9119 2.3202 62.8251 0.0000 0.0000 0.0000
# 4 0.0000 0.0000 0.0000 23.9181 0.0000 0.0000
# 5 0.0000 0.0000 0.0000 0.0000 21.2952 0.0000
# 6 0.0000 0.0000 0.0000 0.0000 0.0000 23.1162
#
#
#
# Elastic Compliance Matrix: (Units=1/GPa)
#
#
# Indices 1 2 3 4 5 6 
#
# 1 0.050923 0.032985 -0.004389 0.000000 0.000000 0.000000
# 2 0.032985 0.080112 -0.005013 0.000000 0.000000 0.000000
# 3 -0.004389 -0.005013 0.016376 0.000000 0.000000 0.000000
# 4 0.000000 0.000000 0.000000 0.041809 0.000000 0.000000
# 5 0.000000 0.000000 0.000000 0.000000 0.046959 0.000000
# 6 0.000000 0.000000 0.000000 0.000000 0.000000 0.043260
#
#
# Mechanical properties :
#
#
# Convention : Reuss Voigt Hill
#
# Bulk Modulus (GPa) = 5.13934 10.85083 7.99509
# Shear Modulus (GPa) = 16.82764 21.10634 18.96699
#
# Velocity S-wave (km/s) = 3.10189 3.47393 3.29317
# Velocity P-wave (km/s) = 3.97083 4.72178 4.36249
#
# Compressibility (1/GPa) = 0.19457758
#
# Stress axis : x y z
#
# Youngs Moduli (GPa) = 19.63768 12.48250 61.06642
#
# Poissons Ratio (x) = -0.41174 0.26802
# Poissons Ratio (y) = -0.64775 0.30610
# Poissons Ratio (z) = 0.08619 0.06257
#
# Static dielectric constant tensor:
#      x y z
#    x 3.362140 0.000000 0.000000 
#    y 0.000000 2.978830 0.000000 
#    z 0.000000 0.000000 3.498000 
# 
# 
# High freq. dielectric constant tensor:
#      x y z
#    x 1.654010 0.000000 0.000000 
#    y 0.000000 1.635380 0.000000 
#    z 0.000000 0.000000 1.696500 
# 
# From -- ./inp_files/9885.got.cif
#   From: 2010.03.12/outbox.cif.g09.slc.cpg/sg55_5_cif.got.tgz:9885.got - 2010.04.16 15:19:21.
