data_PCOD8225470
_publ_section_title
;
Structure prediction by ZEFSAII (Michael W. Deem and Ramdas Pophale) SiO2 
 PCOD8225470
Probable space group: P B A M
;
_chemical_formula_sum "Si O2"
_cell_formula_units_Z 56
_cell_length_a 19.139634
_cell_length_b 17.512213
_cell_length_c 8.986142
_cell_angle_alpha 90.000000
_cell_angle_beta 90.000000
_cell_angle_gamma 90.000000
_cell_volume 3011.951238
_symmetry_space_group_name_H-M "P B A M"
_symmetry_group_IT_number 55
_symmetry_cell_setting 'orthorhombic'
loop_
_space_group_symop_operation_xyz
x,y,z
-x,-y,z
1/2+x,1/2-y,-z
1/2-x,1/2+y,-z
-x,-y,-z
x,y,-z
1/2-x,1/2+y,z
1/2+x,1/2-y,z
loop_
_atom_site_type_symbol
_atom_site_label
_atom_site_fract_x
_atom_site_fract_y
_atom_site_fract_z
Si Si1 0.831249 0.472411 0.325636
Si Si2 0.383360 0.718737 0.172118
Si Si3 0.897386 0.630247 0.674562
Si Si4 0.427876 0.461231 0.676278
Si Si5 0.687700 0.436268 0.825450
Si Si6 0.458334 0.307128 0.175162
Si Si7 0.554832 0.845384 0.326912
O O1 0.811511 0.472433 0.500000
O O2 0.857905 0.554747 0.270415
O O3 0.765854 0.450846 0.225829
O O4 0.891828 0.412415 0.290755
O O5 0.360078 0.795221 0.257252
O O6 0.329429 0.651809 0.211293
O O7 0.460368 0.691863 0.222317
O O8 0.383630 0.739472 0.000000
O O9 0.891233 0.636967 0.500000
O O10 0.978316 0.625902 0.724012
O O11 0.500000 0.500000 0.729508
O O12 0.423867 0.455033 0.500000
O O13 0.363506 0.510018 0.734114
O O14 0.420604 0.377476 0.745556
O O15 0.678637 0.453134 0.000000
O O16 0.423086 0.229103 0.233137
O O17 0.447337 0.314560 0.000000
O O18 0.555060 0.823273 0.500000
#
# Coordination Sequence:
#
# PCOD8225470 Si02
#       7
#     8   8   8   8   8   8   8
#     4  10  21  38  57  83 116 150 190 236 284 337
#     4   9  19  35  55  80 110 144 183 227 277 333
#     4   9  18  34  60  87 110 143 189 235 281 333
#     4  11  22  36  59  86 111 143 187 235 281 334
#     4  11  23  39  57  79 113 155 192 230 282 340
#     4  10  19  34  57  85 115 144 182 230 280 333
#     4   9  18  35  59  85 114 148 187 235 286 334
#
# _framework density 18.592597000000001
#
# number of rings (size 3 to 8) (size 9 to 14) (size 15 to 20)
#    0.000    2.143    1.429    1.714    0.000    5.143 
#    2.571    0.000    0.000    4.286    0.000    0.000 
#    0.000    0.000    0.000    0.000    0.000    0.000 
#
# Total GULP energy -694590.814111 kJ/mol
# GULP energy per Si atom -12403.407395 kJ/mol
# Density = 1.855028 g / cm^3
# Si number density = 18.592597 Si / 1000 Ang^3
#
#
#
# Elastic Constant Matrix: (Units=GPa)
#
#
# Indices 1 2 3 4 5 6 
#
# 1 78.1107 56.4547 29.4444 0.0000 0.0000 0.0000
# 2 56.4547 152.5588 52.1662 0.0000 0.0000 0.0000
# 3 29.4444 52.1662 55.5345 0.0000 0.0000 0.0000
# 4 0.0000 0.0000 0.0000 23.3598 0.0000 0.0000
# 5 0.0000 0.0000 0.0000 0.0000 29.0731 0.0000
# 6 0.0000 0.0000 0.0000 0.0000 0.0000 20.9946
#
#
#
# Elastic Compliance Matrix: (Units=1/GPa)
#
#
# Indices 1 2 3 4 5 6 
#
# 1 0.018351 -0.005103 -0.004936 0.000000 0.000000 0.000000
# 2 -0.005103 0.011076 -0.007698 0.000000 0.000000 0.000000
# 3 -0.004936 -0.007698 0.027855 0.000000 0.000000 0.000000
# 4 0.000000 0.000000 0.000000 0.042809 0.000000 0.000000
# 5 0.000000 0.000000 0.000000 0.000000 0.034396 0.000000
# 6 0.000000 0.000000 0.000000 0.000000 0.000000 0.047631
#
#
# Mechanical properties :
#
#
# Convention : Reuss Voigt Hill
#
# Bulk Modulus (GPa) = 45.85659 62.48163 54.16911
# Shear Modulus (GPa) = 22.23580 24.56141 23.39861
#
# Velocity S-wave (km/s) = 3.46200 3.63854 3.55137
# Velocity P-wave (km/s) = 6.37950 7.16454 6.78339
#
# Compressibility (1/GPa) = 0.02180712
#
# Stress axis : x y z
#
# Youngs Moduli (GPa) = 54.49178 90.28885 35.89965
#
# Poissons Ratio (x) = 0.46074 0.17722
# Poissons Ratio (y) = 0.27807 0.27636
# Poissons Ratio (z) = 0.26899 0.69506
#
# Static dielectric constant tensor:
#      x y z
#    x 3.319920 0.000000 0.000000 
#    y 0.000000 3.610530 0.000000 
#    z 0.000000 0.000000 3.379170 
# 
# 
# High freq. dielectric constant tensor:
#      x y z
#    x 1.703030 0.000000 0.000000 
#    y 0.000000 1.736390 0.000000 
#    z 0.000000 0.000000 1.721160 
# 
# From -- ./inp_files/6167.got.cif
#   From: 2010.03.12/outbox.cif.g09.slc.cpg/sg55_4_cif.got.tgz:6167.got - 2010.04.16 15:19:21.
