data_PCOD8225842
_publ_section_title
;
Structure prediction by ZEFSAII (Michael W. Deem and Ramdas Pophale) SiO2 
 PCOD8225842
Probable space group: P B A M
;
_chemical_formula_sum "Si O2"
_cell_formula_units_Z 64
_cell_length_a 17.917950
_cell_length_b 8.914535
_cell_length_c 19.089641
_cell_angle_alpha 90.000000
_cell_angle_beta 90.000000
_cell_angle_gamma 90.000000
_cell_volume 3049.192030
_symmetry_space_group_name_H-M "P B A M"
_symmetry_group_IT_number 55
_symmetry_cell_setting 'orthorhombic'
loop_
_space_group_symop_operation_xyz
x,y,z
-x,-y,z
1/2+x,1/2-y,-z
1/2-x,1/2+y,-z
-x,-y,-z
x,y,-z
1/2-x,1/2+y,z
1/2+x,1/2-y,z
loop_
_atom_site_type_symbol
_atom_site_label
_atom_site_fract_x
_atom_site_fract_y
_atom_site_fract_z
Si Si1 0.750089 0.027892 0.358037
Si Si2 0.927957 0.197258 0.828790
Si Si3 0.956197 0.655591 0.920316
Si Si4 0.817849 0.957534 0.789714
Si Si5 0.127864 0.319749 0.715543
Si Si6 0.518991 0.675316 0.673546
Si Si7 0.154792 0.742008 0.579752
Si Si8 0.154793 0.509777 0.836632
O O1 0.690521 0.158889 0.342978
O O2 0.803901 0.095864 0.417856
O O3 0.803342 0.013598 0.289799
O O4 0.706696 0.878599 0.380495
O O5 0.947064 0.213947 0.748037
O O6 0.872251 0.324689 0.856245
O O7 0.003252 0.211343 0.875711
O O8 0.884201 0.039618 0.832703
O O9 0.873211 0.616323 0.892159
O O10 0.000000 0.500000 0.911308
O O11 0.951684 0.711171 0.000000
O O12 0.844586 0.788048 0.779048
O O13 0.744131 0.981011 0.835865
O O14 0.118821 0.474419 0.759489
O O15 0.057622 0.267753 0.670674
O O16 0.500000 0.500000 0.663302
O O17 0.573253 0.740781 0.614174
O O18 0.142998 0.691687 0.500000
#
# Coordination Sequence:
#
# PCOD8225842 Si02
#       8
#     8   8   8   8   8   8   8   8
#     4  11  22  42  64  92 121 164 217 268 327 393
#     4  11  20  36  60  92 122 158 215 266 315 379
#     4   9  19  36  58  88 128 171 211 255 318 391
#     4  11  20  36  59  92 122 155 203 269 323 370
#     4  11  21  35  63  90 121 154 201 268 325 379
#     4  12  23  40  62  94 126 163 210 275 332 395
#     4  12  26  44  65  90 128 172 214 267 334 408
#     4  10  20  32  59  91 119 156 206 262 314 369
#
# _framework density 20.989166000000001
#
# number of rings (size 3 to 8) (size 9 to 14) (size 15 to 20)
#    0.000    1.125    5.000    3.375    0.000    1.750 
#    0.000    2.500    0.000    5.625    0.000    0.000 
#    0.000    0.000    0.000    0.000    0.000    0.000 
#
# Total GULP energy -793061.226501 kJ/mol
# GULP energy per Si atom -12391.581664 kJ/mol
# Density = 2.094139 g / cm^3
# Si number density = 20.989166 Si / 1000 Ang^3
#
#
#
# Elastic Constant Matrix: (Units=GPa)
#
#
# Indices 1 2 3 4 5 6 
#
# 1 88.3638 32.1334 36.6611 0.0000 0.0000 0.0000
# 2 32.1334 67.5487 17.3767 0.0000 0.0000 0.0000
# 3 36.6611 17.3767 86.8252 0.0000 0.0000 0.0000
# 4 0.0000 0.0000 0.0000 19.3136 0.0000 0.0000
# 5 0.0000 0.0000 0.0000 0.0000 26.5478 0.0000
# 6 0.0000 0.0000 0.0000 0.0000 0.0000 39.1438
#
#
#
# Elastic Compliance Matrix: (Units=1/GPa)
#
#
# Indices 1 2 3 4 5 6 
#
# 1 0.015801 -0.006115 -0.005448 0.000000 0.000000 0.000000
# 2 -0.006115 0.017974 -0.001015 0.000000 0.000000 0.000000
# 3 -0.005448 -0.001015 0.014021 0.000000 0.000000 0.000000
# 4 0.000000 0.000000 0.000000 0.051777 0.000000 0.000000
# 5 0.000000 0.000000 0.000000 0.000000 0.037668 0.000000
# 6 0.000000 0.000000 0.000000 0.000000 0.000000 0.025547
#
#
# Mechanical properties :
#
#
# Convention : Reuss Voigt Hill
#
# Bulk Modulus (GPa) = 44.17049 46.12001 45.14525
# Shear Modulus (GPa) = 25.57663 27.43880 26.50772
#
# Velocity S-wave (km/s) = 3.49458 3.61956 3.55762
# Velocity P-wave (km/s) = 6.11334 6.28405 6.19928
#
# Compressibility (1/GPa) = 0.02263955
#
# Stress axis : x y z
#
# Youngs Moduli (GPa) = 63.28749 55.63498 71.32200
#
# Poissons Ratio (x) = 0.34022 0.38856
# Poissons Ratio (y) = 0.38701 0.07241
# Poissons Ratio (z) = 0.34479 0.05648
#
# Static dielectric constant tensor:
#      x y z
#    x 4.222510 0.000000 0.000000 
#    y 0.000000 3.824450 0.000000 
#    z 0.000000 0.000000 3.444810 
# 
# 
# High freq. dielectric constant tensor:
#      x y z
#    x 1.833560 0.000000 0.000000 
#    y 0.000000 1.825750 0.000000 
#    z 0.000000 0.000000 1.780750 
# 
# From -- ./inp_files/23075.got.cif
#   From: 2010.03.12/outbox.cif.g09.slc.cpg/sg55_12_cif.got.tgz:23075.got - 2010.04.16 15:19:21.
