data_PCOD8225432
_publ_section_title
;
Structure prediction by ZEFSAII (Michael W. Deem and Ramdas Pophale) SiO2 
 PCOD8225432
Probable space group: P B A M
;
_chemical_formula_sum "Si O2"
_cell_formula_units_Z 64
_cell_length_a 15.297869
_cell_length_b 24.758049
_cell_length_c 8.469573
_cell_angle_alpha 90.000000
_cell_angle_beta 90.000000
_cell_angle_gamma 90.000000
_cell_volume 3207.811732
_symmetry_space_group_name_H-M "P B A M"
_symmetry_group_IT_number 55
_symmetry_cell_setting 'orthorhombic'
loop_
_space_group_symop_operation_xyz
x,y,z
-x,-y,z
1/2+x,1/2-y,-z
1/2-x,1/2+y,-z
-x,-y,-z
x,y,-z
1/2-x,1/2+y,z
1/2+x,1/2-y,z
loop_
_atom_site_type_symbol
_atom_site_label
_atom_site_fract_x
_atom_site_fract_y
_atom_site_fract_z
Si Si1 0.036867 0.715842 0.183624
Si Si2 0.508068 0.895041 0.683039
Si Si3 0.823340 0.558842 0.682834
Si Si4 0.178681 0.145755 0.814006
Si Si5 0.780552 0.260473 0.683147
Si Si6 0.200109 0.852745 0.185175
Si Si7 0.990685 0.165669 0.814416
Si Si8 0.182168 0.557340 0.816182
O O1 0.140734 0.716381 0.211263
O O2 0.998657 0.772642 0.246761
O O3 0.992091 0.668187 0.283848
O O4 0.017628 0.705318 0.000000
O O5 0.529323 0.905257 0.500000
O O6 0.421791 0.927237 0.736246
O O7 0.588357 0.915966 0.786978
O O8 0.810505 0.572110 0.500000
O O9 0.753807 0.593640 0.779401
O O10 0.805664 0.496429 0.715373
O O11 0.199294 0.200971 0.721847
O O12 0.241024 0.097302 0.758247
O O13 0.077416 0.131683 0.768364
O O14 0.188483 0.156041 0.000000
O O15 0.805539 0.263824 0.500000
O O16 0.756837 0.198930 0.728915
O O17 0.099804 0.860552 0.249195
O O18 0.201527 0.841147 0.000000
O O19 0.980916 0.169404 0.000000
O O20 0.191674 0.543572 0.000000
#
# Coordination Sequence:
#
# PCOD8225432 Si02
#       8
#     8   8   8   8   8   8   8   8
#     4  10  19  34  56  85 117 155 195 235 285 350
#     4  11  23  38  57  84 120 158 193 243 302 356
#     4  11  25  42  60  84 118 158 200 248 306 360
#     4  10  20  37  60  88 118 153 198 247 295 351
#     4  11  21  34  55  85 121 158 191 236 297 352
#     4  10  21  40  63  86 115 154 201 249 297 350
#     4   8  18  36  59  86 117 151 192 244 296 342
#     4  11  23  39  62  88 117 155 203 248 294 357
#
# _framework density 19.951294999999998
#
# number of rings (size 3 to 8) (size 9 to 14) (size 15 to 20)
#    0.000    1.750    1.250    4.125    1.750    4.000 
#    0.000    3.750    0.000    3.750    0.000    0.000 
#    0.000    0.000    0.000    0.000    0.000    0.000 
#
# Total GULP energy -793649.963308 kJ/mol
# GULP energy per Si atom -12400.780677 kJ/mol
# Density = 1.990589 g / cm^3
# Si number density = 19.951295 Si / 1000 Ang^3
#
#
#
# Elastic Constant Matrix: (Units=GPa)
#
#
# Indices 1 2 3 4 5 6 
#
# 1 110.7609 59.7505 23.8776 0.0000 0.0000 0.0000
# 2 59.7505 103.1164 14.5944 0.0000 0.0000 0.0000
# 3 23.8776 14.5944 43.6238 0.0000 0.0000 0.0000
# 4 0.0000 0.0000 0.0000 28.1229 0.0000 0.0000
# 5 0.0000 0.0000 0.0000 0.0000 18.3256 0.0000
# 6 0.0000 0.0000 0.0000 0.0000 0.0000 25.8424
#
#
#
# Elastic Compliance Matrix: (Units=1/GPa)
#
#
# Indices 1 2 3 4 5 6 
#
# 1 0.014201 -0.007483 -0.005270 0.000000 0.000000 0.000000
# 2 -0.007483 0.014123 -0.000629 0.000000 0.000000 0.000000
# 3 -0.005270 -0.000629 0.026018 0.000000 0.000000 0.000000
# 4 0.000000 0.000000 0.000000 0.035558 0.000000 0.000000
# 5 0.000000 0.000000 0.000000 0.000000 0.054568 0.000000
# 6 0.000000 0.000000 0.000000 0.000000 0.000000 0.038696
#
#
# Mechanical properties :
#
#
# Convention : Reuss Voigt Hill
#
# Bulk Modulus (GPa) = 36.25967 50.43844 43.34906
# Shear Modulus (GPa) = 22.81846 25.07677 23.94761
#
# Velocity S-wave (km/s) = 3.38554 3.54912 3.46830
# Velocity P-wave (km/s) = 5.78758 6.49082 6.14926
#
# Compressibility (1/GPa) = 0.02757885
#
# Stress axis : x y z
#
# Youngs Moduli (GPa) = 70.41648 70.80745 38.43494
#
# Poissons Ratio (x) = 0.52985 0.20254
# Poissons Ratio (y) = 0.52693 0.02417
# Poissons Ratio (z) = 0.37107 0.04453
#
# Static dielectric constant tensor:
#      x y z
#    x 3.761850 0.000000 0.000000 
#    y 0.000000 3.579370 0.000000 
#    z 0.000000 0.000000 3.431430 
# 
# 
# High freq. dielectric constant tensor:
#      x y z
#    x 1.779390 0.000000 0.000000 
#    y 0.000000 1.768440 0.000000 
#    z 0.000000 0.000000 1.769470 
# 
# From -- ./inp_files/6654.got.cif
#   From: 2010.03.12/outbox.cif.g09.slc.cpg/sg55_4_cif.got.tgz:6654.got - 2010.04.16 15:19:21.
