data_PCOD8225886
_publ_section_title
;
Structure prediction by ZEFSAII (Michael W. Deem and Ramdas Pophale) SiO2 
 PCOD8225886
Probable space group: P B A M
;
_chemical_formula_sum "Si O2"
_cell_formula_units_Z 56
_cell_length_a 9.590514
_cell_length_b 20.419757
_cell_length_c 14.260631
_cell_angle_alpha 90.000000
_cell_angle_beta 90.000000
_cell_angle_gamma 90.000000
_cell_volume 2792.744439
_symmetry_space_group_name_H-M "P B A M"
_symmetry_group_IT_number 55
_symmetry_cell_setting 'orthorhombic'
loop_
_space_group_symop_operation_xyz
x,y,z
-x,-y,z
1/2+x,1/2-y,-z
1/2-x,1/2+y,-z
-x,-y,-z
x,y,-z
1/2-x,1/2+y,z
1/2+x,1/2-y,z
loop_
_atom_site_type_symbol
_atom_site_label
_atom_site_fract_x
_atom_site_fract_y
_atom_site_fract_z
Si Si1 0.849744 0.026096 0.893703
Si Si2 0.660442 0.979581 0.607013
Si Si3 0.640825 0.725158 0.232144
Si Si4 0.311166 0.104711 0.898897
Si Si5 0.062087 0.638106 0.714549
Si Si6 0.748129 0.098208 0.280696
Si Si7 0.622400 0.274905 0.107608
O O1 0.782453 0.081146 0.827330
O O2 0.737669 0.968910 0.889190
O O3 0.865246 0.053648 0.000000
O O4 0.000000 0.000000 0.857697
O O5 0.708767 0.973202 0.500000
O O6 0.669256 0.908358 0.656442
O O7 0.500000 0.000000 0.616408
O O8 0.765122 0.032418 0.656185
O O9 0.609554 0.786651 0.301096
O O10 0.646313 0.659738 0.298223
O O11 0.532691 0.722864 0.147008
O O12 0.788829 0.729509 0.178207
O O13 0.429253 0.120893 0.824323
O O14 0.177602 0.151090 0.886608
O O15 0.381680 0.116534 0.000000
O O16 0.902579 0.625905 0.689851
O O17 0.622448 0.249019 0.000000
#
# Coordination Sequence:
#
# PCOD8225886 Si02
#       7
#     8   8   8   8   8   8   8
#     4  10  20  33  51  81 115 155 199 237 287 344
#     4   9  19  38  65  89 110 139 186 242 302 364
#     4  11  21  36  54  83 114 158 199 243 289 341
#     4   9  18  32  50  76 114 155 190 235 282 336
#     4  10  20  37  56  84 116 148 193 238 295 351
#     4  11  21  36  59  86 113 152 196 240 291 351
#     4  10  20  34  52  76 116 161 205 240 279 334
#
# _framework density 20.051960000000001
#
# number of rings (size 3 to 8) (size 9 to 14) (size 15 to 20)
#    0.000    2.000    2.857    1.286    0.000    3.429 
#    0.000    2.143    0.000    0.429    0.000    0.000 
#    0.000    0.000    0.000    0.000    0.000    0.000 
#
# Total GULP energy -693945.681925 kJ/mol
# GULP energy per Si atom -12391.887177 kJ/mol
# Density = 2.000632 g / cm^3
# Si number density = 20.051960 Si / 1000 Ang^3
#
#
#
# Elastic Constant Matrix: (Units=GPa)
#
#
# Indices 1 2 3 4 5 6 
#
# 1 39.4363 6.0073 7.9235 0.0000 0.0000 0.0000
# 2 6.0073 122.2494 42.2929 0.0000 0.0000 0.0000
# 3 7.9235 42.2929 80.3445 0.0000 0.0000 0.0000
# 4 0.0000 0.0000 0.0000 17.8924 0.0000 0.0000
# 5 0.0000 0.0000 0.0000 0.0000 16.6103 0.0000
# 6 0.0000 0.0000 0.0000 0.0000 0.0000 17.7288
#
#
#
# Elastic Compliance Matrix: (Units=1/GPa)
#
#
# Indices 1 2 3 4 5 6 
#
# 1 0.025893 -0.000476 -0.002303 0.000000 0.000000 0.000000
# 2 -0.000476 0.010010 -0.005222 0.000000 0.000000 0.000000
# 3 -0.002303 -0.005222 0.015423 0.000000 0.000000 0.000000
# 4 0.000000 0.000000 0.000000 0.055890 0.000000 0.000000
# 5 0.000000 0.000000 0.000000 0.000000 0.060204 0.000000
# 6 0.000000 0.000000 0.000000 0.000000 0.000000 0.056406
#
#
# Mechanical properties :
#
#
# Convention : Reuss Voigt Hill
#
# Bulk Modulus (GPa) = 28.31015 39.38641 33.84828
# Shear Modulus (GPa) = 19.87277 22.83338 21.35307
#
# Velocity S-wave (km/s) = 3.15153 3.37814 3.26680
# Velocity P-wave (km/s) = 5.23373 5.90767 5.58088
#
# Compressibility (1/GPa) = 0.03532302
#
# Stress axis : x y z
#
# Youngs Moduli (GPa) = 38.62112 99.89940 64.84008
#
# Poissons Ratio (x) = 0.04751 0.14934
# Poissons Ratio (y) = 0.01837 0.33862
# Poissons Ratio (z) = 0.08895 0.52171
#
# Static dielectric constant tensor:
#      x y z
#    x 3.341720 0.000000 0.000000 
#    y 0.000000 4.105990 0.000000 
#    z 0.000000 0.000000 3.465140 
# 
# 
# High freq. dielectric constant tensor:
#      x y z
#    x 1.759640 0.000000 0.000000 
#    y 0.000000 1.799360 0.000000 
#    z 0.000000 0.000000 1.745140 
# 
# From -- ./inp_files/17656.got.cif
#   From: 2010.03.12/outbox.cif.g09.slc.cpg/sg55_9_cif.got.tgz:17656.got - 2010.04.16 15:19:21.
