data_PCOD8225138
_publ_section_title
;
Structure prediction by ZEFSAII (Michael W. Deem and Ramdas Pophale) SiO2 
 PCOD8225138
Probable space group: P B A M
;
_chemical_formula_sum "Si O2"
_cell_formula_units_Z 56
_cell_length_a 21.785073
_cell_length_b 14.524848
_cell_length_c 9.023294
_cell_angle_alpha 90.000000
_cell_angle_beta 90.000000
_cell_angle_gamma 90.000000
_cell_volume 2855.194667
_symmetry_space_group_name_H-M "P B A M"
_symmetry_group_IT_number 55
_symmetry_cell_setting 'orthorhombic'
loop_
_space_group_symop_operation_xyz
x,y,z
-x,-y,z
1/2+x,1/2-y,-z
1/2-x,1/2+y,-z
-x,-y,-z
x,y,-z
1/2-x,1/2+y,z
1/2+x,1/2-y,z
loop_
_atom_site_type_symbol
_atom_site_label
_atom_site_fract_x
_atom_site_fract_y
_atom_site_fract_z
Si Si1 0.369799 0.306732 0.831494
Si Si2 0.025028 0.656618 0.167052
Si Si3 0.658855 0.342675 0.824717
Si Si4 0.715408 0.827637 0.671116
Si Si5 0.069855 0.994027 0.823830
Si Si6 0.891300 0.469600 0.667114
Si Si7 0.598184 0.177750 0.329155
O O1 0.426009 0.237235 0.823903
O O2 0.312726 0.267099 0.737219
O O3 0.394259 0.403480 0.764700
O O4 0.346721 0.319184 0.000000
O O5 0.055061 0.561181 0.221362
O O6 0.971505 0.685574 0.276946
O O7 0.000353 0.643873 0.000000
O O8 0.724603 0.363339 0.754728
O O9 0.608410 0.417179 0.770908
O O10 0.639682 0.242308 0.771130
O O11 0.665019 0.344447 0.000000
O O12 0.730441 0.808777 0.500000
O O13 0.669465 0.911708 0.695450
O O14 0.066063 0.988163 0.000000
O O15 0.000000 0.000000 0.760102
O O16 0.915710 0.454497 0.500000
O O17 0.875669 0.575578 0.696249
O O18 0.602282 0.207981 0.500000
#
# Coordination Sequence:
#
# PCOD8225138 Si02
#       7
#     8   8   8   8   8   8   8
#     4   9  18  35  59  84 111 145 184 224 270 328
#     4  10  19  32  55  86 115 142 177 222 268 319
#     4  11  23  38  57  81 108 140 183 232 278 327
#     4  10  21  39  58  78 108 143 182 226 275 329
#     4   9  18  35  59  85 113 145 182 229 285 336
#     4   9  20  37  56  78 108 147 183 218 266 325
#     4  11  22  36  54  78 111 148 181 217 268 323
#
# _framework density 19.613372999999999
#
# number of rings (size 3 to 8) (size 9 to 14) (size 15 to 20)
#    0.000    2.143    0.000    3.000    0.000    7.429 
#    0.000    4.286    0.000    3.000    0.000    0.000 
#    0.000    0.000    0.000    0.000    0.000    0.000 
#
# Total GULP energy -694490.942571 kJ/mol
# GULP energy per Si atom -12401.623974 kJ/mol
# Density = 1.956873 g / cm^3
# Si number density = 19.613373 Si / 1000 Ang^3
#
#
#
# Elastic Constant Matrix: (Units=GPa)
#
#
# Indices 1 2 3 4 5 6 
#
# 1 66.9474 16.8784 47.8901 0.0000 0.0000 0.0000
# 2 16.8784 87.7275 44.9193 0.0000 0.0000 0.0000
# 3 47.8901 44.9193 82.3977 0.0000 0.0000 0.0000
# 4 0.0000 0.0000 0.0000 24.0173 0.0000 0.0000
# 5 0.0000 0.0000 0.0000 0.0000 31.9271 0.0000
# 6 0.0000 0.0000 0.0000 0.0000 0.0000 20.8537
#
#
#
# Elastic Compliance Matrix: (Units=1/GPa)
#
#
# Indices 1 2 3 4 5 6 
#
# 1 0.026478 0.003864 -0.017496 0.000000 0.000000 0.000000
# 2 0.003864 0.016377 -0.011174 0.000000 0.000000 0.000000
# 3 -0.017496 -0.011174 0.028396 0.000000 0.000000 0.000000
# 4 0.000000 0.000000 0.000000 0.041637 0.000000 0.000000
# 5 0.000000 0.000000 0.000000 0.000000 0.031321 0.000000
# 6 0.000000 0.000000 0.000000 0.000000 0.000000 0.047953
#
#
# Mechanical properties :
#
#
# Convention : Reuss Voigt Hill
#
# Bulk Modulus (GPa) = 46.20954 50.71649 48.46302
# Shear Modulus (GPa) = 20.08132 23.85194 21.96663
#
# Velocity S-wave (km/s) = 3.20325 3.49105 3.35024
# Velocity P-wave (km/s) = 6.10675 6.49340 6.30304
#
# Compressibility (1/GPa) = 0.02164055
#
# Stress axis : x y z
#
# Youngs Moduli (GPa) = 37.76651 61.06193 35.21562
#
# Poissons Ratio (x) = -0.23596 0.61613
# Poissons Ratio (y) = -0.14594 0.39349
# Poissons Ratio (z) = 0.66077 0.68229
#
# Static dielectric constant tensor:
#      x y z
#    x 3.606910 0.000000 0.000000 
#    y 0.000000 3.691420 0.000000 
#    z 0.000000 0.000000 3.646980 
# 
# 
# High freq. dielectric constant tensor:
#      x y z
#    x 1.763500 0.000000 0.000000 
#    y 0.000000 1.770000 0.000000 
#    z 0.000000 0.000000 1.754840 
# 
# From -- ./inp_files/6191.got.cif
#   From: 2010.03.12/outbox.cif.g09.slc.cpg/sg55_4_cif.got.tgz:6191.got - 2010.04.16 15:19:21.
