data_PCOD8225727
_publ_section_title
;
Structure prediction by ZEFSAII (Michael W. Deem and Ramdas Pophale) SiO2 
 PCOD8225727
Probable space group: P B A M
;
_chemical_formula_sum "Si O2"
_cell_formula_units_Z 64
_cell_length_a 30.824746
_cell_length_b 11.994752
_cell_length_c 8.602333
_cell_angle_alpha 90.000000
_cell_angle_beta 90.000000
_cell_angle_gamma 90.000000
_cell_volume 3180.585172
_symmetry_space_group_name_H-M "P B A M"
_symmetry_group_IT_number 55
_symmetry_cell_setting 'orthorhombic'
loop_
_space_group_symop_operation_xyz
x,y,z
-x,-y,z
1/2+x,1/2-y,-z
1/2-x,1/2+y,-z
-x,-y,-z
x,y,-z
1/2-x,1/2+y,z
1/2+x,1/2-y,z
loop_
_atom_site_type_symbol
_atom_site_label
_atom_site_fract_x
_atom_site_fract_y
_atom_site_fract_z
Si Si1 0.801433 0.737727 0.185340
Si Si2 0.624723 0.628635 0.815928
Si Si3 0.833659 0.503087 0.817578
Si Si4 0.375452 0.615019 0.682648
Si Si5 0.295239 0.221899 0.815236
Si Si6 0.050868 0.268234 0.821480
Si Si7 0.045429 0.715441 0.822177
Si Si8 0.925717 0.500894 0.680606
O O1 0.819115 0.621090 0.253987
O O2 0.830399 0.837143 0.251914
O O3 0.752214 0.746296 0.246737
O O4 0.803494 0.743977 0.000000
O O5 0.621538 0.513605 0.725590
O O6 0.668494 0.690365 0.758304
O O7 0.583004 0.701180 0.765431
O O8 0.625077 0.606393 0.000000
O O9 0.805451 0.401350 0.748807
O O10 0.882981 0.478674 0.779720
O O11 0.826747 0.508950 0.000000
O O12 0.376441 0.631569 0.500000
O O13 0.416804 0.677310 0.753461
O O14 0.296472 0.219891 0.000000
O O15 0.052789 0.383779 0.729707
O O16 0.001387 0.223998 0.806482
O O17 0.063987 0.289841 0.000000
O O18 0.043341 0.603576 0.718241
O O19 0.054147 0.679979 0.000000
O O20 0.914481 0.505328 0.500000
#
# Coordination Sequence:
#
# PCOD8225727 Si02
#       8
#     8   8   8   8   8   8   8   8
#     4  10  21  37  64  94 119 157 203 251 298 351
#     4  10  21  41  66  89 117 156 202 251 297 354
#     4  10  19  36  62  90 123 158 201 249 294 348
#     4  12  26  42  59  86 124 162 198 247 306 365
#     4   9  19  36  64  96 120 151 204 255 295 345
#     4  11  23  41  65  90 117 156 205 253 297 354
#     4  10  22  41  66  92 118 154 203 251 299 354
#     4  12  23  36  59  92 130 162 195 241 303 364
#
# _framework density 20.122081999999999
#
# number of rings (size 3 to 8) (size 9 to 14) (size 15 to 20)
#    0.000    1.500    2.500    3.000    1.750    3.500 
#    0.000    3.750    0.000    0.000    0.000    0.000 
#    0.000    0.000    0.000    0.000    0.000    0.000 
#
# Total GULP energy -793704.560795 kJ/mol
# GULP energy per Si atom -12401.633762 kJ/mol
# Density = 2.007628 g / cm^3
# Si number density = 20.122082 Si / 1000 Ang^3
#
#
#
# Elastic Constant Matrix: (Units=GPa)
#
#
# Indices 1 2 3 4 5 6 
#
# 1 137.0951 51.7349 14.1667 0.0000 0.0000 0.0000
# 2 51.7349 129.8442 15.6956 0.0000 0.0000 0.0000
# 3 14.1667 15.6956 -107.1895 0.0000 0.0000 0.0000
# 4 0.0000 0.0000 0.0000 12.4949 0.0000 0.0000
# 5 0.0000 0.0000 0.0000 0.0000 0.3218 0.0000
# 6 0.0000 0.0000 0.0000 0.0000 0.0000 24.3236
#
#
#
# Elastic Compliance Matrix: (Units=1/GPa)
#
#
# Indices 1 2 3 4 5 6 
#
# 1 0.008543 -0.003479 0.000620 0.000000 0.000000 0.000000
# 2 -0.003479 0.008984 0.000856 0.000000 0.000000 0.000000
# 3 0.000620 0.000856 -0.009122 0.000000 0.000000 0.000000
# 4 0.000000 0.000000 0.000000 0.080033 0.000000 0.000000
# 5 0.000000 0.000000 0.000000 0.000000 3.107117 0.000000
# 6 0.000000 0.000000 0.000000 0.000000 0.000000 0.041112
#
#
# Mechanical properties :
#
#
# Convention : Reuss Voigt Hill
#
# Bulk Modulus (GPa) = 227.35237 35.88267 131.61752
# Shear Modulus (GPa) = 1.54219 12.63826 7.09022
#
# Velocity S-wave (km/s) = 0.87640 2.50887 1.87916
# Velocity P-wave (km/s) = 10.68905 5.12482 8.38211
#
# Compressibility (1/GPa) = 0.00439846
#
# Stress axis : x y z
#
# Youngs Moduli (GPa) = 117.05597 111.30710 -109.62431
#
# Poissons Ratio (x) = 0.38721 0.06793
# Poissons Ratio (y) = 0.40721 0.09381
# Poissons Ratio (z) = -0.07254 -0.09525
#
# Static dielectric constant tensor:
#      x y z
#    x 3.856330 0.000000 0.000000 
#    y 0.000000 3.845500 0.000000 
#    z 0.000000 0.000000 3.384230 
# 
# 
# High freq. dielectric constant tensor:
#      x y z
#    x 1.800450 0.000000 0.000000 
#    y 0.000000 1.790340 0.000000 
#    z 0.000000 0.000000 1.759260 
# 
# From -- ./inp_files/10826.got.cif
#   From: 2010.03.12/outbox.cif.g09.slc.cpg/sg55_6_cif.got.tgz:10826.got - 2010.04.16 15:19:21.
