data_PCOD8225774
_publ_section_title
;
Structure prediction by ZEFSAII (Michael W. Deem and Ramdas Pophale) SiO2 
 PCOD8225774
Probable space group: P B A M
;
_chemical_formula_sum "Si O2"
_cell_formula_units_Z 64
_cell_length_a 15.323278
_cell_length_b 23.430330
_cell_length_c 8.954505
_cell_angle_alpha 90.000000
_cell_angle_beta 90.000000
_cell_angle_gamma 90.000000
_cell_volume 3214.931097
_symmetry_space_group_name_H-M "P B A M"
_symmetry_group_IT_number 55
_symmetry_cell_setting 'orthorhombic'
loop_
_space_group_symop_operation_xyz
x,y,z
-x,-y,z
1/2+x,1/2-y,-z
1/2-x,1/2+y,-z
-x,-y,-z
x,y,-z
1/2-x,1/2+y,z
1/2+x,1/2-y,z
loop_
_atom_site_type_symbol
_atom_site_label
_atom_site_fract_x
_atom_site_fract_y
_atom_site_fract_z
Si Si1 0.507197 0.315501 0.172207
Si Si2 0.601844 0.499936 0.673749
Si Si3 0.339786 0.115842 0.172988
Si Si4 0.336637 0.624514 0.324502
Si Si5 0.599775 0.009219 0.172469
Si Si6 0.841248 0.112507 0.823340
Si Si7 0.491246 0.816456 0.827187
Si Si8 0.836011 0.621609 0.676463
O O1 0.593099 0.331269 0.262969
O O2 0.424820 0.351549 0.231637
O O3 0.486115 0.249405 0.197447
O O4 0.524889 0.329751 0.000000
O O5 0.500000 0.500000 0.709499
O O6 0.620151 0.512612 0.500000
O O7 0.639369 0.439380 0.725651
O O8 0.649540 0.547145 0.772689
O O9 0.257941 0.141005 0.261877
O O10 0.426810 0.146939 0.231236
O O11 0.347082 0.048452 0.202233
O O12 0.325726 0.129895 0.000000
O O13 0.335672 0.630615 0.500000
O O14 0.640786 0.057505 0.275228
O O15 0.500000 0.000000 0.218959
O O16 0.605716 0.028564 0.000000
O O17 0.756280 0.139925 0.747213
O O18 0.829684 0.115283 0.000000
O O19 0.407347 0.833308 0.731589
O O20 0.471945 0.830758 0.000000
O O21 0.829000 0.624385 0.500000
#
# Coordination Sequence:
#
# PCOD8225774 Si02
#       8
#     8   8   8   8   8   8   8   8
#     4  10  23  42  65  88 113 152 206 256 299 348
#     4  10  20  37  60  88 123 163 196 240 305 361
#     4  10  21  38  63  90 119 155 200 247 297 350
#     4  11  23  38  60  89 125 159 195 241 300 364
#     4  10  19  37  64  92 121 157 199 247 298 351
#     4  11  23  39  62  92 122 158 205 251 297 355
#     4  10  22  44  66  85 114 156 204 254 299 349
#     4  12  25  39  60  92 127 161 196 241 302 366
#
# _framework density 19.907115000000001
#
# number of rings (size 3 to 8) (size 9 to 14) (size 15 to 20)
#    0.000    1.500    2.500    2.625    0.000    6.500 
#    0.000    2.500    0.000    0.000    0.000    0.000 
#    0.000    0.000    0.000    0.000    0.000    0.000 
#
# Total GULP energy -794024.981364 kJ/mol
# GULP energy per Si atom -12406.640334 kJ/mol
# Density = 1.986181 g / cm^3
# Si number density = 19.907115 Si / 1000 Ang^3
#
#
#
# Elastic Constant Matrix: (Units=GPa)
#
#
# Indices 1 2 3 4 5 6 
#
# 1 122.5143 22.0793 42.2410 0.0000 0.0000 0.0000
# 2 22.0793 71.6566 25.9935 0.0000 0.0000 0.0000
# 3 42.2410 25.9935 75.6032 0.0000 0.0000 0.0000
# 4 0.0000 0.0000 0.0000 20.8118 0.0000 0.0000
# 5 0.0000 0.0000 0.0000 0.0000 23.9588 0.0000
# 6 0.0000 0.0000 0.0000 0.0000 0.0000 16.5508
#
#
#
# Elastic Compliance Matrix: (Units=1/GPa)
#
#
# Indices 1 2 3 4 5 6 
#
# 1 0.010204 -0.001229 -0.005278 0.000000 0.000000 0.000000
# 2 -0.001229 0.016092 -0.004846 0.000000 0.000000 0.000000
# 3 -0.005278 -0.004846 0.017842 0.000000 0.000000 0.000000
# 4 0.000000 0.000000 0.000000 0.048050 0.000000 0.000000
# 5 0.000000 0.000000 0.000000 0.000000 0.041738 0.000000
# 6 0.000000 0.000000 0.000000 0.000000 0.000000 0.060420
#
#
# Mechanical properties :
#
#
# Convention : Reuss Voigt Hill
#
# Bulk Modulus (GPa) = 46.66158 50.04462 48.35310
# Shear Modulus (GPa) = 22.30185 24.22831 23.26508
#
# Velocity S-wave (km/s) = 3.35071 3.49243 3.42231
# Velocity P-wave (km/s) = 6.20163 6.43867 6.32126
#
# Compressibility (1/GPa) = 0.02143091
#
# Stress axis : x y z
#
# Youngs Moduli (GPa) = 98.00306 62.14243 56.04695
#
# Poissons Ratio (x) = 0.07639 0.29584
# Poissons Ratio (y) = 0.12048 0.27160
# Poissons Ratio (z) = 0.51730 0.30113
#
# Static dielectric constant tensor:
#      x y z
#    x 3.850480 0.000000 0.000000 
#    y 0.000000 3.578580 0.000000 
#    z 0.000000 0.000000 3.486590 
# 
# 
# High freq. dielectric constant tensor:
#      x y z
#    x 1.792700 0.000000 0.000000 
#    y 0.000000 1.772580 0.000000 
#    z 0.000000 0.000000 1.767450 
# 
# From -- ./inp_files/6682.got.cif
#   From: 2010.03.12/outbox.cif.g09.slc.cpg/sg55_4_cif.got.tgz:6682.got - 2010.04.16 15:19:21.
