data_PCOD8225891
_publ_section_title
;
Structure prediction by ZEFSAII (Michael W. Deem and Ramdas Pophale) SiO2 
 PCOD8225891
Probable space group: P B A M
;
_chemical_formula_sum "Si O2"
_cell_formula_units_Z 56
_cell_length_a 22.100144
_cell_length_b 14.648656
_cell_length_c 8.757732
_cell_angle_alpha 90.000000
_cell_angle_beta 90.000000
_cell_angle_gamma 90.000000
_cell_volume 2835.205449
_symmetry_space_group_name_H-M "P B A M"
_symmetry_group_IT_number 55
_symmetry_cell_setting 'orthorhombic'
loop_
_space_group_symop_operation_xyz
x,y,z
-x,-y,z
1/2+x,1/2-y,-z
1/2-x,1/2+y,-z
-x,-y,-z
x,y,-z
1/2-x,1/2+y,z
1/2+x,1/2-y,z
loop_
_atom_site_type_symbol
_atom_site_label
_atom_site_fract_x
_atom_site_fract_y
_atom_site_fract_z
Si Si1 0.379001 0.320701 0.679812
Si Si2 0.036105 0.677871 0.824415
Si Si3 0.650443 0.346649 0.673864
Si Si4 0.716592 0.824229 0.320165
Si Si5 0.069845 0.001147 0.819514
Si Si6 0.884720 0.461292 0.323657
Si Si7 0.585534 0.161090 0.329495
O O1 0.377166 0.337148 0.500000
O O2 0.435065 0.255869 0.719518
O O3 0.317180 0.269193 0.736766
O O4 0.389332 0.417743 0.759170
O O5 0.060683 0.578424 0.777537
O O6 0.964895 0.678475 0.796989
O O7 0.049989 0.699739 0.000000
O O8 0.651078 0.384140 0.500000
O O9 0.717352 0.344821 0.750539
O O10 0.602711 0.406086 0.768786
O O11 0.633183 0.241325 0.678762
O O12 0.724697 0.814879 0.500000
O O13 0.677004 0.911918 0.273686
O O14 0.068609 0.995963 0.000000
O O15 0.000000 0.000000 0.757695
O O16 0.898977 0.439323 0.500000
O O17 0.878224 0.568394 0.291459
O O18 0.556746 0.154341 0.500000
#
# Coordination Sequence:
#
# PCOD8225891 Si02
#       7
#     8   8   8   8   8   8   8
#     4  10  20  37  62  85 108 143 186 231 278 330
#     4  11  21  33  52  80 113 143 175 219 270 327
#     4  10  21  37  58  83 110 142 184 231 275 326
#     4   8  17  35  58  84 109 136 177 228 277 322
#     4  11  24  40  57  82 117 153 189 233 285 336
#     4   9  18  34  55  78 108 144 181 223 269 320
#     4  10  20  33  52  78 107 141 180 221 266 318
#
# _framework density 19.751653999999998
#
# number of rings (size 3 to 8) (size 9 to 14) (size 15 to 20)
#    0.000    2.143    0.000    4.286    0.000    7.429 
#    0.000    7.857    0.000    1.714    0.000    0.000 
#    0.000    0.000    0.000    0.000    0.000    0.000 
#
# Total GULP energy -694258.885822 kJ/mol
# GULP energy per Si atom -12397.480104 kJ/mol
# Density = 1.970670 g / cm^3
# Si number density = 19.751654 Si / 1000 Ang^3
#
#
#
# Elastic Constant Matrix: (Units=GPa)
#
#
# Indices 1 2 3 4 5 6 
#
# 1 125.0580 32.8305 23.8442 0.0000 0.0000 0.0000
# 2 32.8305 107.5124 17.0247 0.0000 0.0000 0.0000
# 3 23.8442 17.0247 51.7977 0.0000 0.0000 0.0000
# 4 0.0000 0.0000 0.0000 15.4799 0.0000 0.0000
# 5 0.0000 0.0000 0.0000 0.0000 12.4907 0.0000
# 6 0.0000 0.0000 0.0000 0.0000 0.0000 23.2056
#
#
#
# Elastic Compliance Matrix: (Units=1/GPa)
#
#
# Indices 1 2 3 4 5 6 
#
# 1 0.009263 -0.002272 -0.003518 0.000000 0.000000 0.000000
# 2 -0.002272 0.010369 -0.002362 0.000000 0.000000 0.000000
# 3 -0.003518 -0.002362 0.021702 0.000000 0.000000 0.000000
# 4 0.000000 0.000000 0.000000 0.064600 0.000000 0.000000
# 5 0.000000 0.000000 0.000000 0.000000 0.080059 0.000000
# 6 0.000000 0.000000 0.000000 0.000000 0.000000 0.043093
#
#
# Mechanical properties :
#
#
# Convention : Reuss Voigt Hill
#
# Bulk Modulus (GPa) = 39.95085 47.97411 43.96248
# Shear Modulus (GPa) = 19.70576 24.27982 21.99279
#
# Velocity S-wave (km/s) = 3.16203 3.50988 3.34048
# Velocity P-wave (km/s) = 5.79670 6.38491 6.09790
#
# Compressibility (1/GPa) = 0.02503076
#
# Stress axis : x y z
#
# Youngs Moduli (GPa) = 107.95245 96.44112 46.07964
#
# Poissons Ratio (x) = 0.21908 0.16209
# Poissons Ratio (y) = 0.24523 0.10885
# Poissons Ratio (z) = 0.37973 0.22782
#
# Static dielectric constant tensor:
#      x y z
#    x 3.720670 0.000000 0.000000 
#    y 0.000000 3.702030 0.000000 
#    z 0.000000 0.000000 3.417930 
# 
# 
# High freq. dielectric constant tensor:
#      x y z
#    x 1.766270 0.000000 0.000000 
#    y 0.000000 1.778230 0.000000 
#    z 0.000000 0.000000 1.745310 
# 
# From -- ./inp_files/8711.got.cif
#   From: 2010.03.12/outbox.cif.g09.slc.cpg/sg55_5_cif.got.tgz:8711.got - 2010.04.16 15:19:21.
