data_PCOD8225399
_publ_section_title
;
Structure prediction by ZEFSAII (Michael W. Deem and Ramdas Pophale) SiO2 
 PCOD8225399
Probable space group: P B A M
;
_chemical_formula_sum "Si O2"
_cell_formula_units_Z 64
_cell_length_a 20.055901
_cell_length_b 19.863480
_cell_length_c 8.847399
_cell_angle_alpha 90.000000
_cell_angle_beta 90.000000
_cell_angle_gamma 90.000000
_cell_volume 3524.626711
_symmetry_space_group_name_H-M "P B A M"
_symmetry_group_IT_number 55
_symmetry_cell_setting 'orthorhombic'
loop_
_space_group_symop_operation_xyz
x,y,z
-x,-y,z
1/2+x,1/2-y,-z
1/2-x,1/2+y,-z
-x,-y,-z
x,y,-z
1/2-x,1/2+y,z
1/2+x,1/2-y,z
loop_
_atom_site_type_symbol
_atom_site_label
_atom_site_fract_x
_atom_site_fract_y
_atom_site_fract_z
Si Si1 0.320931 0.431191 0.677765
Si Si2 0.174878 0.070847 0.177590
Si Si3 0.427030 0.827528 0.324804
Si Si4 0.932105 0.321453 0.820654
Si Si5 0.921724 0.828238 0.328190
Si Si6 0.823824 0.425120 0.177805
Si Si7 0.819659 0.576581 0.178705
Si Si8 0.427150 0.318511 0.324631
O O1 0.309530 0.435916 0.500000
O O2 0.346887 0.502626 0.738832
O O3 0.252934 0.407332 0.755380
O O4 0.376838 0.377038 0.720784
O O5 0.124124 0.130128 0.215100
O O6 0.248907 0.092171 0.233363
O O7 0.174767 0.056164 0.000000
O O8 0.430888 0.846456 0.500000
O O9 0.498089 0.843128 0.251291
O O10 0.407059 0.750116 0.301167
O O11 0.371702 0.871438 0.244352
O O12 0.876838 0.372858 0.753265
O O13 0.909879 0.246776 0.773950
O O14 0.938623 0.325836 0.000000
O O15 0.905063 0.848965 0.500000
O O16 0.998423 0.844486 0.289304
O O17 0.841988 0.501294 0.226366
O O18 0.826885 0.417898 0.000000
O O19 0.815964 0.584478 0.000000
O O20 0.422008 0.297604 0.500000
#
# Coordination Sequence:
#
# PCOD8225399 Si02
#       8
#     8   8   8   8   8   8   8   8
#     4  10  20  36  56  77 105 141 177 215 265 319
#     4  10  20  35  54  78 107 136 173 219 262 310
#     4  10  21  37  54  77 109 140 174 216 263 316
#     4  10  19  34  56  78 102 136 177 218 262 312
#     4   9  19  36  54  73 102 139 174 211 258 313
#     4   8  18  35  52  74 105 137 168 210 263 312
#     4  10  20  36  56  78 106 139 177 220 263 310
#     4   9  20  37  54  75 106 140 174 215 263 316
#
# _framework density 18.157951000000001
#
# number of rings (size 3 to 8) (size 9 to 14) (size 15 to 20)
#    0.000    2.500    0.000    3.375    0.000    5.500 
#    0.000   15.000    0.000    0.000    0.000    0.000 
#    0.000    0.000    0.000    0.000    0.000    0.000 
#
# Total GULP energy -793672.862177 kJ/mol
# GULP energy per Si atom -12401.138472 kJ/mol
# Density = 1.811662 g / cm^3
# Si number density = 18.157951 Si / 1000 Ang^3
#
#
#
# Elastic Constant Matrix: (Units=GPa)
#
#
# Indices 1 2 3 4 5 6 
#
# 1 129.4587 93.2969 55.4537 0.0000 0.0000 0.0000
# 2 93.2969 104.6338 49.9481 0.0000 0.0000 0.0000
# 3 55.4537 49.9481 82.5980 0.0000 0.0000 0.0000
# 4 0.0000 0.0000 0.0000 31.1417 0.0000 0.0000
# 5 0.0000 0.0000 0.0000 0.0000 31.0680 0.0000
# 6 0.0000 0.0000 0.0000 0.0000 0.0000 39.6547
#
#
#
# Elastic Compliance Matrix: (Units=1/GPa)
#
#
# Indices 1 2 3 4 5 6 
#
# 1 0.022603 -0.018149 -0.004200 0.000000 0.000000 0.000000
# 2 -0.018149 0.028008 -0.004752 0.000000 0.000000 0.000000
# 3 -0.004200 -0.004752 0.017800 0.000000 0.000000 0.000000
# 4 0.000000 0.000000 0.000000 0.032111 0.000000 0.000000
# 5 0.000000 0.000000 0.000000 0.000000 0.032187 0.000000
# 6 0.000000 0.000000 0.000000 0.000000 0.000000 0.025218
#
#
# Mechanical properties :
#
#
# Convention : Reuss Voigt Hill
#
# Bulk Modulus (GPa) = 70.37789 79.34311 74.86050
# Shear Modulus (GPa) = 23.05558 28.23900 25.64729
#
# Velocity S-wave (km/s) = 3.56718 3.94786 3.76234
# Velocity P-wave (km/s) = 7.47056 8.03566 7.75825
#
# Compressibility (1/GPa) = 0.01420901
#
# Stress axis : x y z
#
# Youngs Moduli (GPa) = 44.24181 35.70361 56.17878
#
# Poissons Ratio (x) = 0.64799 0.23595
# Poissons Ratio (y) = 0.80295 0.26698
# Poissons Ratio (z) = 0.18581 0.16967
#
# Static dielectric constant tensor:
#      x y z
#    x 3.495310 0.000000 0.000000 
#    y 0.000000 3.493650 0.000000 
#    z 0.000000 0.000000 3.312280 
# 
# 
# High freq. dielectric constant tensor:
#      x y z
#    x 1.708970 0.000000 0.000000 
#    y 0.000000 1.704500 0.000000 
#    z 0.000000 0.000000 1.703900 
# 
# From -- ./inp_files/7982.got.cif
#   From: 2010.03.12/outbox.cif.g09.slc.cpg/sg55_4_cif.got.tgz:7982.got - 2010.04.16 15:19:21.
