data_PCOD8225835
_publ_section_title
;
Structure prediction by ZEFSAII (Michael W. Deem and Ramdas Pophale) SiO2 
 PCOD8225835
Probable space group: P B A M
;
_chemical_formula_sum "Si O2"
_cell_formula_units_Z 48
_cell_length_a 21.184938
_cell_length_b 9.919341
_cell_length_c 12.584962
_cell_angle_alpha 90.000000
_cell_angle_beta 90.000000
_cell_angle_gamma 90.000000
_cell_volume 2644.611769
_symmetry_space_group_name_H-M "P B A M"
_symmetry_group_IT_number 55
_symmetry_cell_setting 'orthorhombic'
loop_
_space_group_symop_operation_xyz
x,y,z
-x,-y,z
1/2+x,1/2-y,-z
1/2-x,1/2+y,-z
-x,-y,-z
x,y,-z
1/2-x,1/2+y,z
1/2+x,1/2-y,z
loop_
_atom_site_type_symbol
_atom_site_label
_atom_site_fract_x
_atom_site_fract_y
_atom_site_fract_z
Si Si1 0.004480 0.646843 0.765027
Si Si2 0.646869 0.538812 0.694349
Si Si3 0.617863 0.823279 0.618606
Si Si4 0.944379 0.100466 0.877334
Si Si5 0.390819 0.753198 0.621748
Si Si6 0.716674 0.033843 0.623156
O O1 0.055981 0.624953 0.674970
O O2 0.029702 0.750561 0.852880
O O3 0.000000 0.500000 0.820967
O O4 0.940700 0.696162 0.708530
O O5 0.624040 0.662797 0.622121
O O6 0.618348 0.561388 0.811986
O O7 0.621346 0.403980 0.640817
O O8 0.722629 0.541864 0.699436
O O9 0.609728 0.875487 0.500000
O O10 0.679541 0.900574 0.663063
O O11 0.925764 0.089375 0.000000
O O12 0.000000 0.000000 0.844885
O O13 0.414887 0.772685 0.500000
O O14 0.325703 0.833261 0.639418
O O15 0.738699 0.021534 0.500000
#
# Coordination Sequence:
#
# PCOD8225835 Si02
#       6
#     8   8   8   8   8   8
#     4  11  21  36  57  85 113 148 189 234 281 331
#     4  11  21  35  56  81 109 147 192 234 272 334
#     4  10  20  32  51  80 117 156 185 220 266 324
#     4  10  22  42  63  82 103 135 186 245 302 335
#     4  11  21  33  54  86 121 157 189 219 267 333
#     4  10  20  34  53  80 119 162 187 213 265 334
#
# _framework density 18.150112
#
# number of rings (size 3 to 8) (size 9 to 14) (size 15 to 20)
#    0.000    1.500    3.333    3.000    0.000    3.667 
#    0.000    2.500    0.000   10.000    0.000    0.000 
#    0.000    0.000    0.000    0.000    0.000    0.000 
#
# Total GULP energy -595140.722215 kJ/mol
# GULP energy per Si atom -12398.765046 kJ/mol
# Density = 1.810880 g / cm^3
# Si number density = 18.150112 Si / 1000 Ang^3
#
#
#
# Elastic Constant Matrix: (Units=GPa)
#
#
# Indices 1 2 3 4 5 6 
#
# 1 114.3060 31.0954 44.4906 0.0000 0.0000 0.0000
# 2 31.0954 126.3724 29.5766 0.0000 0.0000 0.0000
# 3 44.4906 29.5766 52.7068 0.0000 0.0000 0.0000
# 4 0.0000 0.0000 0.0000 17.4233 0.0000 0.0000
# 5 0.0000 0.0000 0.0000 0.0000 17.8334 0.0000
# 6 0.0000 0.0000 0.0000 0.0000 0.0000 28.5277
#
#
#
# Elastic Compliance Matrix: (Units=1/GPa)
#
#
# Indices 1 2 3 4 5 6 
#
# 1 0.013088 -0.000731 -0.010637 0.000000 0.000000 0.000000
# 2 -0.000731 0.009150 -0.004518 0.000000 0.000000 0.000000
# 3 -0.010637 -0.004518 0.030487 0.000000 0.000000 0.000000
# 4 0.000000 0.000000 0.000000 0.057394 0.000000 0.000000
# 5 0.000000 0.000000 0.000000 0.000000 0.056075 0.000000
# 6 0.000000 0.000000 0.000000 0.000000 0.000000 0.035054
#
#
# Mechanical properties :
#
#
# Convention : Reuss Voigt Hill
#
# Bulk Modulus (GPa) = 47.72552 55.96782 51.84667
# Shear Modulus (GPa) = 20.83300 25.30505 23.06902
#
# Velocity S-wave (km/s) = 3.39162 3.73796 3.56899
# Velocity P-wave (km/s) = 6.45673 7.03796 6.75360
#
# Compressibility (1/GPa) = 0.02095315
#
# Stress axis : x y z
#
# Youngs Moduli (GPa) = 76.40868 109.28591 32.80069
#
# Poissons Ratio (x) = 0.07986 0.34891
# Poissons Ratio (y) = 0.05584 0.14819
# Poissons Ratio (z) = 0.81278 0.49374
#
# Static dielectric constant tensor:
#      x y z
#    x 3.405950 0.000000 0.000000 
#    y 0.000000 3.670140 0.000000 
#    z 0.000000 0.000000 2.996440 
# 
# 
# High freq. dielectric constant tensor:
#      x y z
#    x 1.708140 0.000000 0.000000 
#    y 0.000000 1.730730 0.000000 
#    z 0.000000 0.000000 1.662060 
# 
# From -- ./inp_files/15624.got.cif
#   From: 2010.03.12/outbox.cif.g09.slc.cpg/sg55_8_cif.got.tgz:15624.got - 2010.04.16 15:19:21.
