data_PCOD8225635
_publ_section_title
;
Structure prediction by ZEFSAII (Michael W. Deem and Ramdas Pophale) SiO2 
 PCOD8225635
Probable space group: P B A M
;
_chemical_formula_sum "Si O2"
_cell_formula_units_Z 56
_cell_length_a 14.420572
_cell_length_b 22.311216
_cell_length_c 8.719748
_cell_angle_alpha 90.000000
_cell_angle_beta 90.000000
_cell_angle_gamma 90.000000
_cell_volume 2805.496053
_symmetry_space_group_name_H-M "P B A M"
_symmetry_group_IT_number 55
_symmetry_cell_setting 'orthorhombic'
loop_
_space_group_symop_operation_xyz
x,y,z
-x,-y,z
1/2+x,1/2-y,-z
1/2-x,1/2+y,-z
-x,-y,-z
x,y,-z
1/2-x,1/2+y,z
1/2+x,1/2-y,z
loop_
_atom_site_type_symbol
_atom_site_label
_atom_site_fract_x
_atom_site_fract_y
_atom_site_fract_z
Si Si1 0.883635 0.653670 0.823201
Si Si2 0.269812 0.530980 0.175821
Si Si3 0.425828 0.614457 0.820881
Si Si4 0.402132 0.437279 0.677593
Si Si5 0.999335 0.239976 0.177571
Si Si6 0.178053 0.824473 0.174910
Si Si7 0.096896 0.475606 0.319766
O O1 0.786299 0.689361 0.802063
O O2 0.880748 0.590717 0.737897
O O3 0.961530 0.698076 0.749470
O O4 0.903149 0.638673 0.000000
O O5 0.317819 0.596162 0.204824
O O6 0.348503 0.483591 0.216462
O O7 0.177418 0.522400 0.274956
O O8 0.240590 0.522592 0.000000
O O9 0.490405 0.567345 0.728063
O O10 0.445859 0.681499 0.758056
O O11 0.452530 0.610039 0.000000
O O12 0.395141 0.455792 0.500000
O O13 0.352602 0.373811 0.703447
O O14 0.888207 0.233660 0.205233
O O15 0.024865 0.245175 0.000000
O O16 0.159426 0.846846 0.000000
O O17 0.091286 0.472447 0.500000
O O18 0.000000 0.500000 0.250986
#
# Coordination Sequence:
#
# PCOD8225635 Si02
#       7
#     8   8   8   8   8   8   8
#     4  10  19  35  62  86 108 146 191 234 281 338
#     4  11  21  35  57  84 111 146 187 232 282 334
#     4   9  19  35  54  81 119 150 180 229 282 335
#     4  11  20  30  51  82 114 150 187 223 274 338
#     4   8  16  33  54  83 115 144 183 231 282 334
#     4   9  17  32  54  79 110 147 188 234 282 334
#     4  11  25  43  60  80 112 151 192 241 291 340
#
# _framework density 19.960819000000001
#
# number of rings (size 3 to 8) (size 9 to 14) (size 15 to 20)
#    0.000    2.143    1.429    3.429    0.000    4.000 
#    2.571    2.857    0.000    0.000    0.000    0.000 
#    0.000    0.000    0.000    0.000    0.000    0.000 
#
# Total GULP energy -694047.722716 kJ/mol
# GULP energy per Si atom -12393.709334 kJ/mol
# Density = 1.991539 g / cm^3
# Si number density = 19.960819 Si / 1000 Ang^3
#
#
#
# Elastic Constant Matrix: (Units=GPa)
#
#
# Indices 1 2 3 4 5 6 
#
# 1 119.9828 41.2724 21.7273 0.0000 0.0000 0.0000
# 2 41.2724 44.5841 13.5213 0.0000 0.0000 0.0000
# 3 21.7273 13.5213 43.1013 0.0000 0.0000 0.0000
# 4 0.0000 0.0000 0.0000 7.5803 0.0000 0.0000
# 5 0.0000 0.0000 0.0000 0.0000 24.3913 0.0000
# 6 0.0000 0.0000 0.0000 0.0000 0.0000 32.8418
#
#
#
# Elastic Compliance Matrix: (Units=1/GPa)
#
#
# Indices 1 2 3 4 5 6 
#
# 1 0.012563 -0.010730 -0.002967 0.000000 0.000000 0.000000
# 2 -0.010730 0.033952 -0.005242 0.000000 0.000000 0.000000
# 3 -0.002967 -0.005242 0.026341 0.000000 0.000000 0.000000
# 4 0.000000 0.000000 0.000000 0.131920 0.000000 0.000000
# 5 0.000000 0.000000 0.000000 0.000000 0.040998 0.000000
# 6 0.000000 0.000000 0.000000 0.000000 0.000000 0.030449
#
#
# Mechanical properties :
#
#
# Convention : Reuss Voigt Hill
#
# Bulk Modulus (GPa) = 28.58906 40.07891 34.33398
# Shear Modulus (GPa) = 15.34870 21.70583 18.52727
#
# Velocity S-wave (km/s) = 2.77599 3.30119 3.04991
# Velocity P-wave (km/s) = 4.96271 5.88666 5.44432
#
# Compressibility (1/GPa) = 0.03497842
#
# Stress axis : x y z
#
# Youngs Moduli (GPa) = 79.60106 29.45327 37.96327
#
# Poissons Ratio (x) = 0.31603 0.11263
# Poissons Ratio (y) = 0.85410 0.19901
# Poissons Ratio (z) = 0.23616 0.15440
#
# Static dielectric constant tensor:
#      x y z
#    x 3.859230 0.000000 0.000000 
#    y 0.000000 3.639730 0.000000 
#    z 0.000000 0.000000 3.353340 
# 
# 
# High freq. dielectric constant tensor:
#      x y z
#    x 1.784300 0.000000 0.000000 
#    y 0.000000 1.759960 0.000000 
#    z 0.000000 0.000000 1.752510 
# 
# From -- ./inp_files/6200.got.cif
#   From: 2010.03.12/outbox.cif.g09.slc.cpg/sg55_4_cif.got.tgz:6200.got - 2010.04.16 15:19:21.
