data_PCOD8225664
_publ_section_title
;
Structure prediction by ZEFSAII (Michael W. Deem and Ramdas Pophale) SiO2 
 PCOD8225664
Probable space group: P B A M
;
_chemical_formula_sum "Si O2"
_cell_formula_units_Z 32
_cell_length_a 9.279316
_cell_length_b 20.461573
_cell_length_c 8.407923
_cell_angle_alpha 90.000000
_cell_angle_beta 90.000000
_cell_angle_gamma 90.000000
_cell_volume 1596.407310
_symmetry_space_group_name_H-M "P B A M"
_symmetry_group_IT_number 55
_symmetry_cell_setting 'orthorhombic'
loop_
_space_group_symop_operation_xyz
x,y,z
-x,-y,z
1/2+x,1/2-y,-z
1/2-x,1/2+y,-z
-x,-y,-z
x,y,-z
1/2-x,1/2+y,z
1/2+x,1/2-y,z
loop_
_atom_site_type_symbol
_atom_site_label
_atom_site_fract_x
_atom_site_fract_y
_atom_site_fract_z
Si Si1 0.846536 0.428959 0.313807
Si Si2 0.833275 0.806224 0.311341
Si Si3 0.159746 0.818728 0.310893
Si Si4 0.655071 0.068235 0.815543
O O1 0.821434 0.440113 0.500000
O O2 0.749844 0.369886 0.246552
O O3 0.798818 0.494037 0.221519
O O4 0.013857 0.412013 0.284593
O O5 0.824323 0.805760 0.500000
O O6 0.756349 0.741038 0.246243
O O7 0.997135 0.807014 0.251378
O O8 0.166847 0.825154 0.500000
O O9 0.213853 0.885490 0.233051
O O10 0.618240 0.075125 0.000000
#
# Coordination Sequence:
#
# PCOD8225664 Si02
#       4
#     8   8   8   8
#     4  10  19  36  60  84 107 141 182 227 274 320
#     4   9  19  34  59  86 107 134 180 231 274 317
#     4  10  19  36  58  82 108 139 178 225 271 320
#     4  11  22  36  53  80 113 148 182 219 265 323
#
# _framework density 20.045007999999999
#
# number of rings (size 3 to 8) (size 9 to 14) (size 15 to 20)
#    0.000    2.000    0.000    6.000    0.000    5.000 
#    0.000   13.750    0.000    0.000    0.000    0.000 
#    0.000    0.000    0.000    0.000    0.000    0.000 
#
# Total GULP energy -396919.775826 kJ/mol
# GULP energy per Si atom -12403.742995 kJ/mol
# Density = 1.999939 g / cm^3
# Si number density = 20.045008 Si / 1000 Ang^3
#
#
#
# Elastic Constant Matrix: (Units=GPa)
#
#
# Indices 1 2 3 4 5 6 
#
# 1 118.2504 75.5205 12.5181 0.0000 0.0000 0.0000
# 2 75.5205 126.6351 17.4025 0.0000 0.0000 0.0000
# 3 12.5181 17.4025 43.4894 0.0000 0.0000 0.0000
# 4 0.0000 0.0000 0.0000 0.6800 0.0000 0.0000
# 5 0.0000 0.0000 0.0000 0.0000 5.8786 0.0000
# 6 0.0000 0.0000 0.0000 0.0000 0.0000 48.2613
#
#
#
# Elastic Compliance Matrix: (Units=1/GPa)
#
#
# Indices 1 2 3 4 5 6 
#
# 1 0.013680 -0.008060 -0.000712 0.000000 0.000000 0.000000
# 2 -0.008060 0.013105 -0.002924 0.000000 0.000000 0.000000
# 3 -0.000712 -0.002924 0.024369 0.000000 0.000000 0.000000
# 4 0.000000 0.000000 0.000000 1.470562 0.000000 0.000000
# 5 0.000000 0.000000 0.000000 0.000000 0.170109 0.000000
# 6 0.000000 0.000000 0.000000 0.000000 0.000000 0.020721
#
#
# Mechanical properties :
#
#
# Convention : Reuss Voigt Hill
#
# Bulk Modulus (GPa) = 36.02159 55.47300 45.74730
# Shear Modulus (GPa) = 2.86501 23.15958 13.01230
#
# Velocity S-wave (km/s) = 1.19683 3.40277 2.55061
# Velocity P-wave (km/s) = 4.46310 6.57060 5.61658
#
# Compressibility (1/GPa) = 0.02776113
#
# Stress axis : x y z
#
# Youngs Moduli (GPa) = 73.10142 76.30498 41.03538
#
# Poissons Ratio (x) = 0.61503 0.02923
# Poissons Ratio (y) = 0.58921 0.11999
# Poissons Ratio (z) = 0.05207 0.22312
#
# Static dielectric constant tensor:
#      x y z
#    x 3.686130 0.000000 0.000000 
#    y 0.000000 3.828440 0.000000 
#    z 0.000000 0.000000 3.285290 
# 
# 
# High freq. dielectric constant tensor:
#      x y z
#    x 1.781320 0.000000 0.000000 
#    y 0.000000 1.796940 0.000000 
#    z 0.000000 0.000000 1.754890 
# 
# From -- ./inp_files/1982.got.cif
#   From: 2010.03.12/outbox.cif.g09.slc.cpg/sg55_1_cif.got.tgz:1982.got - 2010.04.16 15:19:21.
