data_PCOD8226129
_publ_section_title
;
Structure prediction by ZEFSAII (Michael W. Deem and Ramdas Pophale) SiO2 
 PCOD8226129
Probable space group: P B A M
;
_chemical_formula_sum "Si O2"
_cell_formula_units_Z 64
_cell_length_a 11.470907
_cell_length_b 33.354867
_cell_length_c 9.147398
_cell_angle_alpha 90.000000
_cell_angle_beta 90.000000
_cell_angle_gamma 90.000000
_cell_volume 3499.891230
_symmetry_space_group_name_H-M "P B A M"
_symmetry_group_IT_number 55
_symmetry_cell_setting 'orthorhombic'
loop_
_space_group_symop_operation_xyz
x,y,z
-x,-y,z
1/2+x,1/2-y,-z
1/2-x,1/2+y,-z
-x,-y,-z
x,y,-z
1/2-x,1/2+y,z
1/2+x,1/2-y,z
loop_
_atom_site_type_symbol
_atom_site_label
_atom_site_fract_x
_atom_site_fract_y
_atom_site_fract_z
Si Si1 0.203613 0.173510 0.168458
Si Si2 0.097071 0.943526 0.673325
Si Si3 0.153323 0.029898 0.671234
Si Si4 0.105751 0.718553 0.329666
Si Si5 0.456780 0.859415 0.667168
Si Si6 0.719354 0.630031 0.171705
Si Si7 0.446030 0.298067 0.167176
Si Si8 0.808716 0.399466 0.330643
O O1 0.272949 0.208912 0.249742
O O2 0.067074 0.179368 0.190537
O O3 0.233565 0.130557 0.234249
O O4 0.240513 0.174436 0.000000
O O5 0.107834 0.936803 0.500000
O O6 0.154234 0.906283 0.752267
O O7 0.963159 0.947587 0.727632
O O8 0.163751 0.984163 0.727616
O O9 0.136364 0.026358 0.500000
O O10 0.268573 0.055495 0.712891
O O11 0.132648 0.722193 0.500000
O O12 0.012223 0.683768 0.297599
O O13 0.055090 0.759962 0.271741
O O14 0.412770 0.861313 0.500000
O O15 0.351726 0.867498 0.775580
O O16 0.553593 0.893903 0.697043
O O17 0.656429 0.671614 0.212758
O O18 0.717070 0.622460 0.000000
O O19 0.431309 0.283773 0.000000
O O20 0.780143 0.390054 0.500000
#
# Coordination Sequence:
#
# PCOD8226129 Si02
#       8
#     8   8   8   8   8   8   8   8
#     4  10  20  35  54  77 107 136 169 213 264 322
#     4   9  17  32  55  83 112 141 175 219 271 322
#     4   8  15  30  56  85 110 138 175 221 271 321
#     4  10  22  38  57  80 104 132 176 226 267 313
#     4   9  20  37  54  75 103 138 178 221 265 313
#     4  11  23  37  53  76 108 145 181 217 264 321
#     4  10  23  38  53  76 105 140 176 215 266 323
#     4   9  17  33  56  80 105 136 179 223 264 313
#
# _framework density 18.286283000000001
#
# number of rings (size 3 to 8) (size 9 to 14) (size 15 to 20)
#    0.000    2.500    0.000    3.375    1.750    4.500 
#    0.000    2.500    0.000    3.750    0.000    0.000 
#    0.000    0.000    0.000    0.000    0.000    0.000 
#
# Total GULP energy -793537.312848 kJ/mol
# GULP energy per Si atom -12399.020513 kJ/mol
# Density = 1.824466 g / cm^3
# Si number density = 18.286283 Si / 1000 Ang^3
#
#
#
# Elastic Constant Matrix: (Units=GPa)
#
#
# Indices 1 2 3 4 5 6 
#
# 1 77.6593 29.6302 35.1525 0.0000 0.0000 0.0000
# 2 29.6302 80.6361 37.3768 0.0000 0.0000 0.0000
# 3 35.1525 37.3768 73.1919 0.0000 0.0000 0.0000
# 4 0.0000 0.0000 0.0000 18.1539 0.0000 0.0000
# 5 0.0000 0.0000 0.0000 0.0000 26.2380 0.0000
# 6 0.0000 0.0000 0.0000 0.0000 0.0000 21.2727
#
#
#
# Elastic Compliance Matrix: (Units=1/GPa)
#
#
# Indices 1 2 3 4 5 6 
#
# 1 0.017076 -0.003240 -0.006547 0.000000 0.000000 0.000000
# 2 -0.003240 0.016862 -0.007055 0.000000 0.000000 0.000000
# 3 -0.006547 -0.007055 0.020410 0.000000 0.000000 0.000000
# 4 0.000000 0.000000 0.000000 0.055084 0.000000 0.000000
# 5 0.000000 0.000000 0.000000 0.000000 0.038113 0.000000
# 6 0.000000 0.000000 0.000000 0.000000 0.000000 0.047009
#
#
# Mechanical properties :
#
#
# Convention : Reuss Voigt Hill
#
# Bulk Modulus (GPa) = 48.39175 48.42293 48.40734
# Shear Modulus (GPa) = 21.26524 21.75479 21.51002
#
# Velocity S-wave (km/s) = 3.41384 3.45291 3.43343
# Velocity P-wave (km/s) = 6.48536 6.51420 6.49980
#
# Compressibility (1/GPa) = 0.02066468
#
# Stress axis : x y z
#
# Youngs Moduli (GPa) = 58.56019 59.30471 48.99655
#
# Poissons Ratio (x) = 0.19216 0.32077
# Poissons Ratio (y) = 0.18975 0.34566
# Poissons Ratio (z) = 0.38338 0.41838
#
# Static dielectric constant tensor:
#      x y z
#    x 3.350540 0.000000 0.000000 
#    y 0.000000 3.479210 0.000000 
#    z 0.000000 0.000000 3.281910 
# 
# 
# High freq. dielectric constant tensor:
#      x y z
#    x 1.706680 0.000000 0.000000 
#    y 0.000000 1.710720 0.000000 
#    z 0.000000 0.000000 1.698980 
# 
# From -- ./inp_files/4694.got.cif
#   From: 2010.03.12/outbox.cif.g09.slc.cpg/sg55_3_cif.got.tgz:4694.got - 2010.04.16 15:19:21.
