data_PCOD8226685
_publ_section_title
;
Structure prediction by ZEFSAII (Michael W. Deem and Ramdas Pophale) SiO2 
 PCOD8226685
Probable space group: P B A M
;
_chemical_formula_sum "Si O2"
_cell_formula_units_Z 40
_cell_length_a 13.814430
_cell_length_b 18.734031
_cell_length_c 7.412047
_cell_angle_alpha 90.000000
_cell_angle_beta 90.000000
_cell_angle_gamma 90.000000
_cell_volume 1918.237466
_symmetry_space_group_name_H-M "P B A M"
_symmetry_group_IT_number 55
_symmetry_cell_setting 'orthorhombic'
loop_
_space_group_symop_operation_xyz
x,y,z
-x,-y,z
1/2+x,1/2-y,-z
1/2-x,1/2+y,-z
-x,-y,-z
x,y,-z
1/2-x,1/2+y,z
1/2+x,1/2-y,z
loop_
_atom_site_type_symbol
_atom_site_label
_atom_site_fract_x
_atom_site_fract_y
_atom_site_fract_z
Si Si1 0.798371 0.027568 0.211943
Si Si2 0.445504 0.109170 0.500000
Si Si3 0.061775 0.847151 0.211267
Si Si4 0.644342 0.045971 0.500000
Si Si5 0.149626 0.130065 0.787484
Si Si6 0.155340 0.702407 0.213210
O O1 0.889362 0.077744 0.259960
O O2 0.706351 0.057204 0.318840
O O3 0.822778 0.948513 0.284358
O O4 0.773539 0.029555 0.000000
O O5 0.561706 0.106094 0.500000
O O6 0.413497 0.147902 0.683105
O O7 0.401204 0.031517 0.500000
O O8 0.127788 0.781720 0.281665
O O9 0.953475 0.845418 0.296834
O O10 0.052270 0.837698 0.000000
O O11 0.232769 0.186700 0.733195
O O12 0.138488 0.123903 0.000000
O O13 0.139322 0.690849 0.000000
#
# Coordination Sequence:
#
# PCOD8226685 Si02
#       6
#     8   4   8   4   8   8
#     4  10  20  38  62  89 120 156 196 246 300 352
#     4  11  24  41  58  83 119 155 199 249 289 348
#     4   9  19  35  60  92 121 152 199 249 294 353
#     4  11  24  39  59  88 117 152 202 249 289 347
#     4   9  17  34  60  86 117 157 193 237 298 351
#     4  10  21  39  61  85 118 161 199 239 299 359
#
# _framework density 20.852474999999998
#
# number of rings (size 3 to 8) (size 9 to 14) (size 15 to 20)
#    0.000    2.200    2.000    0.600    0.000    5.600 
#    0.000   11.000    0.000    0.000    0.000    0.000 
#    0.000    0.000    0.000    0.000    0.000    0.000 
#
# Total GULP energy -495912.926262 kJ/mol
# GULP energy per Si atom -12397.823157 kJ/mol
# Density = 2.080501 g / cm^3
# Si number density = 20.852475 Si / 1000 Ang^3
#
#
#
# Elastic Constant Matrix: (Units=GPa)
#
#
# Indices 1 2 3 4 5 6 
#
# 1 191.5134 72.2968 39.7743 0.0000 0.0000 0.0000
# 2 72.2968 96.8358 21.5089 0.0000 0.0000 0.0000
# 3 39.7743 21.5089 68.2270 0.0000 0.0000 0.0000
# 4 0.0000 0.0000 0.0000 6.6518 0.0000 0.0000
# 5 0.0000 0.0000 0.0000 0.0000 -1.7286 0.0000
# 6 0.0000 0.0000 0.0000 0.0000 0.0000 35.3279
#
#
#
# Elastic Compliance Matrix: (Units=1/GPa)
#
#
# Indices 1 2 3 4 5 6 
#
# 1 0.007772 -0.005157 -0.002905 0.000000 0.000000 0.000000
# 2 -0.005157 0.014526 -0.001573 0.000000 0.000000 0.000000
# 3 -0.002905 -0.001573 0.016846 0.000000 0.000000 0.000000
# 4 0.000000 0.000000 0.000000 0.150336 0.000000 0.000000
# 5 0.000000 0.000000 0.000000 0.000000 -0.578496 0.000000
# 6 0.000000 0.000000 0.000000 0.000000 0.000000 0.028306
#
#
# Mechanical properties :
#
#
# Convention : Reuss Voigt Hill
#
# Bulk Modulus (GPa) = 50.31614 69.30404 59.81009
# Shear Modulus (GPa) = -14.93363 22.91662 3.99150
#
# Velocity S-wave (km/s) = -2.67901 3.31870 1.38503
# Velocity P-wave (km/s) = 3.82263 6.92766 5.59486
#
# Compressibility (1/GPa) = 0.01987434
#
# Stress axis : x y z
#
# Youngs Moduli (GPa) = 128.67270 68.84033 59.36008
#
# Poissons Ratio (x) = 0.35501 0.17243
# Poissons Ratio (y) = 0.66357 0.09338
# Poissons Ratio (z) = 0.37378 0.10829
#
# Static dielectric constant tensor:
#      x y z
#    x 4.151000 0.000000 0.000000 
#    y 0.000000 3.903470 0.000000 
#    z 0.000000 0.000000 3.566700 
# 
# 
# High freq. dielectric constant tensor:
#      x y z
#    x 1.822070 0.000000 0.000000 
#    y 0.000000 1.813260 0.000000 
#    z 0.000000 0.000000 1.806400 
# 
# From -- ./inp_files/3657.got.cif
#   From: 2010.03.12/outbox.cif.g09.slc.cpg/sg55_2_cif.got.tgz:3657.got - 2010.04.16 15:19:21.
