data_PCOD8226121
_publ_section_title
;
Structure prediction by ZEFSAII (Michael W. Deem and Ramdas Pophale) SiO2 
 PCOD8226121
Probable space group: P B A M
;
_chemical_formula_sum "Si O2"
_cell_formula_units_Z 64
_cell_length_a 18.585107
_cell_length_b 20.819683
_cell_length_c 8.919700
_cell_angle_alpha 90.000000
_cell_angle_beta 90.000000
_cell_angle_gamma 90.000000
_cell_volume 3451.353363
_symmetry_space_group_name_H-M "P B A M"
_symmetry_group_IT_number 55
_symmetry_cell_setting 'orthorhombic'
loop_
_space_group_symop_operation_xyz
x,y,z
-x,-y,z
1/2+x,1/2-y,-z
1/2-x,1/2+y,-z
-x,-y,-z
x,y,-z
1/2-x,1/2+y,z
1/2+x,1/2-y,z
loop_
_atom_site_type_symbol
_atom_site_label
_atom_site_fract_x
_atom_site_fract_y
_atom_site_fract_z
Si Si1 0.414508 0.123260 0.677867
Si Si2 0.828420 0.501479 0.321767
Si Si3 0.571373 0.752844 0.172937
Si Si4 0.833802 0.001366 0.676446
Si Si5 0.578255 0.117537 0.323544
Si Si6 0.915555 0.884905 0.173886
Si Si7 0.084609 0.888145 0.169195
Si Si8 0.421232 0.741990 0.674581
O O1 0.409865 0.134247 0.500000
O O2 0.366425 0.063769 0.731331
O O3 0.383205 0.186450 0.764405
O O4 0.496207 0.110702 0.734471
O O5 0.828666 0.506067 0.500000
O O6 0.747283 0.502573 0.259820
O O7 0.871624 0.562241 0.252032
O O8 0.613867 0.685129 0.185278
O O9 0.504306 0.747707 0.283635
O O10 0.547248 0.763257 0.000000
O O11 0.834244 0.992727 0.500000
O O12 0.875782 0.942311 0.745740
O O13 0.872064 0.067983 0.716600
O O14 0.575147 0.107616 0.500000
O O15 0.612420 0.187857 0.285445
O O16 0.885075 0.816530 0.234290
O O17 0.000113 0.890742 0.208163
O O18 0.898437 0.888457 0.000000
O O19 0.096629 0.913518 0.000000
O O20 0.413369 0.726293 0.500000
#
# Coordination Sequence:
#
# PCOD8226121 Si02
#       8
#     8   8   8   8   8   8   8   8
#     4   9  16  29  53  78  98 127 168 208 242 286
#     4   9  18  32  48  72 104 132 163 204 250 293
#     4   9  17  30  49  74 104 131 158 200 252 297
#     4  11  22  33  49  73 100 130 164 206 248 291
#     4   8  14  27  51  78 100 126 160 201 246 289
#     4  10  20  35  54  73  98 131 163 201 250 299
#     4   9  19  35  53  71  94 128 163 198 245 297
#     4   9  16  28  51  80 102 123 161 207 247 291
#
# _framework density 18.543448999999999
#
# number of rings (size 3 to 8) (size 9 to 14) (size 15 to 20)
#    0.000    2.750    0.000    3.750    0.000    6.000 
#    0.000    2.500    0.000   20.250    0.000    0.000 
#    0.000    0.000    0.000    0.000    0.000    0.000 
#
# Total GULP energy -793204.455966 kJ/mol
# GULP energy per Si atom -12393.819624 kJ/mol
# Density = 1.850124 g / cm^3
# Si number density = 18.543449 Si / 1000 Ang^3
#
#
#
# Elastic Constant Matrix: (Units=GPa)
#
#
# Indices 1 2 3 4 5 6 
#
# 1 72.1534 63.1678 31.6946 0.0000 0.0000 0.0000
# 2 63.1678 176.6036 52.1105 0.0000 0.0000 0.0000
# 3 31.6946 52.1105 56.0696 0.0000 0.0000 0.0000
# 4 0.0000 0.0000 0.0000 21.6224 0.0000 0.0000
# 5 0.0000 0.0000 0.0000 0.0000 7.8602 0.0000
# 6 0.0000 0.0000 0.0000 0.0000 0.0000 -5.3738
#
#
#
# Elastic Compliance Matrix: (Units=1/GPa)
#
#
# Indices 1 2 3 4 5 6 
#
# 1 0.022041 -0.005797 -0.007071 0.000000 0.000000 0.000000
# 2 -0.005797 0.009327 -0.005391 0.000000 0.000000 0.000000
# 3 -0.007071 -0.005391 0.026843 0.000000 0.000000 0.000000
# 4 0.000000 0.000000 0.000000 0.046248 0.000000 0.000000
# 5 0.000000 0.000000 0.000000 0.000000 0.127224 0.000000
# 6 0.000000 0.000000 0.000000 0.000000 0.000000 -0.186089
#
#
# Mechanical properties :
#
#
# Convention : Reuss Voigt Hill
#
# Bulk Modulus (GPa) = 46.10209 66.53027 56.31618
# Shear Modulus (GPa) = 55.96453 15.34535 35.65494
#
# Velocity S-wave (km/s) = 5.49961 2.87981 4.38971
# Velocity P-wave (km/s) = 8.07733 6.85665 7.49189
#
# Compressibility (1/GPa) = 0.02169099
#
# Stress axis : x y z
#
# Youngs Moduli (GPa) = 45.37084 107.21950 37.25406
#
# Poissons Ratio (x) = 0.62155 0.26343
# Poissons Ratio (y) = 0.26301 0.20084
# Poissons Ratio (z) = 0.32083 0.57804
#
# Static dielectric constant tensor:
#      x y z
#    x 3.186920 0.000000 0.000000 
#    y 0.000000 3.972990 0.000000 
#    z 0.000000 0.000000 3.248900 
# 
# 
# High freq. dielectric constant tensor:
#      x y z
#    x 1.675580 0.000000 0.000000 
#    y 0.000000 1.745770 0.000000 
#    z 0.000000 0.000000 1.700480 
# 
# From -- ./inp_files/7936.got.cif
#   From: 2010.03.12/outbox.cif.g09.slc.cpg/sg55_4_cif.got.tgz:7936.got - 2010.04.16 15:19:21.
