data_PCOD8226721
_publ_section_title
;
Structure prediction by ZEFSAII (Michael W. Deem and Ramdas Pophale) SiO2 
 PCOD8226721
Probable space group: P B A M
;
_chemical_formula_sum "Si O2"
_cell_formula_units_Z 48
_cell_length_a 20.264120
_cell_length_b 8.601933
_cell_length_c 13.460973
_cell_angle_alpha 90.000000
_cell_angle_beta 90.000000
_cell_angle_gamma 90.000000
_cell_volume 2346.390314
_symmetry_space_group_name_H-M "P B A M"
_symmetry_group_IT_number 55
_symmetry_cell_setting 'orthorhombic'
loop_
_space_group_symop_operation_xyz
x,y,z
-x,-y,z
1/2+x,1/2-y,-z
1/2-x,1/2+y,-z
-x,-y,-z
x,y,-z
1/2-x,1/2+y,z
1/2+x,1/2-y,z
loop_
_atom_site_type_symbol
_atom_site_label
_atom_site_fract_x
_atom_site_fract_y
_atom_site_fract_z
Si Si1 0.310548 0.584800 0.113290
Si Si2 0.311771 0.914067 0.197010
Si Si3 0.068673 0.917356 0.204928
Si Si4 0.711681 0.259203 0.388638
Si Si5 0.656537 0.599942 0.611223
Si Si6 0.934853 0.412098 0.884229
O O1 0.308311 0.770362 0.121162
O O2 0.256417 0.508583 0.185908
O O3 0.382878 0.530182 0.145149
O O4 0.295921 0.536589 0.000000
O O5 0.323665 0.851691 0.308752
O O6 0.371841 0.026895 0.174380
O O7 0.097611 0.871119 0.312275
O O8 0.056004 0.768426 0.137308
O O9 0.000000 0.000000 0.224642
O O10 0.690206 0.207636 0.500000
O O11 0.790661 0.239239 0.376154
O O12 0.693421 0.436963 0.367494
O O13 0.626718 0.600740 0.500000
O O14 0.000000 0.500000 0.846784
O O15 0.922805 0.440228 0.000000
#
# Coordination Sequence:
#
# PCOD8226721 Si02
#       6
#     8   8   8   8   8   8
#     4  12  24  38  62  94 127 167 213 262 314 374
#     4  12  22  41  64  94 128 165 206 265 318 373
#     4  12  25  42  64  91 124 171 214 262 321 379
#     4  10  20  38  66  96 125 159 205 257 315 371
#     4  10  22  41  65  96 128 163 206 261 320 379
#     4  11  26  45  65  90 126 170 215 263 317 381
#
# _framework density 20.456954
#
# number of rings (size 3 to 8) (size 9 to 14) (size 15 to 20)
#    0.000    0.833    3.333    4.000    2.333    3.000 
#    0.000    0.000    0.000    1.000    0.000    0.000 
#    0.000    0.000    0.000    0.000    0.000    0.000 
#
# Total GULP energy -595436.746238 kJ/mol
# GULP energy per Si atom -12404.932213 kJ/mol
# Density = 2.041039 g / cm^3
# Si number density = 20.456954 Si / 1000 Ang^3
#
#
#
# Elastic Constant Matrix: (Units=GPa)
#
#
# Indices 1 2 3 4 5 6 
#
# 1 113.4147 28.0189 24.6786 0.0000 0.0000 0.0000
# 2 28.0189 57.9749 -5.2951 0.0000 0.0000 0.0000
# 3 24.6786 -5.2951 98.7723 0.0000 0.0000 0.0000
# 4 0.0000 0.0000 0.0000 29.3752 0.0000 0.0000
# 5 0.0000 0.0000 0.0000 0.0000 56.7560 0.0000
# 6 0.0000 0.0000 0.0000 0.0000 0.0000 33.7535
#
#
#
# Elastic Compliance Matrix: (Units=1/GPa)
#
#
# Indices 1 2 3 4 5 6 
#
# 1 0.010831 -0.005509 -0.003002 0.000000 0.000000 0.000000
# 2 -0.005509 0.020136 0.002456 0.000000 0.000000 0.000000
# 3 -0.003002 0.002456 0.011006 0.000000 0.000000 0.000000
# 4 0.000000 0.000000 0.000000 0.034042 0.000000 0.000000
# 5 0.000000 0.000000 0.000000 0.000000 0.017619 0.000000
# 6 0.000000 0.000000 0.000000 0.000000 0.000000 0.029627
#
#
# Mechanical properties :
#
#
# Convention : Reuss Voigt Hill
#
# Bulk Modulus (GPa) = 33.48556 40.55187 37.01872
# Shear Modulus (GPa) = 34.40576 38.82757 36.61666
#
# Velocity S-wave (km/s) = 4.10550 4.36135 4.23535
# Velocity P-wave (km/s) = 6.23521 6.72516 6.48482
#
# Compressibility (1/GPa) = 0.02986362
#
# Stress axis : x y z
#
# Youngs Moduli (GPa) = 92.32523 49.66348 90.86032
#
# Poissons Ratio (x) = 0.27359 0.27272
# Poissons Ratio (y) = 0.50860 -0.22314
# Poissons Ratio (z) = 0.27712 -0.12197
#
# Static dielectric constant tensor:
#      x y z
#    x 3.524550 0.000000 0.000000 
#    y 0.000000 3.766640 0.000000 
#    z 0.000000 0.000000 3.931080 
# 
# 
# High freq. dielectric constant tensor:
#      x y z
#    x 1.781280 0.000000 0.000000 
#    y 0.000000 1.807220 0.000000 
#    z 0.000000 0.000000 1.818490 
# 
# From -- ./inp_files/17340.got.cif
#   From: 2010.03.12/outbox.cif.g09.slc.cpg/sg55_9_cif.got.tgz:17340.got - 2010.04.16 15:19:21.
