data_PCOD8226531
_publ_section_title
;
Structure prediction by ZEFSAII (Michael W. Deem and Ramdas Pophale) SiO2 
 PCOD8226531
Probable space group: P B A M
;
_chemical_formula_sum "Si O2"
_cell_formula_units_Z 48
_cell_length_a 14.548660
_cell_length_b 14.839715
_cell_length_c 11.022879
_cell_angle_alpha 90.000000
_cell_angle_beta 90.000000
_cell_angle_gamma 90.000000
_cell_volume 2379.817178
_symmetry_space_group_name_H-M "P B A M"
_symmetry_group_IT_number 55
_symmetry_cell_setting 'orthorhombic'
loop_
_space_group_symop_operation_xyz
x,y,z
-x,-y,z
1/2+x,1/2-y,-z
1/2-x,1/2+y,-z
-x,-y,-z
x,y,-z
1/2-x,1/2+y,z
1/2+x,1/2-y,z
loop_
_atom_site_type_symbol
_atom_site_label
_atom_site_fract_x
_atom_site_fract_y
_atom_site_fract_z
Si Si1 0.613600 0.825782 0.249511
Si Si2 0.560928 0.231690 0.363275
Si Si3 0.419654 0.567983 0.360357
Si Si4 0.535829 0.864848 0.000000
Si Si5 0.254079 0.318749 0.641496
Si Si6 0.849421 0.543688 0.000000
Si Si7 0.756693 0.494044 0.244963
O O1 0.520445 0.834468 0.325912
O O2 0.669087 0.736278 0.285048
O O3 0.666434 0.919218 0.275461
O O4 0.577041 0.811044 0.113530
O O5 0.583604 0.207734 0.500000
O O6 0.533053 0.335085 0.343013
O O7 0.657808 0.212346 0.298076
O O8 0.500000 0.500000 0.330316
O O9 0.382893 0.557699 0.500000
O O10 0.340406 0.557730 0.258214
O O11 0.422553 0.871664 0.000000
O O12 0.580699 0.962195 0.000000
O O13 0.268556 0.294973 0.500000
O O14 0.256256 0.426469 0.657228
O O15 0.780526 0.539538 0.884681
#
# Coordination Sequence:
#
# PCOD8226531 Si02
#       7
#     8   8   8   4   8   4   8
#     4  11  22  40  62  88 125 168 215 264 321 388
#     4  10  21  36  56  86 123 158 203 266 318 378
#     4  10  20  37  59  86 123 169 213 255 321 391
#     4   9  20  39  63  89 123 169 210 254 323 374
#     4  11  23  37  58  92 124 159 214 267 321 391
#     4   9  20  39  62  93 124 159 215 265 307 392
#     4  11  22  39  64  88 125 172 212 266 332 380
#
# _framework density 20.169616999999999
#
# number of rings (size 3 to 8) (size 9 to 14) (size 15 to 20)
#    0.000    1.667    1.667    3.000    0.000    6.000 
#    0.000    3.750    0.000    0.000    0.000    0.000 
#    0.000    0.000    0.000    0.000    0.000    0.000 
#
# Total GULP energy -594725.722034 kJ/mol
# GULP energy per Si atom -12390.119209 kJ/mol
# Density = 2.012371 g / cm^3
# Si number density = 20.169617 Si / 1000 Ang^3
#
#
#
# Elastic Constant Matrix: (Units=GPa)
#
#
# Indices 1 2 3 4 5 6 
#
# 1 127.5910 28.7016 67.0274 0.0000 0.0000 0.0000
# 2 28.7016 76.9333 44.7972 0.0000 0.0000 0.0000
# 3 67.0274 44.7972 71.9637 0.0000 0.0000 0.0000
# 4 0.0000 0.0000 0.0000 24.8682 0.0000 0.0000
# 5 0.0000 0.0000 0.0000 0.0000 763.9309 0.0000
# 6 0.0000 0.0000 0.0000 0.0000 0.0000 38.4789
#
#
#
# Elastic Compliance Matrix: (Units=1/GPa)
#
#
# Indices 1 2 3 4 5 6 
#
# 1 0.016207 0.004303 -0.017774 0.000000 0.000000 0.000000
# 2 0.004303 0.021531 -0.017411 0.000000 0.000000 0.000000
# 3 -0.017774 -0.017411 0.041289 0.000000 0.000000 0.000000
# 4 0.000000 0.000000 0.000000 0.040212 0.000000 0.000000
# 5 0.000000 0.000000 0.000000 0.000000 0.001309 0.000000
# 6 0.000000 0.000000 0.000000 0.000000 0.000000 0.025988
#
#
# Mechanical properties :
#
#
# Convention : Reuss Voigt Hill
#
# Bulk Modulus (GPa) = 57.92617 61.94895 59.93756
# Shear Modulus (GPa) = 23.35875 174.51973 98.93924
#
# Velocity S-wave (km/s) = 3.40680 9.31203 7.01143
# Velocity P-wave (km/s) = 6.65259 12.09955 9.76361
#
# Compressibility (1/GPa) = 0.01726335
#
# Stress axis : x y z
#
# Youngs Moduli (GPa) = 61.70349 46.44455 24.21981
#
# Poissons Ratio (x) = -0.19986 0.43047
# Poissons Ratio (y) = -0.26552 0.42169
# Poissons Ratio (z) = 1.09669 0.80864
#
# Static dielectric constant tensor:
#      x y z
#    x 3.745100 0.000000 0.000000 
#    y 0.000000 3.590590 0.000000 
#    z 0.000000 0.000000 3.695910 
# 
# 
# High freq. dielectric constant tensor:
#      x y z
#    x 1.801270 0.000000 0.000000 
#    y 0.000000 1.784970 0.000000 
#    z 0.000000 0.000000 1.766500 
# 
# From -- ./inp_files/14176.got.cif
#   From: 2010.03.12/outbox.cif.g09.slc.cpg/sg55_8_cif.got.tgz:14176.got - 2010.04.16 15:19:21.
