data_PCOD8226643
_publ_section_title
;
Structure prediction by ZEFSAII (Michael W. Deem and Ramdas Pophale) SiO2 
 PCOD8226643
Probable space group: P B A M
;
_chemical_formula_sum "Si O2"
_cell_formula_units_Z 64
_cell_length_a 18.353895
_cell_length_b 19.165197
_cell_length_c 9.277187
_cell_angle_alpha 90.000000
_cell_angle_beta 90.000000
_cell_angle_gamma 90.000000
_cell_volume 3263.306315
_symmetry_space_group_name_H-M "P B A M"
_symmetry_group_IT_number 55
_symmetry_cell_setting 'orthorhombic'
loop_
_space_group_symop_operation_xyz
x,y,z
-x,-y,z
1/2+x,1/2-y,-z
1/2-x,1/2+y,-z
-x,-y,-z
x,y,-z
1/2-x,1/2+y,z
1/2+x,1/2-y,z
loop_
_atom_site_type_symbol
_atom_site_label
_atom_site_fract_x
_atom_site_fract_y
_atom_site_fract_z
Si Si1 0.860074 0.658660 0.171247
Si Si2 0.349065 0.603678 0.162071
Si Si3 0.416463 0.993438 0.828431
Si Si4 0.075693 0.219937 0.330874
Si Si5 0.711196 0.733849 0.829328
Si Si6 0.415016 0.332984 0.336375
Si Si7 0.688447 0.887953 0.837308
Si Si8 0.083860 0.992217 0.346619
O O1 0.876663 0.578736 0.219800
O O2 0.920783 0.705250 0.252198
O O3 0.780700 0.687682 0.224430
O O4 0.869209 0.666612 0.000000
O O5 0.362049 0.670632 0.262949
O O6 0.266776 0.574980 0.168129
O O7 0.395309 0.538057 0.210985
O O8 0.370914 0.625560 0.000000
O O9 0.500000 0.000000 0.771884
O O10 0.370675 0.059730 0.763507
O O11 0.415102 0.996771 0.000000
O O12 0.090464 0.228637 0.500000
O O13 0.998050 0.185119 0.298613
O O14 0.636079 0.701056 0.781005
O O15 0.703842 0.812430 0.764014
O O16 0.717015 0.737948 0.000000
O O17 0.397286 0.308856 0.500000
O O18 0.397417 0.413265 0.314076
O O19 0.661412 0.875286 0.000000
O O20 0.121206 0.015680 0.500000
O O21 0.000000 0.000000 0.372271
#
# Coordination Sequence:
#
# PCOD8226643 Si02
#       8
#     8   8   8   8   8   8   8   8
#     4  10  21  38  60  89 118 148 198 252 298 353
#     4  11  21  35  58  86 117 148 192 243 287 345
#     4   9  19  35  58  85 116 155 194 235 295 358
#     4  11  22  39  60  82 116 158 195 238 300 357
#     4  10  21  37  58  86 119 149 190 251 302 342
#     4  10  23  39  56  81 115 156 197 237 287 356
#     4   9  19  36  55  82 117 149 184 237 296 348
#     4  10  20  38  56  76 116 157 190 229 280 347
#
# _framework density 19.612010999999999
#
# number of rings (size 3 to 8) (size 9 to 14) (size 15 to 20)
#    0.000    2.000    2.500    0.750    3.500    2.250 
#    0.000    0.000    0.000    1.125    0.000    0.000 
#    0.000    0.000    0.000    0.000    0.000    0.000 
#
# Total GULP energy -792990.573691 kJ/mol
# GULP energy per Si atom -12390.477714 kJ/mol
# Density = 1.956737 g / cm^3
# Si number density = 19.612011 Si / 1000 Ang^3
#
#
#
# Elastic Constant Matrix: (Units=GPa)
#
#
# Indices 1 2 3 4 5 6 
#
# 1 88.6875 62.3718 25.3333 0.0000 0.0000 0.0000
# 2 62.3718 130.5135 32.6053 0.0000 0.0000 0.0000
# 3 25.3333 32.6053 44.5982 0.0000 0.0000 0.0000
# 4 0.0000 0.0000 0.0000 22.6473 0.0000 0.0000
# 5 0.0000 0.0000 0.0000 0.0000 13.1884 0.0000
# 6 0.0000 0.0000 0.0000 0.0000 0.0000 36.9650
#
#
#
# Elastic Compliance Matrix: (Units=1/GPa)
#
#
# Indices 1 2 3 4 5 6 
#
# 1 0.017771 -0.007305 -0.004754 0.000000 0.000000 0.000000
# 2 -0.007305 0.012377 -0.004899 0.000000 0.000000 0.000000
# 3 -0.004754 -0.004899 0.028705 0.000000 0.000000 0.000000
# 4 0.000000 0.000000 0.000000 0.044155 0.000000 0.000000
# 5 0.000000 0.000000 0.000000 0.000000 0.075824 0.000000
# 6 0.000000 0.000000 0.000000 0.000000 0.000000 0.027053
#
#
# Mechanical properties :
#
#
# Convention : Reuss Voigt Hill
#
# Bulk Modulus (GPa) = 40.10219 56.04666 48.07442
# Shear Modulus (GPa) = 20.15210 24.12605 22.13907
#
# Velocity S-wave (km/s) = 3.20900 3.51118 3.36349
# Velocity P-wave (km/s) = 5.84999 6.71399 6.29682
#
# Compressibility (1/GPa) = 0.02493630
#
# Stress axis : x y z
#
# Youngs Moduli (GPa) = 56.27183 80.79497 34.83770
#
# Poissons Ratio (x) = 0.59021 0.16561
# Poissons Ratio (y) = 0.41107 0.17068
# Poissons Ratio (z) = 0.26751 0.39583
#
# Static dielectric constant tensor:
#      x y z
#    x 3.602450 0.000000 0.000000 
#    y 0.000000 3.767160 0.000000 
#    z 0.000000 0.000000 3.314670 
# 
# 
# High freq. dielectric constant tensor:
#      x y z
#    x 1.762850 0.000000 0.000000 
#    y 0.000000 1.774970 0.000000 
#    z 0.000000 0.000000 1.731260 
# 
# From -- ./inp_files/8094.got.cif
#   From: 2010.03.12/outbox.cif.g09.slc.cpg/sg55_5_cif.got.tgz:8094.got - 2010.04.16 15:19:21.
