data_PCOD8226112
_publ_section_title
;
Structure prediction by ZEFSAII (Michael W. Deem and Ramdas Pophale) SiO2 
 PCOD8226112
Probable space group: P B A M
;
_chemical_formula_sum "Si O2"
_cell_formula_units_Z 64
_cell_length_a 18.986182
_cell_length_b 23.078155
_cell_length_c 8.383163
_cell_angle_alpha 90.000000
_cell_angle_beta 90.000000
_cell_angle_gamma 90.000000
_cell_volume 3673.217427
_symmetry_space_group_name_H-M "P B A M"
_symmetry_group_IT_number 55
_symmetry_cell_setting 'orthorhombic'
loop_
_space_group_symop_operation_xyz
x,y,z
-x,-y,z
1/2+x,1/2-y,-z
1/2-x,1/2+y,-z
-x,-y,-z
x,y,-z
1/2-x,1/2+y,z
1/2+x,1/2-y,z
loop_
_atom_site_type_symbol
_atom_site_label
_atom_site_fract_x
_atom_site_fract_y
_atom_site_fract_z
Si Si1 0.358145 0.442518 0.182716
Si Si2 0.995066 0.114086 0.315007
Si Si3 0.774809 0.169196 0.185892
Si Si4 0.355681 0.772469 0.686739
Si Si5 0.857672 0.275390 0.686158
Si Si6 0.272666 0.666323 0.184874
Si Si7 0.644733 0.433972 0.316183
Si Si8 0.000123 0.240676 0.815066
O O1 0.433905 0.414213 0.211356
O O2 0.297334 0.396255 0.224794
O O3 0.344685 0.497880 0.292365
O O4 0.353719 0.462148 0.000000
O O5 0.980646 0.100836 0.500000
O O6 0.998457 0.182638 0.289608
O O7 0.067430 0.084780 0.256756
O O8 0.693946 0.177988 0.237298
O O9 0.824044 0.212184 0.286497
O O10 0.785391 0.183779 0.000000
O O11 0.363684 0.783292 0.500000
O O12 0.323396 0.708900 0.716118
O O13 0.431255 0.777851 0.770564
O O14 0.867981 0.286271 0.500000
O O15 0.807687 0.325247 0.758772
O O16 0.932605 0.279793 0.773844
O O17 0.296314 0.600579 0.216425
O O18 0.279533 0.682248 0.000000
O O19 0.654678 0.417988 0.500000
O O20 0.000630 0.223610 0.000000
#
# Coordination Sequence:
#
# PCOD8226112 Si02
#       8
#     8   8   8   8   8   8   8   8
#     4  11  23  36  53  75 105 142 184 222 262 311
#     4  11  22  35  51  73 105 142 182 221 259 306
#     4  10  20  35  52  75 104 137 176 218 263 311
#     4  11  21  34  53  77 104 136 174 216 266 316
#     4  11  21  34  54  77 105 137 173 216 265 316
#     4  11  21  35  54  76 104 137 176 219 265 312
#     4  11  23  37  53  74 105 142 185 224 262 309
#     4  12  22  34  53  78 107 141 176 215 263 316
#
# _framework density 17.423418999999999
#
# number of rings (size 3 to 8) (size 9 to 14) (size 15 to 20)
#    0.000    1.000    2.500    7.875    0.000    4.500 
#    0.000    0.000    0.000    0.000    0.000    0.875 
#    0.000    7.000    0.000    0.000    0.000    0.000 
#
# Total GULP energy -794010.102082 kJ/mol
# GULP energy per Si atom -12406.407845 kJ/mol
# Density = 1.738376 g / cm^3
# Si number density = 17.423419 Si / 1000 Ang^3
#
#
#
# Elastic Constant Matrix: (Units=GPa)
#
#
# Indices 1 2 3 4 5 6 
#
# 1 129.0122 51.0521 20.7023 0.0000 0.0000 0.0000
# 2 51.0521 77.0381 17.6311 0.0000 0.0000 0.0000
# 3 20.7023 17.6311 63.8796 0.0000 0.0000 0.0000
# 4 0.0000 0.0000 0.0000 25.7662 0.0000 0.0000
# 5 0.0000 0.0000 0.0000 0.0000 27.2676 0.0000
# 6 0.0000 0.0000 0.0000 0.0000 0.0000 20.7106
#
#
#
# Elastic Compliance Matrix: (Units=1/GPa)
#
#
# Indices 1 2 3 4 5 6 
#
# 1 0.010659 -0.006696 -0.001606 0.000000 0.000000 0.000000
# 2 -0.006696 0.018062 -0.002815 0.000000 0.000000 0.000000
# 3 -0.001606 -0.002815 0.016952 0.000000 0.000000 0.000000
# 4 0.000000 0.000000 0.000000 0.038811 0.000000 0.000000
# 5 0.000000 0.000000 0.000000 0.000000 0.036674 0.000000
# 6 0.000000 0.000000 0.000000 0.000000 0.000000 0.048284
#
#
# Mechanical properties :
#
#
# Convention : Reuss Voigt Hill
#
# Bulk Modulus (GPa) = 42.66519 49.85565 46.26042
# Shear Modulus (GPa) = 25.06414 26.78516 25.92465
#
# Velocity S-wave (km/s) = 3.79691 3.92511 3.86154
# Velocity P-wave (km/s) = 6.61532 7.01557 6.81838
#
# Compressibility (1/GPa) = 0.02343831
#
# Stress axis : x y z
#
# Youngs Moduli (GPa) = 93.82168 55.36480 58.98998
#
# Poissons Ratio (x) = 0.37070 0.09475
# Poissons Ratio (y) = 0.62820 0.16607
# Poissons Ratio (z) = 0.15070 0.15587
#
# Static dielectric constant tensor:
#      x y z
#    x 3.453340 0.000000 0.000000 
#    y 0.000000 3.011590 0.000000 
#    z 0.000000 0.000000 3.288840 
# 
# 
# High freq. dielectric constant tensor:
#      x y z
#    x 1.670780 0.000000 0.000000 
#    y 0.000000 1.638710 0.000000 
#    z 0.000000 0.000000 1.692810 
# 
# From -- ./inp_files/9164.got.cif
#   From: 2010.03.12/outbox.cif.g09.slc.cpg/sg55_5_cif.got.tgz:9164.got - 2010.04.16 15:19:21.
