data_PCOD8226530
_publ_section_title
;
Structure prediction by ZEFSAII (Michael W. Deem and Ramdas Pophale) SiO2 
 PCOD8226530
Probable space group: P B A M
;
_chemical_formula_sum "Si O2"
_cell_formula_units_Z 64
_cell_length_a 11.999354
_cell_length_b 30.607704
_cell_length_c 8.950318
_cell_angle_alpha 90.000000
_cell_angle_beta 90.000000
_cell_angle_gamma 90.000000
_cell_volume 3287.207238
_symmetry_space_group_name_H-M "P B A M"
_symmetry_group_IT_number 55
_symmetry_cell_setting 'orthorhombic'
loop_
_space_group_symop_operation_xyz
x,y,z
-x,-y,z
1/2+x,1/2-y,-z
1/2-x,1/2+y,-z
-x,-y,-z
x,y,-z
1/2-x,1/2+y,z
1/2+x,1/2-y,z
loop_
_atom_site_type_symbol
_atom_site_label
_atom_site_fract_x
_atom_site_fract_y
_atom_site_fract_z
Si Si1 0.907163 0.874781 0.823159
Si Si2 0.507951 0.048786 0.822673
Si Si3 0.749151 0.077012 0.174838
Si Si4 0.149760 0.625485 0.176751
Si Si5 0.998246 0.697256 0.323641
Si Si6 0.470392 0.294971 0.329344
Si Si7 0.241886 0.336336 0.330468
Si Si8 0.956818 0.048559 0.329475
O O1 0.778055 0.875642 0.773219
O O2 0.963356 0.830422 0.766581
O O3 0.965415 0.917569 0.757324
O O4 0.919242 0.876825 0.000000
O O5 0.624818 0.068214 0.767283
O O6 0.409817 0.080812 0.764806
O O7 0.500000 0.000000 0.754358
O O8 0.503041 0.046157 0.000000
O O9 0.781431 0.126089 0.218190
O O10 0.834179 0.045322 0.258691
O O11 0.761475 0.069189 0.000000
O O12 0.091481 0.667676 0.246966
O O13 0.136783 0.629286 0.000000
O O14 0.017299 0.694936 0.500000
O O15 0.006632 0.746836 0.265384
O O16 0.875563 0.682135 0.275280
O O17 0.511799 0.299582 0.500000
O O18 0.336907 0.299838 0.319493
O O19 0.232496 0.354324 0.500000
O O20 0.950074 0.064574 0.500000
O O21 0.000000 0.000000 0.315080
#
# Coordination Sequence:
#
# PCOD8226530 Si02
#       8
#     8   8   8   8   8   8   8   8
#     4  11  24  40  61  89 120 155 199 247 295 351
#     4   9  19  36  59  86 117 155 193 236 297 352
#     4  11  21  36  64  91 115 152 200 248 294 350
#     4  10  22  40  59  85 122 156 193 247 299 349
#     4  10  22  38  61  89 117 158 204 242 289 355
#     4  10  22  39  61  86 118 159 198 244 297 350
#     4  10  20  37  59  85 119 154 196 248 297 347
#     4  11  25  43  62  86 121 160 196 241 297 351
#
# _framework density 19.469412999999999
#
# number of rings (size 3 to 8) (size 9 to 14) (size 15 to 20)
#    0.000    1.750    2.500    1.125    3.500    2.500 
#    0.000    0.000    0.000    1.875    0.000    0.000 
#    0.000    0.000    0.000    0.000    0.000    0.000 
#
# Total GULP energy -793690.331781 kJ/mol
# GULP energy per Si atom -12401.411434 kJ/mol
# Density = 1.942510 g / cm^3
# Si number density = 19.469413 Si / 1000 Ang^3
#
#
#
# Elastic Constant Matrix: (Units=GPa)
#
#
# Indices 1 2 3 4 5 6 
#
# 1 128.0623 46.1070 40.9154 0.0000 0.0000 0.0000
# 2 46.1070 116.7981 37.6593 0.0000 0.0000 0.0000
# 3 40.9154 37.6593 59.6708 0.0000 0.0000 0.0000
# 4 0.0000 0.0000 0.0000 18.7325 0.0000 0.0000
# 5 0.0000 0.0000 0.0000 0.0000 27.1349 0.0000
# 6 0.0000 0.0000 0.0000 0.0000 0.0000 31.0959
#
#
#
# Elastic Compliance Matrix: (Units=1/GPa)
#
#
# Indices 1 2 3 4 5 6 
#
# 1 0.010462 -0.002281 -0.005734 0.000000 0.000000 0.000000
# 2 -0.002281 0.011247 -0.005534 0.000000 0.000000 0.000000
# 3 -0.005734 -0.005534 0.024183 0.000000 0.000000 0.000000
# 4 0.000000 0.000000 0.000000 0.053383 0.000000 0.000000
# 5 0.000000 0.000000 0.000000 0.000000 0.036853 0.000000
# 6 0.000000 0.000000 0.000000 0.000000 0.000000 0.032159
#
#
# Mechanical properties :
#
#
# Convention : Reuss Voigt Hill
#
# Bulk Modulus (GPa) = 53.20968 61.54385 57.37677
# Shear Modulus (GPa) = 24.79568 27.38262 26.08915
#
# Velocity S-wave (km/s) = 3.57258 3.75433 3.66458
# Velocity P-wave (km/s) = 6.66386 7.10440 6.88765
#
# Compressibility (1/GPa) = 0.01879357
#
# Stress axis : x y z
#
# Youngs Moduli (GPa) = 95.58433 88.91629 41.35187
#
# Poissons Ratio (x) = 0.20283 0.23711
# Poissons Ratio (y) = 0.21804 0.22883
# Poissons Ratio (z) = 0.54807 0.49204
#
# Static dielectric constant tensor:
#      x y z
#    x 3.799560 0.000000 0.000000 
#    y 0.000000 3.647580 0.000000 
#    z 0.000000 0.000000 3.418730 
# 
# 
# High freq. dielectric constant tensor:
#      x y z
#    x 1.774360 0.000000 0.000000 
#    y 0.000000 1.764460 0.000000 
#    z 0.000000 0.000000 1.742540 
# 
# From -- ./inp_files/4679.got.cif
#   From: 2010.03.12/outbox.cif.g09.slc.cpg/sg55_3_cif.got.tgz:4679.got - 2010.04.16 15:19:21.
