data_PCOD8226192
_publ_section_title
;
Structure prediction by ZEFSAII (Michael W. Deem and Ramdas Pophale) SiO2 
 PCOD8226192
Probable space group: P B A M
;
_chemical_formula_sum "Si O2"
_cell_formula_units_Z 64
_cell_length_a 9.601681
_cell_length_b 31.064585
_cell_length_c 10.873080
_cell_angle_alpha 90.000000
_cell_angle_beta 90.000000
_cell_angle_gamma 90.000000
_cell_volume 3243.137879
_symmetry_space_group_name_H-M "P B A M"
_symmetry_group_IT_number 55
_symmetry_cell_setting 'orthorhombic'
loop_
_space_group_symop_operation_xyz
x,y,z
-x,-y,z
1/2+x,1/2-y,-z
1/2-x,1/2+y,-z
-x,-y,-z
x,y,-z
1/2-x,1/2+y,z
1/2+x,1/2-y,z
loop_
_atom_site_type_symbol
_atom_site_label
_atom_site_fract_x
_atom_site_fract_y
_atom_site_fract_z
Si Si1 0.216185 0.750139 0.731669
Si Si2 0.552302 0.884473 0.210478
Si Si3 0.638859 0.973207 0.137636
Si Si4 0.208523 0.404234 0.359978
Si Si5 0.474078 0.791215 0.864477
Si Si6 0.285015 0.660760 0.638878
Si Si7 0.412124 0.334276 0.642576
Si Si8 0.335799 0.496733 0.641949
O O1 0.359488 0.772302 0.772822
O O2 0.123492 0.731427 0.843250
O O3 0.243255 0.710928 0.639553
O O4 0.127208 0.784853 0.658371
O O5 0.604329 0.922418 0.121708
O O6 0.437783 0.907849 0.293669
O O7 0.488234 0.842977 0.142878
O O8 0.681462 0.869927 0.291243
O O9 0.500000 0.000000 0.171034
O O10 0.750309 0.978583 0.249890
O O11 0.693696 0.987485 0.000000
O O12 0.175198 0.392463 0.500000
O O13 0.298672 0.365968 0.297007
O O14 0.296555 0.447182 0.346907
O O15 0.423593 0.779317 0.000000
O O16 0.286559 0.644535 0.500000
O O17 0.436957 0.656481 0.702509
O O18 0.424631 0.345280 0.500000
O O19 0.500000 0.500000 0.668968
O O20 0.303031 0.512977 0.500000
#
# Coordination Sequence:
#
# PCOD8226192 Si02
#       8
#     8   8   8   8   8   8   8   8
#     4  11  20  38  57  80 113 151 199 243 302 354
#     4  11  22  39  61  87 121 157 202 250 305 365
#     4  11  24  43  67  94 128 167 209 260 315 375
#     4  10  20  36  59  90 121 155 195 244 303 368
#     4  11  23  38  58  80 112 155 205 254 295 352
#     4  10  22  36  57  87 119 156 195 245 305 363
#     4  10  20  35  56  84 119 151 188 241 296 358
#     4  10  23  42  67  96 129 166 205 255 316 380
#
# _framework density 19.733972999999999
#
# number of rings (size 3 to 8) (size 9 to 14) (size 15 to 20)
#    0.000    1.500    3.750    1.500    1.750    1.500 
#    0.000    0.000    0.000    0.000    0.000    0.000 
#    0.000    0.000    0.000    0.000    0.000    0.000 
#
# Total GULP energy -793199.236548 kJ/mol
# GULP energy per Si atom -12393.738071 kJ/mol
# Density = 1.968906 g / cm^3
# Si number density = 19.733973 Si / 1000 Ang^3
#
#
#
# Elastic Constant Matrix: (Units=GPa)
#
#
# Indices 1 2 3 4 5 6 
#
# 1 112.0486 27.8926 45.6936 0.0000 0.0000 0.0000
# 2 27.8926 94.9634 19.1621 0.0000 0.0000 0.0000
# 3 45.6936 19.1621 82.3965 0.0000 0.0000 0.0000
# 4 0.0000 0.0000 0.0000 13.7694 0.0000 0.0000
# 5 0.0000 0.0000 0.0000 0.0000 19.9012 0.0000
# 6 0.0000 0.0000 0.0000 0.0000 0.0000 37.5911
#
#
#
# Elastic Compliance Matrix: (Units=1/GPa)
#
#
# Indices 1 2 3 4 5 6 
#
# 1 0.011988 -0.002287 -0.006116 0.000000 0.000000 0.000000
# 2 -0.002287 0.011485 -0.001403 0.000000 0.000000 0.000000
# 3 -0.006116 -0.001403 0.015855 0.000000 0.000000 0.000000
# 4 0.000000 0.000000 0.000000 0.072625 0.000000 0.000000
# 5 0.000000 0.000000 0.000000 0.000000 0.050248 0.000000
# 6 0.000000 0.000000 0.000000 0.000000 0.000000 0.026602
#
#
# Mechanical properties :
#
#
# Convention : Reuss Voigt Hill
#
# Bulk Modulus (GPa) = 50.72061 52.76724 51.74393
# Shear Modulus (GPa) = 23.25721 27.36301 25.31011
#
# Velocity S-wave (km/s) = 3.43671 3.72774 3.58518
# Velocity P-wave (km/s) = 6.44251 6.73241 6.58906
#
# Compressibility (1/GPa) = 0.01971585
#
# Stress axis : x y z
#
# Youngs Moduli (GPa) = 83.41493 87.06889 63.07357
#
# Poissons Ratio (x) = 0.19913 0.38578
# Poissons Ratio (y) = 0.19077 0.08847
# Poissons Ratio (z) = 0.51019 0.12213
#
# Static dielectric constant tensor:
#      x y z
#    x 3.773110 0.000000 0.000000 
#    y 0.000000 3.663080 0.000000 
#    z 0.000000 0.000000 3.387330 
# 
# 
# High freq. dielectric constant tensor:
#      x y z
#    x 1.778290 0.000000 0.000000 
#    y 0.000000 1.778850 0.000000 
#    z 0.000000 0.000000 1.747690 
# 
# From -- ./inp_files/12597.got.cif
#   From: 2010.03.12/outbox.cif.g09.slc.cpg/sg55_7_cif.got.tgz:12597.got - 2010.04.16 15:19:21.
