data_PCOD8226812
_publ_section_title
;
Structure prediction by ZEFSAII (Michael W. Deem and Ramdas Pophale) SiO2 
 PCOD8226812
Probable space group: P B A M
;
_chemical_formula_sum "Si O2"
_cell_formula_units_Z 48
_cell_length_a 9.440596
_cell_length_b 30.998444
_cell_length_c 8.965670
_cell_angle_alpha 90.000000
_cell_angle_beta 90.000000
_cell_angle_gamma 90.000000
_cell_volume 2623.747617
_symmetry_space_group_name_H-M "P B A M"
_symmetry_group_IT_number 55
_symmetry_cell_setting 'orthorhombic'
loop_
_space_group_symop_operation_xyz
x,y,z
-x,-y,z
1/2+x,1/2-y,-z
1/2-x,1/2+y,-z
-x,-y,-z
x,y,-z
1/2-x,1/2+y,z
1/2+x,1/2-y,z
loop_
_atom_site_type_symbol
_atom_site_label
_atom_site_fract_x
_atom_site_fract_y
_atom_site_fract_z
Si Si1 0.889562 0.036068 0.826508
Si Si2 0.598414 0.632290 0.826609
Si Si3 0.405172 0.959821 0.324907
Si Si4 0.593560 0.790714 0.822583
Si Si5 0.913404 0.790271 0.821769
Si Si6 0.583450 0.127879 0.177418
O O1 0.955772 0.083569 0.796313
O O2 0.752166 0.029320 0.727701
O O3 0.847947 0.031428 0.000000
O O4 0.000000 0.000000 0.775845
O O5 0.489236 0.666697 0.755850
O O6 0.757708 0.638263 0.763324
O O7 0.605209 0.642784 0.000000
O O8 0.406411 0.951903 0.500000
O O9 0.468063 0.917296 0.245952
O O10 0.500000 0.000000 0.276572
O O11 0.753267 0.788050 0.758957
O O12 0.501757 0.750644 0.761987
O O13 0.521483 0.834827 0.766146
O O14 0.595141 0.789619 0.000000
O O15 0.908416 0.790637 0.000000
O O16 0.582590 0.123254 0.000000
#
# Coordination Sequence:
#
# PCOD8226812 Si02
#       6
#     8   8   8   8   8   8
#     4   9  18  32  51  75 101 129 162 203 248 289
#     4   8  14  25  40  60  90 123 152 186 229 277
#     4  10  21  35  50  70  97 130 165 200 242 292
#     4   9  16  24  38  63  93 123 152 187 233 281
#     4   9  15  23  37  62  96 126 151 185 232 283
#     4   9  17  30  47  67  91 121 158 198 240 282
#
# _framework density 18.294442
#
# number of rings (size 3 to 8) (size 9 to 14) (size 15 to 20)
#    0.000    3.000    0.000    2.500    0.000    7.000 
#    0.000    3.333    0.000    0.000    0.000   10.500 
#    0.000    0.000    0.000    0.000    0.000    0.000 
#
# Total GULP energy -595031.039384 kJ/mol
# GULP energy per Si atom -12396.479987 kJ/mol
# Density = 1.825280 g / cm^3
# Si number density = 18.294442 Si / 1000 Ang^3
#
#
#
# Elastic Constant Matrix: (Units=GPa)
#
#
# Indices 1 2 3 4 5 6 
#
# 1 132.8076 104.4028 13.6437 0.0000 0.0000 0.0000
# 2 104.4028 183.4688 25.4450 0.0000 0.0000 0.0000
# 3 13.6437 25.4450 13.9612 0.0000 0.0000 0.0000
# 4 0.0000 0.0000 0.0000 8.4726 0.0000 0.0000
# 5 0.0000 0.0000 0.0000 0.0000 10.9691 0.0000
# 6 0.0000 0.0000 0.0000 0.0000 0.0000 43.5468
#
#
#
# Elastic Compliance Matrix: (Units=1/GPa)
#
#
# Indices 1 2 3 4 5 6 
#
# 1 0.013637 -0.007912 0.001093 0.000000 0.000000 0.000000
# 2 -0.007912 0.011884 -0.013928 0.000000 0.000000 0.000000
# 3 0.001093 -0.013928 0.095944 0.000000 0.000000 0.000000
# 4 0.000000 0.000000 0.000000 0.118028 0.000000 0.000000
# 5 0.000000 0.000000 0.000000 0.000000 0.091165 0.000000
# 6 0.000000 0.000000 0.000000 0.000000 0.000000 0.022964
#
#
# Mechanical properties :
#
#
# Convention : Reuss Voigt Hill
#
# Bulk Modulus (GPa) = 12.50451 68.58008 40.54230
# Shear Modulus (GPa) = 11.85471 25.04743 18.45107
#
# Velocity S-wave (km/s) = 2.54834 3.70419 3.17923
# Velocity P-wave (km/s) = 3.93810 7.47415 5.97376
#
# Compressibility (1/GPa) = 0.07997115
#
# Stress axis : x y z
#
# Youngs Moduli (GPa) = 73.33029 84.14476 10.42272
#
# Poissons Ratio (x) = 0.66572 -0.01139
# Poissons Ratio (y) = 0.58016 0.14517
# Poissons Ratio (z) = -0.08012 1.17197
#
# Static dielectric constant tensor:
#      x y z
#    x 3.537620 0.000000 0.000000 
#    y 0.000000 3.644400 0.000000 
#    z 0.000000 0.000000 2.764730 
# 
# 
# High freq. dielectric constant tensor:
#      x y z
#    x 1.708910 0.000000 0.000000 
#    y 0.000000 1.727210 0.000000 
#    z 0.000000 0.000000 1.645170 
# 
# From -- ./inp_files/2873.got.cif
#   From: 2010.03.12/outbox.cif.g09.slc.cpg/sg55_2_cif.got.tgz:2873.got - 2010.04.16 15:19:21.
