data_PCOD8226366
_publ_section_title
;
Structure prediction by ZEFSAII (Michael W. Deem and Ramdas Pophale) SiO2 
 PCOD8226366
Probable space group: P B A M
;
_chemical_formula_sum "Si O2"
_cell_formula_units_Z 48
_cell_length_a 27.655949
_cell_length_b 9.453029
_cell_length_c 9.305455
_cell_angle_alpha 90.000000
_cell_angle_beta 90.000000
_cell_angle_gamma 90.000000
_cell_volume 2432.748252
_symmetry_space_group_name_H-M "P B A M"
_symmetry_group_IT_number 55
_symmetry_cell_setting 'orthorhombic'
loop_
_space_group_symop_operation_xyz
x,y,z
-x,-y,z
1/2+x,1/2-y,-z
1/2-x,1/2+y,-z
-x,-y,-z
x,y,-z
1/2-x,1/2+y,z
1/2+x,1/2-y,z
loop_
_atom_site_type_symbol
_atom_site_label
_atom_site_fract_x
_atom_site_fract_y
_atom_site_fract_z
Si Si1 0.607829 0.786394 0.664914
Si Si2 0.395347 0.718682 0.835602
Si Si3 0.205689 0.333247 0.829794
Si Si4 0.551501 0.562792 0.835441
Si Si5 0.702460 0.842504 0.828928
Si Si6 0.950656 0.562284 0.336542
O O1 0.616157 0.740735 0.500000
O O2 0.565227 0.691797 0.732368
O O3 0.656703 0.768456 0.755109
O O4 0.592193 0.949054 0.675313
O O5 0.342724 0.756851 0.770633
O O6 0.405802 0.552762 0.820314
O O7 0.437345 0.799918 0.752542
O O8 0.397952 0.768675 0.000000
O O9 0.251342 0.244843 0.772519
O O10 0.208341 0.495370 0.776931
O O11 0.206120 0.327700 0.000000
O O12 0.500000 0.500000 0.785958
O O13 0.547798 0.616120 0.000000
O O14 0.695699 0.832931 0.000000
O O15 0.959639 0.609896 0.500000
O O16 0.000000 0.500000 0.271102
#
# Coordination Sequence:
#
# PCOD8226366 Si02
#       6
#     8   8   8   8   8   8
#     4  11  23  38  57  84 117 153 193 235 286 347
#     4  10  20  36  58  85 113 143 190 240 285 339
#     4   9  19  34  58  87 109 141 185 234 288 341
#     4  10  22  38  58  86 119 155 195 242 291 341
#     4  10  20  37  60  84 112 146 187 235 288 343
#     4  10  21  37  57  81 112 151 190 231 283 343
#
# _framework density 19.730772000000002
#
# number of rings (size 3 to 8) (size 9 to 14) (size 15 to 20)
#    0.000    2.000    1.667    1.500    2.333    2.000 
#    0.000    1.667    0.000    0.000    0.000    0.000 
#    0.000    0.000    0.000    0.000    0.000    0.000 
#
# Total GULP energy -595348.155906 kJ/mol
# GULP energy per Si atom -12403.086581 kJ/mol
# Density = 1.968586 g / cm^3
# Si number density = 19.730772 Si / 1000 Ang^3
#
#
#
# Elastic Constant Matrix: (Units=GPa)
#
#
# Indices 1 2 3 4 5 6 
#
# 1 103.6476 14.4066 20.3168 0.0000 0.0000 0.0000
# 2 14.4066 61.8696 21.3197 0.0000 0.0000 0.0000
# 3 20.3168 21.3197 54.6919 0.0000 0.0000 0.0000
# 4 0.0000 0.0000 0.0000 15.2029 0.0000 0.0000
# 5 0.0000 0.0000 0.0000 0.0000 21.8027 0.0000
# 6 0.0000 0.0000 0.0000 0.0000 0.0000 40.6917
#
#
#
# Elastic Compliance Matrix: (Units=1/GPa)
#
#
# Indices 1 2 3 4 5 6 
#
# 1 0.010492 -0.001271 -0.003402 0.000000 0.000000 0.000000
# 2 -0.001271 0.018825 -0.006866 0.000000 0.000000 0.000000
# 3 -0.003402 -0.006866 0.022225 0.000000 0.000000 0.000000
# 4 0.000000 0.000000 0.000000 0.065777 0.000000 0.000000
# 5 0.000000 0.000000 0.000000 0.000000 0.045866 0.000000
# 6 0.000000 0.000000 0.000000 0.000000 0.000000 0.024575
#
#
# Mechanical properties :
#
#
# Convention : Reuss Voigt Hill
#
# Bulk Modulus (GPa) = 35.13307 36.92168 36.02737
# Shear Modulus (GPa) = 22.69378 26.48385 24.58882
#
# Velocity S-wave (km/s) = 3.39510 3.66766 3.53401
# Velocity P-wave (km/s) = 5.76314 6.05715 5.91197
#
# Compressibility (1/GPa) = 0.02846322
#
# Stress axis : x y z
#
# Youngs Moduli (GPa) = 95.31474 53.12097 44.99523
#
# Poissons Ratio (x) = 0.06750 0.15308
# Poissons Ratio (y) = 0.12112 0.30895
# Poissons Ratio (z) = 0.32426 0.36474
#
# Static dielectric constant tensor:
#      x y z
#    x 3.736690 0.000000 0.000000 
#    y 0.000000 3.518660 0.000000 
#    z 0.000000 0.000000 3.310890 
# 
# 
# High freq. dielectric constant tensor:
#      x y z
#    x 1.782380 0.000000 0.000000 
#    y 0.000000 1.768760 0.000000 
#    z 0.000000 0.000000 1.739650 
# 
# From -- ./inp_files/2815.got.cif
#   From: 2010.03.12/outbox.cif.g09.slc.cpg/sg55_2_cif.got.tgz:2815.got - 2010.04.16 15:19:21.
