data_PCOD8226299
_publ_section_title
;
Structure prediction by ZEFSAII (Michael W. Deem and Ramdas Pophale) SiO2 
 PCOD8226299
Probable space group: P B A M
;
_chemical_formula_sum "Si O2"
_cell_formula_units_Z 56
_cell_length_a 15.054975
_cell_length_b 8.406531
_cell_length_c 21.772411
_cell_angle_alpha 90.000000
_cell_angle_beta 90.000000
_cell_angle_gamma 90.000000
_cell_volume 2755.518819
_symmetry_space_group_name_H-M "P B A M"
_symmetry_group_IT_number 55
_symmetry_cell_setting 'orthorhombic'
loop_
_space_group_symop_operation_xyz
x,y,z
-x,-y,z
1/2+x,1/2-y,-z
1/2-x,1/2+y,-z
-x,-y,-z
x,y,-z
1/2-x,1/2+y,z
1/2+x,1/2-y,z
loop_
_atom_site_type_symbol
_atom_site_label
_atom_site_fract_x
_atom_site_fract_y
_atom_site_fract_z
Si Si1 0.842443 0.377703 0.673075
Si Si2 0.478812 0.680463 0.340521
Si Si3 0.991979 0.189958 0.932516
Si Si4 0.323454 0.790549 0.269301
Si Si5 0.838365 0.775219 0.869002
Si Si6 0.905112 0.577840 0.432369
Si Si7 0.309047 0.403138 0.069971
O O1 0.932373 0.275136 0.677797
O O2 0.844008 0.523114 0.721061
O O3 0.758685 0.264919 0.687331
O O4 0.839214 0.458900 0.605055
O O5 0.500000 0.500000 0.358673
O O6 0.411359 0.685676 0.283003
O O7 0.422176 0.757857 0.396207
O O8 0.057401 0.265194 0.881112
O O9 0.888340 0.226508 0.918160
O O10 0.018163 0.256493 0.000000
O O11 0.000000 0.000000 0.932744
O O12 0.302496 0.767690 0.198112
O O13 0.784417 0.679069 0.919895
O O14 0.820835 0.959637 0.880157
O O15 0.863519 0.610705 0.500000
O O16 0.000000 0.500000 0.440399
O O17 0.314779 0.468275 0.000000
#
# Coordination Sequence:
#
# PCOD8226299 Si02
#       7
#     8   8   8   8   8   8   8
#     4  10  21  39  58  82 120 157 193 241 291 342
#     4  10  21  37  60  87 117 157 197 246 306 352
#     4   8  16  32  52  73 101 137 176 222 280 344
#     4  11  22  36  55  82 117 156 198 240 289 355
#     4  11  21  34  55  80 105 143 188 233 284 346
#     4   8  16  34  59  85 115 153 194 237 287 339
#     4  10  20  36  56  78 106 140 182 235 293 347
#
# _framework density 20.322852000000001
#
# number of rings (size 3 to 8) (size 9 to 14) (size 15 to 20)
#    0.000    2.286    0.000    5.143    0.000    3.143 
#    0.000    5.000    0.000    6.000    0.000    0.000 
#    0.000    0.000    0.000    0.000    0.000    0.000 
#
# Total GULP energy -693965.652804 kJ/mol
# GULP energy per Si atom -12392.243800 kJ/mol
# Density = 2.027660 g / cm^3
# Si number density = 20.322852 Si / 1000 Ang^3
#
#
#
# Elastic Constant Matrix: (Units=GPa)
#
#
# Indices 1 2 3 4 5 6 
#
# 1 90.6089 46.7964 62.0942 0.0000 0.0000 0.0000
# 2 46.7964 83.6611 33.5238 0.0000 0.0000 0.0000
# 3 62.0942 33.5238 108.4012 0.0000 0.0000 0.0000
# 4 0.0000 0.0000 0.0000 17.3212 0.0000 0.0000
# 5 0.0000 0.0000 0.0000 0.0000 25.3313 0.0000
# 6 0.0000 0.0000 0.0000 0.0000 0.0000 32.3309
#
#
#
# Elastic Compliance Matrix: (Units=1/GPa)
#
#
# Indices 1 2 3 4 5 6 
#
# 1 0.022395 -0.008431 -0.010221 0.000000 0.000000 0.000000
# 2 -0.008431 0.016818 -0.000371 0.000000 0.000000 0.000000
# 3 -0.010221 -0.000371 0.015195 0.000000 0.000000 0.000000
# 4 0.000000 0.000000 0.000000 0.057733 0.000000 0.000000
# 5 0.000000 0.000000 0.000000 0.000000 0.039477 0.000000
# 6 0.000000 0.000000 0.000000 0.000000 0.000000 0.030930
#
#
# Mechanical properties :
#
#
# Convention : Reuss Voigt Hill
#
# Bulk Modulus (GPa) = 61.12333 63.05554 62.08944
# Shear Modulus (GPa) = 22.11913 24.34715 23.23314
#
# Velocity S-wave (km/s) = 3.30265 3.46500 3.38480
# Velocity P-wave (km/s) = 6.68467 6.86313 6.77449
#
# Compressibility (1/GPa) = 0.01636036
#
# Stress axis : x y z
#
# Youngs Moduli (GPa) = 44.65198 59.46026 65.81255
#
# Poissons Ratio (x) = 0.50133 0.67267
# Poissons Ratio (y) = 0.37648 0.02445
# Poissons Ratio (z) = 0.45639 0.02209
#
# Static dielectric constant tensor:
#      x y z
#    x 4.044350 0.000000 0.000000 
#    y 0.000000 3.463820 0.000000 
#    z 0.000000 0.000000 3.716080 
# 
# 
# High freq. dielectric constant tensor:
#      x y z
#    x 1.801360 0.000000 0.000000 
#    y 0.000000 1.773790 0.000000 
#    z 0.000000 0.000000 1.783080 
# 
# From -- ./inp_files/22986.got.cif
#   From: 2010.03.12/outbox.cif.g09.slc.cpg/sg55_12_cif.got.tgz:22986.got - 2010.04.16 15:19:21.
