data_PCOD8226130
_publ_section_title
;
Structure prediction by ZEFSAII (Michael W. Deem and Ramdas Pophale) SiO2 
 PCOD8226130
Probable space group: P B A M
;
_chemical_formula_sum "Si O2"
_cell_formula_units_Z 40
_cell_length_a 29.752534
_cell_length_b 7.821571
_cell_length_c 8.345402
_cell_angle_alpha 90.000000
_cell_angle_beta 90.000000
_cell_angle_gamma 90.000000
_cell_volume 1942.071494
_symmetry_space_group_name_H-M "P B A M"
_symmetry_group_IT_number 55
_symmetry_cell_setting 'orthorhombic'
loop_
_space_group_symop_operation_xyz
x,y,z
-x,-y,z
1/2+x,1/2-y,-z
1/2-x,1/2+y,-z
-x,-y,-z
x,y,-z
1/2-x,1/2+y,z
1/2+x,1/2-y,z
loop_
_atom_site_type_symbol
_atom_site_label
_atom_site_fract_x
_atom_site_fract_y
_atom_site_fract_z
Si Si1 0.295697 0.657339 0.318113
Si Si2 0.709844 0.694333 0.180641
Si Si3 0.949485 0.498782 0.190868
Si Si4 0.888978 0.192807 0.810300
Si Si5 0.386865 0.695585 0.809705
O O1 0.299420 0.590913 0.500000
O O2 0.294348 0.509081 0.186423
O O3 0.249626 0.761605 0.302427
O O4 0.340404 0.763799 0.270965
O O5 0.660904 0.763372 0.236745
O O6 0.721278 0.753364 0.000000
O O7 0.924577 0.329171 0.260306
O O8 0.925469 0.673658 0.248128
O O9 0.000000 0.500000 0.259413
O O10 0.949597 0.489697 0.000000
O O11 0.897961 0.998400 0.747511
O O12 0.892648 0.186531 0.000000
O O13 0.381814 0.701543 0.000000
#
# Coordination Sequence:
#
# PCOD8226130 Si02
#       5
#     8   8   8   8   8
#     4  11  22  35  52  80 112 143 184 234 283 332
#     4  10  20  35  54  77 107 148 189 225 274 340
#     4   9  17  29  50  81 109 136 179 235 287 331
#     4   8  16  30  47  73 105 138 179 223 269 327
#     4   9  18  33  52  74 106 146 183 223 277 338
#
# _framework density 20.596563
#
# number of rings (size 3 to 8) (size 9 to 14) (size 15 to 20)
#    0.000    2.600    0.000    3.600    2.800    0.800 
#    0.000    4.000    0.000    0.600    0.000    5.600 
#    0.000    0.000    0.000    0.000    0.000    0.000 
#
# Total GULP energy -495644.095860 kJ/mol
# GULP energy per Si atom -12391.102396 kJ/mol
# Density = 2.054968 g / cm^3
# Si number density = 20.596563 Si / 1000 Ang^3
#
#
#
# Elastic Constant Matrix: (Units=GPa)
#
#
# Indices 1 2 3 4 5 6 
#
# 1 197.8561 88.9762 26.3822 0.0000 0.0000 0.0000
# 2 88.9762 111.4924 13.8871 0.0000 0.0000 0.0000
# 3 26.3822 13.8871 34.9952 0.0000 0.0000 0.0000
# 4 0.0000 0.0000 0.0000 11.1393 0.0000 0.0000
# 5 0.0000 0.0000 0.0000 0.0000 7.3502 0.0000
# 6 0.0000 0.0000 0.0000 0.0000 0.0000 38.9108
#
#
#
# Elastic Compliance Matrix: (Units=1/GPa)
#
#
# Indices 1 2 3 4 5 6 
#
# 1 0.008346 -0.006183 -0.003839 0.000000 0.000000 0.000000
# 2 -0.006183 0.014015 -0.000901 0.000000 0.000000 0.000000
# 3 -0.003839 -0.000901 0.031827 0.000000 0.000000 0.000000
# 4 0.000000 0.000000 0.000000 0.089772 0.000000 0.000000
# 5 0.000000 0.000000 0.000000 0.000000 0.136050 0.000000
# 6 0.000000 0.000000 0.000000 0.000000 0.000000 0.025700
#
#
# Mechanical properties :
#
#
# Convention : Reuss Voigt Hill
#
# Bulk Modulus (GPa) = 30.91737 66.98167 48.94952
# Shear Modulus (GPa) = 14.77819 25.81994 20.29906
#
# Velocity S-wave (km/s) = 2.68154 3.54447 3.14276
# Velocity P-wave (km/s) = 4.96297 7.02442 6.08167
#
# Compressibility (1/GPa) = 0.03234428
#
# Stress axis : x y z
#
# Youngs Moduli (GPa) = 119.81216 71.34960 31.42016
#
# Poissons Ratio (x) = 0.44113 0.12061
# Poissons Ratio (y) = 0.74076 0.02830
# Poissons Ratio (z) = 0.45993 0.06427
#
# Static dielectric constant tensor:
#      x y z
#    x 4.258810 0.000000 0.000000 
#    y 0.000000 3.824560 0.000000 
#    z 0.000000 0.000000 3.095830 
# 
# 
# High freq. dielectric constant tensor:
#      x y z
#    x 1.811530 0.000000 0.000000 
#    y 0.000000 1.796690 0.000000 
#    z 0.000000 0.000000 1.757680 
# 
# From -- ./inp_files/2327.got.cif
#   From: 2010.03.12/outbox.cif.g09.slc.cpg/sg55_2_cif.got.tgz:2327.got - 2010.04.16 15:19:21.
