data_PCOD8226238
_publ_section_title
;
Structure prediction by ZEFSAII (Michael W. Deem and Ramdas Pophale) SiO2 
 PCOD8226238
Probable space group: P B A M
;
_chemical_formula_sum "Si O2"
_cell_formula_units_Z 64
_cell_length_a 32.252033
_cell_length_b 10.934777
_cell_length_c 9.297726
_cell_angle_alpha 90.000000
_cell_angle_beta 90.000000
_cell_angle_gamma 90.000000
_cell_volume 3279.017766
_symmetry_space_group_name_H-M "P B A M"
_symmetry_group_IT_number 55
_symmetry_cell_setting 'orthorhombic'
loop_
_space_group_symop_operation_xyz
x,y,z
-x,-y,z
1/2+x,1/2-y,-z
1/2-x,1/2+y,-z
-x,-y,-z
x,y,-z
1/2-x,1/2+y,z
1/2+x,1/2-y,z
loop_
_atom_site_type_symbol
_atom_site_label
_atom_site_fract_x
_atom_site_fract_y
_atom_site_fract_z
Si Si1 0.880080 0.619080 0.667352
Si Si2 0.770255 0.031143 0.665641
Si Si3 0.688799 0.993675 0.160887
Si Si4 0.649876 0.389785 0.665415
Si Si5 0.682848 0.711698 0.155457
Si Si6 0.399567 0.412630 0.163136
Si Si7 0.474818 0.880662 0.670489
Si Si8 0.519318 0.631044 0.669717
O O1 0.878325 0.584296 0.500000
O O2 0.853570 0.522392 0.756444
O O3 0.858970 0.749295 0.696612
O O4 0.927313 0.613905 0.724211
O O5 0.757323 0.035206 0.500000
O O6 0.728977 0.040920 0.757380
O O7 0.801346 0.917035 0.698898
O O8 0.795627 0.151795 0.707162
O O9 0.694575 0.850782 0.155655
O O10 0.687259 0.049719 0.000000
O O11 0.639879 0.424160 0.500000
O O12 0.619178 0.465386 0.766271
O O13 0.633608 0.696147 0.169103
O O14 0.696787 0.653815 0.000000
O O15 0.437241 0.358695 0.252159
O O16 0.412950 0.444153 0.000000
O O17 0.476285 0.883352 0.500000
O O18 0.492848 0.749142 0.722635
O O19 0.500000 0.000000 0.730647
O O20 0.500000 0.500000 0.714390
O O21 0.526263 0.636485 0.500000
#
# Coordination Sequence:
#
# PCOD8226238 Si02
#       8
#     8   8   8   8   8   8   8   8
#     4  10  21  38  60  85 114 149 194 242 287 340
#     4  10  21  37  59  86 112 144 191 241 286 331
#     4  11  24  39  57  82 116 154 191 229 285 352
#     4   9  19  37  59  85 117 151 187 236 289 338
#     4   9  21  40  57  79 115 154 190 231 282 342
#     4  10  20  35  58  86 116 150 191 236 283 337
#     4   9  19  35  56  84 116 150 192 242 294 351
#     4  10  20  35  58  85 114 150 191 241 298 349
#
# _framework density 19.518041
#
# number of rings (size 3 to 8) (size 9 to 14) (size 15 to 20)
#    0.000    2.250    0.000    1.875    3.500    4.750 
#    0.000    0.625    0.000    0.750    0.000    0.000 
#    0.000    0.000    0.000    0.000    0.000    0.000 
#
# Total GULP energy -793383.881534 kJ/mol
# GULP energy per Si atom -12396.623149 kJ/mol
# Density = 1.947362 g / cm^3
# Si number density = 19.518041 Si / 1000 Ang^3
#
#
#
# Elastic Constant Matrix: (Units=GPa)
#
#
# Indices 1 2 3 4 5 6 
#
# 1 119.2561 36.1192 42.5021 0.0000 0.0000 0.0000
# 2 36.1192 79.0094 23.6619 0.0000 0.0000 0.0000
# 3 42.5021 23.6619 62.7257 0.0000 0.0000 0.0000
# 4 0.0000 0.0000 0.0000 21.2435 0.0000 0.0000
# 5 0.0000 0.0000 0.0000 0.0000 23.8413 0.0000
# 6 0.0000 0.0000 0.0000 0.0000 0.0000 23.2873
#
#
#
# Elastic Compliance Matrix: (Units=1/GPa)
#
#
# Indices 1 2 3 4 5 6 
#
# 1 0.011806 -0.003384 -0.006723 0.000000 0.000000 0.000000
# 2 -0.003384 0.015238 -0.003456 0.000000 0.000000 0.000000
# 3 -0.006723 -0.003456 0.021802 0.000000 0.000000 0.000000
# 4 0.000000 0.000000 0.000000 0.047073 0.000000 0.000000
# 5 0.000000 0.000000 0.000000 0.000000 0.041944 0.000000
# 6 0.000000 0.000000 0.000000 0.000000 0.000000 0.042942
#
#
# Mechanical properties :
#
#
# Convention : Reuss Voigt Hill
#
# Bulk Modulus (GPa) = 46.03833 51.72863 48.88348
# Shear Modulus (GPa) = 23.23729 24.25494 23.74612
#
# Velocity S-wave (km/s) = 3.45418 3.52901 3.49180
# Velocity P-wave (km/s) = 6.28866 6.57006 6.43090
#
# Compressibility (1/GPa) = 0.02172103
#
# Stress axis : x y z
#
# Youngs Moduli (GPa) = 84.70047 65.62330 45.86815
#
# Poissons Ratio (x) = 0.22205 0.30839
# Poissons Ratio (y) = 0.28661 0.15850
# Poissons Ratio (z) = 0.56947 0.22677
#
# Static dielectric constant tensor:
#      x y z
#    x 3.654070 0.000000 0.000000 
#    y 0.000000 3.539230 0.000000 
#    z 0.000000 0.000000 3.705880 
# 
# 
# High freq. dielectric constant tensor:
#      x y z
#    x 1.768490 0.000000 0.000000 
#    y 0.000000 1.755330 0.000000 
#    z 0.000000 0.000000 1.749920 
# 
# From -- ./inp_files/10867.got.cif
#   From: 2010.03.12/outbox.cif.g09.slc.cpg/sg55_6_cif.got.tgz:10867.got - 2010.04.16 15:19:21.
