data_PCOD8226317
_publ_section_title
;
Structure prediction by ZEFSAII (Michael W. Deem and Ramdas Pophale) SiO2 
 PCOD8226317
Probable space group: P B A M
;
_chemical_formula_sum "Si O2"
_cell_formula_units_Z 56
_cell_length_a 19.018151
_cell_length_b 18.962429
_cell_length_c 8.700878
_cell_angle_alpha 90.000000
_cell_angle_beta 90.000000
_cell_angle_gamma 90.000000
_cell_volume 3137.800574
_symmetry_space_group_name_H-M "P B A M"
_symmetry_group_IT_number 55
_symmetry_cell_setting 'orthorhombic'
loop_
_space_group_symop_operation_xyz
x,y,z
-x,-y,z
1/2+x,1/2-y,-z
1/2-x,1/2+y,-z
-x,-y,-z
x,y,-z
1/2-x,1/2+y,z
1/2+x,1/2-y,z
loop_
_atom_site_type_symbol
_atom_site_label
_atom_site_fract_x
_atom_site_fract_y
_atom_site_fract_z
Si Si1 0.128346 0.767924 0.680421
Si Si2 0.766051 0.349976 0.325331
Si Si3 0.981226 0.791680 0.178994
Si Si4 0.699892 0.476267 0.176453
Si Si5 0.761551 0.133854 0.177716
Si Si6 0.944884 0.939349 0.321552
Si Si7 0.348520 0.768308 0.324487
O O1 0.137562 0.781572 0.500000
O O2 0.165733 0.694429 0.726828
O O3 0.165041 0.832754 0.767246
O O4 0.047621 0.763823 0.726268
O O5 0.774168 0.376047 0.500000
O O6 0.758242 0.417374 0.215635
O O7 0.697049 0.302173 0.306901
O O8 0.963401 0.871712 0.221097
O O9 0.917221 0.739910 0.220016
O O10 0.998069 0.786731 0.000000
O O11 0.735837 0.550903 0.209162
O O12 0.632536 0.467287 0.284568
O O13 0.676070 0.469326 0.000000
O O14 0.695597 0.164105 0.271079
O O15 0.750779 0.152009 0.000000
O O16 0.948719 0.918015 0.500000
O O17 0.000000 0.000000 0.280005
O O18 0.371553 0.779723 0.500000
#
# Coordination Sequence:
#
# PCOD8226317 Si02
#       7
#     8   8   8   8   8   8   8
#     4  10  21  37  56  79 108 144 184 228 273 326
#     4   9  19  35  56  78 104 140 184 226 268 323
#     4  12  23  35  55  81 110 144 180 227 279 329
#     4  11  22  34  53  80 111 145 180 224 275 325
#     4  10  21  36  54  81 113 144 182 227 274 325
#     4  11  23  36  52  76 111 151 186 221 267 329
#     4  10  20  36  57  80 106 143 187 227 269 327
#
# _framework density 17.846896999999998
#
# number of rings (size 3 to 8) (size 9 to 14) (size 15 to 20)
#    0.000    1.571    1.429    5.143    0.000    8.571 
#    0.000    0.000    0.000    0.857    0.000    6.000 
#    0.000    0.000    0.000    0.000    0.000    0.000 
#
# Total GULP energy -694706.223190 kJ/mol
# GULP energy per Si atom -12405.468271 kJ/mol
# Density = 1.780628 g / cm^3
# Si number density = 17.846897 Si / 1000 Ang^3
#
#
#
# Elastic Constant Matrix: (Units=GPa)
#
#
# Indices 1 2 3 4 5 6 
#
# 1 77.9823 45.2855 13.2778 0.0000 0.0000 0.0000
# 2 45.2855 95.2939 39.6443 0.0000 0.0000 0.0000
# 3 13.2778 39.6443 55.9006 0.0000 0.0000 0.0000
# 4 0.0000 0.0000 0.0000 25.6132 0.0000 0.0000
# 5 0.0000 0.0000 0.0000 0.0000 29.7890 0.0000
# 6 0.0000 0.0000 0.0000 0.0000 0.0000 21.6080
#
#
#
# Elastic Compliance Matrix: (Units=1/GPa)
#
#
# Indices 1 2 3 4 5 6 
#
# 1 0.017961 -0.009590 0.002535 0.000000 0.000000 0.000000
# 2 -0.009590 0.020006 -0.011910 0.000000 0.000000 0.000000
# 3 0.002535 -0.011910 0.025734 0.000000 0.000000 0.000000
# 4 0.000000 0.000000 0.000000 0.039042 0.000000 0.000000
# 5 0.000000 0.000000 0.000000 0.000000 0.033569 0.000000
# 6 0.000000 0.000000 0.000000 0.000000 0.000000 0.046279
#
#
# Mechanical properties :
#
#
# Convention : Reuss Voigt Hill
#
# Bulk Modulus (GPa) = 38.80509 47.28803 43.04656
# Shear Modulus (GPa) = 21.82340 24.13334 22.97837
#
# Velocity S-wave (km/s) = 3.50067 3.68127 3.59211
# Velocity P-wave (km/s) = 6.17496 6.68005 6.43246
#
# Compressibility (1/GPa) = 0.02576981
#
# Stress axis : x y z
#
# Youngs Moduli (GPa) = 55.67669 49.98466 38.85983
#
# Poissons Ratio (x) = 0.47935 -0.09851
# Poissons Ratio (y) = 0.53394 0.46283
# Poissons Ratio (z) = -0.14114 0.59534
#
# Static dielectric constant tensor:
#      x y z
#    x 3.274220 0.000000 0.000000 
#    y 0.000000 3.256400 0.000000 
#    z 0.000000 0.000000 3.393430 
# 
# 
# High freq. dielectric constant tensor:
#      x y z
#    x 1.683030 0.000000 0.000000 
#    y 0.000000 1.680180 0.000000 
#    z 0.000000 0.000000 1.704920 
# 
# From -- ./inp_files/7815.got.cif
#   From: 2010.03.12/outbox.cif.g09.slc.cpg/sg55_4_cif.got.tgz:7815.got - 2010.04.16 15:19:21.
