data_PCOD8226429
_publ_section_title
;
Structure prediction by ZEFSAII (Michael W. Deem and Ramdas Pophale) SiO2 
 PCOD8226429
Probable space group: P B A M
;
_chemical_formula_sum "Si O2"
_cell_formula_units_Z 48
_cell_length_a 14.014687
_cell_length_b 20.010697
_cell_length_c 8.891127
_cell_angle_alpha 90.000000
_cell_angle_beta 90.000000
_cell_angle_gamma 90.000000
_cell_volume 2493.460154
_symmetry_space_group_name_H-M "P B A M"
_symmetry_group_IT_number 55
_symmetry_cell_setting 'orthorhombic'
loop_
_space_group_symop_operation_xyz
x,y,z
-x,-y,z
1/2+x,1/2-y,-z
1/2-x,1/2+y,-z
-x,-y,-z
x,y,-z
1/2-x,1/2+y,z
1/2+x,1/2-y,z
loop_
_atom_site_type_symbol
_atom_site_label
_atom_site_fract_x
_atom_site_fract_y
_atom_site_fract_z
Si Si1 0.441973 0.312165 0.677082
Si Si2 0.444233 0.820336 0.675937
Si Si3 0.751661 0.143524 0.178891
Si Si4 0.754787 0.991752 0.822546
Si Si5 0.940690 0.433117 0.168471
Si Si6 0.434329 0.563971 0.330545
O O1 0.422125 0.317113 0.500000
O O2 0.497788 0.245529 0.722310
O O3 0.340804 0.313846 0.761155
O O4 0.506587 0.373699 0.733629
O O5 0.421434 0.821831 0.500000
O O6 0.344798 0.821672 0.764442
O O7 0.510036 0.882627 0.717846
O O8 0.757935 0.067398 0.242536
O O9 0.751631 0.144636 0.000000
O O10 0.662426 0.951976 0.763924
O O11 0.844053 0.947761 0.773999
O O12 0.750728 0.997293 0.000000
O O13 0.000000 0.500000 0.158889
O O14 0.933907 0.401835 0.000000
O O15 0.500000 0.500000 0.324630
O O16 0.399015 0.578321 0.500000
#
# Coordination Sequence:
#
# PCOD8226429 Si02
#       6
#     8   8   8   8   8   8
#     4  10  23  42  60  86 123 158 196 246 299 350
#     4  11  24  40  61  89 124 160 197 245 300 359
#     4  11  22  39  63  88 117 157 200 243 301 361
#     4  10  21  36  59  89 119 153 193 249 301 343
#     4  10  20  39  61  85 120 155 197 250 295 346
#     4  10  20  36  60  86 114 153 196 242 292 350
#
# _framework density 19.250357000000001
#
# number of rings (size 3 to 8) (size 9 to 14) (size 15 to 20)
#    0.000    1.667    3.333    1.000    0.000    5.333 
#    0.000    5.000    0.000    0.000    0.000    0.000 
#    0.000    0.000    0.000    0.000    0.000    0.000 
#
# Total GULP energy -595351.614159 kJ/mol
# GULP energy per Si atom -12403.158628 kJ/mol
# Density = 1.920654 g / cm^3
# Si number density = 19.250357 Si / 1000 Ang^3
#
#
#
# Elastic Constant Matrix: (Units=GPa)
#
#
# Indices 1 2 3 4 5 6 
#
# 1 163.3362 62.2627 45.1511 0.0000 0.0000 0.0000
# 2 62.2627 110.7099 34.8916 0.0000 0.0000 0.0000
# 3 45.1511 34.8916 46.8735 0.0000 0.0000 0.0000
# 4 0.0000 0.0000 0.0000 38.6103 0.0000 0.0000
# 5 0.0000 0.0000 0.0000 0.0000 35.8275 0.0000
# 6 0.0000 0.0000 0.0000 0.0000 0.0000 30.5461
#
#
#
# Elastic Compliance Matrix: (Units=1/GPa)
#
#
# Indices 1 2 3 4 5 6 
#
# 1 0.009078 -0.003070 -0.006459 0.000000 0.000000 0.000000
# 2 -0.003070 0.012839 -0.006600 0.000000 0.000000 0.000000
# 3 -0.006459 -0.006600 0.032469 0.000000 0.000000 0.000000
# 4 0.000000 0.000000 0.000000 0.025900 0.000000 0.000000
# 5 0.000000 0.000000 0.000000 0.000000 0.027911 0.000000
# 6 0.000000 0.000000 0.000000 0.000000 0.000000 0.032737
#
#
# Mechanical properties :
#
#
# Convention : Reuss Voigt Hill
#
# Bulk Modulus (GPa) = 45.19257 67.28116 56.23686
# Shear Modulus (GPa) = 27.69010 32.90441 30.29726
#
# Velocity S-wave (km/s) = 3.79677 4.13884 3.97149
# Velocity P-wave (km/s) = 6.53818 7.60700 7.09275
#
# Compressibility (1/GPa) = 0.02212753
#
# Stress axis : x y z
#
# Youngs Moduli (GPa) = 110.15547 77.88669 30.79840
#
# Poissons Ratio (x) = 0.23909 0.19894
# Poissons Ratio (y) = 0.33814 0.20328
# Poissons Ratio (z) = 0.71155 0.51408
#
# Static dielectric constant tensor:
#      x y z
#    x 3.613350 0.000000 0.000000 
#    y 0.000000 3.542260 0.000000 
#    z 0.000000 0.000000 3.445180 
# 
# 
# High freq. dielectric constant tensor:
#      x y z
#    x 1.763910 0.000000 0.000000 
#    y 0.000000 1.746740 0.000000 
#    z 0.000000 0.000000 1.740630 
# 
# From -- ./inp_files/5658.got.cif
#   From: 2010.03.12/outbox.cif.g09.slc.cpg/sg55_3_cif.got.tgz:5658.got - 2010.04.16 15:19:21.
