data_PCOD8226449
_publ_section_title
;
Structure prediction by ZEFSAII (Michael W. Deem and Ramdas Pophale) SiO2 
 PCOD8226449
Probable space group: P B A M
;
_chemical_formula_sum "Si O2"
_cell_formula_units_Z 64
_cell_length_a 10.933561
_cell_length_b 16.673239
_cell_length_c 16.289277
_cell_angle_alpha 90.000000
_cell_angle_beta 90.000000
_cell_angle_gamma 90.000000
_cell_volume 2969.500593
_symmetry_space_group_name_H-M "P B A M"
_symmetry_group_IT_number 55
_symmetry_cell_setting 'orthorhombic'
loop_
_space_group_symop_operation_xyz
x,y,z
-x,-y,z
1/2+x,1/2-y,-z
1/2-x,1/2+y,-z
-x,-y,-z
x,y,-z
1/2-x,1/2+y,z
1/2+x,1/2-y,z
loop_
_atom_site_type_symbol
_atom_site_label
_atom_site_fract_x
_atom_site_fract_y
_atom_site_fract_z
Si Si1 0.891819 0.062527 0.094476
Si Si2 0.776846 0.917472 0.268748
Si Si3 0.996072 0.827756 0.778447
Si Si4 0.633910 0.851094 0.407825
Si Si5 0.368373 0.981281 0.836548
Si Si6 0.401778 0.442787 0.649602
Si Si7 0.249290 0.811935 0.411848
Si Si8 0.437274 0.838144 0.719902
O O1 0.752230 0.029379 0.106575
O O2 0.917787 0.143104 0.146877
O O3 0.904172 0.086848 0.000000
O O4 0.000000 0.000000 0.118492
O O5 0.854440 0.856041 0.212285
O O6 0.753364 0.885799 0.361211
O O7 0.652161 0.938587 0.219354
O O8 0.844406 0.003740 0.276906
O O9 0.005487 0.731210 0.772421
O O10 0.035879 0.866500 0.692442
O O11 0.624205 0.887354 0.500000
O O12 0.642589 0.754745 0.411107
O O13 0.520326 0.877626 0.351394
O O14 0.380912 0.903205 0.780060
O O15 0.500000 0.000000 0.881996
O O16 0.500000 0.500000 0.602574
O O17 0.304812 0.402998 0.588099
O O18 0.320629 0.804382 0.500000
O O19 0.328911 0.795769 0.331381
#
# Coordination Sequence:
#
# PCOD8226449 Si02
#       8
#     8   8   8   8   8   8   8   8
#     4  11  23  44  75 107 136 172 217 272 336 409
#     4  11  20  38  61  90 127 167 222 279 321 393
#     4  11  20  39  68  93 124 168 225 274 322 403
#     4  11  24  39  56  86 129 179 227 279 341 396
#     4  12  24  42  68 101 138 176 225 270 336 412
#     4  10  20  36  61  87 112 159 225 282 326 384
#     4  11  22  37  54  81 125 168 221 284 344 392
#     4  12  23  38  62  90 126 179 230 272 331 401
#
# _framework density 21.552446
#
# number of rings (size 3 to 8) (size 9 to 14) (size 15 to 20)
#    0.000    0.875    7.500    0.750    0.000    1.000 
#    0.000    3.125    0.000    1.500    0.000    0.000 
#    0.000    0.000    0.000    0.000    0.000    0.000 
#
# Total GULP energy -792988.538457 kJ/mol
# GULP energy per Si atom -12390.445913 kJ/mol
# Density = 2.150339 g / cm^3
# Si number density = 21.552446 Si / 1000 Ang^3
#
#
#
# Elastic Constant Matrix: (Units=GPa)
#
#
# Indices 1 2 3 4 5 6 
#
# 1 108.6665 16.5671 28.6546 0.0000 0.0000 0.0000
# 2 16.5671 54.0092 27.7703 0.0000 0.0000 0.0000
# 3 28.6546 27.7703 87.8951 0.0000 0.0000 0.0000
# 4 0.0000 0.0000 0.0000 20.0157 0.0000 0.0000
# 5 0.0000 0.0000 0.0000 0.0000 27.7081 0.0000
# 6 0.0000 0.0000 0.0000 0.0000 0.0000 32.2631
#
#
#
# Elastic Compliance Matrix: (Units=1/GPa)
#
#
# Indices 1 2 3 4 5 6 
#
# 1 0.010196 -0.001694 -0.002789 0.000000 0.000000 0.000000
# 2 -0.001694 0.022388 -0.006521 0.000000 0.000000 0.000000
# 3 -0.002789 -0.006521 0.014347 0.000000 0.000000 0.000000
# 4 0.000000 0.000000 0.000000 0.049961 0.000000 0.000000
# 5 0.000000 0.000000 0.000000 0.000000 0.036091 0.000000
# 6 0.000000 0.000000 0.000000 0.000000 0.000000 0.030995
#
#
# Mechanical properties :
#
#
# Convention : Reuss Voigt Hill
#
# Bulk Modulus (GPa) = 40.12324 44.06163 42.09243
# Shear Modulus (GPa) = 25.73437 27.83598 26.78518
#
# Velocity S-wave (km/s) = 3.45923 3.59771 3.52915
# Velocity P-wave (km/s) = 5.88320 6.14380 6.01491
#
# Compressibility (1/GPa) = 0.02492321
#
# Stress axis : x y z
#
# Youngs Moduli (GPa) = 98.07684 44.66679 69.70194
#
# Poissons Ratio (x) = 0.07565 0.19439
# Poissons Ratio (y) = 0.16610 0.45455
# Poissons Ratio (z) = 0.27353 0.29129
#
# Static dielectric constant tensor:
#      x y z
#    x 4.128660 0.000000 0.000000 
#    y 0.000000 3.730390 0.000000 
#    z 0.000000 0.000000 3.588160 
# 
# 
# High freq. dielectric constant tensor:
#      x y z
#    x 1.855620 0.000000 0.000000 
#    y 0.000000 1.838100 0.000000 
#    z 0.000000 0.000000 1.809100 
# 
# From -- ./inp_files/21370.got.cif
#   From: 2010.03.12/outbox.cif.g09.slc.cpg/sg55_11_cif.got.tgz:21370.got - 2010.04.16 15:19:21.
