data_PCOD8226788
_publ_section_title
;
Structure prediction by ZEFSAII (Michael W. Deem and Ramdas Pophale) SiO2 
 PCOD8226788
Probable space group: P B A M
;
_chemical_formula_sum "Si O2"
_cell_formula_units_Z 52
_cell_length_a 12.385074
_cell_length_b 26.701166
_cell_length_c 7.412994
_cell_angle_alpha 90.000000
_cell_angle_beta 90.000000
_cell_angle_gamma 90.000000
_cell_volume 2451.446847
_symmetry_space_group_name_H-M "P B A M"
_symmetry_group_IT_number 55
_symmetry_cell_setting 'orthorhombic'
loop_
_space_group_symop_operation_xyz
x,y,z
-x,-y,z
1/2+x,1/2-y,-z
1/2-x,1/2+y,-z
-x,-y,-z
x,y,-z
1/2-x,1/2+y,z
1/2+x,1/2-y,z
loop_
_atom_site_type_symbol
_atom_site_label
_atom_site_fract_x
_atom_site_fract_y
_atom_site_fract_z
Si Si1 0.960311 0.636086 0.000000
Si Si2 0.981147 0.441326 0.288550
Si Si3 0.692915 0.810233 0.000000
Si Si4 0.235037 0.806747 0.000000
Si Si5 0.249514 0.047786 0.295945
Si Si6 0.088727 0.855118 0.287113
Si Si7 0.097172 0.967406 0.284575
Si Si8 0.652146 0.350279 0.702840
O O1 0.949940 0.599112 0.174199
O O2 0.859756 0.675078 0.000000
O O3 0.068225 0.671259 0.000000
O O4 0.000027 0.428888 0.500000
O O5 0.859978 0.432146 0.209341
O O6 0.000000 0.500000 0.247519
O O7 0.753250 0.828923 0.177258
O O8 0.713564 0.751683 0.000000
O O9 0.178690 0.824547 0.183306
O O10 0.283526 0.035987 0.500000
O O11 0.154998 0.089172 0.284962
O O12 0.205743 0.995612 0.214124
O O13 0.111351 0.851728 0.500000
O O14 0.096995 0.911441 0.211291
O O15 0.968835 0.833971 0.240615
O O16 0.091275 0.967589 0.500000
O O17 0.000000 0.000000 0.203674
O O18 0.676640 0.332274 0.500000
#
# Coordination Sequence:
#
# PCOD8226788 Si02
#       8
#     4   8   4   4   8   8   8   8
#     4  12  27  46  66  98 132 174 225 279 322 398
#     4  10  22  41  66  95 134 181 219 261 323 394
#     4  12  27  47  72  87 125 172 219 287 342 375
#     4  12  31  47  65  94 130 171 226 273 337 394
#     4   9  16  30  56  94 130 164 208 249 304 385
#     4  10  22  43  69  96 134 174 212 268 327 386
#     4   9  15  28  56  94 132 167 198 242 310 378
#     4  10  20  40  71 100 124 162 220 275 327 390
#
# _framework density 21.211962
#
# number of rings (size 3 to 8) (size 9 to 14) (size 15 to 20)
#    0.000    1.846    3.077    0.692    4.308    1.231 
#    0.000    1.154    0.000    0.000    0.000    0.000 
#    0.000    0.000    0.000    0.000    0.000    0.000 
#
# Total GULP energy -644250.252997 kJ/mol
# GULP energy per Si atom -12389.427942 kJ/mol
# Density = 2.116368 g / cm^3
# Si number density = 21.211962 Si / 1000 Ang^3
#
#
#
# Elastic Constant Matrix: (Units=GPa)
#
#
# Indices 1 2 3 4 5 6 
#
# 1 127.4127 47.8154 49.0370 0.0000 0.0000 0.0000
# 2 47.8154 113.1785 41.5112 0.0000 0.0000 0.0000
# 3 49.0370 41.5112 93.3564 0.0000 0.0000 0.0000
# 4 0.0000 0.0000 0.0000 17.0487 0.0000 0.0000
# 5 0.0000 0.0000 0.0000 0.0000 31.3545 0.0000
# 6 0.0000 0.0000 0.0000 0.0000 0.0000 30.7695
#
#
#
# Elastic Compliance Matrix: (Units=1/GPa)
#
#
# Indices 1 2 3 4 5 6 
#
# 1 0.010581 -0.002906 -0.004266 0.000000 0.000000 0.000000
# 2 -0.002906 0.011355 -0.003523 0.000000 0.000000 0.000000
# 3 -0.004266 -0.003523 0.014519 0.000000 0.000000 0.000000
# 4 0.000000 0.000000 0.000000 0.058655 0.000000 0.000000
# 5 0.000000 0.000000 0.000000 0.000000 0.031893 0.000000
# 6 0.000000 0.000000 0.000000 0.000000 0.000000 0.032500
#
#
# Mechanical properties :
#
#
# Convention : Reuss Voigt Hill
#
# Bulk Modulus (GPa) = 66.37345 67.85274 67.11310
# Shear Modulus (GPa) = 26.89420 28.87348 27.88384
#
# Velocity S-wave (km/s) = 3.56459 3.69343 3.62958
# Velocity P-wave (km/s) = 6.94984 7.08844 7.01948
#
# Compressibility (1/GPa) = 0.01506626
#
# Stress axis : x y z
#
# Youngs Moduli (GPa) = 94.51241 88.06492 68.87639
#
# Poissons Ratio (x) = 0.25587 0.29381
# Poissons Ratio (y) = 0.27461 0.24265
# Poissons Ratio (z) = 0.40316 0.31025
#
# Static dielectric constant tensor:
#      x y z
#    x 3.968520 0.000000 0.000000 
#    y 0.000000 3.899860 0.000000 
#    z 0.000000 0.000000 3.810540 
# 
# 
# High freq. dielectric constant tensor:
#      x y z
#    x 1.837200 0.000000 0.000000 
#    y 0.000000 1.813920 0.000000 
#    z 0.000000 0.000000 1.824560 
# 
# From -- ./inp_files/4281.got.cif
#   From: 2010.03.12/outbox.cif.g09.slc.cpg/sg55_3_cif.got.tgz:4281.got - 2010.04.16 15:19:21.
