data_PCOD8226123
_publ_section_title
;
Structure prediction by ZEFSAII (Michael W. Deem and Ramdas Pophale) SiO2 
 PCOD8226123
Probable space group: P B A M
;
_chemical_formula_sum "Si O2"
_cell_formula_units_Z 56
_cell_length_a 16.239818
_cell_length_b 14.394813
_cell_length_c 12.597543
_cell_angle_alpha 90.000000
_cell_angle_beta 90.000000
_cell_angle_gamma 90.000000
_cell_volume 2944.916834
_symmetry_space_group_name_H-M "P B A M"
_symmetry_group_IT_number 55
_symmetry_cell_setting 'orthorhombic'
loop_
_space_group_symop_operation_xyz
x,y,z
-x,-y,z
1/2+x,1/2-y,-z
1/2-x,1/2+y,-z
-x,-y,-z
x,y,-z
1/2-x,1/2+y,z
1/2+x,1/2-y,z
loop_
_atom_site_type_symbol
_atom_site_label
_atom_site_fract_x
_atom_site_fract_y
_atom_site_fract_z
Si Si1 0.195145 0.274539 0.877319
Si Si2 0.125190 0.438952 0.619399
Si Si3 0.288048 0.418045 0.269208
Si Si4 0.429800 0.065204 0.802137
Si Si5 0.462647 0.398149 0.625661
Si Si6 0.539618 0.222298 0.264399
Si Si7 0.752764 0.429114 0.117601
O O1 0.252793 0.346663 0.816772
O O2 0.103283 0.266277 0.831899
O O3 0.239232 0.177771 0.860121
O O4 0.189278 0.304419 0.000000
O O5 0.107024 0.466237 0.500000
O O6 0.223100 0.428423 0.635706
O O7 0.090474 0.524189 0.686550
O O8 0.080105 0.342594 0.646338
O O9 0.373473 0.388493 0.321065
O O10 0.298616 0.514374 0.205221
O O11 0.459172 0.171610 0.785703
O O12 0.350732 0.055036 0.876177
O O13 0.500000 0.000000 0.854983
O O14 0.500000 0.500000 0.647057
O O15 0.456998 0.378210 0.500000
O O16 0.519258 0.321073 0.682372
O O17 0.722646 0.457739 0.000000
#
# Coordination Sequence:
#
# PCOD8226123 Si02
#       7
#     8   8   8   8   8   8   8
#     4  10  21  37  57  79 105 140 179 220 266 317
#     4   9  18  33  54  79 105 134 170 213 265 321
#     4  10  20  36  56  77 105 140 179 219 262 315
#     4   9  19  32  51  80 106 130 163 212 269 320
#     4  11  23  37  54  77 108 146 184 222 263 308
#     4  10  20  35  54  78 108 138 173 219 267 315
#     4  10  20  35  54  75 102 136 173 214 261 313
#
# _framework density 19.015816000000001
#
# number of rings (size 3 to 8) (size 9 to 14) (size 15 to 20)
#    0.000    2.143    0.000    3.857    0.000    4.000 
#    0.000    1.429    0.000   13.286    0.000    0.000 
#    0.000    0.000    0.000    0.000    0.000    0.000 
#
# Total GULP energy -694324.710810 kJ/mol
# GULP energy per Si atom -12398.655550 kJ/mol
# Density = 1.897254 g / cm^3
# Si number density = 19.015816 Si / 1000 Ang^3
#
#
#
# Elastic Constant Matrix: (Units=GPa)
#
#
# Indices 1 2 3 4 5 6 
#
# 1 89.2245 25.9018 25.9978 0.0000 0.0000 0.0000
# 2 25.9018 83.3799 32.9666 0.0000 0.0000 0.0000
# 3 25.9978 32.9666 74.1698 0.0000 0.0000 0.0000
# 4 0.0000 0.0000 0.0000 10.6008 0.0000 0.0000
# 5 0.0000 0.0000 0.0000 0.0000 19.4604 0.0000
# 6 0.0000 0.0000 0.0000 0.0000 0.0000 30.4878
#
#
#
# Elastic Compliance Matrix: (Units=1/GPa)
#
#
# Indices 1 2 3 4 5 6 
#
# 1 0.012967 -0.002707 -0.003342 0.000000 0.000000 0.000000
# 2 -0.002707 0.015115 -0.005770 0.000000 0.000000 0.000000
# 3 -0.003342 -0.005770 0.017218 0.000000 0.000000 0.000000
# 4 0.000000 0.000000 0.000000 0.094332 0.000000 0.000000
# 5 0.000000 0.000000 0.000000 0.000000 0.051386 0.000000
# 6 0.000000 0.000000 0.000000 0.000000 0.000000 0.032800
#
#
# Mechanical properties :
#
#
# Convention : Reuss Voigt Hill
#
# Bulk Modulus (GPa) = 46.15959 46.27852 46.21905
# Shear Modulus (GPa) = 19.63262 22.90367 21.26815
#
# Velocity S-wave (km/s) = 3.21664 3.47429 3.34794
# Velocity P-wave (km/s) = 6.17436 6.36270 6.26924
#
# Compressibility (1/GPa) = 0.02166397
#
# Stress axis : x y z
#
# Youngs Moduli (GPa) = 77.11710 66.15797 58.07711
#
# Poissons Ratio (x) = 0.17908 0.19410
# Poissons Ratio (y) = 0.20874 0.33508
# Poissons Ratio (z) = 0.25774 0.38170
#
# Static dielectric constant tensor:
#      x y z
#    x 3.623630 0.000000 0.000000 
#    y 0.000000 3.620780 0.000000 
#    z 0.000000 0.000000 3.373780 
# 
# 
# High freq. dielectric constant tensor:
#      x y z
#    x 1.741160 0.000000 0.000000 
#    y 0.000000 1.745150 0.000000 
#    z 0.000000 0.000000 1.736110 
# 
# From -- ./inp_files/14217.got.cif
#   From: 2010.03.12/outbox.cif.g09.slc.cpg/sg55_8_cif.got.tgz:14217.got - 2010.04.16 15:19:21.
