data_PCOD8226277
_publ_section_title
;
Structure prediction by ZEFSAII (Michael W. Deem and Ramdas Pophale) SiO2 
 PCOD8226277
Probable space group: P B A M
;
_chemical_formula_sum "Si O2"
_cell_formula_units_Z 64
_cell_length_a 23.658520
_cell_length_b 15.472769
_cell_length_c 8.883421
_cell_angle_alpha 90.000000
_cell_angle_beta 90.000000
_cell_angle_gamma 90.000000
_cell_volume 3251.890097
_symmetry_space_group_name_H-M "P B A M"
_symmetry_group_IT_number 55
_symmetry_cell_setting 'orthorhombic'
loop_
_space_group_symop_operation_xyz
x,y,z
-x,-y,z
1/2+x,1/2-y,-z
1/2-x,1/2+y,-z
-x,-y,-z
x,y,-z
1/2-x,1/2+y,z
1/2+x,1/2-y,z
loop_
_atom_site_type_symbol
_atom_site_label
_atom_site_fract_x
_atom_site_fract_y
_atom_site_fract_z
Si Si1 0.896651 0.416820 0.677893
Si Si2 0.909637 0.984565 0.673815
Si Si3 0.495928 0.178984 0.175025
Si Si4 0.989404 0.140422 0.674415
Si Si5 0.884616 0.600481 0.175265
Si Si6 0.789863 0.340344 0.179426
Si Si7 0.291685 0.508477 0.177918
Si Si8 0.735845 0.164289 0.177890
O O1 0.893688 0.410518 0.500000
O O2 0.958542 0.389049 0.733185
O O3 0.884534 0.513889 0.728358
O O4 0.851518 0.350854 0.749013
O O5 0.892756 0.980503 0.500000
O O6 0.854773 0.970511 0.773035
O O7 0.952462 0.907727 0.714664
O O8 0.937522 0.076881 0.711192
O O9 0.482231 0.276337 0.222380
O O10 0.561086 0.158596 0.211386
O O11 0.482175 0.167536 0.000000
O O12 0.988686 0.167942 0.500000
O O13 0.830076 0.656766 0.222847
O O14 0.881707 0.573671 0.000000
O O15 0.750165 0.417630 0.237807
O O16 0.762483 0.252023 0.243147
O O17 0.795723 0.339686 0.000000
O O18 0.270554 0.417033 0.244740
O O19 0.289698 0.507144 0.000000
O O20 0.741807 0.165429 0.000000
#
# Coordination Sequence:
#
# PCOD8226277 Si02
#       8
#     8   8   8   8   8   8   8   8
#     4  12  25  41  61  86 120 156 194 240 292 355
#     4   9  20  38  59  81 119 163 196 237 293 352
#     4  11  24  38  63  92 115 148 196 249 296 348
#     4   9  20  40  59  82 118 161 198 239 294 347
#     4  10  21  42  65  86 115 151 194 241 294 352
#     4  10  21  39  63  87 120 158 196 244 297 348
#     4  10  20  35  60  90 118 152 197 248 293 346
#     4   9  19  37  61  88 117 152 192 241 295 345
#
# _framework density 19.680862000000001
#
# number of rings (size 3 to 8) (size 9 to 14) (size 15 to 20)
#    0.000    2.000    1.250    2.625    3.500    4.000 
#    0.000    1.875    0.000    0.000    0.000    0.000 
#    0.000    0.000    0.000    0.000    0.000    0.000 
#
# Total GULP energy -793810.884804 kJ/mol
# GULP energy per Si atom -12403.295075 kJ/mol
# Density = 1.963607 g / cm^3
# Si number density = 19.680862 Si / 1000 Ang^3
#
#
#
# Elastic Constant Matrix: (Units=GPa)
#
#
# Indices 1 2 3 4 5 6 
#
# 1 84.5301 7.3618 25.8541 0.0000 0.0000 0.0000
# 2 7.3618 94.3453 30.3082 0.0000 0.0000 0.0000
# 3 25.8541 30.3082 47.5783 0.0000 0.0000 0.0000
# 4 0.0000 0.0000 0.0000 26.3430 0.0000 0.0000
# 5 0.0000 0.0000 0.0000 0.0000 21.2610 0.0000
# 6 0.0000 0.0000 0.0000 0.0000 0.0000 27.2170
#
#
#
# Elastic Compliance Matrix: (Units=1/GPa)
#
#
# Indices 1 2 3 4 5 6 
#
# 1 0.014414 0.001750 -0.008947 0.000000 0.000000 0.000000
# 2 0.001750 0.013539 -0.009575 0.000000 0.000000 0.000000
# 3 -0.008947 -0.009575 0.031979 0.000000 0.000000 0.000000
# 4 0.000000 0.000000 0.000000 0.037961 0.000000 0.000000
# 5 0.000000 0.000000 0.000000 0.000000 0.047034 0.000000
# 6 0.000000 0.000000 0.000000 0.000000 0.000000 0.036742
#
#
# Mechanical properties :
#
#
# Convention : Reuss Voigt Hill
#
# Bulk Modulus (GPa) = 37.89764 39.27799 38.58781
# Shear Modulus (GPa) = 22.32036 25.82618 24.07327
#
# Velocity S-wave (km/s) = 3.37132 3.62643 3.50120
# Velocity P-wave (km/s) = 5.86960 6.12661 5.99949
#
# Compressibility (1/GPa) = 0.02638687
#
# Stress axis : x y z
#
# Youngs Moduli (GPa) = 69.37556 73.86160 31.27013
#
# Poissons Ratio (x) = -0.12922 0.27978
# Poissons Ratio (y) = -0.12137 0.29942
# Poissons Ratio (z) = 0.62072 0.70724
#
# Static dielectric constant tensor:
#      x y z
#    x 3.723690 0.000000 0.000000 
#    y 0.000000 3.744710 0.000000 
#    z 0.000000 0.000000 3.287670 
# 
# 
# High freq. dielectric constant tensor:
#      x y z
#    x 1.780460 0.000000 0.000000 
#    y 0.000000 1.775130 0.000000 
#    z 0.000000 0.000000 1.742240 
# 
# From -- ./inp_files/9640.got.cif
#   From: 2010.03.12/outbox.cif.g09.slc.cpg/sg55_5_cif.got.tgz:9640.got - 2010.04.16 15:19:21.
