data_PCOD8226558
_publ_section_title
;
Structure prediction by ZEFSAII (Michael W. Deem and Ramdas Pophale) SiO2 
 PCOD8226558
Probable space group: P B A M
;
_chemical_formula_sum "Si O2"
_cell_formula_units_Z 64
_cell_length_a 12.435459
_cell_length_b 27.568940
_cell_length_c 9.100957
_cell_angle_alpha 90.000000
_cell_angle_beta 90.000000
_cell_angle_gamma 90.000000
_cell_volume 3120.103140
_symmetry_space_group_name_H-M "P B A M"
_symmetry_group_IT_number 55
_symmetry_cell_setting 'orthorhombic'
loop_
_space_group_symop_operation_xyz
x,y,z
-x,-y,z
1/2+x,1/2-y,-z
1/2-x,1/2+y,-z
-x,-y,-z
x,y,-z
1/2-x,1/2+y,z
1/2+x,1/2-y,z
loop_
_atom_site_type_symbol
_atom_site_label
_atom_site_fract_x
_atom_site_fract_y
_atom_site_fract_z
Si Si1 0.813294 0.708910 0.672121
Si Si2 0.030644 0.651708 0.674458
Si Si3 0.252338 0.946100 0.335727
Si Si4 0.532476 0.054821 0.173534
Si Si5 0.273094 0.200487 0.834494
Si Si6 0.598617 0.469893 0.666456
Si Si7 0.385294 0.356013 0.332522
Si Si8 0.587265 0.373918 0.162276
O O1 0.813851 0.721043 0.500000
O O2 0.800916 0.758101 0.762380
O O3 0.711455 0.677358 0.720811
O O4 0.919342 0.678621 0.714907
O O5 0.045849 0.646274 0.500000
O O6 0.123338 0.686593 0.737857
O O7 0.035165 0.597562 0.745987
O O8 0.298896 0.934720 0.500000
O O9 0.343421 0.937332 0.215678
O O10 0.149767 0.911681 0.306965
O O11 0.209867 0.000649 0.326026
O O12 0.500000 0.000000 0.224047
O O13 0.516558 0.061015 0.000000
O O14 0.197277 0.154551 0.841498
O O15 0.309009 0.215349 0.000000
O O16 0.500000 0.500000 0.735343
O O17 0.568889 0.455203 0.500000
O O18 0.619197 0.422494 0.757131
O O19 0.414140 0.345081 0.500000
O O20 0.492049 0.344328 0.241387
O O21 0.545761 0.385975 0.000000
#
# Coordination Sequence:
#
# PCOD8226558 Si02
#       8
#     8   8   8   8   8   8   8   8
#     4  10  23  44  70  97 122 158 211 269 319 372
#     4  11  24  46  72  98 128 166 221 272 317 379
#     4  10  20  38  62  90 122 162 213 261 311 373
#     4  11  25  42  62  92 132 173 212 261 324 387
#     4  11  27  46  64  93 133 170 207 258 323 384
#     4  10  20  37  60  87 121 163 206 252 307 363
#     4  10  20  40  66  92 124 158 205 264 312 370
#     4  11  25  41  59  90 130 169 210 256 313 380
#
# _framework density 20.512141
#
# number of rings (size 3 to 8) (size 9 to 14) (size 15 to 20)
#    0.000    1.500    2.500    1.500    3.500    5.750 
#    0.000    0.000    0.000    0.000    0.000    0.000 
#    0.000    0.000    0.000    0.000    0.000    0.000 
#
# Total GULP energy -793652.376137 kJ/mol
# GULP energy per Si atom -12400.818377 kJ/mol
# Density = 2.046545 g / cm^3
# Si number density = 20.512141 Si / 1000 Ang^3
#
#
#
# Elastic Constant Matrix: (Units=GPa)
#
#
# Indices 1 2 3 4 5 6 
#
# 1 71.6087 15.2048 35.3681 0.0000 0.0000 0.0000
# 2 15.2048 104.8200 49.2780 0.0000 0.0000 0.0000
# 3 35.3681 49.2780 98.1388 0.0000 0.0000 0.0000
# 4 0.0000 0.0000 0.0000 45.7425 0.0000 0.0000
# 5 0.0000 0.0000 0.0000 0.0000 30.1479 0.0000
# 6 0.0000 0.0000 0.0000 0.0000 0.0000 30.3738
#
#
#
# Elastic Compliance Matrix: (Units=1/GPa)
#
#
# Indices 1 2 3 4 5 6 
#
# 1 0.017012 0.000543 -0.006404 0.000000 0.000000 0.000000
# 2 0.000543 0.012505 -0.006475 0.000000 0.000000 0.000000
# 3 -0.006404 -0.006475 0.015749 0.000000 0.000000 0.000000
# 4 0.000000 0.000000 0.000000 0.021862 0.000000 0.000000
# 5 0.000000 0.000000 0.000000 0.000000 0.033170 0.000000
# 6 0.000000 0.000000 0.000000 0.000000 0.000000 0.032923
#
#
# Mechanical properties :
#
#
# Convention : Reuss Voigt Hill
#
# Bulk Modulus (GPa) = 48.55572 52.69659 50.62616
# Shear Modulus (GPa) = 30.34769 32.90061 31.62415
#
# Velocity S-wave (km/s) = 3.85060 4.00929 3.93074
# Velocity P-wave (km/s) = 6.59489 6.86868 6.73318
#
# Compressibility (1/GPa) = 0.02059489
#
# Stress axis : x y z
#
# Youngs Moduli (GPa) = 58.78095 79.96533 63.49763
#
# Poissons Ratio (x) = -0.04340 0.40661
# Poissons Ratio (y) = -0.03190 0.41114
# Poissons Ratio (z) = 0.37641 0.51777
#
# Static dielectric constant tensor:
#      x y z
#    x 3.639400 0.000000 0.000000 
#    y 0.000000 3.797610 0.000000 
#    z 0.000000 0.000000 3.754250 
# 
# 
# High freq. dielectric constant tensor:
#      x y z
#    x 1.804430 0.000000 0.000000 
#    y 0.000000 1.808570 0.000000 
#    z 0.000000 0.000000 1.798190 
# 
# From -- ./inp_files/4527.got.cif
#   From: 2010.03.12/outbox.cif.g09.slc.cpg/sg55_3_cif.got.tgz:4527.got - 2010.04.16 15:19:21.
