data_PCOD8226389
_publ_section_title
;
Structure prediction by ZEFSAII (Michael W. Deem and Ramdas Pophale) SiO2 
 PCOD8226389
Probable space group: P B A M
;
_chemical_formula_sum "Si O2"
_cell_formula_units_Z 64
_cell_length_a 12.627138
_cell_length_b 29.250732
_cell_length_c 8.972382
_cell_angle_alpha 90.000000
_cell_angle_beta 90.000000
_cell_angle_gamma 90.000000
_cell_volume 3313.976474
_symmetry_space_group_name_H-M "P B A M"
_symmetry_group_IT_number 55
_symmetry_cell_setting 'orthorhombic'
loop_
_space_group_symop_operation_xyz
x,y,z
-x,-y,z
1/2+x,1/2-y,-z
1/2-x,1/2+y,-z
-x,-y,-z
x,y,-z
1/2-x,1/2+y,z
1/2+x,1/2-y,z
loop_
_atom_site_type_symbol
_atom_site_label
_atom_site_fract_x
_atom_site_fract_y
_atom_site_fract_z
Si Si1 0.966231 0.211264 0.167836
Si Si2 0.636057 0.809167 0.170787
Si Si3 0.912593 0.915529 0.175813
Si Si4 0.860030 0.118268 0.828012
Si Si5 0.673410 0.067544 0.324206
Si Si6 0.343619 0.674829 0.326083
Si Si7 0.238652 0.532049 0.675731
Si Si8 0.944967 0.397177 0.676214
O O1 0.924671 0.261849 0.182089
O O2 0.879118 0.172185 0.203631
O O3 0.060103 0.208113 0.286897
O O4 0.009115 0.201669 0.000000
O O5 0.737083 0.800864 0.274352
O O6 0.564381 0.849766 0.235606
O O7 0.666748 0.819985 0.000000
O O8 0.849827 0.871882 0.235225
O O9 0.853335 0.958822 0.248829
O O10 0.036240 0.911210 0.222008
O O11 0.901155 0.918625 0.000000
O O12 0.758016 0.103752 0.735770
O O13 0.835680 0.109120 0.000000
O O14 0.680280 0.068582 0.500000
O O15 0.555347 0.080380 0.272163
O O16 0.699211 0.016905 0.264474
O O17 0.340654 0.663669 0.500000
O O18 0.255288 0.531736 0.500000
O O19 0.150924 0.569395 0.722402
O O20 0.942944 0.387570 0.500000
#
# Coordination Sequence:
#
# PCOD8226389 Si02
#       8
#     8   8   8   8   8   8   8   8
#     4   9  21  40  59  81 112 152 193 234 288 349
#     4  11  22  37  60  87 115 150 193 238 288 346
#     4  10  20  36  59  84 113 148 192 240 286 340
#     4   9  20  39  58  79 112 153 192 236 290 347
#     4  10  22  38  57  83 118 157 193 236 293 353
#     4  11  21  35  57  84 114 147 185 236 290 339
#     4  10  20  36  59  85 114 153 195 239 293 347
#     4  10  21  38  58  83 117 153 195 242 290 343
#
# _framework density 19.312147
#
# number of rings (size 3 to 8) (size 9 to 14) (size 15 to 20)
#    0.000    2.000    1.250    3.000    0.000    7.500 
#    0.000    6.250    0.000    2.250    0.000    0.000 
#    0.000    0.000    0.000    0.000    0.000    0.000 
#
# Total GULP energy -793611.061184 kJ/mol
# GULP energy per Si atom -12400.172831 kJ/mol
# Density = 1.926819 g / cm^3
# Si number density = 19.312147 Si / 1000 Ang^3
#
#
#
# Elastic Constant Matrix: (Units=GPa)
#
#
# Indices 1 2 3 4 5 6 
#
# 1 65.3684 23.6390 22.8849 0.0000 0.0000 0.0000
# 2 23.6390 94.7416 20.1490 0.0000 0.0000 0.0000
# 3 22.8849 20.1490 34.5774 0.0000 0.0000 0.0000
# 4 0.0000 0.0000 0.0000 26.0696 0.0000 0.0000
# 5 0.0000 0.0000 0.0000 0.0000 32.9475 0.0000
# 6 0.0000 0.0000 0.0000 0.0000 0.0000 19.5373
#
#
#
# Elastic Compliance Matrix: (Units=1/GPa)
#
#
# Indices 1 2 3 4 5 6 
#
# 1 0.020432 -0.002536 -0.012045 0.000000 0.000000 0.000000
# 2 -0.002536 0.012363 -0.005525 0.000000 0.000000 0.000000
# 3 -0.012045 -0.005525 0.040112 0.000000 0.000000 0.000000
# 4 0.000000 0.000000 0.000000 0.038359 0.000000 0.000000
# 5 0.000000 0.000000 0.000000 0.000000 0.030351 0.000000
# 6 0.000000 0.000000 0.000000 0.000000 0.000000 0.051184
#
#
# Mechanical properties :
#
#
# Convention : Reuss Voigt Hill
#
# Bulk Modulus (GPa) = 30.58679 36.44813 33.51746
# Shear Modulus (GPa) = 20.49914 24.24517 22.37215
#
# Velocity S-wave (km/s) = 3.26155 3.54706 3.40729
# Velocity P-wave (km/s) = 5.48234 5.97408 5.73348
#
# Compressibility (1/GPa) = 0.03269386
#
# Stress axis : x y z
#
# Youngs Moduli (GPa) = 48.94308 80.88649 24.93005
#
# Poissons Ratio (x) = 0.20516 0.30028
# Poissons Ratio (y) = 0.12414 0.13775
# Poissons Ratio (z) = 0.58951 0.44694
#
# Static dielectric constant tensor:
#      x y z
#    x 3.624940 0.000000 0.000000 
#    y 0.000000 3.556830 0.000000 
#    z 0.000000 0.000000 3.524130 
# 
# 
# High freq. dielectric constant tensor:
#      x y z
#    x 1.755050 0.000000 0.000000 
#    y 0.000000 1.751500 0.000000 
#    z 0.000000 0.000000 1.747340 
# 
# From -- ./inp_files/4615.got.cif
#   From: 2010.03.12/outbox.cif.g09.slc.cpg/sg55_3_cif.got.tgz:4615.got - 2010.04.16 15:19:21.
