data_PCOD8226557
_publ_section_title
;
Structure prediction by ZEFSAII (Michael W. Deem and Ramdas Pophale) SiO2 
 PCOD8226557
Probable space group: P B A M
;
_chemical_formula_sum "Si O2"
_cell_formula_units_Z 40
_cell_length_a 8.894190
_cell_length_b 25.333420
_cell_length_c 8.450984
_cell_angle_alpha 90.000000
_cell_angle_beta 90.000000
_cell_angle_gamma 90.000000
_cell_volume 1904.177835
_symmetry_space_group_name_H-M "P B A M"
_symmetry_group_IT_number 55
_symmetry_cell_setting 'orthorhombic'
loop_
_space_group_symop_operation_xyz
x,y,z
-x,-y,z
1/2+x,1/2-y,-z
1/2-x,1/2+y,-z
-x,-y,-z
x,y,-z
1/2-x,1/2+y,z
1/2+x,1/2-y,z
loop_
_atom_site_type_symbol
_atom_site_label
_atom_site_fract_x
_atom_site_fract_y
_atom_site_fract_z
Si Si1 0.606360 0.620805 0.818281
Si Si2 0.218606 0.098230 0.687602
Si Si3 0.295664 0.787458 0.681889
Si Si4 0.173003 0.984322 0.325537
Si Si5 0.614013 0.807598 0.183954
O O1 0.432451 0.616864 0.773945
O O2 0.677506 0.666083 0.711321
O O3 0.694050 0.565320 0.790720
O O4 0.623191 0.637179 0.000000
O O5 0.195201 0.103073 0.500000
O O6 0.355401 0.133701 0.749692
O O7 0.259119 0.037281 0.733210
O O8 0.346658 0.787781 0.500000
O O9 0.219791 0.731883 0.720046
O O10 0.440079 0.794558 0.791910
O O11 0.230221 0.967386 0.500000
O O12 0.000000 0.000000 0.335663
O O13 0.653219 0.803810 0.000000
#
# Coordination Sequence:
#
# PCOD8226557 Si02
#       5
#     8   8   8   8   8
#     4  11  21  35  58  89 121 153 193 242 290 333
#     4  10  20  37  60  87 119 157 197 234 281 343
#     4  12  25  43  63  84 114 154 195 233 285 350
#     4   8  16  32  55  83 116 154 195 235 278 337
#     4  12  25  42  62  88 118 147 188 242 294 339
#
# _framework density 21.006440999999999
#
# number of rings (size 3 to 8) (size 9 to 14) (size 15 to 20)
#    0.000    1.400    0.000    8.400    0.000    4.400 
#    0.000    1.000    0.000    6.000    0.000    0.000 
#    0.000    0.000    0.000    0.000    0.000    0.000 
#
# Total GULP energy -496100.360283 kJ/mol
# GULP energy per Si atom -12402.509007 kJ/mol
# Density = 2.095863 g / cm^3
# Si number density = 21.006441 Si / 1000 Ang^3
#
#
#
# Elastic Constant Matrix: (Units=GPa)
#
#
# Indices 1 2 3 4 5 6 
#
# 1 33.3999 -11.8870 3.0460 0.0000 0.0000 0.0000
# 2 -11.8870 55.7324 26.5976 0.0000 0.0000 0.0000
# 3 3.0460 26.5976 98.4315 0.0000 0.0000 0.0000
# 4 0.0000 0.0000 0.0000 27.6917 0.0000 0.0000
# 5 0.0000 0.0000 0.0000 0.0000 30.4995 0.0000
# 6 0.0000 0.0000 0.0000 0.0000 0.0000 27.5550
#
#
#
# Elastic Compliance Matrix: (Units=1/GPa)
#
#
# Indices 1 2 3 4 5 6 
#
# 1 0.033358 0.008734 -0.003392 0.000000 0.000000 0.000000
# 2 0.008734 0.022886 -0.006454 0.000000 0.000000 0.000000
# 3 -0.003392 -0.006454 0.012008 0.000000 0.000000 0.000000
# 4 0.000000 0.000000 0.000000 0.036112 0.000000 0.000000
# 5 0.000000 0.000000 0.000000 0.000000 0.032787 0.000000
# 6 0.000000 0.000000 0.000000 0.000000 0.000000 0.036291
#
#
# Mechanical properties :
#
#
# Convention : Reuss Voigt Hill
#
# Bulk Modulus (GPa) = 15.14544 24.78633 19.96588
# Shear Modulus (GPa) = 25.29376 28.46972 26.88174
#
# Velocity S-wave (km/s) = 3.47377 3.68541 3.58116
# Velocity P-wave (km/s) = 4.82856 5.47126 5.15993
#
# Compressibility (1/GPa) = 0.06602649
#
# Stress axis : x y z
#
# Youngs Moduli (GPa) = 29.97787 43.69493 83.27515
#
# Poissons Ratio (x) = -0.38162 0.28249
# Poissons Ratio (y) = -0.26182 0.53749
# Poissons Ratio (z) = 0.10169 0.28202
#
# Static dielectric constant tensor:
#      x y z
#    x 3.450580 0.000000 0.000000 
#    y 0.000000 4.340040 0.000000 
#    z 0.000000 0.000000 3.753990 
# 
# 
# High freq. dielectric constant tensor:
#      x y z
#    x 1.791220 0.000000 0.000000 
#    y 0.000000 1.842750 0.000000 
#    z 0.000000 0.000000 1.827690 
# 
# From -- ./inp_files/2300.got.cif
#   From: 2010.03.12/outbox.cif.g09.slc.cpg/sg55_2_cif.got.tgz:2300.got - 2010.04.16 15:19:21.
