data_PCOD8227160
_publ_section_title
;
Structure prediction by ZEFSAII (Michael W. Deem and Ramdas Pophale) SiO2 
 PCOD8227160
Probable space group: P B A M
;
_chemical_formula_sum "Si O2"
_cell_formula_units_Z 48
_cell_length_a 9.406211
_cell_length_b 16.682817
_cell_length_c 15.212389
_cell_angle_alpha 90.000000
_cell_angle_beta 90.000000
_cell_angle_gamma 90.000000
_cell_volume 2387.159979
_symmetry_space_group_name_H-M "P B A M"
_symmetry_group_IT_number 55
_symmetry_cell_setting 'orthorhombic'
loop_
_space_group_symop_operation_xyz
x,y,z
-x,-y,z
1/2+x,1/2-y,-z
1/2-x,1/2+y,-z
-x,-y,-z
x,y,-z
1/2-x,1/2+y,z
1/2+x,1/2-y,z
loop_
_atom_site_type_symbol
_atom_site_label
_atom_site_fract_x
_atom_site_fract_y
_atom_site_fract_z
Si Si1 0.894490 0.569714 0.761399
Si Si2 0.061183 0.282420 0.660838
Si Si3 0.042035 0.682153 0.901598
Si Si4 0.357438 0.691541 0.162969
Si Si5 0.762835 0.338221 0.402199
Si Si6 0.643610 0.460455 0.740006
O O1 0.878023 0.628288 0.677256
O O2 0.741457 0.530948 0.779106
O O3 0.000000 0.500000 0.732468
O O4 0.954143 0.615110 0.847726
O O5 0.086963 0.234489 0.749914
O O6 0.141992 0.230630 0.587251
O O7 0.896384 0.290807 0.637496
O O8 0.189746 0.702452 0.853433
O O9 0.950617 0.764789 0.911895
O O10 0.070562 0.649348 0.000000
O O11 0.389108 0.597295 0.176494
O O12 0.793989 0.372184 0.500000
O O13 0.719201 0.411734 0.339077
O O14 0.500000 0.500000 0.703323
#
# Coordination Sequence:
#
# PCOD8227160 Si02
#       6
#     8   8   8   8   8   8
#     4  11  20  41  62  88 117 162 210 239 300 377
#     4  10  21  38  65  86 118 167 208 245 295 379
#     4  11  23  39  64  93 125 158 204 261 308 355
#     4  10  21  40  62  88 119 164 209 245 293 376
#     4  11  23  41  62  93 126 156 206 263 308 354
#     4  11  24  39  63  89 120 164 212 250 301 377
#
# _framework density 20.107576000000002
#
# number of rings (size 3 to 8) (size 9 to 14) (size 15 to 20)
#    0.000    1.333    3.333    4.000    9.333    0.667 
#    0.000    2.500    0.000    2.500    0.000    0.000 
#    0.000    0.000    0.000    0.000    0.000    0.000 
#
# Total GULP energy -594793.264423 kJ/mol
# GULP energy per Si atom -12391.526342 kJ/mol
# Density = 2.006181 g / cm^3
# Si number density = 20.107576 Si / 1000 Ang^3
#
#
#
# Elastic Constant Matrix: (Units=GPa)
#
#
# Indices 1 2 3 4 5 6 
#
# 1 156.6222 56.6359 38.3270 0.0000 0.0000 0.0000
# 2 56.6359 87.5631 22.2857 0.0000 0.0000 0.0000
# 3 38.3270 22.2857 89.0522 0.0000 0.0000 0.0000
# 4 0.0000 0.0000 0.0000 16.7332 0.0000 0.0000
# 5 0.0000 0.0000 0.0000 0.0000 19.1372 0.0000
# 6 0.0000 0.0000 0.0000 0.0000 0.0000 50.6896
#
#
#
# Elastic Compliance Matrix: (Units=1/GPa)
#
#
# Indices 1 2 3 4 5 6 
#
# 1 0.008839 -0.005072 -0.002535 0.000000 0.000000 0.000000
# 2 -0.005072 0.015108 -0.001598 0.000000 0.000000 0.000000
# 3 -0.002535 -0.001598 0.012720 0.000000 0.000000 0.000000
# 4 0.000000 0.000000 0.000000 0.059761 0.000000 0.000000
# 5 0.000000 0.000000 0.000000 0.000000 0.052254 0.000000
# 6 0.000000 0.000000 0.000000 0.000000 0.000000 0.019728
#
#
# Mechanical properties :
#
#
# Convention : Reuss Voigt Hill
#
# Bulk Modulus (GPa) = 54.77225 63.08161 58.92693
# Shear Modulus (GPa) = 25.91936 31.71126 28.81531
#
# Velocity S-wave (km/s) = 3.59421 3.97556 3.78968
# Velocity P-wave (km/s) = 6.67257 7.24662 6.96551
#
# Compressibility (1/GPa) = 0.01825742
#
# Stress axis : x y z
#
# Youngs Moduli (GPa) = 113.13215 66.19192 78.61477
#
# Poissons Ratio (x) = 0.33573 0.19929
# Poissons Ratio (y) = 0.57381 0.12561
# Poissons Ratio (z) = 0.28679 0.10576
#
# Static dielectric constant tensor:
#      x y z
#    x 3.964970 0.000000 0.000000 
#    y 0.000000 4.173290 0.000000 
#    z 0.000000 0.000000 3.642490 
# 
# 
# High freq. dielectric constant tensor:
#      x y z
#    x 1.795340 0.000000 0.000000 
#    y 0.000000 1.790810 0.000000 
#    z 0.000000 0.000000 1.762720 
# 
# From -- ./inp_files/20907.got.cif
#   From: 2010.03.12/outbox.cif.g09.slc.cpg/sg55_11_cif.got.tgz:20907.got - 2010.04.16 15:19:21.
