data_PCOD8227495
_publ_section_title
;
Structure prediction by ZEFSAII (Michael W. Deem and Ramdas Pophale) SiO2 
 PCOD8227495
Probable space group: P B A M
;
_chemical_formula_sum "Si O2"
_cell_formula_units_Z 56
_cell_length_a 14.944834
_cell_length_b 8.567399
_cell_length_c 18.922863
_cell_angle_alpha 90.000000
_cell_angle_beta 90.000000
_cell_angle_gamma 90.000000
_cell_volume 2422.852267
_symmetry_space_group_name_H-M "P B A M"
_symmetry_group_IT_number 55
_symmetry_cell_setting 'orthorhombic'
loop_
_space_group_symop_operation_xyz
x,y,z
-x,-y,z
1/2+x,1/2-y,-z
1/2-x,1/2+y,-z
-x,-y,-z
x,y,-z
1/2-x,1/2+y,z
1/2+x,1/2-y,z
loop_
_atom_site_type_symbol
_atom_site_label
_atom_site_fract_x
_atom_site_fract_y
_atom_site_fract_z
Si Si1 0.993790 0.682157 0.205653
Si Si2 0.744272 0.043888 0.872164
Si Si3 0.618783 0.301929 0.078134
Si Si4 0.222722 0.073083 0.637182
Si Si5 0.359828 0.275558 0.420135
Si Si6 0.810323 0.293384 0.223917
Si Si7 0.535093 0.328972 0.341704
O O1 0.086802 0.747988 0.238401
O O2 0.000000 0.500000 0.189532
O O3 0.958488 0.772042 0.136120
O O4 0.933701 0.725736 0.273484
O O5 0.689994 0.158846 0.923743
O O6 0.762957 0.134520 0.798901
O O7 0.832914 0.968889 0.907752
O O8 0.682487 0.901526 0.846599
O O9 0.575186 0.309983 0.000000
O O10 0.302427 0.115621 0.582441
O O11 0.257202 0.116957 0.715154
O O12 0.128837 0.156949 0.616143
O O13 0.199804 0.888887 0.630725
O O14 0.366572 0.339117 0.500000
O O15 0.460119 0.247505 0.391126
O O16 0.500000 0.500000 0.318838
#
# Coordination Sequence:
#
# PCOD8227495 Si02
#       7
#     8   8   8   8   8   8   8
#     4  12  25  41  62  99 131 169 222 285 338 399
#     4  10  22  41  66  93 125 172 222 279 331 405
#     4  11  24  43  65  94 133 177 223 276 345 410
#     4  11  23  40  67  94 130 175 217 275 331 390
#     4  11  24  42  64  98 135 174 220 271 334 405
#     4  11  22  40  67  96 127 169 224 281 335 389
#     4  10  24  42  68  92 126 174 225 274 326 400
#
# _framework density 23.113254000000001
#
# number of rings (size 3 to 8) (size 9 to 14) (size 15 to 20)
#    0.000    1.143    2.857    3.429    6.000    3.429 
#    0.000    2.143    0.000    2.143    0.000    0.000 
#    0.000    0.000    0.000    0.000    0.000    0.000 
#
# Total GULP energy -693862.510632 kJ/mol
# GULP energy per Si atom -12390.401976 kJ/mol
# Density = 2.306065 g / cm^3
# Si number density = 23.113254 Si / 1000 Ang^3
#
#
#
# Elastic Constant Matrix: (Units=GPa)
#
#
# Indices 1 2 3 4 5 6 
#
# 1 104.2653 8.7827 24.2743 0.0000 0.0000 0.0000
# 2 8.7827 47.9467 12.4855 0.0000 0.0000 0.0000
# 3 24.2743 12.4855 117.4875 0.0000 0.0000 0.0000
# 4 0.0000 0.0000 0.0000 22.6767 0.0000 0.0000
# 5 0.0000 0.0000 0.0000 0.0000 33.7676 0.0000
# 6 0.0000 0.0000 0.0000 0.0000 0.0000 31.5017
#
#
#
# Elastic Compliance Matrix: (Units=1/GPa)
#
#
# Indices 1 2 3 4 5 6 
#
# 1 0.010160 -0.001352 -0.001956 0.000000 0.000000 0.000000
# 2 -0.001352 0.021630 -0.002019 0.000000 0.000000 0.000000
# 3 -0.001956 -0.002019 0.009130 0.000000 0.000000 0.000000
# 4 0.000000 0.000000 0.000000 0.044098 0.000000 0.000000
# 5 0.000000 0.000000 0.000000 0.000000 0.029614 0.000000
# 6 0.000000 0.000000 0.000000 0.000000 0.000000 0.031744
#
#
# Mechanical properties :
#
#
# Convention : Reuss Voigt Hill
#
# Bulk Modulus (GPa) = 33.03954 40.08718 36.56336
# Shear Modulus (GPa) = 29.91876 32.53299 31.22587
#
# Velocity S-wave (km/s) = 3.60174 3.75580 3.67957
# Velocity P-wave (km/s) = 5.62338 6.01577 5.82288
#
# Compressibility (1/GPa) = 0.03026676
#
# Stress axis : x y z
#
# Youngs Moduli (GPa) = 98.42454 46.23217 109.52692
#
# Poissons Ratio (x) = 0.06250 0.21418
# Poissons Ratio (y) = 0.13306 0.22117
# Poissons Ratio (z) = 0.19247 0.09336
#
# Static dielectric constant tensor:
#      x y z
#    x 4.274180 0.000000 0.000000 
#    y 0.000000 4.199790 0.000000 
#    z 0.000000 0.000000 3.864420 
# 
# 
# High freq. dielectric constant tensor:
#      x y z
#    x 1.916880 0.000000 0.000000 
#    y 0.000000 1.911010 0.000000 
#    z 0.000000 0.000000 1.897840 
# 
# From -- ./inp_files/22971.got.cif
#   From: 2010.03.12/outbox.cif.g09.slc.cpg/sg55_12_cif.got.tgz:22971.got - 2010.04.16 15:19:21.
