data_PCOD8227243
_publ_section_title
;
Structure prediction by ZEFSAII (Michael W. Deem and Ramdas Pophale) SiO2 
 PCOD8227243
Probable space group: P B A M
;
_chemical_formula_sum "Si O2"
_cell_formula_units_Z 48
_cell_length_a 27.127698
_cell_length_b 5.570480
_cell_length_c 13.309060
_cell_angle_alpha 90.000000
_cell_angle_beta 90.000000
_cell_angle_gamma 90.000000
_cell_volume 2011.189274
_symmetry_space_group_name_H-M "P B A M"
_symmetry_group_IT_number 55
_symmetry_cell_setting 'orthorhombic'
loop_
_space_group_symop_operation_xyz
x,y,z
-x,-y,z
1/2+x,1/2-y,-z
1/2-x,1/2+y,-z
-x,-y,-z
x,y,-z
1/2-x,1/2+y,z
1/2+x,1/2-y,z
loop_
_atom_site_type_symbol
_atom_site_label
_atom_site_fract_x
_atom_site_fract_y
_atom_site_fract_z
Si Si1 0.635888 0.312528 0.111460
Si Si2 0.945836 0.540454 0.793927
Si Si3 0.371663 0.330098 0.725295
Si Si4 0.776836 0.317644 0.380733
Si Si5 0.268914 0.944799 0.885253
Si Si6 0.050812 0.132199 0.385113
O O1 0.579889 0.238513 0.135640
O O2 0.655602 0.501068 0.193348
O O3 0.671909 0.080787 0.118904
O O4 0.638208 0.425113 0.000000
O O5 0.912300 0.306322 0.791969
O O6 0.949060 0.625625 0.678832
O O7 0.000000 0.500000 0.839778
O O8 0.330738 0.167533 0.670700
O O9 0.400812 0.476795 0.639695
O O10 0.783650 0.315830 0.500000
O O11 0.749900 0.566630 0.347464
O O12 0.245458 0.700481 0.833276
O O13 0.248749 0.958118 0.000000
O O14 0.053186 0.211353 0.500000
O O15 0.000000 0.000000 0.358562
#
# Coordination Sequence:
#
# PCOD8227243 Si02
#       6
#     8   8   8   8   8   8
#     4  10  25  43  64  95 129 179 235 288 347 409
#     4  11  24  43  64  95 133 172 224 286 347 412
#     4  11  24  42  67  94 132 179 222 286 338 411
#     4  10  24  45  70 104 145 186 229 275 339 427
#     4   9  19  37  62  92 127 163 212 280 343 400
#     4  10  21  39  65  98 131 165 211 272 344 415
#
# _framework density 23.866474
#
# number of rings (size 3 to 8) (size 9 to 14) (size 15 to 20)
#    0.000    1.833    1.667    0.500    7.000    4.000 
#    0.000    0.833    0.000    0.000    0.000    0.000 
#    0.000    0.000    0.000    0.000    0.000    0.000 
#
# Total GULP energy -595143.708903 kJ/mol
# GULP energy per Si atom -12398.827269 kJ/mol
# Density = 2.381215 g / cm^3
# Si number density = 23.866474 Si / 1000 Ang^3
#
#
#
# Elastic Constant Matrix: (Units=GPa)
#
#
# Indices 1 2 3 4 5 6 
#
# 1 133.9934 41.6332 38.7714 0.0000 0.0000 0.0000
# 2 41.6332 120.7616 34.7386 0.0000 0.0000 0.0000
# 3 38.7714 34.7386 68.3122 0.0000 0.0000 0.0000
# 4 0.0000 0.0000 0.0000 -0.1021 0.0000 0.0000
# 5 0.0000 0.0000 0.0000 0.0000 20.8742 0.0000
# 6 0.0000 0.0000 0.0000 0.0000 0.0000 43.3405
#
#
#
# Elastic Compliance Matrix: (Units=1/GPa)
#
#
# Indices 1 2 3 4 5 6 
#
# 1 0.009317 -0.001981 -0.004281 0.000000 0.000000 0.000000
# 2 -0.001981 0.010121 -0.004022 0.000000 0.000000 0.000000
# 3 -0.004281 -0.004022 0.019114 0.000000 0.000000 0.000000
# 4 0.000000 0.000000 0.000000 -9.791458 0.000000 0.000000
# 5 0.000000 0.000000 0.000000 0.000000 0.047906 0.000000
# 6 0.000000 0.000000 0.000000 0.000000 0.000000 0.023073
#
#
# Mechanical properties :
#
#
# Convention : Reuss Voigt Hill
#
# Bulk Modulus (GPa) = 55.60588 61.48373 58.54480
# Shear Modulus (GPa) = -0.51785 26.68410 13.08313
#
# Velocity S-wave (km/s) = -0.46631 3.34736 2.34386
# Velocity P-wave (km/s) = 4.80202 6.38414 5.64875
#
# Compressibility (1/GPa) = 0.01798371
#
# Stress axis : x y z
#
# Youngs Moduli (GPa) = 107.32896 98.80678 52.31810
#
# Poissons Ratio (x) = 0.19571 0.22396
# Poissons Ratio (y) = 0.21259 0.21045
# Poissons Ratio (z) = 0.45946 0.39745
#
# Static dielectric constant tensor:
#      x y z
#    x 4.488250 0.000000 0.000000 
#    y 0.000000 4.333910 0.000000 
#    z 0.000000 0.000000 4.173560 
# 
# 
# High freq. dielectric constant tensor:
#      x y z
#    x 1.956000 0.000000 0.000000 
#    y 0.000000 1.943710 0.000000 
#    z 0.000000 0.000000 1.945260 
# 
# From -- ./inp_files/16656.got.cif
#   From: 2010.03.12/outbox.cif.g09.slc.cpg/sg55_9_cif.got.tgz:16656.got - 2010.04.16 15:19:21.
