data_PCOD8227623
_publ_section_title
;
Structure prediction by ZEFSAII (Michael W. Deem and Ramdas Pophale) SiO2 
 PCOD8227623
Probable space group: P B A M
;
_chemical_formula_sum "Si O2"
_cell_formula_units_Z 40
_cell_length_a 10.066403
_cell_length_b 25.131072
_cell_length_c 7.871669
_cell_angle_alpha 90.000000
_cell_angle_beta 90.000000
_cell_angle_gamma 90.000000
_cell_volume 1991.370877
_symmetry_space_group_name_H-M "P B A M"
_symmetry_group_IT_number 55
_symmetry_cell_setting 'orthorhombic'
loop_
_space_group_symop_operation_xyz
x,y,z
-x,-y,z
1/2+x,1/2-y,-z
1/2-x,1/2+y,-z
-x,-y,-z
x,y,-z
1/2-x,1/2+y,z
1/2+x,1/2-y,z
loop_
_atom_site_type_symbol
_atom_site_label
_atom_site_fract_x
_atom_site_fract_y
_atom_site_fract_z
Si Si1 0.495007 0.105071 0.812801
Si Si2 0.759125 0.953503 0.193958
Si Si3 0.469134 0.624075 0.306050
Si Si4 0.587831 0.797927 0.000000
Si Si5 0.235235 0.930105 0.691615
Si Si6 0.107334 0.199139 0.000000
O O1 0.379301 0.068947 0.728961
O O2 0.626975 0.102254 0.700191
O O3 0.530319 0.081766 0.000000
O O4 0.443969 0.166216 0.831968
O O5 0.880736 0.929397 0.300015
O O6 0.761411 0.017049 0.195548
O O7 0.771343 0.933013 0.000000
O O8 0.467318 0.646436 0.500000
O O9 0.618087 0.608896 0.247584
O O10 0.413936 0.666743 0.173574
O O11 0.741281 0.779780 0.000000
O O12 0.494462 0.747297 0.000000
O O13 0.208124 0.948324 0.500000
#
# Coordination Sequence:
#
# PCOD8227623 Si02
#       6
#     8   8   8   4   8   4
#     4   9  20  40  58  90 122 162 211 259 308 377
#     4  11  20  38  62  90 130 173 217 251 313 375
#     4  11  24  42  63  95 133 165 213 261 309 382
#     4  10  24  44  71  95 114 160 217 259 327 390
#     4  11  24  35  56  97 132 172 213 249 307 376
#     4  12  24  48  71  95 120 166 207 267 337 364
#
# _framework density 20.086665
#
# number of rings (size 3 to 8) (size 9 to 14) (size 15 to 20)
#    0.600    0.800    3.000    2.400    5.600    6.400 
#    0.000    2.000    0.000    0.000    0.000    0.000 
#    0.000    0.000    0.000    0.000    0.000    0.000 
#
# Total GULP energy -495965.487255 kJ/mol
# GULP energy per Si atom -12399.137181 kJ/mol
# Density = 2.004095 g / cm^3
# Si number density = 20.086665 Si / 1000 Ang^3
#
#
#
# Elastic Constant Matrix: (Units=GPa)
#
#
# Indices 1 2 3 4 5 6 
#
# 1 168.5982 50.5148 33.8113 0.0000 0.0000 0.0000
# 2 50.5148 94.0029 29.3273 0.0000 0.0000 0.0000
# 3 33.8113 29.3273 63.5189 0.0000 0.0000 0.0000
# 4 0.0000 0.0000 0.0000 65.3651 0.0000 0.0000
# 5 0.0000 0.0000 0.0000 0.0000 22.6536 0.0000
# 6 0.0000 0.0000 0.0000 0.0000 0.0000 41.1908
#
#
#
# Elastic Compliance Matrix: (Units=1/GPa)
#
#
# Indices 1 2 3 4 5 6 
#
# 1 0.007382 -0.003202 -0.002451 0.000000 0.000000 0.000000
# 2 -0.003202 0.013817 -0.004675 0.000000 0.000000 0.000000
# 3 -0.002451 -0.004675 0.019207 0.000000 0.000000 0.000000
# 4 0.000000 0.000000 0.000000 0.015299 0.000000 0.000000
# 5 0.000000 0.000000 0.000000 0.000000 0.044143 0.000000
# 6 0.000000 0.000000 0.000000 0.000000 0.000000 0.024277
#
#
# Mechanical properties :
#
#
# Convention : Reuss Voigt Hill
#
# Bulk Modulus (GPa) = 50.63446 61.49184 56.06315
# Shear Modulus (GPa) = 33.03270 40.00633 36.51952
#
# Velocity S-wave (km/s) = 4.05965 4.46767 4.26854
# Velocity P-wave (km/s) = 6.87293 7.56923 7.22946
#
# Compressibility (1/GPa) = 0.01974940
#
# Stress axis : x y z
#
# Youngs Moduli (GPa) = 135.45936 72.37274 52.06561
#
# Poissons Ratio (x) = 0.23176 0.12762
# Poissons Ratio (y) = 0.43379 0.24341
# Poissons Ratio (z) = 0.33202 0.33834
#
# Static dielectric constant tensor:
#      x y z
#    x 3.821740 0.000000 0.000000 
#    y 0.000000 3.303180 0.000000 
#    z 0.000000 0.000000 3.415440 
# 
# 
# High freq. dielectric constant tensor:
#      x y z
#    x 1.805840 0.000000 0.000000 
#    y 0.000000 1.757320 0.000000 
#    z 0.000000 0.000000 1.768090 
# 
# From -- ./inp_files/2554.got.cif
#   From: 2010.03.12/outbox.cif.g09.slc.cpg/sg55_2_cif.got.tgz:2554.got - 2010.04.16 15:19:21.
