data_PCOD8227444
_publ_section_title
;
Structure prediction by ZEFSAII (Michael W. Deem and Ramdas Pophale) SiO2 
 PCOD8227444
Probable space group: P B A M
;
_chemical_formula_sum "Si O2"
_cell_formula_units_Z 48
_cell_length_a 18.648053
_cell_length_b 14.812214
_cell_length_c 9.103316
_cell_angle_alpha 90.000000
_cell_angle_beta 90.000000
_cell_angle_gamma 90.000000
_cell_volume 2514.508403
_symmetry_space_group_name_H-M "P B A M"
_symmetry_group_IT_number 55
_symmetry_cell_setting 'orthorhombic'
loop_
_space_group_symop_operation_xyz
x,y,z
-x,-y,z
1/2+x,1/2-y,-z
1/2-x,1/2+y,-z
-x,-y,-z
x,y,-z
1/2-x,1/2+y,z
1/2+x,1/2-y,z
loop_
_atom_site_type_symbol
_atom_site_label
_atom_site_fract_x
_atom_site_fract_y
_atom_site_fract_z
Si Si1 0.079954 0.261312 0.171282
Si Si2 0.258779 0.798025 0.173757
Si Si3 0.021299 0.598257 0.328252
Si Si4 0.427701 0.553876 0.830859
Si Si5 0.184805 0.637144 0.331250
Si Si6 0.207648 0.976615 0.670620
O O1 0.160117 0.281781 0.228067
O O2 0.059552 0.158386 0.208167
O O3 0.024872 0.324579 0.253766
O O4 0.073494 0.281615 0.000000
O O5 0.209851 0.715860 0.225018
O O6 0.227556 0.888134 0.241208
O O7 0.254370 0.804338 0.000000
O O8 0.005167 0.602915 0.500000
O O9 0.103708 0.614428 0.290533
O O10 0.000000 0.500000 0.265828
O O11 0.500000 0.500000 0.799180
O O12 0.367625 0.514353 0.725534
O O13 0.402994 0.543593 0.000000
O O14 0.193087 0.668158 0.500000
O O15 0.230581 0.548523 0.298863
O O16 0.200825 0.952473 0.500000
#
# Coordination Sequence:
#
# PCOD8227444 Si02
#       6
#     8   8   8   8   8   8
#     4  10  22  40  61  90 123 160 203 245 299 360
#     4  11  23  39  62  88 120 159 201 249 300 358
#     4  10  22  40  62  88 122 160 197 245 304 359
#     4  10  22  41  62  87 124 163 203 251 303 360
#     4  10  22  40  61  90 122 156 199 247 301 360
#     4  11  23  40  64  91 122 157 202 252 303 363
#
# _framework density 19.089219
#
# number of rings (size 3 to 8) (size 9 to 14) (size 15 to 20)
#    0.000    1.667    1.667    2.000    2.333    5.333 
#    0.000    0.000    0.000    0.000    0.000    0.000 
#    0.000    0.000    0.000    0.000    0.000    0.000 
#
# Total GULP energy -595468.293589 kJ/mol
# GULP energy per Si atom -12405.589450 kJ/mol
# Density = 1.904577 g / cm^3
# Si number density = 19.089219 Si / 1000 Ang^3
#
#
#
# Elastic Constant Matrix: (Units=GPa)
#
#
# Indices 1 2 3 4 5 6 
#
# 1 144.5404 86.3577 58.3127 0.0000 0.0000 0.0000
# 2 86.3577 160.1127 61.8331 0.0000 0.0000 0.0000
# 3 58.3127 61.8331 70.5432 0.0000 0.0000 0.0000
# 4 0.0000 0.0000 0.0000 34.3901 0.0000 0.0000
# 5 0.0000 0.0000 0.0000 0.0000 34.2625 0.0000
# 6 0.0000 0.0000 0.0000 0.0000 0.0000 28.0072
#
#
#
# Elastic Compliance Matrix: (Units=1/GPa)
#
#
# Indices 1 2 3 4 5 6 
#
# 1 0.011819 -0.003933 -0.006323 0.000000 0.000000 0.000000
# 2 -0.003933 0.010750 -0.006172 0.000000 0.000000 0.000000
# 3 -0.006323 -0.006172 0.024812 0.000000 0.000000 0.000000
# 4 0.000000 0.000000 0.000000 0.029078 0.000000 0.000000
# 5 0.000000 0.000000 0.000000 0.000000 0.029186 0.000000
# 6 0.000000 0.000000 0.000000 0.000000 0.000000 0.035705
#
#
# Mechanical properties :
#
#
# Convention : Reuss Voigt Hill
#
# Bulk Modulus (GPa) = 68.83976 87.57814 78.20895
# Shear Modulus (GPa) = 27.92549 30.57816 29.25182
#
# Velocity S-wave (km/s) = 3.82893 4.00666 3.91880
# Velocity P-wave (km/s) = 7.46244 8.20868 7.84444
#
# Compressibility (1/GPa) = 0.01452649
#
# Stress axis : x y z
#
# Youngs Moduli (GPa) = 84.60929 93.01994 40.30322
#
# Poissons Ratio (x) = 0.36585 0.25482
# Poissons Ratio (y) = 0.33277 0.24875
# Poissons Ratio (z) = 0.53494 0.57411
#
# Static dielectric constant tensor:
#      x y z
#    x 4.223290 0.000000 0.000000 
#    y 0.000000 3.610930 0.000000 
#    z 0.000000 0.000000 3.484390 
# 
# 
# High freq. dielectric constant tensor:
#      x y z
#    x 1.755530 0.000000 0.000000 
#    y 0.000000 1.759190 0.000000 
#    z 0.000000 0.000000 1.741150 
# 
# From -- ./inp_files/5554.got.cif
#   From: 2010.03.12/outbox.cif.g09.slc.cpg/sg55_3_cif.got.tgz:5554.got - 2010.04.16 15:19:21.
