data_PCOD8227249
_publ_section_title
;
Structure prediction by ZEFSAII (Michael W. Deem and Ramdas Pophale) SiO2 
 PCOD8227249
Probable space group: P B A M
;
_chemical_formula_sum "Si O2"
_cell_formula_units_Z 48
_cell_length_a 9.333124
_cell_length_b 13.277835
_cell_length_c 17.464108
_cell_angle_alpha 90.000000
_cell_angle_beta 90.000000
_cell_angle_gamma 90.000000
_cell_volume 2164.216540
_symmetry_space_group_name_H-M "P B A M"
_symmetry_group_IT_number 55
_symmetry_cell_setting 'orthorhombic'
loop_
_space_group_symop_operation_xyz
x,y,z
-x,-y,z
1/2+x,1/2-y,-z
1/2-x,1/2+y,-z
-x,-y,-z
x,y,-z
1/2-x,1/2+y,z
1/2+x,1/2-y,z
loop_
_atom_site_type_symbol
_atom_site_label
_atom_site_fract_x
_atom_site_fract_y
_atom_site_fract_z
Si Si1 0.828908 0.596545 0.290889
Si Si2 0.518495 0.607664 0.353374
Si Si3 0.516966 0.617314 0.090371
Si Si4 0.466800 0.185122 0.586376
Si Si5 0.280012 0.764801 0.161730
Si Si6 0.774386 0.376500 0.286091
O O1 0.661878 0.614607 0.304640
O O2 0.908860 0.627829 0.368290
O O3 0.875165 0.662844 0.217594
O O4 0.859562 0.480031 0.273058
O O5 0.500000 0.500000 0.396311
O O6 0.504430 0.695147 0.416094
O O7 0.397139 0.614895 0.287528
O O8 0.500000 0.500000 0.121244
O O9 0.385866 0.691446 0.114452
O O10 0.671536 0.665682 0.112678
O O11 0.512582 0.612930 0.000000
O O12 0.458978 0.143435 0.500000
O O13 0.318108 0.167565 0.630790
O O14 0.180788 0.695093 0.216397
#
# Coordination Sequence:
#
# PCOD8227249 Si02
#       6
#     8   8   8   8   8   8
#     4  11  23  40  64  94 122 165 223 272 327 392
#     4  10  21  40  62  86 119 158 216 279 329 387
#     4  11  26  46  72 109 145 178 221 273 337 411
#     4  12  24  41  58  85 129 170 215 277 337 391
#     4  12  21  44  75 100 134 182 218 282 337 400
#     4  11  23  40  64  94 122 165 223 272 327 392
#
# _framework density 22.178925
#
# number of rings (size 3 to 8) (size 9 to 14) (size 15 to 20)
#    0.000    0.833    3.333    4.000    0.000    5.667 
#    0.000    5.833    0.000    6.000    0.000    0.000 
#    0.000    0.000    0.000    0.000    0.000    0.000 
#
# Total GULP energy -594835.679884 kJ/mol
# GULP energy per Si atom -12392.409998 kJ/mol
# Density = 2.212845 g / cm^3
# Si number density = 22.178925 Si / 1000 Ang^3
#
#
#
# Elastic Constant Matrix: (Units=GPa)
#
#
# Indices 1 2 3 4 5 6 
#
# 1 61.3926 -3.9708 15.2427 0.0000 0.0000 0.0000
# 2 -3.9708 156.7592 42.8701 0.0000 0.0000 0.0000
# 3 15.2427 42.8701 111.6962 0.0000 0.0000 0.0000
# 4 0.0000 0.0000 0.0000 24.8717 0.0000 0.0000
# 5 0.0000 0.0000 0.0000 0.0000 27.8870 0.0000
# 6 0.0000 0.0000 0.0000 0.0000 0.0000 34.3824
#
#
#
# Elastic Compliance Matrix: (Units=1/GPa)
#
#
# Indices 1 2 3 4 5 6 
#
# 1 0.017058 0.001194 -0.002786 0.000000 0.000000 0.000000
# 2 0.001194 0.007211 -0.002931 0.000000 0.000000 0.000000
# 3 -0.002786 -0.002931 0.010458 0.000000 0.000000 0.000000
# 4 0.000000 0.000000 0.000000 0.040206 0.000000 0.000000
# 5 0.000000 0.000000 0.000000 0.000000 0.035859 0.000000
# 6 0.000000 0.000000 0.000000 0.000000 0.000000 0.029085
#
#
# Mechanical properties :
#
#
# Convention : Reuss Voigt Hill
#
# Bulk Modulus (GPa) = 38.93916 48.68134 43.81025
# Shear Modulus (GPa) = 31.74968 35.80861 33.77914
#
# Velocity S-wave (km/s) = 3.78765 4.02248 3.90683
# Velocity P-wave (km/s) = 6.05998 6.60082 6.33618
#
# Compressibility (1/GPa) = 0.02568109
#
# Stress axis : x y z
#
# Youngs Moduli (GPa) = 58.62503 138.67902 95.62218
#
# Poissons Ratio (x) = -0.16558 0.26641
# Poissons Ratio (y) = -0.07000 0.28023
# Poissons Ratio (z) = 0.16333 0.40641
#
# Static dielectric constant tensor:
#      x y z
#    x 4.047800 0.000000 0.000000 
#    y 0.000000 4.697460 0.000000 
#    z 0.000000 0.000000 3.644750 
# 
# 
# High freq. dielectric constant tensor:
#      x y z
#    x 1.881670 0.000000 0.000000 
#    y 0.000000 1.904740 0.000000 
#    z 0.000000 0.000000 1.841640 
# 
# From -- ./inp_files/20788.got.cif
#   From: 2010.03.12/outbox.cif.g09.slc.cpg/sg55_11_cif.got.tgz:20788.got - 2010.04.16 15:19:21.
