data_PCOD8227667
_publ_section_title
;
Structure prediction by ZEFSAII (Michael W. Deem and Ramdas Pophale) SiO2 
 PCOD8227667
Probable space group: P B A M
;
_chemical_formula_sum "Si O2"
_cell_formula_units_Z 40
_cell_length_a 20.580877
_cell_length_b 11.748380
_cell_length_c 8.832253
_cell_angle_alpha 90.000000
_cell_angle_beta 90.000000
_cell_angle_gamma 90.000000
_cell_volume 2135.567797
_symmetry_space_group_name_H-M "P B A M"
_symmetry_group_IT_number 55
_symmetry_cell_setting 'orthorhombic'
loop_
_space_group_symop_operation_xyz
x,y,z
-x,-y,z
1/2+x,1/2-y,-z
1/2-x,1/2+y,-z
-x,-y,-z
x,y,-z
1/2-x,1/2+y,z
1/2+x,1/2-y,z
loop_
_atom_site_type_symbol
_atom_site_label
_atom_site_fract_x
_atom_site_fract_y
_atom_site_fract_z
Si Si1 0.864346 0.489387 0.171006
Si Si2 0.006999 0.872783 0.680031
Si Si3 0.137384 0.753435 0.320793
Si Si4 0.233328 0.326302 0.170732
Si Si5 0.893326 0.708581 0.320141
O O1 0.864448 0.375305 0.265827
O O2 0.790966 0.541902 0.169639
O O3 0.910988 0.583340 0.251966
O O4 0.888681 0.466843 0.000000
O O5 0.006832 0.875411 0.500000
O O6 0.073816 0.818450 0.740030
O O7 0.946879 0.797379 0.738755
O O8 0.000000 0.000000 0.746159
O O9 0.140648 0.754076 0.500000
O O10 0.199220 0.820068 0.257713
O O11 0.177383 0.251921 0.256247
O O12 0.241966 0.279452 0.000000
O O13 0.891122 0.701313 0.500000
#
# Coordination Sequence:
#
# PCOD8227667 Si02
#       5
#     8   8   8   8   8
#     4   9  20  37  56  80 115 150 188 236 290 343
#     4   9  20  37  56  85 119 150 187 241 295 341
#     4  11  21  34  59  89 116 149 196 241 285 346
#     4   9  20  37  55  80 116 153 187 234 293 340
#     4   9  17  35  60  83 110 148 194 235 284 344
#
# _framework density 18.73038
#
# number of rings (size 3 to 8) (size 9 to 14) (size 15 to 20)
#    1.200    1.400    0.000    1.800    0.000    2.400 
#    0.000   10.000    0.000    7.200    0.000    0.000 
#    0.000    0.000    0.000    0.000    0.000    0.000 
#
# Total GULP energy -495692.134501 kJ/mol
# GULP energy per Si atom -12392.303363 kJ/mol
# Density = 1.868775 g / cm^3
# Si number density = 18.730380 Si / 1000 Ang^3
#
#
#
# Elastic Constant Matrix: (Units=GPa)
#
#
# Indices 1 2 3 4 5 6 
#
# 1 144.7154 61.3322 43.3374 0.0000 0.0000 0.0000
# 2 61.3322 116.8251 30.7913 0.0000 0.0000 0.0000
# 3 43.3374 30.7913 93.3282 0.0000 0.0000 0.0000
# 4 0.0000 0.0000 0.0000 20.2075 0.0000 0.0000
# 5 0.0000 0.0000 0.0000 0.0000 10.2255 0.0000
# 6 0.0000 0.0000 0.0000 0.0000 0.0000 30.1825
#
#
#
# Elastic Compliance Matrix: (Units=1/GPa)
#
#
# Indices 1 2 3 4 5 6 
#
# 1 0.009629 -0.004246 -0.003070 0.000000 0.000000 0.000000
# 2 -0.004246 0.011247 -0.001739 0.000000 0.000000 0.000000
# 3 -0.003070 -0.001739 0.012714 0.000000 0.000000 0.000000
# 4 0.000000 0.000000 0.000000 0.049487 0.000000 0.000000
# 5 0.000000 0.000000 0.000000 0.000000 0.097794 0.000000
# 6 0.000000 0.000000 0.000000 0.000000 0.000000 0.033132
#
#
# Mechanical properties :
#
#
# Convention : Reuss Voigt Hill
#
# Bulk Modulus (GPa) = 64.60061 69.53228 67.06645
# Shear Modulus (GPa) = 21.07262 26.75028 23.91145
#
# Velocity S-wave (km/s) = 3.35782 3.78322 3.57685
# Velocity P-wave (km/s) = 7.04257 7.50247 7.27615
#
# Compressibility (1/GPa) = 0.01547973
#
# Stress axis : x y z
#
# Youngs Moduli (GPa) = 103.85198 88.91062 78.65061
#
# Poissons Ratio (x) = 0.37751 0.24150
# Poissons Ratio (y) = 0.44095 0.13678
# Poissons Ratio (z) = 0.31888 0.15463
#
# Static dielectric constant tensor:
#      x y z
#    x 3.455290 0.000000 0.000000 
#    y 0.000000 3.347820 0.000000 
#    z 0.000000 0.000000 3.318040 
# 
# 
# High freq. dielectric constant tensor:
#      x y z
#    x 1.720320 0.000000 0.000000 
#    y 0.000000 1.717610 0.000000 
#    z 0.000000 0.000000 1.724270 
# 
# From -- ./inp_files/7177.got.cif
#   From: 2010.03.12/outbox.cif.g09.slc.cpg/sg55_4_cif.got.tgz:7177.got - 2010.04.16 15:19:21.
