data_PCOD8227350
_publ_section_title
;
Structure prediction by ZEFSAII (Michael W. Deem and Ramdas Pophale) SiO2 
 PCOD8227350
Probable space group: P B A M
;
_chemical_formula_sum "Si O2"
_cell_formula_units_Z 64
_cell_length_a 21.989642
_cell_length_b 16.614972
_cell_length_c 9.098999
_cell_angle_alpha 90.000000
_cell_angle_beta 90.000000
_cell_angle_gamma 90.000000
_cell_volume 3324.385581
_symmetry_space_group_name_H-M "P B A M"
_symmetry_group_IT_number 55
_symmetry_cell_setting 'orthorhombic'
loop_
_space_group_symop_operation_xyz
x,y,z
-x,-y,z
1/2+x,1/2-y,-z
1/2-x,1/2+y,-z
-x,-y,-z
x,y,-z
1/2-x,1/2+y,z
1/2+x,1/2-y,z
loop_
_atom_site_type_symbol
_atom_site_label
_atom_site_fract_x
_atom_site_fract_y
_atom_site_fract_z
Si Si1 0.626913 0.682926 0.335350
Si Si2 0.975152 0.311318 0.327301
Si Si3 0.119478 0.564309 0.328388
Si Si4 0.400106 0.778216 0.170219
Si Si5 0.830066 0.871389 0.167444
Si Si6 0.719484 0.820602 0.335019
Si Si7 0.691931 0.550326 0.825574
Si Si8 0.181200 0.402945 0.326011
O O1 0.615844 0.649765 0.500000
O O2 0.570024 0.737894 0.287051
O O3 0.688989 0.733500 0.332229
O O4 0.637330 0.609442 0.223738
O O5 0.990867 0.311653 0.500000
O O6 0.944511 0.396592 0.275920
O O7 0.035833 0.302528 0.236102
O O8 0.122516 0.584896 0.500000
O O9 0.175682 0.613272 0.258017
O O10 0.128516 0.470299 0.295252
O O11 0.391886 0.680921 0.188008
O O12 0.344962 0.822475 0.254373
O O13 0.397728 0.803555 0.000000
O O14 0.780437 0.815946 0.244290
O O15 0.832010 0.962459 0.228090
O O16 0.810811 0.877202 0.000000
O O17 0.736250 0.846701 0.500000
O O18 0.755265 0.570506 0.745728
O O19 0.700933 0.556750 0.000000
O O20 0.191494 0.391033 0.500000
#
# Coordination Sequence:
#
# PCOD8227350 Si02
#       8
#     8   8   8   8   8   8   8   8
#     4   9  19  35  58  84 109 140 183 232 278 330
#     4   9  19  39  61  81 108 145 193 235 272 325
#     4   8  16  32  56  83 110 141 176 221 271 323
#     4  11  24  40  55  78 113 151 190 231 277 330
#     4  10  22  37  52  74 110 150 182 221 274 332
#     4   9  16  31  55  81 106 136 176 219 270 329
#     4  11  22  36  55  83 115 145 181 226 278 334
#     4  11  21  36  59  86 115 146 182 225 280 335
#
# _framework density 19.251677999999998
#
# number of rings (size 3 to 8) (size 9 to 14) (size 15 to 20)
#    0.000    2.250    1.250    3.375    0.000    5.000 
#    0.000    6.250    0.000    3.750    0.000    0.000 
#    0.000    0.000    0.000    0.000    0.000    0.000 
#
# Total GULP energy -793178.567194 kJ/mol
# GULP energy per Si atom -12393.415112 kJ/mol
# Density = 1.920786 g / cm^3
# Si number density = 19.251678 Si / 1000 Ang^3
#
#
#
# Elastic Constant Matrix: (Units=GPa)
#
#
# Indices 1 2 3 4 5 6 
#
# 1 45.9234 30.3017 24.3837 0.0000 0.0000 0.0000
# 2 30.3017 106.5790 42.5660 0.0000 0.0000 0.0000
# 3 24.3837 42.5660 66.1402 0.0000 0.0000 0.0000
# 4 0.0000 0.0000 0.0000 24.4893 0.0000 0.0000
# 5 0.0000 0.0000 0.0000 0.0000 40.0699 0.0000
# 6 0.0000 0.0000 0.0000 0.0000 0.0000 22.9477
#
#
#
# Elastic Compliance Matrix: (Units=1/GPa)
#
#
# Indices 1 2 3 4 5 6 
#
# 1 0.029207 -0.005388 -0.007300 0.000000 0.000000 0.000000
# 2 -0.005388 0.013623 -0.006781 0.000000 0.000000 0.000000
# 3 -0.007300 -0.006781 0.022174 0.000000 0.000000 0.000000
# 4 0.000000 0.000000 0.000000 0.040834 0.000000 0.000000
# 5 0.000000 0.000000 0.000000 0.000000 0.024956 0.000000
# 6 0.000000 0.000000 0.000000 0.000000 0.000000 0.043577
#
#
# Mechanical properties :
#
#
# Convention : Reuss Voigt Hill
#
# Bulk Modulus (GPa) = 38.36375 45.90503 42.13439
# Shear Modulus (GPa) = 22.52267 25.59411 24.05839
#
# Velocity S-wave (km/s) = 3.42410 3.65012 3.53891
# Velocity P-wave (km/s) = 5.96686 6.45453 6.21548
#
# Compressibility (1/GPa) = 0.02606627
#
# Stress axis : x y z
#
# Youngs Moduli (GPa) = 34.23868 73.40613 45.09692
#
# Poissons Ratio (x) = 0.39554 0.32919
# Poissons Ratio (y) = 0.18449 0.30579
# Poissons Ratio (z) = 0.24993 0.49775
#
# Static dielectric constant tensor:
#      x y z
#    x 3.340960 0.000000 0.000000 
#    y 0.000000 3.735050 0.000000 
#    z 0.000000 0.000000 3.365790 
# 
# 
# High freq. dielectric constant tensor:
#      x y z
#    x 1.733490 0.000000 0.000000 
#    y 0.000000 1.757150 0.000000 
#    z 0.000000 0.000000 1.734330 
# 
# From -- ./inp_files/7940.got.cif
#   From: 2010.03.12/outbox.cif.g09.slc.cpg/sg55_4_cif.got.tgz:7940.got - 2010.04.16 15:19:21.
