data_PCOD8227019
_publ_section_title
;
Structure prediction by ZEFSAII (Michael W. Deem and Ramdas Pophale) SiO2 
 PCOD8227019
Probable space group: P B A M
;
_chemical_formula_sum "Si O2"
_cell_formula_units_Z 48
_cell_length_a 8.889777
_cell_length_b 30.863426
_cell_length_c 8.990056
_cell_angle_alpha 90.000000
_cell_angle_beta 90.000000
_cell_angle_gamma 90.000000
_cell_volume 2466.592446
_symmetry_space_group_name_H-M "P B A M"
_symmetry_group_IT_number 55
_symmetry_cell_setting 'orthorhombic'
loop_
_space_group_symop_operation_xyz
x,y,z
-x,-y,z
1/2+x,1/2-y,-z
1/2-x,1/2+y,-z
-x,-y,-z
x,y,-z
1/2-x,1/2+y,z
1/2+x,1/2-y,z
loop_
_atom_site_type_symbol
_atom_site_label
_atom_site_fract_x
_atom_site_fract_y
_atom_site_fract_z
Si Si1 0.927367 0.706085 0.671920
Si Si2 0.901956 0.542405 0.827910
Si Si3 0.575905 0.704308 0.672595
Si Si4 0.913149 0.043778 0.673726
Si Si5 0.074910 0.123747 0.176341
Si Si6 0.584687 0.873706 0.824419
O O1 0.962270 0.697389 0.500000
O O2 0.751589 0.707950 0.705291
O O3 0.999011 0.751212 0.723690
O O4 0.000864 0.667998 0.764224
O O5 0.756848 0.538602 0.726126
O O6 0.000000 0.500000 0.802680
O O7 0.997821 0.583397 0.771963
O O8 0.854019 0.547348 0.000000
O O9 0.542592 0.694358 0.500000
O O10 0.509014 0.666697 0.772606
O O11 0.915534 0.054478 0.500000
O O12 0.991621 0.082385 0.759813
O O13 0.000000 0.000000 0.712489
O O14 0.245447 0.124395 0.237259
O O15 0.069613 0.120853 0.000000
O O16 0.587256 0.870546 0.000000
#
# Coordination Sequence:
#
# PCOD8227019 Si02
#       6
#     8   8   8   8   8   8
#     4  10  21  37  59  84 113 151 190 232 284 340
#     4  10  21  39  62  86 115 152 193 237 284 337
#     4  10  21  38  59  85 115 149 191 235 283 339
#     4  11  24  40  59  86 118 151 189 234 283 337
#     4  11  23  39  60  85 114 151 191 233 284 338
#     4  10  22  38  57  84 115 148 190 237 284 336
#
# _framework density 19.460044
#
# number of rings (size 3 to 8) (size 9 to 14) (size 15 to 20)
#    0.000    1.667    0.000    4.000    0.000   10.333 
#    0.000    0.000    0.000    0.000    0.000    0.000 
#    0.000    0.000    0.000    0.000    0.000    0.000 
#
# Total GULP energy -595476.597973 kJ/mol
# GULP energy per Si atom -12405.762458 kJ/mol
# Density = 1.941575 g / cm^3
# Si number density = 19.460044 Si / 1000 Ang^3
#
#
#
# Elastic Constant Matrix: (Units=GPa)
#
#
# Indices 1 2 3 4 5 6 
#
# 1 129.3605 64.6498 36.4982 0.0000 0.0000 0.0000
# 2 64.6498 146.8999 42.8415 0.0000 0.0000 0.0000
# 3 36.4982 42.8415 40.0304 0.0000 0.0000 0.0000
# 4 0.0000 0.0000 0.0000 39.5188 0.0000 0.0000
# 5 0.0000 0.0000 0.0000 0.0000 31.8555 0.0000
# 6 0.0000 0.0000 0.0000 0.0000 0.0000 41.5960
#
#
#
# Elastic Compliance Matrix: (Units=1/GPa)
#
#
# Indices 1 2 3 4 5 6 
#
# 1 0.011160 -0.002826 -0.007151 0.000000 0.000000 0.000000
# 2 -0.002826 0.010612 -0.008780 0.000000 0.000000 0.000000
# 3 -0.007151 -0.008780 0.040898 0.000000 0.000000 0.000000
# 4 0.000000 0.000000 0.000000 0.025304 0.000000 0.000000
# 5 0.000000 0.000000 0.000000 0.000000 0.031392 0.000000
# 6 0.000000 0.000000 0.000000 0.000000 0.000000 0.024041
#
#
# Mechanical properties :
#
#
# Convention : Reuss Voigt Hill
#
# Bulk Modulus (GPa) = 39.75313 67.14109 53.44711
# Shear Modulus (GPa) = 26.41219 34.08083 30.24651
#
# Velocity S-wave (km/s) = 3.68809 4.18942 3.94672
# Velocity P-wave (km/s) = 6.21357 7.61437 6.94935
#
# Compressibility (1/GPa) = 0.02515525
#
# Stress axis : x y z
#
# Youngs Moduli (GPa) = 89.60306 94.23529 24.45117
#
# Poissons Ratio (x) = 0.26632 0.17485
# Poissons Ratio (y) = 0.25323 0.21469
# Poissons Ratio (z) = 0.64075 0.82741
#
# Static dielectric constant tensor:
#      x y z
#    x 3.658250 0.000000 0.000000 
#    y 0.000000 3.687020 0.000000 
#    z 0.000000 0.000000 3.495090 
# 
# 
# High freq. dielectric constant tensor:
#      x y z
#    x 1.778320 0.000000 0.000000 
#    y 0.000000 1.777260 0.000000 
#    z 0.000000 0.000000 1.752350 
# 
# From -- ./inp_files/2859.got.cif
#   From: 2010.03.12/outbox.cif.g09.slc.cpg/sg55_2_cif.got.tgz:2859.got - 2010.04.16 15:19:21.
