data_PCOD8227982
_publ_section_title
;
Structure prediction by ZEFSAII (Michael W. Deem and Ramdas Pophale) SiO2 
 PCOD8227982
Probable space group: P C C N
;
_chemical_formula_sum "Si O2"
_cell_formula_units_Z 48
_cell_length_a 13.163219
_cell_length_b 22.623706
_cell_length_c 9.156622
_cell_angle_alpha 90.000000
_cell_angle_beta 90.000000
_cell_angle_gamma 90.000000
_cell_volume 2726.849326
_symmetry_space_group_name_H-M "P C C N"
_symmetry_group_IT_number 56
_symmetry_cell_setting 'orthorhombic'
loop_
_space_group_symop_operation_xyz
x,y,z
1/2-x,1/2-y,z
1/2+x,-y,1/2-z
-x,1/2+y,1/2-z
-x,-y,-z
1/2+x,1/2+y,-z
1/2-x,y,1/2+z
x,1/2-y,1/2+z
loop_
_atom_site_type_symbol
_atom_site_label
_atom_site_fract_x
_atom_site_fract_y
_atom_site_fract_z
Si Si1 0.049331 0.929463 0.158106
Si Si2 0.133704 0.001418 0.402358
Si Si3 0.145198 0.810505 0.535086
Si Si4 0.447264 0.572407 0.642580
Si Si5 0.140678 0.808420 0.185110
Si Si6 0.365451 0.507320 0.896889
O O1 0.060187 0.859036 0.141288
O O2 0.933254 0.948700 0.129136
O O3 0.086133 0.944716 0.320229
O O4 0.125500 0.969272 0.061183
O O5 0.250700 0.012103 0.364024
O O6 0.068754 0.060289 0.365632
O O7 0.116719 0.981261 0.568538
O O8 0.069879 0.863415 0.575351
O O9 0.154808 0.801765 0.360270
O O10 0.253392 0.825229 0.607775
O O11 0.099946 0.751967 0.612501
O O12 0.406487 0.564691 0.807293
#
# Coordination Sequence:
#
# PCOD8227982 Si02
#       6
#     8   8   8   8   8   8
#     4  10  21  33  50  80 103 138 170 210 253 310
#     4  10  18  35  51  78 102 137 165 213 254 305
#     4  11  22  35  52  77 101 141 170 215 254 310
#     4  10  21  31  54  76 105 133 174 203 258 306
#     4  11  22  35  53  75 105 136 177 208 262 301
#     4  10  20  33  53  76 108 135 171 207 258 302
#
# _framework density 17.602733000000001
#
# number of rings (size 3 to 8) (size 9 to 14) (size 15 to 20)
#    0.000    1.667    1.667    5.000    4.667    0.000 
#    0.000    0.000    0.000    1.000    0.000    2.333 
#    0.000    0.000    0.000    0.000    0.000    0.000 
#
# Total GULP energy -594954.312299 kJ/mol
# GULP energy per Si atom -12394.881506 kJ/mol
# Density = 1.756267 g / cm^3
# Si number density = 17.602733 Si / 1000 Ang^3
#
#
#
# Elastic Constant Matrix: (Units=GPa)
#
#
# Indices 1 2 3 4 5 6 
#
# 1 118.5313 64.4618 27.3558 0.0000 0.0000 0.0000
# 2 64.4618 118.8961 35.2349 0.0000 0.0000 0.0000
# 3 27.3558 35.2349 75.1287 0.0000 0.0000 0.0000
# 4 0.0000 0.0000 0.0000 24.1986 0.0000 0.0000
# 5 0.0000 0.0000 0.0000 0.0000 19.0035 0.0000
# 6 0.0000 0.0000 0.0000 0.0000 0.0000 25.8491
#
#
#
# Elastic Compliance Matrix: (Units=1/GPa)
#
#
# Indices 1 2 3 4 5 6 
#
# 1 0.012117 -0.006111 -0.001546 0.000000 0.000000 0.000000
# 2 -0.006111 0.012851 -0.003802 0.000000 0.000000 0.000000
# 3 -0.001546 -0.003802 0.015656 0.000000 0.000000 0.000000
# 4 0.000000 0.000000 0.000000 0.041325 0.000000 0.000000
# 5 0.000000 0.000000 0.000000 0.000000 0.052622 0.000000
# 6 0.000000 0.000000 0.000000 0.000000 0.000000 0.038686
#
#
# Mechanical properties :
#
#
# Convention : Reuss Voigt Hill
#
# Bulk Modulus (GPa) = 56.47701 62.96236 59.71969
# Shear Modulus (GPa) = 24.74313 26.17715 25.46014
#
# Velocity S-wave (km/s) = 3.75326 3.86049 3.80725
# Velocity P-wave (km/s) = 7.13698 7.46440 7.30253
#
# Compressibility (1/GPa) = 0.01770632
#
# Stress axis : x y z
#
# Youngs Moduli (GPa) = 82.52926 77.81686 63.87204
#
# Poissons Ratio (x) = 0.47556 0.09874
# Poissons Ratio (y) = 0.50436 0.24282
# Poissons Ratio (z) = 0.12758 0.29583
#
# Static dielectric constant tensor:
#      x y z
#    x 3.073530 0.000000 0.000000 
#    y 0.000000 3.171620 0.000000 
#    z 0.000000 0.000000 3.534550 
# 
# 
# High freq. dielectric constant tensor:
#      x y z
#    x 1.654190 0.000000 0.000000 
#    y 0.000000 1.660550 0.000000 
#    z 0.000000 0.000000 1.710260 
# 
# From -- ./inp_files/3478.got.cif
#   From: 2010.03.12/outbox.cif.g09.slc.cpg/sg56_2_cif.got.tgz:3478.got - 2010.04.16 15:33:40.
