data_PCOD8227671
_publ_section_title
;
Structure prediction by ZEFSAII (Michael W. Deem and Ramdas Pophale) SiO2 
 PCOD8227671
Probable space group: P B A M
;
_chemical_formula_sum "Si O2"
_cell_formula_units_Z 48
_cell_length_a 12.219672
_cell_length_b 18.160138
_cell_length_c 11.306526
_cell_angle_alpha 90.000000
_cell_angle_beta 90.000000
_cell_angle_gamma 90.000000
_cell_volume 2509.041698
_symmetry_space_group_name_H-M "P B A M"
_symmetry_group_IT_number 55
_symmetry_cell_setting 'orthorhombic'
loop_
_space_group_symop_operation_xyz
x,y,z
-x,-y,z
1/2+x,1/2-y,-z
1/2-x,1/2+y,-z
-x,-y,-z
x,y,-z
1/2-x,1/2+y,z
1/2+x,1/2-y,z
loop_
_atom_site_type_symbol
_atom_site_label
_atom_site_fract_x
_atom_site_fract_y
_atom_site_fract_z
Si Si1 0.609784 0.193096 0.861042
Si Si2 0.303789 0.391055 0.747438
Si Si3 0.938784 0.428764 0.139422
Si Si4 0.662382 0.545810 0.500000
Si Si5 0.300841 0.543423 0.137127
Si Si6 0.547719 0.343848 0.251561
Si Si7 0.920926 0.889792 0.500000
O O1 0.711553 0.166564 0.784040
O O2 0.503345 0.145191 0.826516
O O3 0.588045 0.277127 0.828468
O O4 0.636684 0.186647 0.000000
O O5 0.277999 0.423098 0.616920
O O6 0.304976 0.456331 0.842625
O O7 0.417305 0.347414 0.752380
O O8 0.814457 0.424250 0.187116
O O9 0.000000 0.500000 0.195053
O O10 0.932964 0.440062 0.000000
O O11 0.538072 0.571560 0.500000
O O12 0.667838 0.456387 0.500000
O O13 0.402434 0.580151 0.203314
O O14 0.313841 0.560405 0.000000
O O15 0.590709 0.336753 0.386363
#
# Coordination Sequence:
#
# PCOD8227671 Si02
#       7
#     8   8   8   4   8   8   4
#     4  11  24  39  58  88 127 164 196 243 308 373
#     4  11  22  39  63  88 117 158 207 251 297 357
#     4   9  18  36  57  79 113 160 200 228 279 360
#     4   9  18  37  64  86 111 153 202 254 297 348
#     4  11  21  35  60  90 118 154 200 248 302 359
#     4  11  24  38  60  89 121 156 195 256 309 358
#     4   9  18  39  62  85 115 154 199 245 308 359
#
# _framework density 19.13081
#
# number of rings (size 3 to 8) (size 9 to 14) (size 15 to 20)
#    0.000    1.667    3.333    1.500    2.333    4.000 
#    0.000    0.000    0.000    4.000    0.000    0.000 
#    0.000    0.000    0.000    0.000    0.000    0.000 
#
# Total GULP energy -595266.541800 kJ/mol
# GULP energy per Si atom -12401.386288 kJ/mol
# Density = 1.908727 g / cm^3
# Si number density = 19.130810 Si / 1000 Ang^3
#
#
#
# Elastic Constant Matrix: (Units=GPa)
#
#
# Indices 1 2 3 4 5 6 
#
# 1 72.9797 26.7457 38.8485 0.0000 0.0000 0.0000
# 2 26.7457 73.7612 16.0318 0.0000 0.0000 0.0000
# 3 38.8485 16.0318 89.9913 0.0000 0.0000 0.0000
# 4 0.0000 0.0000 0.0000 28.3441 0.0000 0.0000
# 5 0.0000 0.0000 0.0000 0.0000 22.3633 0.0000
# 6 0.0000 0.0000 0.0000 0.0000 0.0000 32.0187
#
#
#
# Elastic Compliance Matrix: (Units=1/GPa)
#
#
# Indices 1 2 3 4 5 6 
#
# 1 0.019737 -0.005518 -0.007537 0.000000 0.000000 0.000000
# 2 -0.005518 0.015646 -0.000405 0.000000 0.000000 0.000000
# 3 -0.007537 -0.000405 0.014438 0.000000 0.000000 0.000000
# 4 0.000000 0.000000 0.000000 0.035281 0.000000 0.000000
# 5 0.000000 0.000000 0.000000 0.000000 0.044716 0.000000
# 6 0.000000 0.000000 0.000000 0.000000 0.000000 0.031232
#
#
# Mechanical properties :
#
#
# Convention : Reuss Voigt Hill
#
# Bulk Modulus (GPa) = 43.66826 44.44271 44.05549
# Shear Modulus (GPa) = 25.56175 26.88564 26.22369
#
# Velocity S-wave (km/s) = 3.65931 3.75288 3.70639
# Velocity P-wave (km/s) = 6.38199 6.48538 6.43389
#
# Compressibility (1/GPa) = 0.02289993
#
# Stress axis : x y z
#
# Youngs Moduli (GPa) = 50.66613 63.91296 69.26117
#
# Poissons Ratio (x) = 0.35270 0.52204
# Poissons Ratio (y) = 0.27960 0.02806
# Poissons Ratio (z) = 0.38188 0.02589
#
# Static dielectric constant tensor:
#      x y z
#    x 3.584090 0.000000 0.000000 
#    y 0.000000 3.309150 0.000000 
#    z 0.000000 0.000000 3.506960 
# 
# 
# High freq. dielectric constant tensor:
#      x y z
#    x 1.740900 0.000000 0.000000 
#    y 0.000000 1.737860 0.000000 
#    z 0.000000 0.000000 1.734410 
# 
# From -- ./inp_files/13232.got.cif
#   From: 2010.03.12/outbox.cif.g09.slc.cpg/sg55_7_cif.got.tgz:13232.got - 2010.04.16 15:19:21.
