data_PCOD8227475
_publ_section_title
;
Structure prediction by ZEFSAII (Michael W. Deem and Ramdas Pophale) SiO2 
 PCOD8227475
Probable space group: P B A M
;
_chemical_formula_sum "Si O2"
_cell_formula_units_Z 48
_cell_length_a 16.438153
_cell_length_b 5.213277
_cell_length_c 25.954520
_cell_angle_alpha 90.000000
_cell_angle_beta 90.000000
_cell_angle_gamma 90.000000
_cell_volume 2224.215285
_symmetry_space_group_name_H-M "P B A M"
_symmetry_group_IT_number 55
_symmetry_cell_setting 'orthorhombic'
loop_
_space_group_symop_operation_xyz
x,y,z
-x,-y,z
1/2+x,1/2-y,-z
1/2-x,1/2+y,-z
-x,-y,-z
x,y,-z
1/2-x,1/2+y,z
1/2+x,1/2-y,z
loop_
_atom_site_type_symbol
_atom_site_label
_atom_site_fract_x
_atom_site_fract_y
_atom_site_fract_z
Si Si1 0.799155 0.817734 0.500000
Si Si2 0.000000 0.000000 0.778976
Si Si3 0.923642 0.350293 0.136043
Si Si4 0.197549 0.517984 0.213710
Si Si5 0.801276 0.140729 0.940525
Si Si6 0.583143 0.146906 0.703007
Si Si7 0.195499 0.268167 0.611014
O O1 0.722388 0.619959 0.500000
O O2 0.845368 0.753966 0.553676
O O3 0.932054 0.877594 0.742490
O O4 0.045497 0.799688 0.814347
O O5 0.857072 0.536202 0.162379
O O6 0.883872 0.171195 0.092332
O O7 0.000000 0.500000 0.110612
O O8 0.235426 0.799423 0.211079
O O9 0.148339 0.529274 0.267487
O O10 0.738242 0.367830 0.927098
O O11 0.827083 0.155963 0.000000
O O12 0.621209 0.257187 0.650627
O O13 0.500000 0.000000 0.689713
O O14 0.239731 0.540489 0.618982
#
# Coordination Sequence:
#
# PCOD8227475 Si02
#       7
#     4   4   8   8   8   8   8
#     4   8  16  36  63  91 124 156 210 274 320 376
#     4  12  24  44  61  89 142 172 218 256 328 380
#     4  12  25  42  66  96 131 176 211 266 324 389
#     4  12  24  40  62  89 121 165 220 262 309 376
#     4  10  24  47  72 100 131 166 214 270 323 380
#     4  12  25  41  60  90 133 176 211 270 324 383
#     4  10  22  40  66  96 123 167 219 268 323 383
#
# _framework density 21.580645000000001
#
# number of rings (size 3 to 8) (size 9 to 14) (size 15 to 20)
#    0.000    1.000    3.333    3.000    4.667    0.333 
#    0.000    0.833    0.000    0.500    0.000    0.000 
#    0.000    0.000    0.000    0.000    0.000    0.000 
#
# Total GULP energy -595065.852518 kJ/mol
# GULP energy per Si atom -12397.205261 kJ/mol
# Density = 2.153153 g / cm^3
# Si number density = 21.580645 Si / 1000 Ang^3
#
#
#
# Elastic Constant Matrix: (Units=GPa)
#
#
# Indices 1 2 3 4 5 6 
#
# 1 79.2915 8.8135 33.4410 0.0000 0.0000 0.0000
# 2 8.8135 79.5025 0.8822 0.0000 0.0000 0.0000
# 3 33.4410 0.8822 99.8780 0.0000 0.0000 0.0000
# 4 0.0000 0.0000 0.0000 32.2318 0.0000 0.0000
# 5 0.0000 0.0000 0.0000 0.0000 -636.6659 0.0000
# 6 0.0000 0.0000 0.0000 0.0000 0.0000 13.8072
#
#
#
# Elastic Compliance Matrix: (Units=1/GPa)
#
#
# Indices 1 2 3 4 5 6 
#
# 1 0.014885 -0.001595 -0.004970 0.000000 0.000000 0.000000
# 2 -0.001595 0.012750 0.000421 0.000000 0.000000 0.000000
# 3 -0.004970 0.000421 0.011672 0.000000 0.000000 0.000000
# 4 0.000000 0.000000 0.000000 0.031025 0.000000 0.000000
# 5 0.000000 0.000000 0.000000 0.000000 -0.001571 0.000000
# 6 0.000000 0.000000 0.000000 0.000000 0.000000 0.072426
#
#
# Mechanical properties :
#
#
# Convention : Reuss Voigt Hill
#
# Bulk Modulus (GPa) = 37.00789 38.32726 37.66758
# Shear Modulus (GPa) = 30.77265 -103.75637 -36.49186
#
# Velocity S-wave (km/s) = 3.78026 -6.94138 -4.11658
# Velocity P-wave (km/s) = 6.01994 6.81507 2.25893
#
# Compressibility (1/GPa) = 0.02702126
#
# Stress axis : x y z
#
# Youngs Moduli (GPa) = 67.18205 78.42920 85.67199
#
# Poissons Ratio (x) = 0.12509 0.42576
# Poissons Ratio (y) = 0.10715 -0.03610
# Poissons Ratio (z) = 0.33387 -0.03305
#
# Static dielectric constant tensor:
#      x y z
#    x 4.133850 0.000000 0.000000 
#    y 0.000000 3.943140 0.000000 
#    z 0.000000 0.000000 4.225550 
# 
# 
# High freq. dielectric constant tensor:
#      x y z
#    x 1.827670 0.000000 0.000000 
#    y 0.000000 1.856610 0.000000 
#    z 0.000000 0.000000 1.858800 
# 
# From -- ./inp_files/23824.got.cif
#   From: 2010.03.12/outbox.cif.g09.slc.cpg/sg55_12_cif.got.tgz:23824.got - 2010.04.16 15:19:21.
