data_PCOD8227582
_publ_section_title
;
Structure prediction by ZEFSAII (Michael W. Deem and Ramdas Pophale) SiO2 
 PCOD8227582
Probable space group: P B A M
;
_chemical_formula_sum "Si O2"
_cell_formula_units_Z 56
_cell_length_a 14.777434
_cell_length_b 20.933782
_cell_length_c 8.750421
_cell_angle_alpha 90.000000
_cell_angle_beta 90.000000
_cell_angle_gamma 90.000000
_cell_volume 2706.921577
_symmetry_space_group_name_H-M "P B A M"
_symmetry_group_IT_number 55
_symmetry_cell_setting 'orthorhombic'
loop_
_space_group_symop_operation_xyz
x,y,z
-x,-y,z
1/2+x,1/2-y,-z
1/2-x,1/2+y,-z
-x,-y,-z
x,y,-z
1/2-x,1/2+y,z
1/2+x,1/2-y,z
loop_
_atom_site_type_symbol
_atom_site_label
_atom_site_fract_x
_atom_site_fract_y
_atom_site_fract_z
Si Si1 0.687902 0.263957 0.180953
Si Si2 0.669227 0.666044 0.677503
Si Si3 0.478876 0.260382 0.179751
Si Si4 0.251027 0.096657 0.820334
Si Si5 0.246853 0.970738 0.323863
Si Si6 0.067300 0.441643 0.829213
Si Si7 0.927069 0.364727 0.322499
O O1 0.747191 0.208337 0.257961
O O2 0.583129 0.257433 0.230023
O O3 0.714501 0.334978 0.237882
O O4 0.701175 0.258181 0.000000
O O5 0.658931 0.682938 0.500000
O O6 0.574007 0.676165 0.766322
O O7 0.684420 0.590660 0.702050
O O8 0.419121 0.207823 0.267714
O O9 0.468840 0.251063 0.000000
O O10 0.356483 0.092571 0.773146
O O11 0.200436 0.036785 0.737220
O O12 0.238458 0.088728 0.000000
O O13 0.273432 0.978791 0.500000
O O14 0.335081 0.961972 0.223062
O O15 0.000000 0.500000 0.822488
O O16 0.028791 0.387272 0.716658
O O17 0.073531 0.412860 0.000000
O O18 0.905525 0.371316 0.500000
#
# Coordination Sequence:
#
# PCOD8227582 Si02
#       7
#     8   8   8   8   8   8   8
#     4  10  23  42  66  93 123 161 210 261 310 368
#     4  11  24  41  63  93 127 164 206 256 316 374
#     4  11  23  41  65  92 122 161 209 259 311 369
#     4  11  22  39  62  89 120 160 205 252 305 369
#     4  11  24  40  59  88 125 164 206 256 313 374
#     4  11  22  35  55  84 118 158 200 245 301 369
#     4  12  23  36  58  88 122 159 197 249 310 369
#
# _framework density 20.687707
#
# number of rings (size 3 to 8) (size 9 to 14) (size 15 to 20)
#    0.000    1.000    2.857    4.286    0.000    6.857 
#    0.000    0.714    0.000    4.286    0.000    0.000 
#    0.000    0.000    0.000    0.000    0.000    0.000 
#
# Total GULP energy -694370.625062 kJ/mol
# GULP energy per Si atom -12399.475448 kJ/mol
# Density = 2.064062 g / cm^3
# Si number density = 20.687707 Si / 1000 Ang^3
#
#
#
# Elastic Constant Matrix: (Units=GPa)
#
#
# Indices 1 2 3 4 5 6 
#
# 1 63.2760 12.5897 18.6167 0.0000 0.0000 0.0000
# 2 12.5897 110.6593 28.6062 0.0000 0.0000 0.0000
# 3 18.6167 28.6062 78.8780 0.0000 0.0000 0.0000
# 4 0.0000 0.0000 0.0000 35.4144 0.0000 0.0000
# 5 0.0000 0.0000 0.0000 0.0000 25.0472 0.0000
# 6 0.0000 0.0000 0.0000 0.0000 0.0000 28.2211
#
#
#
# Elastic Compliance Matrix: (Units=1/GPa)
#
#
# Indices 1 2 3 4 5 6 
#
# 1 0.017082 -0.000994 -0.003671 0.000000 0.000000 0.000000
# 2 -0.000994 0.010029 -0.003403 0.000000 0.000000 0.000000
# 3 -0.003671 -0.003403 0.014778 0.000000 0.000000 0.000000
# 4 0.000000 0.000000 0.000000 0.028237 0.000000 0.000000
# 5 0.000000 0.000000 0.000000 0.000000 0.039925 0.000000
# 6 0.000000 0.000000 0.000000 0.000000 0.000000 0.035434
#
#
# Mechanical properties :
#
#
# Convention : Reuss Voigt Hill
#
# Bulk Modulus (GPa) = 38.82984 41.38206 40.10595
# Shear Modulus (GPa) = 29.37615 30.60325 29.98970
#
# Velocity S-wave (km/s) = 3.77235 3.85033 3.81154
# Velocity P-wave (km/s) = 6.14691 6.30979 6.22888
#
# Compressibility (1/GPa) = 0.02575339
#
# Stress axis : x y z
#
# Youngs Moduli (GPa) = 58.54224 99.70603 67.66709
#
# Poissons Ratio (x) = 0.09915 0.24840
# Poissons Ratio (y) = 0.05821 0.23025
# Poissons Ratio (z) = 0.21491 0.33926
#
# Static dielectric constant tensor:
#      x y z
#    x 3.806560 0.000000 0.000000 
#    y 0.000000 4.145410 0.000000 
#    z 0.000000 0.000000 3.745140 
# 
# 
# High freq. dielectric constant tensor:
#      x y z
#    x 1.787370 0.000000 0.000000 
#    y 0.000000 1.824290 0.000000 
#    z 0.000000 0.000000 1.814230 
# 
# From -- ./inp_files/6031.got.cif
#   From: 2010.03.12/outbox.cif.g09.slc.cpg/sg55_4_cif.got.tgz:6031.got - 2010.04.16 15:19:21.
