data_PCOD8227871
_publ_section_title
;
Structure prediction by ZEFSAII (Michael W. Deem and Ramdas Pophale) SiO2 
 PCOD8227871
Probable space group: P C C N
;
_chemical_formula_sum "Si O2"
_cell_formula_units_Z 48
_cell_length_a 9.924569
_cell_length_b 9.026078
_cell_length_c 29.332058
_cell_angle_alpha 90.000000
_cell_angle_beta 90.000000
_cell_angle_gamma 90.000000
_cell_volume 2627.563817
_symmetry_space_group_name_H-M "P C C N"
_symmetry_group_IT_number 56
_symmetry_cell_setting 'orthorhombic'
loop_
_space_group_symop_operation_xyz
x,y,z
1/2-x,1/2-y,z
1/2+x,-y,1/2-z
-x,1/2+y,1/2-z
-x,-y,-z
1/2+x,1/2+y,-z
1/2-x,y,1/2+z
x,1/2-y,1/2+z
loop_
_atom_site_type_symbol
_atom_site_label
_atom_site_fract_x
_atom_site_fract_y
_atom_site_fract_z
Si Si1 0.183981 0.605692 0.365108
Si Si2 0.869113 0.649875 0.119597
Si Si3 0.943445 0.866007 0.716097
Si Si4 0.356446 0.458321 0.775532
Si Si5 0.890551 0.809874 0.025787
Si Si6 0.882279 0.156341 0.040147
O O1 0.250000 0.750000 0.341531
O O2 0.300311 0.508757 0.391399
O O3 0.104809 0.514650 0.326519
O O4 0.084898 0.661380 0.405554
O O5 0.750000 0.750000 0.141675
O O6 0.973894 0.631619 0.161347
O O7 0.927191 0.732958 0.074849
O O8 0.922537 0.700040 0.733902
O O9 0.806971 0.958842 0.728172
O O10 0.076719 0.931512 0.739153
O O11 0.750000 0.750000 0.007505
O O12 0.001632 0.763710 0.988961
O O13 0.873188 0.985121 0.026962
O O14 0.750000 0.250000 0.028332
#
# Coordination Sequence:
#
# PCOD8227871 Si02
#       6
#     8   8   8   8   8   8
#     4  10  19  34  56  83 107 144 192 229 266 332
#     4  10  16  36  57  77 108 150 185 221 270 334
#     4  10  20  35  57  83 111 146 186 230 271 327
#     4  10  21  35  57  82 112 144 186 228 275 329
#     4  10  19  35  59  79 110 143 181 228 272 325
#     4  10  20  34  57  84 107 140 186 227 271 322
#
# _framework density 18.267872000000001
#
# number of rings (size 3 to 8) (size 9 to 14) (size 15 to 20)
#    0.000    2.000    6.667    0.000    4.667    0.667 
#    0.000    0.000   14.667    0.000    0.000    0.000 
#    0.000    0.000    0.000    0.000    0.000    0.000 
#
# Total GULP energy -594678.954283 kJ/mol
# GULP energy per Si atom -12389.144881 kJ/mol
# Density = 1.822629 g / cm^3
# Si number density = 18.267872 Si / 1000 Ang^3
#
#
#
# Elastic Constant Matrix: (Units=GPa)
#
#
# Indices 1 2 3 4 5 6 
#
# 1 78.7746 33.4657 64.4150 0.0000 0.0000 0.0000
# 2 33.4657 85.1620 38.5225 0.0000 0.0000 0.0000
# 3 64.4150 38.5225 130.7179 0.0000 0.0000 0.0000
# 4 0.0000 0.0000 0.0000 19.8561 0.0000 0.0000
# 5 0.0000 0.0000 0.0000 0.0000 28.7206 0.0000
# 6 0.0000 0.0000 0.0000 0.0000 0.0000 27.6586
#
#
#
# Elastic Compliance Matrix: (Units=1/GPa)
#
#
# Indices 1 2 3 4 5 6 
#
# 1 0.022629 -0.004440 -0.009843 0.000000 0.000000 0.000000
# 2 -0.004440 0.014420 -0.002061 0.000000 0.000000 0.000000
# 3 -0.009843 -0.002061 0.013108 0.000000 0.000000 0.000000
# 4 0.000000 0.000000 0.000000 0.050362 0.000000 0.000000
# 5 0.000000 0.000000 0.000000 0.000000 0.034818 0.000000
# 6 0.000000 0.000000 0.000000 0.000000 0.000000 0.036155
#
#
# Mechanical properties :
#
#
# Convention : Reuss Voigt Hill
#
# Bulk Modulus (GPa) = 57.24724 63.05120 60.14922
# Shear Modulus (GPa) = 23.80910 25.79716 24.80313
#
# Velocity S-wave (km/s) = 3.61409 3.76195 3.68876
# Velocity P-wave (km/s) = 6.98722 7.31159 7.15124
#
# Compressibility (1/GPa) = 0.01746809
#
# Stress axis : x y z
#
# Youngs Moduli (GPa) = 44.19051 69.34980 76.29028
#
# Poissons Ratio (x) = 0.30793 0.75090
# Poissons Ratio (y) = 0.19622 0.15727
# Poissons Ratio (z) = 0.43495 0.14296
#
# Static dielectric constant tensor:
#      x y z
#    x 3.072230 0.000000 0.000000 
#    y 0.000000 3.631510 0.000000 
#    z 0.000000 0.000000 3.404540 
# 
# 
# High freq. dielectric constant tensor:
#      x y z
#    x 1.654550 0.000000 0.000000 
#    y 0.000000 1.732220 0.000000 
#    z 0.000000 0.000000 1.708010 
# 
# From -- ./inp_files/20904.got.cif
#   From: 2010.03.12/outbox.cif.g09.slc.cpg/sg56_11_cif.got.tgz:20904.got - 2010.04.16 15:33:40.
