data_PCOD8227221
_publ_section_title
;
Structure prediction by ZEFSAII (Michael W. Deem and Ramdas Pophale) SiO2 
 PCOD8227221
Probable space group: P B A M
;
_chemical_formula_sum "Si O2"
_cell_formula_units_Z 48
_cell_length_a 23.299781
_cell_length_b 11.838218
_cell_length_c 8.565623
_cell_angle_alpha 90.000000
_cell_angle_beta 90.000000
_cell_angle_gamma 90.000000
_cell_volume 2362.637691
_symmetry_space_group_name_H-M "P B A M"
_symmetry_group_IT_number 55
_symmetry_cell_setting 'orthorhombic'
loop_
_space_group_symop_operation_xyz
x,y,z
-x,-y,z
1/2+x,1/2-y,-z
1/2-x,1/2+y,-z
-x,-y,-z
x,y,-z
1/2-x,1/2+y,z
1/2+x,1/2-y,z
loop_
_atom_site_type_symbol
_atom_site_label
_atom_site_fract_x
_atom_site_fract_y
_atom_site_fract_z
Si Si1 0.621589 0.237029 0.680410
Si Si2 0.272900 0.613777 0.682046
Si Si3 0.346636 0.162149 0.817757
Si Si4 0.339533 0.417438 0.178815
Si Si5 0.934510 0.509783 0.684876
Si Si6 0.063896 0.038666 0.675492
O O1 0.632573 0.213794 0.500000
O O2 0.682043 0.289820 0.745641
O O3 0.599415 0.119454 0.757368
O O4 0.570839 0.327771 0.708498
O O5 0.259746 0.630952 0.500000
O O6 0.214888 0.609934 0.779815
O O7 0.298385 0.489239 0.708988
O O8 0.342664 0.290351 0.758850
O O9 0.398596 0.100985 0.728878
O O10 0.359728 0.153301 0.000000
O O11 0.402938 0.468105 0.194233
O O12 0.318580 0.423449 0.000000
O O13 0.937654 0.522461 0.500000
O O14 0.000000 0.500000 0.750460
O O15 0.087661 0.014180 0.500000
O O16 0.000000 0.000000 0.692008
#
# Coordination Sequence:
#
# PCOD8227221 Si02
#       6
#     8   8   8   8   8   8
#     4   8  17  35  56  87 119 146 189 244 297 346
#     4  10  21  39  64  89 116 151 198 252 302 356
#     4  11  25  41  59  86 123 160 196 243 300 364
#     4  10  22  39  57  84 121 154 193 241 295 360
#     4  10  22  39  62  90 121 160 206 251 296 356
#     4   9  18  33  59  87 114 150 193 244 292 341
#
# _framework density 20.316275999999998
#
# number of rings (size 3 to 8) (size 9 to 14) (size 15 to 20)
#    0.000    2.333    0.000    2.500    4.667    3.333 
#    0.000    3.333    0.000    0.000    0.000    0.000 
#    0.000    0.000    0.000    0.000    0.000    0.000 
#
# Total GULP energy -594929.269777 kJ/mol
# GULP energy per Si atom -12394.359787 kJ/mol
# Density = 2.027004 g / cm^3
# Si number density = 20.316276 Si / 1000 Ang^3
#
#
#
# Elastic Constant Matrix: (Units=GPa)
#
#
# Indices 1 2 3 4 5 6 
#
# 1 115.0059 56.9304 11.9800 0.0000 0.0000 0.0000
# 2 56.9304 120.5525 14.4923 0.0000 0.0000 0.0000
# 3 11.9800 14.4923 18.2526 0.0000 0.0000 0.0000
# 4 0.0000 0.0000 0.0000 26.6511 0.0000 0.0000
# 5 0.0000 0.0000 0.0000 0.0000 20.3785 0.0000
# 6 0.0000 0.0000 0.0000 0.0000 0.0000 21.7724
#
#
#
# Elastic Compliance Matrix: (Units=1/GPa)
#
#
# Indices 1 2 3 4 5 6 
#
# 1 0.011558 -0.005026 -0.003595 0.000000 0.000000 0.000000
# 2 -0.005026 0.011356 -0.005718 0.000000 0.000000 0.000000
# 3 -0.003595 -0.005718 0.061686 0.000000 0.000000 0.000000
# 4 0.000000 0.000000 0.000000 0.037522 0.000000 0.000000
# 5 0.000000 0.000000 0.000000 0.000000 0.049071 0.000000
# 6 0.000000 0.000000 0.000000 0.000000 0.000000 0.045930
#
#
# Mechanical properties :
#
#
# Convention : Reuss Voigt Hill
#
# Bulk Modulus (GPa) = 17.88209 46.73517 32.30863
# Shear Modulus (GPa) = 18.90779 25.12095 22.01437
#
# Velocity S-wave (km/s) = 3.05400 3.52020 3.29535
# Velocity P-wave (km/s) = 4.61052 6.29096 5.51512
#
# Compressibility (1/GPa) = 0.05592188
#
# Stress axis : x y z
#
# Youngs Moduli (GPa) = 86.52304 88.05964 16.21108
#
# Poissons Ratio (x) = 0.44257 0.05828
# Poissons Ratio (y) = 0.43485 0.09269
# Poissons Ratio (z) = 0.31108 0.50351
#
# Static dielectric constant tensor:
#      x y z
#    x 3.920500 0.000000 0.000000 
#    y 0.000000 3.901900 0.000000 
#    z 0.000000 0.000000 3.526200 
# 
# 
# High freq. dielectric constant tensor:
#      x y z
#    x 1.796720 0.000000 0.000000 
#    y 0.000000 1.801410 0.000000 
#    z 0.000000 0.000000 1.765420 
# 
# From -- ./inp_files/9449.got.cif
#   From: 2010.03.12/outbox.cif.g09.slc.cpg/sg55_5_cif.got.tgz:9449.got - 2010.04.16 15:19:21.
