data_PCOD8227173
_publ_section_title
;
Structure prediction by ZEFSAII (Michael W. Deem and Ramdas Pophale) SiO2 
 PCOD8227173
Probable space group: P B A M
;
_chemical_formula_sum "Si O2"
_cell_formula_units_Z 64
_cell_length_a 9.742805
_cell_length_b 13.963771
_cell_length_c 21.688018
_cell_angle_alpha 90.000000
_cell_angle_beta 90.000000
_cell_angle_gamma 90.000000
_cell_volume 2950.574558
_symmetry_space_group_name_H-M "P B A M"
_symmetry_group_IT_number 55
_symmetry_cell_setting 'orthorhombic'
loop_
_space_group_symop_operation_xyz
x,y,z
-x,-y,z
1/2+x,1/2-y,-z
1/2-x,1/2+y,-z
-x,-y,-z
x,y,-z
1/2-x,1/2+y,z
1/2+x,1/2-y,z
loop_
_atom_site_type_symbol
_atom_site_label
_atom_site_fract_x
_atom_site_fract_y
_atom_site_fract_z
Si Si1 0.779583 0.365180 0.431097
Si Si2 0.864934 0.729291 0.854092
Si Si3 0.642731 0.040693 0.928003
Si Si4 0.877848 0.305828 0.773898
Si Si5 0.075799 0.866629 0.309015
Si Si6 0.281571 0.554719 0.302677
Si Si7 0.600072 0.416492 0.072090
Si Si8 0.488197 0.294067 0.567257
O O1 0.774787 0.413891 0.500000
O O2 0.765060 0.439421 0.374506
O O3 0.924653 0.311333 0.423201
O O4 0.653658 0.288743 0.425836
O O5 0.818911 0.640922 0.896595
O O6 0.727999 0.768863 0.824050
O O7 0.930100 0.816811 0.893290
O O8 0.972649 0.689683 0.804167
O O9 0.500000 0.000000 0.902505
O O10 0.748206 0.955318 0.913553
O O11 0.636916 0.063609 0.000000
O O12 0.876718 0.234994 0.715790
O O13 0.834596 0.408261 0.744803
O O14 0.075444 0.867076 0.383293
O O15 0.920718 0.887143 0.286820
O O16 0.186558 0.944577 0.286806
O O17 0.500000 0.500000 0.096431
O O18 0.575391 0.397147 0.000000
O O19 0.447040 0.334212 0.500000
#
# Coordination Sequence:
#
# PCOD8227173 Si02
#       8
#     8   8   8   8   8   8   8   8
#     4   9  17  31  57  85 111 145 191 251 310 366
#     4  12  25  40  65  91 126 165 207 254 298 365
#     4  10  22  42  66  94 127 157 196 253 308 358
#     4  12  24  40  59  87 122 163 209 245 293 358
#     4  10  21  39  60  83 118 158 201 254 305 360
#     4  10  21  39  60  83 117 159 202 252 308 360
#     4  10  22  42  68  97 126 159 201 250 309 368
#     4   9  17  31  57  85 111 145 190 250 310 364
#
# _framework density 21.690688999999999
#
# number of rings (size 3 to 8) (size 9 to 14) (size 15 to 20)
#    0.000    1.750    2.500    1.875    0.000    3.500 
#    0.000    7.500    0.000    0.000    0.000    3.500 
#    0.000    0.000    0.000    0.000    0.000    0.000 
#
# Total GULP energy -793419.198025 kJ/mol
# GULP energy per Si atom -12397.174969 kJ/mol
# Density = 2.164132 g / cm^3
# Si number density = 21.690689 Si / 1000 Ang^3
#
#
#
# Elastic Constant Matrix: (Units=GPa)
#
#
# Indices 1 2 3 4 5 6 
#
# 1 45.4966 -8.7172 6.2962 0.0000 0.0000 0.0000
# 2 -8.7172 54.4518 23.3032 0.0000 0.0000 0.0000
# 3 6.2962 23.3032 71.1592 0.0000 0.0000 0.0000
# 4 0.0000 0.0000 0.0000 23.3648 0.0000 0.0000
# 5 0.0000 0.0000 0.0000 0.0000 30.2036 0.0000
# 6 0.0000 0.0000 0.0000 0.0000 0.0000 25.4382
#
#
#
# Elastic Compliance Matrix: (Units=1/GPa)
#
#
# Indices 1 2 3 4 5 6 
#
# 1 0.023553 0.005422 -0.003860 0.000000 0.000000 0.000000
# 2 0.005422 0.022606 -0.007883 0.000000 0.000000 0.000000
# 3 -0.003860 -0.007883 0.016976 0.000000 0.000000 0.000000
# 4 0.000000 0.000000 0.000000 0.042799 0.000000 0.000000
# 5 0.000000 0.000000 0.000000 0.000000 0.033109 0.000000
# 6 0.000000 0.000000 0.000000 0.000000 0.000000 0.039311
#
#
# Mechanical properties :
#
#
# Convention : Reuss Voigt Hill
#
# Bulk Modulus (GPa) = 19.80405 23.65243 21.72824
# Shear Modulus (GPa) = 24.05857 25.81636 24.93747
#
# Velocity S-wave (km/s) = 3.33403 3.45368 3.39438
# Velocity P-wave (km/s) = 4.89602 5.17996 5.03999
#
# Compressibility (1/GPa) = 0.05049473
#
# Stress axis : x y z
#
# Youngs Moduli (GPa) = 42.45795 44.23509 58.90674
#
# Poissons Ratio (x) = -0.23986 0.22736
# Poissons Ratio (y) = -0.23022 0.46436
# Poissons Ratio (z) = 0.16387 0.34870
#
# Static dielectric constant tensor:
#      x y z
#    x 3.950470 0.000000 0.000000 
#    y 0.000000 3.625710 0.000000 
#    z 0.000000 0.000000 4.008420 
# 
# 
# High freq. dielectric constant tensor:
#      x y z
#    x 1.851110 0.000000 0.000000 
#    y 0.000000 1.825950 0.000000 
#    z 0.000000 0.000000 1.864020 
# 
# From -- ./inp_files/23487.got.cif
#   From: 2010.03.12/outbox.cif.g09.slc.cpg/sg55_12_cif.got.tgz:23487.got - 2010.04.16 15:19:21.
