data_PCOD8227669
_publ_section_title
;
Structure prediction by ZEFSAII (Michael W. Deem and Ramdas Pophale) SiO2 
 PCOD8227669
Probable space group: P B A M
;
_chemical_formula_sum "Si O2"
_cell_formula_units_Z 64
_cell_length_a 34.672414
_cell_length_b 11.193812
_cell_length_c 8.948202
_cell_angle_alpha 90.000000
_cell_angle_beta 90.000000
_cell_angle_gamma 90.000000
_cell_volume 3472.944697
_symmetry_space_group_name_H-M "P B A M"
_symmetry_group_IT_number 55
_symmetry_cell_setting 'orthorhombic'
loop_
_space_group_symop_operation_xyz
x,y,z
-x,-y,z
1/2+x,1/2-y,-z
1/2-x,1/2+y,-z
-x,-y,-z
x,y,-z
1/2-x,1/2+y,z
1/2+x,1/2-y,z
loop_
_atom_site_type_symbol
_atom_site_label
_atom_site_fract_x
_atom_site_fract_y
_atom_site_fract_z
Si Si1 0.270692 0.625775 0.176651
Si Si2 0.923952 0.724476 0.328531
Si Si3 0.070568 0.726581 0.676438
Si Si4 0.363113 0.367249 0.170302
Si Si5 0.274974 0.358074 0.177461
Si Si6 0.001092 0.128630 0.327440
Si Si7 0.456140 0.999478 0.175150
Si Si8 0.641078 0.358774 0.170191
O O1 0.259240 0.490081 0.234915
O O2 0.246658 0.739508 0.243816
O O3 0.314718 0.650612 0.220756
O O4 0.265473 0.624442 0.000000
O O5 0.922625 0.679355 0.500000
O O6 0.956042 0.824813 0.306176
O O7 0.935208 0.622433 0.213938
O O8 0.882705 0.776478 0.283043
O O9 0.069182 0.714325 0.500000
O O10 0.109090 0.795078 0.721359
O O11 0.070832 0.596350 0.746815
O O12 0.032101 0.789056 0.744508
O O13 0.319464 0.344771 0.224581
O O14 0.373684 0.506083 0.183812
O O15 0.368446 0.323252 0.000000
O O16 0.271104 0.359318 0.000000
O O17 0.989674 0.115472 0.500000
O O18 0.000000 0.000000 0.247602
O O19 0.500000 0.000000 0.238815
O O20 0.456497 0.021730 0.000000
O O21 0.635971 0.313547 0.000000
#
# Coordination Sequence:
#
# PCOD8227669 Si02
#       8
#     8   8   8   8   8   8   8   8
#     4   8  14  27  48  73 103 139 178 221 268 319
#     4  11  21  35  55  76 104 139 179 219 261 315
#     4  11  21  35  55  76 104 139 179 219 261 315
#     4   9  18  33  52  77 110 141 173 221 273 315
#     4   8  14  27  48  73 103 139 178 221 268 319
#     4   9  18  31  49  74 100 129 170 215 254 303
#     4  11  23  39  57  75 103 139 177 219 269 321
#     4   9  18  33  52  77 110 141 173 221 273 315
#
# _framework density 18.428166000000001
#
# number of rings (size 3 to 8) (size 9 to 14) (size 15 to 20)
#    0.000    2.500    1.250    3.375    0.000    2.000 
#    2.250    0.000    0.000    3.750    0.000    0.000 
#    0.000    0.000    0.000    0.000    0.000    0.000 
#
# Total GULP energy -793209.227328 kJ/mol
# GULP energy per Si atom -12393.894177 kJ/mol
# Density = 1.838622 g / cm^3
# Si number density = 18.428166 Si / 1000 Ang^3
#
#
#
# Elastic Constant Matrix: (Units=GPa)
#
#
# Indices 1 2 3 4 5 6 
#
# 1 82.2617 41.3365 24.4773 0.0000 0.0000 0.0000
# 2 41.3365 97.8758 26.8478 0.0000 0.0000 0.0000
# 3 24.4773 26.8478 44.3860 0.0000 0.0000 0.0000
# 4 0.0000 0.0000 0.0000 16.7186 0.0000 0.0000
# 5 0.0000 0.0000 0.0000 0.0000 21.2190 0.0000
# 6 0.0000 0.0000 0.0000 0.0000 0.0000 34.1302
#
#
#
# Elastic Compliance Matrix: (Units=1/GPa)
#
#
# Indices 1 2 3 4 5 6 
#
# 1 0.016628 -0.005404 -0.005901 0.000000 0.000000 0.000000
# 2 -0.005404 0.014006 -0.005492 0.000000 0.000000 0.000000
# 3 -0.005901 -0.005492 0.029105 0.000000 0.000000 0.000000
# 4 0.000000 0.000000 0.000000 0.059814 0.000000 0.000000
# 5 0.000000 0.000000 0.000000 0.000000 0.047128 0.000000
# 6 0.000000 0.000000 0.000000 0.000000 0.000000 0.029300
#
#
# Mechanical properties :
#
#
# Convention : Reuss Voigt Hill
#
# Bulk Modulus (GPa) = 38.24667 45.53851 41.89259
# Shear Modulus (GPa) = 20.98308 23.20435 22.09372
#
# Velocity S-wave (km/s) = 3.37804 3.55234 3.46628
# Velocity P-wave (km/s) = 6.00120 6.44907 6.22916
#
# Compressibility (1/GPa) = 0.02614607
#
# Stress axis : x y z
#
# Youngs Moduli (GPa) = 60.14112 71.39996 34.35781
#
# Poissons Ratio (x) = 0.38583 0.20274
# Poissons Ratio (y) = 0.32499 0.18868
# Poissons Ratio (z) = 0.35489 0.39210
#
# Static dielectric constant tensor:
#      x y z
#    x 3.366380 0.000000 0.000000 
#    y 0.000000 3.817350 0.000000 
#    z 0.000000 0.000000 2.991360 
# 
# 
# High freq. dielectric constant tensor:
#      x y z
#    x 1.709350 0.000000 0.000000 
#    y 0.000000 1.724850 0.000000 
#    z 0.000000 0.000000 1.676100 
# 
# From -- ./inp_files/10779.got.cif
#   From: 2010.03.12/outbox.cif.g09.slc.cpg/sg55_6_cif.got.tgz:10779.got - 2010.04.16 15:19:21.
