data_PCOD8227822
_publ_section_title
;
Structure prediction by ZEFSAII (Michael W. Deem and Ramdas Pophale) SiO2 
 PCOD8227822
Probable space group: P B A M
;
_chemical_formula_sum "Si O2"
_cell_formula_units_Z 56
_cell_length_a 9.243431
_cell_length_b 14.938924
_cell_length_c 21.663739
_cell_angle_alpha 90.000000
_cell_angle_beta 90.000000
_cell_angle_gamma 90.000000
_cell_volume 2991.478847
_symmetry_space_group_name_H-M "P B A M"
_symmetry_group_IT_number 55
_symmetry_cell_setting 'orthorhombic'
loop_
_space_group_symop_operation_xyz
x,y,z
-x,-y,z
1/2+x,1/2-y,-z
1/2-x,1/2+y,-z
-x,-y,-z
x,y,-z
1/2-x,1/2+y,z
1/2+x,1/2-y,z
loop_
_atom_site_type_symbol
_atom_site_label
_atom_site_fract_x
_atom_site_fract_y
_atom_site_fract_z
Si Si1 0.936451 0.295414 0.000000
Si Si2 0.832855 0.474616 0.352961
Si Si3 0.097587 0.688940 0.571122
Si Si4 0.758008 0.639876 0.000000
Si Si5 0.602605 0.814725 0.866288
Si Si6 0.772834 0.639637 0.571138
Si Si7 0.832341 0.475316 0.786579
Si Si8 0.276878 0.863800 0.135003
O O1 0.892549 0.191877 0.000000
O O2 0.875146 0.343516 0.061753
O O3 0.109643 0.289319 0.000000
O O4 0.810875 0.381248 0.388341
O O5 0.743096 0.552761 0.386940
O O6 0.776568 0.463701 0.283187
O O7 0.000000 0.500000 0.355164
O O8 0.130845 0.666370 0.500000
O O9 0.149882 0.788540 0.587743
O O10 0.927863 0.684025 0.585824
O O11 0.770840 0.589273 0.933973
O O12 0.692812 0.882901 0.823485
O O13 0.657593 0.713477 0.855707
O O14 0.432307 0.819056 0.850795
O O15 0.765265 0.609411 0.500000
O O16 0.742603 0.556130 0.817652
O O17 0.000000 0.500000 0.789337
#
# Coordination Sequence:
#
# PCOD8227822 Si02
#       8
#     4   8   8   4   8   8   8   8
#     4   8  14  25  43  65  86 110 142 181 223 263
#     4   9  17  30  47  66  91 122 152 180 215 264
#     4   9  17  30  49  71  92 116 148 184 221 261
#     4   8  14  25  43  65  86 110 142 181 223 263
#     4   9  17  30  47  66  89 116 147 184 224 264
#     4   9  17  30  49  71  92 116 148 184 221 261
#     4   9  18  30  45  67  91 118 152 184 217 261
#     4   9  17  30  47  66  89 116 147 184 224 264
#
# _framework density 18.719836999999998
#
# number of rings (size 3 to 8) (size 9 to 14) (size 15 to 20)
#    0.000    3.143    0.000    0.429    0.000    3.429 
#    0.000    4.286    0.000    5.143    0.000   10.000 
#    0.000    0.000    0.000    0.000    0.000    0.000 
#
# Total GULP energy -693958.448019 kJ/mol
# GULP energy per Si atom -12392.115143 kJ/mol
# Density = 1.867723 g / cm^3
# Si number density = 18.719837 Si / 1000 Ang^3
#
#
#
# Elastic Constant Matrix: (Units=GPa)
#
#
# Indices 1 2 3 4 5 6 
#
# 1 17.2005 -5.3945 2.5718 0.0000 0.0000 0.0000
# 2 -5.3945 42.7439 26.5543 0.0000 0.0000 0.0000
# 3 2.5718 26.5543 96.1074 0.0000 0.0000 0.0000
# 4 0.0000 0.0000 0.0000 26.9447 0.0000 0.0000
# 5 0.0000 0.0000 0.0000 0.0000 14.6540 0.0000
# 6 0.0000 0.0000 0.0000 0.0000 0.0000 23.2979
#
#
#
# Elastic Compliance Matrix: (Units=1/GPa)
#
#
# Indices 1 2 3 4 5 6 
#
# 1 0.062193 0.010724 -0.004627 0.000000 0.000000 0.000000
# 2 0.010724 0.030092 -0.008601 0.000000 0.000000 0.000000
# 3 -0.004627 -0.008601 0.012905 0.000000 0.000000 0.000000
# 4 0.000000 0.000000 0.000000 0.037113 0.000000 0.000000
# 5 0.000000 0.000000 0.000000 0.000000 0.068241 0.000000
# 6 0.000000 0.000000 0.000000 0.000000 0.000000 0.042922
#
#
# Mechanical properties :
#
#
# Convention : Reuss Voigt Hill
#
# Bulk Modulus (GPa) = 9.98196 22.61279 16.29738
# Shear Modulus (GPa) = 17.13094 21.80068 19.46581
#
# Velocity S-wave (km/s) = 3.02838 3.41629 3.22817
# Velocity P-wave (km/s) = 4.19189 5.25996 4.75601
#
# Compressibility (1/GPa) = 0.10018070
#
# Stress axis : x y z
#
# Youngs Moduli (GPa) = 16.07897 33.23139 77.48702
#
# Poissons Ratio (x) = -0.35636 0.35855
# Poissons Ratio (y) = -0.17243 0.66649
# Poissons Ratio (z) = 0.07440 0.28583
#
# Static dielectric constant tensor:
#      x y z
#    x 3.104500 0.000000 0.000000 
#    y 0.000000 3.268380 0.000000 
#    z 0.000000 0.000000 3.687200 
# 
# 
# High freq. dielectric constant tensor:
#      x y z
#    x 1.689450 0.000000 0.000000 
#    y 0.000000 1.708940 0.000000 
#    z 0.000000 0.000000 1.733970 
# 
# From -- ./inp_files/23560.got.cif
#   From: 2010.03.12/outbox.cif.g09.slc.cpg/sg55_12_cif.got.tgz:23560.got - 2010.04.16 15:19:21.
