data_PCOD8227124
_publ_section_title
;
Structure prediction by ZEFSAII (Michael W. Deem and Ramdas Pophale) SiO2 
 PCOD8227124
Probable space group: P B A M
;
_chemical_formula_sum "Si O2"
_cell_formula_units_Z 28
_cell_length_a 4.976671
_cell_length_b 24.301680
_cell_length_c 10.827593
_cell_angle_alpha 90.000000
_cell_angle_beta 90.000000
_cell_angle_gamma 90.000000
_cell_volume 1309.504972
_symmetry_space_group_name_H-M "P B A M"
_symmetry_group_IT_number 55
_symmetry_cell_setting 'orthorhombic'
loop_
_space_group_symop_operation_xyz
x,y,z
-x,-y,z
1/2+x,1/2-y,-z
1/2-x,1/2+y,-z
-x,-y,-z
x,y,-z
1/2-x,1/2+y,z
1/2+x,1/2-y,z
loop_
_atom_site_type_symbol
_atom_site_label
_atom_site_fract_x
_atom_site_fract_y
_atom_site_fract_z
Si Si1 0.332665 0.397417 0.748469
Si Si2 0.983399 0.213371 0.141165
Si Si3 0.649474 0.946556 0.857282
Si Si4 0.748420 0.540670 0.500000
O O1 0.442989 0.335422 0.759938
O O2 0.565034 0.438995 0.792774
O O3 0.249297 0.416155 0.612513
O O4 0.064048 0.397763 0.833701
O O5 0.277443 0.237328 0.165124
O O6 0.959270 0.190655 0.000000
O O7 0.500000 0.000000 0.800096
O O8 0.712511 0.953953 0.000000
O O9 0.500000 0.500000 0.500000
O O10 0.000000 0.500000 0.500000
#
# Coordination Sequence:
#
# PCOD8227124 Si02
#       4
#     8   8   8   4
#     4  12  23  40  62  88 123 167 208 252 310 370
#     4  10  21  38  61  90 122 156 200 256 316 375
#     4  11  22  36  59  91 123 155 199 259 321 380
#     4  12  26  44  64  88 124 170 214 252 295 362
#
# _framework density 21.382128000000002
#
# number of rings (size 3 to 8) (size 9 to 14) (size 15 to 20)
#    0.000    0.857    0.000    9.429    0.000    4.571 
#    0.000    1.429    0.000    0.000    0.000    0.000 
#    0.000    0.000    0.000    0.000    0.000    0.000 
#
# Total GULP energy -347235.326070 kJ/mol
# GULP energy per Si atom -12401.261645 kJ/mol
# Density = 2.133346 g / cm^3
# Si number density = 21.382128 Si / 1000 Ang^3
#
#
#
# Elastic Constant Matrix: (Units=GPa)
#
#
# Indices 1 2 3 4 5 6 
#
# 1 97.8866 -4.7868 35.6387 0.0000 0.0000 0.0000
# 2 -4.7868 92.6807 54.5218 0.0000 0.0000 0.0000
# 3 35.6387 54.5218 101.0031 0.0000 0.0000 0.0000
# 4 0.0000 0.0000 0.0000 41.9818 0.0000 0.0000
# 5 0.0000 0.0000 0.0000 0.0000 24.6477 0.0000
# 6 0.0000 0.0000 0.0000 0.0000 0.0000 30.2970
#
#
#
# Elastic Compliance Matrix: (Units=1/GPa)
#
#
# Indices 1 2 3 4 5 6 
#
# 1 0.013126 0.004986 -0.007323 0.000000 0.000000 0.000000
# 2 0.004986 0.017704 -0.011316 0.000000 0.000000 0.000000
# 3 -0.007323 -0.011316 0.018593 0.000000 0.000000 0.000000
# 4 0.000000 0.000000 0.000000 0.023820 0.000000 0.000000
# 5 0.000000 0.000000 0.000000 0.000000 0.040572 0.000000
# 6 0.000000 0.000000 0.000000 0.000000 0.000000 0.033007
#
#
# Mechanical properties :
#
#
# Convention : Reuss Voigt Hill
#
# Bulk Modulus (GPa) = 45.21435 51.36866 48.29151
# Shear Modulus (GPa) = 27.54835 33.13174 30.34004
#
# Velocity S-wave (km/s) = 3.59330 3.94065 3.77097
# Velocity P-wave (km/s) = 6.19738 6.69188 6.44937
#
# Compressibility (1/GPa) = 0.02211687
#
# Stress axis : x y z
#
# Youngs Moduli (GPa) = 76.18602 56.48406 53.78413
#
# Poissons Ratio (x) = -0.28161 0.39384
# Poissons Ratio (y) = -0.37984 0.60862
# Poissons Ratio (z) = 0.55789 0.63917
#
# Static dielectric constant tensor:
#      x y z
#    x 4.104170 0.000000 0.000000 
#    y 0.000000 3.720680 0.000000 
#    z 0.000000 0.000000 3.689850 
# 
# 
# High freq. dielectric constant tensor:
#      x y z
#    x 1.868160 0.000000 0.000000 
#    y 0.000000 1.834060 0.000000 
#    z 0.000000 0.000000 1.813870 
# 
# From -- ./inp_files/11116.got.cif
#   From: 2010.03.12/outbox.cif.g09.slc.cpg/sg55_6_cif.got.tgz:11116.got - 2010.04.16 15:19:21.
