data_PCOD8227682
_publ_section_title
;
Structure prediction by ZEFSAII (Michael W. Deem and Ramdas Pophale) SiO2 
 PCOD8227682
Probable space group: P B A M
;
_chemical_formula_sum "Si O2"
_cell_formula_units_Z 64
_cell_length_a 25.236496
_cell_length_b 9.771349
_cell_length_c 12.630743
_cell_angle_alpha 90.000000
_cell_angle_beta 90.000000
_cell_angle_gamma 90.000000
_cell_volume 3114.673144
_symmetry_space_group_name_H-M "P B A M"
_symmetry_group_IT_number 55
_symmetry_cell_setting 'orthorhombic'
loop_
_space_group_symop_operation_xyz
x,y,z
-x,-y,z
1/2+x,1/2-y,-z
1/2-x,1/2+y,-z
-x,-y,-z
x,y,-z
1/2-x,1/2+y,z
1/2+x,1/2-y,z
loop_
_atom_site_type_symbol
_atom_site_label
_atom_site_fract_x
_atom_site_fract_y
_atom_site_fract_z
Si Si1 0.576384 0.069333 0.303123
Si Si2 0.469922 0.191973 0.622146
Si Si3 0.766328 0.855964 0.618133
Si Si4 0.147239 0.516946 0.122651
Si Si5 0.885782 0.835092 0.615488
Si Si6 0.347593 0.337868 0.122799
Si Si7 0.244625 0.405322 0.757546
Si Si8 0.943592 0.048436 0.246277
O O1 0.519451 0.144818 0.305620
O O2 0.595097 0.036790 0.183822
O O3 0.618383 0.173318 0.355976
O O4 0.574799 0.926088 0.367613
O O5 0.486997 0.206233 0.500000
O O6 0.448437 0.335963 0.663410
O O7 0.744951 0.818051 0.500000
O O8 0.827563 0.897033 0.611860
O O9 0.757763 0.741687 0.705257
O O10 0.736129 0.988059 0.662111
O O11 0.156279 0.676773 0.147050
O O12 0.198592 0.429398 0.156609
O O13 0.136231 0.490222 0.000000
O O14 0.912604 0.850828 0.500000
O O15 0.920764 0.912639 0.700658
O O16 0.301551 0.418884 0.185025
O O17 0.405143 0.396442 0.154854
O O18 0.339458 0.368327 0.000000
O O19 0.000000 0.000000 0.197685
#
# Coordination Sequence:
#
# PCOD8227682 Si02
#       8
#     8   8   8   8   8   8   8   8
#     4  11  21  40  61  93 127 163 211 265 310 375
#     4  11  23  39  64  95 130 170 214 257 319 390
#     4  11  24  39  63  97 137 171 204 255 318 383
#     4  11  24  43  68  96 125 169 221 273 326 375
#     4  11  22  38  61  92 133 170 204 255 317 380
#     4  11  25  46  67  91 127 172 217 274 328 374
#     4  12  22  45  67  97 130 170 218 263 316 391
#     4  12  24  41  65  95 130 167 214 268 323 390
#
# _framework density 20.547903000000002
#
# number of rings (size 3 to 8) (size 9 to 14) (size 15 to 20)
#    0.000    0.750    6.250    2.625    0.000    0.750 
#    0.000    5.000    0.000    0.000    0.000    0.000 
#    0.000    0.000    0.000    0.000    0.000    0.000 
#
# Total GULP energy -793606.481057 kJ/mol
# GULP energy per Si atom -12400.101267 kJ/mol
# Density = 2.050113 g / cm^3
# Si number density = 20.547903 Si / 1000 Ang^3
#
#
#
# Elastic Constant Matrix: (Units=GPa)
#
#
# Indices 1 2 3 4 5 6 
#
# 1 83.1833 21.2340 49.8662 0.0000 0.0000 0.0000
# 2 21.2340 89.9417 35.6151 0.0000 0.0000 0.0000
# 3 49.8662 35.6151 120.5981 0.0000 0.0000 0.0000
# 4 0.0000 0.0000 0.0000 29.2128 0.0000 0.0000
# 5 0.0000 0.0000 0.0000 0.0000 21.3664 0.0000
# 6 0.0000 0.0000 0.0000 0.0000 0.0000 30.0577
#
#
#
# Elastic Compliance Matrix: (Units=1/GPa)
#
#
# Indices 1 2 3 4 5 6 
#
# 1 0.016121 -0.001321 -0.006276 0.000000 0.000000 0.000000
# 2 -0.001321 0.012699 -0.003204 0.000000 0.000000 0.000000
# 3 -0.006276 -0.003204 0.011833 0.000000 0.000000 0.000000
# 4 0.000000 0.000000 0.000000 0.034232 0.000000 0.000000
# 5 0.000000 0.000000 0.000000 0.000000 0.046802 0.000000
# 6 0.000000 0.000000 0.000000 0.000000 0.000000 0.033269
#
#
# Mechanical properties :
#
#
# Convention : Reuss Voigt Hill
#
# Bulk Modulus (GPa) = 52.48896 56.35041 54.41968
# Shear Modulus (GPa) = 27.33608 28.59457 27.96532
#
# Velocity S-wave (km/s) = 3.65136 3.73447 3.69315
# Velocity P-wave (km/s) = 6.58610 6.78811 6.68787
#
# Compressibility (1/GPa) = 0.01905163
#
# Stress axis : x y z
#
# Youngs Moduli (GPa) = 62.03096 78.74701 84.50789
#
# Poissons Ratio (x) = 0.10401 0.53035
# Poissons Ratio (y) = 0.08193 0.27077
# Poissons Ratio (z) = 0.38929 0.25231
#
# Static dielectric constant tensor:
#      x y z
#    x 3.746310 0.000000 0.000000 
#    y 0.000000 3.876420 0.000000 
#    z 0.000000 0.000000 3.629240 
# 
# 
# High freq. dielectric constant tensor:
#      x y z
#    x 1.802920 0.000000 0.000000 
#    y 0.000000 1.815560 0.000000 
#    z 0.000000 0.000000 1.792890 
# 
# From -- ./inp_files/16248.got.cif
#   From: 2010.03.12/outbox.cif.g09.slc.cpg/sg55_9_cif.got.tgz:16248.got - 2010.04.16 15:19:21.
