data_PCOD8227898
_publ_section_title
;
Structure prediction by ZEFSAII (Michael W. Deem and Ramdas Pophale) SiO2 
 PCOD8227898
Probable space group: P C C N
;
_chemical_formula_sum "Si O2"
_cell_formula_units_Z 64
_cell_length_a 8.621620
_cell_length_b 24.149657
_cell_length_c 15.543075
_cell_angle_alpha 90.000000
_cell_angle_beta 90.000000
_cell_angle_gamma 90.000000
_cell_volume 3236.210679
_symmetry_space_group_name_H-M "P C C N"
_symmetry_group_IT_number 56
_symmetry_cell_setting 'orthorhombic'
loop_
_space_group_symop_operation_xyz
x,y,z
1/2-x,1/2-y,z
1/2+x,-y,1/2-z
-x,1/2+y,1/2-z
-x,-y,-z
1/2+x,1/2+y,-z
1/2-x,y,1/2+z
x,1/2-y,1/2+z
loop_
_atom_site_type_symbol
_atom_site_label
_atom_site_fract_x
_atom_site_fract_y
_atom_site_fract_z
Si Si1 0.433335 0.560633 0.006445
Si Si2 0.568237 0.360209 0.647015
Si Si3 0.566665 0.439367 0.493555
Si Si4 0.567550 0.250000 0.399036
Si Si5 0.930330 0.750000 0.915563
Si Si6 0.432072 0.866272 0.161241
Si Si7 0.067928 0.866272 0.161241
Si Si8 0.068237 0.860209 0.852985
O O1 0.250000 0.556336 0.008903
O O2 0.488305 0.595846 0.923782
O O3 0.500000 0.500000 0.000000
O O4 0.500795 0.589693 0.092866
O O5 0.511695 0.404154 0.576218
O O6 0.472331 0.303861 0.639590
O O7 0.531602 0.385479 0.741477
O O8 0.750000 0.346583 0.636708
O O9 0.500000 0.500000 0.500000
O O10 0.499205 0.410307 0.407134
O O11 0.750000 0.250000 0.384317
O O12 0.533412 0.250000 0.499533
O O13 0.495270 0.305253 0.355916
O O14 0.495270 0.194747 0.355916
O O15 0.750000 0.750000 0.939366
O O16 0.972331 0.803861 0.860410
O O17 0.250000 0.862586 0.143877
O O18 0.468398 0.885479 0.258523
#
# Coordination Sequence:
#
# PCOD8227898 Si02
#       8
#     8   8   8   8   8   8   8   8
#     4  10  21  37  57  82 111 146 189 232 274 323
#     4  10  20  38  62  82 107 148 191 227 269 329
#     4  10  21  37  57  82 111 146 189 232 274 323
#     4  10  17  34  60  83 109 144 184 224 269 331
#     4  12  23  34  54  87 121 146 174 224 285 335
#     4   9  18  34  60  87 106 139 191 232 265 323
#     4   9  18  34  60  87 106 139 191 232 265 323
#     4  10  20  38  62  82 107 148 191 227 269 329
#
# _framework density 19.776214
#
# number of rings (size 3 to 8) (size 9 to 14) (size 15 to 20)
#    0.000    2.000    2.500    1.875    0.000    4.000 
#    0.000    3.750    0.000    0.000    0.000    0.000 
#    0.000    0.000    0.000    0.000    0.000    0.000 
#
# Total GULP energy -793552.253797 kJ/mol
# GULP energy per Si atom -12399.253966 kJ/mol
# Density = 1.973120 g / cm^3
# Si number density = 19.776214 Si / 1000 Ang^3
#
#
#
# Elastic Constant Matrix: (Units=GPa)
#
#
# Indices 1 2 3 4 5 6 
#
# 1 18.3065 27.1717 14.4390 0.0000 0.0000 0.0000
# 2 27.1717 173.0279 84.4335 0.0000 0.0000 0.0000
# 3 14.4390 84.4335 169.3448 0.0000 0.0000 0.0000
# 4 0.0000 0.0000 0.0000 19.0235 0.0000 0.0000
# 5 0.0000 0.0000 0.0000 0.0000 9.2459 0.0000
# 6 0.0000 0.0000 0.0000 0.0000 0.0000 30.0866
#
#
#
# Elastic Compliance Matrix: (Units=1/GPa)
#
#
# Indices 1 2 3 4 5 6 
#
# 1 0.071282 -0.010874 -0.000656 0.000000 0.000000 0.000000
# 2 -0.010874 0.009296 -0.003708 0.000000 0.000000 0.000000
# 3 -0.000656 -0.003708 0.007810 0.000000 0.000000 0.000000
# 4 0.000000 0.000000 0.000000 0.052566 0.000000 0.000000
# 5 0.000000 0.000000 0.000000 0.000000 0.108156 0.000000
# 6 0.000000 0.000000 0.000000 0.000000 0.000000 0.033237
#
#
# Mechanical properties :
#
#
# Convention : Reuss Voigt Hill
#
# Bulk Modulus (GPa) = 17.26738 68.08531 42.67634
# Shear Modulus (GPa) = 15.05441 27.31354 21.18398
#
# Velocity S-wave (km/s) = 2.76205 3.72039 3.27645
# Velocity P-wave (km/s) = 4.34997 7.27720 5.99499
#
# Compressibility (1/GPa) = 0.05791268
#
# Stress axis : x y z
#
# Youngs Moduli (GPa) = 14.02871 107.56892 128.04411
#
# Poissons Ratio (x) = 1.16967 0.08404
# Poissons Ratio (y) = 0.15254 0.47478
# Poissons Ratio (z) = 0.00921 0.39886
#
# Static dielectric constant tensor:
#      x y z
#    x 3.149750 0.000000 0.000000 
#    y 0.000000 3.850250 0.000000 
#    z 0.000000 0.000000 3.821160 
# 
# 
# High freq. dielectric constant tensor:
#      x y z
#    x 1.725170 0.000000 0.000000 
#    y 0.000000 1.769900 0.000000 
#    z 0.000000 0.000000 1.787700 
# 
# From -- ./inp_files/11047.got.cif
#   From: 2010.03.12/outbox.cif.g09.slc.cpg/sg56_6_cif.got.tgz:11047.got - 2010.04.16 15:33:40.
