data_PCOD8227763
_publ_section_title
;
Structure prediction by ZEFSAII (Michael W. Deem and Ramdas Pophale) SiO2 
 PCOD8227763
Probable space group: P B A M
;
_chemical_formula_sum "Si O2"
_cell_formula_units_Z 32
_cell_length_a 9.835313
_cell_length_b 17.952994
_cell_length_c 8.362637
_cell_angle_alpha 90.000000
_cell_angle_beta 90.000000
_cell_angle_gamma 90.000000
_cell_volume 1476.618540
_symmetry_space_group_name_H-M "P B A M"
_symmetry_group_IT_number 55
_symmetry_cell_setting 'orthorhombic'
loop_
_space_group_symop_operation_xyz
x,y,z
-x,-y,z
1/2+x,1/2-y,-z
1/2-x,1/2+y,-z
-x,-y,-z
x,y,-z
1/2-x,1/2+y,z
1/2+x,1/2-y,z
loop_
_atom_site_type_symbol
_atom_site_label
_atom_site_fract_x
_atom_site_fract_y
_atom_site_fract_z
Si Si1 0.111820 0.441070 0.313755
Si Si2 0.302677 0.682961 0.685875
Si Si3 0.851953 0.975421 0.185347
Si Si4 0.512432 0.792517 0.186270
O O1 0.142149 0.450858 0.500000
O O2 0.250049 0.456070 0.216382
O O3 0.000000 0.500000 0.253965
O O4 0.062037 0.358248 0.280387
O O5 0.318784 0.701012 0.500000
O O6 0.299341 0.594591 0.713047
O O7 0.163837 0.719627 0.748546
O O8 0.429390 0.716959 0.782577
O O9 0.854396 0.953313 0.000000
O O10 0.000000 0.000000 0.245369
O O11 0.517579 0.811696 0.000000
#
# Coordination Sequence:
#
# PCOD8227763 Si02
#       4
#     8   8   8   8
#     4  11  23  42  69  99 131 171 222 271 329 393
#     4  12  26  46  69  98 135 175 223 275 333 396
#     4  11  25  44  68  99 135 174 224 276 332 394
#     4  12  26  45  70  98 134 176 223 274 334 398
#
# _framework density 21.671135
#
# number of rings (size 3 to 8) (size 9 to 14) (size 15 to 20)
#    0.000    0.500    2.500    6.000    3.500    3.000 
#    0.000    0.000    0.000    0.000    0.000    0.000 
#    0.000    0.000    0.000    0.000    0.000    0.000 
#
# Total GULP energy -397155.195340 kJ/mol
# GULP energy per Si atom -12411.099854 kJ/mol
# Density = 2.162181 g / cm^3
# Si number density = 21.671135 Si / 1000 Ang^3
#
#
#
# Elastic Constant Matrix: (Units=GPa)
#
#
# Indices 1 2 3 4 5 6 
#
# 1 146.9316 12.6772 41.4688 0.0000 0.0000 0.0000
# 2 12.6772 50.7202 12.9301 0.0000 0.0000 0.0000
# 3 41.4688 12.9301 83.2535 0.0000 0.0000 0.0000
# 4 0.0000 0.0000 0.0000 38.1614 0.0000 0.0000
# 5 0.0000 0.0000 0.0000 0.0000 35.0830 0.0000
# 6 0.0000 0.0000 0.0000 0.0000 0.0000 43.4839
#
#
#
# Elastic Compliance Matrix: (Units=1/GPa)
#
#
# Indices 1 2 3 4 5 6 
#
# 1 0.007970 -0.001020 -0.003811 0.000000 0.000000 0.000000
# 2 -0.001020 0.020659 -0.002700 0.000000 0.000000 0.000000
# 3 -0.003811 -0.002700 0.014329 0.000000 0.000000 0.000000
# 4 0.000000 0.000000 0.000000 0.026204 0.000000 0.000000
# 5 0.000000 0.000000 0.000000 0.000000 0.028504 0.000000
# 6 0.000000 0.000000 0.000000 0.000000 0.000000 0.022997
#
#
# Mechanical properties :
#
#
# Convention : Reuss Voigt Hill
#
# Bulk Modulus (GPa) = 35.84943 46.11750 40.98346
# Shear Modulus (GPa) = 34.47666 37.60093 36.03880
#
# Velocity S-wave (km/s) = 3.99294 4.16994 4.08240
# Velocity P-wave (km/s) = 6.15114 6.67168 6.41669
#
# Compressibility (1/GPa) = 0.02789445
#
# Stress axis : x y z
#
# Youngs Moduli (GPa) = 125.47736 48.40395 69.78726
#
# Poissons Ratio (x) = 0.04939 0.26597
# Poissons Ratio (y) = 0.12803 0.18845
# Poissons Ratio (z) = 0.47822 0.13071
#
# Static dielectric constant tensor:
#      x y z
#    x 4.104970 0.000000 0.000000 
#    y 0.000000 3.763710 0.000000 
#    z 0.000000 0.000000 3.825880 
# 
# 
# High freq. dielectric constant tensor:
#      x y z
#    x 1.866670 0.000000 0.000000 
#    y 0.000000 1.848600 0.000000 
#    z 0.000000 0.000000 1.860920 
# 
# From -- ./inp_files/3526.got.cif
#   From: 2010.03.12/outbox.cif.g09.slc.cpg/sg55_2_cif.got.tgz:3526.got - 2010.04.16 15:19:21.
