data_PCOD8227279
_publ_section_title
;
Structure prediction by ZEFSAII (Michael W. Deem and Ramdas Pophale) SiO2 
 PCOD8227279
Probable space group: P B A M
;
_chemical_formula_sum "Si O2"
_cell_formula_units_Z 40
_cell_length_a 9.799749
_cell_length_b 26.295527
_cell_length_c 7.388700
_cell_angle_alpha 90.000000
_cell_angle_beta 90.000000
_cell_angle_gamma 90.000000
_cell_volume 1903.990885
_symmetry_space_group_name_H-M "P B A M"
_symmetry_group_IT_number 55
_symmetry_cell_setting 'orthorhombic'
loop_
_space_group_symop_operation_xyz
x,y,z
-x,-y,z
1/2+x,1/2-y,-z
1/2-x,1/2+y,-z
-x,-y,-z
x,y,-z
1/2-x,1/2+y,z
1/2+x,1/2-y,z
loop_
_atom_site_type_symbol
_atom_site_label
_atom_site_fract_x
_atom_site_fract_y
_atom_site_fract_z
Si Si1 0.844160 0.804498 0.000000
Si Si2 0.776259 0.122245 0.287429
Si Si3 0.736157 0.879984 0.705374
Si Si4 0.172367 0.797478 0.000000
Si Si5 0.011806 0.054093 0.703975
Si Si6 0.485115 0.942790 0.712652
O O1 0.802658 0.835408 0.821390
O O2 0.006444 0.791499 0.000000
O O3 0.746680 0.756121 0.000000
O O4 0.776090 0.136009 0.500000
O O5 0.914909 0.096829 0.210465
O O6 0.659395 0.081682 0.237565
O O7 0.768471 0.174577 0.178049
O O8 0.718509 0.859243 0.500000
O O9 0.596266 0.902419 0.788796
O O10 0.833079 0.928972 0.708997
O O11 0.955219 0.046984 0.500000
O O12 0.000000 0.000000 0.806390
O O13 0.510000 0.946881 0.500000
O O14 0.500000 0.000000 0.796082
#
# Coordination Sequence:
#
# PCOD8227279 Si02
#       6
#     4   8   8   4   8   8
#     4  12  28  46  65  88 116 156 211 270 321 364
#     4  10  21  40  64  92 127 161 200 249 301 366
#     4  10  21  40  64  92 127 161 200 249 301 366
#     4  12  28  46  65  88 116 156 211 270 321 364
#     4   9  16  31  59  90 123 161 192 232 292 356
#     4   9  18  35  63  98 133 169 202 236 292 364
#
# _framework density 21.008506000000001
#
# number of rings (size 3 to 8) (size 9 to 14) (size 15 to 20)
#    0.000    2.000    2.000    1.200    2.800    5.600 
#    0.000    6.000    0.000    0.000    0.000    0.000 
#    0.000    0.000    0.000    0.000    0.000    0.000 
#
# Total GULP energy -495752.661957 kJ/mol
# GULP energy per Si atom -12393.816549 kJ/mol
# Density = 2.096069 g / cm^3
# Si number density = 21.008506 Si / 1000 Ang^3
#
#
#
# Elastic Constant Matrix: (Units=GPa)
#
#
# Indices 1 2 3 4 5 6 
#
# 1 107.7672 34.9766 25.6043 0.0000 0.0000 0.0000
# 2 34.9766 129.1317 45.7072 0.0000 0.0000 0.0000
# 3 25.6043 45.7072 84.2480 0.0000 0.0000 0.0000
# 4 0.0000 0.0000 0.0000 19.4205 0.0000 0.0000
# 5 0.0000 0.0000 0.0000 0.0000 13.5836 0.0000
# 6 0.0000 0.0000 0.0000 0.0000 0.0000 41.9726
#
#
#
# Elastic Compliance Matrix: (Units=1/GPa)
#
#
# Indices 1 2 3 4 5 6 
#
# 1 0.010447 -0.002111 -0.002030 0.000000 0.000000 0.000000
# 2 -0.002111 0.010011 -0.004790 0.000000 0.000000 0.000000
# 3 -0.002030 -0.004790 0.015085 0.000000 0.000000 0.000000
# 4 0.000000 0.000000 0.000000 0.051492 0.000000 0.000000
# 5 0.000000 0.000000 0.000000 0.000000 0.073618 0.000000
# 6 0.000000 0.000000 0.000000 0.000000 0.000000 0.023825
#
#
# Mechanical properties :
#
#
# Convention : Reuss Voigt Hill
#
# Bulk Modulus (GPa) = 56.55461 59.30254 57.92858
# Shear Modulus (GPa) = 24.01150 29.31924 26.66537
#
# Velocity S-wave (km/s) = 3.38441 3.73981 3.56654
# Velocity P-wave (km/s) = 6.50005 6.85109 6.67787
#
# Compressibility (1/GPa) = 0.01768202
#
# Stress axis : x y z
#
# Youngs Moduli (GPa) = 95.72435 99.88749 66.29045
#
# Poissons Ratio (x) = 0.21088 0.13454
# Poissons Ratio (y) = 0.20210 0.31752
# Poissons Ratio (z) = 0.19427 0.47844
#
# Static dielectric constant tensor:
#      x y z
#    x 3.912310 0.000000 0.000000 
#    y 0.000000 3.713260 0.000000 
#    z 0.000000 0.000000 3.648830 
# 
# 
# High freq. dielectric constant tensor:
#      x y z
#    x 1.836760 0.000000 0.000000 
#    y 0.000000 1.812350 0.000000 
#    z 0.000000 0.000000 1.808970 
# 
# From -- ./inp_files/2364.got.cif
#   From: 2010.03.12/outbox.cif.g09.slc.cpg/sg55_2_cif.got.tgz:2364.got - 2010.04.16 15:19:21.
