data_PCOD8227714
_publ_section_title
;
Structure prediction by ZEFSAII (Michael W. Deem and Ramdas Pophale) SiO2 
 PCOD8227714
Probable space group: P B A M
;
_chemical_formula_sum "Si O2"
_cell_formula_units_Z 40
_cell_length_a 15.002955
_cell_length_b 9.368511
_cell_length_c 13.658735
_cell_angle_alpha 90.000000
_cell_angle_beta 90.000000
_cell_angle_gamma 90.000000
_cell_volume 1919.808264
_symmetry_space_group_name_H-M "P B A M"
_symmetry_group_IT_number 55
_symmetry_cell_setting 'orthorhombic'
loop_
_space_group_symop_operation_xyz
x,y,z
-x,-y,z
1/2+x,1/2-y,-z
1/2-x,1/2+y,-z
-x,-y,-z
x,y,-z
1/2-x,1/2+y,z
1/2+x,1/2-y,z
loop_
_atom_site_type_symbol
_atom_site_label
_atom_site_fract_x
_atom_site_fract_y
_atom_site_fract_z
Si Si1 0.258285 0.521414 0.759857
Si Si2 0.578709 0.115520 0.299646
Si Si3 0.491193 0.830885 0.104277
Si Si4 0.809998 0.230577 0.887829
Si Si5 0.086676 0.089144 0.611846
O O1 0.172603 0.464714 0.700176
O O2 0.239657 0.672047 0.809262
O O3 0.288626 0.427703 0.852197
O O4 0.333639 0.534942 0.678848
O O5 0.571600 0.202938 0.196057
O O6 0.571998 0.239385 0.380621
O O7 0.500000 0.000000 0.315505
O O8 0.585360 0.757081 0.120015
O O9 0.500000 0.000000 0.100757
O O10 0.449521 0.778664 0.000000
O O11 0.777214 0.251600 0.000000
O O12 0.111155 0.054226 0.500000
O O13 0.000000 0.000000 0.644049
#
# Coordination Sequence:
#
# PCOD8227714 Si02
#       5
#     8   8   8   8   8
#     4  12  23  43  66  98 135 177 219 276 332 397
#     4  11  22  41  70 100 130 173 219 272 332 401
#     4   9  17  32  58  92 131 170 210 253 309 380
#     4  11  22  38  64  99 137 179 221 263 322 394
#     4  11  27  48  69  94 129 172 225 290 348 395
#
# _framework density 20.835414
#
# number of rings (size 3 to 8) (size 9 to 14) (size 15 to 20)
#    0.000    1.200    6.000    1.800    0.000    2.000 
#    0.000    0.000    0.000    4.200    0.000    0.000 
#    0.000    0.000    0.000    0.000    0.000    0.000 
#
# Total GULP energy -495856.118388 kJ/mol
# GULP energy per Si atom -12396.402960 kJ/mol
# Density = 2.078799 g / cm^3
# Si number density = 20.835414 Si / 1000 Ang^3
#
#
#
# Elastic Constant Matrix: (Units=GPa)
#
#
# Indices 1 2 3 4 5 6 
#
# 1 124.1540 35.9998 57.0017 0.0000 0.0000 0.0000
# 2 35.9998 72.1351 25.2837 0.0000 0.0000 0.0000
# 3 57.0017 25.2837 111.2008 0.0000 0.0000 0.0000
# 4 0.0000 0.0000 0.0000 33.4261 0.0000 0.0000
# 5 0.0000 0.0000 0.0000 0.0000 35.7576 0.0000
# 6 0.0000 0.0000 0.0000 0.0000 0.0000 22.4006
#
#
#
# Elastic Compliance Matrix: (Units=1/GPa)
#
#
# Indices 1 2 3 4 5 6 
#
# 1 0.011502 -0.003992 -0.004988 0.000000 0.000000 0.000000
# 2 -0.003992 0.016449 -0.001694 0.000000 0.000000 0.000000
# 3 -0.004988 -0.001694 0.011935 0.000000 0.000000 0.000000
# 4 0.000000 0.000000 0.000000 0.029917 0.000000 0.000000
# 5 0.000000 0.000000 0.000000 0.000000 0.027966 0.000000
# 6 0.000000 0.000000 0.000000 0.000000 0.000000 0.044642
#
#
# Mechanical properties :
#
#
# Convention : Reuss Voigt Hill
#
# Bulk Modulus (GPa) = 53.94358 60.45111 57.19735
# Shear Modulus (GPa) = 29.42254 30.93051 30.17653
#
# Velocity S-wave (km/s) = 3.76192 3.85712 3.80982
# Velocity P-wave (km/s) = 6.69447 6.99379 6.84577
#
# Compressibility (1/GPa) = 0.01853789
#
# Stress axis : x y z
#
# Youngs Moduli (GPa) = 86.93905 60.79501 83.78763
#
# Poissons Ratio (x) = 0.24269 0.41797
# Poissons Ratio (y) = 0.34705 0.14191
# Poissons Ratio (z) = 0.43369 0.10297
#
# Static dielectric constant tensor:
#      x y z
#    x 3.740280 0.000000 0.000000 
#    y 0.000000 3.691590 0.000000 
#    z 0.000000 0.000000 4.162930 
# 
# 
# High freq. dielectric constant tensor:
#      x y z
#    x 1.820200 0.000000 0.000000 
#    y 0.000000 1.812530 0.000000 
#    z 0.000000 0.000000 1.816550 
# 
# From -- ./inp_files/17041.got.cif
#   From: 2010.03.12/outbox.cif.g09.slc.cpg/sg55_9_cif.got.tgz:17041.got - 2010.04.16 15:19:21.
