data_PCOD8227650
_publ_section_title
;
Structure prediction by ZEFSAII (Michael W. Deem and Ramdas Pophale) SiO2 
 PCOD8227650
Probable space group: P B A M
;
_chemical_formula_sum "Si O2"
_cell_formula_units_Z 40
_cell_length_a 25.981126
_cell_length_b 10.274942
_cell_length_c 7.824732
_cell_angle_alpha 90.000000
_cell_angle_beta 90.000000
_cell_angle_gamma 90.000000
_cell_volume 2088.847910
_symmetry_space_group_name_H-M "P B A M"
_symmetry_group_IT_number 55
_symmetry_cell_setting 'orthorhombic'
loop_
_space_group_symop_operation_xyz
x,y,z
-x,-y,z
1/2+x,1/2-y,-z
1/2-x,1/2+y,-z
-x,-y,-z
x,y,-z
1/2-x,1/2+y,z
1/2+x,1/2-y,z
loop_
_atom_site_type_symbol
_atom_site_label
_atom_site_fract_x
_atom_site_fract_y
_atom_site_fract_z
Si Si1 0.800926 0.491907 0.194855
Si Si2 0.560387 0.847952 0.000000
Si Si3 0.811625 0.006300 0.692828
Si Si4 0.944013 0.656811 0.000000
Si Si5 0.646645 0.247748 0.189077
Si Si6 0.868316 0.264216 0.695465
O O1 0.739381 0.489497 0.195311
O O2 0.822509 0.626990 0.273738
O O3 0.823254 0.371654 0.301299
O O4 0.821058 0.478254 0.000000
O O5 0.586136 0.797950 0.825623
O O6 0.502240 0.792938 0.000000
O O7 0.559957 0.002303 0.000000
O O8 0.794026 0.033070 0.500000
O O9 0.844904 0.127458 0.759485
O O10 0.846543 0.876713 0.699055
O O11 0.914114 0.711038 0.830869
O O12 0.670448 0.274320 0.000000
O O13 0.889214 0.254551 0.500000
#
# Coordination Sequence:
#
# PCOD8227650 Si02
#       6
#     8   4   8   4   8   8
#     4  11  20  36  59  86 117 162 202 235 286 347
#     4  11  20  43  68  86 119 146 191 265 298 340
#     4  11  24  35  52  86 128 160 191 238 285 351
#     4   9  20  41  66  92 107 144 207 243 306 356
#     4   9  19  38  57  86 110 151 201 235 289 350
#     4  11  23  39  59  91 120 156 202 236 294 352
#
# _framework density 19.149312999999999
#
# number of rings (size 3 to 8) (size 9 to 14) (size 15 to 20)
#    0.600    1.000    3.000    2.400    2.800    4.800 
#    0.000    5.000    0.000    2.400    0.000    0.000 
#    0.000    0.000    0.000    0.000    0.000    0.000 
#
# Total GULP energy -495935.985609 kJ/mol
# GULP energy per Si atom -12398.399640 kJ/mol
# Density = 1.910573 g / cm^3
# Si number density = 19.149313 Si / 1000 Ang^3
#
#
#
# Elastic Constant Matrix: (Units=GPa)
#
#
# Indices 1 2 3 4 5 6 
#
# 1 143.7055 58.3491 33.9007 0.0000 0.0000 0.0000
# 2 58.3491 147.8919 21.0136 0.0000 0.0000 0.0000
# 3 33.9007 21.0136 62.1701 0.0000 0.0000 0.0000
# 4 0.0000 0.0000 0.0000 12.5812 0.0000 0.0000
# 5 0.0000 0.0000 0.0000 0.0000 11.2395 0.0000
# 6 0.0000 0.0000 0.0000 0.0000 0.0000 14.9809
#
#
#
# Elastic Compliance Matrix: (Units=1/GPa)
#
#
# Indices 1 2 3 4 5 6 
#
# 1 0.009124 -0.003039 -0.003948 0.000000 0.000000 0.000000
# 2 -0.003039 0.008115 -0.001086 0.000000 0.000000 0.000000
# 3 -0.003948 -0.001086 0.018605 0.000000 0.000000 0.000000
# 4 0.000000 0.000000 0.000000 0.079484 0.000000 0.000000
# 5 0.000000 0.000000 0.000000 0.000000 0.088972 0.000000
# 6 0.000000 0.000000 0.000000 0.000000 0.000000 0.066752
#
#
# Mechanical properties :
#
#
# Convention : Reuss Voigt Hill
#
# Bulk Modulus (GPa) = 50.76601 64.47714 57.62157
# Shear Modulus (GPa) = 17.02060 23.79395 20.40727
#
# Velocity S-wave (km/s) = 2.98457 3.52880 3.26804
# Velocity P-wave (km/s) = 6.20041 7.09557 6.66304
#
# Compressibility (1/GPa) = 0.01969822
#
# Stress axis : x y z
#
# Youngs Moduli (GPa) = 109.60265 123.23035 53.74972
#
# Poissons Ratio (x) = 0.37447 0.21221
# Poissons Ratio (y) = 0.33306 0.05836
# Poissons Ratio (z) = 0.43272 0.13381
#
# Static dielectric constant tensor:
#      x y z
#    x 3.367320 0.000000 0.000000 
#    y 0.000000 3.557670 0.000000 
#    z 0.000000 0.000000 3.255670 
# 
# 
# High freq. dielectric constant tensor:
#      x y z
#    x 1.724350 0.000000 0.000000 
#    y 0.000000 1.756190 0.000000 
#    z 0.000000 0.000000 1.730520 
# 
# From -- ./inp_files/10015.got.cif
#   From: 2010.03.12/outbox.cif.g09.slc.cpg/sg55_6_cif.got.tgz:10015.got - 2010.04.16 15:19:21.
