data_PCOD8227716
_publ_section_title
;
Structure prediction by ZEFSAII (Michael W. Deem and Ramdas Pophale) SiO2 
 PCOD8227716
Probable space group: P B A M
;
_chemical_formula_sum "Si O2"
_cell_formula_units_Z 48
_cell_length_a 8.899571
_cell_length_b 30.427857
_cell_length_c 8.343800
_cell_angle_alpha 90.000000
_cell_angle_beta 90.000000
_cell_angle_gamma 90.000000
_cell_volume 2259.458268
_symmetry_space_group_name_H-M "P B A M"
_symmetry_group_IT_number 55
_symmetry_cell_setting 'orthorhombic'
loop_
_space_group_symop_operation_xyz
x,y,z
-x,-y,z
1/2+x,1/2-y,-z
1/2-x,1/2+y,-z
-x,-y,-z
x,y,-z
1/2-x,1/2+y,z
1/2+x,1/2-y,z
loop_
_atom_site_type_symbol
_atom_site_label
_atom_site_fract_x
_atom_site_fract_y
_atom_site_fract_z
Si Si1 0.308450 0.456705 0.309996
Si Si2 0.134770 0.217274 0.816155
Si Si3 0.313071 0.297699 0.314123
Si Si4 0.142888 0.376739 0.813866
Si Si5 0.646227 0.446288 0.310321
Si Si6 0.680275 0.861747 0.687189
O O1 0.289230 0.450955 0.500000
O O2 0.186436 0.427159 0.219692
O O3 0.474468 0.442071 0.252409
O O4 0.282092 0.507222 0.255540
O O5 0.210726 0.263853 0.782811
O O6 0.255651 0.179709 0.781037
O O7 0.988885 0.211589 0.706680
O O8 0.084005 0.215357 0.000000
O O9 0.272425 0.294232 0.500000
O O10 0.278844 0.346233 0.247442
O O11 0.996606 0.363893 0.713673
O O12 0.110641 0.369635 0.000000
O O13 0.647702 0.445548 0.500000
O O14 0.743068 0.405928 0.241614
O O15 0.715399 0.855929 0.500000
#
# Coordination Sequence:
#
# PCOD8227716 Si02
#       6
#     8   8   8   8   8   8
#     4   9  17  36  62  88 115 152 199 250 301 360
#     4  12  25  43  65  94 127 157 190 244 305 354
#     4  12  25  44  67  91 118 158 204 244 287 354
#     4  12  25  40  57  86 123 160 199 251 308 355
#     4   8  17  34  61  89 115 149 199 252 298 350
#     4  11  22  39  61  88 120 162 207 247 291 355
#
# _framework density 21.244029999999999
#
# number of rings (size 3 to 8) (size 9 to 14) (size 15 to 20)
#    0.000    1.333    0.000    8.000    0.000    2.000 
#    0.000    7.500    0.000    0.000    0.000    0.000 
#    0.000    0.000    0.000    0.000    0.000    0.000 
#
# Total GULP energy -595467.904561 kJ/mol
# GULP energy per Si atom -12405.581345 kJ/mol
# Density = 2.119568 g / cm^3
# Si number density = 21.244030 Si / 1000 Ang^3
#
#
#
# Elastic Constant Matrix: (Units=GPa)
#
#
# Indices 1 2 3 4 5 6 
#
# 1 63.5356 11.0835 5.3490 0.0000 0.0000 0.0000
# 2 11.0835 93.0417 24.7132 0.0000 0.0000 0.0000
# 3 5.3490 24.7132 78.4243 0.0000 0.0000 0.0000
# 4 0.0000 0.0000 0.0000 24.6886 0.0000 0.0000
# 5 0.0000 0.0000 0.0000 0.0000 24.6799 0.0000
# 6 0.0000 0.0000 0.0000 0.0000 0.0000 41.2894
#
#
#
# Elastic Compliance Matrix: (Units=1/GPa)
#
#
# Indices 1 2 3 4 5 6 
#
# 1 0.016094 -0.001774 -0.000539 0.000000 0.000000 0.000000
# 2 -0.001774 0.011925 -0.003637 0.000000 0.000000 0.000000
# 3 -0.000539 -0.003637 0.013934 0.000000 0.000000 0.000000
# 4 0.000000 0.000000 0.000000 0.040504 0.000000 0.000000
# 5 0.000000 0.000000 0.000000 0.000000 0.040519 0.000000
# 6 0.000000 0.000000 0.000000 0.000000 0.000000 0.024219
#
#
# Mechanical properties :
#
#
# Convention : Reuss Voigt Hill
#
# Bulk Modulus (GPa) = 33.27351 35.25475 34.26413
# Shear Modulus (GPa) = 29.56602 31.05532 30.31067
#
# Velocity S-wave (km/s) = 3.73464 3.82755 3.78138
# Velocity P-wave (km/s) = 5.85604 6.01370 5.93540
#
# Compressibility (1/GPa) = 0.03005394
#
# Stress axis : x y z
#
# Youngs Moduli (GPa) = 62.13477 83.85590 71.76713
#
# Poissons Ratio (x) = 0.14877 0.03866
# Poissons Ratio (y) = 0.11023 0.26101
# Poissons Ratio (z) = 0.03347 0.30497
#
# Static dielectric constant tensor:
#      x y z
#    x 3.764300 0.000000 0.000000 
#    y 0.000000 4.208800 0.000000 
#    z 0.000000 0.000000 3.597940 
# 
# 
# High freq. dielectric constant tensor:
#      x y z
#    x 1.832390 0.000000 0.000000 
#    y 0.000000 1.850210 0.000000 
#    z 0.000000 0.000000 1.818120 
# 
# From -- ./inp_files/2806.got.cif
#   From: 2010.03.12/outbox.cif.g09.slc.cpg/sg55_2_cif.got.tgz:2806.got - 2010.04.16 15:19:21.
