data_PCOD8228488
_publ_section_title
;
Structure prediction by ZEFSAII (Michael W. Deem and Ramdas Pophale) SiO2 
 PCOD8228488
Probable space group: P C C N
;
_chemical_formula_sum "Si O2"
_cell_formula_units_Z 64
_cell_length_a 12.467384
_cell_length_b 16.441351
_cell_length_c 14.203998
_cell_angle_alpha 90.000000
_cell_angle_beta 90.000000
_cell_angle_gamma 90.000000
_cell_volume 2911.544549
_symmetry_space_group_name_H-M "P C C N"
_symmetry_group_IT_number 56
_symmetry_cell_setting 'orthorhombic'
loop_
_space_group_symop_operation_xyz
x,y,z
1/2-x,1/2-y,z
1/2+x,-y,1/2-z
-x,1/2+y,1/2-z
-x,-y,-z
1/2+x,1/2+y,-z
1/2-x,y,1/2+z
x,1/2-y,1/2+z
loop_
_atom_site_type_symbol
_atom_site_label
_atom_site_fract_x
_atom_site_fract_y
_atom_site_fract_z
Si Si1 0.820125 0.171954 0.634660
Si Si2 0.967036 0.667723 0.961097
Si Si3 0.014042 0.677916 0.161895
Si Si4 0.539410 0.513621 0.896057
Si Si5 0.961178 0.348880 0.311524
Si Si6 0.372386 0.179571 0.651750
Si Si7 0.659618 0.605729 0.305045
Si Si8 0.658627 0.061403 0.730433
O O1 0.750000 0.250000 0.612437
O O2 0.891881 0.184555 0.725717
O O3 0.742816 0.095390 0.654293
O O4 0.903369 0.161669 0.549099
O O5 0.914187 0.753164 0.923003
O O6 0.912178 0.596464 0.899716
O O7 0.948022 0.644804 0.071026
O O8 0.938149 0.685581 0.252177
O O9 0.042768 0.768903 0.122621
O O10 0.120280 0.626429 0.190107
O O11 0.592011 0.428089 0.860479
O O12 0.618959 0.589986 0.895982
O O13 0.444766 0.533453 0.825259
O O14 0.500000 0.500000 0.000000
O O15 0.083450 0.365848 0.280419
O O16 0.245429 0.178816 0.678311
O O17 0.710746 0.517669 0.281239
#
# Coordination Sequence:
#
# PCOD8228488 Si02
#       8
#     8   8   8   8   8   8   8   8
#     4  11  19  40  62  90 125 164 215 259 315 387
#     4  11  24  41  64  97 131 167 216 277 313 387
#     4  11  22  42  67  94 128 173 209 264 334 377
#     4  10  21  39  62  93 130 164 213 272 320 379
#     4  10  20  38  64  88 127 168 209 262 322 381
#     4  11  21  44  66  90 134 172 215 267 326 388
#     4  10  22  42  63  91 128 169 216 261 320 386
#     4  10  22  41  65  92 127 176 208 261 332 385
#
# _framework density 21.981459999999998
#
# number of rings (size 3 to 8) (size 9 to 14) (size 15 to 20)
#    0.000    1.500    3.750    2.625    0.000    1.500 
#   15.750    0.000    0.000    0.000    0.000    0.000 
#    0.000    0.000    0.000    0.000    0.000    0.000 
#
# Total GULP energy -792909.171590 kJ/mol
# GULP energy per Si atom -12389.205806 kJ/mol
# Density = 2.193143 g / cm^3
# Si number density = 21.981460 Si / 1000 Ang^3
#
#
#
# Elastic Constant Matrix: (Units=GPa)
#
#
# Indices 1 2 3 4 5 6 
#
# 1 59.1434 7.9426 -14.5749 0.0000 0.0000 0.0000
# 2 7.9426 112.6262 16.1682 0.0000 0.0000 0.0000
# 3 -14.5749 16.1682 78.6391 0.0000 0.0000 0.0000
# 4 0.0000 0.0000 0.0000 18.8420 0.0000 0.0000
# 5 0.0000 0.0000 0.0000 0.0000 7.9682 0.0000
# 6 0.0000 0.0000 0.0000 0.0000 0.0000 31.6542
#
#
#
# Elastic Compliance Matrix: (Units=1/GPa)
#
#
# Indices 1 2 3 4 5 6 
#
# 1 0.018068 -0.001808 0.003720 0.000000 0.000000 0.000000
# 2 -0.001808 0.009330 -0.002253 0.000000 0.000000 0.000000
# 3 0.003720 -0.002253 0.013869 0.000000 0.000000 0.000000
# 4 0.000000 0.000000 0.000000 0.053073 0.000000 0.000000
# 5 0.000000 0.000000 0.000000 0.000000 0.125499 0.000000
# 6 0.000000 0.000000 0.000000 0.000000 0.000000 0.031591
#
#
# Mechanical properties :
#
#
# Convention : Reuss Voigt Hill
#
# Bulk Modulus (GPa) = 24.64001 29.94229 27.29115
# Shear Modulus (GPa) = 18.82240 27.75105 23.28673
#
# Velocity S-wave (km/s) = 2.92941 3.55699 3.25834
# Velocity P-wave (km/s) = 4.76190 5.52456 5.15735
#
# Compressibility (1/GPa) = 0.04058441
#
# Stress axis : x y z
#
# Youngs Moduli (GPa) = 55.34730 107.18185 72.10241
#
# Poissons Ratio (x) = 0.19381 -0.26825
# Poissons Ratio (y) = 0.10008 0.16247
# Poissons Ratio (z) = -0.20592 0.24152
#
# Static dielectric constant tensor:
#      x y z
#    x 4.080520 0.000000 0.000000 
#    y 0.000000 4.321670 0.000000 
#    z 0.000000 0.000000 3.730040 
# 
# 
# High freq. dielectric constant tensor:
#      x y z
#    x 1.857150 0.000000 0.000000 
#    y 0.000000 1.881330 0.000000 
#    z 0.000000 0.000000 1.844040 
# 
# From -- ./inp_files/11835.got.cif
#   From: 2010.03.12/outbox.cif.g09.slc.cpg/sg56_6_cif.got.tgz:11835.got - 2010.04.16 15:33:40.
