data_PCOD8228675
_publ_section_title
;
Structure prediction by ZEFSAII (Michael W. Deem and Ramdas Pophale) SiO2 
 PCOD8228675
Probable space group: P C C N
;
_chemical_formula_sum "Si O2"
_cell_formula_units_Z 40
_cell_length_a 22.675824
_cell_length_b 8.716700
_cell_length_c 8.885918
_cell_angle_alpha 90.000000
_cell_angle_beta 90.000000
_cell_angle_gamma 90.000000
_cell_volume 1756.375935
_symmetry_space_group_name_H-M "P C C N"
_symmetry_group_IT_number 56
_symmetry_cell_setting 'orthorhombic'
loop_
_space_group_symop_operation_xyz
x,y,z
1/2-x,1/2-y,z
1/2+x,-y,1/2-z
-x,1/2+y,1/2-z
-x,-y,-z
1/2+x,1/2+y,-z
1/2-x,y,1/2+z
x,1/2-y,1/2+z
loop_
_atom_site_type_symbol
_atom_site_label
_atom_site_fract_x
_atom_site_fract_y
_atom_site_fract_z
Si Si1 0.556085 0.962828 0.799504
Si Si2 0.446505 0.330985 0.372277
Si Si3 0.331434 0.475382 0.260988
Si Si4 0.245816 0.540317 0.506784
Si Si5 0.330425 0.829367 0.249447
O O1 0.544134 0.849591 0.658859
O O2 0.502174 0.078695 0.808525
O O3 0.614602 0.058873 0.769569
O O4 0.562535 0.863493 0.951821
O O5 0.389336 0.374793 0.274970
O O6 0.288734 0.439415 0.402500
O O7 0.351295 0.653563 0.252889
O O8 0.295601 0.430103 0.109447
O O9 0.202929 0.644599 0.405910
O O10 0.284603 0.648129 0.614879
#
# Coordination Sequence:
#
# PCOD8228675 Si02
#       5
#     8   8   8   8   8
#     4  11  26  47  67  94 127 166 214 267 323 383
#     4  11  26  47  67  94 127 166 214 267 323 383
#     4  11  20  39  66  98 130 171 213 264 307 376
#     4  10  21  36  65  98 133 172 217 252 311 372
#     4  11  20  39  66  98 130 171 213 264 307 376
#
# _framework density 22.774168
#
# number of rings (size 3 to 8) (size 9 to 14) (size 15 to 20)
#    0.000    1.200    2.000    6.000    2.800    0.800 
#    0.000    6.000    0.000    0.000    0.000    0.000 
#    0.000    0.000    0.000    0.000    0.000    0.000 
#
# Total GULP energy -496031.051715 kJ/mol
# GULP energy per Si atom -12400.776293 kJ/mol
# Density = 2.272233 g / cm^3
# Si number density = 22.774168 Si / 1000 Ang^3
#
#
#
# Elastic Constant Matrix: (Units=GPa)
#
#
# Indices 1 2 3 4 5 6 
#
# 1 134.1210 47.6135 53.1300 0.0000 0.0000 0.0000
# 2 47.6135 64.8827 24.7623 0.0000 0.0000 0.0000
# 3 53.1300 24.7623 124.4428 0.0000 0.0000 0.0000
# 4 0.0000 0.0000 0.0000 31.3288 0.0000 0.0000
# 5 0.0000 0.0000 0.0000 0.0000 39.8647 0.0000
# 6 0.0000 0.0000 0.0000 0.0000 0.0000 33.2480
#
#
#
# Elastic Compliance Matrix: (Units=1/GPa)
#
#
# Indices 1 2 3 4 5 6 
#
# 1 0.011293 -0.006977 -0.003433 0.000000 0.000000 0.000000
# 2 -0.006977 0.020989 -0.001198 0.000000 0.000000 0.000000
# 3 -0.003433 -0.001198 0.009740 0.000000 0.000000 0.000000
# 4 0.000000 0.000000 0.000000 0.031920 0.000000 0.000000
# 5 0.000000 0.000000 0.000000 0.000000 0.025085 0.000000
# 6 0.000000 0.000000 0.000000 0.000000 0.000000 0.030077
#
#
# Mechanical properties :
#
#
# Convention : Reuss Voigt Hill
#
# Bulk Modulus (GPa) = 53.17299 63.82867 58.50083
# Shear Modulus (GPa) = 31.52827 34.08434 32.80630
#
# Velocity S-wave (km/s) = 3.72477 3.87282 3.79952
# Velocity P-wave (km/s) = 6.47280 6.93440 6.70757
#
# Compressibility (1/GPa) = 0.01880654
#
# Stress axis : x y z
#
# Youngs Moduli (GPa) = 88.55270 47.64293 102.67034
#
# Poissons Ratio (x) = 0.33240 0.35247
# Poissons Ratio (y) = 0.61782 0.12299
# Poissons Ratio (z) = 0.30401 0.05707
#
# Static dielectric constant tensor:
#      x y z
#    x 4.258060 0.000000 0.000000 
#    y 0.000000 3.729000 0.000000 
#    z 0.000000 0.000000 4.436380 
# 
# 
# High freq. dielectric constant tensor:
#      x y z
#    x 1.910490 0.000000 0.000000 
#    y 0.000000 1.876570 0.000000 
#    z 0.000000 0.000000 1.915450 
# 
# From -- ./inp_files/2037.got.cif
#   From: 2010.03.12/outbox.cif.g09.slc.cpg/sg56_2_cif.got.tgz:2037.got - 2010.04.16 15:33:40.
