data_PCOD8228445
_publ_section_title
;
Structure prediction by ZEFSAII (Michael W. Deem and Ramdas Pophale) SiO2 
 PCOD8228445
Probable space group: P C C N
;
_chemical_formula_sum "Si O2"
_cell_formula_units_Z 64
_cell_length_a 10.656604
_cell_length_b 32.574910
_cell_length_c 8.637489
_cell_angle_alpha 90.000000
_cell_angle_beta 90.000000
_cell_angle_gamma 90.000000
_cell_volume 2998.399933
_symmetry_space_group_name_H-M "P C C N"
_symmetry_group_IT_number 56
_symmetry_cell_setting 'orthorhombic'
loop_
_space_group_symop_operation_xyz
x,y,z
1/2-x,1/2-y,z
1/2+x,-y,1/2-z
-x,1/2+y,1/2-z
-x,-y,-z
1/2+x,1/2+y,-z
1/2-x,y,1/2+z
x,1/2-y,1/2+z
loop_
_atom_site_type_symbol
_atom_site_label
_atom_site_fract_x
_atom_site_fract_y
_atom_site_fract_z
Si Si1 0.929635 0.042583 0.988903
Si Si2 0.997784 0.199186 0.898879
Si Si3 0.721781 0.206228 0.939067
Si Si4 0.473743 0.279862 0.251035
Si Si5 0.376276 0.623763 0.505923
Si Si6 0.112606 0.383127 0.476496
Si Si7 0.752750 0.427116 0.243871
Si Si8 0.371258 0.137594 0.834448
O O1 0.862481 0.051651 0.153033
O O2 0.032093 0.076614 0.940306
O O3 0.823407 0.040277 0.854840
O O4 0.000000 0.000000 0.000000
O O5 0.851798 0.194106 0.857139
O O6 0.023084 0.215981 0.069186
O O7 0.054746 0.154376 0.878720
O O8 0.064781 0.232801 0.787937
O O9 0.750000 0.250000 0.027312
O O10 0.674736 0.168850 0.048442
O O11 0.614639 0.211565 0.810028
O O12 0.374578 0.312326 0.327201
O O13 0.355933 0.590662 0.372969
O O14 0.298363 0.611060 0.658019
O O15 0.521152 0.623173 0.549032
O O16 0.108808 0.377922 0.660577
O O17 0.252400 0.384657 0.410119
#
# Coordination Sequence:
#
# PCOD8228445 Si02
#       8
#     8   8   8   8   8   8   8   8
#     4  11  25  47  71 102 135 165 216 273 333 399
#     4  10  20  38  55  84 123 166 214 262 322 378
#     4   9  19  32  53  86 124 166 210 267 319 361
#     4   9  21  36  54  83 124 164 210 270 314 378
#     4  10  20  40  65  92 134 167 217 260 317 390
#     4  11  24  43  64  88 128 170 218 267 322 401
#     4  10  22  43  71  99 125 173 207 258 331 384
#     4  10  23  41  60  92 127 171 219 261 320 386
#
# _framework density 21.344718
#
# number of rings (size 3 to 8) (size 9 to 14) (size 15 to 20)
#    0.000    2.000    1.250    1.500    5.250    7.000 
#    9.000    3.750    0.000    0.000    0.000    0.000 
#    0.000    0.000    0.000    0.000    0.000    0.000 
#
# Total GULP energy -793163.613768 kJ/mol
# GULP energy per Si atom -12393.181465 kJ/mol
# Density = 2.129614 g / cm^3
# Si number density = 21.344718 Si / 1000 Ang^3
#
#
#
# Elastic Constant Matrix: (Units=GPa)
#
#
# Indices 1 2 3 4 5 6 
#
# 1 105.9861 53.9875 23.4660 0.0000 0.0000 0.0000
# 2 53.9875 129.0299 37.2136 0.0000 0.0000 0.0000
# 3 23.4660 37.2136 58.4008 0.0000 0.0000 0.0000
# 4 0.0000 0.0000 0.0000 17.9605 0.0000 0.0000
# 5 0.0000 0.0000 0.0000 0.0000 24.2594 0.0000
# 6 0.0000 0.0000 0.0000 0.0000 0.0000 29.5989
#
#
#
# Elastic Compliance Matrix: (Units=1/GPa)
#
#
# Indices 1 2 3 4 5 6 
#
# 1 0.012182 -0.004515 -0.002018 0.000000 0.000000 0.000000
# 2 -0.004515 0.011169 -0.005303 0.000000 0.000000 0.000000
# 3 -0.002018 -0.005303 0.021313 0.000000 0.000000 0.000000
# 4 0.000000 0.000000 0.000000 0.055678 0.000000 0.000000
# 5 0.000000 0.000000 0.000000 0.000000 0.041221 0.000000
# 6 0.000000 0.000000 0.000000 0.000000 0.000000 0.033785
#
#
# Mechanical properties :
#
#
# Convention : Reuss Voigt Hill
#
# Bulk Modulus (GPa) = 47.63635 58.08344 52.85990
# Shear Modulus (GPa) = 24.27003 26.28039 25.27521
#
# Velocity S-wave (km/s) = 3.37568 3.51270 3.44487
# Velocity P-wave (km/s) = 6.12859 6.61236 6.37507
#
# Compressibility (1/GPa) = 0.02099237
#
# Stress axis : x y z
#
# Youngs Moduli (GPa) = 82.08948 89.53668 46.92055
#
# Poissons Ratio (x) = 0.40426 0.09467
# Poissons Ratio (y) = 0.37064 0.24880
# Poissons Ratio (z) = 0.16563 0.47477
#
# Static dielectric constant tensor:
#      x y z
#    x 3.912940 0.000000 0.000000 
#    y 0.000000 3.812470 0.000000 
#    z 0.000000 0.000000 3.750020 
# 
# 
# High freq. dielectric constant tensor:
#      x y z
#    x 1.836040 0.000000 0.000000 
#    y 0.000000 1.820400 0.000000 
#    z 0.000000 0.000000 1.833590 
# 
# From -- ./inp_files/2972.got.cif
#   From: 2010.03.12/outbox.cif.g09.slc.cpg/sg56_2_cif.got.tgz:2972.got - 2010.04.16 15:33:40.
