data_PCOD8228035
_publ_section_title
;
Structure prediction by ZEFSAII (Michael W. Deem and Ramdas Pophale) SiO2 
 PCOD8228035
Probable space group: P C C N
;
_chemical_formula_sum "Si O2"
_cell_formula_units_Z 52
_cell_length_a 8.055951
_cell_length_b 19.372263
_cell_length_c 17.173954
_cell_angle_alpha 90.000000
_cell_angle_beta 90.000000
_cell_angle_gamma 90.000000
_cell_volume 2680.201635
_symmetry_space_group_name_H-M "P C C N"
_symmetry_group_IT_number 56
_symmetry_cell_setting 'orthorhombic'
loop_
_space_group_symop_operation_xyz
x,y,z
1/2-x,1/2-y,z
1/2+x,-y,1/2-z
-x,1/2+y,1/2-z
-x,-y,-z
1/2+x,1/2+y,-z
1/2-x,y,1/2+z
x,1/2-y,1/2+z
loop_
_atom_site_type_symbol
_atom_site_label
_atom_site_fract_x
_atom_site_fract_y
_atom_site_fract_z
Si Si1 0.609985 0.387552 0.529557
Si Si2 0.250000 0.750000 0.511628
Si Si3 0.862423 0.478979 0.438679
Si Si4 0.438744 0.252106 0.877331
Si Si5 0.922638 0.897643 0.177919
Si Si6 0.406953 0.038503 0.153379
Si Si7 0.069625 0.396902 0.877492
O O1 0.706991 0.315522 0.542663
O O2 0.728140 0.443398 0.492160
O O3 0.546236 0.415678 0.611396
O O4 0.458308 0.380521 0.468932
O O5 0.414645 0.768020 0.561309
O O6 0.769396 0.542196 0.393088
O O7 0.000000 0.500000 0.500000
O O8 0.925269 0.429264 0.369831
O O9 0.250000 0.250000 0.914205
O O10 0.445363 0.314664 0.814656
O O11 0.470863 0.177373 0.835594
O O12 0.894833 0.931241 0.261333
O O13 0.760128 0.917781 0.129224
O O14 0.456032 0.957378 0.157705
#
# Coordination Sequence:
#
# PCOD8228035 Si02
#       7
#     8   4   8   8   8   8   8
#     4  10  20  37  61  84 116 155 199 244 296 350
#     4  10  18  38  64  86 112 160 208 242 292 364
#     4  11  21  35  61  87 114 157 207 238 290 373
#     4   9  19  35  62  87 111 155 206 246 285 368
#     4  11  20  36  59  88 117 153 200 248 308 362
#     4  11  22  36  57  89 125 153 185 264 313 348
#     4   9  19  37  60  81 113 152 203 238 292 364
#
# _framework density 19.401526
#
# number of rings (size 3 to 8) (size 9 to 14) (size 15 to 20)
#    0.000    1.846    1.538    4.615    0.000    0.000 
#    0.000    0.769   13.538    0.000    0.000    0.000 
#    0.000    0.000    0.000    0.000    0.000    0.000 
#
# Total GULP energy -644248.117521 kJ/mol
# GULP energy per Si atom -12389.386875 kJ/mol
# Density = 1.935737 g / cm^3
# Si number density = 19.401526 Si / 1000 Ang^3
#
#
#
# Elastic Constant Matrix: (Units=GPa)
#
#
# Indices 1 2 3 4 5 6 
#
# 1 107.7995 36.6770 38.7767 0.0000 0.0000 0.0000
# 2 36.6770 125.9706 43.4824 0.0000 0.0000 0.0000
# 3 38.7767 43.4824 68.6524 0.0000 0.0000 0.0000
# 4 0.0000 0.0000 0.0000 18.5721 0.0000 0.0000
# 5 0.0000 0.0000 0.0000 0.0000 9.8475 0.0000
# 6 0.0000 0.0000 0.0000 0.0000 0.0000 28.0673
#
#
#
# Elastic Compliance Matrix: (Units=1/GPa)
#
#
# Indices 1 2 3 4 5 6 
#
# 1 0.011848 -0.001458 -0.005768 0.000000 0.000000 0.000000
# 2 -0.001458 0.010339 -0.005725 0.000000 0.000000 0.000000
# 3 -0.005768 -0.005725 0.021450 0.000000 0.000000 0.000000
# 4 0.000000 0.000000 0.000000 0.053844 0.000000 0.000000
# 5 0.000000 0.000000 0.000000 0.000000 0.101549 0.000000
# 6 0.000000 0.000000 0.000000 0.000000 0.000000 0.035629
#
#
# Mechanical properties :
#
#
# Convention : Reuss Voigt Hill
#
# Bulk Modulus (GPa) = 56.38846 60.03275 58.21061
# Shear Modulus (GPa) = 18.76371 23.52980 21.14676
#
# Velocity S-wave (km/s) = 3.11324 3.48628 3.30503
# Velocity P-wave (km/s) = 6.48460 6.87132 6.68076
#
# Compressibility (1/GPa) = 0.01773412
#
# Stress axis : x y z
#
# Youngs Moduli (GPa) = 84.40575 96.72089 46.62023
#
# Poissons Ratio (x) = 0.14106 0.26891
# Poissons Ratio (y) = 0.12310 0.26688
# Poissons Ratio (z) = 0.48686 0.55369
#
# Static dielectric constant tensor:
#      x y z
#    x 4.197150 0.000000 0.000000 
#    y 0.000000 3.986320 0.000000 
#    z 0.000000 0.000000 3.511690 
# 
# 
# High freq. dielectric constant tensor:
#      x y z
#    x 1.774190 0.000000 0.000000 
#    y 0.000000 1.767430 0.000000 
#    z 0.000000 0.000000 1.708550 
# 
# From -- ./inp_files/10839.got.cif
#   From: 2010.03.12/outbox.cif.g09.slc.cpg/sg56_6_cif.got.tgz:10839.got - 2010.04.16 15:33:40.
