data_PCOD8228508
_publ_section_title
;
Structure prediction by ZEFSAII (Michael W. Deem and Ramdas Pophale) SiO2 
 PCOD8228508
Probable space group: P C C N
;
_chemical_formula_sum "Si O2"
_cell_formula_units_Z 40
_cell_length_a 8.992053
_cell_length_b 15.697627
_cell_length_c 14.935974
_cell_angle_alpha 90.000000
_cell_angle_beta 90.000000
_cell_angle_gamma 90.000000
_cell_volume 2108.270890
_symmetry_space_group_name_H-M "P C C N"
_symmetry_group_IT_number 56
_symmetry_cell_setting 'orthorhombic'
loop_
_space_group_symop_operation_xyz
x,y,z
1/2-x,1/2-y,z
1/2+x,-y,1/2-z
-x,1/2+y,1/2-z
-x,-y,-z
1/2+x,1/2+y,-z
1/2-x,y,1/2+z
x,1/2-y,1/2+z
loop_
_atom_site_type_symbol
_atom_site_label
_atom_site_fract_x
_atom_site_fract_y
_atom_site_fract_z
Si Si1 0.637043 0.624297 0.788274
Si Si2 0.435248 0.554935 0.920416
Si Si3 0.916629 0.263805 0.624506
Si Si4 0.357008 0.040866 0.896149
Si Si5 0.587267 0.897650 0.913638
O O1 0.548507 0.546273 0.836244
O O2 0.536624 0.710614 0.797877
O O3 0.655573 0.608731 0.683421
O O4 0.794954 0.630681 0.838637
O O5 0.419223 0.656003 0.945891
O O6 0.276813 0.524544 0.886646
O O7 0.500000 0.500000 0.000000
O O8 0.750000 0.250000 0.663607
O O9 0.966412 0.177282 0.576476
O O10 0.510293 0.987713 0.888973
O O11 0.338535 0.092133 0.988913
#
# Coordination Sequence:
#
# PCOD8228508 Si02
#       5
#     8   8   8   8   8
#     4  10  22  36  61  89 120 157 207 251 304 363
#     4  10  20  39  61  87 121 162 199 247 308 364
#     4  10  21  40  60  85 125 161 202 256 308 354
#     4  11  21  38  62  92 120 161 205 247 311 368
#     4  11  21  38  63  88 124 159 203 255 303 363
#
# _framework density 18.972892000000002
#
# number of rings (size 3 to 8) (size 9 to 14) (size 15 to 20)
#    1.200    0.400    4.000    1.800    0.000    0.000 
#    0.000   11.000    0.000    0.000    0.000    0.000 
#    0.000    0.000    0.000    0.000    0.000    0.000 
#
# Total GULP energy -495573.643458 kJ/mol
# GULP energy per Si atom -12389.341086 kJ/mol
# Density = 1.892971 g / cm^3
# Si number density = 18.972892 Si / 1000 Ang^3
#
#
#
# Elastic Constant Matrix: (Units=GPa)
#
#
# Indices 1 2 3 4 5 6 
#
# 1 103.3451 22.0666 24.1425 0.0000 0.0000 0.0000
# 2 22.0666 86.6928 30.0977 0.0000 0.0000 0.0000
# 3 24.1425 30.0977 95.8676 0.0000 0.0000 0.0000
# 4 0.0000 0.0000 0.0000 18.7630 0.0000 0.0000
# 5 0.0000 0.0000 0.0000 0.0000 20.0100 0.0000
# 6 0.0000 0.0000 0.0000 0.0000 0.0000 40.8360
#
#
#
# Elastic Compliance Matrix: (Units=1/GPa)
#
#
# Indices 1 2 3 4 5 6 
#
# 1 0.010577 -0.001984 -0.002041 0.000000 0.000000 0.000000
# 2 -0.001984 0.013318 -0.003682 0.000000 0.000000 0.000000
# 3 -0.002041 -0.003682 0.012101 0.000000 0.000000 0.000000
# 4 0.000000 0.000000 0.000000 0.053296 0.000000 0.000000
# 5 0.000000 0.000000 0.000000 0.000000 0.049975 0.000000
# 6 0.000000 0.000000 0.000000 0.000000 0.000000 0.024488
#
#
# Mechanical properties :
#
#
# Convention : Reuss Voigt Hill
#
# Bulk Modulus (GPa) = 48.58289 48.72435 48.65362
# Shear Modulus (GPa) = 26.87762 29.89505 28.38633
#
# Velocity S-wave (km/s) = 3.76790 3.97378 3.87221
# Velocity P-wave (km/s) = 6.67769 6.84042 6.75954
#
# Compressibility (1/GPa) = 0.02058338
#
# Stress axis : x y z
#
# Youngs Moduli (GPa) = 94.54815 75.08587 82.63889
#
# Poissons Ratio (x) = 0.14894 0.16865
# Poissons Ratio (y) = 0.18755 0.30425
# Poissons Ratio (z) = 0.19295 0.27644
#
# Static dielectric constant tensor:
#      x y z
#    x 3.669930 0.000000 0.000000 
#    y 0.000000 3.389380 0.000000 
#    z 0.000000 0.000000 3.101000 
# 
# 
# High freq. dielectric constant tensor:
#      x y z
#    x 1.759140 0.000000 0.000000 
#    y 0.000000 1.732110 0.000000 
#    z 0.000000 0.000000 1.699180 
# 
# From -- ./inp_files/10513.got.cif
#   From: 2010.03.12/outbox.cif.g09.slc.cpg/sg56_6_cif.got.tgz:10513.got - 2010.04.16 15:33:40.
