data_PCOD8228357
_publ_section_title
;
Structure prediction by ZEFSAII (Michael W. Deem and Ramdas Pophale) SiO2 
 PCOD8228357
Probable space group: P C C N
;
_chemical_formula_sum "Si O2"
_cell_formula_units_Z 48
_cell_length_a 29.044357
_cell_length_b 10.023120
_cell_length_c 8.566576
_cell_angle_alpha 90.000000
_cell_angle_beta 90.000000
_cell_angle_gamma 90.000000
_cell_volume 2493.859419
_symmetry_space_group_name_H-M "P C C N"
_symmetry_group_IT_number 56
_symmetry_cell_setting 'orthorhombic'
loop_
_space_group_symop_operation_xyz
x,y,z
1/2-x,1/2-y,z
1/2+x,-y,1/2-z
-x,1/2+y,1/2-z
-x,-y,-z
1/2+x,1/2+y,-z
1/2-x,y,1/2+z
x,1/2-y,1/2+z
loop_
_atom_site_type_symbol
_atom_site_label
_atom_site_fract_x
_atom_site_fract_y
_atom_site_fract_z
Si Si1 0.868203 0.097105 0.789365
Si Si2 0.527909 0.137368 0.334899
Si Si3 0.358072 0.879017 0.346060
Si Si4 0.961964 0.088505 0.194271
Si Si5 0.195093 0.375229 0.840335
Si Si6 0.206243 0.095846 0.707335
O O1 0.923108 0.088969 0.767870
O O2 0.849288 0.225310 0.697204
O O3 0.847658 0.965146 0.711634
O O4 0.853613 0.105299 0.969129
O O5 0.518769 0.291864 0.299566
O O6 0.525921 0.125920 0.518984
O O7 0.488053 0.047021 0.256538
O O8 0.407411 0.929626 0.282586
O O9 0.319556 0.963379 0.259338
O O10 0.184128 0.222219 0.796414
O O11 0.240405 0.423230 0.749417
O O12 0.202555 0.383854 0.023744
#
# Coordination Sequence:
#
# PCOD8228357 Si02
#       6
#     8   8   8   8   8   8
#     4  10  20  36  56  80 110 143 181 223 268 317
#     4   9  19  35  54  78 108 141 178 220 264 313
#     4  10  20  36  56  80 110 143 181 223 268 317
#     4   9  19  35  54  78 108 141 178 220 264 313
#     4  11  22  38  58  81 109 141 178 220 268 319
#     4  11  22  38  58  81 109 141 178 220 268 319
#
# _framework density 19.247274999999998
#
# number of rings (size 3 to 8) (size 9 to 14) (size 15 to 20)
#    0.000    2.000    0.000    5.000    0.000    4.000 
#    0.000    6.667    0.000    0.000    0.000    0.000 
#    0.000    0.000    0.000    0.000    0.000    0.000 
#
# Total GULP energy -595376.141955 kJ/mol
# GULP energy per Si atom -12403.669624 kJ/mol
# Density = 1.920347 g / cm^3
# Si number density = 19.247275 Si / 1000 Ang^3
#
#
#
# Elastic Constant Matrix: (Units=GPa)
#
#
# Indices 1 2 3 4 5 6 
#
# 1 38.4383 10.1498 5.4694 0.0000 0.0000 0.0000
# 2 10.1498 33.3357 5.0469 0.0000 0.0000 0.0000
# 3 5.4694 5.0469 64.2030 0.0000 0.0000 0.0000
# 4 0.0000 0.0000 0.0000 35.3594 0.0000 0.0000
# 5 0.0000 0.0000 0.0000 0.0000 21.6479 0.0000
# 6 0.0000 0.0000 0.0000 0.0000 0.0000 41.9555
#
#
#
# Elastic Compliance Matrix: (Units=1/GPa)
#
#
# Indices 1 2 3 4 5 6 
#
# 1 0.028487 -0.008406 -0.001766 0.000000 0.000000 0.000000
# 2 -0.008406 0.032840 -0.001865 0.000000 0.000000 0.000000
# 3 -0.001766 -0.001865 0.015873 0.000000 0.000000 0.000000
# 4 0.000000 0.000000 0.000000 0.028281 0.000000 0.000000
# 5 0.000000 0.000000 0.000000 0.000000 0.046194 0.000000
# 6 0.000000 0.000000 0.000000 0.000000 0.000000 0.023835
#
#
# Mechanical properties :
#
#
# Convention : Reuss Voigt Hill
#
# Bulk Modulus (GPa) = 18.82381 19.70103 19.26242
# Shear Modulus (GPa) = 23.01058 27.47997 25.24528
#
# Velocity S-wave (km/s) = 3.46139 3.78264 3.62557
# Velocity P-wave (km/s) = 5.07702 5.41625 5.24938
#
# Compressibility (1/GPa) = 0.05312421
#
# Stress axis : x y z
#
# Youngs Moduli (GPa) = 35.10420 30.45098 63.00132
#
# Poissons Ratio (x) = 0.25597 0.11126
# Poissons Ratio (y) = 0.29509 0.11752
# Poissons Ratio (z) = 0.06199 0.05680
#
# Static dielectric constant tensor:
#      x y z
#    x 3.554520 0.000000 0.000000 
#    y 0.000000 3.674530 0.000000 
#    z 0.000000 0.000000 3.541330 
# 
# 
# High freq. dielectric constant tensor:
#      x y z
#    x 1.743290 0.000000 0.000000 
#    y 0.000000 1.753150 0.000000 
#    z 0.000000 0.000000 1.757910 
# 
# From -- ./inp_files/5124.got.cif
#   From: 2010.03.12/outbox.cif.g09.slc.cpg/sg56_3_cif.got.tgz:5124.got - 2010.04.16 15:33:40.
