data_PCOD8228335
_publ_section_title
;
Structure prediction by ZEFSAII (Michael W. Deem and Ramdas Pophale) SiO2 
 PCOD8228335
Probable space group: P C C N
;
_chemical_formula_sum "Si O2"
_cell_formula_units_Z 48
_cell_length_a 11.827612
_cell_length_b 10.907560
_cell_length_c 19.875979
_cell_angle_alpha 90.000000
_cell_angle_beta 90.000000
_cell_angle_gamma 90.000000
_cell_volume 2564.207754
_symmetry_space_group_name_H-M "P C C N"
_symmetry_group_IT_number 56
_symmetry_cell_setting 'orthorhombic'
loop_
_space_group_symop_operation_xyz
x,y,z
1/2-x,1/2-y,z
1/2+x,-y,1/2-z
-x,1/2+y,1/2-z
-x,-y,-z
1/2+x,1/2+y,-z
1/2-x,y,1/2+z
x,1/2-y,1/2+z
loop_
_atom_site_type_symbol
_atom_site_label
_atom_site_fract_x
_atom_site_fract_y
_atom_site_fract_z
Si Si1 0.467187 0.139604 0.985552
Si Si2 0.250000 0.250000 0.198593
Si Si3 0.244006 0.072652 0.818558
Si Si4 0.508108 0.078228 0.846632
Si Si5 0.643098 0.175722 0.722695
Si Si6 0.470492 0.197234 0.129627
Si Si7 0.250000 0.250000 0.429338
O O1 0.526752 0.164927 0.913148
O O2 0.334250 0.171734 0.976223
O O3 0.503583 0.219063 0.050689
O O4 0.500000 0.000000 0.000000
O O5 0.272975 0.132522 0.245427
O O6 0.359508 0.273840 0.151566
O O7 0.375747 0.057390 0.834449
O O8 0.186927 0.154686 0.877877
O O9 0.180049 0.944025 0.818093
O O10 0.562792 0.147530 0.784842
O O11 0.562108 0.944760 0.857919
O O12 0.750000 0.250000 0.751026
O O13 0.578629 0.263228 0.671415
#
# Coordination Sequence:
#
# PCOD8228335 Si02
#       7
#     8   4   8   8   8   8   4
#     4   9  20  37  59  85 119 160 206 242 296 371
#     4  11  19  32  58  86 112 152 202 244 290 360
#     4  10  20  35  57  89 116 154 201 248 297 360
#     4  10  20  38  57  81 119 162 197 241 302 355
#     4  12  23  36  61  94 122 151 202 260 305 353
#     4  11  21  35  60  86 116 157 201 244 295 361
#     4   9  19  38  64  82 118 168 202 244 310 358
#
# _framework density 18.719231000000001
#
# number of rings (size 3 to 8) (size 9 to 14) (size 15 to 20)
#    0.000    1.667    5.000    0.500    0.000    0.000 
#    0.000    1.667    0.000    0.000    0.000    0.000 
#    0.000    0.000    0.000    0.000    0.000    0.000 
#
# Total GULP energy -594739.008635 kJ/mol
# GULP energy per Si atom -12390.396013 kJ/mol
# Density = 1.867663 g / cm^3
# Si number density = 18.719231 Si / 1000 Ang^3
#
#
#
# Elastic Constant Matrix: (Units=GPa)
#
#
# Indices 1 2 3 4 5 6 
#
# 1 77.6136 20.4074 43.8683 0.0000 0.0000 0.0000
# 2 20.4074 67.5026 34.4849 0.0000 0.0000 0.0000
# 3 43.8683 34.4849 151.4218 0.0000 0.0000 0.0000
# 4 0.0000 0.0000 0.0000 20.2457 0.0000 0.0000
# 5 0.0000 0.0000 0.0000 0.0000 3.9183 0.0000
# 6 0.0000 0.0000 0.0000 0.0000 0.0000 30.7643
#
#
#
# Elastic Compliance Matrix: (Units=1/GPa)
#
#
# Indices 1 2 3 4 5 6 
#
# 1 0.015852 -0.002768 -0.003962 0.000000 0.000000 0.000000
# 2 -0.002768 0.017248 -0.003126 0.000000 0.000000 0.000000
# 3 -0.003962 -0.003126 0.008464 0.000000 0.000000 0.000000
# 4 0.000000 0.000000 0.000000 0.049393 0.000000 0.000000
# 5 0.000000 0.000000 0.000000 0.000000 0.255213 0.000000
# 6 0.000000 0.000000 0.000000 0.000000 0.000000 0.032505
#
#
# Mechanical properties :
#
#
# Convention : Reuss Voigt Hill
#
# Bulk Modulus (GPa) = 45.76452 54.89550 50.33001
# Shear Modulus (GPa) = 12.32525 24.17080 18.24803
#
# Velocity S-wave (km/s) = 2.56877 3.59726 3.12561
# Velocity P-wave (km/s) = 5.77053 6.82958 6.32227
#
# Compressibility (1/GPa) = 0.02185099
#
# Stress axis : x y z
#
# Youngs Moduli (GPa) = 63.08539 57.97714 118.15004
#
# Poissons Ratio (x) = 0.16049 0.46810
# Poissons Ratio (y) = 0.17464 0.36935
# Poissons Ratio (z) = 0.24994 0.18124
#
# Static dielectric constant tensor:
#      x y z
#    x 3.283560 0.000000 0.000000 
#    y 0.000000 3.389740 0.000000 
#    z 0.000000 0.000000 3.861180 
# 
# 
# High freq. dielectric constant tensor:
#      x y z
#    x 1.709780 0.000000 0.000000 
#    y 0.000000 1.712670 0.000000 
#    z 0.000000 0.000000 1.742580 
# 
# From -- ./inp_files/15636.got.cif
#   From: 2010.03.12/outbox.cif.g09.slc.cpg/sg56_8_cif.got.tgz:15636.got - 2010.04.16 15:33:40.
