data_PCOD8228271
_publ_section_title
;
Structure prediction by ZEFSAII (Michael W. Deem and Ramdas Pophale) SiO2 
 PCOD8228271
Probable space group: P C C N
;
_chemical_formula_sum "Si O2"
_cell_formula_units_Z 64
_cell_length_a 20.620102
_cell_length_b 17.779590
_cell_length_c 8.913935
_cell_angle_alpha 90.000000
_cell_angle_beta 90.000000
_cell_angle_gamma 90.000000
_cell_volume 3267.999745
_symmetry_space_group_name_H-M "P C C N"
_symmetry_group_IT_number 56
_symmetry_cell_setting 'orthorhombic'
loop_
_space_group_symop_operation_xyz
x,y,z
1/2-x,1/2-y,z
1/2+x,-y,1/2-z
-x,1/2+y,1/2-z
-x,-y,-z
1/2+x,1/2+y,-z
1/2-x,y,1/2+z
x,1/2-y,1/2+z
loop_
_atom_site_type_symbol
_atom_site_label
_atom_site_fract_x
_atom_site_fract_y
_atom_site_fract_z
Si Si1 0.723069 0.830397 0.158789
Si Si2 0.075923 0.689096 0.512621
Si Si3 0.660970 0.042953 0.485304
Si Si4 0.252113 0.600090 0.762218
Si Si5 0.307370 0.803975 0.016277
Si Si6 0.989397 0.755609 0.263839
Si Si7 0.662266 0.621787 0.964116
Si Si8 0.900165 0.777692 0.510636
O O1 0.750000 0.750000 0.214351
O O2 0.692903 0.872292 0.299460
O O3 0.668166 0.819299 0.029430
O O4 0.780156 0.877996 0.085850
O O5 0.107827 0.607865 0.498261
O O6 0.125991 0.758507 0.507638
O O7 0.027705 0.699300 0.373154
O O8 0.037609 0.691064 0.670398
O O9 0.709944 0.046269 0.624918
O O10 0.701204 0.052293 0.332672
O O11 0.628297 0.960188 0.480212
O O12 0.307100 0.636383 0.653065
O O13 0.209229 0.660624 0.854699
O O14 0.250000 0.750000 0.065031
O O15 0.938510 0.805793 0.362164
O O16 0.946372 0.704963 0.151836
O O17 0.610403 0.687180 0.995129
#
# Coordination Sequence:
#
# PCOD8228271 Si02
#       8
#     8   8   8   8   8   8   8   8
#     4  10  20  36  64  93 116 140 189 243 296 348
#     4  11  21  34  57  82 114 151 198 246 277 332
#     4  11  22  35  52  86 127 154 178 226 296 375
#     4  10  20  32  51  82 122 150 186 229 293 346
#     4  11  19  31  57  80 109 149 204 248 293 317
#     4  10  22  37  57  85 105 148 209 243 276 315
#     4  11  22  36  60  94 117 150 180 226 313 368
#     4  10  20  40  63  83 112 144 191 260 280 326
#
# _framework density 19.583846000000001
#
# number of rings (size 3 to 8) (size 9 to 14) (size 15 to 20)
#    0.000    1.500    3.750    3.750    1.750    0.000 
#    0.000    2.500    0.000    0.750    0.000    0.000 
#    0.000    0.000    0.000    0.000    0.000    0.000 
#
# Total GULP energy -793408.697708 kJ/mol
# GULP energy per Si atom -12397.010902 kJ/mol
# Density = 1.953927 g / cm^3
# Si number density = 19.583846 Si / 1000 Ang^3
#
#
#
# Elastic Constant Matrix: (Units=GPa)
#
#
# Indices 1 2 3 4 5 6 
#
# 1 79.4852 23.0734 27.6634 0.0000 0.0000 0.0000
# 2 23.0734 94.2447 24.5122 0.0000 0.0000 0.0000
# 3 27.6634 24.5122 112.8504 0.0000 0.0000 0.0000
# 4 0.0000 0.0000 0.0000 7.9320 0.0000 0.0000
# 5 0.0000 0.0000 0.0000 0.0000 33.5586 0.0000
# 6 0.0000 0.0000 0.0000 0.0000 0.0000 13.2531
#
#
#
# Elastic Compliance Matrix: (Units=1/GPa)
#
#
# Indices 1 2 3 4 5 6 
#
# 1 0.014403 -0.002764 -0.002930 0.000000 0.000000 0.000000
# 2 -0.002764 0.011776 -0.001880 0.000000 0.000000 0.000000
# 3 -0.002930 -0.001880 0.009988 0.000000 0.000000 0.000000
# 4 0.000000 0.000000 0.000000 0.126072 0.000000 0.000000
# 5 0.000000 0.000000 0.000000 0.000000 0.029799 0.000000
# 6 0.000000 0.000000 0.000000 0.000000 0.000000 0.075454
#
#
# Mechanical properties :
#
#
# Convention : Reuss Voigt Hill
#
# Bulk Modulus (GPa) = 47.57808 48.56427 48.07118
# Shear Modulus (GPa) = 17.26234 25.03749 21.14992
#
# Velocity S-wave (km/s) = 2.97216 3.57946 3.28985
# Velocity P-wave (km/s) = 6.01046 6.47575 6.24744
#
# Compressibility (1/GPa) = 0.02101808
#
# Stress axis : x y z
#
# Youngs Moduli (GPa) = 69.42911 84.91509 100.11970
#
# Poissons Ratio (x) = 0.23471 0.29338
# Poissons Ratio (y) = 0.19191 0.18826
# Poissons Ratio (z) = 0.20345 0.15967
#
# Static dielectric constant tensor:
#      x y z
#    x 3.548290 0.000000 0.000000 
#    y 0.000000 3.596660 0.000000 
#    z 0.000000 0.000000 3.809350 
# 
# 
# High freq. dielectric constant tensor:
#      x y z
#    x 1.759370 0.000000 0.000000 
#    y 0.000000 1.722840 0.000000 
#    z 0.000000 0.000000 1.787820 
# 
# From -- ./inp_files/4219.got.cif
#   From: 2010.03.12/outbox.cif.g09.slc.cpg/sg56_3_cif.got.tgz:4219.got - 2010.04.16 15:33:40.
