data_PCOD8228678
_publ_section_title
;
Structure prediction by ZEFSAII (Michael W. Deem and Ramdas Pophale) SiO2 
 PCOD8228678
Probable space group: P C C N
;
_chemical_formula_sum "Si O2"
_cell_formula_units_Z 56
_cell_length_a 11.202440
_cell_length_b 20.379665
_cell_length_c 12.133447
_cell_angle_alpha 90.000000
_cell_angle_beta 90.000000
_cell_angle_gamma 90.000000
_cell_volume 2770.089906
_symmetry_space_group_name_H-M "P C C N"
_symmetry_group_IT_number 56
_symmetry_cell_setting 'orthorhombic'
loop_
_space_group_symop_operation_xyz
x,y,z
1/2-x,1/2-y,z
1/2+x,-y,1/2-z
-x,1/2+y,1/2-z
-x,-y,-z
1/2+x,1/2+y,-z
1/2-x,y,1/2+z
x,1/2-y,1/2+z
loop_
_atom_site_type_symbol
_atom_site_label
_atom_site_fract_x
_atom_site_fract_y
_atom_site_fract_z
Si Si1 0.169525 0.673744 0.989033
Si Si2 0.991019 0.003676 0.175254
Si Si3 0.889149 0.591332 0.500496
Si Si4 0.624698 0.582791 0.537412
Si Si5 0.934962 0.200562 0.068470
Si Si6 0.913276 0.057302 0.620447
Si Si7 0.944204 0.128067 0.294648
O O1 0.056172 0.720715 0.950916
O O2 0.303852 0.698538 0.985185
O O3 0.180544 0.615111 0.899326
O O4 0.151918 0.648106 0.113869
O O5 0.911253 0.055224 0.246780
O O6 0.908555 0.956244 0.104158
O O7 0.067046 0.955113 0.251203
O O8 0.082796 0.048448 0.106944
O O9 0.751497 0.613924 0.501788
O O10 0.971696 0.656878 0.501964
O O11 0.641842 0.506395 0.563520
O O12 0.533861 0.585312 0.435942
O O13 0.573261 0.621744 0.644286
O O14 0.945912 0.182227 0.197557
#
# Coordination Sequence:
#
# PCOD8228678 Si02
#       7
#     8   8   8   8   8   8   8
#     4  10  22  39  61  86 125 162 204 245 308 381
#     4   9  20  35  54  89 116 152 199 255 318 361
#     4  10  21  37  55  89 122 154 208 261 310 368
#     4   9  19  37  59  81 118 154 200 261 311 368
#     4  10  23  39  59  91 122 164 206 257 298 374
#     4   9  19  35  55  83 111 162 198 243 317 368
#     4   9  20  41  57  83 121 157 204 255 312 362
#
# _framework density 20.215948999999998
#
# number of rings (size 3 to 8) (size 9 to 14) (size 15 to 20)
#    0.000    2.571    0.000    0.857    6.000    8.000 
#    7.714    2.857    0.000    6.857    0.000    0.000 
#    0.000    0.000    0.000    0.000    0.000    0.000 
#
# Total GULP energy -693737.030744 kJ/mol
# GULP energy per Si atom -12388.161263 kJ/mol
# Density = 2.016994 g / cm^3
# Si number density = 20.215949 Si / 1000 Ang^3
#
#
#
# Elastic Constant Matrix: (Units=GPa)
#
#
# Indices 1 2 3 4 5 6 
#
# 1 91.0268 22.4742 13.3825 0.0000 0.0000 0.0000
# 2 22.4742 78.5514 37.4822 0.0000 0.0000 0.0000
# 3 13.3825 37.4822 100.4013 0.0000 0.0000 0.0000
# 4 0.0000 0.0000 0.0000 31.9192 0.0000 0.0000
# 5 0.0000 0.0000 0.0000 0.0000 18.1064 0.0000
# 6 0.0000 0.0000 0.0000 0.0000 0.0000 23.3081
#
#
#
# Elastic Compliance Matrix: (Units=1/GPa)
#
#
# Indices 1 2 3 4 5 6 
#
# 1 0.011833 -0.003204 -0.000381 0.000000 0.000000 0.000000
# 2 -0.003204 0.016357 -0.005680 0.000000 0.000000 0.000000
# 3 -0.000381 -0.005680 0.012131 0.000000 0.000000 0.000000
# 4 0.000000 0.000000 0.000000 0.031329 0.000000 0.000000
# 5 0.000000 0.000000 0.000000 0.000000 0.055229 0.000000
# 6 0.000000 0.000000 0.000000 0.000000 0.000000 0.042904
#
#
# Mechanical properties :
#
#
# Convention : Reuss Voigt Hill
#
# Bulk Modulus (GPa) = 45.88736 46.29525 46.09131
# Shear Modulus (GPa) = 25.56555 27.77610 26.67083
#
# Velocity S-wave (km/s) = 3.56001 3.71073 3.63615
# Velocity P-wave (km/s) = 6.29652 6.42724 6.36222
#
# Compressibility (1/GPa) = 0.02179249
#
# Stress axis : x y z
#
# Youngs Moduli (GPa) = 84.51114 61.13531 82.43240
#
# Poissons Ratio (x) = 0.19585 0.03143
# Poissons Ratio (y) = 0.27073 0.46818
# Poissons Ratio (z) = 0.03222 0.34722
#
# Static dielectric constant tensor:
#      x y z
#    x 3.377660 0.000000 0.000000 
#    y 0.000000 3.921680 0.000000 
#    z 0.000000 0.000000 3.744100 
# 
# 
# High freq. dielectric constant tensor:
#      x y z
#    x 1.765170 0.000000 0.000000 
#    y 0.000000 1.788970 0.000000 
#    z 0.000000 0.000000 1.791710 
# 
# From -- ./inp_files/7265.got.cif
#   From: 2010.03.12/outbox.cif.g09.slc.cpg/sg56_4_cif.got.tgz:7265.got - 2010.04.16 15:33:40.
