data_PCOD8228541
_publ_section_title
;
Structure prediction by ZEFSAII (Michael W. Deem and Ramdas Pophale) SiO2 
 PCOD8228541
Probable space group: P C C N
;
_chemical_formula_sum "Si O2"
_cell_formula_units_Z 44
_cell_length_a 8.255864
_cell_length_b 25.605822
_cell_length_c 9.176010
_cell_angle_alpha 90.000000
_cell_angle_beta 90.000000
_cell_angle_gamma 90.000000
_cell_volume 1939.791851
_symmetry_space_group_name_H-M "P C C N"
_symmetry_group_IT_number 56
_symmetry_cell_setting 'orthorhombic'
loop_
_space_group_symop_operation_xyz
x,y,z
1/2-x,1/2-y,z
1/2+x,-y,1/2-z
-x,1/2+y,1/2-z
-x,-y,-z
1/2+x,1/2+y,-z
1/2-x,y,1/2+z
x,1/2-y,1/2+z
loop_
_atom_site_type_symbol
_atom_site_label
_atom_site_fract_x
_atom_site_fract_y
_atom_site_fract_z
Si Si1 0.855688 0.511462 0.391983
Si Si2 0.682914 0.329573 0.086533
Si Si3 0.416799 0.451457 0.427609
Si Si4 0.205931 0.898383 0.646884
Si Si5 0.750000 0.750000 0.644917
Si Si6 0.478357 0.271566 0.604923
O O1 0.902360 0.540640 0.245469
O O2 0.749321 0.553633 0.483849
O O3 0.775526 0.456778 0.344070
O O4 0.000000 0.500000 0.500000
O O5 0.663941 0.378405 0.193149
O O6 0.858792 0.304245 0.108703
O O7 0.534676 0.289430 0.103170
O O8 0.675958 0.355808 0.926746
O O9 0.500000 0.500000 0.500000
O O10 0.536065 0.401553 0.445226
O O11 0.631382 0.783336 0.751776
O O12 0.631110 0.716310 0.538877
#
# Coordination Sequence:
#
# PCOD8228541 Si02
#       6
#     8   8   8   8   4   8
#     4  11  21  39  62  85 121 163 201 252 320 372
#     4  11  22  40  63  90 121 163 214 246 301 378
#     4  10  21  38  58  84 116 155 201 252 313 363
#     4  11  22  38  61  88 117 155 207 255 287 365
#     4  10  20  40  62  86 116 158 202 242 316 368
#     4  10  22  40  64  89 124 165 195 252 314 367
#
# _framework density 22.682846999999999
#
# number of rings (size 3 to 8) (size 9 to 14) (size 15 to 20)
#    0.000    1.455    0.000    7.636    0.000    2.909 
#    0.000   18.182    0.000    0.000    0.000    0.000 
#    0.000    0.000    0.000    0.000    0.000    0.000 
#
# Total GULP energy -545108.451988 kJ/mol
# GULP energy per Si atom -12388.828454 kJ/mol
# Density = 2.263122 g / cm^3
# Si number density = 22.682847 Si / 1000 Ang^3
#
#
#
# Elastic Constant Matrix: (Units=GPa)
#
#
# Indices 1 2 3 4 5 6 
#
# 1 94.9774 6.9096 21.8648 0.0000 0.0000 0.0000
# 2 6.9096 62.3590 2.3127 0.0000 0.0000 0.0000
# 3 21.8648 2.3127 128.4141 0.0000 0.0000 0.0000
# 4 0.0000 0.0000 0.0000 27.3300 0.0000 0.0000
# 5 0.0000 0.0000 0.0000 0.0000 45.3059 0.0000
# 6 0.0000 0.0000 0.0000 0.0000 0.0000 28.6151
#
#
#
# Elastic Compliance Matrix: (Units=1/GPa)
#
#
# Indices 1 2 3 4 5 6 
#
# 1 0.011041 -0.001154 -0.001859 0.000000 0.000000 0.000000
# 2 -0.001154 0.016168 -0.000095 0.000000 0.000000 0.000000
# 3 -0.001859 -0.000095 0.008106 0.000000 0.000000 0.000000
# 4 0.000000 0.000000 0.000000 0.036590 0.000000 0.000000
# 5 0.000000 0.000000 0.000000 0.000000 0.022072 0.000000
# 6 0.000000 0.000000 0.000000 0.000000 0.000000 0.034947
#
#
# Mechanical properties :
#
#
# Convention : Reuss Voigt Hill
#
# Bulk Modulus (GPa) = 34.36700 38.65831 36.51266
# Shear Modulus (GPa) = 34.52134 37.22776 35.87455
#
# Velocity S-wave (km/s) = 3.90540 4.05560 3.98121
# Velocity P-wave (km/s) = 5.95988 6.24584 6.10454
#
# Compressibility (1/GPa) = 0.02909768
#
# Stress axis : x y z
#
# Youngs Moduli (GPa) = 90.57323 61.85211 123.37216
#
# Poissons Ratio (x) = 0.07140 0.22936
# Poissons Ratio (y) = 0.10456 0.01167
# Poissons Ratio (z) = 0.16838 0.00585
#
# Static dielectric constant tensor:
#      x y z
#    x 4.831180 0.000000 0.000000 
#    y 0.000000 4.042820 0.000000 
#    z 0.000000 0.000000 4.510020 
# 
# 
# High freq. dielectric constant tensor:
#      x y z
#    x 1.910190 0.000000 0.000000 
#    y 0.000000 1.863020 0.000000 
#    z 0.000000 0.000000 1.911680 
# 
# From -- ./inp_files/2190.got.cif
#   From: 2010.03.12/outbox.cif.g09.slc.cpg/sg56_2_cif.got.tgz:2190.got - 2010.04.16 15:33:40.
