data_PCOD8228632
_publ_section_title
;
Structure prediction by ZEFSAII (Michael W. Deem and Ramdas Pophale) SiO2 
 PCOD8228632
Probable space group: P C C N
;
_chemical_formula_sum "Si O2"
_cell_formula_units_Z 48
_cell_length_a 17.045028
_cell_length_b 5.365156
_cell_length_c 23.411569
_cell_angle_alpha 90.000000
_cell_angle_beta 90.000000
_cell_angle_gamma 90.000000
_cell_volume 2140.970058
_symmetry_space_group_name_H-M "P C C N"
_symmetry_group_IT_number 56
_symmetry_cell_setting 'orthorhombic'
loop_
_space_group_symop_operation_xyz
x,y,z
1/2-x,1/2-y,z
1/2+x,-y,1/2-z
-x,1/2+y,1/2-z
-x,-y,-z
1/2+x,1/2+y,-z
1/2-x,y,1/2+z
x,1/2-y,1/2+z
loop_
_atom_site_type_symbol
_atom_site_label
_atom_site_fract_x
_atom_site_fract_y
_atom_site_fract_z
Si Si1 0.061173 0.500000 0.947675
Si Si2 0.666157 0.000000 0.841401
Si Si3 0.598281 0.500000 0.231256
Si Si4 0.093179 0.000000 0.988732
Si Si5 0.955013 0.500000 0.181060
Si Si6 0.659098 0.500000 0.888136
O O1 0.020682 0.500000 0.885543
O O2 0.114368 0.749568 0.953356
O O3 0.000000 0.500000 0.000000
O O4 0.114368 0.250432 0.953356
O O5 0.675739 0.000000 0.772077
O O6 0.619687 0.251439 0.861102
O O7 0.619687 0.748561 0.861102
O O8 0.749254 0.000000 0.872877
O O9 0.595548 0.749573 0.193395
O O10 0.531666 0.500000 0.280403
O O11 0.595548 0.250427 0.193394
O O12 0.145950 0.000000 0.044813
O O13 0.000000 0.000000 0.000000
#
# Coordination Sequence:
#
# PCOD8228632 Si02
#       6
#     8   8   8   8   8   8
#     4  10  21  35  53  85 118 168 187 235 302 370
#     4  10  21  36  59  83 116 158 196 262 298 343
#     4  10  21  35  57  82 118 160 186 257 300 358
#     4  10  21  32  53  86 119 162 190 247 314 350
#     4  10  21  36  53  86 123 151 199 232 310 371
#     4  10  21  36  55  90 118 151 208 259 292 362
#
# _framework density 22.419744000000001
#
# number of rings (size 3 to 8) (size 9 to 14) (size 15 to 20)
#    0.000    2.000    0.000    3.000    9.333    0.000 
#    0.000    0.000    0.000    0.000    0.000   93.333 
#    0.000    0.000    0.000    0.000    0.000    0.000 
#
# Total GULP energy -594650.885686 kJ/mol
# GULP energy per Si atom -12388.560118 kJ/mol
# Density = 2.236872 g / cm^3
# Si number density = 22.419744 Si / 1000 Ang^3
#
#
#
# Elastic Constant Matrix: (Units=GPa)
#
#
# Indices 1 2 3 4 5 6 
#
# 1 41.4721 8.9906 26.3794 0.0000 0.0000 0.0000
# 2 8.9906 273.0147 64.1315 0.0000 0.0000 0.0000
# 3 26.3794 64.1315 159.4522 0.0000 0.0000 0.0000
# 4 0.0000 0.0000 0.0000 44.3789 0.0000 0.0000
# 5 0.0000 0.0000 0.0000 0.0000 28.3072 0.0000
# 6 0.0000 0.0000 0.0000 0.0000 0.0000 7.9312
#
#
#
# Elastic Compliance Matrix: (Units=1/GPa)
#
#
# Indices 1 2 3 4 5 6 
#
# 1 0.026956 0.000177 -0.004531 0.000000 0.000000 0.000000
# 2 0.000177 0.004046 -0.001657 0.000000 0.000000 0.000000
# 3 -0.004531 -0.001657 0.007687 0.000000 0.000000 0.000000
# 4 0.000000 0.000000 0.000000 0.022533 0.000000 0.000000
# 5 0.000000 0.000000 0.000000 0.000000 0.035327 0.000000
# 6 0.000000 0.000000 0.000000 0.000000 0.000000 0.126085
#
#
# Mechanical properties :
#
#
# Convention : Reuss Voigt Hill
#
# Bulk Modulus (GPa) = 37.49765 74.77134 56.13449
# Shear Modulus (GPa) = 20.53012 41.08597 30.80805
#
# Velocity S-wave (km/s) = 3.02936 4.28551 3.71097
# Velocity P-wave (km/s) = 5.38495 7.60990 6.59197
#
# Compressibility (1/GPa) = 0.02666834
#
# Stress axis : x y z
#
# Youngs Moduli (GPa) = 37.09737 247.15044 130.08532
#
# Poissons Ratio (x) = -0.04363 0.58936
# Poissons Ratio (y) = -0.00655 0.21549
# Poissons Ratio (z) = 0.16807 0.40942
#
# Static dielectric constant tensor:
#      x y z
#    x 3.382250 0.000000 0.000000 
#    y 0.000000 8.029230 0.000000 
#    z 0.000000 0.000000 4.055500 
# 
# 
# High freq. dielectric constant tensor:
#      x y z
#    x 1.806660 0.000000 0.000000 
#    y 0.000000 1.935420 0.000000 
#    z 0.000000 0.000000 1.878800 
# 
# From -- ./inp_files/19430.got.cif
#   From: 2010.03.12/outbox.cif.g09.slc.cpg/sg56_10_cif.got.tgz:19430.got - 2010.04.16 15:33:40.
