data_PCOD8228773
_publ_section_title
;
Structure prediction by ZEFSAII (Michael W. Deem and Ramdas Pophale) SiO2 
 PCOD8228773
Probable space group: P C C N
;
_chemical_formula_sum "Si O2"
_cell_formula_units_Z 32
_cell_length_a 4.956982
_cell_length_b 12.958857
_cell_length_c 20.792390
_cell_angle_alpha 90.000000
_cell_angle_beta 90.000000
_cell_angle_gamma 90.000000
_cell_volume 1335.637032
_symmetry_space_group_name_H-M "P C C N"
_symmetry_group_IT_number 56
_symmetry_cell_setting 'orthorhombic'
loop_
_space_group_symop_operation_xyz
x,y,z
1/2-x,1/2-y,z
1/2+x,-y,1/2-z
-x,1/2+y,1/2-z
-x,-y,-z
1/2+x,1/2+y,-z
1/2-x,y,1/2+z
x,1/2-y,1/2+z
loop_
_atom_site_type_symbol
_atom_site_label
_atom_site_fract_x
_atom_site_fract_y
_atom_site_fract_z
Si Si1 0.737780 0.130934 0.482606
Si Si2 0.984390 0.180415 0.118099
Si Si3 0.888573 0.496203 0.709497
Si Si4 0.253522 0.126872 0.906837
O O1 0.750000 0.250000 0.463749
O O2 0.654116 0.122538 0.557138
O O3 0.511918 0.078449 0.438853
O O4 0.020770 0.084018 0.457346
O O5 0.250000 0.250000 0.100115
O O6 0.750000 0.250000 0.148338
O O7 0.044015 0.095081 0.171457
O O8 0.639492 0.452447 0.752255
O O9 0.735614 0.579475 0.664339
O O10 0.250000 0.250000 0.900836
#
# Coordination Sequence:
#
# PCOD8228773 Si02
#       4
#     8   8   8   8
#     4   9  18  36  64  95 123 156 205 264 335 399
#     4  11  23  42  67  95 131 170 213 275 337 389
#     4  12  27  43  61  92 131 177 231 265 306 392
#     4  10  21  39  64  92 125 162 207 270 330 382
#
# _framework density 23.958603
#
# number of rings (size 3 to 8) (size 9 to 14) (size 15 to 20)
#    0.000    1.500    0.000    6.750    0.000    5.000 
#    0.000    0.000    0.000    4.500    0.000    0.000 
#    0.000    0.000    0.000    0.000    0.000    0.000 
#
# Total GULP energy -396444.420389 kJ/mol
# GULP energy per Si atom -12388.888137 kJ/mol
# Density = 2.390407 g / cm^3
# Si number density = 23.958603 Si / 1000 Ang^3
#
#
#
# Elastic Constant Matrix: (Units=GPa)
#
#
# Indices 1 2 3 4 5 6 
#
# 1 131.1308 16.5976 58.3222 0.0000 0.0000 0.0000
# 2 16.5976 52.7530 43.2483 0.0000 0.0000 0.0000
# 3 58.3222 43.2483 134.7720 0.0000 0.0000 0.0000
# 4 0.0000 0.0000 0.0000 30.9440 0.0000 0.0000
# 5 0.0000 0.0000 0.0000 0.0000 45.2742 0.0000
# 6 0.0000 0.0000 0.0000 0.0000 0.0000 15.1190
#
#
#
# Elastic Compliance Matrix: (Units=1/GPa)
#
#
# Indices 1 2 3 4 5 6 
#
# 1 0.009454 0.000515 -0.004256 0.000000 0.000000 0.000000
# 2 0.000515 0.025752 -0.008487 0.000000 0.000000 0.000000
# 3 -0.004256 -0.008487 0.011985 0.000000 0.000000 0.000000
# 4 0.000000 0.000000 0.000000 0.032316 0.000000 0.000000
# 5 0.000000 0.000000 0.000000 0.000000 0.022088 0.000000
# 6 0.000000 0.000000 0.000000 0.000000 0.000000 0.066142
#
#
# Mechanical properties :
#
#
# Convention : Reuss Voigt Hill
#
# Bulk Modulus (GPa) = 43.98513 61.66577 52.82545
# Shear Modulus (GPa) = 25.02863 31.63330 28.33097
#
# Velocity S-wave (km/s) = 3.23563 3.63758 3.44248
# Velocity P-wave (km/s) = 5.68838 6.59067 6.15608
#
# Compressibility (1/GPa) = 0.02273495
#
# Stress axis : x y z
#
# Youngs Moduli (GPa) = 105.77659 38.83222 83.43580
#
# Poissons Ratio (x) = -0.02000 0.35514
# Poissons Ratio (y) = -0.05448 0.70809
# Poissons Ratio (z) = 0.45023 0.32956
#
# Static dielectric constant tensor:
#      x y z
#    x 4.732160 0.000000 0.000000 
#    y 0.000000 4.065630 0.000000 
#    z 0.000000 0.000000 4.211650 
# 
# 
# High freq. dielectric constant tensor:
#      x y z
#    x 1.967210 0.000000 0.000000 
#    y 0.000000 1.939150 0.000000 
#    z 0.000000 0.000000 1.947090 
# 
# From -- ./inp_files/13690.got.cif
#   From: 2010.03.12/outbox.cif.g09.slc.cpg/sg56_7_cif.got.tgz:13690.got - 2010.04.16 15:33:40.
