data_PCOD8228573
_publ_section_title
;
Structure prediction by ZEFSAII (Michael W. Deem and Ramdas Pophale) SiO2 
 PCOD8228573
Probable space group: P C C N
;
_chemical_formula_sum "Si O2"
_cell_formula_units_Z 44
_cell_length_a 10.042584
_cell_length_b 11.645014
_cell_length_c 17.694842
_cell_angle_alpha 90.000000
_cell_angle_beta 90.000000
_cell_angle_gamma 90.000000
_cell_volume 2069.341546
_symmetry_space_group_name_H-M "P C C N"
_symmetry_group_IT_number 56
_symmetry_cell_setting 'orthorhombic'
loop_
_space_group_symop_operation_xyz
x,y,z
1/2-x,1/2-y,z
1/2+x,-y,1/2-z
-x,1/2+y,1/2-z
-x,-y,-z
1/2+x,1/2+y,-z
1/2-x,y,1/2+z
x,1/2-y,1/2+z
loop_
_atom_site_type_symbol
_atom_site_label
_atom_site_fract_x
_atom_site_fract_y
_atom_site_fract_z
Si Si1 0.750000 0.250000 0.064159
Si Si2 0.234703 0.377531 0.134729
Si Si3 0.533088 0.698602 0.165449
Si Si4 0.696526 0.591704 0.697876
Si Si5 0.439622 0.641505 0.324123
Si Si6 0.618557 0.067866 0.460191
O O1 0.880502 0.269992 0.115428
O O2 0.784645 0.136776 0.016134
O O3 0.250000 0.250000 0.098834
O O4 0.316766 0.377417 0.213328
O O5 0.290935 0.473299 0.079822
O O6 0.080856 0.406516 0.148342
O O7 0.652093 0.606382 0.170704
O O8 0.596278 0.824534 0.152335
O O9 0.448350 0.701658 0.242623
O O10 0.438076 0.663438 0.097103
O O11 0.663417 0.461898 0.681551
O O12 0.500000 0.000000 0.500000
#
# Coordination Sequence:
#
# PCOD8228573 Si02
#       6
#     4   8   8   8   8   8
#     4  12  30  46  62 104 134 184 234 268 348 420
#     4  11  22  43  69 101 132 178 223 280 341 406
#     4  10  22  42  71  98 131 174 225 282 331 410
#     4  10  20  40  70 104 123 169 236 272 340 390
#     4  11  23  43  71  92 133 175 229 284 321 403
#     4  12  27  47  66 101 146 176 220 282 354 405
#
# _framework density 21.262802000000001
#
# number of rings (size 3 to 8) (size 9 to 14) (size 15 to 20)
#    0.000    1.091    5.455    2.182    2.545    4.364 
#   13.091    0.000    0.000    0.000    0.000    0.000 
#    0.000    0.000    0.000    0.000    0.000    0.000 
#
# Total GULP energy -545780.858261 kJ/mol
# GULP energy per Si atom -12404.110415 kJ/mol
# Density = 2.121441 g / cm^3
# Si number density = 21.262802 Si / 1000 Ang^3
#
#
#
# Elastic Constant Matrix: (Units=GPa)
#
#
# Indices 1 2 3 4 5 6 
#
# 1 71.2055 16.8211 41.5613 0.0000 0.0000 0.0000
# 2 16.8211 81.5754 25.6406 0.0000 0.0000 0.0000
# 3 41.5613 25.6406 98.1143 0.0000 0.0000 0.0000
# 4 0.0000 0.0000 0.0000 37.6137 0.0000 0.0000
# 5 0.0000 0.0000 0.0000 0.0000 33.1612 0.0000
# 6 0.0000 0.0000 0.0000 0.0000 0.0000 37.9586
#
#
#
# Elastic Compliance Matrix: (Units=1/GPa)
#
#
# Indices 1 2 3 4 5 6 
#
# 1 0.018823 -0.001498 -0.007582 0.000000 0.000000 0.000000
# 2 -0.001498 0.013475 -0.002887 0.000000 0.000000 0.000000
# 3 -0.007582 -0.002887 0.014158 0.000000 0.000000 0.000000
# 4 0.000000 0.000000 0.000000 0.026586 0.000000 0.000000
# 5 0.000000 0.000000 0.000000 0.000000 0.030156 0.000000
# 6 0.000000 0.000000 0.000000 0.000000 0.000000 0.026345
#
#
# Mechanical properties :
#
#
# Convention : Reuss Voigt Hill
#
# Bulk Modulus (GPa) = 44.40019 46.54903 45.47461
# Shear Modulus (GPa) = 31.05889 32.87149 31.96519
#
# Velocity S-wave (km/s) = 3.82608 3.93614 3.88150
# Velocity P-wave (km/s) = 6.35967 6.52666 6.44371
#
# Compressibility (1/GPa) = 0.02252243
#
# Stress axis : x y z
#
# Youngs Moduli (GPa) = 53.12566 74.21203 70.62963
#
# Poissons Ratio (x) = 0.11119 0.53552
# Poissons Ratio (y) = 0.07960 0.20389
# Poissons Ratio (z) = 0.40280 0.21423
#
# Static dielectric constant tensor:
#      x y z
#    x 3.872540 0.000000 0.000000 
#    y 0.000000 3.807920 0.000000 
#    z 0.000000 0.000000 3.849720 
# 
# 
# High freq. dielectric constant tensor:
#      x y z
#    x 1.840850 0.000000 0.000000 
#    y 0.000000 1.838630 0.000000 
#    z 0.000000 0.000000 1.825580 
# 
# From -- ./inp_files/15542.got.cif
#   From: 2010.03.12/outbox.cif.g09.slc.cpg/sg56_8_cif.got.tgz:15542.got - 2010.04.16 15:33:40.
