data_PCOD8228234
_publ_section_title
;
Structure prediction by ZEFSAII (Michael W. Deem and Ramdas Pophale) SiO2 
 PCOD8228234
Probable space group: P C C N
;
_chemical_formula_sum "Si O2"
_cell_formula_units_Z 60
_cell_length_a 19.300791
_cell_length_b 14.606255
_cell_length_c 9.263616
_cell_angle_alpha 90.000000
_cell_angle_beta 90.000000
_cell_angle_gamma 90.000000
_cell_volume 2611.527062
_symmetry_space_group_name_H-M "P C C N"
_symmetry_group_IT_number 56
_symmetry_cell_setting 'orthorhombic'
loop_
_space_group_symop_operation_xyz
x,y,z
1/2-x,1/2-y,z
1/2+x,-y,1/2-z
-x,1/2+y,1/2-z
-x,-y,-z
1/2+x,1/2+y,-z
1/2-x,y,1/2+z
x,1/2-y,1/2+z
loop_
_atom_site_type_symbol
_atom_site_label
_atom_site_fract_x
_atom_site_fract_y
_atom_site_fract_z
Si Si1 0.430892 0.193745 0.435665
Si Si2 0.218909 0.347129 0.356003
Si Si3 0.014732 0.350428 0.751900
Si Si4 0.977035 0.043712 0.850687
Si Si5 0.860307 0.114656 0.276528
Si Si6 0.750000 0.250000 0.371078
Si Si7 0.786514 0.537300 0.916598
Si Si8 0.335239 0.588079 0.038819
O O1 0.350358 0.166047 0.452828
O O2 0.466591 0.186827 0.592430
O O3 0.439892 0.296452 0.371268
O O4 0.467729 0.124689 0.319626
O O5 0.250000 0.250000 0.320051
O O6 0.277845 0.410580 0.431174
O O7 0.198051 0.387340 0.202660
O O8 0.026235 0.460833 0.765711
O O9 0.933769 0.334426 0.789141
O O10 0.902653 0.092052 0.861131
O O11 0.000000 0.000000 0.000000
O O12 0.800030 0.189872 0.271324
O O13 0.846898 0.040830 0.406849
O O14 0.855477 0.059021 0.124844
O O15 0.798565 0.313332 0.470303
O O16 0.713624 0.486996 0.887526
#
# Coordination Sequence:
#
# PCOD8228234 Si02
#       8
#     8   8   8   8   8   4   8   8
#     4  11  25  45  70 101 139 184 237 290 360 418
#     4  12  27  44  68 100 138 180 235 295 349 419
#     4  11  24  43  72 101 134 184 235 292 346 431
#     4  10  19  39  68  90 127 182 221 274 344 417
#     4  11  21  41  67  97 139 177 234 280 349 421
#     4  10  24  34  64  98 138 180 222 288 348 416
#     4  11  24  43  67  99 134 182 228 286 349 412
#     4  11  20  40  63  96 133 176 229 278 344 418
#
# _framework density 22.975064
#
# number of rings (size 3 to 8) (size 9 to 14) (size 15 to 20)
#    0.000    1.067    4.000    4.000    5.600    0.000 
#    0.000    2.000    0.000    0.000    0.000    0.000 
#    0.000    0.000    0.000    0.000    0.000    0.000 
#
# Total GULP energy -743688.304126 kJ/mol
# GULP energy per Si atom -12394.805069 kJ/mol
# Density = 2.292277 g / cm^3
# Si number density = 22.975064 Si / 1000 Ang^3
#
#
#
# Elastic Constant Matrix: (Units=GPa)
#
#
# Indices 1 2 3 4 5 6 
#
# 1 75.2241 11.9369 -0.4489 0.0000 0.0000 0.0000
# 2 11.9369 96.4880 4.8563 0.0000 0.0000 0.0000
# 3 -0.4489 4.8563 42.1465 0.0000 0.0000 0.0000
# 4 0.0000 0.0000 0.0000 28.7191 0.0000 0.0000
# 5 0.0000 0.0000 0.0000 0.0000 25.9857 0.0000
# 6 0.0000 0.0000 0.0000 0.0000 0.0000 35.7553
#
#
#
# Elastic Compliance Matrix: (Units=1/GPa)
#
#
# Indices 1 2 3 4 5 6 
#
# 1 0.013565 -0.001695 0.000340 0.000000 0.000000 0.000000
# 2 -0.001695 0.010636 -0.001244 0.000000 0.000000 0.000000
# 3 0.000340 -0.001244 0.023874 0.000000 0.000000 0.000000
# 4 0.000000 0.000000 0.000000 0.034820 0.000000 0.000000
# 5 0.000000 0.000000 0.000000 0.000000 0.038483 0.000000
# 6 0.000000 0.000000 0.000000 0.000000 0.000000 0.027968
#
#
# Mechanical properties :
#
#
# Convention : Reuss Voigt Hill
#
# Bulk Modulus (GPa) = 23.32279 27.39415 25.35847
# Shear Modulus (GPa) = 29.61462 31.25964 30.43713
#
# Velocity S-wave (km/s) = 3.59415 3.69262 3.64371
# Velocity P-wave (km/s) = 5.23424 5.48907 5.36317
#
# Compressibility (1/GPa) = 0.04287652
#
# Stress axis : x y z
#
# Youngs Moduli (GPa) = 73.72100 94.01765 41.88716
#
# Poissons Ratio (x) = 0.15938 -0.01423
# Poissons Ratio (y) = 0.12498 0.05209
# Poissons Ratio (z) = -0.02505 0.11692
#
# Static dielectric constant tensor:
#      x y z
#    x 4.248370 0.000000 0.000000 
#    y 0.000000 4.727570 0.000000 
#    z 0.000000 0.000000 3.674880 
# 
# 
# High freq. dielectric constant tensor:
#      x y z
#    x 1.912000 0.000000 0.000000 
#    y 0.000000 1.923470 0.000000 
#    z 0.000000 0.000000 1.862700 
# 
# From -- ./inp_files/8401.got.cif
#   From: 2010.03.12/outbox.cif.g09.slc.cpg/sg56_5_cif.got.tgz:8401.got - 2010.04.16 15:33:40.
