data_PCOD8228611
_publ_section_title
;
Structure prediction by ZEFSAII (Michael W. Deem and Ramdas Pophale) SiO2 
 PCOD8228611
Probable space group: P C C N
;
_chemical_formula_sum "Si O2"
_cell_formula_units_Z 40
_cell_length_a 10.383198
_cell_length_b 9.499037
_cell_length_c 20.077581
_cell_angle_alpha 90.000000
_cell_angle_beta 90.000000
_cell_angle_gamma 90.000000
_cell_volume 1980.259483
_symmetry_space_group_name_H-M "P C C N"
_symmetry_group_IT_number 56
_symmetry_cell_setting 'orthorhombic'
loop_
_space_group_symop_operation_xyz
x,y,z
1/2-x,1/2-y,z
1/2+x,-y,1/2-z
-x,1/2+y,1/2-z
-x,-y,-z
1/2+x,1/2+y,-z
1/2-x,y,1/2+z
x,1/2-y,1/2+z
loop_
_atom_site_type_symbol
_atom_site_label
_atom_site_fract_x
_atom_site_fract_y
_atom_site_fract_z
Si Si1 0.121795 0.835249 0.433226
Si Si2 0.988057 0.004089 0.325841
Si Si3 0.876062 0.838599 0.908770
Si Si4 0.719645 0.410084 0.429069
Si Si5 0.605496 0.738938 0.759444
O O1 0.250000 0.750000 0.415473
O O2 0.101079 0.945182 0.373297
O O3 0.140159 0.919128 0.502243
O O4 0.002234 0.727829 0.442930
O O5 0.958128 0.892998 0.267034
O O6 0.024763 0.152998 0.294849
O O7 0.860562 0.018496 0.370058
O O8 0.750000 0.750000 0.929062
O O9 0.897340 0.841447 0.829577
O O10 0.851730 0.998713 0.934198
O O11 0.750000 0.250000 0.410884
O O12 0.750000 0.750000 0.731882
#
# Coordination Sequence:
#
# PCOD8228611 Si02
#       5
#     8   8   8   8   8
#     4  10  23  42  65  97 130 165 213 272 318 369
#     4  11  23  41  64  94 127 165 215 265 313 383
#     4  10  20  43  66  85 133 173 201 259 323 375
#     4  11  23  41  68  94 125 172 218 251 328 387
#     4  10  22  40  60  90 127 166 207 260 322 370
#
# _framework density 20.199373000000001
#
# number of rings (size 3 to 8) (size 9 to 14) (size 15 to 20)
#    0.000    1.600    6.000    0.600    2.800    6.400 
#    3.600    0.000    0.000    0.000    0.000    0.000 
#    0.000    0.000    0.000    0.000    0.000    0.000 
#
# Total GULP energy -496019.348247 kJ/mol
# GULP energy per Si atom -12400.483706 kJ/mol
# Density = 2.015340 g / cm^3
# Si number density = 20.199373 Si / 1000 Ang^3
#
#
#
# Elastic Constant Matrix: (Units=GPa)
#
#
# Indices 1 2 3 4 5 6 
#
# 1 96.6628 28.6269 27.6725 0.0000 0.0000 0.0000
# 2 28.6269 106.6513 33.4792 0.0000 0.0000 0.0000
# 3 27.6725 33.4792 61.9028 0.0000 0.0000 0.0000
# 4 0.0000 0.0000 0.0000 25.4719 0.0000 0.0000
# 5 0.0000 0.0000 0.0000 0.0000 8.6668 0.0000
# 6 0.0000 0.0000 0.0000 0.0000 0.0000 37.8686
#
#
#
# Elastic Compliance Matrix: (Units=1/GPa)
#
#
# Indices 1 2 3 4 5 6 
#
# 1 0.012168 -0.001877 -0.004424 0.000000 0.000000 0.000000
# 2 -0.001877 0.011583 -0.005426 0.000000 0.000000 0.000000
# 3 -0.004424 -0.005426 0.021066 0.000000 0.000000 0.000000
# 4 0.000000 0.000000 0.000000 0.039259 0.000000 0.000000
# 5 0.000000 0.000000 0.000000 0.000000 0.115383 0.000000
# 6 0.000000 0.000000 0.000000 0.000000 0.000000 0.026407
#
#
# Mechanical properties :
#
#
# Convention : Reuss Voigt Hill
#
# Bulk Modulus (GPa) = 46.80811 49.41932 48.11372
# Shear Modulus (GPa) = 19.49767 26.09736 22.79751
#
# Velocity S-wave (km/s) = 3.11024 3.59832 3.36315
# Velocity P-wave (km/s) = 6.01011 6.46396 6.24116
#
# Compressibility (1/GPa) = 0.02136382
#
# Stress axis : x y z
#
# Youngs Moduli (GPa) = 82.18480 86.33076 47.46904
#
# Poissons Ratio (x) = 0.16206 0.21001
# Poissons Ratio (y) = 0.15428 0.25754
# Poissons Ratio (z) = 0.36359 0.46839
#
# Static dielectric constant tensor:
#      x y z
#    x 3.701000 0.000000 0.000000 
#    y 0.000000 3.746580 0.000000 
#    z 0.000000 0.000000 3.477960 
# 
# 
# High freq. dielectric constant tensor:
#      x y z
#    x 1.789300 0.000000 0.000000 
#    y 0.000000 1.795790 0.000000 
#    z 0.000000 0.000000 1.773520 
# 
# From -- ./inp_files/18588.got.cif
#   From: 2010.03.12/outbox.cif.g09.slc.cpg/sg56_10_cif.got.tgz:18588.got - 2010.04.16 15:33:40.
