data_PCOD8228980
_publ_section_title
;
Structure prediction by ZEFSAII (Michael W. Deem and Ramdas Pophale) SiO2 
 PCOD8228980
Probable space group: P C C N
;
_chemical_formula_sum "Si O2"
_cell_formula_units_Z 28
_cell_length_a 11.136671
_cell_length_b 7.150629
_cell_length_c 17.059168
_cell_angle_alpha 90.000000
_cell_angle_beta 90.000000
_cell_angle_gamma 90.000000
_cell_volume 1358.493241
_symmetry_space_group_name_H-M "P C C N"
_symmetry_group_IT_number 56
_symmetry_cell_setting 'orthorhombic'
loop_
_space_group_symop_operation_xyz
x,y,z
1/2-x,1/2-y,z
1/2+x,-y,1/2-z
-x,1/2+y,1/2-z
-x,-y,-z
1/2+x,1/2+y,-z
1/2-x,y,1/2+z
x,1/2-y,1/2+z
loop_
_atom_site_type_symbol
_atom_site_label
_atom_site_fract_x
_atom_site_fract_y
_atom_site_fract_z
Si Si1 0.750000 0.750000 0.524365
Si Si2 0.390407 0.089555 0.195871
Si Si3 0.455271 0.254720 0.355357
Si Si4 0.846002 0.538348 0.385419
O O1 0.636878 0.691709 0.576726
O O2 0.787482 0.572432 0.470990
O O3 0.388890 0.138095 0.287725
O O4 0.413720 0.272913 0.142548
O O5 0.261502 0.996983 0.176162
O O6 0.497922 0.947790 0.180256
O O7 0.564964 0.135411 0.391176
#
# Coordination Sequence:
#
# PCOD8228980 Si02
#       4
#     4   8   8   8
#     4  10  24  40  66  92 134 164 206 262 314 378
#     4  10  22  38  66  90 124 162 214 261 302 372
#     4  12  21  41  66  92 125 169 210 259 316 365
#     4  10  23  43  59  94 129 163 209 259 315 371
#
# _framework density 20.611070000000002
#
# number of rings (size 3 to 8) (size 9 to 14) (size 15 to 20)
#    0.000    1.714    2.857    3.429    0.000    4.571 
#    0.000    7.143    0.000    0.000    0.000    0.000 
#    0.000    0.000    0.000    0.000    0.000    0.000 
#
# Total GULP energy -347258.241066 kJ/mol
# GULP energy per Si atom -12402.080038 kJ/mol
# Density = 2.056416 g / cm^3
# Si number density = 20.611070 Si / 1000 Ang^3
#
#
#
# Elastic Constant Matrix: (Units=GPa)
#
#
# Indices 1 2 3 4 5 6 
#
# 1 111.7652 35.8256 68.5066 0.0000 0.0000 0.0000
# 2 35.8256 60.9287 34.7132 0.0000 0.0000 0.0000
# 3 68.5066 34.7132 148.5387 0.0000 0.0000 0.0000
# 4 0.0000 0.0000 0.0000 21.6890 0.0000 0.0000
# 5 0.0000 0.0000 0.0000 0.0000 43.8840 0.0000
# 6 0.0000 0.0000 0.0000 0.0000 0.0000 27.8930
#
#
#
# Elastic Compliance Matrix: (Units=1/GPa)
#
#
# Indices 1 2 3 4 5 6 
#
# 1 0.013749 -0.005158 -0.005135 0.000000 0.000000 0.000000
# 2 -0.005158 0.020869 -0.002498 0.000000 0.000000 0.000000
# 3 -0.005135 -0.002498 0.009685 0.000000 0.000000 0.000000
# 4 0.000000 0.000000 0.000000 0.046106 0.000000 0.000000
# 5 0.000000 0.000000 0.000000 0.000000 0.022787 0.000000
# 6 0.000000 0.000000 0.000000 0.000000 0.000000 0.035851
#
#
# Mechanical properties :
#
#
# Convention : Reuss Voigt Hill
#
# Bulk Modulus (GPa) = 53.42285 66.59152 60.00718
# Shear Modulus (GPa) = 27.64423 30.83900 29.24162
#
# Velocity S-wave (km/s) = 3.66626 3.87232 3.77069
# Velocity P-wave (km/s) = 6.62553 7.23684 6.93792
#
# Compressibility (1/GPa) = 0.01871858
#
# Stress axis : x y z
#
# Youngs Moduli (GPa) = 72.73519 47.91837 103.25776
#
# Poissons Ratio (x) = 0.24717 0.53027
# Poissons Ratio (y) = 0.37518 0.25794
# Poissons Ratio (z) = 0.37352 0.11970
#
# Static dielectric constant tensor:
#      x y z
#    x 3.770570 0.000000 0.000000 
#    y 0.000000 3.565270 0.000000 
#    z 0.000000 0.000000 3.855160 
# 
# 
# High freq. dielectric constant tensor:
#      x y z
#    x 1.809530 0.000000 0.000000 
#    y 0.000000 1.789520 0.000000 
#    z 0.000000 0.000000 1.811780 
# 
# From -- ./inp_files/9975.got.cif
#   From: 2010.03.12/outbox.cif.g09.slc.cpg/sg56_5_cif.got.tgz:9975.got - 2010.04.16 15:33:40.
