data_PCOD8228855
_publ_section_title
;
Structure prediction by ZEFSAII (Michael W. Deem and Ramdas Pophale) SiO2 
 PCOD8228855
Probable space group: P C C N
;
_chemical_formula_sum "Si O2"
_cell_formula_units_Z 56
_cell_length_a 5.059922
_cell_length_b 25.665894
_cell_length_c 21.353539
_cell_angle_alpha 90.000000
_cell_angle_beta 90.000000
_cell_angle_gamma 90.000000
_cell_volume 2773.129054
_symmetry_space_group_name_H-M "P C C N"
_symmetry_group_IT_number 56
_symmetry_cell_setting 'orthorhombic'
loop_
_space_group_symop_operation_xyz
x,y,z
1/2-x,1/2-y,z
1/2+x,-y,1/2-z
-x,1/2+y,1/2-z
-x,-y,-z
1/2+x,1/2+y,-z
1/2-x,y,1/2+z
x,1/2-y,1/2+z
loop_
_atom_site_type_symbol
_atom_site_label
_atom_site_fract_x
_atom_site_fract_y
_atom_site_fract_z
Si Si1 0.242276 0.887979 0.661690
Si Si2 0.252432 0.416494 0.914663
Si Si3 0.685301 0.029809 0.237822
Si Si4 0.743110 0.811451 0.348428
Si Si5 0.743412 0.310460 0.732545
Si Si6 0.759972 0.598645 0.945048
Si Si7 0.753386 0.039946 0.097653
O O1 0.527706 0.895987 0.632285
O O2 0.180433 0.930027 0.715179
O O3 0.231951 0.833240 0.697662
O O4 0.024985 0.892943 0.607915
O O5 0.243708 0.478984 0.918102
O O6 0.315845 0.392911 0.982740
O O7 0.664778 0.052469 0.168375
O O8 0.390309 0.018301 0.262550
O O9 0.750000 0.750000 0.366111
O O10 0.474946 0.827799 0.314146
O O11 0.768036 0.844949 0.411871
O O12 0.973245 0.827690 0.300639
O O13 0.750000 0.250000 0.744565
O O14 0.549363 0.560312 0.912615
O O15 0.045928 0.570857 0.945215
#
# Coordination Sequence:
#
# PCOD8228855 Si02
#       7
#     8   8   8   8   8   8   8
#     4  12  22  40  60  87 124 158 194 244 309 352
#     4  12  25  40  57  87 128 166 196 244 286 362
#     4  12  21  36  57  84 116 147 194 241 296 348
#     4  10  21  41  65  91 116 146 200 260 301 343
#     4  10  22  41  67  93 117 151 196 253 310 359
#     4  12  24  40  61  86 117 166 210 238 297 348
#     4  12  23  40  60  86 121 162 206 250 287 354
#
# _framework density 20.193794
#
# number of rings (size 3 to 8) (size 9 to 14) (size 15 to 20)
#    0.000    0.571    2.857    6.857    0.000    0.000 
#    0.000    1.429    0.000    0.000    0.000    0.000 
#    0.000    0.000    0.000    0.000    0.000    0.000 
#
# Total GULP energy -694704.623188 kJ/mol
# GULP energy per Si atom -12405.439700 kJ/mol
# Density = 2.014783 g / cm^3
# Si number density = 20.193794 Si / 1000 Ang^3
#
#
#
# Elastic Constant Matrix: (Units=GPa)
#
#
# Indices 1 2 3 4 5 6 
#
# 1 92.6445 30.3587 5.7994 0.0000 0.0000 0.0000
# 2 30.3587 86.2334 48.8767 0.0000 0.0000 0.0000
# 3 5.7994 48.8767 104.7916 0.0000 0.0000 0.0000
# 4 0.0000 0.0000 0.0000 21.5026 0.0000 0.0000
# 5 0.0000 0.0000 0.0000 0.0000 15.4380 0.0000
# 6 0.0000 0.0000 0.0000 0.0000 0.0000 19.2984
#
#
#
# Elastic Compliance Matrix: (Units=1/GPa)
#
#
# Indices 1 2 3 4 5 6 
#
# 1 0.012458 -0.005431 0.001844 0.000000 0.000000 0.000000
# 2 -0.005431 0.018131 -0.008156 0.000000 0.000000 0.000000
# 3 0.001844 -0.008156 0.013245 0.000000 0.000000 0.000000
# 4 0.000000 0.000000 0.000000 0.046506 0.000000 0.000000
# 5 0.000000 0.000000 0.000000 0.000000 0.064775 0.000000
# 6 0.000000 0.000000 0.000000 0.000000 0.000000 0.051818
#
#
# Mechanical properties :
#
#
# Convention : Reuss Voigt Hill
#
# Bulk Modulus (GPa) = 49.14627 50.41546 49.78087
# Shear Modulus (GPa) = 21.07902 24.49012 22.78457
#
# Velocity S-wave (km/s) = 3.23435 3.48624 3.36266
# Velocity P-wave (km/s) = 6.19178 6.42068 6.30727
#
# Compressibility (1/GPa) = 0.02034742
#
# Stress axis : x y z
#
# Youngs Moduli (GPa) = 80.26843 55.15325 75.50060
#
# Poissons Ratio (x) = 0.29953 -0.13919
# Poissons Ratio (y) = 0.43593 0.61580
# Poissons Ratio (z) = -0.14798 0.44984
#
# Static dielectric constant tensor:
#      x y z
#    x 4.043780 0.000000 0.000000 
#    y 0.000000 3.619840 0.000000 
#    z 0.000000 0.000000 3.702490 
# 
# 
# High freq. dielectric constant tensor:
#      x y z
#    x 1.808770 0.000000 0.000000 
#    y 0.000000 1.775000 0.000000 
#    z 0.000000 0.000000 1.790720 
# 
# From -- ./inp_files/17638.got.cif
#   From: 2010.03.12/outbox.cif.g09.slc.cpg/sg56_9_cif.got.tgz:17638.got - 2010.04.16 15:33:40.
