data_PCOD8228095
_publ_section_title
;
Structure prediction by ZEFSAII (Michael W. Deem and Ramdas Pophale) SiO2 
 PCOD8228095
Probable space group: P C C N
;
_chemical_formula_sum "Si O2"
_cell_formula_units_Z 48
_cell_length_a 4.907796
_cell_length_b 24.236026
_cell_length_c 20.127365
_cell_angle_alpha 90.000000
_cell_angle_beta 90.000000
_cell_angle_gamma 90.000000
_cell_volume 2394.058919
_symmetry_space_group_name_H-M "P C C N"
_symmetry_group_IT_number 56
_symmetry_cell_setting 'orthorhombic'
loop_
_space_group_symop_operation_xyz
x,y,z
1/2-x,1/2-y,z
1/2+x,-y,1/2-z
-x,1/2+y,1/2-z
-x,-y,-z
1/2+x,1/2+y,-z
1/2-x,y,1/2+z
x,1/2-y,1/2+z
loop_
_atom_site_type_symbol
_atom_site_label
_atom_site_fract_x
_atom_site_fract_y
_atom_site_fract_z
Si Si1 0.217238 0.951380 0.186809
Si Si2 0.274119 0.396846 0.257751
Si Si3 0.708321 0.814395 0.127733
Si Si4 0.926948 0.564500 0.371311
Si Si5 0.697704 0.128923 0.427568
Si Si6 0.565065 0.443474 0.539692
O O1 0.529496 0.938571 0.202417
O O2 0.143763 0.925065 0.115983
O O3 0.022964 0.926052 0.244091
O O4 0.174451 0.015898 0.177331
O O5 0.243810 0.339894 0.298738
O O6 0.396411 0.385494 0.182925
O O7 0.750000 0.750000 0.134673
O O8 0.404505 0.827637 0.104660
O O9 0.910072 0.838959 0.070803
O O10 0.726269 0.576006 0.432754
O O11 0.226097 0.549306 0.398739
O O12 0.806386 0.106466 0.497622
O O13 0.500000 0.500000 0.500000
#
# Coordination Sequence:
#
# PCOD8228095 Si02
#       6
#     8   8   8   8   8   8
#     4  10  19  33  54  79 117 152 188 232 275 342
#     4  10  21  35  54  85 112 146 193 239 289 341
#     4  10  21  39  64  84 107 143 193 258 306 333
#     4  12  22  34  55  80 124 162 190 219 286 344
#     4  10  21  36  57  86 113 147 197 240 281 340
#     4  12  24  36  55  83 123 165 195 224 271 357
#
# _framework density 20.049633
#
# number of rings (size 3 to 8) (size 9 to 14) (size 15 to 20)
#    0.000    1.333    1.667    5.000    4.667    0.000 
#    0.000    0.000    0.000    6.000    0.000    0.000 
#    0.000    0.000    0.000    0.000    0.000    0.000 
#
# Total GULP energy -594931.049053 kJ/mol
# GULP energy per Si atom -12394.396855 kJ/mol
# Density = 2.000400 g / cm^3
# Si number density = 20.049633 Si / 1000 Ang^3
#
#
#
# Elastic Constant Matrix: (Units=GPa)
#
#
# Indices 1 2 3 4 5 6 
#
# 1 75.8089 7.5101 5.6224 0.0000 0.0000 0.0000
# 2 7.5101 77.6821 27.0747 0.0000 0.0000 0.0000
# 3 5.6224 27.0747 81.5481 0.0000 0.0000 0.0000
# 4 0.0000 0.0000 0.0000 14.8653 0.0000 0.0000
# 5 0.0000 0.0000 0.0000 0.0000 33.2616 0.0000
# 6 0.0000 0.0000 0.0000 0.0000 0.0000 19.5729
#
#
#
# Elastic Compliance Matrix: (Units=1/GPa)
#
#
# Indices 1 2 3 4 5 6 
#
# 1 0.013341 -0.001096 -0.000556 0.000000 0.000000 0.000000
# 2 -0.001096 0.014648 -0.004788 0.000000 0.000000 0.000000
# 3 -0.000556 -0.004788 0.013891 0.000000 0.000000 0.000000
# 4 0.000000 0.000000 0.000000 0.067271 0.000000 0.000000
# 5 0.000000 0.000000 0.000000 0.000000 0.030065 0.000000
# 6 0.000000 0.000000 0.000000 0.000000 0.000000 0.051091
#
#
# Mechanical properties :
#
#
# Convention : Reuss Voigt Hill
#
# Bulk Modulus (GPa) = 34.48274 35.05039 34.76656
# Shear Modulus (GPa) = 23.49057 26.52874 25.00966
#
# Velocity S-wave (km/s) = 3.42661 3.64146 3.53567
# Velocity P-wave (km/s) = 5.73512 5.93297 5.83488
#
# Compressibility (1/GPa) = 0.02900002
#
# Stress axis : x y z
#
# Youngs Moduli (GPa) = 74.95760 68.27077 71.99139
#
# Poissons Ratio (x) = 0.07483 0.04002
# Poissons Ratio (y) = 0.08215 0.34466
# Poissons Ratio (z) = 0.04167 0.32685
#
# Static dielectric constant tensor:
#      x y z
#    x 3.919650 0.000000 0.000000 
#    y 0.000000 3.340340 0.000000 
#    z 0.000000 0.000000 3.671550 
# 
# 
# High freq. dielectric constant tensor:
#      x y z
#    x 1.807720 0.000000 0.000000 
#    y 0.000000 1.735350 0.000000 
#    z 0.000000 0.000000 1.779190 
# 
# From -- ./inp_files/13989.got.cif
#   From: 2010.03.12/outbox.cif.g09.slc.cpg/sg56_7_cif.got.tgz:13989.got - 2010.04.16 15:33:40.
