data_PCOD8228482
_publ_section_title
;
Structure prediction by ZEFSAII (Michael W. Deem and Ramdas Pophale) SiO2 
 PCOD8228482
Probable space group: P C C N
;
_chemical_formula_sum "Si O2"
_cell_formula_units_Z 48
_cell_length_a 17.387607
_cell_length_b 8.680775
_cell_length_c 13.901579
_cell_angle_alpha 90.000000
_cell_angle_beta 90.000000
_cell_angle_gamma 90.000000
_cell_volume 2098.275199
_symmetry_space_group_name_H-M "P C C N"
_symmetry_group_IT_number 56
_symmetry_cell_setting 'orthorhombic'
loop_
_space_group_symop_operation_xyz
x,y,z
1/2-x,1/2-y,z
1/2+x,-y,1/2-z
-x,1/2+y,1/2-z
-x,-y,-z
1/2+x,1/2+y,-z
1/2-x,y,1/2+z
x,1/2-y,1/2+z
loop_
_atom_site_type_symbol
_atom_site_label
_atom_site_fract_x
_atom_site_fract_y
_atom_site_fract_z
Si Si1 0.837218 0.995354 0.270912
Si Si2 0.583487 0.659905 0.555891
Si Si3 0.419270 0.292653 0.136721
Si Si4 0.161610 0.486645 0.775972
Si Si5 0.586508 0.153010 0.937208
Si Si6 0.400321 0.787632 0.372157
O O1 0.876633 0.838843 0.302616
O O2 0.747288 0.968652 0.261938
O O3 0.855701 0.132316 0.347858
O O4 0.871713 0.048051 0.167787
O O5 0.605723 0.790039 0.476379
O O6 0.644989 0.643760 0.641870
O O7 0.499137 0.694952 0.601432
O O8 0.579984 0.502000 0.497856
O O9 0.394240 0.454717 0.184192
O O10 0.509618 0.262910 0.145508
O O11 0.146632 0.655921 0.815881
O O12 0.617044 0.282093 0.012939
#
# Coordination Sequence:
#
# PCOD8228482 Si02
#       6
#     8   8   8   8   8   8
#     4  11  21  36  57  89 124 152 193 248 306 358
#     4   8  16  34  59  81 108 153 199 236 284 350
#     4  10  20  38  63  86 115 160 206 244 290 356
#     4  11  21  36  57  89 124 152 193 248 306 358
#     4   8  16  34  59  81 108 153 199 236 284 350
#     4  10  20  38  63  86 115 160 206 244 290 356
#
# _framework density 22.875931999999999
#
# number of rings (size 3 to 8) (size 9 to 14) (size 15 to 20)
#    0.000    2.333    0.000    6.000    0.000    0.000 
#    0.000   21.667    0.000    6.000    0.000    0.000 
#    0.000    0.000    0.000    0.000    0.000    0.000 
#
# Total GULP energy -594975.497493 kJ/mol
# GULP energy per Si atom -12395.322864 kJ/mol
# Density = 2.282387 g / cm^3
# Si number density = 22.875932 Si / 1000 Ang^3
#
#
#
# Elastic Constant Matrix: (Units=GPa)
#
#
# Indices 1 2 3 4 5 6 
#
# 1 79.9195 14.2311 33.3228 0.0000 0.0000 0.0000
# 2 14.2311 8.9106 9.2601 0.0000 0.0000 0.0000
# 3 33.3228 9.2601 101.6249 0.0000 0.0000 0.0000
# 4 0.0000 0.0000 0.0000 36.5761 0.0000 0.0000
# 5 0.0000 0.0000 0.0000 0.0000 29.7707 0.0000
# 6 0.0000 0.0000 0.0000 0.0000 0.0000 28.9112
#
#
#
# Elastic Compliance Matrix: (Units=1/GPa)
#
#
# Indices 1 2 3 4 5 6 
#
# 1 0.018706 -0.025960 -0.003768 0.000000 0.000000 0.000000
# 2 -0.025960 0.159989 -0.006066 0.000000 0.000000 0.000000
# 3 -0.003768 -0.006066 0.011628 0.000000 0.000000 0.000000
# 4 0.000000 0.000000 0.000000 0.027340 0.000000 0.000000
# 5 0.000000 0.000000 0.000000 0.000000 0.033590 0.000000
# 6 0.000000 0.000000 0.000000 0.000000 0.000000 0.034589
#
#
# Mechanical properties :
#
#
# Convention : Reuss Voigt Hill
#
# Bulk Modulus (GPa) = 8.42206 33.78698 21.10452
# Shear Modulus (GPa) = 12.59416 27.96101 20.27759
#
# Velocity S-wave (km/s) = 2.34891 3.49992 2.98050
# Velocity P-wave (km/s) = 3.32357 5.57981 4.59241
#
# Compressibility (1/GPa) = 0.11873577
#
# Stress axis : x y z
#
# Youngs Moduli (GPa) = 53.45764 6.25043 85.99565
#
# Poissons Ratio (x) = 0.16226 0.32406
# Poissons Ratio (y) = 1.38774 0.52165
# Poissons Ratio (z) = 0.20145 0.03792
#
# Static dielectric constant tensor:
#      x y z
#    x 3.862320 0.000000 0.000000 
#    y 0.000000 3.926710 0.000000 
#    z 0.000000 0.000000 4.892210 
# 
# 
# High freq. dielectric constant tensor:
#      x y z
#    x 1.886010 0.000000 0.000000 
#    y 0.000000 1.879890 0.000000 
#    z 0.000000 0.000000 1.916160 
# 
# From -- ./inp_files/12674.got.cif
#   From: 2010.03.12/outbox.cif.g09.slc.cpg/sg56_7_cif.got.tgz:12674.got - 2010.04.16 15:33:40.
