data_PCOD8228828
_publ_section_title
;
Structure prediction by ZEFSAII (Michael W. Deem and Ramdas Pophale) SiO2 
 PCOD8228828
Probable space group: P C C N
;
_chemical_formula_sum "Si O2"
_cell_formula_units_Z 40
_cell_length_a 4.925498
_cell_length_b 26.829319
_cell_length_c 13.174542
_cell_angle_alpha 90.000000
_cell_angle_beta 90.000000
_cell_angle_gamma 90.000000
_cell_volume 1740.986176
_symmetry_space_group_name_H-M "P C C N"
_symmetry_group_IT_number 56
_symmetry_cell_setting 'orthorhombic'
loop_
_space_group_symop_operation_xyz
x,y,z
1/2-x,1/2-y,z
1/2+x,-y,1/2-z
-x,1/2+y,1/2-z
-x,-y,-z
1/2+x,1/2+y,-z
1/2-x,y,1/2+z
x,1/2-y,1/2+z
loop_
_atom_site_type_symbol
_atom_site_label
_atom_site_fract_x
_atom_site_fract_y
_atom_site_fract_z
Si Si1 0.703969 0.849337 0.192926
Si Si2 0.701611 0.347351 0.675774
Si Si3 0.210623 0.944553 0.937489
Si Si4 0.502292 0.217517 0.989723
Si Si5 0.283170 0.054270 0.926598
O O1 0.504117 0.836702 0.285597
O O2 0.621450 0.818731 0.094282
O O3 0.712817 0.907989 0.167605
O O4 0.002177 0.834515 0.231174
O O5 0.683321 0.405377 0.645050
O O6 0.636247 0.313181 0.580439
O O7 0.190719 0.999533 0.886865
O O8 0.412608 0.947609 0.032315
O O9 0.920497 0.927537 0.983705
O O10 0.750000 0.250000 0.943248
O O11 0.250000 0.250000 0.030815
#
# Coordination Sequence:
#
# PCOD8228828 Si02
#       5
#     8   8   8   8   8
#     4  12  26  43  72 104 135 177 230 279 341 413
#     4  12  26  43  72 104 135 177 230 279 341 413
#     4  10  21  40  68  99 138 182 220 267 333 405
#     4  12  28  48  71  96 137 182 228 296 354 402
#     4  10  21  40  68  99 138 182 220 267 333 405
#
# _framework density 22.975483000000001
#
# number of rings (size 3 to 8) (size 9 to 14) (size 15 to 20)
#    0.000    0.800    2.000    4.800    2.800    6.400 
#    0.000    0.000    0.000    0.000    0.000    0.000 
#    0.000    0.000    0.000    0.000    0.000    0.000 
#
# Total GULP energy -496144.263986 kJ/mol
# GULP energy per Si atom -12403.606600 kJ/mol
# Density = 2.292319 g / cm^3
# Si number density = 22.975483 Si / 1000 Ang^3
#
#
#
# Elastic Constant Matrix: (Units=GPa)
#
#
# Indices 1 2 3 4 5 6 
#
# 1 109.3778 36.8204 14.9254 0.0000 0.0000 0.0000
# 2 36.8204 111.4530 45.2637 0.0000 0.0000 0.0000
# 3 14.9254 45.2637 79.7452 0.0000 0.0000 0.0000
# 4 0.0000 0.0000 0.0000 -0.7429 0.0000 0.0000
# 5 0.0000 0.0000 0.0000 0.0000 45.3300 0.0000
# 6 0.0000 0.0000 0.0000 0.0000 0.0000 34.1893
#
#
#
# Elastic Compliance Matrix: (Units=1/GPa)
#
#
# Indices 1 2 3 4 5 6 
#
# 1 0.010287 -0.003400 0.000005 0.000000 0.000000 0.000000
# 2 -0.003400 0.012784 -0.006620 0.000000 0.000000 0.000000
# 3 0.000005 -0.006620 0.016297 0.000000 0.000000 0.000000
# 4 0.000000 0.000000 0.000000 -1.346053 0.000000 0.000000
# 5 0.000000 0.000000 0.000000 0.000000 0.022060 0.000000
# 6 0.000000 0.000000 0.000000 0.000000 0.000000 0.029249
#
#
# Mechanical properties :
#
#
# Convention : Reuss Voigt Hill
#
# Bulk Modulus (GPa) = 51.71594 54.95500 53.33547
# Shear Modulus (GPa) = -4.06868 29.32640 12.62886
#
# Velocity S-wave (km/s) = -1.33219 3.57658 2.34704
# Velocity P-wave (km/s) = 4.49352 6.40522 5.53256
#
# Compressibility (1/GPa) = 0.01933640
#
# Stress axis : x y z
#
# Youngs Moduli (GPa) = 97.21361 78.22116 61.36250
#
# Poissons Ratio (x) = 0.26597 -0.00029
# Poissons Ratio (y) = 0.33055 0.40622
# Poissons Ratio (z) = -0.00046 0.51782
#
# Static dielectric constant tensor:
#      x y z
#    x 4.391350 0.000000 0.000000 
#    y 0.000000 4.415140 0.000000 
#    z 0.000000 0.000000 3.715240 
# 
# 
# High freq. dielectric constant tensor:
#      x y z
#    x 1.929940 0.000000 0.000000 
#    y 0.000000 1.916660 0.000000 
#    z 0.000000 0.000000 1.883730 
# 
# From -- ./inp_files/5629.got.cif
#   From: 2010.03.12/outbox.cif.g09.slc.cpg/sg56_3_cif.got.tgz:5629.got - 2010.04.16 15:33:40.
