data_PCOD8229854
_publ_section_title
;
Structure prediction by ZEFSAII (Michael W. Deem and Ramdas Pophale) SiO2 
 PCOD8229854
Probable space group: P C C N
;
_chemical_formula_sum "Si O2"
_cell_formula_units_Z 40
_cell_length_a 4.906924
_cell_length_b 19.297382
_cell_length_c 17.660509
_cell_angle_alpha 90.000000
_cell_angle_beta 90.000000
_cell_angle_gamma 90.000000
_cell_volume 1672.287494
_symmetry_space_group_name_H-M "P C C N"
_symmetry_group_IT_number 56
_symmetry_cell_setting 'orthorhombic'
loop_
_space_group_symop_operation_xyz
x,y,z
1/2-x,1/2-y,z
1/2+x,-y,1/2-z
-x,1/2+y,1/2-z
-x,-y,-z
1/2+x,1/2+y,-z
1/2-x,y,1/2+z
x,1/2-y,1/2+z
loop_
_atom_site_type_symbol
_atom_site_label
_atom_site_fract_x
_atom_site_fract_y
_atom_site_fract_z
Si Si1 0.369168 0.041201 0.567927
Si Si2 0.909003 0.320984 0.242159
Si Si3 0.635440 0.132555 0.078268
Si Si4 0.216889 0.966568 0.213751
Si Si5 0.750000 0.250000 0.962133
Si Si6 0.250000 0.250000 0.852124
O O1 0.613019 0.085171 0.606149
O O2 0.115354 0.089399 0.542005
O O3 0.500000 0.000000 0.500000
O O4 0.252101 0.984254 0.625521
O O5 0.750000 0.250000 0.256344
O O6 0.982160 0.328962 0.153207
O O7 0.728813 0.385315 0.272286
O O8 0.179299 0.314603 0.295320
O O9 0.767679 0.183385 0.016497
O O10 0.411464 0.017345 0.259848
O O11 0.496400 0.235727 0.908560
#
# Coordination Sequence:
#
# PCOD8229854 Si02
#       6
#     8   8   8   8   4   4
#     4  12  27  48  74 112 150 205 257 324 393 466
#     4  12  28  50  79 113 154 208 263 316 387 470
#     4  12  27  49  78 108 152 205 263 315 392 475
#     4  12  26  48  74 109 152 194 259 320 380 451
#     4  12  28  50  72 116 154 202 250 334 396 466
#     4  12  30  48  76 114 158 200 260 326 394 460
#
# _framework density 23.919329000000001
#
# number of rings (size 3 to 8) (size 9 to 14) (size 15 to 20)
#    0.000    0.000    6.000    1.800   11.200    0.800 
#    0.000    0.000    0.000    0.000    0.000    0.000 
#    0.000    0.000    0.000    0.000    0.000    0.000 
#
# Total GULP energy -495959.753125 kJ/mol
# GULP energy per Si atom -12398.993828 kJ/mol
# Density = 2.386489 g / cm^3
# Si number density = 23.919329 Si / 1000 Ang^3
#
#
#
# Elastic Constant Matrix: (Units=GPa)
#
#
# Indices 1 2 3 4 5 6 
#
# 1 106.3326 39.7394 19.9694 0.0000 0.0000 0.0000
# 2 39.7394 148.2220 50.4444 0.0000 0.0000 0.0000
# 3 19.9694 50.4444 135.9417 0.0000 0.0000 0.0000
# 4 0.0000 0.0000 0.0000 23.1839 0.0000 0.0000
# 5 0.0000 0.0000 0.0000 0.0000 41.0792 0.0000
# 6 0.0000 0.0000 0.0000 0.0000 0.0000 36.9219
#
#
#
# Elastic Compliance Matrix: (Units=1/GPa)
#
#
# Indices 1 2 3 4 5 6 
#
# 1 0.010490 -0.002619 -0.000569 0.000000 0.000000 0.000000
# 2 -0.002619 0.008376 -0.002723 0.000000 0.000000 0.000000
# 3 -0.000569 -0.002723 0.008450 0.000000 0.000000 0.000000
# 4 0.000000 0.000000 0.000000 0.043133 0.000000 0.000000
# 5 0.000000 0.000000 0.000000 0.000000 0.024343 0.000000
# 6 0.000000 0.000000 0.000000 0.000000 0.000000 0.027084
#
#
# Mechanical properties :
#
#
# Convention : Reuss Voigt Hill
#
# Bulk Modulus (GPa) = 64.54356 67.86698 66.20527
# Shear Modulus (GPa) = 36.00656 38.92654 37.46655
#
# Velocity S-wave (km/s) = 3.88407 4.03849 3.96203
# Velocity P-wave (km/s) = 6.86710 7.08384 6.97631
#
# Compressibility (1/GPa) = 0.01549341
#
# Stress axis : x y z
#
# Youngs Moduli (GPa) = 95.32847 119.39520 118.33983
#
# Poissons Ratio (x) = 0.31266 0.06736
# Poissons Ratio (y) = 0.24964 0.32227
# Poissons Ratio (z) = 0.05426 0.32514
#
# Static dielectric constant tensor:
#      x y z
#    x 4.185690 0.000000 0.000000 
#    y 0.000000 4.506750 0.000000 
#    z 0.000000 0.000000 4.457340 
# 
# 
# High freq. dielectric constant tensor:
#      x y z
#    x 1.951980 0.000000 0.000000 
#    y 0.000000 1.948510 0.000000 
#    z 0.000000 0.000000 1.963880 
# 
# From -- ./inp_files/13854.got.cif
#   From: 2010.03.12/outbox.cif.g09.slc.cpg/sg56_7_cif.got.tgz:13854.got - 2010.04.16 15:33:40.
