data_PCOD8229811
_publ_section_title
;
Structure prediction by ZEFSAII (Michael W. Deem and Ramdas Pophale) SiO2 
 PCOD8229811
Probable space group: P C C N
;
_chemical_formula_sum "Si O2"
_cell_formula_units_Z 36
_cell_length_a 12.168779
_cell_length_b 10.330872
_cell_length_c 12.300105
_cell_angle_alpha 90.000000
_cell_angle_beta 90.000000
_cell_angle_gamma 90.000000
_cell_volume 1546.296608
_symmetry_space_group_name_H-M "P C C N"
_symmetry_group_IT_number 56
_symmetry_cell_setting 'orthorhombic'
loop_
_space_group_symop_operation_xyz
x,y,z
1/2-x,1/2-y,z
1/2+x,-y,1/2-z
-x,1/2+y,1/2-z
-x,-y,-z
1/2+x,1/2+y,-z
1/2-x,y,1/2+z
x,1/2-y,1/2+z
loop_
_atom_site_type_symbol
_atom_site_label
_atom_site_fract_x
_atom_site_fract_y
_atom_site_fract_z
Si Si1 0.167547 0.962988 0.039959
Si Si2 0.389168 0.519545 0.431776
Si Si3 0.915401 0.198986 0.146786
Si Si4 0.359457 0.338867 0.222706
Si Si5 0.250000 0.750000 0.187061
O O1 0.171729 0.837606 0.115080
O O2 0.126560 0.081799 0.111054
O O3 0.286581 0.016032 0.005939
O O4 0.087527 0.921891 0.939095
O O5 0.500000 0.500000 0.500000
O O6 0.370730 0.669775 0.405980
O O7 0.379170 0.429559 0.326037
O O8 0.828922 0.157980 0.240376
O O9 0.029627 0.243091 0.204728
O O10 0.250000 0.250000 0.233242
#
# Coordination Sequence:
#
# PCOD8229811 Si02
#       5
#     8   8   8   8   4
#     4  12  23  47  73 105 142 191 253 303 364 450
#     4  12  25  44  72 105 144 196 248 307 370 444
#     4  12  24  45  72 106 138 195 250 303 367 444
#     4  12  29  47  70 110 159 193 239 315 387 446
#     4  12  20  46  74 104 134 182 254 304 360 430
#
# _framework density 23.281431999999999
#
# number of rings (size 3 to 8) (size 9 to 14) (size 15 to 20)
#    0.000    0.000    6.667    3.333    0.000    4.444 
#    0.000    0.000    0.000    0.000    0.000    0.000 
#    0.000    0.000    0.000    0.000    0.000    0.000 
#
# Total GULP energy -446035.333222 kJ/mol
# GULP energy per Si atom -12389.870367 kJ/mol
# Density = 2.322844 g / cm^3
# Si number density = 23.281432 Si / 1000 Ang^3
#
#
#
# Elastic Constant Matrix: (Units=GPa)
#
#
# Indices 1 2 3 4 5 6 
#
# 1 137.7498 15.2362 57.8568 0.0000 0.0000 0.0000
# 2 15.2362 63.8093 30.6628 0.0000 0.0000 0.0000
# 3 57.8568 30.6628 129.7781 0.0000 0.0000 0.0000
# 4 0.0000 0.0000 0.0000 32.7540 0.0000 0.0000
# 5 0.0000 0.0000 0.0000 0.0000 3839.5982 0.0000
# 6 0.0000 0.0000 0.0000 0.0000 0.0000 27.8989
#
#
#
# Elastic Compliance Matrix: (Units=1/GPa)
#
#
# Indices 1 2 3 4 5 6 
#
# 1 0.008936 -0.000247 -0.003925 0.000000 0.000000 0.000000
# 2 -0.000247 0.017686 -0.004068 0.000000 0.000000 0.000000
# 3 -0.003925 -0.004068 0.010417 0.000000 0.000000 0.000000
# 4 0.000000 0.000000 0.000000 0.030531 0.000000 0.000000
# 5 0.000000 0.000000 0.000000 0.000000 0.000260 0.000000
# 6 0.000000 0.000000 0.000000 0.000000 0.000000 0.035844
#
#
# Mechanical properties :
#
#
# Convention : Reuss Voigt Hill
#
# Bulk Modulus (GPa) = 48.64737 59.87211 54.25974
# Shear Modulus (GPa) = 39.36812 795.22231 417.29522
#
# Velocity S-wave (km/s) = 4.11660 18.50164 13.40256
# Velocity P-wave (km/s) = 6.59817 21.95876 16.21300
#
# Compressibility (1/GPa) = 0.02055609
#
# Stress axis : x y z
#
# Youngs Moduli (GPa) = 111.91310 56.54264 96.00105
#
# Poissons Ratio (x) = 0.01399 0.37681
# Poissons Ratio (y) = 0.02769 0.39056
# Poissons Ratio (z) = 0.43927 0.23003
#
# Static dielectric constant tensor:
#      x y z
#    x 4.251400 0.000000 0.000000 
#    y 0.000000 3.699340 0.000000 
#    z 0.000000 0.000000 4.605380 
# 
# 
# High freq. dielectric constant tensor:
#      x y z
#    x 1.940150 0.000000 0.000000 
#    y 0.000000 1.898740 0.000000 
#    z 0.000000 0.000000 1.943020 
# 
# From -- ./inp_files/6839.got.cif
#   From: 2010.03.12/outbox.cif.g09.slc.cpg/sg56_4_cif.got.tgz:6839.got - 2010.04.16 15:33:40.
