data_PCOD8229793
_publ_section_title
;
Structure prediction by ZEFSAII (Michael W. Deem and Ramdas Pophale) SiO2 
 PCOD8229793
Probable space group: P C C N
;
_chemical_formula_sum "Si O2"
_cell_formula_units_Z 40
_cell_length_a 10.455502
_cell_length_b 8.748248
_cell_length_c 18.053589
_cell_angle_alpha 90.000000
_cell_angle_beta 90.000000
_cell_angle_gamma 90.000000
_cell_volume 1651.313483
_symmetry_space_group_name_H-M "P C C N"
_symmetry_group_IT_number 56
_symmetry_cell_setting 'orthorhombic'
loop_
_space_group_symop_operation_xyz
x,y,z
1/2-x,1/2-y,z
1/2+x,-y,1/2-z
-x,1/2+y,1/2-z
-x,-y,-z
1/2+x,1/2+y,-z
1/2-x,y,1/2+z
x,1/2-y,1/2+z
loop_
_atom_site_type_symbol
_atom_site_label
_atom_site_fract_x
_atom_site_fract_y
_atom_site_fract_z
Si Si1 0.477011 0.400461 0.101009
Si Si2 0.359161 0.844906 0.145526
Si Si3 0.799565 0.917395 0.030661
Si Si4 0.367132 0.556245 0.227516
Si Si5 0.070258 0.562460 0.897373
O O1 0.580565 0.529739 0.080328
O O2 0.443037 0.417814 0.187696
O O3 0.525952 0.231816 0.084037
O O4 0.345390 0.425509 0.054632
O O5 0.250000 0.750000 0.097504
O O6 0.428946 0.715589 0.196413
O O7 0.283257 0.953986 0.204283
O O8 0.453773 0.941479 0.093449
O O9 0.750000 0.750000 0.054360
O O10 0.679374 0.028852 0.042814
O O11 0.375441 0.543849 0.315074
#
# Coordination Sequence:
#
# PCOD8229793 Si02
#       5
#     8   8   8   8   8
#     4  11  26  48  72 111 150 191 254 310 371 447
#     4   8  22  41  64 107 142 185 235 317 378 441
#     4  11  28  47  69 105 149 200 246 294 373 458
#     4   9  22  42  73 103 147 179 246 311 385 437
#     4  12  23  44  79 104 145 199 249 312 374 449
#
# _framework density 24.223143
#
# number of rings (size 3 to 8) (size 9 to 14) (size 15 to 20)
#    1.200    0.400    0.000    3.000   11.200    0.800 
#   14.400    0.000    0.000    0.000    0.000    0.000 
#    0.000    0.000    0.000    0.000    0.000    0.000 
#
# Total GULP energy -495577.218732 kJ/mol
# GULP energy per Si atom -12389.430468 kJ/mol
# Density = 2.416801 g / cm^3
# Si number density = 24.223143 Si / 1000 Ang^3
#
#
#
# Elastic Constant Matrix: (Units=GPa)
#
#
# Indices 1 2 3 4 5 6 
#
# 1 141.8917 68.2069 55.3806 0.0000 0.0000 0.0000
# 2 68.2069 132.8397 29.7901 0.0000 0.0000 0.0000
# 3 55.3806 29.7901 87.9753 0.0000 0.0000 0.0000
# 4 0.0000 0.0000 0.0000 27.7476 0.0000 0.0000
# 5 0.0000 0.0000 0.0000 0.0000 32.5952 0.0000
# 6 0.0000 0.0000 0.0000 0.0000 0.0000 52.5034
#
#
#
# Elastic Compliance Matrix: (Units=1/GPa)
#
#
# Indices 1 2 3 4 5 6 
#
# 1 0.011480 -0.004625 -0.005661 0.000000 0.000000 0.000000
# 2 -0.004625 0.010010 -0.000478 0.000000 0.000000 0.000000
# 3 -0.005661 -0.000478 0.015092 0.000000 0.000000 0.000000
# 4 0.000000 0.000000 0.000000 0.036039 0.000000 0.000000
# 5 0.000000 0.000000 0.000000 0.000000 0.030679 0.000000
# 6 0.000000 0.000000 0.000000 0.000000 0.000000 0.019046
#
#
# Mechanical properties :
#
#
# Convention : Reuss Voigt Hill
#
# Bulk Modulus (GPa) = 66.42497 74.38465 70.40481
# Shear Modulus (GPa) = 33.58117 36.52453 35.05285
#
# Velocity S-wave (km/s) = 3.72738 3.88730 3.80818
# Velocity P-wave (km/s) = 6.78278 7.13603 6.96164
#
# Compressibility (1/GPa) = 0.01505458
#
# Stress axis : x y z
#
# Youngs Moduli (GPa) = 87.10573 99.90152 66.25978
#
# Poissons Ratio (x) = 0.46206 0.37508
# Poissons Ratio (y) = 0.40288 0.03167
# Poissons Ratio (z) = 0.49308 0.04775
#
# Static dielectric constant tensor:
#      x y z
#    x 4.391610 0.000000 0.000000 
#    y 0.000000 4.307260 0.000000 
#    z 0.000000 0.000000 3.924790 
# 
# 
# High freq. dielectric constant tensor:
#      x y z
#    x 1.961920 0.000000 0.000000 
#    y 0.000000 1.962400 0.000000 
#    z 0.000000 0.000000 1.943820 
# 
# From -- ./inp_files/15426.got.cif
#   From: 2010.03.12/outbox.cif.g09.slc.cpg/sg56_8_cif.got.tgz:15426.got - 2010.04.16 15:33:40.
