data_PCOD8229359
_publ_section_title
;
Structure prediction by ZEFSAII (Michael W. Deem and Ramdas Pophale) SiO2 
 PCOD8229359
Probable space group: P C C N
;
_chemical_formula_sum "Si O2"
_cell_formula_units_Z 48
_cell_length_a 13.759635
_cell_length_b 17.849396
_cell_length_c 8.793255
_cell_angle_alpha 90.000000
_cell_angle_beta 90.000000
_cell_angle_gamma 90.000000
_cell_volume 2159.633751
_symmetry_space_group_name_H-M "P C C N"
_symmetry_group_IT_number 56
_symmetry_cell_setting 'orthorhombic'
loop_
_space_group_symop_operation_xyz
x,y,z
1/2-x,1/2-y,z
1/2+x,-y,1/2-z
-x,1/2+y,1/2-z
-x,-y,-z
1/2+x,1/2+y,-z
1/2-x,y,1/2+z
x,1/2-y,1/2+z
loop_
_atom_site_type_symbol
_atom_site_label
_atom_site_fract_x
_atom_site_fract_y
_atom_site_fract_z
Si Si1 0.078000 0.667376 0.159229
Si Si2 0.623896 0.033027 0.375396
Si Si3 0.533799 0.617705 0.953791
Si Si4 0.704954 0.406443 0.565732
Si Si5 0.386604 0.273971 0.464004
Si Si6 0.750000 0.250000 0.715377
Si Si7 0.750000 0.750000 0.790347
O O1 0.155127 0.735588 0.178902
O O2 0.039174 0.646783 0.324266
O O3 0.992676 0.690492 0.042597
O O4 0.130204 0.597441 0.076662
O O5 0.527832 0.082451 0.407518
O O6 0.701308 0.050324 0.506708
O O7 0.660264 0.049389 0.206301
O O8 0.602678 0.945002 0.381009
O O9 0.601202 0.683969 0.019343
O O10 0.732273 0.322249 0.612378
O O11 0.319945 0.302588 0.604715
O O12 0.325706 0.296389 0.313381
#
# Coordination Sequence:
#
# PCOD8229359 Si02
#       7
#     8   8   8   8   8   4   4
#     4  12  24  42  72 108 140 175 231 293 354 412
#     4  11  25  44  65  95 145 183 226 275 334 438
#     4  11  24  45  66  95 140 188 226 278 346 406
#     4  12  24  42  67 105 137 180 230 277 357 411
#     4  11  23  44  67 102 132 175 231 294 342 405
#     4  12  22  40  72 108 146 172 216 302 350 420
#     4  10  24  42  66  96 132 168 234 286 338 400
#
# _framework density 22.225992000000002
#
# number of rings (size 3 to 8) (size 9 to 14) (size 15 to 20)
#    0.000    0.667    5.000    2.500    2.333    2.000 
#    0.000    0.000    0.000    0.000    0.000    0.000 
#    0.000    0.000    0.000    0.000    0.000    0.000 
#
# Total GULP energy -595091.130824 kJ/mol
# GULP energy per Si atom -12397.731892 kJ/mol
# Density = 2.217540 g / cm^3
# Si number density = 22.225992 Si / 1000 Ang^3
#
#
#
# Elastic Constant Matrix: (Units=GPa)
#
#
# Indices 1 2 3 4 5 6 
#
# 1 137.0363 37.2055 42.1277 0.0000 0.0000 0.0000
# 2 37.2055 81.3694 9.8650 0.0000 0.0000 0.0000
# 3 42.1277 9.8650 101.6352 0.0000 0.0000 0.0000
# 4 0.0000 0.0000 0.0000 18.8183 0.0000 0.0000
# 5 0.0000 0.0000 0.0000 0.0000 42.0269 0.0000
# 6 0.0000 0.0000 0.0000 0.0000 0.0000 27.4151
#
#
#
# Elastic Compliance Matrix: (Units=1/GPa)
#
#
# Indices 1 2 3 4 5 6 
#
# 1 0.009440 -0.003888 -0.003535 0.000000 0.000000 0.000000
# 2 -0.003888 0.014037 0.000249 0.000000 0.000000 0.000000
# 3 -0.003535 0.000249 0.011280 0.000000 0.000000 0.000000
# 4 0.000000 0.000000 0.000000 0.053140 0.000000 0.000000
# 5 0.000000 0.000000 0.000000 0.000000 0.023794 0.000000
# 6 0.000000 0.000000 0.000000 0.000000 0.000000 0.036476
#
#
# Mechanical properties :
#
#
# Convention : Reuss Voigt Hill
#
# Bulk Modulus (GPa) = 48.99811 55.38193 52.19002
# Shear Modulus (GPa) = 29.53012 33.04155 31.28584
#
# Velocity S-wave (km/s) = 3.64899 3.85985 3.75590
# Velocity P-wave (km/s) = 6.31243 6.69599 6.50704
#
# Compressibility (1/GPa) = 0.02040895
#
# Stress axis : x y z
#
# Youngs Moduli (GPa) = 105.93579 71.24018 88.64954
#
# Poissons Ratio (x) = 0.27695 0.31341
# Poissons Ratio (y) = 0.41184 -0.02207
# Poissons Ratio (z) = 0.37453 -0.01773
#
# Static dielectric constant tensor:
#      x y z
#    x 4.393660 0.000000 0.000000 
#    y 0.000000 3.700250 0.000000 
#    z 0.000000 0.000000 4.164520 
# 
# 
# High freq. dielectric constant tensor:
#      x y z
#    x 1.900800 0.000000 0.000000 
#    y 0.000000 1.832870 0.000000 
#    z 0.000000 0.000000 1.890450 
# 
# From -- ./inp_files/3410.got.cif
#   From: 2010.03.12/outbox.cif.g09.slc.cpg/sg56_2_cif.got.tgz:3410.got - 2010.04.16 15:33:40.
