data_PCOD8229319
_publ_section_title
;
Structure prediction by ZEFSAII (Michael W. Deem and Ramdas Pophale) SiO2 
 PCOD8229319
Probable space group: P C C N
;
_chemical_formula_sum "Si O2"
_cell_formula_units_Z 36
_cell_length_a 15.030891
_cell_length_b 8.236653
_cell_length_c 13.638664
_cell_angle_alpha 90.000000
_cell_angle_beta 90.000000
_cell_angle_gamma 90.000000
_cell_volume 1688.524342
_symmetry_space_group_name_H-M "P C C N"
_symmetry_group_IT_number 56
_symmetry_cell_setting 'orthorhombic'
loop_
_space_group_symop_operation_xyz
x,y,z
1/2-x,1/2-y,z
1/2+x,-y,1/2-z
-x,1/2+y,1/2-z
-x,-y,-z
1/2+x,1/2+y,-z
1/2-x,y,1/2+z
x,1/2-y,1/2+z
loop_
_atom_site_type_symbol
_atom_site_label
_atom_site_fract_x
_atom_site_fract_y
_atom_site_fract_z
Si Si1 0.996930 0.467320 0.657474
Si Si2 0.886277 0.159354 0.710007
Si Si3 0.613255 0.662500 0.010137
Si Si4 0.250000 0.750000 0.131051
Si Si5 0.197724 0.002336 0.476032
O O1 0.921491 0.336365 0.681264
O O2 0.956618 0.616123 0.594720
O O3 0.033203 0.539250 0.760048
O O4 0.077060 0.386786 0.596320
O O5 0.822947 0.161062 0.803924
O O6 0.828565 0.093224 0.621043
O O7 0.626158 0.855842 0.006496
O O8 0.704187 0.572826 0.036326
O O9 0.195644 0.620814 0.066449
#
# Coordination Sequence:
#
# PCOD8229319 Si02
#       5
#     8   8   8   4   8
#     4  11  24  44  66 107 134 178 228 292 342 410
#     4  12  26  42  71 100 138 179 230 284 344 416
#     4  10  23  46  69  93 142 174 232 283 347 407
#     4  12  24  44  68  98 134 182 232 276 334 424
#     4  11  24  46  68  97 132 191 220 283 342 417
#
# _framework density 21.320391999999998
#
# number of rings (size 3 to 8) (size 9 to 14) (size 15 to 20)
#    0.000    0.889    2.222    4.667    6.222    0.889 
#    8.000    0.000    0.000    0.000    0.000    0.000 
#    0.000    0.000    0.000    0.000    0.000    0.000 
#
# Total GULP energy -446615.573029 kJ/mol
# GULP energy per Si atom -12405.988140 kJ/mol
# Density = 2.127187 g / cm^3
# Si number density = 21.320392 Si / 1000 Ang^3
#
#
#
# Elastic Constant Matrix: (Units=GPa)
#
#
# Indices 1 2 3 4 5 6 
#
# 1 78.4868 45.8879 48.4989 0.0000 0.0000 0.0000
# 2 45.8879 139.7221 67.3835 0.0000 0.0000 0.0000
# 3 48.4989 67.3835 128.1590 0.0000 0.0000 0.0000
# 4 0.0000 0.0000 0.0000 35.1080 0.0000 0.0000
# 5 0.0000 0.0000 0.0000 0.0000 18.9282 0.0000
# 6 0.0000 0.0000 0.0000 0.0000 0.0000 43.0011
#
#
#
# Elastic Compliance Matrix: (Units=1/GPa)
#
#
# Indices 1 2 3 4 5 6 
#
# 1 0.017810 -0.003482 -0.004909 0.000000 0.000000 0.000000
# 2 -0.003482 0.010269 -0.004082 0.000000 0.000000 0.000000
# 3 -0.004909 -0.004082 0.011807 0.000000 0.000000 0.000000
# 4 0.000000 0.000000 0.000000 0.028484 0.000000 0.000000
# 5 0.000000 0.000000 0.000000 0.000000 0.052831 0.000000
# 6 0.000000 0.000000 0.000000 0.000000 0.000000 0.023255
#
#
# Mechanical properties :
#
#
# Convention : Reuss Voigt Hill
#
# Bulk Modulus (GPa) = 66.93176 74.43428 70.68302
# Shear Modulus (GPa) = 28.67284 31.71396 30.19340
#
# Velocity S-wave (km/s) = 3.67120 3.86099 3.76729
# Velocity P-wave (km/s) = 7.03077 7.40705 7.22136
#
# Compressibility (1/GPa) = 0.01494059
#
# Stress axis : x y z
#
# Youngs Moduli (GPa) = 56.14784 97.38057 84.69790
#
# Poissons Ratio (x) = 0.33905 0.41580
# Poissons Ratio (y) = 0.19549 0.34571
# Poissons Ratio (z) = 0.27564 0.39748
#
# Static dielectric constant tensor:
#      x y z
#    x 3.937610 0.000000 0.000000 
#    y 0.000000 4.060910 0.000000 
#    z 0.000000 0.000000 3.789170 
# 
# 
# High freq. dielectric constant tensor:
#      x y z
#    x 1.846260 0.000000 0.000000 
#    y 0.000000 1.846150 0.000000 
#    z 0.000000 0.000000 1.839780 
# 
# From -- ./inp_files/10284.got.cif
#   From: 2010.03.12/outbox.cif.g09.slc.cpg/sg56_6_cif.got.tgz:10284.got - 2010.04.16 15:33:40.
