data_PCOD8229253
_publ_section_title
;
Structure prediction by ZEFSAII (Michael W. Deem and Ramdas Pophale) SiO2 
 PCOD8229253
Probable space group: P C C N
;
_chemical_formula_sum "Si O2"
_cell_formula_units_Z 48
_cell_length_a 12.511871
_cell_length_b 13.725685
_cell_length_c 13.775625
_cell_angle_alpha 90.000000
_cell_angle_beta 90.000000
_cell_angle_gamma 90.000000
_cell_volume 2365.743185
_symmetry_space_group_name_H-M "P C C N"
_symmetry_group_IT_number 56
_symmetry_cell_setting 'orthorhombic'
loop_
_space_group_symop_operation_xyz
x,y,z
1/2-x,1/2-y,z
1/2+x,-y,1/2-z
-x,1/2+y,1/2-z
-x,-y,-z
1/2+x,1/2+y,-z
1/2-x,y,1/2+z
x,1/2-y,1/2+z
loop_
_atom_site_type_symbol
_atom_site_label
_atom_site_fract_x
_atom_site_fract_y
_atom_site_fract_z
Si Si1 0.962822 0.851209 0.760428
Si Si2 0.693794 0.149920 0.831496
Si Si3 0.218880 0.008919 0.295923
Si Si4 0.502130 0.386743 0.017955
Si Si5 0.351555 0.188333 0.352312
Si Si6 0.243668 0.645359 0.459214
O O1 0.894962 0.938418 0.712179
O O2 0.959463 0.859384 0.875929
O O3 0.913532 0.747091 0.731472
O O4 0.082482 0.860382 0.723432
O O5 0.750000 0.250000 0.800168
O O6 0.678398 0.143896 0.947305
O O7 0.765144 0.057893 0.798379
O O8 0.314775 0.086711 0.304929
O O9 0.220397 0.941951 0.391250
O O10 0.500000 0.500000 0.000000
O O11 0.429280 0.328284 0.942591
O O12 0.623796 0.358108 0.000986
O O13 0.250000 0.250000 0.390428
O O14 0.250000 0.750000 0.404275
#
# Coordination Sequence:
#
# PCOD8229253 Si02
#       6
#     8   8   8   8   8   8
#     4  11  25  42  66  99 130 174 218 272 330 393
#     4  11  23  42  67  93 132 168 217 277 329 387
#     4  11  23  42  64  98 130 170 220 266 335 388
#     4  12  22  44  71  95 126 184 224 262 340 400
#     4  10  23  42  62  97 139 168 221 274 323 397
#     4  11  23  41  65  95 129 168 217 275 329 395
#
# _framework density 20.289607
#
# number of rings (size 3 to 8) (size 9 to 14) (size 15 to 20)
#    0.000    1.000    3.333    3.500    0.000    4.000 
#    3.000    0.000    0.000    0.000    0.000    0.000 
#    0.000    0.000    0.000    0.000    0.000    0.000 
#
# Total GULP energy -595307.275996 kJ/mol
# GULP energy per Si atom -12402.234917 kJ/mol
# Density = 2.024343 g / cm^3
# Si number density = 20.289607 Si / 1000 Ang^3
#
#
#
# Elastic Constant Matrix: (Units=GPa)
#
#
# Indices 1 2 3 4 5 6 
#
# 1 85.2739 38.7026 27.8277 0.0000 0.0000 0.0000
# 2 38.7026 156.3235 58.8840 0.0000 0.0000 0.0000
# 3 27.8277 58.8840 131.8203 0.0000 0.0000 0.0000
# 4 0.0000 0.0000 0.0000 38.1231 0.0000 0.0000
# 5 0.0000 0.0000 0.0000 0.0000 28.6676 0.0000
# 6 0.0000 0.0000 0.0000 0.0000 0.0000 27.1172
#
#
#
# Elastic Compliance Matrix: (Units=1/GPa)
#
#
# Indices 1 2 3 4 5 6 
#
# 1 0.013497 -0.002727 -0.001631 0.000000 0.000000 0.000000
# 2 -0.002727 0.008242 -0.003106 0.000000 0.000000 0.000000
# 3 -0.001631 -0.003106 0.009318 0.000000 0.000000 0.000000
# 4 0.000000 0.000000 0.000000 0.026231 0.000000 0.000000
# 5 0.000000 0.000000 0.000000 0.000000 0.034883 0.000000
# 6 0.000000 0.000000 0.000000 0.000000 0.000000 0.036877
#
#
# Mechanical properties :
#
#
# Convention : Reuss Voigt Hill
#
# Bulk Modulus (GPa) = 62.00223 69.36071 65.68147
# Shear Modulus (GPa) = 33.47793 35.31513 34.39653
#
# Velocity S-wave (km/s) = 4.06643 4.17652 4.12184
# Velocity P-wave (km/s) = 7.25760 7.58402 7.42260
#
# Compressibility (1/GPa) = 0.01612845
#
# Stress axis : x y z
#
# Youngs Moduli (GPa) = 74.09086 121.32712 107.32073
#
# Poissons Ratio (x) = 0.33088 0.17504
# Poissons Ratio (y) = 0.20206 0.33334
# Poissons Ratio (z) = 0.12084 0.37685
#
# Static dielectric constant tensor:
#      x y z
#    x 4.034940 0.000000 0.000000 
#    y 0.000000 3.950220 0.000000 
#    z 0.000000 0.000000 3.679130 
# 
# 
# High freq. dielectric constant tensor:
#      x y z
#    x 1.797980 0.000000 0.000000 
#    y 0.000000 1.813350 0.000000 
#    z 0.000000 0.000000 1.794830 
# 
# From -- ./inp_files/11582.got.cif
#   From: 2010.03.12/outbox.cif.g09.slc.cpg/sg56_6_cif.got.tgz:11582.got - 2010.04.16 15:33:40.
