data_PCOD8229491
_publ_section_title
;
Structure prediction by ZEFSAII (Michael W. Deem and Ramdas Pophale) SiO2 
 PCOD8229491
Probable space group: P C C N
;
_chemical_formula_sum "Si O2"
_cell_formula_units_Z 28
_cell_length_a 5.411917
_cell_length_b 19.827461
_cell_length_c 9.253279
_cell_angle_alpha 90.000000
_cell_angle_beta 90.000000
_cell_angle_gamma 90.000000
_cell_volume 992.919154
_symmetry_space_group_name_H-M "P C C N"
_symmetry_group_IT_number 56
_symmetry_cell_setting 'orthorhombic'
loop_
_space_group_symop_operation_xyz
x,y,z
1/2-x,1/2-y,z
1/2+x,-y,1/2-z
-x,1/2+y,1/2-z
-x,-y,-z
1/2+x,1/2+y,-z
1/2-x,y,1/2+z
x,1/2-y,1/2+z
loop_
_atom_site_type_symbol
_atom_site_label
_atom_site_fract_x
_atom_site_fract_y
_atom_site_fract_z
Si Si1 0.056571 0.693801 0.637607
Si Si2 0.750000 0.750000 0.880091
Si Si3 0.192386 0.450928 0.573539
Si Si4 0.442527 0.580218 0.654674
O O1 0.250000 0.750000 0.683915
O O2 0.193475 0.621787 0.622563
O O3 0.865329 0.693206 0.771881
O O4 0.944794 0.711741 0.481835
O O5 0.394648 0.499598 0.650376
O O6 0.338981 0.401950 0.461141
O O7 0.000000 0.500000 0.500000
O O8 0.051447 0.403302 0.687653
#
# Coordination Sequence:
#
# PCOD8229491 Si02
#       4
#     8   4   8   8
#     4  11  26  51  81 118 159 213 274 335 409 487
#     4  10  26  54  76 118 160 216 268 332 418 480
#     4  11  24  49  76 117 157 212 264 334 409 473
#     4  11  26  49  79 115 162 208 274 331 404 493
#
# _framework density 28.199676
#
# number of rings (size 3 to 8) (size 9 to 14) (size 15 to 20)
#    0.000    1.143    2.857    0.857    0.000   11.429 
#    5.143    5.714    0.000    0.000    0.000    0.000 
#    0.000    0.000    0.000    0.000    0.000    0.000 
#
# Total GULP energy -347338.013862 kJ/mol
# GULP energy per Si atom -12404.929067 kJ/mol
# Density = 2.813549 g / cm^3
# Si number density = 28.199676 Si / 1000 Ang^3
#
#
#
# Elastic Constant Matrix: (Units=GPa)
#
#
# Indices 1 2 3 4 5 6 
#
# 1 137.6393 32.5254 87.2791 0.0000 0.0000 0.0000
# 2 32.5254 93.1087 55.2276 0.0000 0.0000 0.0000
# 3 87.2791 55.2276 233.3584 0.0000 0.0000 0.0000
# 4 0.0000 0.0000 0.0000 32.3435 0.0000 0.0000
# 5 0.0000 0.0000 0.0000 0.0000 54.5368 0.0000
# 6 0.0000 0.0000 0.0000 0.0000 0.0000 70.5805
#
#
#
# Elastic Compliance Matrix: (Units=1/GPa)
#
#
# Indices 1 2 3 4 5 6 
#
# 1 0.009687 -0.001437 -0.003283 0.000000 0.000000 0.000000
# 2 -0.001437 0.012707 -0.002470 0.000000 0.000000 0.000000
# 3 -0.003283 -0.002470 0.006098 0.000000 0.000000 0.000000
# 4 0.000000 0.000000 0.000000 0.030918 0.000000 0.000000
# 5 0.000000 0.000000 0.000000 0.000000 0.018336 0.000000
# 6 0.000000 0.000000 0.000000 0.000000 0.000000 0.014168
#
#
# Mechanical properties :
#
#
# Convention : Reuss Voigt Hill
#
# Bulk Modulus (GPa) = 70.85982 90.46338 80.66160
# Shear Modulus (GPa) = 45.04628 50.76379 47.90503
#
# Velocity S-wave (km/s) = 4.00109 4.24743 4.12610
# Velocity P-wave (km/s) = 6.82110 7.49689 7.16697
#
# Compressibility (1/GPa) = 0.01411237
#
# Stress axis : x y z
#
# Youngs Moduli (GPa) = 103.23553 78.69645 163.99669
#
# Poissons Ratio (x) = 0.11305 0.53839
# Poissons Ratio (y) = 0.14830 0.40508
# Poissons Ratio (z) = 0.33892 0.19438
#
# Static dielectric constant tensor:
#      x y z
#    x 5.562370 0.000000 0.000000 
#    y 0.000000 5.137990 0.000000 
#    z 0.000000 0.000000 5.198310 
# 
# 
# High freq. dielectric constant tensor:
#      x y z
#    x 2.157070 0.000000 0.000000 
#    y 0.000000 2.135140 0.000000 
#    z 0.000000 0.000000 2.156590 
# 
# From -- ./inp_files/1535.got.cif
#   From: 2010.03.12/outbox.cif.g09.slc.cpg/sg56_1_cif.got.tgz:1535.got - 2010.04.16 15:33:40.
