data_PCOD8229656
_publ_section_title
;
Structure prediction by ZEFSAII (Michael W. Deem and Ramdas Pophale) SiO2 
 PCOD8229656
Probable space group: P C C N
;
_chemical_formula_sum "Si O2"
_cell_formula_units_Z 64
_cell_length_a 11.669152
_cell_length_b 28.419670
_cell_length_c 8.816319
_cell_angle_alpha 90.000000
_cell_angle_beta 90.000000
_cell_angle_gamma 90.000000
_cell_volume 2923.786278
_symmetry_space_group_name_H-M "P C C N"
_symmetry_group_IT_number 56
_symmetry_cell_setting 'orthorhombic'
loop_
_space_group_symop_operation_xyz
x,y,z
1/2-x,1/2-y,z
1/2+x,-y,1/2-z
-x,1/2+y,1/2-z
-x,-y,-z
1/2+x,1/2+y,-z
1/2-x,y,1/2+z
x,1/2-y,1/2+z
loop_
_atom_site_type_symbol
_atom_site_label
_atom_site_fract_x
_atom_site_fract_y
_atom_site_fract_z
Si Si1 0.926435 0.377197 0.146179
Si Si2 0.004919 0.264480 0.462841
Si Si3 0.344991 0.988090 0.359643
Si Si4 0.870618 0.651963 0.382690
Si Si5 0.995278 0.574175 0.555763
Si Si6 0.879618 0.026903 0.484429
Si Si7 0.145761 0.719273 0.810033
Si Si8 0.130152 0.329549 0.964476
O O1 0.880964 0.420490 0.049089
O O2 0.828068 0.336264 0.159339
O O3 0.957374 0.391470 0.316435
O O4 0.035753 0.356139 0.061742
O O5 0.041146 0.308251 0.565263
O O6 0.105841 0.226130 0.451978
O O7 0.889001 0.243154 0.532416
O O8 0.968161 0.280388 0.295175
O O9 0.398152 0.947934 0.466305
O O10 0.217035 0.000549 0.418236
O O11 0.421222 0.034584 0.360804
O O12 0.339613 0.969483 0.188588
O O13 0.914157 0.601406 0.438604
O O14 0.748556 0.663643 0.451370
O O15 0.863091 0.648353 0.202176
O O16 0.000000 0.000000 0.500000
O O17 0.250000 0.750000 0.741650
#
# Coordination Sequence:
#
# PCOD8229656 Si02
#       8
#     8   8   8   8   8   8   8   8
#     4  11  24  48  70 108 144 183 247 302 364 451
#     4  11  23  43  66  96 139 179 233 291 359 430
#     4  11  27  47  73 106 148 193 246 305 378 439
#     4  12  24  41  70  99 138 183 238 298 364 437
#     4  11  24  46  74 106 142 189 243 303 374 441
#     4  12  26  48  77 107 151 197 250 312 377 449
#     4  11  24  45  70  99 137 187 237 294 357 437
#     4  11  26  41  66 102 139 185 236 299 364 432
#
# _framework density 21.889424999999999
#
# number of rings (size 3 to 8) (size 9 to 14) (size 15 to 20)
#    0.000    0.750    3.750    3.000    5.250    3.000 
#   11.250    0.000    0.000    0.000    0.000    0.000 
#    0.000    0.000    0.000    0.000    0.000    0.000 
#
# Total GULP energy -793840.493818 kJ/mol
# GULP energy per Si atom -12403.757716 kJ/mol
# Density = 2.183960 g / cm^3
# Si number density = 21.889425 Si / 1000 Ang^3
#
#
#
# Elastic Constant Matrix: (Units=GPa)
#
#
# Indices 1 2 3 4 5 6 
#
# 1 105.4620 32.3598 35.3578 0.0000 0.0000 0.0000
# 2 32.3598 100.9290 35.4785 0.0000 0.0000 0.0000
# 3 35.3578 35.4785 137.5378 0.0000 0.0000 0.0000
# 4 0.0000 0.0000 0.0000 36.2302 0.0000 0.0000
# 5 0.0000 0.0000 0.0000 0.0000 34.2530 0.0000
# 6 0.0000 0.0000 0.0000 0.0000 0.0000 26.7295
#
#
#
# Elastic Compliance Matrix: (Units=1/GPa)
#
#
# Indices 1 2 3 4 5 6 
#
# 1 0.011051 -0.002798 -0.002119 0.000000 0.000000 0.000000
# 2 -0.002798 0.011605 -0.002274 0.000000 0.000000 0.000000
# 3 -0.002119 -0.002274 0.008402 0.000000 0.000000 0.000000
# 4 0.000000 0.000000 0.000000 0.027601 0.000000 0.000000
# 5 0.000000 0.000000 0.000000 0.000000 0.029195 0.000000
# 6 0.000000 0.000000 0.000000 0.000000 0.000000 0.037412
#
#
# Mechanical properties :
#
#
# Convention : Reuss Voigt Hill
#
# Bulk Modulus (GPa) = 59.97080 61.14676 60.55878
# Shear Modulus (GPa) = 34.43365 35.49139 34.96252
#
# Velocity S-wave (km/s) = 3.97050 4.03102 4.00088
# Velocity P-wave (km/s) = 6.96250 7.04702 7.00489
#
# Compressibility (1/GPa) = 0.01667478
#
# Stress axis : x y z
#
# Youngs Moduli (GPa) = 90.48790 86.17329 119.01750
#
# Poissons Ratio (x) = 0.24114 0.25222
# Poissons Ratio (y) = 0.25321 0.27065
# Poissons Ratio (z) = 0.19176 0.19596
#
# Static dielectric constant tensor:
#      x y z
#    x 3.809120 0.000000 0.000000 
#    y 0.000000 4.178440 0.000000 
#    z 0.000000 0.000000 4.066450 
# 
# 
# High freq. dielectric constant tensor:
#      x y z
#    x 1.855960 0.000000 0.000000 
#    y 0.000000 1.870240 0.000000 
#    z 0.000000 0.000000 1.880720 
# 
# From -- ./inp_files/2954.got.cif
#   From: 2010.03.12/outbox.cif.g09.slc.cpg/sg56_2_cif.got.tgz:2954.got - 2010.04.16 15:33:40.
