data_PCOD8229551
_publ_section_title
;
Structure prediction by ZEFSAII (Michael W. Deem and Ramdas Pophale) SiO2 
 PCOD8229551
Probable space group: P C C N
;
_chemical_formula_sum "Si O2"
_cell_formula_units_Z 56
_cell_length_a 13.879149
_cell_length_b 9.256502
_cell_length_c 19.680191
_cell_angle_alpha 90.000000
_cell_angle_beta 90.000000
_cell_angle_gamma 90.000000
_cell_volume 2528.360789
_symmetry_space_group_name_H-M "P C C N"
_symmetry_group_IT_number 56
_symmetry_cell_setting 'orthorhombic'
loop_
_space_group_symop_operation_xyz
x,y,z
1/2-x,1/2-y,z
1/2+x,-y,1/2-z
-x,1/2+y,1/2-z
-x,-y,-z
1/2+x,1/2+y,-z
1/2-x,y,1/2+z
x,1/2-y,1/2+z
loop_
_atom_site_type_symbol
_atom_site_label
_atom_site_fract_x
_atom_site_fract_y
_atom_site_fract_z
Si Si1 0.800650 0.551943 0.265994
Si Si2 0.212237 0.402738 0.086001
Si Si3 0.487615 0.939104 0.893971
Si Si4 0.292386 0.592424 0.460759
Si Si5 0.951951 0.714333 0.178389
Si Si6 0.166199 0.479807 0.343216
Si Si7 0.894534 0.225380 0.721558
O O1 0.770799 0.567781 0.344349
O O2 0.892044 0.646638 0.242593
O O3 0.711073 0.604455 0.221333
O O4 0.807624 0.382145 0.242863
O O5 0.250000 0.250000 0.057716
O O6 0.096443 0.399607 0.087660
O O7 0.238746 0.528126 0.033130
O O8 0.408499 0.892518 0.950794
O O9 0.471319 0.864915 0.821590
O O10 0.466031 0.108831 0.885207
O O11 0.250000 0.750000 0.454431
O O12 0.245095 0.489190 0.403127
O O13 0.058952 0.731386 0.207424
O O14 0.919711 0.866024 0.143119
O O15 0.132442 0.640326 0.325598
#
# Coordination Sequence:
#
# PCOD8229551 Si02
#       7
#     8   8   8   8   8   8   8
#     4  11  22  41  64  98 139 174 223 290 340 404
#     4  12  28  46  72 101 139 182 240 292 350 419
#     4  11  24  46  67  99 141 181 224 291 346 412
#     4  12  26  49  69  98 140 189 226 286 351 427
#     4  11  23  36  73 105 139 174 231 286 350 409
#     4  12  21  40  71 100 135 179 233 274 344 422
#     4  11  21  39  69 102 139 178 221 285 349 403
#
# _framework density 22.148737000000001
#
# number of rings (size 3 to 8) (size 9 to 14) (size 15 to 20)
#    0.000    0.571    4.286    6.429    2.000    2.286 
#    0.000    0.714    0.000    0.000    0.000    0.000 
#    0.000    0.000    0.000    0.000    0.000    0.000 
#
# Total GULP energy -693934.667639 kJ/mol
# GULP energy per Si atom -12391.690494 kJ/mol
# Density = 2.209833 g / cm^3
# Si number density = 22.148737 Si / 1000 Ang^3
#
#
#
# Elastic Constant Matrix: (Units=GPa)
#
#
# Indices 1 2 3 4 5 6 
#
# 1 103.9302 42.5697 27.1759 0.0000 0.0000 0.0000
# 2 42.5697 116.9922 23.2224 0.0000 0.0000 0.0000
# 3 27.1759 23.2224 90.9903 0.0000 0.0000 0.0000
# 4 0.0000 0.0000 0.0000 25.0428 0.0000 0.0000
# 5 0.0000 0.0000 0.0000 0.0000 19.6077 0.0000
# 6 0.0000 0.0000 0.0000 0.0000 0.0000 30.2908
#
#
#
# Elastic Compliance Matrix: (Units=1/GPa)
#
#
# Indices 1 2 3 4 5 6 
#
# 1 0.011851 -0.003802 -0.002569 0.000000 0.000000 0.000000
# 2 -0.003802 0.010224 -0.001474 0.000000 0.000000 0.000000
# 3 -0.002569 -0.001474 0.012134 0.000000 0.000000 0.000000
# 4 0.000000 0.000000 0.000000 0.039932 0.000000 0.000000
# 5 0.000000 0.000000 0.000000 0.000000 0.051000 0.000000
# 6 0.000000 0.000000 0.000000 0.000000 0.000000 0.033013
#
#
# Mechanical properties :
#
#
# Convention : Reuss Voigt Hill
#
# Bulk Modulus (GPa) = 54.00090 55.31651 54.65871
# Shear Modulus (GPa) = 27.77528 29.58458 28.67993
#
# Velocity S-wave (km/s) = 3.54508 3.65872 3.60235
# Velocity P-wave (km/s) = 6.41800 6.54809 6.48337
#
# Compressibility (1/GPa) = 0.01851821
#
# Stress axis : x y z
#
# Youngs Moduli (GPa) = 84.38093 97.81288 82.41578
#
# Poissons Ratio (x) = 0.37191 0.21174
# Poissons Ratio (y) = 0.32084 0.12145
# Poissons Ratio (z) = 0.21678 0.14414
#
# Static dielectric constant tensor:
#      x y z
#    x 3.981100 0.000000 0.000000 
#    y 0.000000 4.250320 0.000000 
#    z 0.000000 0.000000 3.816310 
# 
# 
# High freq. dielectric constant tensor:
#      x y z
#    x 1.874170 0.000000 0.000000 
#    y 0.000000 1.890290 0.000000 
#    z 0.000000 0.000000 1.851750 
# 
# From -- ./inp_files/18247.got.cif
#   From: 2010.03.12/outbox.cif.g09.slc.cpg/sg56_10_cif.got.tgz:18247.got - 2010.04.16 15:33:40.
