data_PCOD8229263
_publ_section_title
;
Structure prediction by ZEFSAII (Michael W. Deem and Ramdas Pophale) SiO2 
 PCOD8229263
Probable space group: P C C N
;
_chemical_formula_sum "Si O2"
_cell_formula_units_Z 44
_cell_length_a 12.191096
_cell_length_b 7.965618
_cell_length_c 21.143463
_cell_angle_alpha 90.000000
_cell_angle_beta 90.000000
_cell_angle_gamma 90.000000
_cell_volume 2053.233525
_symmetry_space_group_name_H-M "P C C N"
_symmetry_group_IT_number 56
_symmetry_cell_setting 'orthorhombic'
loop_
_space_group_symop_operation_xyz
x,y,z
1/2-x,1/2-y,z
1/2+x,-y,1/2-z
-x,1/2+y,1/2-z
-x,-y,-z
1/2+x,1/2+y,-z
1/2-x,y,1/2+z
x,1/2-y,1/2+z
loop_
_atom_site_type_symbol
_atom_site_label
_atom_site_fract_x
_atom_site_fract_y
_atom_site_fract_z
Si Si1 0.130238 0.314503 0.434466
Si Si2 0.373273 0.269806 0.079344
Si Si3 0.540778 0.426729 0.372505
Si Si4 0.573129 0.375506 0.733250
Si Si5 0.750000 0.250000 0.810146
Si Si6 0.534495 0.459017 0.159974
O O1 0.250000 0.250000 0.416573
O O2 0.119962 0.345247 0.508949
O O3 0.119755 0.487612 0.394773
O O4 0.029940 0.194067 0.416380
O O5 0.250000 0.250000 0.101970
O O6 0.421667 0.408143 0.126102
O O7 0.434320 0.091449 0.085711
O O8 0.461836 0.476425 0.313743
O O9 0.655160 0.339777 0.351658
O O10 0.694175 0.392791 0.764646
O O11 0.488125 0.383458 0.792974
O O12 0.577145 0.195877 0.700334
#
# Coordination Sequence:
#
# PCOD8229263 Si02
#       6
#     8   8   8   8   4   8
#     4  11  24  42  64  94 132 172 215 269 324 387
#     4  10  23  42  68  93 126 169 223 267 328 381
#     4  11  24  42  67  97 129 172 214 274 321 391
#     4  11  23  39  64  97 128 167 214 260 329 384
#     4  12  22  40  68  94 136 164 218 264 330 392
#     4  11  21  43  62  92 131 165 212 270 321 391
#
# _framework density 21.429613
#
# number of rings (size 3 to 8) (size 9 to 14) (size 15 to 20)
#    0.000    1.091    3.636    2.182    2.545    0.000 
#    0.000    1.818    0.000    0.000    0.000    0.000 
#    0.000    0.000    0.000    0.000    0.000    0.000 
#
# Total GULP energy -545285.268187 kJ/mol
# GULP energy per Si atom -12392.847004 kJ/mol
# Density = 2.138084 g / cm^3
# Si number density = 21.429613 Si / 1000 Ang^3
#
#
#
# Elastic Constant Matrix: (Units=GPa)
#
#
# Indices 1 2 3 4 5 6 
#
# 1 103.8990 26.3719 37.1463 0.0000 0.0000 0.0000
# 2 26.3719 91.1290 41.0086 0.0000 0.0000 0.0000
# 3 37.1463 41.0086 94.0654 0.0000 0.0000 0.0000
# 4 0.0000 0.0000 0.0000 28.5087 0.0000 0.0000
# 5 0.0000 0.0000 0.0000 0.0000 21.1717 0.0000
# 6 0.0000 0.0000 0.0000 0.0000 0.0000 27.8425
#
#
#
# Elastic Compliance Matrix: (Units=1/GPa)
#
#
# Indices 1 2 3 4 5 6 
#
# 1 0.011387 -0.001582 -0.003807 0.000000 0.000000 0.000000
# 2 -0.001582 0.013872 -0.005423 0.000000 0.000000 0.000000
# 3 -0.003807 -0.005423 0.014498 0.000000 0.000000 0.000000
# 4 0.000000 0.000000 0.000000 0.035077 0.000000 0.000000
# 5 0.000000 0.000000 0.000000 0.000000 0.047233 0.000000
# 6 0.000000 0.000000 0.000000 0.000000 0.000000 0.035916
#
#
# Mechanical properties :
#
#
# Convention : Reuss Voigt Hill
#
# Bulk Modulus (GPa) = 55.14651 55.34965 55.24808
# Shear Modulus (GPa) = 26.93212 27.80902 27.37057
#
# Velocity S-wave (km/s) = 3.54894 3.60626 3.57771
# Velocity P-wave (km/s) = 6.52556 6.57455 6.55010
#
# Compressibility (1/GPa) = 0.01813351
#
# Stress axis : x y z
#
# Youngs Moduli (GPa) = 87.81594 72.09009 68.97338
#
# Poissons Ratio (x) = 0.11406 0.26259
# Poissons Ratio (y) = 0.13894 0.37401
# Poissons Ratio (z) = 0.33433 0.39092
#
# Static dielectric constant tensor:
#      x y z
#    x 3.929230 0.000000 0.000000 
#    y 0.000000 3.846790 0.000000 
#    z 0.000000 0.000000 4.092500 
# 
# 
# High freq. dielectric constant tensor:
#      x y z
#    x 1.840690 0.000000 0.000000 
#    y 0.000000 1.836040 0.000000 
#    z 0.000000 0.000000 1.855910 
# 
# From -- ./inp_files/20866.got.cif
#   From: 2010.03.12/outbox.cif.g09.slc.cpg/sg56_11_cif.got.tgz:20866.got - 2010.04.16 15:33:40.
