data_PCOD8229373
_publ_section_title
;
Structure prediction by ZEFSAII (Michael W. Deem and Ramdas Pophale) SiO2 
 PCOD8229373
Probable space group: P C C N
;
_chemical_formula_sum "Si O2"
_cell_formula_units_Z 40
_cell_length_a 21.658278
_cell_length_b 8.460507
_cell_length_c 9.032079
_cell_angle_alpha 90.000000
_cell_angle_beta 90.000000
_cell_angle_gamma 90.000000
_cell_volume 1655.038270
_symmetry_space_group_name_H-M "P C C N"
_symmetry_group_IT_number 56
_symmetry_cell_setting 'orthorhombic'
loop_
_space_group_symop_operation_xyz
x,y,z
1/2-x,1/2-y,z
1/2+x,-y,1/2-z
-x,1/2+y,1/2-z
-x,-y,-z
1/2+x,1/2+y,-z
1/2-x,y,1/2+z
x,1/2-y,1/2+z
loop_
_atom_site_type_symbol
_atom_site_label
_atom_site_fract_x
_atom_site_fract_y
_atom_site_fract_z
Si Si1 0.750000 0.750000 0.750250
Si Si2 0.332120 0.790634 0.517348
Si Si3 0.250000 0.750000 0.266631
Si Si4 0.825564 0.585389 0.002406
Si Si5 0.957776 0.599246 0.108043
Si Si6 0.538121 0.395948 0.889456
O O1 0.800430 0.663551 0.852531
O O2 0.715889 0.623915 0.645188
O O3 0.296443 0.854002 0.370605
O O4 0.294250 0.856835 0.660203
O O5 0.327901 0.601722 0.518425
O O6 0.402253 0.843103 0.517372
O O7 0.894985 0.652241 0.026681
O O8 0.939545 0.492473 0.247911
O O9 0.996489 0.749867 0.164077
O O10 0.000000 0.500000 0.000000
O O11 0.500000 0.500000 0.000000
#
# Coordination Sequence:
#
# PCOD8229373 Si02
#       6
#     4   8   4   8   8   8
#     4  10  26  46  72 118 150 208 244 314 390 462
#     4  11  23  46  74 109 147 192 251 315 376 458
#     4  10  24  42  72 112 138 186 240 310 380 446
#     4  11  24  46  74 105 155 191 255 305 381 461
#     4  12  27  49  75 110 149 202 256 317 385 459
#     4  12  29  48  77 109 150 203 260 320 388 459
#
# _framework density 24.168624000000001
#
# number of rings (size 3 to 8) (size 9 to 14) (size 15 to 20)
#    0.000    0.800    2.000    3.600    8.400    1.600 
#    7.200    0.000    0.000    0.000    0.000    0.000 
#    0.000    0.000    0.000    0.000    0.000    0.000 
#
# Total GULP energy -496028.690479 kJ/mol
# GULP energy per Si atom -12400.717262 kJ/mol
# Density = 2.411362 g / cm^3
# Si number density = 24.168624 Si / 1000 Ang^3
#
#
#
# Elastic Constant Matrix: (Units=GPa)
#
#
# Indices 1 2 3 4 5 6 
#
# 1 202.8409 44.2213 66.3277 0.0000 0.0000 0.0000
# 2 44.2213 102.6548 34.0959 0.0000 0.0000 0.0000
# 3 66.3277 34.0959 158.3766 0.0000 0.0000 0.0000
# 4 0.0000 0.0000 0.0000 30.0570 0.0000 0.0000
# 5 0.0000 0.0000 0.0000 0.0000 43.5075 0.0000
# 6 0.0000 0.0000 0.0000 0.0000 0.0000 43.7979
#
#
#
# Elastic Compliance Matrix: (Units=1/GPa)
#
#
# Indices 1 2 3 4 5 6 
#
# 1 0.006037 -0.001896 -0.002120 0.000000 0.000000 0.000000
# 2 -0.001896 0.011087 -0.001593 0.000000 0.000000 0.000000
# 3 -0.002120 -0.001593 0.007545 0.000000 0.000000 0.000000
# 4 0.000000 0.000000 0.000000 0.033270 0.000000 0.000000
# 5 0.000000 0.000000 0.000000 0.000000 0.022985 0.000000
# 6 0.000000 0.000000 0.000000 0.000000 0.000000 0.022832
#
#
# Mechanical properties :
#
#
# Convention : Reuss Voigt Hill
#
# Bulk Modulus (GPa) = 74.34514 83.68467 79.01491
# Shear Modulus (GPa) = 41.85613 44.75431 43.30522
#
# Velocity S-wave (km/s) = 4.16605 4.30787 4.23755
# Velocity P-wave (km/s) = 7.34637 7.71000 7.53038
#
# Compressibility (1/GPa) = 0.01345078
#
# Stress axis : x y z
#
# Youngs Moduli (GPa) = 165.65706 90.19337 132.54264
#
# Poissons Ratio (x) = 0.17104 0.28097
# Poissons Ratio (y) = 0.31414 0.21111
# Poissons Ratio (z) = 0.35117 0.14365
#
# Static dielectric constant tensor:
#      x y z
#    x 4.874270 0.000000 0.000000 
#    y 0.000000 3.996690 0.000000 
#    z 0.000000 0.000000 15.741060 
# 
# 
# High freq. dielectric constant tensor:
#      x y z
#    x 1.982230 0.000000 0.000000 
#    y 0.000000 1.945450 0.000000 
#    z 0.000000 0.000000 1.978020 
# 
# From -- ./inp_files/4693.got.cif
#   From: 2010.03.12/outbox.cif.g09.slc.cpg/sg56_3_cif.got.tgz:4693.got - 2010.04.16 15:33:40.
