data_PCOD8229291
_publ_section_title
;
Structure prediction by ZEFSAII (Michael W. Deem and Ramdas Pophale) SiO2 
 PCOD8229291
Probable space group: P C C N
;
_chemical_formula_sum "Si O2"
_cell_formula_units_Z 48
_cell_length_a 14.524729
_cell_length_b 4.944054
_cell_length_c 30.658134
_cell_angle_alpha 90.000000
_cell_angle_beta 90.000000
_cell_angle_gamma 90.000000
_cell_volume 2201.592625
_symmetry_space_group_name_H-M "P C C N"
_symmetry_group_IT_number 56
_symmetry_cell_setting 'orthorhombic'
loop_
_space_group_symop_operation_xyz
x,y,z
1/2-x,1/2-y,z
1/2+x,-y,1/2-z
-x,1/2+y,1/2-z
-x,-y,-z
1/2+x,1/2+y,-z
1/2-x,y,1/2+z
x,1/2-y,1/2+z
loop_
_atom_site_type_symbol
_atom_site_label
_atom_site_fract_x
_atom_site_fract_y
_atom_site_fract_z
Si Si1 0.953115 0.669962 0.804440
Si Si2 0.549291 0.243724 0.946055
Si Si3 0.250000 0.750000 0.903478
Si Si4 0.689069 0.494985 0.377489
Si Si5 0.426861 0.172488 0.294804
Si Si6 0.750000 0.750000 0.153065
Si Si7 0.432326 0.742077 0.952601
O O1 0.876012 0.609797 0.839860
O O2 0.908356 0.641332 0.756667
O O3 0.038559 0.467499 0.808174
O O4 0.995138 0.966509 0.811971
O O5 0.634658 0.142801 0.917446
O O6 0.510629 0.539400 0.933430
O O7 0.463860 0.041001 0.939367
O O8 0.581917 0.267136 0.995698
O O9 0.213568 0.497410 0.875683
O O10 0.335290 0.656283 0.932714
O O11 0.750000 0.250000 0.357611
O O12 0.750000 0.750000 0.394381
O O13 0.330287 0.122000 0.317723
#
# Coordination Sequence:
#
# PCOD8229291 Si02
#       7
#     8   8   4   8   8   4   8
#     4  10  23  44  69  92 132 176 216 269 334 386
#     4  10  23  44  69  92 128 174 213 264 332 387
#     4  12  26  40  66 102 130 168 220 272 324 384
#     4  12  26  42  68 103 129 168 221 275 329 389
#     4  10  23  44  66  95 130 178 217 267 329 390
#     4  12  26  40  66 102 130 168 226 268 322 390
#     4  10  23  44  66  94 129 173 213 265 327 387
#
# _framework density 21.802398
#
# number of rings (size 3 to 8) (size 9 to 14) (size 15 to 20)
#    0.000    1.333    0.000    4.000    9.333    0.000 
#    3.000    0.000    0.000    0.000    0.000    0.000 
#    0.000    0.000    0.000    0.000    0.000    0.000 
#
# Total GULP energy -595352.854249 kJ/mol
# GULP energy per Si atom -12403.184464 kJ/mol
# Density = 2.175277 g / cm^3
# Si number density = 21.802398 Si / 1000 Ang^3
#
#
#
# Elastic Constant Matrix: (Units=GPa)
#
#
# Indices 1 2 3 4 5 6 
#
# 1 117.5507 28.7358 71.1470 0.0000 0.0000 0.0000
# 2 28.7358 110.3386 43.0115 0.0000 0.0000 0.0000
# 3 71.1470 43.0115 95.2626 0.0000 0.0000 0.0000
# 4 0.0000 0.0000 0.0000 -4.6836 0.0000 0.0000
# 5 0.0000 0.0000 0.0000 0.0000 11.2930 0.0000
# 6 0.0000 0.0000 0.0000 0.0000 0.0000 28.6949
#
#
#
# Elastic Compliance Matrix: (Units=1/GPa)
#
#
# Indices 1 2 3 4 5 6 
#
# 1 0.015555 0.000580 -0.011879 0.000000 0.000000 0.000000
# 2 0.000580 0.011020 -0.005409 0.000000 0.000000 0.000000
# 3 -0.011879 -0.005409 0.021811 0.000000 0.000000 0.000000
# 4 0.000000 0.000000 0.000000 -0.213510 0.000000 0.000000
# 5 0.000000 0.000000 0.000000 0.000000 0.088550 0.000000
# 6 0.000000 0.000000 0.000000 0.000000 0.000000 0.034849
#
#
# Mechanical properties :
#
#
# Convention : Reuss Voigt Hill
#
# Bulk Modulus (GPa) = 66.79792 67.66007 67.22900
# Shear Modulus (GPa) = -1507.08716 19.07803 -744.00456
#
# Velocity S-wave (km/s) = -26.32013 2.96132 -18.49297
# Velocity P-wave (km/s) = 29.88245 6.54166 20.61756
#
# Compressibility (1/GPa) = 0.01497053
#
# Stress axis : x y z
#
# Youngs Moduli (GPa) = 64.28825 90.74052 45.84822
#
# Poissons Ratio (x) = -0.05259 0.54463
# Poissons Ratio (y) = -0.03726 0.24798
# Poissons Ratio (z) = 0.76367 0.49078
#
# Static dielectric constant tensor:
#      x y z
#    x 3.750530 0.000000 0.000000 
#    y 0.000000 4.263250 0.000000 
#    z 0.000000 0.000000 3.929340 
# 
# 
# High freq. dielectric constant tensor:
#      x y z
#    x 1.853210 0.000000 0.000000 
#    y 0.000000 1.877190 0.000000 
#    z 0.000000 0.000000 1.858100 
# 
# From -- ./inp_files/23583.got.cif
#   From: 2010.03.12/outbox.cif.g09.slc.cpg/sg56_12_cif.got.tgz:23583.got - 2010.04.16 15:33:40.
