data_PCOD8229149
_publ_section_title
;
Structure prediction by ZEFSAII (Michael W. Deem and Ramdas Pophale) SiO2 
 PCOD8229149
Probable space group: P C C N
;
_chemical_formula_sum "Si O2"
_cell_formula_units_Z 60
_cell_length_a 6.034430
_cell_length_b 26.841469
_cell_length_c 17.067946
_cell_angle_alpha 90.000000
_cell_angle_beta 90.000000
_cell_angle_gamma 90.000000
_cell_volume 2764.545833
_symmetry_space_group_name_H-M "P C C N"
_symmetry_group_IT_number 56
_symmetry_cell_setting 'orthorhombic'
loop_
_space_group_symop_operation_xyz
x,y,z
1/2-x,1/2-y,z
1/2+x,-y,1/2-z
-x,1/2+y,1/2-z
-x,-y,-z
1/2+x,1/2+y,-z
1/2-x,y,1/2+z
x,1/2-y,1/2+z
loop_
_atom_site_type_symbol
_atom_site_label
_atom_site_fract_x
_atom_site_fract_y
_atom_site_fract_z
Si Si1 0.700646 0.486875 0.715742
Si Si2 0.516105 0.892419 0.490075
Si Si3 0.362531 0.037373 0.945435
Si Si4 0.895777 0.829294 0.444163
Si Si5 0.369460 0.863482 0.087182
Si Si6 0.202659 0.885229 0.348290
Si Si7 0.250000 0.250000 0.166653
Si Si8 0.121035 0.800771 0.743896
O O1 0.448182 0.502234 0.746207
O O2 0.724722 0.507213 0.628605
O O3 0.683931 0.426997 0.717950
O O4 0.656318 0.942361 0.504429
O O5 0.650876 0.841716 0.473469
O O6 0.381822 0.879598 0.569437
O O7 0.372754 0.904038 0.413921
O O8 0.491564 0.085715 0.914164
O O9 0.500000 0.000000 0.000000
O O10 0.912304 0.779943 0.391576
O O11 0.056275 0.824636 0.519209
O O12 0.969438 0.877232 0.392220
O O13 0.400722 0.835335 0.168345
O O14 0.259440 0.831978 0.311134
O O15 0.379027 0.287755 0.223187
O O16 0.250000 0.750000 0.723928
#
# Coordination Sequence:
#
# PCOD8229149 Si02
#       8
#     8   8   8   8   8   8   4   8
#     4  12  30  47  74 113 156 204 249 314 386 462
#     4  10  22  43  74  99 140 191 236 312 360 452
#     4  11  25  46  75 108 145 196 259 308 386 455
#     4  10  22  43  69 101 130 187 241 298 361 440
#     4  10  25  43  68 105 143 189 237 310 377 445
#     4  11  24  45  72 101 146 190 252 296 381 446
#     4  12  24  42  74 100 136 188 250 302 372 450
#     4  12  26  45  68 103 144 188 242 308 379 446
#
# _framework density 21.703382999999999
#
# number of rings (size 3 to 8) (size 9 to 14) (size 15 to 20)
#    0.000    1.067    2.667    3.200    7.467    5.867 
#    0.000    0.000    0.000    0.000    0.000    0.000 
#    0.000    0.000    0.000    0.000    0.000    0.000 
#
# Total GULP energy -743350.296416 kJ/mol
# GULP energy per Si atom -12389.171607 kJ/mol
# Density = 2.165398 g / cm^3
# Si number density = 21.703383 Si / 1000 Ang^3
#
#
#
# Elastic Constant Matrix: (Units=GPa)
#
#
# Indices 1 2 3 4 5 6 
#
# 1 110.1925 40.9613 36.2468 0.0000 0.0000 0.0000
# 2 40.9613 121.9339 56.2487 0.0000 0.0000 0.0000
# 3 36.2468 56.2487 104.7628 0.0000 0.0000 0.0000
# 4 0.0000 0.0000 0.0000 49.8526 0.0000 0.0000
# 5 0.0000 0.0000 0.0000 0.0000 23.1506 0.0000
# 6 0.0000 0.0000 0.0000 0.0000 0.0000 36.0157
#
#
#
# Elastic Compliance Matrix: (Units=1/GPa)
#
#
# Indices 1 2 3 4 5 6 
#
# 1 0.010798 -0.002531 -0.002377 0.000000 0.000000 0.000000
# 2 -0.002531 0.011494 -0.005296 0.000000 0.000000 0.000000
# 3 -0.002377 -0.005296 0.013211 0.000000 0.000000 0.000000
# 4 0.000000 0.000000 0.000000 0.020059 0.000000 0.000000
# 5 0.000000 0.000000 0.000000 0.000000 0.043195 0.000000
# 6 0.000000 0.000000 0.000000 0.000000 0.000000 0.027766
#
#
# Mechanical properties :
#
#
# Convention : Reuss Voigt Hill
#
# Bulk Modulus (GPa) = 66.24318 67.08919 66.66619
# Shear Modulus (GPa) = 32.90278 35.36594 34.13436
#
# Velocity S-wave (km/s) = 3.89784 4.04110 3.97011
# Velocity P-wave (km/s) = 7.13062 7.26312 7.19718
#
# Compressibility (1/GPa) = 0.01509589
#
# Stress axis : x y z
#
# Youngs Moduli (GPa) = 92.61253 86.99959 75.69307
#
# Poissons Ratio (x) = 0.22017 0.17993
# Poissons Ratio (y) = 0.23437 0.40086
# Poissons Ratio (z) = 0.22015 0.46074
#
# Static dielectric constant tensor:
#      x y z
#    x 6.001670 0.000000 0.000000 
#    y 0.000000 3.942060 0.000000 
#    z 0.000000 0.000000 4.008630 
# 
# 
# High freq. dielectric constant tensor:
#      x y z
#    x 1.860990 0.000000 0.000000 
#    y 0.000000 1.858280 0.000000 
#    z 0.000000 0.000000 1.857110 
# 
# From -- ./inp_files/14104.got.cif
#   From: 2010.03.12/outbox.cif.g09.slc.cpg/sg56_8_cif.got.tgz:14104.got - 2010.04.16 15:33:40.
