data_PCOD8229596
_publ_section_title
;
Structure prediction by ZEFSAII (Michael W. Deem and Ramdas Pophale) SiO2 
 PCOD8229596
Probable space group: P C C N
;
_chemical_formula_sum "Si O2"
_cell_formula_units_Z 60
_cell_length_a 6.379021
_cell_length_b 25.350385
_cell_length_c 17.290316
_cell_angle_alpha 90.000000
_cell_angle_beta 90.000000
_cell_angle_gamma 90.000000
_cell_volume 2796.028036
_symmetry_space_group_name_H-M "P C C N"
_symmetry_group_IT_number 56
_symmetry_cell_setting 'orthorhombic'
loop_
_space_group_symop_operation_xyz
x,y,z
1/2-x,1/2-y,z
1/2+x,-y,1/2-z
-x,1/2+y,1/2-z
-x,-y,-z
1/2+x,1/2+y,-z
1/2-x,y,1/2+z
x,1/2-y,1/2+z
loop_
_atom_site_type_symbol
_atom_site_label
_atom_site_fract_x
_atom_site_fract_y
_atom_site_fract_z
Si Si1 0.184803 0.459005 0.002697
Si Si2 0.118271 0.801567 0.403788
Si Si3 0.847371 0.655976 0.206586
Si Si4 0.338877 0.609088 0.808140
Si Si5 0.574955 0.101317 0.338221
Si Si6 0.750000 0.750000 0.809574
Si Si7 0.989796 0.008453 0.118736
Si Si8 0.921318 0.138144 0.445045
O O1 0.305866 0.460656 0.085199
O O2 0.362891 0.473413 0.942239
O O3 0.085249 0.402593 0.983776
O O4 0.000000 0.500000 0.000000
O O5 0.250000 0.750000 0.392446
O O6 0.254667 0.850409 0.371947
O O7 0.898304 0.788051 0.361771
O O8 0.093554 0.814089 0.494405
O O9 0.637091 0.634732 0.166717
O O10 0.863097 0.711694 0.249493
O O11 0.001078 0.662859 0.134524
O O12 0.925704 0.615997 0.274131
O O13 0.195279 0.621223 0.735901
O O14 0.331497 0.550352 0.843192
O O15 0.696628 0.111680 0.420593
O O16 0.557909 0.038064 0.323259
#
# Coordination Sequence:
#
# PCOD8229596 Si02
#       8
#     8   8   8   8   8   4   8   8
#     4  11  22  41  63  99 142 186 223 279 341 406
#     4  12  27  49  71 103 137 178 238 298 357 419
#     4  11  25  47  71 100 138 184 233 293 354 424
#     4  11  26  43  69 103 140 184 232 293 344 419
#     4  11  24  45  66 103 144 185 229 285 348 424
#     4  12  26  48  76  98 134 186 234 294 370 420
#     4  11  25  39  68 102 143 187 231 279 342 419
#     4  11  26  44  72 103 142 181 238 287 349 422
#
# _framework density 21.459011
#
# number of rings (size 3 to 8) (size 9 to 14) (size 15 to 20)
#    0.000    0.800    5.333    0.800    5.600    3.733 
#    0.000    0.000    0.000    0.000    0.000    0.000 
#    0.000    0.000    0.000    0.000    0.000    0.000 
#
# Total GULP energy -743403.809885 kJ/mol
# GULP energy per Si atom -12390.063498 kJ/mol
# Density = 2.141017 g / cm^3
# Si number density = 21.459011 Si / 1000 Ang^3
#
#
#
# Elastic Constant Matrix: (Units=GPa)
#
#
# Indices 1 2 3 4 5 6 
#
# 1 89.1171 14.2468 23.7976 0.0000 0.0000 0.0000
# 2 14.2468 87.1019 30.4278 0.0000 0.0000 0.0000
# 3 23.7976 30.4278 90.7652 0.0000 0.0000 0.0000
# 4 0.0000 0.0000 0.0000 -164.0734 0.0000 0.0000
# 5 0.0000 0.0000 0.0000 0.0000 26.7102 0.0000
# 6 0.0000 0.0000 0.0000 0.0000 0.0000 35.4676
#
#
#
# Elastic Compliance Matrix: (Units=1/GPa)
#
#
# Indices 1 2 3 4 5 6 
#
# 1 0.012141 -0.000990 -0.002851 0.000000 0.000000 0.000000
# 2 -0.000990 0.013084 -0.004127 0.000000 0.000000 0.000000
# 3 -0.002851 -0.004127 0.013149 0.000000 0.000000 0.000000
# 4 0.000000 0.000000 0.000000 -0.006095 0.000000 0.000000
# 5 0.000000 0.000000 0.000000 0.000000 0.037439 0.000000
# 6 0.000000 0.000000 0.000000 0.000000 0.000000 0.028195
#
#
# Mechanical properties :
#
#
# Convention : Reuss Voigt Hill
#
# Bulk Modulus (GPa) = 44.56774 44.88096 44.72435
# Shear Modulus (GPa) = 41.21068 -7.14499 17.03284
#
# Velocity S-wave (km/s) = 4.38703 -1.82670 2.82039
# Velocity P-wave (km/s) = 6.81728 4.06338 5.61188
#
# Compressibility (1/GPa) = 0.02243776
#
# Stress axis : x y z
#
# Youngs Moduli (GPa) = 82.36655 76.42716 76.05417
#
# Poissons Ratio (x) = 0.07564 0.21686
# Poissons Ratio (y) = 0.08152 0.31387
# Poissons Ratio (z) = 0.23486 0.31540
#
# Static dielectric constant tensor:
#      x y z
#    x 0.727160 0.000000 0.000000 
#    y 0.000000 3.743830 0.000000 
#    z 0.000000 0.000000 3.924900 
# 
# 
# High freq. dielectric constant tensor:
#      x y z
#    x 1.850760 0.000000 0.000000 
#    y 0.000000 1.840140 0.000000 
#    z 0.000000 0.000000 1.848450 
# 
# From -- ./inp_files/14095.got.cif
#   From: 2010.03.12/outbox.cif.g09.slc.cpg/sg56_8_cif.got.tgz:14095.got - 2010.04.16 15:33:40.
