data_PCOD8229439
_publ_section_title
;
Structure prediction by ZEFSAII (Michael W. Deem and Ramdas Pophale) SiO2 
 PCOD8229439
Probable space group: P C C N
;
_chemical_formula_sum "Si O2"
_cell_formula_units_Z 56
_cell_length_a 13.374487
_cell_length_b 13.513696
_cell_length_c 13.614047
_cell_angle_alpha 90.000000
_cell_angle_beta 90.000000
_cell_angle_gamma 90.000000
_cell_volume 2460.585857
_symmetry_space_group_name_H-M "P C C N"
_symmetry_group_IT_number 56
_symmetry_cell_setting 'orthorhombic'
loop_
_space_group_symop_operation_xyz
x,y,z
1/2-x,1/2-y,z
1/2+x,-y,1/2-z
-x,1/2+y,1/2-z
-x,-y,-z
1/2+x,1/2+y,-z
1/2-x,y,1/2+z
x,1/2-y,1/2+z
loop_
_atom_site_type_symbol
_atom_site_label
_atom_site_fract_x
_atom_site_fract_y
_atom_site_fract_z
Si Si1 0.945520 0.802730 0.735699
Si Si2 0.750000 0.750000 0.624931
Si Si3 0.601872 0.998941 0.329365
Si Si4 0.956022 0.823187 0.419501
Si Si5 0.055999 0.695212 0.575013
Si Si6 0.648056 0.076342 0.122041
Si Si7 0.250000 0.750000 0.473037
Si Si8 0.751955 0.916035 0.490139
O O1 0.835326 0.805347 0.687230
O O2 0.966870 0.909609 0.786218
O O3 0.946173 0.711628 0.808645
O O4 0.031994 0.779336 0.656696
O O5 0.695744 0.834446 0.558013
O O6 0.683774 0.950448 0.400606
O O7 0.535504 0.082062 0.387019
O O8 0.655886 0.050250 0.236794
O O9 0.850114 0.861433 0.452656
O O10 0.989177 0.726407 0.481930
O O11 0.034071 0.915463 0.418928
O O12 0.172522 0.696506 0.546247
O O13 0.715592 0.006160 0.056799
O O14 0.693427 0.183339 0.105367
#
# Coordination Sequence:
#
# PCOD8229439 Si02
#       8
#     8   4   8   8   8   8   4   8
#     4  12  25  46  69 104 146 190 242 302 358 436
#     4  12  24  46  72 102 150 192 242 304 372 424
#     4  12  25  46  74 109 140 191 253 296 369 439
#     4  11  24  45  72 102 148 193 232 303 374 429
#     4  11  24  49  70 106 148 186 244 302 366 436
#     4  11  23  46  70 106 140 187 246 295 367 448
#     4  10  24  48  74  98 146 192 232 306 372 424
#     4  12  24  45  74 103 146 191 240 305 359 447
#
# _framework density 22.758807999999998
#
# number of rings (size 3 to 8) (size 9 to 14) (size 15 to 20)
#    0.000    0.571    5.714    2.143    0.000    2.286 
#    0.000    0.000    0.000    0.000    0.000    0.000 
#    0.000    0.000    0.000    0.000    0.000    0.000 
#
# Total GULP energy -694181.684403 kJ/mol
# GULP energy per Si atom -12396.101507 kJ/mol
# Density = 2.270701 g / cm^3
# Si number density = 22.758808 Si / 1000 Ang^3
#
#
#
# Elastic Constant Matrix: (Units=GPa)
#
#
# Indices 1 2 3 4 5 6 
#
# 1 53.2536 15.2653 17.8548 0.0000 0.0000 0.0000
# 2 15.2653 101.0589 26.2025 0.0000 0.0000 0.0000
# 3 17.8548 26.2025 102.0924 0.0000 0.0000 0.0000
# 4 0.0000 0.0000 0.0000 54.8169 0.0000 0.0000
# 5 0.0000 0.0000 0.0000 0.0000 -92.0528 0.0000
# 6 0.0000 0.0000 0.0000 0.0000 0.0000 33.2545
#
#
#
# Elastic Compliance Matrix: (Units=1/GPa)
#
#
# Indices 1 2 3 4 5 6 
#
# 1 0.020441 -0.002315 -0.002981 0.000000 0.000000 0.000000
# 2 -0.002315 0.010863 -0.002383 0.000000 0.000000 0.000000
# 3 -0.002981 -0.002383 0.010928 0.000000 0.000000 0.000000
# 4 0.000000 0.000000 0.000000 0.018243 0.000000 0.000000
# 5 0.000000 0.000000 0.000000 0.000000 -0.010863 0.000000
# 6 0.000000 0.000000 0.000000 0.000000 0.000000 0.030071
#
#
# Mechanical properties :
#
#
# Convention : Reuss Voigt Hill
#
# Bulk Modulus (GPa) = 37.21031 41.67222 39.44126
# Shear Modulus (GPa) = 48.07794 12.34253 30.21023
#
# Velocity S-wave (km/s) = 4.60118 2.33130 3.64731
# Velocity P-wave (km/s) = 6.67931 5.05932 5.92494
#
# Compressibility (1/GPa) = 0.02687428
#
# Stress axis : x y z
#
# Youngs Moduli (GPa) = 48.92123 92.05743 91.50805
#
# Poissons Ratio (x) = 0.21310 0.27277
# Poissons Ratio (y) = 0.11324 0.21808
# Poissons Ratio (z) = 0.14582 0.21939
#
# Static dielectric constant tensor:
#      x y z
#    x 3.990830 0.000000 0.000000 
#    y 0.000000 4.349840 0.000000 
#    z 0.000000 0.000000 4.430770 
# 
# 
# High freq. dielectric constant tensor:
#      x y z
#    x 1.882170 0.000000 0.000000 
#    y 0.000000 1.909280 0.000000 
#    z 0.000000 0.000000 1.915620 
# 
# From -- ./inp_files/7931.got.cif
#   From: 2010.03.12/outbox.cif.g09.slc.cpg/sg56_4_cif.got.tgz:7931.got - 2010.04.16 15:33:40.
