data_PCOD8229475
_publ_section_title
;
Structure prediction by ZEFSAII (Michael W. Deem and Ramdas Pophale) SiO2 
 PCOD8229475
Probable space group: P C C N
;
_chemical_formula_sum "Si O2"
_cell_formula_units_Z 56
_cell_length_a 17.876390
_cell_length_b 16.405407
_cell_length_c 7.231214
_cell_angle_alpha 90.000000
_cell_angle_beta 90.000000
_cell_angle_gamma 90.000000
_cell_volume 2120.694179
_symmetry_space_group_name_H-M "P C C N"
_symmetry_group_IT_number 56
_symmetry_cell_setting 'orthorhombic'
loop_
_space_group_symop_operation_xyz
x,y,z
1/2-x,1/2-y,z
1/2+x,-y,1/2-z
-x,1/2+y,1/2-z
-x,-y,-z
1/2+x,1/2+y,-z
1/2-x,y,1/2+z
x,1/2-y,1/2+z
loop_
_atom_site_type_symbol
_atom_site_label
_atom_site_fract_x
_atom_site_fract_y
_atom_site_fract_z
Si Si1 0.867393 0.452434 0.586547
Si Si2 0.775407 0.492991 0.941604
Si Si3 0.925388 0.799754 0.900818
Si Si4 0.529497 0.580413 0.216190
Si Si5 0.914418 0.206125 0.243583
Si Si6 0.870955 0.865282 0.533278
Si Si7 0.119903 0.630067 0.871479
O O1 0.814149 0.475334 0.412248
O O2 0.946802 0.497703 0.608385
O O3 0.883112 0.356548 0.590807
O O4 0.811207 0.485249 0.742873
O O5 0.792738 0.585090 0.015882
O O6 0.808729 0.423830 0.080505
O O7 0.889668 0.860918 0.751180
O O8 0.002680 0.764126 0.815684
O O9 0.941367 0.844610 0.093449
O O10 0.868467 0.725725 0.946838
O O11 0.566747 0.582487 0.420398
O O12 0.439332 0.578926 0.243163
O O13 0.919458 0.160980 0.439163
O O14 0.861133 0.286466 0.241377
#
# Coordination Sequence:
#
# PCOD8229475 Si02
#       7
#     8   8   8   8   8   8   8
#     4  10  26  45  66  95 137 186 230 286 347 420
#     4  10  26  45  67  93 141 191 231 283 348 424
#     4  12  21  38  68 100 132 172 223 293 347 405
#     4  11  23  41  67 101 134 174 229 287 354 404
#     4  11  22  40  68 103 140 170 229 290 355 412
#     4  11  22  41  67  96 143 172 228 291 342 415
#     4  11  22  42  68 102 140 179 222 298 351 409
#
# _framework density 26.406448000000001
#
# number of rings (size 3 to 8) (size 9 to 14) (size 15 to 20)
#    0.000    1.143    4.286    0.857    4.000    5.143 
#    0.000    3.571    0.000    0.000    0.000    0.000 
#    0.000    0.000    0.000    0.000    0.000    0.000 
#
# Total GULP energy -694220.496707 kJ/mol
# GULP energy per Si atom -12396.794584 kJ/mol
# Density = 2.634635 g / cm^3
# Si number density = 26.406448 Si / 1000 Ang^3
#
#
#
# Elastic Constant Matrix: (Units=GPa)
#
#
# Indices 1 2 3 4 5 6 
#
# 1 76.1770 19.6851 1.5236 0.0000 0.0000 0.0000
# 2 19.6851 93.9166 7.0481 0.0000 0.0000 0.0000
# 3 1.5236 7.0481 75.2633 0.0000 0.0000 0.0000
# 4 0.0000 0.0000 0.0000 19.5060 0.0000 0.0000
# 5 0.0000 0.0000 0.0000 0.0000 27.9468 0.0000
# 6 0.0000 0.0000 0.0000 0.0000 0.0000 31.7563
#
#
#
# Elastic Compliance Matrix: (Units=1/GPa)
#
#
# Indices 1 2 3 4 5 6 
#
# 1 0.013879 -0.002908 -0.000009 0.000000 0.000000 0.000000
# 2 -0.002908 0.011333 -0.001002 0.000000 0.000000 0.000000
# 3 -0.000009 -0.001002 0.013381 0.000000 0.000000 0.000000
# 4 0.000000 0.000000 0.000000 0.051266 0.000000 0.000000
# 5 0.000000 0.000000 0.000000 0.000000 0.035782 0.000000
# 6 0.000000 0.000000 0.000000 0.000000 0.000000 0.031490
#
#
# Mechanical properties :
#
#
# Convention : Reuss Voigt Hill
#
# Bulk Modulus (GPa) = 32.51655 33.54116 33.02885
# Shear Modulus (GPa) = 28.53541 30.31515 29.42528
#
# Velocity S-wave (km/s) = 3.29085 3.39192 3.34177
# Velocity P-wave (km/s) = 5.17496 5.29808 5.23688
#
# Compressibility (1/GPa) = 0.03075357
#
# Stress axis : x y z
#
# Youngs Moduli (GPa) = 72.05097 88.24113 74.73436
#
# Poissons Ratio (x) = 0.25664 0.00064
# Poissons Ratio (y) = 0.20956 0.07491
# Poissons Ratio (z) = 0.00062 0.08845
#
# Static dielectric constant tensor:
#      x y z
#    x 4.752620 0.000000 0.000000 
#    y 0.000000 4.977090 0.000000 
#    z 0.000000 0.000000 5.206200 
# 
# 
# High freq. dielectric constant tensor:
#      x y z
#    x 2.021520 0.000000 0.000000 
#    y 0.000000 2.063720 0.000000 
#    z 0.000000 0.000000 2.093080 
# 
# From -- ./inp_files/4493.got.cif
#   From: 2010.03.12/outbox.cif.g09.slc.cpg/sg56_3_cif.got.tgz:4493.got - 2010.04.16 15:33:40.
