data_PCOD8229677
_publ_section_title
;
Structure prediction by ZEFSAII (Michael W. Deem and Ramdas Pophale) SiO2 
 PCOD8229677
Probable space group: P C C N
;
_chemical_formula_sum "Si O2"
_cell_formula_units_Z 64
_cell_length_a 11.089724
_cell_length_b 30.455363
_cell_length_c 8.528001
_cell_angle_alpha 90.000000
_cell_angle_beta 90.000000
_cell_angle_gamma 90.000000
_cell_volume 2880.260447
_symmetry_space_group_name_H-M "P C C N"
_symmetry_group_IT_number 56
_symmetry_cell_setting 'orthorhombic'
loop_
_space_group_symop_operation_xyz
x,y,z
1/2-x,1/2-y,z
1/2+x,-y,1/2-z
-x,1/2+y,1/2-z
-x,-y,-z
1/2+x,1/2+y,-z
1/2-x,y,1/2+z
x,1/2-y,1/2+z
loop_
_atom_site_type_symbol
_atom_site_label
_atom_site_fract_x
_atom_site_fract_y
_atom_site_fract_z
Si Si1 0.158479 0.801849 0.695531
Si Si2 0.519420 0.425845 0.612206
Si Si3 0.893092 0.848392 0.219862
Si Si4 0.575861 0.396343 0.285188
Si Si5 0.243796 0.528653 0.749279
Si Si6 0.909117 0.216610 0.664660
Si Si7 0.162616 0.377795 0.609857
Si Si8 0.714893 0.534421 0.502104
O O1 0.133456 0.850179 0.760984
O O2 0.301759 0.796502 0.716095
O O3 0.080390 0.769137 0.807331
O O4 0.122268 0.794688 0.514397
O O5 0.458467 0.392955 0.732743
O O6 0.583127 0.398886 0.473367
O O7 0.613582 0.452117 0.715837
O O8 0.426837 0.459444 0.529996
O O9 0.758702 0.848751 0.293367
O O10 0.966510 0.806444 0.283533
O O11 0.886782 0.847121 0.030598
O O12 0.650672 0.436541 0.208285
O O13 0.438322 0.395830 0.227869
O O14 0.249878 0.513695 0.569276
O O15 0.252424 0.478893 0.821546
O O16 0.217255 0.421126 0.533465
#
# Coordination Sequence:
#
# PCOD8229677 Si02
#       8
#     8   8   8   8   8   8   8   8
#     4  11  25  44  73 110 140 176 222 291 355 421
#     4  11  23  46  62  94 136 184 226 298 351 422
#     4  11  24  46  75  98 139 187 232 281 352 425
#     4  12  26  42  69  97 138 179 233 293 346 423
#     4  12  25  38  66  98 131 180 239 291 355 415
#     4  11  24  45  78 106 146 176 229 283 363 423
#     4  11  26  44  71  98 138 188 238 285 351 408
#     4  11  24  43  64  90 135 181 238 293 348 413
#
# _framework density 22.220210999999999
#
# number of rings (size 3 to 8) (size 9 to 14) (size 15 to 20)
#    0.000    0.750    2.500    6.375    7.000    0.500 
#    0.000    0.625    0.000    0.000    0.000    0.000 
#    0.000    0.000    0.000    0.000    0.000    0.000 
#
# Total GULP energy -793448.641818 kJ/mol
# GULP energy per Si atom -12397.635028 kJ/mol
# Density = 2.216964 g / cm^3
# Si number density = 22.220211 Si / 1000 Ang^3
#
#
#
# Elastic Constant Matrix: (Units=GPa)
#
#
# Indices 1 2 3 4 5 6 
#
# 1 89.5237 22.6852 11.4605 0.0000 0.0000 0.0000
# 2 22.6852 80.0452 7.4324 0.0000 0.0000 0.0000
# 3 11.4605 7.4324 45.0482 0.0000 0.0000 0.0000
# 4 0.0000 0.0000 0.0000 33.9238 0.0000 0.0000
# 5 0.0000 0.0000 0.0000 0.0000 32.7732 0.0000
# 6 0.0000 0.0000 0.0000 0.0000 0.0000 41.3366
#
#
#
# Elastic Compliance Matrix: (Units=1/GPa)
#
#
# Indices 1 2 3 4 5 6 
#
# 1 0.012327 -0.003252 -0.002600 0.000000 0.000000 0.000000
# 2 -0.003252 0.013545 -0.001407 0.000000 0.000000 0.000000
# 3 -0.002600 -0.001407 0.023092 0.000000 0.000000 0.000000
# 4 0.000000 0.000000 0.000000 0.029478 0.000000 0.000000
# 5 0.000000 0.000000 0.000000 0.000000 0.030513 0.000000
# 6 0.000000 0.000000 0.000000 0.000000 0.000000 0.024192
#
#
# Mechanical properties :
#
#
# Convention : Reuss Voigt Hill
#
# Bulk Modulus (GPa) = 29.03087 33.08595 31.05841
# Shear Modulus (GPa) = 31.41753 33.14267 32.28010
#
# Velocity S-wave (km/s) = 3.76429 3.86626 3.81561
# Velocity P-wave (km/s) = 5.65567 5.90364 5.78098
#
# Compressibility (1/GPa) = 0.03444609
#
# Stress axis : x y z
#
# Youngs Moduli (GPa) = 81.12204 73.82631 43.30511
#
# Poissons Ratio (x) = 0.24010 0.11257
# Poissons Ratio (y) = 0.26382 0.06095
# Poissons Ratio (z) = 0.21088 0.10391
#
# Static dielectric constant tensor:
#      x y z
#    x 4.032400 0.000000 0.000000 
#    y 0.000000 4.042800 0.000000 
#    z 0.000000 0.000000 4.143040 
# 
# 
# High freq. dielectric constant tensor:
#      x y z
#    x 1.869560 0.000000 0.000000 
#    y 0.000000 1.877250 0.000000 
#    z 0.000000 0.000000 1.886660 
# 
# From -- ./inp_files/2986.got.cif
#   From: 2010.03.12/outbox.cif.g09.slc.cpg/sg56_2_cif.got.tgz:2986.got - 2010.04.16 15:33:40.
