data_PCOD8229684
_publ_section_title
;
Structure prediction by ZEFSAII (Michael W. Deem and Ramdas Pophale) SiO2 
 PCOD8229684
Probable space group: P C C N
;
_chemical_formula_sum "Si O2"
_cell_formula_units_Z 40
_cell_length_a 8.397222
_cell_length_b 18.201504
_cell_length_c 11.917801
_cell_angle_alpha 90.000000
_cell_angle_beta 90.000000
_cell_angle_gamma 90.000000
_cell_volume 1821.541373
_symmetry_space_group_name_H-M "P C C N"
_symmetry_group_IT_number 56
_symmetry_cell_setting 'orthorhombic'
loop_
_space_group_symop_operation_xyz
x,y,z
1/2-x,1/2-y,z
1/2+x,-y,1/2-z
-x,1/2+y,1/2-z
-x,-y,-z
1/2+x,1/2+y,-z
1/2-x,y,1/2+z
x,1/2-y,1/2+z
loop_
_atom_site_type_symbol
_atom_site_label
_atom_site_fract_x
_atom_site_fract_y
_atom_site_fract_z
Si Si1 0.053618 0.641630 0.633745
Si Si2 0.172548 0.173084 0.064453
Si Si3 0.423943 0.214514 0.795030
Si Si4 0.101831 0.906553 0.578174
Si Si5 0.945344 0.934235 0.352862
O O1 0.923706 0.633687 0.534622
O O2 0.228945 0.631473 0.587220
O O3 0.012046 0.583278 0.730041
O O4 0.054616 0.723504 0.682788
O O5 0.250000 0.250000 0.021073
O O6 0.052065 0.190747 0.166258
O O7 0.298734 0.117646 0.117181
O O8 0.250000 0.250000 0.814163
O O9 0.457561 0.145828 0.878052
O O10 0.080276 0.923512 0.446941
O O11 0.105563 0.980902 0.650598
#
# Coordination Sequence:
#
# PCOD8229684 Si02
#       5
#     8   8   8   8   8
#     4  12  25  44  76 100 139 187 235 294 351 411
#     4  11  24  44  72 102 138 187 238 282 352 425
#     4  11  23  46  72  98 138 189 234 290 350 424
#     4  11  28  45  69 106 147 177 242 296 350 420
#     4  11  26  47  69 105 146 184 234 291 356 428
#
# _framework density 21.959423999999999
#
# number of rings (size 3 to 8) (size 9 to 14) (size 15 to 20)
#    0.000    0.800    4.000    3.600    5.600    2.400 
#    0.000    0.000    0.000    0.000    0.000    0.000 
#    0.000    0.000    0.000    0.000    0.000    0.000 
#
# Total GULP energy -496103.411387 kJ/mol
# GULP energy per Si atom -12402.585285 kJ/mol
# Density = 2.190944 g / cm^3
# Si number density = 21.959424 Si / 1000 Ang^3
#
#
#
# Elastic Constant Matrix: (Units=GPa)
#
#
# Indices 1 2 3 4 5 6 
#
# 1 112.2519 44.8165 39.3155 0.0000 0.0000 0.0000
# 2 44.8165 117.3387 1.1834 0.0000 0.0000 0.0000
# 3 39.3155 1.1834 95.2682 0.0000 0.0000 0.0000
# 4 0.0000 0.0000 0.0000 40.5818 0.0000 0.0000
# 5 0.0000 0.0000 0.0000 0.0000 7.1552 0.0000
# 6 0.0000 0.0000 0.0000 0.0000 0.0000 30.2138
#
#
#
# Elastic Compliance Matrix: (Units=1/GPa)
#
#
# Indices 1 2 3 4 5 6 
#
# 1 0.012614 -0.004766 -0.005146 0.000000 0.000000 0.000000
# 2 -0.004766 0.010324 0.001839 0.000000 0.000000 0.000000
# 3 -0.005146 0.001839 0.012598 0.000000 0.000000 0.000000
# 4 0.000000 0.000000 0.000000 0.024642 0.000000 0.000000
# 5 0.000000 0.000000 0.000000 0.000000 0.139759 0.000000
# 6 0.000000 0.000000 0.000000 0.000000 0.000000 0.033098
#
#
# Mechanical properties :
#
#
# Convention : Reuss Voigt Hill
#
# Bulk Modulus (GPa) = 51.57749 55.05440 53.31594
# Shear Modulus (GPa) = 19.55847 31.55970 25.55909
#
# Velocity S-wave (km/s) = 2.98764 3.79513 3.41533
# Velocity P-wave (km/s) = 5.95314 6.65803 6.31543
#
# Compressibility (1/GPa) = 0.01938830
#
# Stress axis : x y z
#
# Youngs Moduli (GPa) = 79.27870 96.86116 79.38012
#
# Poissons Ratio (x) = 0.46162 0.40851
# Poissons Ratio (y) = 0.37783 -0.14594
# Poissons Ratio (z) = 0.40799 -0.17808
#
# Static dielectric constant tensor:
#      x y z
#    x 3.711360 0.000000 0.000000 
#    y 0.000000 4.174370 0.000000 
#    z 0.000000 0.000000 4.285470 
# 
# 
# High freq. dielectric constant tensor:
#      x y z
#    x 1.850470 0.000000 0.000000 
#    y 0.000000 1.871100 0.000000 
#    z 0.000000 0.000000 1.883680 
# 
# From -- ./inp_files/10380.got.cif
#   From: 2010.03.12/outbox.cif.g09.slc.cpg/sg56_6_cif.got.tgz:10380.got - 2010.04.16 15:33:40.
