data_PCOD8229240
_publ_section_title
;
Structure prediction by ZEFSAII (Michael W. Deem and Ramdas Pophale) SiO2 
 PCOD8229240
Probable space group: P C C N
;
_chemical_formula_sum "Si O2"
_cell_formula_units_Z 48
_cell_length_a 9.096167
_cell_length_b 14.372945
_cell_length_c 18.013484
_cell_angle_alpha 90.000000
_cell_angle_beta 90.000000
_cell_angle_gamma 90.000000
_cell_volume 2355.059625
_symmetry_space_group_name_H-M "P C C N"
_symmetry_group_IT_number 56
_symmetry_cell_setting 'orthorhombic'
loop_
_space_group_symop_operation_xyz
x,y,z
1/2-x,1/2-y,z
1/2+x,-y,1/2-z
-x,1/2+y,1/2-z
-x,-y,-z
1/2+x,1/2+y,-z
1/2-x,y,1/2+z
x,1/2-y,1/2+z
loop_
_atom_site_type_symbol
_atom_site_label
_atom_site_fract_x
_atom_site_fract_y
_atom_site_fract_z
Si Si1 0.515278 0.898490 0.696888
Si Si2 0.089199 0.784615 0.767759
Si Si3 0.807389 0.471286 0.798578
Si Si4 0.389649 0.442941 0.547862
Si Si5 0.923666 0.755657 0.913286
Si Si6 0.913935 0.909853 0.025780
O O1 0.495220 0.791191 0.718550
O O2 0.366097 0.955660 0.711562
O O3 0.566386 0.898120 0.612653
O O4 0.644178 0.943814 0.746001
O O5 0.250000 0.750000 0.791148
O O6 0.099540 0.879378 0.721085
O O7 0.998710 0.803534 0.842504
O O8 0.834829 0.495759 0.883748
O O9 0.500000 0.500000 0.500000
O O10 0.476333 0.350482 0.575219
O O11 0.256693 0.417548 0.493720
O O12 0.750000 0.750000 0.899658
O O13 0.972668 0.817946 0.983545
O O14 0.000000 0.000000 0.000000
#
# Coordination Sequence:
#
# PCOD8229240 Si02
#       6
#     8   8   8   8   8   8
#     4  11  24  43  67  99 127 173 221 265 330 392
#     4  10  23  41  64  96 129 168 217 267 324 382
#     4  11  24  43  68  94 133 169 219 271 325 393
#     4  11  25  43  64  98 130 171 218 272 321 388
#     4  10  23  44  64  93 132 168 214 267 318 385
#     4  11  23  43  67  92 129 173 215 263 329 386
#
# _framework density 20.381651000000002
#
# number of rings (size 3 to 8) (size 9 to 14) (size 15 to 20)
#    0.000    1.333    3.333    1.000    7.000    1.333 
#    0.000    0.000    0.000    0.000    0.000    0.000 
#    0.000    0.000    0.000    0.000    0.000    0.000 
#
# Total GULP energy -595378.767195 kJ/mol
# GULP energy per Si atom -12403.724317 kJ/mol
# Density = 2.033526 g / cm^3
# Si number density = 20.381651 Si / 1000 Ang^3
#
#
#
# Elastic Constant Matrix: (Units=GPa)
#
#
# Indices 1 2 3 4 5 6 
#
# 1 54.8712 28.9184 50.6282 0.0000 0.0000 0.0000
# 2 28.9184 104.9194 35.8698 0.0000 0.0000 0.0000
# 3 50.6282 35.8698 149.9996 0.0000 0.0000 0.0000
# 4 0.0000 0.0000 0.0000 41.3620 0.0000 0.0000
# 5 0.0000 0.0000 0.0000 0.0000 39.7855 0.0000
# 6 0.0000 0.0000 0.0000 0.0000 0.0000 33.4207
#
#
#
# Elastic Compliance Matrix: (Units=1/GPa)
#
#
# Indices 1 2 3 4 5 6 
#
# 1 0.028695 -0.005007 -0.008488 0.000000 0.000000 0.000000
# 2 -0.005007 0.011253 -0.001001 0.000000 0.000000 0.000000
# 3 -0.008488 -0.001001 0.009771 0.000000 0.000000 0.000000
# 4 0.000000 0.000000 0.000000 0.024177 0.000000 0.000000
# 5 0.000000 0.000000 0.000000 0.000000 0.025135 0.000000
# 6 0.000000 0.000000 0.000000 0.000000 0.000000 0.029922
#
#
# Mechanical properties :
#
#
# Convention : Reuss Voigt Hill
#
# Bulk Modulus (GPa) = 48.24584 60.06925 54.15754
# Shear Modulus (GPa) = 30.32998 35.87190 33.10094
#
# Velocity S-wave (km/s) = 3.86178 4.19980 4.03433
# Velocity P-wave (km/s) = 6.60356 7.28381 6.95201
#
# Compressibility (1/GPa) = 0.02072718
#
# Stress axis : x y z
#
# Youngs Moduli (GPa) = 34.84944 88.86146 102.34503
#
# Poissons Ratio (x) = 0.44495 0.86868
# Poissons Ratio (y) = 0.17450 0.10245
# Poissons Ratio (z) = 0.29579 0.08895
#
# Static dielectric constant tensor:
#      x y z
#    x 3.614090 0.000000 0.000000 
#    y 0.000000 4.032910 0.000000 
#    z 0.000000 0.000000 4.169150 
# 
# 
# High freq. dielectric constant tensor:
#      x y z
#    x 1.792440 0.000000 0.000000 
#    y 0.000000 1.814640 0.000000 
#    z 0.000000 0.000000 1.804120 
# 
# From -- ./inp_files/14804.got.cif
#   From: 2010.03.12/outbox.cif.g09.slc.cpg/sg56_8_cif.got.tgz:14804.got - 2010.04.16 15:33:40.
