data_PCOD8229330
_publ_section_title
;
Structure prediction by ZEFSAII (Michael W. Deem and Ramdas Pophale) SiO2 
 PCOD8229330
Probable space group: P C C N
;
_chemical_formula_sum "Si O2"
_cell_formula_units_Z 48
_cell_length_a 14.922794
_cell_length_b 9.265611
_cell_length_c 17.229769
_cell_angle_alpha 90.000000
_cell_angle_beta 90.000000
_cell_angle_gamma 90.000000
_cell_volume 2382.339557
_symmetry_space_group_name_H-M "P C C N"
_symmetry_group_IT_number 56
_symmetry_cell_setting 'orthorhombic'
loop_
_space_group_symop_operation_xyz
x,y,z
1/2-x,1/2-y,z
1/2+x,-y,1/2-z
-x,1/2+y,1/2-z
-x,-y,-z
1/2+x,1/2+y,-z
1/2-x,y,1/2+z
x,1/2-y,1/2+z
loop_
_atom_site_type_symbol
_atom_site_label
_atom_site_fract_x
_atom_site_fract_y
_atom_site_fract_z
Si Si1 0.994501 0.874710 0.694829
Si Si2 0.047837 0.893515 0.107187
Si Si3 0.750000 0.750000 0.318085
Si Si4 0.551223 0.687302 0.340775
Si Si5 0.078320 0.641909 0.431710
Si Si6 0.330062 0.992149 0.748391
Si Si7 0.750000 0.250000 0.150662
O O1 0.000351 0.783571 0.775171
O O2 0.017267 0.769302 0.624624
O O3 0.893106 0.928937 0.688950
O O4 0.055265 0.020156 0.686994
O O5 0.120214 0.949769 0.168654
O O6 0.091146 0.888953 0.022456
O O7 0.962413 0.999757 0.109579
O O8 0.653015 0.741480 0.361844
O O9 0.749593 0.603304 0.268167
O O10 0.488911 0.720907 0.416043
O O11 0.178398 0.668383 0.402042
O O12 0.297307 0.851985 0.789142
#
# Coordination Sequence:
#
# PCOD8229330 Si02
#       7
#     8   8   4   8   8   8   4
#     4  11  20  39  67  93 125 169 227 263 318 387
#     4  11  24  44  69  94 135 181 211 270 340 393
#     4  10  24  36  62  98 124 158 226 270 324 376
#     4  11  21  41  63  95 130 170 221 275 319 391
#     4  11  24  46  65  94 142 174 213 268 344 392
#     4  11  24  39  69 100 124 174 223 278 319 387
#     4  12  26  44  68 102 128 170 222 278 318 394
#
# _framework density 20.148261999999999
#
# number of rings (size 3 to 8) (size 9 to 14) (size 15 to 20)
#    0.000    1.000    6.667    0.000    9.333    1.333 
#    0.000    0.000    0.000    0.000    0.000    0.000 
#    0.000    0.000    0.000    0.000    0.000    0.000 
#
# Total GULP energy -594668.880329 kJ/mol
# GULP energy per Si atom -12388.935007 kJ/mol
# Density = 2.010240 g / cm^3
# Si number density = 20.148262 Si / 1000 Ang^3
#
#
#
# Elastic Constant Matrix: (Units=GPa)
#
#
# Indices 1 2 3 4 5 6 
#
# 1 106.0751 34.0946 47.8865 0.0000 0.0000 0.0000
# 2 34.0946 152.5252 50.3897 0.0000 0.0000 0.0000
# 3 47.8865 50.3897 85.1949 0.0000 0.0000 0.0000
# 4 0.0000 0.0000 0.0000 27.3383 0.0000 0.0000
# 5 0.0000 0.0000 0.0000 0.0000 38.3750 0.0000
# 6 0.0000 0.0000 0.0000 0.0000 0.0000 39.1817
#
#
#
# Elastic Compliance Matrix: (Units=1/GPa)
#
#
# Indices 1 2 3 4 5 6 
#
# 1 0.012676 -0.000596 -0.006773 0.000000 0.000000 0.000000
# 2 -0.000596 0.008177 -0.004501 0.000000 0.000000 0.000000
# 3 -0.006773 -0.004501 0.018207 0.000000 0.000000 0.000000
# 4 0.000000 0.000000 0.000000 0.036579 0.000000 0.000000
# 5 0.000000 0.000000 0.000000 0.000000 0.026059 0.000000
# 6 0.000000 0.000000 0.000000 0.000000 0.000000 0.025522
#
#
# Mechanical properties :
#
#
# Convention : Reuss Voigt Hill
#
# Bulk Modulus (GPa) = 65.27361 67.61520 66.44441
# Shear Modulus (GPa) = 32.03787 35.07393 33.55590
#
# Velocity S-wave (km/s) = 3.99194 4.17681 4.08542
# Velocity P-wave (km/s) = 7.32901 7.54272 7.43663
#
# Compressibility (1/GPa) = 0.01532013
#
# Stress axis : x y z
#
# Youngs Moduli (GPa) = 78.88748 122.30073 54.92478
#
# Poissons Ratio (x) = 0.07291 0.37198
# Poissons Ratio (y) = 0.04703 0.24722
# Poissons Ratio (z) = 0.53427 0.55048
#
# Static dielectric constant tensor:
#      x y z
#    x 3.541280 0.000000 0.000000 
#    y 0.000000 3.927550 0.000000 
#    z 0.000000 0.000000 3.468540 
# 
# 
# High freq. dielectric constant tensor:
#      x y z
#    x 1.784500 0.000000 0.000000 
#    y 0.000000 1.811710 0.000000 
#    z 0.000000 0.000000 1.757800 
# 
# From -- ./inp_files/16225.got.cif
#   From: 2010.03.12/outbox.cif.g09.slc.cpg/sg56_9_cif.got.tgz:16225.got - 2010.04.16 15:33:40.
