data_PCOD8229231
_publ_section_title
;
Structure prediction by ZEFSAII (Michael W. Deem and Ramdas Pophale) SiO2 
 PCOD8229231
Probable space group: P C C N
;
_chemical_formula_sum "Si O2"
_cell_formula_units_Z 48
_cell_length_a 13.249668
_cell_length_b 8.881144
_cell_length_c 18.411813
_cell_angle_alpha 90.000000
_cell_angle_beta 90.000000
_cell_angle_gamma 90.000000
_cell_volume 2166.558716
_symmetry_space_group_name_H-M "P C C N"
_symmetry_group_IT_number 56
_symmetry_cell_setting 'orthorhombic'
loop_
_space_group_symop_operation_xyz
x,y,z
1/2-x,1/2-y,z
1/2+x,-y,1/2-z
-x,1/2+y,1/2-z
-x,-y,-z
1/2+x,1/2+y,-z
1/2-x,y,1/2+z
x,1/2-y,1/2+z
loop_
_atom_site_type_symbol
_atom_site_label
_atom_site_fract_x
_atom_site_fract_y
_atom_site_fract_z
Si Si1 0.001115 0.595047 0.889262
Si Si2 0.611252 0.136232 0.967687
Si Si3 0.827703 0.029504 0.977388
Si Si4 0.837663 0.920242 0.683607
Si Si5 0.381753 0.092602 0.368102
Si Si6 0.577299 0.598755 0.839856
O O1 0.104109 0.561748 0.847840
O O2 0.928211 0.448387 0.894942
O O3 0.953647 0.727980 0.843223
O O4 0.025037 0.643562 0.971386
O O5 0.709181 0.043613 0.995341
O O6 0.632645 0.308855 0.950359
O O7 0.850944 0.924996 0.909109
O O8 0.881987 0.959015 0.047634
O O9 0.720203 0.958183 0.672180
O O10 0.881482 0.773486 0.640748
O O11 0.854008 0.913300 0.769267
O O12 0.480378 0.012968 0.333715
#
# Coordination Sequence:
#
# PCOD8229231 Si02
#       6
#     8   8   8   8   8   8
#     4  11  23  41  66 101 136 174 225 279 339 396
#     4  10  23  40  68 100 131 169 231 278 328 396
#     4  11  23  44  70  99 130 179 225 281 330 396
#     4  11  26  44  65  98 137 181 221 280 342 407
#     4  11  24  45  67  94 134 176 227 277 335 407
#     4  12  26  42  71  99 136 179 225 278 343 401
#
# _framework density 22.154949999999999
#
# number of rings (size 3 to 8) (size 9 to 14) (size 15 to 20)
#    0.000    1.000    3.333    2.500    4.667    5.333 
#    0.000    1.667    0.000    0.000    0.000    0.000 
#    0.000    0.000    0.000    0.000    0.000    0.000 
#
# Total GULP energy -595121.230276 kJ/mol
# GULP energy per Si atom -12398.358964 kJ/mol
# Density = 2.210452 g / cm^3
# Si number density = 22.154950 Si / 1000 Ang^3
#
#
#
# Elastic Constant Matrix: (Units=GPa)
#
#
# Indices 1 2 3 4 5 6 
#
# 1 64.5311 25.9743 36.3918 0.0000 0.0000 0.0000
# 2 25.9743 63.7973 37.0186 0.0000 0.0000 0.0000
# 3 36.3918 37.0186 101.5123 0.0000 0.0000 0.0000
# 4 0.0000 0.0000 0.0000 20.6976 0.0000 0.0000
# 5 0.0000 0.0000 0.0000 0.0000 28.1233 0.0000
# 6 0.0000 0.0000 0.0000 0.0000 0.0000 37.5812
#
#
#
# Elastic Compliance Matrix: (Units=1/GPa)
#
#
# Indices 1 2 3 4 5 6 
#
# 1 0.020714 -0.005232 -0.005518 0.000000 0.000000 0.000000
# 2 -0.005232 0.021203 -0.005857 0.000000 0.000000 0.000000
# 3 -0.005518 -0.005857 0.013965 0.000000 0.000000 0.000000
# 4 0.000000 0.000000 0.000000 0.048315 0.000000 0.000000
# 5 0.000000 0.000000 0.000000 0.000000 0.035558 0.000000
# 6 0.000000 0.000000 0.000000 0.000000 0.000000 0.026609
#
#
# Mechanical properties :
#
#
# Convention : Reuss Voigt Hill
#
# Bulk Modulus (GPa) = 44.11236 47.62336 45.86786
# Shear Modulus (GPa) = 24.13912 25.97747 25.05830
#
# Velocity S-wave (km/s) = 3.30443 3.42795 3.36675
# Velocity P-wave (km/s) = 5.87478 6.10000 5.98845
#
# Compressibility (1/GPa) = 0.02266938
#
# Stress axis : x y z
#
# Youngs Moduli (GPa) = 48.27639 47.16332 71.60769
#
# Poissons Ratio (x) = 0.24674 0.39514
# Poissons Ratio (y) = 0.25256 0.41938
# Poissons Ratio (z) = 0.26639 0.27622
#
# Static dielectric constant tensor:
#      x y z
#    x 4.194610 0.000000 0.000000 
#    y 0.000000 4.063420 0.000000 
#    z 0.000000 0.000000 3.756030 
# 
# 
# High freq. dielectric constant tensor:
#      x y z
#    x 1.882760 0.000000 0.000000 
#    y 0.000000 1.877370 0.000000 
#    z 0.000000 0.000000 1.861030 
# 
# From -- ./inp_files/16180.got.cif
#   From: 2010.03.12/outbox.cif.g09.slc.cpg/sg56_9_cif.got.tgz:16180.got - 2010.04.16 15:33:40.
