data_PCOD8229005
_publ_section_title
;
Structure prediction by ZEFSAII (Michael W. Deem and Ramdas Pophale) SiO2 
 PCOD8229005
Probable space group: P C C N
;
_chemical_formula_sum "Si O2"
_cell_formula_units_Z 64
_cell_length_a 18.996054
_cell_length_b 8.784384
_cell_length_c 18.836601
_cell_angle_alpha 90.000000
_cell_angle_beta 90.000000
_cell_angle_gamma 90.000000
_cell_volume 3143.237856
_symmetry_space_group_name_H-M "P C C N"
_symmetry_group_IT_number 56
_symmetry_cell_setting 'orthorhombic'
loop_
_space_group_symop_operation_xyz
x,y,z
1/2-x,1/2-y,z
1/2+x,-y,1/2-z
-x,1/2+y,1/2-z
-x,-y,-z
1/2+x,1/2+y,-z
1/2-x,y,1/2+z
x,1/2-y,1/2+z
loop_
_atom_site_type_symbol
_atom_site_label
_atom_site_fract_x
_atom_site_fract_y
_atom_site_fract_z
Si Si1 0.597969 0.873299 0.017613
Si Si2 0.684849 0.352956 0.915667
Si Si3 0.555800 0.131042 0.773782
Si Si4 0.179971 0.149396 0.340347
Si Si5 0.916035 0.774525 0.271003
Si Si6 0.552646 0.178055 0.939538
Si Si7 0.323192 0.190246 0.597395
Si Si8 0.182072 0.836621 0.253129
O O1 0.641426 0.908529 0.088791
O O2 0.525498 0.778994 0.032708
O O3 0.650835 0.781810 0.969642
O O4 0.577579 0.024621 0.976340
O O5 0.750000 0.250000 0.943113
O O6 0.613142 0.301469 0.955338
O O7 0.693171 0.526845 0.936783
O O8 0.683590 0.354883 0.830930
O O9 0.484288 0.168900 0.733563
O O10 0.549677 0.173592 0.855268
O O11 0.614556 0.229324 0.731272
O O12 0.567981 0.951725 0.775430
O O13 0.250000 0.250000 0.355325
O O14 0.130141 0.265553 0.299346
O O15 0.185622 0.000249 0.290689
O O16 0.878963 0.703356 0.339770
O O17 0.250000 0.250000 0.629113
O O18 0.250000 0.750000 0.282167
#
# Coordination Sequence:
#
# PCOD8229005 Si02
#       8
#     8   8   8   8   8   8   8   8
#     4  11  24  43  67  93 136 183 218 269 337 401
#     4  10  22  39  67  97 130 166 224 281 328 392
#     4  11  23  40  67  98 134 164 222 277 336 392
#     4  12  24  41  64  98 135 174 222 276 340 397
#     4  12  24  40  67 100 131 168 221 281 328 397
#     4  10  22  43  66  93 132 177 219 271 332 403
#     4  12  25  42  68  99 131 180 226 269 332 399
#     4  10  22  40  64  96 128 172 215 279 335 389
#
# _framework density 20.361170000000001
#
# number of rings (size 3 to 8) (size 9 to 14) (size 15 to 20)
#    0.000    1.000    3.750    3.000    5.250    0.500 
#    0.000    4.375    0.000    0.000    0.000    0.000 
#    0.000    0.000    0.000    0.000    0.000    0.000 
#
# Total GULP energy -793163.794764 kJ/mol
# GULP energy per Si atom -12393.184293 kJ/mol
# Density = 2.031483 g / cm^3
# Si number density = 20.361170 Si / 1000 Ang^3
#
#
#
# Elastic Constant Matrix: (Units=GPa)
#
#
# Indices 1 2 3 4 5 6 
#
# 1 137.0061 28.8151 28.9909 0.0000 0.0000 0.0000
# 2 28.8151 62.1697 5.8172 0.0000 0.0000 0.0000
# 3 28.9909 5.8172 47.6695 0.0000 0.0000 0.0000
# 4 0.0000 0.0000 0.0000 32.3273 0.0000 0.0000
# 5 0.0000 0.0000 0.0000 0.0000 24.3166 0.0000
# 6 0.0000 0.0000 0.0000 0.0000 0.0000 36.2590
#
#
#
# Elastic Compliance Matrix: (Units=1/GPa)
#
#
# Indices 1 2 3 4 5 6 
#
# 1 0.009176 -0.003774 -0.005120 0.000000 0.000000 0.000000
# 2 -0.003774 0.017823 0.000120 0.000000 0.000000 0.000000
# 3 -0.005120 0.000120 0.024077 0.000000 0.000000 0.000000
# 4 0.000000 0.000000 0.000000 0.030934 0.000000 0.000000
# 5 0.000000 0.000000 0.000000 0.000000 0.041124 0.000000
# 6 0.000000 0.000000 0.000000 0.000000 0.000000 0.027579
#
#
# Mechanical properties :
#
#
# Convention : Reuss Voigt Hill
#
# Bulk Modulus (GPa) = 29.82542 41.56575 35.69559
# Shear Modulus (GPa) = 27.86497 30.79540 29.33019
#
# Velocity S-wave (km/s) = 3.70338 3.89325 3.79950
# Velocity P-wave (km/s) = 5.74167 6.37718 6.06775
#
# Compressibility (1/GPa) = 0.03352844
#
# Stress axis : x y z
#
# Youngs Moduli (GPa) = 108.97879 56.10743 41.53352
#
# Poissons Ratio (x) = 0.21175 0.21265
# Poissons Ratio (y) = 0.41128 -0.00499
# Poissons Ratio (z) = 0.55798 -0.00675
#
# Static dielectric constant tensor:
#      x y z
#    x 4.196970 0.000000 0.000000 
#    y 0.000000 3.907290 0.000000 
#    z 0.000000 0.000000 3.634330 
# 
# 
# High freq. dielectric constant tensor:
#      x y z
#    x 1.819220 0.000000 0.000000 
#    y 0.000000 1.799560 0.000000 
#    z 0.000000 0.000000 1.783230 
# 
# From -- ./inp_files/19355.got.cif
#   From: 2010.03.12/outbox.cif.g09.slc.cpg/sg56_10_cif.got.tgz:19355.got - 2010.04.16 15:33:40.
