data_PCOD8229945
_publ_section_title
;
Structure prediction by ZEFSAII (Michael W. Deem and Ramdas Pophale) SiO2 
 PCOD8229945
Probable space group: P B C M
;
_chemical_formula_sum "Si O2"
_cell_formula_units_Z 56
_cell_length_a 10.318383
_cell_length_b 18.906407
_cell_length_c 18.032285
_cell_angle_alpha 90.000000
_cell_angle_beta 90.000000
_cell_angle_gamma 90.000000
_cell_volume 3517.802147
_symmetry_space_group_name_H-M "P B C M"
_symmetry_group_IT_number 57
_symmetry_cell_setting 'orthorhombic'
loop_
_space_group_symop_operation_xyz
x,y,z
-x,-y,1/2+z
x,1/2-y,-z
-x,1/2+y,1/2-z
-x,-y,-z
x,y,1/2-z
-x,1/2+y,z
x,1/2-y,1/2+z
loop_
_atom_site_type_symbol
_atom_site_label
_atom_site_fract_x
_atom_site_fract_y
_atom_site_fract_z
Si Si1 0.135989 0.465979 0.981919
Si Si2 0.591903 0.708762 0.664686
Si Si3 0.495323 0.939750 0.167493
Si Si4 0.730175 0.539949 0.335042
Si Si5 0.243075 0.322764 0.469200
Si Si6 0.450680 0.149690 0.408635
Si Si7 0.615671 0.026731 0.050933
O O1 0.149808 0.458857 0.892530
O O2 0.145494 0.388668 0.020576
O O3 0.246080 0.519429 0.012040
O O4 0.000000 0.500000 0.000000
O O5 0.634083 0.721528 0.750000
O O6 0.490182 0.644619 0.657968
O O7 0.720912 0.690033 0.617098
O O8 0.517372 0.776222 0.630617
O O9 0.531748 0.962355 0.250000
O O10 0.353001 0.969347 0.147731
O O11 0.612255 0.974248 0.120948
O O12 0.780862 0.542713 0.250000
O O13 0.638121 0.606663 0.350883
O O14 0.178841 0.250000 0.500000
O O15 0.375439 0.339377 0.514026
O O16 0.584806 0.107927 0.425610
O O17 0.500000 0.000000 0.000000
#
# Coordination Sequence:
#
# PCOD8229945 Si02
#       7
#     8   8   8   8   8   8   8
#     4  11  21  33  53  75 104 137 179 218 259 316
#     4  10  17  26  44  78 107 126 163 215 263 308
#     4   9  16  26  47  73  98 126 163 209 256 301
#     4   9  17  31  49  71  97 131 168 208 254 305
#     4   9  17  31  50  71  98 132 169 212 258 304
#     4   9  17  27  50  74  99 127 167 209 257 310
#     4  11  16  32  51  71 100 131 164 213 261 304
#
# _framework density 15.919029999999999
#
# number of rings (size 3 to 8) (size 9 to 14) (size 15 to 20)
#    0.000    2.286    5.714    0.429    0.000    0.571 
#    0.000    1.429    3.143    0.000    0.000    0.000 
#    0.000    0.000    0.000    0.000    0.000    0.000 
#
# Total GULP energy -694037.566374 kJ/mol
# GULP energy per Si atom -12393.527971 kJ/mol
# Density = 1.588280 g / cm^3
# Si number density = 15.919030 Si / 1000 Ang^3
#
#
#
# Elastic Constant Matrix: (Units=GPa)
#
#
# Indices 1 2 3 4 5 6 
#
# 1 70.5792 38.9548 33.5211 0.0000 0.0000 0.0000
# 2 38.9548 116.3961 40.3819 0.0000 0.0000 0.0000
# 3 33.5211 40.3819 101.9326 0.0000 0.0000 0.0000
# 4 0.0000 0.0000 0.0000 24.2432 0.0000 0.0000
# 5 0.0000 0.0000 0.0000 0.0000 13.0350 0.0000
# 6 0.0000 0.0000 0.0000 0.0000 0.0000 19.9260
#
#
#
# Elastic Compliance Matrix: (Units=1/GPa)
#
#
# Indices 1 2 3 4 5 6 
#
# 1 0.018872 -0.004826 -0.004294 0.000000 0.000000 0.000000
# 2 -0.004826 0.011195 -0.002848 0.000000 0.000000 0.000000
# 3 -0.004294 -0.002848 0.012351 0.000000 0.000000 0.000000
# 4 0.000000 0.000000 0.000000 0.041249 0.000000 0.000000
# 5 0.000000 0.000000 0.000000 0.000000 0.076717 0.000000
# 6 0.000000 0.000000 0.000000 0.000000 0.000000 0.050186
#
#
# Mechanical properties :
#
#
# Convention : Reuss Voigt Hill
#
# Bulk Modulus (GPa) = 54.10984 57.18039 55.64512
# Shear Modulus (GPa) = 20.77584 23.17750 21.97667
#
# Velocity S-wave (km/s) = 3.61653 3.81985 3.71958
# Velocity P-wave (km/s) = 7.17659 7.44664 7.31286
#
# Compressibility (1/GPa) = 0.01848093
#
# Stress axis : x y z
#
# Youngs Moduli (GPa) = 52.98966 89.32951 80.96681
#
# Poissons Ratio (x) = 0.43111 0.34768
# Poissons Ratio (y) = 0.25573 0.23058
# Poissons Ratio (z) = 0.22754 0.25439
#
# Static dielectric constant tensor:
#      x y z
#    x 2.572650 0.000000 0.000000 
#    y 0.000000 3.446450 0.000000 
#    z 0.000000 0.000000 4.019710 
# 
# 
# High freq. dielectric constant tensor:
#      x y z
#    x 1.537080 0.000000 0.000000 
#    y 0.000000 1.625630 0.000000 
#    z 0.000000 0.000000 1.631610 
# 
# From -- ./inp_files/22117.got.cif
#   From: 2010.03.12/outbox.cif.g09.slc.cpg/sg57_12_cif.got.tgz:22117.got - 2010.04.16 15:48:40.
