data_PCOD8229274
_publ_section_title
;
Structure prediction by ZEFSAII (Michael W. Deem and Ramdas Pophale) SiO2 
 PCOD8229274
Probable space group: P C C N
;
_chemical_formula_sum "Si O2"
_cell_formula_units_Z 64
_cell_length_a 8.190564
_cell_length_b 22.573452
_cell_length_c 14.840014
_cell_angle_alpha 90.000000
_cell_angle_beta 90.000000
_cell_angle_gamma 90.000000
_cell_volume 2743.759850
_symmetry_space_group_name_H-M "P C C N"
_symmetry_group_IT_number 56
_symmetry_cell_setting 'orthorhombic'
loop_
_space_group_symop_operation_xyz
x,y,z
1/2-x,1/2-y,z
1/2+x,-y,1/2-z
-x,1/2+y,1/2-z
-x,-y,-z
1/2+x,1/2+y,-z
1/2-x,y,1/2+z
x,1/2-y,1/2+z
loop_
_atom_site_type_symbol
_atom_site_label
_atom_site_fract_x
_atom_site_fract_y
_atom_site_fract_z
Si Si1 0.437521 0.764644 0.538759
Si Si2 0.432979 0.126215 0.552565
Si Si3 0.779514 0.065935 0.831978
Si Si4 0.481409 0.166910 0.290443
Si Si5 0.926527 0.833526 0.409980
Si Si6 0.953072 0.066856 0.482190
Si Si7 0.231293 0.079318 0.883409
Si Si8 0.062065 0.528369 0.319619
O O1 0.250000 0.750000 0.554283
O O2 0.446736 0.820396 0.472233
O O3 0.518631 0.779535 0.636637
O O4 0.536248 0.711717 0.491130
O O5 0.264821 0.151966 0.592391
O O6 0.399605 0.088027 0.463394
O O7 0.529218 0.086040 0.622156
O O8 0.854061 0.128439 0.802487
O O9 0.725877 0.070555 0.937150
O O10 0.612384 0.051859 0.778614
O O11 0.902598 0.012161 0.815059
O O12 0.475586 0.192136 0.188417
O O13 0.323275 0.124060 0.303695
O O14 0.033698 0.893554 0.427223
O O15 0.087028 0.095029 0.413852
O O16 0.000000 0.000000 0.500000
O O17 0.214720 0.010081 0.857020
#
# Coordination Sequence:
#
# PCOD8229274 Si02
#       8
#     8   8   8   8   8   8   8   8
#     4  11  25  48  72  99 137 175 244 300 355 416
#     4  10  23  43  66 101 135 182 234 283 349 418
#     4  11  24  39  63 103 142 183 234 284 346 419
#     4  10  25  46  69  99 138 184 231 297 358 420
#     4  11  25  46  73  99 139 184 238 285 359 430
#     4  11  24  40  67 103 144 189 232 290 350 418
#     4   9  21  40  65  94 139 184 224 281 343 411
#     4  11  23  38  67  98 144 182 233 275 348 416
#
# _framework density 23.325655999999999
#
# number of rings (size 3 to 8) (size 9 to 14) (size 15 to 20)
#    0.000    1.500    0.000    3.750   12.250    2.500 
#    2.250    3.750    0.000    0.000    0.000    0.000 
#    0.000    0.000    0.000    0.000    0.000    0.000 
#
# Total GULP energy -793638.240001 kJ/mol
# GULP energy per Si atom -12400.597500 kJ/mol
# Density = 2.327257 g / cm^3
# Si number density = 23.325656 Si / 1000 Ang^3
#
#
#
# Elastic Constant Matrix: (Units=GPa)
#
#
# Indices 1 2 3 4 5 6 
#
# 1 41.2394 6.3377 17.4533 0.0000 0.0000 0.0000
# 2 6.3377 112.7682 50.8687 0.0000 0.0000 0.0000
# 3 17.4533 50.8687 127.6013 0.0000 0.0000 0.0000
# 4 0.0000 0.0000 0.0000 35.4147 0.0000 0.0000
# 5 0.0000 0.0000 0.0000 0.0000 32.6188 0.0000
# 6 0.0000 0.0000 0.0000 0.0000 0.0000 20.2244
#
#
#
# Elastic Compliance Matrix: (Units=1/GPa)
#
#
# Indices 1 2 3 4 5 6 
#
# 1 0.025741 0.000173 -0.003590 0.000000 0.000000 0.000000
# 2 0.000173 0.010813 -0.004334 0.000000 0.000000 0.000000
# 3 -0.003590 -0.004334 0.010056 0.000000 0.000000 0.000000
# 4 0.000000 0.000000 0.000000 0.028237 0.000000 0.000000
# 5 0.000000 0.000000 0.000000 0.000000 0.030657 0.000000
# 6 0.000000 0.000000 0.000000 0.000000 0.000000 0.049445
#
#
# Mechanical properties :
#
#
# Convention : Reuss Voigt Hill
#
# Bulk Modulus (GPa) = 32.14659 47.88091 40.01375
# Shear Modulus (GPa) = 27.65156 31.44820 29.54988
#
# Velocity S-wave (km/s) = 3.44678 3.67580 3.56313
# Velocity P-wave (km/s) = 5.44536 6.21185 5.84119
#
# Compressibility (1/GPa) = 0.03110749
#
# Stress axis : x y z
#
# Youngs Moduli (GPa) = 38.84800 92.47931 99.44501
#
# Poissons Ratio (x) = -0.01596 0.35698
# Poissons Ratio (y) = -0.00670 0.43103
# Poissons Ratio (z) = 0.13945 0.40084
#
# Static dielectric constant tensor:
#      x y z
#    x 4.265520 0.000000 0.000000 
#    y 0.000000 4.221880 0.000000 
#    z 0.000000 0.000000 4.275500 
# 
# 
# High freq. dielectric constant tensor:
#      x y z
#    x 1.924740 0.000000 0.000000 
#    y 0.000000 1.916080 0.000000 
#    z 0.000000 0.000000 1.922130 
# 
# From -- ./inp_files/11044.got.cif
#   From: 2010.03.12/outbox.cif.g09.slc.cpg/sg56_6_cif.got.tgz:11044.got - 2010.04.16 15:33:40.
