data_PCOD8229626
_publ_section_title
;
Structure prediction by ZEFSAII (Michael W. Deem and Ramdas Pophale) SiO2 
 PCOD8229626
Probable space group: P C C N
;
_chemical_formula_sum "Si O2"
_cell_formula_units_Z 60
_cell_length_a 9.426850
_cell_length_b 10.331462
_cell_length_c 26.136245
_cell_angle_alpha 90.000000
_cell_angle_beta 90.000000
_cell_angle_gamma 90.000000
_cell_volume 2545.491035
_symmetry_space_group_name_H-M "P C C N"
_symmetry_group_IT_number 56
_symmetry_cell_setting 'orthorhombic'
loop_
_space_group_symop_operation_xyz
x,y,z
1/2-x,1/2-y,z
1/2+x,-y,1/2-z
-x,1/2+y,1/2-z
-x,-y,-z
1/2+x,1/2+y,-z
1/2-x,y,1/2+z
x,1/2-y,1/2+z
loop_
_atom_site_type_symbol
_atom_site_label
_atom_site_fract_x
_atom_site_fract_y
_atom_site_fract_z
Si Si1 0.514667 0.132971 0.144696
Si Si2 0.244166 0.532724 0.281732
Si Si3 0.509829 0.922292 0.351746
Si Si4 0.782094 0.080078 0.332424
Si Si5 0.750000 0.750000 0.692956
Si Si6 0.005656 0.264028 0.884033
Si Si7 0.593845 0.000421 0.050652
Si Si8 0.415555 0.466106 0.950272
O O1 0.444436 0.273534 0.154877
O O2 0.650009 0.109147 0.181079
O O3 0.393446 0.034307 0.160532
O O4 0.566942 0.129632 0.084693
O O5 0.246636 0.603253 0.227323
O O6 0.285433 0.379551 0.274504
O O7 0.085884 0.539064 0.303715
O O8 0.635312 0.030159 0.357979
O O9 0.425170 0.929157 0.405115
O O10 0.850335 0.213481 0.357324
O O11 0.616304 0.787057 0.657799
O O12 0.048850 0.401273 0.905676
O O13 0.014545 0.168507 0.932129
O O14 0.751497 0.964220 0.033195
O O15 0.500000 0.000000 0.000000
O O16 0.500000 0.500000 0.000000
#
# Coordination Sequence:
#
# PCOD8229626 Si02
#       8
#     8   8   8   8   4   8   8   8
#     4  11  24  48  71 100 151 197 244 313 379 460
#     4  12  24  46  75 106 145 205 254 306 392 457
#     4  12  26  47  66 109 156 182 251 321 375 454
#     4  11  27  45  73 111 143 197 255 306 381 458
#     4  12  20  46  78  94 150 200 252 306 368 466
#     4  11  22  51  73 101 149 193 252 310 378 467
#     4  11  24  46  75 104 134 197 251 298 386 466
#     4  12  27  47  72 110 144 189 245 320 391 445
#
# _framework density 23.571090999999999
#
# number of rings (size 3 to 8) (size 9 to 14) (size 15 to 20)
#    0.000    0.533    6.667    1.600    7.467    0.533 
#    4.800    0.000    0.000    0.000    0.000    0.000 
#    0.000    0.000    0.000    0.000    0.000    0.000 
#
# Total GULP energy -743799.949497 kJ/mol
# GULP energy per Si atom -12396.665825 kJ/mol
# Density = 2.351744 g / cm^3
# Si number density = 23.571091 Si / 1000 Ang^3
#
#
#
# Elastic Constant Matrix: (Units=GPa)
#
#
# Indices 1 2 3 4 5 6 
#
# 1 157.0323 18.8839 63.1935 0.0000 0.0000 0.0000
# 2 18.8839 86.2092 17.0407 0.0000 0.0000 0.0000
# 3 63.1935 17.0407 131.2885 0.0000 0.0000 0.0000
# 4 0.0000 0.0000 0.0000 33.4798 0.0000 0.0000
# 5 0.0000 0.0000 0.0000 0.0000 37.2678 0.0000
# 6 0.0000 0.0000 0.0000 0.0000 0.0000 35.6913
#
#
#
# Elastic Compliance Matrix: (Units=1/GPa)
#
#
# Indices 1 2 3 4 5 6 
#
# 1 0.007984 -0.001015 -0.003711 0.000000 0.000000 0.000000
# 2 -0.001015 0.012034 -0.001073 0.000000 0.000000 0.000000
# 3 -0.003711 -0.001073 0.009542 0.000000 0.000000 0.000000
# 4 0.000000 0.000000 0.000000 0.029869 0.000000 0.000000
# 5 0.000000 0.000000 0.000000 0.000000 0.026833 0.000000
# 6 0.000000 0.000000 0.000000 0.000000 0.000000 0.028018
#
#
# Mechanical properties :
#
#
# Convention : Reuss Voigt Hill
#
# Bulk Modulus (GPa) = 55.67599 63.64069 59.65834
# Shear Modulus (GPa) = 37.91729 39.64857 38.78293
#
# Velocity S-wave (km/s) = 4.01513 4.10577 4.06070
# Velocity P-wave (km/s) = 6.72062 7.03808 6.88118
#
# Compressibility (1/GPa) = 0.01796106
#
# Stress axis : x y z
#
# Youngs Moduli (GPa) = 125.25691 83.09622 104.79606
#
# Poissons Ratio (x) = 0.08436 0.38890
# Poissons Ratio (y) = 0.12717 0.11248
# Poissons Ratio (z) = 0.46483 0.08919
#
# Static dielectric constant tensor:
#      x y z
#    x 4.507040 0.000000 0.000000 
#    y 0.000000 4.708520 0.000000 
#    z 0.000000 0.000000 4.089630 
# 
# 
# High freq. dielectric constant tensor:
#      x y z
#    x 1.946750 0.000000 0.000000 
#    y 0.000000 1.950830 0.000000 
#    z 0.000000 0.000000 1.925590 
# 
# From -- ./inp_files/22130.got.cif
#   From: 2010.03.12/outbox.cif.g09.slc.cpg/sg56_12_cif.got.tgz:22130.got - 2010.04.16 15:33:40.
