data_PCOD8229423
_publ_section_title
;
Structure prediction by ZEFSAII (Michael W. Deem and Ramdas Pophale) SiO2 
 PCOD8229423
Probable space group: P C C N
;
_chemical_formula_sum "Si O2"
_cell_formula_units_Z 60
_cell_length_a 22.233511
_cell_length_b 8.722968
_cell_length_c 13.608693
_cell_angle_alpha 90.000000
_cell_angle_beta 90.000000
_cell_angle_gamma 90.000000
_cell_volume 2639.299927
_symmetry_space_group_name_H-M "P C C N"
_symmetry_group_IT_number 56
_symmetry_cell_setting 'orthorhombic'
loop_
_space_group_symop_operation_xyz
x,y,z
1/2-x,1/2-y,z
1/2+x,-y,1/2-z
-x,1/2+y,1/2-z
-x,-y,-z
1/2+x,1/2+y,-z
1/2-x,y,1/2+z
x,1/2-y,1/2+z
loop_
_atom_site_type_symbol
_atom_site_label
_atom_site_fract_x
_atom_site_fract_y
_atom_site_fract_z
Si Si1 0.621163 0.439927 0.656757
Si Si2 0.554347 0.812259 0.396718
Si Si3 0.946781 0.167425 0.240552
Si Si4 0.750000 0.750000 0.830327
Si Si5 0.336005 0.996973 0.639528
Si Si6 0.021469 0.133064 0.429066
Si Si7 0.641554 0.942550 0.815884
Si Si8 0.684279 0.310563 0.467879
O O1 0.571197 0.337112 0.709673
O O2 0.668559 0.491957 0.740532
O O3 0.585741 0.589870 0.619103
O O4 0.651349 0.341051 0.570669
O O5 0.501431 0.879898 0.329138
O O6 0.602060 0.944787 0.403023
O O7 0.529706 0.785125 0.506186
O O8 0.585720 0.656988 0.356203
O O9 0.888683 0.053016 0.233774
O O10 0.968881 0.168430 0.352679
O O11 0.782138 0.886709 0.894454
O O12 0.805455 0.667867 0.770383
O O13 0.339260 0.827144 0.598315
O O14 0.000000 0.000000 0.500000
O O15 0.675834 0.037450 0.901929
O O16 0.750000 0.250000 0.495725
#
# Coordination Sequence:
#
# PCOD8229423 Si02
#       8
#     8   8   8   4   8   8   8   8
#     4  12  25  43  69 106 142 189 247 297 366 447
#     4  11  24  43  71 108 150 193 238 303 375 449
#     4  12  23  40  74 107 146 193 244 293 366 457
#     4  10  24  46  76 100 136 202 236 316 380 424
#     4  11  25  48  72 107 144 189 252 307 372 440
#     4  12  22  44  68 102 148 195 230 295 374 435
#     4  11  22  43  73 100 147 187 246 307 372 435
#     4  12  25  46  73 103 140 195 251 310 369 437
#
# _framework density 22.7333
#
# number of rings (size 3 to 8) (size 9 to 14) (size 15 to 20)
#    0.000    0.533    8.000    0.000    0.000    1.600 
#    4.800    3.333    0.000    0.000    0.000    0.000 
#    0.000    0.000    0.000    0.000    0.000    0.000 
#
# Total GULP energy -743423.243333 kJ/mol
# GULP energy per Si atom -12390.387389 kJ/mol
# Density = 2.268156 g / cm^3
# Si number density = 22.733300 Si / 1000 Ang^3
#
#
#
# Elastic Constant Matrix: (Units=GPa)
#
#
# Indices 1 2 3 4 5 6 
#
# 1 131.9933 38.0884 44.0884 0.0000 0.0000 0.0000
# 2 38.0884 69.9486 39.1436 0.0000 0.0000 0.0000
# 3 44.0884 39.1436 115.3317 0.0000 0.0000 0.0000
# 4 0.0000 0.0000 0.0000 -67.6613 0.0000 0.0000
# 5 0.0000 0.0000 0.0000 0.0000 24.3530 0.0000
# 6 0.0000 0.0000 0.0000 0.0000 0.0000 55.6061
#
#
#
# Elastic Compliance Matrix: (Units=1/GPa)
#
#
# Indices 1 2 3 4 5 6 
#
# 1 0.009461 -0.003861 -0.002306 0.000000 0.000000 0.000000
# 2 -0.003861 0.019224 -0.005049 0.000000 0.000000 0.000000
# 3 -0.002306 -0.005049 0.011266 0.000000 0.000000 0.000000
# 4 0.000000 0.000000 0.000000 -0.014780 0.000000 0.000000
# 5 0.000000 0.000000 0.000000 0.000000 0.041063 0.000000
# 6 0.000000 0.000000 0.000000 0.000000 0.000000 0.017984
#
#
# Mechanical properties :
#
#
# Convention : Reuss Voigt Hill
#
# Bulk Modulus (GPa) = 57.08186 62.21271 59.64729
# Shear Modulus (GPa) = 44.44921 15.52310 29.98615
#
# Velocity S-wave (km/s) = 4.42661 2.61595 3.63580
# Velocity P-wave (km/s) = 7.16173 6.04566 6.62723
#
# Compressibility (1/GPa) = 0.01751870
#
# Stress axis : x y z
#
# Youngs Moduli (GPa) = 105.70195 52.01888 88.76481
#
# Poissons Ratio (x) = 0.20084 0.20470
# Poissons Ratio (y) = 0.40811 0.44814
# Poissons Ratio (z) = 0.24376 0.26262
#
# Static dielectric constant tensor:
#      x y z
#    x 3.426340 0.000000 0.000000 
#    y 0.000000 7.616700 0.000000 
#    z 0.000000 0.000000 -5.812160 
# 
# 
# High freq. dielectric constant tensor:
#      x y z
#    x 1.912610 0.000000 0.000000 
#    y 0.000000 1.909990 0.000000 
#    z 0.000000 0.000000 1.864120 
# 
# From -- ./inp_files/13249.got.cif
#   From: 2010.03.12/outbox.cif.g09.slc.cpg/sg56_7_cif.got.tgz:13249.got - 2010.04.16 15:33:40.
