data_PCOD8230355
_publ_section_title
;
Structure prediction by ZEFSAII (Michael W. Deem and Ramdas Pophale) SiO2 
 PCOD8230355
Probable space group: P B C M
;
_chemical_formula_sum "Si O2"
_cell_formula_units_Z 64
_cell_length_a 9.626688
_cell_length_b 27.451503
_cell_length_c 13.430121
_cell_angle_alpha 90.000000
_cell_angle_beta 90.000000
_cell_angle_gamma 90.000000
_cell_volume 3549.138518
_symmetry_space_group_name_H-M "P B C M"
_symmetry_group_IT_number 57
_symmetry_cell_setting 'orthorhombic'
loop_
_space_group_symop_operation_xyz
x,y,z
-x,-y,1/2+z
x,1/2-y,-z
-x,1/2+y,1/2-z
-x,-y,-z
x,y,1/2-z
-x,1/2+y,z
x,1/2-y,1/2+z
loop_
_atom_site_type_symbol
_atom_site_label
_atom_site_fract_x
_atom_site_fract_y
_atom_site_fract_z
Si Si1 0.505685 0.434235 0.638612
Si Si2 0.126854 0.247140 0.136564
Si Si3 0.556014 0.322192 0.865904
Si Si4 0.025827 0.907405 0.632058
Si Si5 0.222696 0.992570 0.635469
Si Si6 0.136385 0.805933 0.632537
Si Si7 0.755401 0.575193 0.484564
Si Si8 0.285871 0.316378 0.516805
O O1 0.446416 0.437696 0.750000
O O2 0.569747 0.380467 0.622575
O O3 0.620363 0.475104 0.620701
O O4 0.381336 0.447297 0.564797
O O5 0.142251 0.263407 0.250000
O O6 0.220837 0.283364 0.071045
O O7 0.963032 0.240842 0.105376
O O8 0.191099 0.193055 0.115801
O O9 0.519681 0.308876 0.750000
O O10 0.703041 0.297621 0.898424
O O11 0.441644 0.302685 0.945140
O O12 0.032407 0.905398 0.750000
O O13 0.124324 0.950498 0.592180
O O14 0.078228 0.856225 0.584396
O O15 0.872125 0.920659 0.598591
O O16 0.188811 0.004007 0.750000
O O17 0.196113 0.042367 0.576200
O O18 0.129106 0.813352 0.750000
O O19 0.720240 0.629171 0.524067
#
# Coordination Sequence:
#
# PCOD8230355 Si02
#       8
#     8   8   8   8   8   8   8   8
#     4   9  17  30  49  76 106 133 168 216 257 300
#     4  10  20  36  54  75 104 133 171 221 266 314
#     4   9  16  30  54  81 106 131 166 216 269 312
#     4  10  18  31  51  78 103 130 172 221 266 305
#     4  10  20  33  48  71 108 144 178 212 252 310
#     4   9  16  30  55  79 101 133 169 218 273 308
#     4  11  20  31  50  76 105 140 174 210 264 315
#     4  10  21  33  51  79 104 134 176 215 264 319
#
# _framework density 18.032544999999999
#
# number of rings (size 3 to 8) (size 9 to 14) (size 15 to 20)
#    0.000    2.250    2.500    1.500    0.000    1.500 
#    0.000    2.500    0.000    0.000    0.000    1.750 
#    0.000    0.000    0.000    0.000    0.000    0.000 
#
# Total GULP energy -792879.678214 kJ/mol
# GULP energy per Si atom -12388.744972 kJ/mol
# Density = 1.799150 g / cm^3
# Si number density = 18.032545 Si / 1000 Ang^3
#
#
#
# Elastic Constant Matrix: (Units=GPa)
#
#
# Indices 1 2 3 4 5 6 
#
# 1 110.4082 36.7301 32.8775 0.0000 0.0000 0.0000
# 2 36.7301 72.5247 35.8020 0.0000 0.0000 0.0000
# 3 32.8775 35.8020 56.6189 0.0000 0.0000 0.0000
# 4 0.0000 0.0000 0.0000 26.5485 0.0000 0.0000
# 5 0.0000 0.0000 0.0000 0.0000 23.0934 0.0000
# 6 0.0000 0.0000 0.0000 0.0000 0.0000 23.0016
#
#
#
# Elastic Compliance Matrix: (Units=1/GPa)
#
#
# Indices 1 2 3 4 5 6 
#
# 1 0.011598 -0.003706 -0.004391 0.000000 0.000000 0.000000
# 2 -0.003706 0.021230 -0.011272 0.000000 0.000000 0.000000
# 3 -0.004391 -0.011272 0.027340 0.000000 0.000000 0.000000
# 4 0.000000 0.000000 0.000000 0.037667 0.000000 0.000000
# 5 0.000000 0.000000 0.000000 0.000000 0.043302 0.000000
# 6 0.000000 0.000000 0.000000 0.000000 0.000000 0.043475
#
#
# Mechanical properties :
#
#
# Convention : Reuss Voigt Hill
#
# Bulk Modulus (GPa) = 46.66721 50.04122 48.35422
# Shear Modulus (GPa) = 21.69253 23.47150 22.58202
#
# Velocity S-wave (km/s) = 3.47214 3.61171 3.54261
# Velocity P-wave (km/s) = 6.48151 6.72334 6.60353
#
# Compressibility (1/GPa) = 0.02142832
#
# Stress axis : x y z
#
# Youngs Moduli (GPa) = 86.22322 47.10332 36.57674
#
# Poissons Ratio (x) = 0.17456 0.16062
# Poissons Ratio (y) = 0.31954 0.41231
# Poissons Ratio (z) = 0.37863 0.53097
#
# Static dielectric constant tensor:
#      x y z
#    x 3.552880 0.000000 0.000000 
#    y 0.000000 3.229830 0.000000 
#    z 0.000000 0.000000 3.049060 
# 
# 
# High freq. dielectric constant tensor:
#      x y z
#    x 1.713990 0.000000 0.000000 
#    y 0.000000 1.681040 0.000000 
#    z 0.000000 0.000000 1.670130 
# 
# From -- ./inp_files/17046.got.cif
#   From: 2010.03.12/outbox.cif.g09.slc.cpg/sg57_9_cif.got.tgz:17046.got - 2010.04.16 15:48:40.
