data_PCOD8230885
_publ_section_title
;
Structure prediction by ZEFSAII (Michael W. Deem and Ramdas Pophale) SiO2 
 PCOD8230885
Probable space group: P B C M
;
_chemical_formula_sum "Si O2"
_cell_formula_units_Z 48
_cell_length_a 26.504867
_cell_length_b 5.274748
_cell_length_c 14.807135
_cell_angle_alpha 90.000000
_cell_angle_beta 90.000000
_cell_angle_gamma 90.000000
_cell_volume 2070.133633
_symmetry_space_group_name_H-M "P B C M"
_symmetry_group_IT_number 57
_symmetry_cell_setting 'orthorhombic'
loop_
_space_group_symop_operation_xyz
x,y,z
-x,-y,1/2+z
x,1/2-y,-z
-x,1/2+y,1/2-z
-x,-y,-z
x,y,1/2-z
-x,1/2+y,z
x,1/2-y,1/2+z
loop_
_atom_site_type_symbol
_atom_site_label
_atom_site_fract_x
_atom_site_fract_y
_atom_site_fract_z
Si Si1 0.858048 0.549174 0.642610
Si Si2 0.199422 0.549122 0.642495
Si Si3 0.686105 0.012410 0.600876
Si Si4 0.356799 0.488018 0.099931
Si Si5 0.529977 0.542314 0.856458
Si Si6 0.971884 0.948031 0.142180
O O1 0.858918 0.545390 0.750000
O O2 0.827621 0.304214 0.606981
O O3 0.914910 0.539867 0.604999
O O4 0.832217 0.807339 0.607807
O O5 0.204699 0.548840 0.750000
O O6 0.254035 0.533160 0.598291
O O7 0.666977 0.756678 0.651230
O O8 0.661480 0.256399 0.651256
O O9 0.665583 0.000010 0.499827
O O10 0.416817 0.470776 0.093559
O O11 0.539786 0.538049 0.750000
O O12 0.497315 0.300350 0.887117
O O13 0.972335 0.947438 0.250000
O O14 0.998018 0.692341 0.105103
#
# Coordination Sequence:
#
# PCOD8230885 Si02
#       6
#     8   8   8   8   8   8
#     4   9  17  28  42  65  96 132 176 219 261 310
#     4  10  19  31  48  69  97 135 176 217 259 302
#     4  10  21  36  52  75 103 137 174 214 259 300
#     4  10  21  38  56  78 107 136 167 209 253 300
#     4  10  21  38  60  85 111 137 166 202 246 301
#     4   9  15  23  37  58  88 129 171 209 256 313
#
# _framework density 23.186907000000001
#
# number of rings (size 3 to 8) (size 9 to 14) (size 15 to 20)
#    0.000    2.333    0.000    3.000    0.000    5.333 
#    0.000   10.000    0.000    0.000    0.000    0.000 
#    0.000    0.000    0.000  210.000    0.000   93.333 
#
# Total GULP energy -595150.629921 kJ/mol
# GULP energy per Si atom -12398.971457 kJ/mol
# Density = 2.313413 g / cm^3
# Si number density = 23.186907 Si / 1000 Ang^3
#
#
#
# Elastic Constant Matrix: (Units=GPa)
#
#
# Indices 1 2 3 4 5 6 
#
# 1 228.9526 109.1173 3.7060 0.0000 0.0000 0.0000
# 2 109.1173 268.6800 -3.2478 0.0000 0.0000 0.0000
# 3 3.7060 -3.2478 9.9173 0.0000 0.0000 0.0000
# 4 0.0000 0.0000 0.0000 2.8295 0.0000 0.0000
# 5 0.0000 0.0000 0.0000 0.0000 -50.1148 0.0000
# 6 0.0000 0.0000 0.0000 0.0000 0.0000 56.2364
#
#
#
# Elastic Compliance Matrix: (Units=1/GPa)
#
#
# Indices 1 2 3 4 5 6 
#
# 1 0.005492 -0.002264 -0.002794 0.000000 0.000000 0.000000
# 2 -0.002264 0.004670 0.002376 0.000000 0.000000 0.000000
# 3 -0.002794 0.002376 0.102656 0.000000 0.000000 0.000000
# 4 0.000000 0.000000 0.000000 0.353415 0.000000 0.000000
# 5 0.000000 0.000000 0.000000 0.000000 -0.019954 0.000000
# 6 0.000000 0.000000 0.000000 0.000000 0.000000 0.017782
#
#
# Mechanical properties :
#
#
# Convention : Reuss Voigt Hill
#
# Bulk Modulus (GPa) = 9.30635 80.74455 45.02545
# Shear Modulus (GPa) = 9.89619 28.32184 19.10902
#
# Velocity S-wave (km/s) = 2.06816 3.49873 2.87388
# Velocity P-wave (km/s) = 3.11855 7.15684 5.52023
#
# Compressibility (1/GPa) = 0.10745353
#
# Stress axis : x y z
#
# Youngs Moduli (GPa) = 182.08125 214.12494 9.74124
#
# Poissons Ratio (x) = 0.48483 0.02722
# Poissons Ratio (y) = 0.41227 -0.02314
# Poissons Ratio (z) = 0.50871 -0.50867
#
# Static dielectric constant tensor:
#      x y z
#    x 4.164870 0.000000 0.000000 
#    y 0.000000 -94.073210 0.000000 
#    z 0.000000 0.000000 3.398460 
# 
# 
# High freq. dielectric constant tensor:
#      x y z
#    x 1.926320 0.000000 0.000000 
#    y 0.000000 1.947820 0.000000 
#    z 0.000000 0.000000 1.871570 
# 
# From -- ./inp_files/25697.got.cif
#   From: 2010.03.12/outbox.cif.g09.slc.cpg/sg57_13_cif.got.tgz:25697.got - 2010.04.16 15:48:40.
