data_PCOD8230065
_publ_section_title
;
Structure prediction by ZEFSAII (Michael W. Deem and Ramdas Pophale) SiO2 
 PCOD8230065
Probable space group: P B C M
;
_chemical_formula_sum "Si O2"
_cell_formula_units_Z 64
_cell_length_a 19.555853
_cell_length_b 27.052021
_cell_length_c 8.920359
_cell_angle_alpha 90.000000
_cell_angle_beta 90.000000
_cell_angle_gamma 90.000000
_cell_volume 4719.096007
_symmetry_space_group_name_H-M "P B C M"
_symmetry_group_IT_number 57
_symmetry_cell_setting 'orthorhombic'
loop_
_space_group_symop_operation_xyz
x,y,z
-x,-y,1/2+z
x,1/2-y,-z
-x,1/2+y,1/2-z
-x,-y,-z
x,y,1/2-z
-x,1/2+y,z
x,1/2-y,1/2+z
loop_
_atom_site_type_symbol
_atom_site_label
_atom_site_fract_x
_atom_site_fract_y
_atom_site_fract_z
Si Si1 0.193384 0.699568 0.426158
Si Si2 0.648852 0.198572 0.425529
Si Si3 0.539435 0.544122 0.923961
Si Si4 0.659148 0.500446 0.426600
Si Si5 0.209266 0.975797 0.578689
Si Si6 0.588653 0.103129 0.922641
Si Si7 0.139331 0.893185 0.427783
Si Si8 0.940637 0.029474 0.078952
O O1 0.169683 0.750000 0.500000
O O2 0.180301 0.700164 0.250000
O O3 0.272226 0.688753 0.465765
O O4 0.143510 0.660974 0.505158
O O5 0.623594 0.250000 0.500000
O O6 0.636935 0.204323 0.250000
O O7 0.606627 0.151310 0.481936
O O8 0.549930 0.532351 0.750000
O O9 0.493011 0.593234 0.945148
O O10 0.500000 0.500000 0.000000
O O11 0.613300 0.545132 0.004729
O O12 0.661048 0.507104 0.250000
O O13 0.734601 0.508957 0.495141
O O14 0.630795 0.445996 0.472921
O O15 0.231617 0.966273 0.750000
O O16 0.205289 0.923298 0.491056
O O17 0.132632 0.000087 0.572062
O O18 0.605418 0.114503 0.750000
O O19 0.139804 0.892514 0.250000
O O20 0.069726 0.918753 0.490153
O O21 0.961475 0.040333 0.250000
O O22 0.000000 0.000000 0.000000
#
# Coordination Sequence:
#
# PCOD8230065 Si02
#       8
#     8   8   8   8   8   8   8   8
#     4  10  19  30  41  57  79 105 138 175 214 248
#     4  10  20  30  42  56  74 101 134 174 211 244
#     4   9  17  28  40  55  77 103 131 165 203 243
#     4  10  18  27  41  60  80 104 134 168 205 247
#     4   9  18  28  40  58  80 105 135 169 203 240
#     4   9  18  29  40  55  76 102 133 168 205 244
#     4  10  18  28  42  59  80 107 138 170 205 244
#     4   9  18  30  44  61  82 108 139 172 206 246
#
# _framework density 13.561920000000001
#
# number of rings (size 3 to 8) (size 9 to 14) (size 15 to 20)
#    0.750    1.750    0.000    4.500    0.000    6.500 
#    0.000    0.000    0.000    0.000    0.000    0.000 
#    0.000    0.000    0.000    1.125    0.000   17.000 
#
# Total GULP energy -792980.731074 kJ/mol
# GULP energy per Si atom -12390.323923 kJ/mol
# Density = 1.353105 g / cm^3
# Si number density = 13.561920 Si / 1000 Ang^3
#
#
#
# Elastic Constant Matrix: (Units=GPa)
#
#
# Indices 1 2 3 4 5 6 
#
# 1 71.3654 39.8004 44.1504 0.0000 0.0000 0.0000
# 2 39.8004 64.6246 43.4974 0.0000 0.0000 0.0000
# 3 44.1504 43.4974 111.0910 0.0000 0.0000 0.0000
# 4 0.0000 0.0000 0.0000 23.8619 0.0000 0.0000
# 5 0.0000 0.0000 0.0000 0.0000 23.5201 0.0000
# 6 0.0000 0.0000 0.0000 0.0000 0.0000 20.6222
#
#
#
# Elastic Compliance Matrix: (Units=1/GPa)
#
#
# Indices 1 2 3 4 5 6 
#
# 1 0.023165 -0.010958 -0.004916 0.000000 0.000000 0.000000
# 2 -0.010958 0.026195 -0.005902 0.000000 0.000000 0.000000
# 3 -0.004916 -0.005902 0.013266 0.000000 0.000000 0.000000
# 4 0.000000 0.000000 0.000000 0.041908 0.000000 0.000000
# 5 0.000000 0.000000 0.000000 0.000000 0.042517 0.000000
# 6 0.000000 0.000000 0.000000 0.000000 0.000000 0.048492
#
#
# Mechanical properties :
#
#
# Convention : Reuss Voigt Hill
#
# Bulk Modulus (GPa) = 52.42395 55.77528 54.09961
# Shear Modulus (GPa) = 20.37072 21.57635 20.97354
#
# Velocity S-wave (km/s) = 3.87984 3.99300 3.93683
# Velocity P-wave (km/s) = 7.66877 7.90407 7.78731
#
# Compressibility (1/GPa) = 0.01907525
#
# Stress axis : x y z
#
# Youngs Moduli (GPa) = 43.16920 38.17548 75.38050
#
# Poissons Ratio (x) = 0.41832 0.37055
# Poissons Ratio (y) = 0.47304 0.44487
# Poissons Ratio (z) = 0.21221 0.22530
#
# Static dielectric constant tensor:
#      x y z
#    x 2.683650 0.000000 0.000000 
#    y 0.000000 2.498570 0.000000 
#    z 0.000000 0.000000 2.874460 
# 
# 
# High freq. dielectric constant tensor:
#      x y z
#    x 1.494450 0.000000 0.000000 
#    y 0.000000 1.478660 0.000000 
#    z 0.000000 0.000000 1.539190 
# 
# From -- ./inp_files/8800.got.cif
#   From: 2010.03.12/outbox.cif.g09.slc.cpg/sg57_5_cif.got.tgz:8800.got - 2010.04.16 15:48:40.
