data_PCOD8230051
_publ_section_title
;
Structure prediction by ZEFSAII (Michael W. Deem and Ramdas Pophale) SiO2 
 PCOD8230051
Probable space group: P B C M
;
_chemical_formula_sum "Si O2"
_cell_formula_units_Z 64
_cell_length_a 20.199091
_cell_length_b 22.657178
_cell_length_c 9.184504
_cell_angle_alpha 90.000000
_cell_angle_beta 90.000000
_cell_angle_gamma 90.000000
_cell_volume 4203.328669
_symmetry_space_group_name_H-M "P B C M"
_symmetry_group_IT_number 57
_symmetry_cell_setting 'orthorhombic'
loop_
_space_group_symop_operation_xyz
x,y,z
-x,-y,1/2+z
x,1/2-y,-z
-x,1/2+y,1/2-z
-x,-y,-z
x,y,1/2-z
-x,1/2+y,z
x,1/2-y,1/2+z
loop_
_atom_site_type_symbol
_atom_site_label
_atom_site_fract_x
_atom_site_fract_y
_atom_site_fract_z
Si Si1 0.027738 0.056096 0.918098
Si Si2 0.798821 0.187954 0.077523
Si Si3 0.323088 0.889901 0.918978
Si Si4 0.721035 0.978061 0.084362
Si Si5 0.849838 0.967745 0.919113
Si Si6 0.443119 0.578456 0.583456
Si Si7 0.578486 0.960594 0.083930
Si Si8 0.109307 0.898096 0.414692
O O1 0.041335 0.040372 0.750000
O O2 0.970792 0.106156 0.930513
O O3 0.096716 0.073614 0.996472
O O4 0.000000 0.000000 0.000000
O O5 0.802703 0.195825 0.250000
O O6 0.729891 0.158231 0.027536
O O7 0.805270 0.250000 0.000000
O O8 0.859529 0.147044 0.028409
O O9 0.336263 0.883614 0.750000
O O10 0.295944 0.954587 0.959435
O O11 0.394219 0.877991 0.995634
O O12 0.747166 0.975777 0.250000
O O13 0.654336 0.938130 0.064713
O O14 0.777091 0.952403 0.978954
O O15 0.853421 0.952092 0.750000
O O16 0.865356 0.036163 0.950861
O O17 0.422308 0.584770 0.750000
O O18 0.433014 0.511447 0.533159
O O19 0.522588 0.590794 0.560724
O O20 0.571417 0.985936 0.250000
O O21 0.130292 0.881292 0.250000
#
# Coordination Sequence:
#
# PCOD8230051 Si02
#       8
#     8   8   8   8   8   8   8   8
#     4   9  17  28  42  60  80 103 132 166 202 243
#     4  11  22  34  47  61  79 105 137 176 217 253
#     4   9  18  30  41  55  75 103 134 167 210 250
#     4   9  15  25  39  54  78 109 138 166 199 240
#     4  10  18  26  39  61  84 107 137 170 201 241
#     4   9  15  23  38  55  72  98 132 168 199 233
#     4   8  15  25  34  51  77 103 132 163 198 235
#     4   9  18  31  44  59  79 102 133 172 207 246
#
# _framework density 15.226027999999999
#
# number of rings (size 3 to 8) (size 9 to 14) (size 15 to 20)
#    0.000    2.750    1.250    3.000    0.000    6.000 
#    0.000    0.000    0.000    0.000    0.000    0.000 
#    0.000    0.000    0.000    1.125    0.000   16.750 
#
# Total GULP energy -792975.346234 kJ/mol
# GULP energy per Si atom -12390.239785 kJ/mol
# Density = 1.519137 g / cm^3
# Si number density = 15.226028 Si / 1000 Ang^3
#
#
#
# Elastic Constant Matrix: (Units=GPa)
#
#
# Indices 1 2 3 4 5 6 
#
# 1 135.4938 26.8086 60.0666 0.0000 0.0000 0.0000
# 2 26.8086 28.3166 21.1086 0.0000 0.0000 0.0000
# 3 60.0666 21.1086 80.5775 0.0000 0.0000 0.0000
# 4 0.0000 0.0000 0.0000 14.0126 0.0000 0.0000
# 5 0.0000 0.0000 0.0000 0.0000 30.6261 0.0000
# 6 0.0000 0.0000 0.0000 0.0000 0.0000 9.1626
#
#
#
# Elastic Compliance Matrix: (Units=1/GPa)
#
#
# Indices 1 2 3 4 5 6 
#
# 1 0.011718 -0.005694 -0.007244 0.000000 0.000000 0.000000
# 2 -0.005694 0.046652 -0.007976 0.000000 0.000000 0.000000
# 3 -0.007244 -0.007976 0.019900 0.000000 0.000000 0.000000
# 4 0.000000 0.000000 0.000000 0.071364 0.000000 0.000000
# 5 0.000000 0.000000 0.000000 0.000000 0.032652 0.000000
# 6 0.000000 0.000000 0.000000 0.000000 0.000000 0.109140
#
#
# Mechanical properties :
#
#
# Convention : Reuss Voigt Hill
#
# Bulk Modulus (GPa) = 27.44143 51.15060 39.29602
# Shear Modulus (GPa) = 14.47586 19.85386 17.16486
#
# Velocity S-wave (km/s) = 3.08674 3.61493 3.36123
# Velocity P-wave (km/s) = 5.54669 7.14778 6.39752
#
# Compressibility (1/GPa) = 0.03644125
#
# Stress axis : x y z
#
# Youngs Moduli (GPa) = 85.33613 21.43521 50.25182
#
# Poissons Ratio (x) = 0.12206 0.36401
# Poissons Ratio (y) = 0.48595 0.40083
# Poissons Ratio (z) = 0.61815 0.17097
#
# Static dielectric constant tensor:
#      x y z
#    x 3.600880 0.000000 0.000000 
#    y 0.000000 2.414710 0.000000 
#    z 0.000000 0.000000 3.033550 
# 
# 
# High freq. dielectric constant tensor:
#      x y z
#    x 1.604470 0.000000 0.000000 
#    y 0.000000 1.493450 0.000000 
#    z 0.000000 0.000000 1.598120 
# 
# From -- ./inp_files/8806.got.cif
#   From: 2010.03.12/outbox.cif.g09.slc.cpg/sg57_5_cif.got.tgz:8806.got - 2010.04.16 15:48:40.
