data_PCOD8230483
_publ_section_title
;
Structure prediction by ZEFSAII (Michael W. Deem and Ramdas Pophale) SiO2 
 PCOD8230483
Probable space group: P B C M
;
_chemical_formula_sum "Si O2"
_cell_formula_units_Z 56
_cell_length_a 8.885096
_cell_length_b 17.459480
_cell_length_c 19.542697
_cell_angle_alpha 90.000000
_cell_angle_beta 90.000000
_cell_angle_gamma 90.000000
_cell_volume 3031.642090
_symmetry_space_group_name_H-M "P B C M"
_symmetry_group_IT_number 57
_symmetry_cell_setting 'orthorhombic'
loop_
_space_group_symop_operation_xyz
x,y,z
-x,-y,1/2+z
x,1/2-y,-z
-x,1/2+y,1/2-z
-x,-y,-z
x,y,1/2-z
-x,1/2+y,z
x,1/2-y,1/2+z
loop_
_atom_site_type_symbol
_atom_site_label
_atom_site_fract_x
_atom_site_fract_y
_atom_site_fract_z
Si Si1 0.496307 0.402030 0.171155
Si Si2 0.656373 0.561052 0.171223
Si Si3 0.354745 0.784638 0.071584
Si Si4 0.826151 0.404958 0.003911
Si Si5 0.800852 0.509629 0.674446
Si Si6 0.636200 0.376132 0.618438
Si Si7 0.934247 0.540240 0.087957
O O1 0.506738 0.371919 0.250000
O O2 0.612879 0.472003 0.161947
O O3 0.531317 0.337303 0.114907
O O4 0.327198 0.429394 0.154165
O O5 0.653638 0.585299 0.250000
O O6 0.541892 0.615720 0.130261
O O7 0.823607 0.579042 0.142751
O O8 0.201490 0.832244 0.054011
O O9 0.313726 0.712947 0.120386
O O10 0.424860 0.750000 0.000000
O O11 0.831445 0.485508 0.042151
O O12 0.679052 0.411252 0.955685
O O13 0.979006 0.395713 0.958008
O O14 0.862192 0.526661 0.750000
O O15 0.727534 0.424242 0.675245
O O16 0.941148 0.514482 0.623416
#
# Coordination Sequence:
#
# PCOD8230483 Si02
#       7
#     8   8   8   8   8   8   8
#     4   9  18  33  55  80 108 145 186 238 285 334
#     4  10  19  33  56  87 112 135 186 238 284 333
#     4  10  19  36  55  79 111 147 191 233 275 342
#     4   9  19  34  51  79 112 141 183 218 278 341
#     4   9  18  34  55  81 109 141 184 229 281 338
#     4   9  19  33  55  77 107 146 181 229 276 327
#     4  10  18  33  55  83 107 143 174 233 281 328
#
# _framework density 18.471838000000002
#
# number of rings (size 3 to 8) (size 9 to 14) (size 15 to 20)
#    0.000    2.571    1.429    1.714    0.000    1.714 
#   12.857    0.000   12.571    0.000    0.000    0.000 
#    0.000    0.000    0.000    0.000    0.000    0.000 
#
# Total GULP energy -693868.149716 kJ/mol
# GULP energy per Si atom -12390.502673 kJ/mol
# Density = 1.842980 g / cm^3
# Si number density = 18.471838 Si / 1000 Ang^3
#
#
#
# Elastic Constant Matrix: (Units=GPa)
#
#
# Indices 1 2 3 4 5 6 
#
# 1 110.0830 37.4696 54.7450 0.0000 0.0000 0.0000
# 2 37.4696 91.4872 50.4005 0.0000 0.0000 0.0000
# 3 54.7450 50.4005 85.9334 0.0000 0.0000 0.0000
# 4 0.0000 0.0000 0.0000 32.0681 0.0000 0.0000
# 5 0.0000 0.0000 0.0000 0.0000 36.1018 0.0000
# 6 0.0000 0.0000 0.0000 0.0000 0.0000 20.0157
#
#
#
# Elastic Compliance Matrix: (Units=1/GPa)
#
#
# Indices 1 2 3 4 5 6 
#
# 1 0.013379 -0.001158 -0.007844 0.000000 0.000000 0.000000
# 2 -0.001158 0.016248 -0.008792 0.000000 0.000000 0.000000
# 3 -0.007844 -0.008792 0.021791 0.000000 0.000000 0.000000
# 4 0.000000 0.000000 0.000000 0.031184 0.000000 0.000000
# 5 0.000000 0.000000 0.000000 0.000000 0.027699 0.000000
# 6 0.000000 0.000000 0.000000 0.000000 0.000000 0.049961
#
#
# Mechanical properties :
#
#
# Convention : Reuss Voigt Hill
#
# Bulk Modulus (GPa) = 63.17239 63.63709 63.40474
# Shear Modulus (GPa) = 24.85993 27.29635 26.07814
#
# Velocity S-wave (km/s) = 3.67253 3.84829 3.76144
# Velocity P-wave (km/s) = 7.22889 7.36692 7.29823
#
# Compressibility (1/GPa) = 0.01582970
#
# Stress axis : x y z
#
# Youngs Moduli (GPa) = 74.74286 61.54483 45.89148
#
# Poissons Ratio (x) = 0.07129 0.35997
# Poissons Ratio (y) = 0.08658 0.40347
# Poissons Ratio (z) = 0.58629 0.54109
#
# Static dielectric constant tensor:
#      x y z
#    x 3.299310 0.000000 0.000000 
#    y 0.000000 3.248470 0.000000 
#    z 0.000000 0.000000 3.599380 
# 
# 
# High freq. dielectric constant tensor:
#      x y z
#    x 1.700160 0.000000 0.000000 
#    y 0.000000 1.684200 0.000000 
#    z 0.000000 0.000000 1.729000 
# 
# From -- ./inp_files/24536.got.cif
#   From: 2010.03.12/outbox.cif.g09.slc.cpg/sg57_13_cif.got.tgz:24536.got - 2010.04.16 15:48:40.
