data_PCOD8230200
_publ_section_title
;
Structure prediction by ZEFSAII (Michael W. Deem and Ramdas Pophale) SiO2 
 PCOD8230200
Probable space group: P B C M
;
_chemical_formula_sum "Si O2"
_cell_formula_units_Z 48
_cell_length_a 11.736003
_cell_length_b 25.730661
_cell_length_c 9.018013
_cell_angle_alpha 90.000000
_cell_angle_beta 90.000000
_cell_angle_gamma 90.000000
_cell_volume 2723.215510
_symmetry_space_group_name_H-M "P B C M"
_symmetry_group_IT_number 57
_symmetry_cell_setting 'orthorhombic'
loop_
_space_group_symop_operation_xyz
x,y,z
-x,-y,1/2+z
x,1/2-y,-z
-x,1/2+y,1/2-z
-x,-y,-z
x,y,1/2-z
-x,1/2+y,z
x,1/2-y,1/2+z
loop_
_atom_site_type_symbol
_atom_site_label
_atom_site_fract_x
_atom_site_fract_y
_atom_site_fract_z
Si Si1 0.676785 0.898640 0.081604
Si Si2 0.003110 0.872652 0.920066
Si Si3 0.155649 0.466969 0.577978
Si Si4 0.215704 0.566629 0.422334
Si Si5 0.168615 0.196274 0.577403
Si Si6 0.449829 0.949443 0.420507
O O1 0.715206 0.912175 0.250000
O O2 0.726008 0.842043 0.038844
O O3 0.539962 0.901714 0.067622
O O4 0.724089 0.941876 0.969478
O O5 0.976752 0.858329 0.750000
O O6 0.943434 0.926896 0.962846
O O7 0.138624 0.881317 0.946042
O O8 0.952100 0.826731 0.020194
O O9 0.158795 0.481516 0.750000
O O10 0.139775 0.519037 0.483209
O O11 0.240946 0.557348 0.250000
O O12 0.334410 0.571894 0.507265
O O13 0.198057 0.250000 0.500000
O O14 0.155364 0.206439 0.750000
O O15 0.425497 0.963884 0.250000
O O16 0.500000 0.000000 0.500000
#
# Coordination Sequence:
#
# PCOD8230200 Si02
#       6
#     8   8   8   8   8   8
#     4   9  19  34  51  73 103 136 172 214 259 305
#     4   9  20  35  50  73 103 135 173 216 258 307
#     4  10  18  29  48  72 100 136 176 214 253 301
#     4  11  21  32  47  70 106 144 176 210 253 303
#     4  10  20  36  59  82 102 128 163 213 270 319
#     4  11  21  33  50  73 104 142 182 217 254 302
#
# _framework density 17.626223
#
# number of rings (size 3 to 8) (size 9 to 14) (size 15 to 20)
#    0.000    2.000    1.667    2.500    0.000    3.333 
#    0.000    0.000    0.000    1.000    0.000    4.667 
#    0.000    0.000    0.000    0.000    0.000    0.000 
#
# Total GULP energy -595084.149047 kJ/mol
# GULP energy per Si atom -12397.586438 kJ/mol
# Density = 1.758610 g / cm^3
# Si number density = 17.626223 Si / 1000 Ang^3
#
#
#
# Elastic Constant Matrix: (Units=GPa)
#
#
# Indices 1 2 3 4 5 6 
#
# 1 90.0125 29.3098 37.2824 0.0000 0.0000 0.0000
# 2 29.3098 75.5849 35.7578 0.0000 0.0000 0.0000
# 3 37.2824 35.7578 93.6435 0.0000 0.0000 0.0000
# 4 0.0000 0.0000 0.0000 26.7232 0.0000 0.0000
# 5 0.0000 0.0000 0.0000 0.0000 28.3428 0.0000
# 6 0.0000 0.0000 0.0000 0.0000 0.0000 14.5083
#
#
#
# Elastic Compliance Matrix: (Units=1/GPa)
#
#
# Indices 1 2 3 4 5 6 
#
# 1 0.013986 -0.003404 -0.004268 0.000000 0.000000 0.000000
# 2 -0.003404 0.016976 -0.005127 0.000000 0.000000 0.000000
# 3 -0.004268 -0.005127 0.014336 0.000000 0.000000 0.000000
# 4 0.000000 0.000000 0.000000 0.037421 0.000000 0.000000
# 5 0.000000 0.000000 0.000000 0.000000 0.035282 0.000000
# 6 0.000000 0.000000 0.000000 0.000000 0.000000 0.068926
#
#
# Mechanical properties :
#
#
# Convention : Reuss Voigt Hill
#
# Bulk Modulus (GPa) = 50.76468 51.54898 51.15683
# Shear Modulus (GPa) = 22.82151 24.37425 23.59788
#
# Velocity S-wave (km/s) = 3.60216 3.72269 3.66292
# Velocity P-wave (km/s) = 6.79441 6.91281 6.85387
#
# Compressibility (1/GPa) = 0.01969874
#
# Stress axis : x y z
#
# Youngs Moduli (GPa) = 71.50043 58.90809 69.75516
#
# Poissons Ratio (x) = 0.20053 0.29774
# Poissons Ratio (y) = 0.24339 0.35763
# Poissons Ratio (z) = 0.30519 0.30201
#
# Static dielectric constant tensor:
#      x y z
#    x 3.374430 0.000000 0.000000 
#    y 0.000000 3.024860 0.000000 
#    z 0.000000 0.000000 3.379740 
# 
# 
# High freq. dielectric constant tensor:
#      x y z
#    x 1.681730 0.000000 0.000000 
#    y 0.000000 1.644220 0.000000 
#    z 0.000000 0.000000 1.695610 
# 
# From -- ./inp_files/3113.got.cif
#   From: 2010.03.12/outbox.cif.g09.slc.cpg/sg57_2_cif.got.tgz:3113.got - 2010.04.16 15:48:40.
