data_PCOD8230340
_publ_section_title
;
Structure prediction by ZEFSAII (Michael W. Deem and Ramdas Pophale) SiO2 
 PCOD8230340
Probable space group: P B C M
;
_chemical_formula_sum "Si O2"
_cell_formula_units_Z 40
_cell_length_a 14.031419
_cell_length_b 20.448690
_cell_length_c 8.827401
_cell_angle_alpha 90.000000
_cell_angle_beta 90.000000
_cell_angle_gamma 90.000000
_cell_volume 2532.794417
_symmetry_space_group_name_H-M "P B C M"
_symmetry_group_IT_number 57
_symmetry_cell_setting 'orthorhombic'
loop_
_space_group_symop_operation_xyz
x,y,z
-x,-y,1/2+z
x,1/2-y,-z
-x,1/2+y,1/2-z
-x,-y,-z
x,y,1/2-z
-x,1/2+y,z
x,1/2-y,1/2+z
loop_
_atom_site_type_symbol
_atom_site_label
_atom_site_fract_x
_atom_site_fract_y
_atom_site_fract_z
Si Si1 0.762365 0.425626 0.578417
Si Si2 0.241846 0.069016 0.578315
Si Si3 0.106459 0.182935 0.570739
Si Si4 0.110151 0.817245 0.071295
Si Si5 0.396757 0.503345 0.928928
O O1 0.749260 0.399855 0.750000
O O2 0.811277 0.498021 0.577561
O O3 0.826836 0.376949 0.484167
O O4 0.658471 0.433219 0.498197
O O5 0.271725 0.087429 0.750000
O O6 0.171557 0.123568 0.509520
O O7 0.337826 0.062474 0.476478
O O8 0.145946 0.250000 0.500000
O O9 0.111766 0.188020 0.750000
O O10 0.998249 0.170270 0.516968
O O11 0.117716 0.811757 0.250000
O O12 0.148988 0.750000 0.000000
O O13 0.403968 0.509456 0.750000
O O14 0.500000 0.500000 0.000000
#
# Coordination Sequence:
#
# PCOD8230340 Si02
#       5
#     8   8   8   8   8
#     4   9  18  32  49  71  97 126 160 200 242 284
#     4   8  17  32  48  70  98 127 159 199 241 282
#     4   9  18  32  48  69  99 133 166 198 235 280
#     4  10  19  31  48  70  98 133 167 198 236 282
#     4  10  18  31  51  74  96 122 156 195 244 294
#
# _framework density 15.792833
#
# number of rings (size 3 to 8) (size 9 to 14) (size 15 to 20)
#    1.200    1.600    0.000    2.400    0.000    2.400 
#    0.000    0.000    0.000    1.200    0.000    5.600 
#    0.000    0.000    0.000    0.000    0.000    0.000 
#
# Total GULP energy -495621.213054 kJ/mol
# GULP energy per Si atom -12390.530326 kJ/mol
# Density = 1.575689 g / cm^3
# Si number density = 15.792833 Si / 1000 Ang^3
#
#
#
# Elastic Constant Matrix: (Units=GPa)
#
#
# Indices 1 2 3 4 5 6 
#
# 1 100.2007 61.5668 40.4431 0.0000 0.0000 0.0000
# 2 61.5668 92.6119 33.1796 0.0000 0.0000 0.0000
# 3 40.4431 33.1796 82.8641 0.0000 0.0000 0.0000
# 4 0.0000 0.0000 0.0000 28.0699 0.0000 0.0000
# 5 0.0000 0.0000 0.0000 0.0000 25.3130 0.0000
# 6 0.0000 0.0000 0.0000 0.0000 0.0000 3.1701
#
#
#
# Elastic Compliance Matrix: (Units=1/GPa)
#
#
# Indices 1 2 3 4 5 6 
#
# 1 0.018345 -0.010493 -0.004752 0.000000 0.000000 0.000000
# 2 -0.010493 0.018608 -0.002329 0.000000 0.000000 0.000000
# 3 -0.004752 -0.002329 0.015320 0.000000 0.000000 0.000000
# 4 0.000000 0.000000 0.000000 0.035625 0.000000 0.000000
# 5 0.000000 0.000000 0.000000 0.000000 0.039505 0.000000
# 6 0.000000 0.000000 0.000000 0.000000 0.000000 0.315449
#
#
# Mechanical properties :
#
#
# Convention : Reuss Voigt Hill
#
# Bulk Modulus (GPa) = 58.39821 60.67286 59.53553
# Shear Modulus (GPa) = 10.33676 20.67641 15.50658
#
# Velocity S-wave (km/s) = 2.56114 3.62225 3.13689
# Velocity P-wave (km/s) = 6.76785 7.48302 7.13441
#
# Compressibility (1/GPa) = 0.01712381
#
# Stress axis : x y z
#
# Youngs Moduli (GPa) = 54.50947 53.74030 65.27386
#
# Poissons Ratio (x) = 0.56391 0.31019
# Poissons Ratio (y) = 0.57198 0.15205
# Poissons Ratio (z) = 0.25904 0.12519
#
# Static dielectric constant tensor:
#      x y z
#    x 2.896490 0.000000 0.000000 
#    y 0.000000 2.918290 0.000000 
#    z 0.000000 0.000000 3.029610 
# 
# 
# High freq. dielectric constant tensor:
#      x y z
#    x 1.587240 0.000000 0.000000 
#    y 0.000000 1.590470 0.000000 
#    z 0.000000 0.000000 1.617020 
# 
# From -- ./inp_files/3241.got.cif
#   From: 2010.03.12/outbox.cif.g09.slc.cpg/sg57_2_cif.got.tgz:3241.got - 2010.04.16 15:48:40.
