data_PCOD8230701
_publ_section_title
;
Structure prediction by ZEFSAII (Michael W. Deem and Ramdas Pophale) SiO2 
 PCOD8230701
Probable space group: P B C M
;
_chemical_formula_sum "Si O2"
_cell_formula_units_Z 64
_cell_length_a 23.351142
_cell_length_b 17.519167
_cell_length_c 8.509956
_cell_angle_alpha 90.000000
_cell_angle_beta 90.000000
_cell_angle_gamma 90.000000
_cell_volume 3481.359654
_symmetry_space_group_name_H-M "P B C M"
_symmetry_group_IT_number 57
_symmetry_cell_setting 'orthorhombic'
loop_
_space_group_symop_operation_xyz
x,y,z
-x,-y,1/2+z
x,1/2-y,-z
-x,1/2+y,1/2-z
-x,-y,-z
x,y,1/2-z
-x,1/2+y,z
x,1/2-y,1/2+z
loop_
_atom_site_type_symbol
_atom_site_label
_atom_site_fract_x
_atom_site_fract_y
_atom_site_fract_z
Si Si1 0.567771 0.587439 0.433709
Si Si2 0.626180 0.441361 0.934273
Si Si3 0.065660 0.332852 0.935644
Si Si4 0.863910 0.975162 0.063089
Si Si5 0.736864 0.523512 0.564395
Si Si6 0.034396 0.569597 0.434425
Si Si7 0.329986 0.171147 0.564288
Si Si8 0.459511 0.665870 0.566275
O O1 0.571227 0.568173 0.250000
O O2 0.585889 0.513969 0.533618
O O3 0.609406 0.657347 0.478570
O O4 0.503680 0.610408 0.478708
O O5 0.625118 0.423149 0.750000
O O6 0.691034 0.459977 0.993850
O O7 0.603554 0.367875 0.029305
O O8 0.070635 0.330289 0.750000
O O9 0.999561 0.353918 0.990431
O O10 0.082268 0.250000 0.000000
O O11 0.109689 0.396894 0.996304
O O12 0.862532 0.965710 0.250000
O O13 0.800244 0.988845 0.993204
O O14 0.899838 0.052285 0.013457
O O15 0.739731 0.518712 0.750000
O O16 0.715157 0.606806 0.512729
O O17 0.030760 0.567053 0.250000
O O18 0.000000 0.500000 0.500000
O O19 0.304313 0.250000 0.500000
O O20 0.339881 0.172576 0.750000
O O21 0.464603 0.750000 0.500000
O O22 0.472117 0.666773 0.750000
#
# Coordination Sequence:
#
# PCOD8230701 Si02
#       8
#     8   8   8   8   8   8   8   8
#     4  11  21  35  54  77 102 132 166 204 248 300
#     4  10  20  37  56  77 103 133 166 205 247 296
#     4  10  19  30  44  70 102 133 161 196 241 288
#     4   9  16  31  52  73  94 125 164 204 242 285
#     4   8  17  32  52  73  96 127 166 203 243 289
#     4   8  15  27  46  68  93 122 158 195 234 278
#     4  10  19  32  47  68  98 132 165 202 244 295
#     4  12  24  38  55  78 103 130 163 205 254 305
#
# _framework density 18.383623
#
# number of rings (size 3 to 8) (size 9 to 14) (size 15 to 20)
#    0.000    2.250    0.000    4.875    0.000    1.000 
#    0.000    5.000    0.000    0.750    0.000    1.750 
#    0.000    0.000    0.000    0.000    0.000    0.000 
#
# Total GULP energy -793048.574645 kJ/mol
# GULP energy per Si atom -12391.383979 kJ/mol
# Density = 1.834178 g / cm^3
# Si number density = 18.383623 Si / 1000 Ang^3
#
#
#
# Elastic Constant Matrix: (Units=GPa)
#
#
# Indices 1 2 3 4 5 6 
#
# 1 132.5895 35.0210 20.1613 0.0000 0.0000 0.0000
# 2 35.0210 42.3872 8.9866 0.0000 0.0000 0.0000
# 3 20.1613 8.9866 45.8279 0.0000 0.0000 0.0000
# 4 0.0000 0.0000 0.0000 24.2363 0.0000 0.0000
# 5 0.0000 0.0000 0.0000 0.0000 18.2420 0.0000
# 6 0.0000 0.0000 0.0000 0.0000 0.0000 18.8337
#
#
#
# Elastic Compliance Matrix: (Units=1/GPa)
#
#
# Indices 1 2 3 4 5 6 
#
# 1 0.010004 -0.007650 -0.002901 0.000000 0.000000 0.000000
# 2 -0.007650 0.030466 -0.002609 0.000000 0.000000 0.000000
# 3 -0.002901 -0.002609 0.023609 0.000000 0.000000 0.000000
# 4 0.000000 0.000000 0.000000 0.041260 0.000000 0.000000
# 5 0.000000 0.000000 0.000000 0.000000 0.054818 0.000000
# 6 0.000000 0.000000 0.000000 0.000000 0.000000 0.053096
#
#
# Mechanical properties :
#
#
# Convention : Reuss Voigt Hill
#
# Bulk Modulus (GPa) = 26.48392 38.79361 32.63877
# Shear Modulus (GPa) = 19.82873 22.70478 21.26676
#
# Velocity S-wave (km/s) = 3.28778 3.51815 3.40491
# Velocity P-wave (km/s) = 5.37124 6.13606 5.76634
#
# Compressibility (1/GPa) = 0.03775875
#
# Stress axis : x y z
#
# Youngs Moduli (GPa) = 99.96136 32.82354 42.35760
#
# Poissons Ratio (x) = 0.25111 0.12287
# Poissons Ratio (y) = 0.76474 0.11049
# Poissons Ratio (z) = 0.28997 0.08562
#
# Static dielectric constant tensor:
#      x y z
#    x 3.942530 0.000000 0.000000 
#    y 0.000000 3.464990 0.000000 
#    z 0.000000 0.000000 3.258990 
# 
# 
# High freq. dielectric constant tensor:
#      x y z
#    x 1.709710 0.000000 0.000000 
#    y 0.000000 1.694080 0.000000 
#    z 0.000000 0.000000 1.709410 
# 
# From -- ./inp_files/9486.got.cif
#   From: 2010.03.12/outbox.cif.g09.slc.cpg/sg57_5_cif.got.tgz:9486.got - 2010.04.16 15:48:40.
