data_PCOD8230980
_publ_section_title
;
Structure prediction by ZEFSAII (Michael W. Deem and Ramdas Pophale) SiO2 
 PCOD8230980
Probable space group: P B C M
;
_chemical_formula_sum "Si O2"
_cell_formula_units_Z 64
_cell_length_a 15.134836
_cell_length_b 24.537622
_cell_length_c 8.770695
_cell_angle_alpha 90.000000
_cell_angle_beta 90.000000
_cell_angle_gamma 90.000000
_cell_volume 3257.198304
_symmetry_space_group_name_H-M "P B C M"
_symmetry_group_IT_number 57
_symmetry_cell_setting 'orthorhombic'
loop_
_space_group_symop_operation_xyz
x,y,z
-x,-y,1/2+z
x,1/2-y,-z
-x,1/2+y,1/2-z
-x,-y,-z
x,y,1/2-z
-x,1/2+y,z
x,1/2-y,1/2+z
loop_
_atom_site_type_symbol
_atom_site_label
_atom_site_fract_x
_atom_site_fract_y
_atom_site_fract_z
Si Si1 0.243675 0.497808 0.575781
Si Si2 0.763338 0.617897 0.571976
Si Si3 0.925954 0.806692 0.430015
Si Si4 0.719105 0.384284 0.429316
Si Si5 0.623474 0.694175 0.427992
Si Si6 0.097637 0.650310 0.081150
Si Si7 0.076408 0.529986 0.419023
Si Si8 0.420739 0.806823 0.570142
O O1 0.255877 0.478554 0.750000
O O2 0.248706 0.445935 0.465783
O O3 0.303027 0.551285 0.535994
O O4 0.150002 0.525074 0.547152
O O5 0.750260 0.626336 0.750000
O O6 0.857909 0.644389 0.521336
O O7 0.682600 0.645196 0.485756
O O8 0.889907 0.750000 0.500000
O O9 0.928051 0.801239 0.250000
O O10 0.027029 0.814848 0.485505
O O11 0.729334 0.375122 0.250000
O O12 0.806241 0.357334 0.505290
O O13 0.633652 0.355093 0.494955
O O14 0.658368 0.750000 0.500000
O O15 0.634207 0.700047 0.250000
O O16 0.522429 0.682612 0.474468
O O17 0.110782 0.676575 0.250000
O O18 0.050536 0.592381 0.100853
O O19 0.099617 0.505323 0.250000
O O20 0.000000 0.500000 0.500000
O O21 0.387636 0.750000 0.500000
O O22 0.405494 0.805852 0.750000
#
# Coordination Sequence:
#
# PCOD8230980 Si02
#       8
#     8   8   8   8   8   8   8   8
#     4  10  21  36  55  80 112 149 189 234 283 337
#     4  11  23  38  59  85 114 151 193 238 287 341
#     4  11  24  39  55  79 111 147 189 236 285 338
#     4  10  21  38  60  86 117 152 190 235 284 336
#     4  10  21  38  61  88 117 148 187 235 286 341
#     4  10  21  36  54  77 107 144 183 224 272 326
#     4  10  19  31  50  75 103 138 181 227 273 322
#     4  10  21  38  62  90 117 147 185 231 282 339
#
# _framework density 19.648788
#
# number of rings (size 3 to 8) (size 9 to 14) (size 15 to 20)
#    0.000    1.750    0.000    4.125    0.000   10.000 
#    0.000    3.125    0.000    0.000    0.000    0.000 
#    0.000    0.000    0.000    0.000    0.000    0.000 
#
# Total GULP energy -793075.644874 kJ/mol
# GULP energy per Si atom -12391.806951 kJ/mol
# Density = 1.960407 g / cm^3
# Si number density = 19.648788 Si / 1000 Ang^3
#
#
#
# Elastic Constant Matrix: (Units=GPa)
#
#
# Indices 1 2 3 4 5 6 
#
# 1 68.5064 40.8566 36.6703 0.0000 0.0000 0.0000
# 2 40.8566 100.9328 35.3032 0.0000 0.0000 0.0000
# 3 36.6703 35.3032 84.4381 0.0000 0.0000 0.0000
# 4 0.0000 0.0000 0.0000 36.2952 0.0000 0.0000
# 5 0.0000 0.0000 0.0000 0.0000 32.3970 0.0000
# 6 0.0000 0.0000 0.0000 0.0000 0.0000 36.8849
#
#
#
# Elastic Compliance Matrix: (Units=1/GPa)
#
#
# Indices 1 2 3 4 5 6 
#
# 1 0.022212 -0.006579 -0.006896 0.000000 0.000000 0.000000
# 2 -0.006579 0.013553 -0.002809 0.000000 0.000000 0.000000
# 3 -0.006896 -0.002809 0.016012 0.000000 0.000000 0.000000
# 4 0.000000 0.000000 0.000000 0.027552 0.000000 0.000000
# 5 0.000000 0.000000 0.000000 0.000000 0.030867 0.000000
# 6 0.000000 0.000000 0.000000 0.000000 0.000000 0.027111
#
#
# Mechanical properties :
#
#
# Convention : Reuss Voigt Hill
#
# Bulk Modulus (GPa) = 52.05834 53.28195 52.67014
# Shear Modulus (GPa) = 28.36399 30.51856 29.44127
#
# Velocity S-wave (km/s) = 3.80353 3.94535 3.87509
# Velocity P-wave (km/s) = 6.77060 6.92318 6.84731
#
# Compressibility (1/GPa) = 0.01920922
#
# Stress axis : x y z
#
# Youngs Moduli (GPa) = 45.02036 73.78195 62.45223
#
# Poissons Ratio (x) = 0.48544 0.43065
# Poissons Ratio (y) = 0.29621 0.17545
# Poissons Ratio (z) = 0.31044 0.20728
#
# Static dielectric constant tensor:
#      x y z
#    x 3.395400 0.000000 0.000000 
#    y 0.000000 2.190570 0.000000 
#    z 0.000000 0.000000 3.722470 
# 
# 
# High freq. dielectric constant tensor:
#      x y z
#    x 1.751790 0.000000 0.000000 
#    y 0.000000 1.770530 0.000000 
#    z 0.000000 0.000000 1.781750 
# 
# From -- ./inp_files/5742.got.cif
#   From: 2010.03.12/outbox.cif.g09.slc.cpg/sg57_3_cif.got.tgz:5742.got - 2010.04.16 15:48:40.
