data_PCOD8230626
_publ_section_title
;
Structure prediction by ZEFSAII (Michael W. Deem and Ramdas Pophale) SiO2 
 PCOD8230626
Probable space group: P B C M
;
_chemical_formula_sum "Si O2"
_cell_formula_units_Z 64
_cell_length_a 22.619027
_cell_length_b 20.360279
_cell_length_c 8.984625
_cell_angle_alpha 90.000000
_cell_angle_beta 90.000000
_cell_angle_gamma 90.000000
_cell_volume 4137.686660
_symmetry_space_group_name_H-M "P B C M"
_symmetry_group_IT_number 57
_symmetry_cell_setting 'orthorhombic'
loop_
_space_group_symop_operation_xyz
x,y,z
-x,-y,1/2+z
x,1/2-y,-z
-x,1/2+y,1/2-z
-x,-y,-z
x,y,1/2-z
-x,1/2+y,z
x,1/2-y,1/2+z
loop_
_atom_site_type_symbol
_atom_site_label
_atom_site_fract_x
_atom_site_fract_y
_atom_site_fract_z
Si Si1 0.819737 0.939954 0.074783
Si Si2 0.901393 0.682138 0.574918
Si Si3 0.604665 0.682833 0.574644
Si Si4 0.912127 0.023056 0.917347
Si Si5 0.514516 0.896739 0.919958
Si Si6 0.688779 0.566191 0.578230
Si Si7 0.996714 0.601723 0.417761
Si Si8 0.419566 0.990060 0.921136
O O1 0.820894 0.953458 0.250000
O O2 0.850974 0.871010 0.036432
O O3 0.753533 0.938211 0.004696
O O4 0.852183 0.001227 0.998348
O O5 0.881328 0.750000 0.500000
O O6 0.908778 0.692012 0.750000
O O7 0.964234 0.659301 0.508507
O O8 0.624970 0.750000 0.500000
O O9 0.604393 0.691053 0.750000
O O10 0.538087 0.662851 0.521949
O O11 0.650562 0.627562 0.516712
O O12 0.897444 0.045497 0.750000
O O13 0.956920 0.962724 0.917071
O O14 0.941076 0.084624 0.003675
O O15 0.526970 0.877055 0.750000
O O16 0.444420 0.915388 0.943758
O O17 0.548905 0.963249 0.960189
O O18 0.700415 0.580077 0.750000
O O19 0.651276 0.498440 0.552970
O O20 0.008812 0.626158 0.250000
O O21 0.433549 0.013064 0.750000
#
# Coordination Sequence:
#
# PCOD8230626 Si02
#       8
#     8   8   8   8   8   8   8   8
#     4   9  17  29  43  58  80 112 145 172 201 240
#     4  10  19  29  41  58  81 110 142 174 205 238
#     4  10  19  30  42  57  80 110 143 177 210 245
#     4   9  16  26  41  61  82 102 129 168 210 247
#     4   9  15  24  40  60  79 101 131 168 211 253
#     4   8  15  28  43  58  79 109 142 173 203 238
#     4   9  16  27  43  60  78 102 132 167 208 250
#     4   8  14  25  41  59  79 103 132 168 209 249
#
# _framework density 15.46758
#
# number of rings (size 3 to 8) (size 9 to 14) (size 15 to 20)
#    0.000    3.000    0.000    2.625    0.000    4.500 
#    0.000    3.125    0.000    0.000    0.000    0.000 
#    0.000    1.000    0.000    5.000    0.000    4.000 
#
# Total GULP energy -793001.080853 kJ/mol
# GULP energy per Si atom -12390.641888 kJ/mol
# Density = 1.543238 g / cm^3
# Si number density = 15.467580 Si / 1000 Ang^3
#
#
#
# Elastic Constant Matrix: (Units=GPa)
#
#
# Indices 1 2 3 4 5 6 
#
# 1 114.4734 50.7024 40.3308 0.0000 0.0000 0.0000
# 2 50.7024 27.6133 20.7035 0.0000 0.0000 0.0000
# 3 40.3308 20.7035 73.0733 0.0000 0.0000 0.0000
# 4 0.0000 0.0000 0.0000 23.5069 0.0000 0.0000
# 5 0.0000 0.0000 0.0000 0.0000 16.3553 0.0000
# 6 0.0000 0.0000 0.0000 0.0000 0.0000 16.1856
#
#
#
# Elastic Compliance Matrix: (Units=1/GPa)
#
#
# Indices 1 2 3 4 5 6 
#
# 1 0.046988 -0.084859 -0.001891 0.000000 0.000000 0.000000
# 2 -0.084859 0.199237 -0.009613 0.000000 0.000000 0.000000
# 3 -0.001891 -0.009613 0.017452 0.000000 0.000000 0.000000
# 4 0.000000 0.000000 0.000000 0.042541 0.000000 0.000000
# 5 0.000000 0.000000 0.000000 0.000000 0.061142 0.000000
# 6 0.000000 0.000000 0.000000 0.000000 0.000000 0.061783
#
#
# Mechanical properties :
#
#
# Convention : Reuss Voigt Hill
#
# Bulk Modulus (GPa) = 14.09428 48.73704 31.41566
# Shear Modulus (GPa) = 7.74570 18.10445 12.92507
#
# Velocity S-wave (km/s) = 2.24022 3.42494 2.89385
# Velocity P-wave (km/s) = 3.97786 6.87152 5.61432
#
# Compressibility (1/GPa) = 0.07095076
#
# Stress axis : x y z
#
# Youngs Moduli (GPa) = 21.28224 5.01914 57.29962
#
# Poissons Ratio (x) = 0.42592 0.10834
# Poissons Ratio (y) = 1.80599 0.55083
# Poissons Ratio (z) = 0.04024 0.04825
#
# Static dielectric constant tensor:
#      x y z
#    x 3.133350 0.000000 0.000000 
#    y 0.000000 2.772280 0.000000 
#    z 0.000000 0.000000 2.997290 
# 
# 
# High freq. dielectric constant tensor:
#      x y z
#    x 1.575930 0.000000 0.000000 
#    y 0.000000 1.553430 0.000000 
#    z 0.000000 0.000000 1.598330 
# 
# From -- ./inp_files/8810.got.cif
#   From: 2010.03.12/outbox.cif.g09.slc.cpg/sg57_5_cif.got.tgz:8810.got - 2010.04.16 15:48:40.
