data_PCOD8230919
_publ_section_title
;
Structure prediction by ZEFSAII (Michael W. Deem and Ramdas Pophale) SiO2 
 PCOD8230919
Probable space group: P B C M
;
_chemical_formula_sum "Si O2"
_cell_formula_units_Z 64
_cell_length_a 11.980496
_cell_length_b 28.749019
_cell_length_c 8.657625
_cell_angle_alpha 90.000000
_cell_angle_beta 90.000000
_cell_angle_gamma 90.000000
_cell_volume 2981.924196
_symmetry_space_group_name_H-M "P B C M"
_symmetry_group_IT_number 57
_symmetry_cell_setting 'orthorhombic'
loop_
_space_group_symop_operation_xyz
x,y,z
-x,-y,1/2+z
x,1/2-y,-z
-x,1/2+y,1/2-z
-x,-y,-z
x,y,1/2-z
-x,1/2+y,z
x,1/2-y,1/2+z
loop_
_atom_site_type_symbol
_atom_site_label
_atom_site_fract_x
_atom_site_fract_y
_atom_site_fract_z
Si Si1 0.038008 0.294956 0.420549
Si Si2 0.254514 0.896631 0.065617
Si Si3 0.718677 0.944094 0.430535
Si Si4 0.392514 0.299656 0.433857
Si Si5 0.777097 0.295387 0.419149
Si Si6 0.195642 0.354201 0.929574
Si Si7 0.500700 0.604372 0.931880
Si Si8 0.881886 0.016783 0.931689
O O1 0.091838 0.250000 0.500000
O O2 0.090254 0.301772 0.250000
O O3 0.907570 0.288310 0.404994
O O4 0.069556 0.337992 0.532216
O O5 0.246241 0.893604 0.250000
O O6 0.241094 0.844752 0.994125
O O7 0.378659 0.913085 0.013371
O O8 0.157229 0.931906 0.007979
O O9 0.720590 0.956901 0.250000
O O10 0.789976 0.898256 0.460885
O O11 0.593817 0.932111 0.495643
O O12 0.776553 0.984955 0.525732
O O13 0.435534 0.250000 0.500000
O O14 0.378596 0.296403 0.250000
O O15 0.275714 0.312270 0.515626
O O16 0.477445 0.341755 0.481898
O O17 0.722983 0.250000 0.500000
O O18 0.720624 0.297628 0.250000
O O19 0.211344 0.366662 0.750000
O O20 0.512694 0.602518 0.750000
O O21 0.898271 0.016662 0.750000
O O22 0.000000 0.000000 0.000000
#
# Coordination Sequence:
#
# PCOD8230919 Si02
#       8
#     8   8   8   8   8   8   8   8
#     4  10  19  31  48  73 107 149 197 245 297 354
#     4   9  19  38  62  88 119 157 199 243 298 360
#     4  10  21  39  61  86 119 155 193 242 299 359
#     4  10  19  32  51  79 116 157 198 247 299 353
#     4   9  19  35  56  82 114 154 195 238 289 349
#     4  11  21  33  52  79 111 151 197 247 298 355
#     4   8  17  35  59  85 114 154 201 246 298 358
#     4  11  24  41  64  93 123 158 199 247 300 362
#
# _framework density 21.462651999999999
#
# number of rings (size 3 to 8) (size 9 to 14) (size 15 to 20)
#    0.000    2.250    0.000    3.750    1.750    1.500 
#    0.000    1.250    0.000   12.000    0.000    0.000 
#    0.000    0.000    0.000    0.000    0.000    0.000 
#
# Total GULP energy -792901.106630 kJ/mol
# GULP energy per Si atom -12389.079791 kJ/mol
# Density = 2.141380 g / cm^3
# Si number density = 21.462652 Si / 1000 Ang^3
#
#
#
# Elastic Constant Matrix: (Units=GPa)
#
#
# Indices 1 2 3 4 5 6 
#
# 1 65.2134 65.6591 29.3379 0.0000 0.0000 0.0000
# 2 65.6591 137.0444 18.0886 0.0000 0.0000 0.0000
# 3 29.3379 18.0886 60.2035 0.0000 0.0000 0.0000
# 4 0.0000 0.0000 0.0000 30.7955 0.0000 0.0000
# 5 0.0000 0.0000 0.0000 0.0000 18.5054 0.0000
# 6 0.0000 0.0000 0.0000 0.0000 0.0000 27.5315
#
#
#
# Elastic Compliance Matrix: (Units=1/GPa)
#
#
# Indices 1 2 3 4 5 6 
#
# 1 0.037930 -0.016382 -0.013561 0.000000 0.000000 0.000000
# 2 -0.016382 0.014674 0.003574 0.000000 0.000000 0.000000
# 3 -0.013561 0.003574 0.022145 0.000000 0.000000 0.000000
# 4 0.000000 0.000000 0.000000 0.032472 0.000000 0.000000
# 5 0.000000 0.000000 0.000000 0.000000 0.054038 0.000000
# 6 0.000000 0.000000 0.000000 0.000000 0.000000 0.036322
#
#
# Mechanical properties :
#
#
# Convention : Reuss Voigt Hill
#
# Bulk Modulus (GPa) = 45.43395 54.29249 49.86322
# Shear Modulus (GPa) = 19.40569 25.32486 22.36528
#
# Velocity S-wave (km/s) = 3.01019 3.43877 3.23159
# Velocity P-wave (km/s) = 5.77031 6.41233 6.09977
#
# Compressibility (1/GPa) = 0.02200997
#
# Stress axis : x y z
#
# Youngs Moduli (GPa) = 26.36468 68.14748 45.15697
#
# Poissons Ratio (x) = 1.11642 0.61239
# Poissons Ratio (y) = 0.43192 -0.16141
# Poissons Ratio (z) = 0.35754 -0.24359
#
# Static dielectric constant tensor:
#      x y z
#    x 3.918170 0.000000 0.000000 
#    y 0.000000 4.093680 0.000000 
#    z 0.000000 0.000000 3.801670 
# 
# 
# High freq. dielectric constant tensor:
#      x y z
#    x 1.838430 0.000000 0.000000 
#    y 0.000000 1.845410 0.000000 
#    z 0.000000 0.000000 1.814300 
# 
# From -- ./inp_files/3759.got.cif
#   From: 2010.03.12/outbox.cif.g09.slc.cpg/sg57_2_cif.got.tgz:3759.got - 2010.04.16 15:48:40.
