data_PCOD8230438
_publ_section_title
;
Structure prediction by ZEFSAII (Michael W. Deem and Ramdas Pophale) SiO2 
 PCOD8230438
Probable space group: P B C M
;
_chemical_formula_sum "Si O2"
_cell_formula_units_Z 48
_cell_length_a 30.874971
_cell_length_b 9.571041
_cell_length_c 8.557024
_cell_angle_alpha 90.000000
_cell_angle_beta 90.000000
_cell_angle_gamma 90.000000
_cell_volume 2528.648625
_symmetry_space_group_name_H-M "P B C M"
_symmetry_group_IT_number 57
_symmetry_cell_setting 'orthorhombic'
loop_
_space_group_symop_operation_xyz
x,y,z
-x,-y,1/2+z
x,1/2-y,-z
-x,1/2+y,1/2-z
-x,-y,-z
x,y,1/2-z
-x,1/2+y,z
x,1/2-y,1/2+z
loop_
_atom_site_type_symbol
_atom_site_label
_atom_site_fract_x
_atom_site_fract_y
_atom_site_fract_z
Si Si1 0.535200 0.397695 0.934335
Si Si2 0.367963 0.601982 0.433561
Si Si3 0.873405 0.094575 0.064430
Si Si4 0.038013 0.594195 0.935213
Si Si5 0.709076 0.905535 0.064644
Si Si6 0.784668 0.405077 0.065148
O O1 0.533391 0.397561 0.750000
O O2 0.583713 0.435952 0.994142
O O3 0.521111 0.250000 0.000000
O O4 0.500000 0.500000 0.000000
O O5 0.351699 0.750000 0.500000
O O6 0.367983 0.619697 0.250000
O O7 0.335947 0.478444 0.485619
O O8 0.875605 0.090781 0.250000
O O9 0.872181 0.250000 0.000000
O O10 0.916728 0.024289 0.993578
O O11 0.828892 0.025475 0.003542
O O12 0.036858 0.598166 0.750000
O O13 0.032609 0.750000 0.000000
O O14 0.000000 0.500000 0.000000
O O15 0.715780 0.905360 0.250000
O O16 0.708573 0.750000 0.000000
O O17 0.747009 0.991362 0.983962
O O18 0.788268 0.394596 0.250000
O O19 0.775638 0.250000 0.000000
#
# Coordination Sequence:
#
# PCOD8230438 Si02
#       6
#     8   8   8   8   8   8
#     4  10  20  36  56  82 112 146 183 226 273 324
#     4   9  20  37  58  81 108 141 184 227 270 321
#     4  10  18  32  54  81 109 142 182 227 271 320
#     4  11  21  36  56  82 113 148 186 229 276 327
#     4  11  23  39  56  80 111 145 180 222 273 328
#     4  11  21  36  58  84 110 142 181 225 270 322
#
# _framework density 18.982472000000001
#
# number of rings (size 3 to 8) (size 9 to 14) (size 15 to 20)
#    0.000    1.667    0.000    8.000    0.000    4.000 
#    0.000    2.500    0.000    0.000    0.000    0.000 
#    0.000    0.000    0.000    0.000    0.000    0.000 
#
# Total GULP energy -595128.688367 kJ/mol
# GULP energy per Si atom -12398.514341 kJ/mol
# Density = 1.893927 g / cm^3
# Si number density = 18.982472 Si / 1000 Ang^3
#
#
#
# Elastic Constant Matrix: (Units=GPa)
#
#
# Indices 1 2 3 4 5 6 
#
# 1 159.1621 84.9707 59.9485 0.0000 0.0000 0.0000
# 2 84.9707 109.7597 46.2180 0.0000 0.0000 0.0000
# 3 59.9485 46.2180 140.3111 0.0000 0.0000 0.0000
# 4 0.0000 0.0000 0.0000 31.6666 0.0000 0.0000
# 5 0.0000 0.0000 0.0000 0.0000 31.2243 0.0000
# 6 0.0000 0.0000 0.0000 0.0000 0.0000 37.3795
#
#
#
# Elastic Compliance Matrix: (Units=1/GPa)
#
#
# Indices 1 2 3 4 5 6 
#
# 1 0.011293 -0.007792 -0.002259 0.000000 0.000000 0.000000
# 2 -0.007792 0.015954 -0.001926 0.000000 0.000000 0.000000
# 3 -0.002259 -0.001926 0.008726 0.000000 0.000000 0.000000
# 4 0.000000 0.000000 0.000000 0.031579 0.000000 0.000000
# 5 0.000000 0.000000 0.000000 0.000000 0.032026 0.000000
# 6 0.000000 0.000000 0.000000 0.000000 0.000000 0.026753
#
#
# Mechanical properties :
#
#
# Convention : Reuss Voigt Hill
#
# Bulk Modulus (GPa) = 83.18860 87.94522 85.56691
# Shear Modulus (GPa) = 32.40629 34.59381 33.50005
#
# Velocity S-wave (km/s) = 4.13627 4.27360 4.20550
# Velocity P-wave (km/s) = 8.16889 8.41319 8.29194
#
# Compressibility (1/GPa) = 0.01202088
#
# Stress axis : x y z
#
# Youngs Moduli (GPa) = 88.54835 62.68101 114.59423
#
# Poissons Ratio (x) = 0.48839 0.25882
# Poissons Ratio (y) = 0.68994 0.22072
# Poissons Ratio (z) = 0.19999 0.12073
#
# Static dielectric constant tensor:
#      x y z
#    x 1.198020 0.000000 0.000000 
#    y 0.000000 3.371780 0.000000 
#    z 0.000000 0.000000 3.648440 
# 
# 
# High freq. dielectric constant tensor:
#      x y z
#    x 1.762290 0.000000 0.000000 
#    y 0.000000 1.710140 0.000000 
#    z 0.000000 0.000000 1.755880 
# 
# From -- ./inp_files/10015.got.cif
#   From: 2010.03.12/outbox.cif.g09.slc.cpg/sg57_6_cif.got.tgz:10015.got - 2010.04.16 15:48:40.
