data_PCOD8230667
_publ_section_title
;
Structure prediction by ZEFSAII (Michael W. Deem and Ramdas Pophale) SiO2 
 PCOD8230667
Probable space group: P B C M
;
_chemical_formula_sum "Si O2"
_cell_formula_units_Z 64
_cell_length_a 15.695935
_cell_length_b 28.493418
_cell_length_c 8.981349
_cell_angle_alpha 90.000000
_cell_angle_beta 90.000000
_cell_angle_gamma 90.000000
_cell_volume 4016.736229
_symmetry_space_group_name_H-M "P B C M"
_symmetry_group_IT_number 57
_symmetry_cell_setting 'orthorhombic'
loop_
_space_group_symop_operation_xyz
x,y,z
-x,-y,1/2+z
x,1/2-y,-z
-x,1/2+y,1/2-z
-x,-y,-z
x,y,1/2-z
-x,1/2+y,z
x,1/2-y,1/2+z
loop_
_atom_site_type_symbol
_atom_site_label
_atom_site_fract_x
_atom_site_fract_y
_atom_site_fract_z
Si Si1 0.814867 0.952704 0.575664
Si Si2 0.816863 0.053443 0.424886
Si Si3 0.410012 0.703535 0.575305
Si Si4 0.998918 0.951118 0.922048
Si Si5 0.500770 0.449668 0.073988
Si Si6 0.668123 0.394270 0.077584
Si Si7 0.651157 0.896449 0.922329
Si Si8 0.590052 0.796210 0.576475
O O1 0.807541 0.963830 0.750000
O O2 0.907037 0.927772 0.537550
O O3 0.742557 0.916148 0.525801
O O4 0.801904 0.001933 0.492630
O O5 0.803071 0.048875 0.250000
O O6 0.750635 0.090709 0.487087
O O7 0.911944 0.074523 0.464961
O O8 0.369630 0.750000 0.500000
O O9 0.424925 0.711584 0.750000
O O10 0.346220 0.660673 0.546154
O O11 0.500175 0.692176 0.499847
O O12 0.001553 0.962344 0.750000
O O13 0.000000 0.000000 0.000000
O O14 0.496844 0.455249 0.250000
O O15 0.586281 0.423340 0.022600
O O16 0.500000 0.500000 0.000000
O O17 0.420385 0.419888 0.022478
O O18 0.684968 0.404267 0.250000
O O19 0.632231 0.908429 0.750000
O O20 0.652375 0.840400 0.948166
O O21 0.631278 0.750000 0.500000
O O22 0.574822 0.786144 0.750000
#
# Coordination Sequence:
#
# PCOD8230667 Si02
#       8
#     8   8   8   8   8   8   8   8
#     4   9  17  31  48  65  92 125 153 184 228 275
#     4  10  19  29  45  70  94 118 155 194 226 263
#     4  10  19  33  50  68  88 115 151 189 232 274
#     4   8  15  28  45  65  89 117 149 188 229 268
#     4  11  22  34  45  61  91 127 159 187 219 263
#     4  10  21  34  46  63  91 125 154 181 225 276
#     4  10  20  32  47  68  90 119 156 188 222 268
#     4  10  19  31  48  68  90 115 149 190 230 270
#
# _framework density 15.933332999999999
#
# number of rings (size 3 to 8) (size 9 to 14) (size 15 to 20)
#    0.000    2.250    1.250    3.000    0.000    6.500 
#    0.000    0.000    0.000    0.000    0.000    0.875 
#    0.000    4.000    0.000    0.000    0.000    0.000 
#
# Total GULP energy -793118.065695 kJ/mol
# GULP energy per Si atom -12392.469776 kJ/mol
# Density = 1.589707 g / cm^3
# Si number density = 15.933333 Si / 1000 Ang^3
#
#
#
# Elastic Constant Matrix: (Units=GPa)
#
#
# Indices 1 2 3 4 5 6 
#
# 1 130.2659 58.7417 44.3563 0.0000 0.0000 0.0000
# 2 58.7417 101.1302 40.3720 0.0000 0.0000 0.0000
# 3 44.3563 40.3720 63.4605 0.0000 0.0000 0.0000
# 4 0.0000 0.0000 0.0000 22.7648 0.0000 0.0000
# 5 0.0000 0.0000 0.0000 0.0000 19.4642 0.0000
# 6 0.0000 0.0000 0.0000 0.0000 0.0000 10.1224
#
#
#
# Elastic Compliance Matrix: (Units=1/GPa)
#
#
# Indices 1 2 3 4 5 6 
#
# 1 0.011506 -0.004655 -0.005081 0.000000 0.000000 0.000000
# 2 -0.004655 0.015138 -0.006377 0.000000 0.000000 0.000000
# 3 -0.005081 -0.006377 0.023366 0.000000 0.000000 0.000000
# 4 0.000000 0.000000 0.000000 0.043928 0.000000 0.000000
# 5 0.000000 0.000000 0.000000 0.000000 0.051376 0.000000
# 6 0.000000 0.000000 0.000000 0.000000 0.000000 0.098791
#
#
# Mechanical properties :
#
#
# Convention : Reuss Voigt Hill
#
# Bulk Modulus (GPa) = 56.22835 64.64409 60.43622
# Shear Modulus (GPa) = 17.71438 20.56270 19.13854
#
# Velocity S-wave (km/s) = 3.33796 3.59631 3.46954
# Velocity P-wave (km/s) = 7.08677 7.60949 7.35278
#
# Compressibility (1/GPa) = 0.01778462
#
# Stress axis : x y z
#
# Youngs Moduli (GPa) = 86.91385 66.06057 42.79779
#
# Poissons Ratio (x) = 0.30750 0.21744
# Poissons Ratio (y) = 0.40457 0.27291
# Poissons Ratio (z) = 0.44158 0.42125
#
# Static dielectric constant tensor:
#      x y z
#    x 3.496910 0.000000 0.000000 
#    y 0.000000 2.890860 0.000000 
#    z 0.000000 0.000000 3.102920 
# 
# 
# High freq. dielectric constant tensor:
#      x y z
#    x 1.606390 0.000000 0.000000 
#    y 0.000000 1.591580 0.000000 
#    z 0.000000 0.000000 1.623670 
# 
# From -- ./inp_files/6022.got.cif
#   From: 2010.03.12/outbox.cif.g09.slc.cpg/sg57_4_cif.got.tgz:6022.got - 2010.04.16 15:48:40.
