data_PCOD8230651
_publ_section_title
;
Structure prediction by ZEFSAII (Michael W. Deem and Ramdas Pophale) SiO2 
 PCOD8230651
Probable space group: P B C M
;
_chemical_formula_sum "Si O2"
_cell_formula_units_Z 56
_cell_length_a 16.213586
_cell_length_b 24.643473
_cell_length_c 8.895139
_cell_angle_alpha 90.000000
_cell_angle_beta 90.000000
_cell_angle_gamma 90.000000
_cell_volume 3554.133456
_symmetry_space_group_name_H-M "P B C M"
_symmetry_group_IT_number 57
_symmetry_cell_setting 'orthorhombic'
loop_
_space_group_symop_operation_xyz
x,y,z
-x,-y,1/2+z
x,1/2-y,-z
-x,1/2+y,1/2-z
-x,-y,-z
x,y,1/2-z
-x,1/2+y,z
x,1/2-y,1/2+z
loop_
_atom_site_type_symbol
_atom_site_label
_atom_site_fract_x
_atom_site_fract_y
_atom_site_fract_z
Si Si1 0.381407 0.401369 0.571707
Si Si2 0.122739 0.991312 0.426870
Si Si3 0.973968 0.585234 0.573206
Si Si4 0.921639 0.693477 0.072147
Si Si5 0.267284 0.195125 0.426553
Si Si6 0.528884 0.055597 0.572902
Si Si7 0.305078 0.512982 0.573648
O O1 0.390427 0.401111 0.750000
O O2 0.326025 0.352134 0.512341
O O3 0.473786 0.396603 0.500521
O O4 0.337303 0.455582 0.509347
O O5 0.121330 0.004040 0.250000
O O6 0.213502 0.973604 0.487277
O O7 0.061605 0.942205 0.466819
O O8 0.098186 0.046871 0.509814
O O9 0.961404 0.592658 0.750000
O O10 0.974109 0.643830 0.494586
O O11 0.934341 0.696405 0.250000
O O12 0.826710 0.682994 0.026139
O O13 0.952762 0.750000 0.000000
O O14 0.299941 0.250000 0.500000
O O15 0.274283 0.201211 0.250000
O O16 0.513837 0.053939 0.750000
O O17 0.627664 0.060476 0.536381
O O18 0.500000 0.000000 0.500000
O O19 0.297646 0.505476 0.750000
#
# Coordination Sequence:
#
# PCOD8230651 Si02
#       7
#     8   8   8   8   8   8   8
#     4   9  16  27  42  60  84 112 139 168 206 247
#     4   9  17  30  46  62  86 120 150 177 212 256
#     4  10  19  29  43  66  91 114 145 181 218 259
#     4  10  19  32  48  64  86 115 146 179 215 255
#     4   9  18  30  44  62  84 112 143 173 205 246
#     4   9  16  26  40  59  82 107 137 169 201 239
#     4   8  14  26  43  60  80 110 144 171 202 247
#
# _framework density 15.756302
#
# number of rings (size 3 to 8) (size 9 to 14) (size 15 to 20)
#    0.000    2.857    0.000    3.000    0.000    4.000 
#    0.000    6.429    0.000    0.000    0.000    1.000 
#    0.000    2.286    0.000    0.000    0.000    0.000 
#
# Total GULP energy -694021.726519 kJ/mol
# GULP energy per Si atom -12393.245116 kJ/mol
# Density = 1.572044 g / cm^3
# Si number density = 15.756302 Si / 1000 Ang^3
#
#
#
# Elastic Constant Matrix: (Units=GPa)
#
#
# Indices 1 2 3 4 5 6 
#
# 1 108.3965 46.5378 25.7471 0.0000 0.0000 0.0000
# 2 46.5378 97.1380 32.1084 0.0000 0.0000 0.0000
# 3 25.7471 32.1084 46.2324 0.0000 0.0000 0.0000
# 4 0.0000 0.0000 0.0000 26.4761 0.0000 0.0000
# 5 0.0000 0.0000 0.0000 0.0000 20.7178 0.0000
# 6 0.0000 0.0000 0.0000 0.0000 0.0000 24.8323
#
#
#
# Elastic Compliance Matrix: (Units=1/GPa)
#
#
# Indices 1 2 3 4 5 6 
#
# 1 0.012036 -0.004609 -0.003502 0.000000 0.000000 0.000000
# 2 -0.004609 0.015127 -0.007939 0.000000 0.000000 0.000000
# 3 -0.003502 -0.007939 0.029094 0.000000 0.000000 0.000000
# 4 0.000000 0.000000 0.000000 0.037770 0.000000 0.000000
# 5 0.000000 0.000000 0.000000 0.000000 0.048268 0.000000
# 6 0.000000 0.000000 0.000000 0.000000 0.000000 0.040270
#
#
# Mechanical properties :
#
#
# Convention : Reuss Voigt Hill
#
# Bulk Modulus (GPa) = 41.39594 51.17263 46.28429
# Shear Modulus (GPa) = 22.45011 24.23014 23.34012
#
# Velocity S-wave (km/s) = 3.77879 3.92574 3.85297
# Velocity P-wave (km/s) = 6.73563 7.28675 7.01660
#
# Compressibility (1/GPa) = 0.02415696
#
# Stress axis : x y z
#
# Youngs Moduli (GPa) = 83.08496 66.10803 34.37154
#
# Poissons Ratio (x) = 0.30467 0.12037
# Poissons Ratio (y) = 0.38291 0.27287
# Poissons Ratio (z) = 0.29098 0.52483
#
# Static dielectric constant tensor:
#      x y z
#    x 3.397080 0.000000 0.000000 
#    y 0.000000 2.896310 0.000000 
#    z 0.000000 0.000000 2.966560 
# 
# 
# High freq. dielectric constant tensor:
#      x y z
#    x 1.601460 0.000000 0.000000 
#    y 0.000000 1.576410 0.000000 
#    z 0.000000 0.000000 1.601020 
# 
# From -- ./inp_files/7021.got.cif
#   From: 2010.03.12/outbox.cif.g09.slc.cpg/sg57_4_cif.got.tgz:7021.got - 2010.04.16 15:48:40.
