data_PCOD8230625
_publ_section_title
;
Structure prediction by ZEFSAII (Michael W. Deem and Ramdas Pophale) SiO2 
 PCOD8230625
Probable space group: P B C M
;
_chemical_formula_sum "Si O2"
_cell_formula_units_Z 64
_cell_length_a 22.638270
_cell_length_b 20.002017
_cell_length_c 9.210124
_cell_angle_alpha 90.000000
_cell_angle_beta 90.000000
_cell_angle_gamma 90.000000
_cell_volume 4170.446024
_symmetry_space_group_name_H-M "P B C M"
_symmetry_group_IT_number 57
_symmetry_cell_setting 'orthorhombic'
loop_
_space_group_symop_operation_xyz
x,y,z
-x,-y,1/2+z
x,1/2-y,-z
-x,1/2+y,1/2-z
-x,-y,-z
x,y,1/2-z
-x,1/2+y,z
x,1/2-y,1/2+z
loop_
_atom_site_type_symbol
_atom_site_label
_atom_site_fract_x
_atom_site_fract_y
_atom_site_fract_z
Si Si1 0.187937 0.059646 0.422820
Si Si2 0.003281 0.099208 0.410131
Si Si3 0.495592 0.102890 0.914673
Si Si4 0.678351 0.945360 0.580276
Si Si5 0.111027 0.318124 0.577330
Si Si6 0.413836 0.526165 0.413890
Si Si7 0.913882 0.470540 0.410495
Si Si8 0.599749 0.817600 0.921266
O O1 0.184883 0.058661 0.250000
O O2 0.254770 0.054764 0.478726
O O3 0.160112 0.129190 0.477307
O O4 0.148020 0.997120 0.480030
O O5 0.982298 0.119049 0.250000
O O6 0.045758 0.157339 0.473263
O O7 0.041045 0.031852 0.404844
O O8 0.943131 0.090252 0.500976
O O9 0.507618 0.128078 0.750000
O O10 0.457871 0.035838 0.910239
O O11 0.461798 0.159592 0.006175
O O12 0.557198 0.087202 0.996123
O O13 0.674342 0.962647 0.750000
O O14 0.646079 0.004102 0.493037
O O15 0.649914 0.872972 0.549816
O O16 0.127423 0.250000 0.500000
O O17 0.112911 0.309647 0.750000
O O18 0.399994 0.550160 0.250000
O O19 0.902252 0.442377 0.250000
O O20 0.590058 0.805695 0.750000
O O21 0.621236 0.750000 0.000000
#
# Coordination Sequence:
#
# PCOD8230625 Si02
#       8
#     8   8   8   8   8   8   8   8
#     4   8  15  28  42  56  78 108 139 170 202 235
#     4   8  14  24  37  54  76  98 122 160 208 245
#     4   9  16  27  43  60  78 102 132 166 206 248
#     4   9  17  29  43  57  78 111 144 169 198 239
#     4   9  17  28  40  55  78 108 139 170 202 236
#     4   9  16  26  41  61  82 101 127 167 209 244
#     4   8  13  23  40  57  72  95 128 163 200 242
#     4  10  19  29  41  58  81 110 142 173 203 235
#
# _framework density 15.346079
#
# number of rings (size 3 to 8) (size 9 to 14) (size 15 to 20)
#    0.000    3.250    0.000    2.625    0.000    4.500 
#    0.000    3.125    0.000    0.000    0.000    0.000 
#    0.000    1.000    0.000    6.500    0.000    6.000 
#
# Total GULP energy -793164.741647 kJ/mol
# GULP energy per Si atom -12393.199088 kJ/mol
# Density = 1.531115 g / cm^3
# Si number density = 15.346079 Si / 1000 Ang^3
#
#
#
# Elastic Constant Matrix: (Units=GPa)
#
#
# Indices 1 2 3 4 5 6 
#
# 1 121.1757 45.2919 48.8551 0.0000 0.0000 0.0000
# 2 45.2919 20.1100 20.4927 0.0000 0.0000 0.0000
# 3 48.8551 20.4927 74.6563 0.0000 0.0000 0.0000
# 4 0.0000 0.0000 0.0000 23.4224 0.0000 0.0000
# 5 0.0000 0.0000 0.0000 0.0000 19.0709 0.0000
# 6 0.0000 0.0000 0.0000 0.0000 0.0000 15.9364
#
#
#
# Elastic Compliance Matrix: (Units=1/GPa)
#
#
# Indices 1 2 3 4 5 6 
#
# 1 0.052540 -0.115641 -0.002639 0.000000 0.000000 0.000000
# 2 -0.115641 0.323567 -0.013141 0.000000 0.000000 0.000000
# 3 -0.002639 -0.013141 0.018729 0.000000 0.000000 0.000000
# 4 0.000000 0.000000 0.000000 0.042694 0.000000 0.000000
# 5 0.000000 0.000000 0.000000 0.000000 0.052436 0.000000
# 6 0.000000 0.000000 0.000000 0.000000 0.000000 0.062750
#
#
# Mechanical properties :
#
#
# Convention : Reuss Voigt Hill
#
# Bulk Modulus (GPa) = 7.57623 49.46905 28.52264
# Shear Modulus (GPa) = 5.81695 18.43942 12.12818
#
# Velocity S-wave (km/s) = 1.94904 3.47013 2.81430
# Velocity P-wave (km/s) = 3.16427 6.95423 5.40250
#
# Compressibility (1/GPa) = 0.13199170
#
# Stress axis : x y z
#
# Youngs Moduli (GPa) = 19.03314 3.09055 53.39292
#
# Poissons Ratio (x) = 0.35740 0.14092
# Poissons Ratio (y) = 2.20102 0.70165
# Poissons Ratio (z) = 0.05023 0.04061
#
# Static dielectric constant tensor:
#      x y z
#    x 3.028910 0.000000 0.000000 
#    y 0.000000 2.698230 0.000000 
#    z 0.000000 0.000000 3.018370 
# 
# 
# High freq. dielectric constant tensor:
#      x y z
#    x 1.572790 0.000000 0.000000 
#    y 0.000000 1.548400 0.000000 
#    z 0.000000 0.000000 1.586010 
# 
# From -- ./inp_files/7203.got.cif
#   From: 2010.03.12/outbox.cif.g09.slc.cpg/sg57_4_cif.got.tgz:7203.got - 2010.04.16 15:48:40.
