data_PCOD8230852
_publ_section_title
;
Structure prediction by ZEFSAII (Michael W. Deem and Ramdas Pophale) SiO2 
 PCOD8230852
Probable space group: P B C M
;
_chemical_formula_sum "Si O2"
_cell_formula_units_Z 56
_cell_length_a 16.851322
_cell_length_b 22.298663
_cell_length_c 8.638117
_cell_angle_alpha 90.000000
_cell_angle_beta 90.000000
_cell_angle_gamma 90.000000
_cell_volume 3245.875692
_symmetry_space_group_name_H-M "P B C M"
_symmetry_group_IT_number 57
_symmetry_cell_setting 'orthorhombic'
loop_
_space_group_symop_operation_xyz
x,y,z
-x,-y,1/2+z
x,1/2-y,-z
-x,1/2+y,1/2-z
-x,-y,-z
x,y,1/2-z
-x,1/2+y,z
x,1/2-y,1/2+z
loop_
_atom_site_type_symbol
_atom_site_label
_atom_site_fract_x
_atom_site_fract_y
_atom_site_fract_z
Si Si1 0.132105 0.014536 0.926090
Si Si2 0.087090 0.809712 0.569256
Si Si3 0.581210 0.312604 0.934613
Si Si4 0.981110 0.421292 0.426952
Si Si5 0.280908 0.970221 0.077816
Si Si6 0.555290 0.448253 0.569928
Si Si7 0.750893 0.334272 0.074424
O O1 0.160657 0.010294 0.750000
O O2 0.075758 0.071627 0.959850
O O3 0.074443 0.958900 0.959243
O O4 0.212776 0.016951 0.026030
O O5 0.050306 0.750000 0.500000
O O6 0.070134 0.818866 0.750000
O O7 0.038732 0.853884 0.461194
O O8 0.181206 0.810100 0.537573
O O9 0.582079 0.309409 0.750000
O O10 0.541816 0.377797 0.986989
O O11 0.540154 0.250000 0.000000
O O12 0.668944 0.311993 0.003327
O O13 0.961567 0.439142 0.250000
O O14 0.310247 0.987526 0.250000
O O15 0.240182 0.905633 0.076275
O O16 0.355576 0.969809 0.964086
O O17 0.500000 0.500000 0.500000
O O18 0.539692 0.449059 0.750000
O O19 0.759673 0.309495 0.250000
#
# Coordination Sequence:
#
# PCOD8230852 Si02
#       7
#     8   8   8   8   8   8   8
#     4  10  19  31  50  72  97 127 161 205 249 290
#     4  12  23  33  46  63  91 129 168 209 251 298
#     4  10  20  33  50  73 101 135 172 209 248 302
#     4  10  20  33  47  68  96 126 164 206 248 292
#     4  10  19  31  51  74 101 133 168 207 249 299
#     4  10  21  36  54  77 107 138 173 213 261 312
#     4  10  19  31  46  67  97 131 168 206 242 290
#
# _framework density 17.252662999999998
#
# number of rings (size 3 to 8) (size 9 to 14) (size 15 to 20)
#    0.000    1.714    1.429    4.286    0.000    4.571 
#    0.000    0.000    0.000    0.000    0.000    1.000 
#    0.000    2.286    0.000    0.000    0.000    0.000 
#
# Total GULP energy -693820.198982 kJ/mol
# GULP energy per Si atom -12389.646410 kJ/mol
# Density = 1.721339 g / cm^3
# Si number density = 17.252663 Si / 1000 Ang^3
#
#
#
# Elastic Constant Matrix: (Units=GPa)
#
#
# Indices 1 2 3 4 5 6 
#
# 1 51.2518 35.4473 12.2699 0.0000 0.0000 0.0000
# 2 35.4473 95.8139 21.3829 0.0000 0.0000 0.0000
# 3 12.2699 21.3829 59.2292 0.0000 0.0000 0.0000
# 4 0.0000 0.0000 0.0000 25.9693 0.0000 0.0000
# 5 0.0000 0.0000 0.0000 0.0000 25.4007 0.0000
# 6 0.0000 0.0000 0.0000 0.0000 0.0000 -241.1728
#
#
#
# Elastic Compliance Matrix: (Units=1/GPa)
#
#
# Indices 1 2 3 4 5 6 
#
# 1 0.026463 -0.009317 -0.002118 0.000000 0.000000 0.000000
# 2 -0.009317 0.014632 -0.003352 0.000000 0.000000 0.000000
# 3 -0.002118 -0.003352 0.018533 0.000000 0.000000 0.000000
# 4 0.000000 0.000000 0.000000 0.038507 0.000000 0.000000
# 5 0.000000 0.000000 0.000000 0.000000 0.039369 0.000000
# 6 0.000000 0.000000 0.000000 0.000000 0.000000 -0.004146
#
#
# Mechanical properties :
#
#
# Convention : Reuss Voigt Hill
#
# Bulk Modulus (GPa) = 33.27608 38.27725 35.77666
# Shear Modulus (GPa) = 28.91000 -28.81425 0.04787
#
# Velocity S-wave (km/s) = 4.09795 -4.09116 0.16676
# Velocity P-wave (km/s) = 6.45913 0.28695 4.56278
#
# Compressibility (1/GPa) = 0.03005161
#
# Stress axis : x y z
#
# Youngs Moduli (GPa) = 37.78879 68.34272 53.95888
#
# Poissons Ratio (x) = 0.63678 0.11430
# Poissons Ratio (y) = 0.35210 0.18089
# Poissons Ratio (z) = 0.08005 0.22910
#
# Static dielectric constant tensor:
#      x y z
#    x 3.003930 0.000000 0.000000 
#    y 0.000000 3.557300 0.000000 
#    z 0.000000 0.000000 3.338090 
# 
# 
# High freq. dielectric constant tensor:
#      x y z
#    x 1.628240 0.000000 0.000000 
#    y 0.000000 1.656880 0.000000 
#    z 0.000000 0.000000 1.682970 
# 
# From -- ./inp_files/7047.got.cif
#   From: 2010.03.12/outbox.cif.g09.slc.cpg/sg57_4_cif.got.tgz:7047.got - 2010.04.16 15:48:40.
