data_PCOD8230743
_publ_section_title
;
Structure prediction by ZEFSAII (Michael W. Deem and Ramdas Pophale) SiO2 
 PCOD8230743
Probable space group: P B C M
;
_chemical_formula_sum "Si O2"
_cell_formula_units_Z 60
_cell_length_a 27.845007
_cell_length_b 12.645887
_cell_length_c 9.218144
_cell_angle_alpha 90.000000
_cell_angle_beta 90.000000
_cell_angle_gamma 90.000000
_cell_volume 3245.937223
_symmetry_space_group_name_H-M "P B C M"
_symmetry_group_IT_number 57
_symmetry_cell_setting 'orthorhombic'
loop_
_space_group_symop_operation_xyz
x,y,z
-x,-y,1/2+z
x,1/2-y,-z
-x,1/2+y,1/2-z
-x,-y,-z
x,y,1/2-z
-x,1/2+y,z
x,1/2-y,1/2+z
loop_
_atom_site_type_symbol
_atom_site_label
_atom_site_fract_x
_atom_site_fract_y
_atom_site_fract_z
Si Si1 0.401198 0.849129 0.575620
Si Si2 0.734190 0.645347 0.083702
Si Si3 0.986314 0.150591 0.088867
Si Si4 0.363534 0.049447 0.413100
Si Si5 0.493694 0.608331 0.914583
Si Si6 0.577110 0.750000 0.000000
Si Si7 0.074973 0.993241 0.412156
Si Si8 0.158762 0.141255 0.079596
O O1 0.372094 0.750000 0.500000
O O2 0.400570 0.840922 0.750000
O O3 0.454249 0.832481 0.510823
O O4 0.382368 0.964331 0.528276
O O5 0.733834 0.678760 0.250000
O O6 0.693183 0.559287 0.050967
O O7 0.787160 0.602347 0.040968
O O8 0.720472 0.750000 0.000000
O O9 0.972150 0.186059 0.250000
O O10 0.029758 0.069955 0.090878
O O11 0.005133 0.250000 0.000000
O O12 0.937966 0.103999 0.016204
O O13 0.370891 0.005999 0.250000
O O14 0.389271 0.164540 0.418897
O O15 0.475863 0.585063 0.750000
O O16 0.500000 0.500000 0.000000
O O17 0.542067 0.678733 0.899735
O O18 0.085438 0.950943 0.250000
O O19 0.121924 0.051962 0.475602
O O20 0.151284 0.160752 0.250000
O O21 0.146711 0.250000 0.000000
#
# Coordination Sequence:
#
# PCOD8230743 Si02
#       8
#     8   8   8   8   8   4   8   8
#     4  12  26  43  63  83 110 145 186 227 272 325
#     4   9  18  33  54  82 112 142 173 215 267 323
#     4  10  19  30  46  69 100 138 178 220 263 311
#     4  11  23  39  60  86 117 148 183 225 273 327
#     4  12  25  39  57  83 116 150 186 220 263 316
#     4  12  24  36  62  86 122 148 184 216 272 316
#     4   9  18  31  47  70 101 138 177 217 261 312
#     4   9  17  30  50  76 107 140 175 215 265 318
#
# _framework density 18.484646000000001
#
# number of rings (size 3 to 8) (size 9 to 14) (size 15 to 20)
#    0.000    1.600    2.667    2.800    0.000    3.200 
#    0.000    0.000    0.000    0.800    0.000    0.000 
#    0.000    0.000    0.000    0.000    0.000    0.000 
#
# Total GULP energy -743507.577942 kJ/mol
# GULP energy per Si atom -12391.792966 kJ/mol
# Density = 1.844257 g / cm^3
# Si number density = 18.484646 Si / 1000 Ang^3
#
#
#
# Elastic Constant Matrix: (Units=GPa)
#
#
# Indices 1 2 3 4 5 6 
#
# 1 84.6218 19.5158 26.5116 0.0000 0.0000 0.0000
# 2 19.5158 77.7452 37.8229 0.0000 0.0000 0.0000
# 3 26.5116 37.8229 116.7559 0.0000 0.0000 0.0000
# 4 0.0000 0.0000 0.0000 28.7378 0.0000 0.0000
# 5 0.0000 0.0000 0.0000 0.0000 18.8570 0.0000
# 6 0.0000 0.0000 0.0000 0.0000 0.0000 20.8640
#
#
#
# Elastic Compliance Matrix: (Units=1/GPa)
#
#
# Indices 1 2 3 4 5 6 
#
# 1 0.013024 -0.002173 -0.002253 0.000000 0.000000 0.000000
# 2 -0.002173 0.015632 -0.004570 0.000000 0.000000 0.000000
# 3 -0.002253 -0.004570 0.010557 0.000000 0.000000 0.000000
# 4 0.000000 0.000000 0.000000 0.034797 0.000000 0.000000
# 5 0.000000 0.000000 0.000000 0.000000 0.053031 0.000000
# 6 0.000000 0.000000 0.000000 0.000000 0.000000 0.047929
#
#
# Mechanical properties :
#
#
# Convention : Reuss Voigt Hill
#
# Bulk Modulus (GPa) = 47.12713 49.64705 48.38709
# Shear Modulus (GPa) = 24.99532 26.70994 25.85263
#
# Velocity S-wave (km/s) = 3.68124 3.80541 3.74384
# Velocity P-wave (km/s) = 6.60450 6.79890 6.70240
#
# Compressibility (1/GPa) = 0.02121920
#
# Stress axis : x y z
#
# Youngs Moduli (GPa) = 76.77866 63.97334 94.72270
#
# Poissons Ratio (x) = 0.13902 0.21345
# Poissons Ratio (y) = 0.16685 0.43292
# Poissons Ratio (z) = 0.17302 0.29238
#
# Static dielectric constant tensor:
#      x y z
#    x 3.563030 0.000000 0.000000 
#    y 0.000000 10.426750 0.000000 
#    z 0.000000 0.000000 3.446500 
# 
# 
# High freq. dielectric constant tensor:
#      x y z
#    x 1.703880 0.000000 0.000000 
#    y 0.000000 1.709770 0.000000 
#    z 0.000000 0.000000 1.720530 
# 
# From -- ./inp_files/10252.got.cif
#   From: 2010.03.12/outbox.cif.g09.slc.cpg/sg57_6_cif.got.tgz:10252.got - 2010.04.16 15:48:40.
