data_PCOD8230884
_publ_section_title
;
Structure prediction by ZEFSAII (Michael W. Deem and Ramdas Pophale) SiO2 
 PCOD8230884
Probable space group: P B C M
;
_chemical_formula_sum "Si O2"
_cell_formula_units_Z 64
_cell_length_a 20.603645
_cell_length_b 19.971896
_cell_length_c 9.004120
_cell_angle_alpha 90.000000
_cell_angle_beta 90.000000
_cell_angle_gamma 90.000000
_cell_volume 3705.140051
_symmetry_space_group_name_H-M "P B C M"
_symmetry_group_IT_number 57
_symmetry_cell_setting 'orthorhombic'
loop_
_space_group_symop_operation_xyz
x,y,z
-x,-y,1/2+z
x,1/2-y,-z
-x,1/2+y,1/2-z
-x,-y,-z
x,y,1/2-z
-x,1/2+y,z
x,1/2-y,1/2+z
loop_
_atom_site_type_symbol
_atom_site_label
_atom_site_fract_x
_atom_site_fract_y
_atom_site_fract_z
Si Si1 0.799821 0.923642 0.075422
Si Si2 0.329992 0.570766 0.920454
Si Si3 0.812355 0.063921 0.578438
Si Si4 0.328095 0.418852 0.926991
Si Si5 0.934552 0.079378 0.417381
Si Si6 0.574889 0.819259 0.075687
Si Si7 0.058765 0.419749 0.416858
Si Si8 0.575113 0.181625 0.923497
O O1 0.784816 0.922023 0.250000
O O2 0.870137 0.889088 0.041835
O O3 0.740649 0.888638 0.986671
O O4 0.805446 0.999167 0.022140
O O5 0.349432 0.563923 0.750000
O O6 0.257032 0.601527 0.937328
O O7 0.334944 0.495454 0.985505
O O8 0.381553 0.621646 0.994447
O O9 0.825404 0.044426 0.750000
O O10 0.873276 0.106505 0.514709
O O11 0.329210 0.412717 0.750000
O O12 0.386753 0.378895 0.998739
O O13 0.925161 0.104286 0.250000
O O14 0.002516 0.109671 0.477566
O O15 0.937232 0.999665 0.431128
O O16 0.590485 0.815468 0.250000
O O17 0.499716 0.834616 0.044121
O O18 0.596212 0.750000 0.000000
O O19 0.039853 0.399797 0.250000
O O20 0.588769 0.190131 0.750000
O O21 0.596935 0.250000 0.000000
#
# Coordination Sequence:
#
# PCOD8230884 Si02
#       8
#     8   8   8   8   8   8   8   8
#     4   9  16  26  39  57  83 113 147 187 227 267
#     4   8  16  30  47  67  93 124 154 188 231 278
#     4   9  15  24  38  55  80 115 149 182 225 274
#     4  10  19  31  48  69  94 124 155 187 228 278
#     4   9  15  21  31  49  75 108 146 186 222 261
#     4  10  20  34  52  71  93 121 152 190 231 273
#     4   8  14  22  32  48  73 108 146 181 219 265
#     4   9  18  34  52  70  93 121 154 190 231 275
#
# _framework density 17.273301
#
# number of rings (size 3 to 8) (size 9 to 14) (size 15 to 20)
#    0.000    3.000    0.000    3.375    0.000    4.500 
#    0.000    3.750    0.000    0.000    0.000    0.000 
#    0.000    1.000    0.000    6.750    0.000   14.625 
#
# Total GULP energy -792982.877157 kJ/mol
# GULP energy per Si atom -12390.357456 kJ/mol
# Density = 1.723399 g / cm^3
# Si number density = 17.273301 Si / 1000 Ang^3
#
#
#
# Elastic Constant Matrix: (Units=GPa)
#
#
# Indices 1 2 3 4 5 6 
#
# 1 133.3880 55.0236 58.3925 0.0000 0.0000 0.0000
# 2 55.0236 52.4037 32.2667 0.0000 0.0000 0.0000
# 3 58.3925 32.2667 80.8732 0.0000 0.0000 0.0000
# 4 0.0000 0.0000 0.0000 15.4600 0.0000 0.0000
# 5 0.0000 0.0000 0.0000 0.0000 28.7289 0.0000
# 6 0.0000 0.0000 0.0000 0.0000 0.0000 2.1944
#
#
#
# Elastic Compliance Matrix: (Units=1/GPa)
#
#
# Indices 1 2 3 4 5 6 
#
# 1 0.015206 -0.012204 -0.006110 0.000000 0.000000 0.000000
# 2 -0.012204 0.035092 -0.005189 0.000000 0.000000 0.000000
# 3 -0.006110 -0.005189 0.018847 0.000000 0.000000 0.000000
# 4 0.000000 0.000000 0.000000 0.064683 0.000000 0.000000
# 5 0.000000 0.000000 0.000000 0.000000 0.034808 0.000000
# 6 0.000000 0.000000 0.000000 0.000000 0.000000 0.455696
#
#
# Mechanical properties :
#
#
# Convention : Reuss Voigt Hill
#
# Bulk Modulus (GPa) = 45.17049 62.00338 53.58694
# Shear Modulus (GPa) = 7.36683 17.34215 12.35449
#
# Velocity S-wave (km/s) = 2.06740 3.17201 2.67729
# Velocity P-wave (km/s) = 5.64855 7.02773 6.37554
#
# Compressibility (1/GPa) = 0.02213835
#
# Stress axis : x y z
#
# Youngs Moduli (GPa) = 65.76408 28.49648 53.05890
#
# Poissons Ratio (x) = 0.34777 0.32418
# Poissons Ratio (y) = 0.80259 0.27534
# Poissons Ratio (z) = 0.40181 0.14788
#
# Static dielectric constant tensor:
#      x y z
#    x 3.875710 0.000000 0.000000 
#    y 0.000000 2.745330 0.000000 
#    z 0.000000 0.000000 3.248010 
# 
# 
# High freq. dielectric constant tensor:
#      x y z
#    x 1.690140 0.000000 0.000000 
#    y 0.000000 1.592150 0.000000 
#    z 0.000000 0.000000 1.668940 
# 
# From -- ./inp_files/8691.got.cif
#   From: 2010.03.12/outbox.cif.g09.slc.cpg/sg57_5_cif.got.tgz:8691.got - 2010.04.16 15:48:40.
