data_PCOD8230251
_publ_section_title
;
Structure prediction by ZEFSAII (Michael W. Deem and Ramdas Pophale) SiO2 
 PCOD8230251
Probable space group: P B C M
;
_chemical_formula_sum "Si O2"
_cell_formula_units_Z 64
_cell_length_a 15.214125
_cell_length_b 24.276597
_cell_length_c 9.179215
_cell_angle_alpha 90.000000
_cell_angle_beta 90.000000
_cell_angle_gamma 90.000000
_cell_volume 3390.317187
_symmetry_space_group_name_H-M "P B C M"
_symmetry_group_IT_number 57
_symmetry_cell_setting 'orthorhombic'
loop_
_space_group_symop_operation_xyz
x,y,z
-x,-y,1/2+z
x,1/2-y,-z
-x,1/2+y,1/2-z
-x,-y,-z
x,y,1/2-z
-x,1/2+y,z
x,1/2-y,1/2+z
loop_
_atom_site_type_symbol
_atom_site_label
_atom_site_fract_x
_atom_site_fract_y
_atom_site_fract_z
Si Si1 0.117620 0.133091 0.581795
Si Si2 0.626630 0.396279 0.919447
Si Si3 0.035108 0.807522 0.923885
Si Si4 0.704672 0.695036 0.916939
Si Si5 0.634211 0.520870 0.579775
Si Si6 0.827550 0.982664 0.422985
Si Si7 0.175067 0.603411 0.077071
Si Si8 0.538369 0.626826 0.577624
O O1 0.088332 0.141475 0.750000
O O2 0.218734 0.150319 0.560496
O O3 0.109456 0.068527 0.533090
O O4 0.058470 0.169865 0.476442
O O5 0.620940 0.381809 0.750000
O O6 0.599941 0.459531 0.951377
O O7 0.725516 0.384780 0.978449
O O8 0.555530 0.358733 0.004231
O O9 0.033685 0.800528 0.750000
O O10 0.109948 0.849574 0.980044
O O11 0.056126 0.750000 0.000000
O O12 0.695954 0.711410 0.750000
O O13 0.612017 0.670578 0.972892
O O14 0.730279 0.750000 0.000000
O O15 0.642928 0.532451 0.750000
O O16 0.730939 0.527602 0.509649
O O17 0.568733 0.566926 0.516632
O O18 0.819359 0.984218 0.250000
O O19 0.859934 0.043139 0.478048
O O20 0.176858 0.603072 0.250000
O O21 0.525645 0.627616 0.750000
#
# Coordination Sequence:
#
# PCOD8230251 Si02
#       8
#     8   8   8   8   8   8   8   8
#     4  10  19  34  58  84 107 135 171 210 259 321
#     4   9  17  30  51  77 102 133 171 209 253 303
#     4  11  23  39  57  78 103 135 177 223 266 309
#     4  10  21  35  51  72 102 140 177 213 255 307
#     4   8  13  25  47  74 104 136 168 201 242 303
#     4   8  13  27  53  81 107 139 172 202 251 321
#     4   8  17  34  55  78 106 138 175 217 259 311
#     4  10  18  30  48  73 103 135 171 210 251 298
#
# _framework density 18.877289000000001
#
# number of rings (size 3 to 8) (size 9 to 14) (size 15 to 20)
#    0.000    2.750    1.250    2.625    0.000    2.500 
#    0.000    1.875    0.000    6.750    0.000    0.000 
#    0.000    0.000    0.000    0.000    0.000    0.000 
#
# Total GULP energy -793095.167897 kJ/mol
# GULP energy per Si atom -12392.111998 kJ/mol
# Density = 1.883432 g / cm^3
# Si number density = 18.877289 Si / 1000 Ang^3
#
#
#
# Elastic Constant Matrix: (Units=GPa)
#
#
# Indices 1 2 3 4 5 6 
#
# 1 78.1542 52.7883 28.9296 0.0000 0.0000 0.0000
# 2 52.7883 116.1055 34.9370 0.0000 0.0000 0.0000
# 3 28.9296 34.9370 39.1759 0.0000 0.0000 0.0000
# 4 0.0000 0.0000 0.0000 17.8030 0.0000 0.0000
# 5 0.0000 0.0000 0.0000 0.0000 23.7516 0.0000
# 6 0.0000 0.0000 0.0000 0.0000 0.0000 25.1298
#
#
#
# Elastic Compliance Matrix: (Units=1/GPa)
#
#
# Indices 1 2 3 4 5 6 
#
# 1 0.020740 -0.006589 -0.009439 0.000000 0.000000 0.000000
# 2 -0.006589 0.013865 -0.007499 0.000000 0.000000 0.000000
# 3 -0.009439 -0.007499 0.039184 0.000000 0.000000 0.000000
# 4 0.000000 0.000000 0.000000 0.056170 0.000000 0.000000
# 5 0.000000 0.000000 0.000000 0.000000 0.042103 0.000000
# 6 0.000000 0.000000 0.000000 0.000000 0.000000 0.039793
#
#
# Mechanical properties :
#
#
# Convention : Reuss Voigt Hill
#
# Bulk Modulus (GPa) = 37.40554 51.86060 44.63307
# Shear Modulus (GPa) = 18.66914 21.12225 19.89569
#
# Velocity S-wave (km/s) = 3.14821 3.34866 3.24998
# Velocity P-wave (km/s) = 5.75092 6.51794 6.14640
#
# Compressibility (1/GPa) = 0.02673401
#
# Stress axis : x y z
#
# Youngs Moduli (GPa) = 48.21643 72.12264 25.52063
#
# Poissons Ratio (x) = 0.47523 0.24089
# Poissons Ratio (y) = 0.31771 0.19138
# Poissons Ratio (z) = 0.45512 0.54086
#
# Static dielectric constant tensor:
#      x y z
#    x 3.498200 0.000000 0.000000 
#    y 0.000000 3.647340 0.000000 
#    z 0.000000 0.000000 2.994250 
# 
# 
# High freq. dielectric constant tensor:
#      x y z
#    x 1.733640 0.000000 0.000000 
#    y 0.000000 1.730530 0.000000 
#    z 0.000000 0.000000 1.687560 
# 
# From -- ./inp_files/5604.got.cif
#   From: 2010.03.12/outbox.cif.g09.slc.cpg/sg57_3_cif.got.tgz:5604.got - 2010.04.16 15:48:40.
