data_PCOD8230489
_publ_section_title
;
Structure prediction by ZEFSAII (Michael W. Deem and Ramdas Pophale) SiO2 
 PCOD8230489
Probable space group: P B C M
;
_chemical_formula_sum "Si O2"
_cell_formula_units_Z 48
_cell_length_a 10.292180
_cell_length_b 28.246338
_cell_length_c 8.552959
_cell_angle_alpha 90.000000
_cell_angle_beta 90.000000
_cell_angle_gamma 90.000000
_cell_volume 2486.485407
_symmetry_space_group_name_H-M "P B C M"
_symmetry_group_IT_number 57
_symmetry_cell_setting 'orthorhombic'
loop_
_space_group_symop_operation_xyz
x,y,z
-x,-y,1/2+z
x,1/2-y,-z
-x,1/2+y,1/2-z
-x,-y,-z
x,y,1/2-z
-x,1/2+y,z
x,1/2-y,1/2+z
loop_
_atom_site_type_symbol
_atom_site_label
_atom_site_fract_x
_atom_site_fract_y
_atom_site_fract_z
Si Si1 0.099064 0.701060 0.066319
Si Si2 0.617763 0.297349 0.068926
Si Si3 0.511981 0.397617 0.430179
Si Si4 0.988960 0.101316 0.064450
Si Si5 0.259772 0.956428 0.566949
Si Si6 0.740495 0.940908 0.933608
O O1 0.088140 0.703545 0.250000
O O2 0.019989 0.655436 0.002019
O O3 0.039806 0.750000 0.000000
O O4 0.248064 0.694056 0.020222
O O5 0.649971 0.289915 0.250000
O O6 0.523294 0.341500 0.039773
O O7 0.549708 0.250000 0.000000
O O8 0.540794 0.410271 0.250000
O O9 0.612816 0.425161 0.539205
O O10 0.366857 0.411580 0.473963
O O11 0.983426 0.101063 0.250000
O O12 0.866452 0.071156 0.002208
O O13 0.120848 0.077573 0.003029
O O14 0.248855 0.968407 0.750000
O O15 0.273682 0.003983 0.468562
O O16 0.724446 0.931862 0.750000
#
# Coordination Sequence:
#
# PCOD8230489 Si02
#       6
#     8   8   8   8   8   8
#     4  10  18  33  56  84 113 142 181 226 275 330
#     4  10  20  34  56  84 112 141 182 230 276 326
#     4  11  23  39  57  84 115 148 189 231 275 333
#     4   9  20  37  58  83 113 147 186 228 277 333
#     4  11  21  38  61  84 110 147 189 235 281 329
#     4  11  23  39  57  81 114 152 188 231 281 332
#
# _framework density 19.304357
#
# number of rings (size 3 to 8) (size 9 to 14) (size 15 to 20)
#    0.000    1.667    1.667    4.500    0.000    2.000 
#    0.000    6.667    0.000    4.000    0.000    0.000 
#    0.000    0.000    0.000    0.000    0.000    0.000 
#
# Total GULP energy -595304.937817 kJ/mol
# GULP energy per Si atom -12402.186205 kJ/mol
# Density = 1.926042 g / cm^3
# Si number density = 19.304357 Si / 1000 Ang^3
#
#
#
# Elastic Constant Matrix: (Units=GPa)
#
#
# Indices 1 2 3 4 5 6 
#
# 1 100.1845 48.1773 10.0891 0.0000 0.0000 0.0000
# 2 48.1773 146.2016 29.6229 0.0000 0.0000 0.0000
# 3 10.0891 29.6229 47.1469 0.0000 0.0000 0.0000
# 4 0.0000 0.0000 0.0000 26.9490 0.0000 0.0000
# 5 0.0000 0.0000 0.0000 0.0000 21.6059 0.0000
# 6 0.0000 0.0000 0.0000 0.0000 0.0000 4.6566
#
#
#
# Elastic Compliance Matrix: (Units=1/GPa)
#
#
# Indices 1 2 3 4 5 6 
#
# 1 0.011862 -0.003890 -0.000094 0.000000 0.000000 0.000000
# 2 -0.003890 0.009113 -0.004894 0.000000 0.000000 0.000000
# 3 -0.000094 -0.004894 0.024305 0.000000 0.000000 0.000000
# 4 0.000000 0.000000 0.000000 0.037107 0.000000 0.000000
# 5 0.000000 0.000000 0.000000 0.000000 0.046284 0.000000
# 6 0.000000 0.000000 0.000000 0.000000 0.000000 0.214751
#
#
# Mechanical properties :
#
#
# Convention : Reuss Voigt Hill
#
# Bulk Modulus (GPa) = 36.33088 52.14572 44.23830
# Shear Modulus (GPa) = 13.50068 24.35185 18.92627
#
# Velocity S-wave (km/s) = 2.64741 3.55557 3.13455
# Velocity P-wave (km/s) = 5.31093 6.62776 6.00554
#
# Compressibility (1/GPa) = 0.02752480
#
# Stress axis : x y z
#
# Youngs Moduli (GPa) = 84.30614 109.73223 41.14351
#
# Poissons Ratio (x) = 0.42681 0.00388
# Poissons Ratio (y) = 0.32791 0.20134
# Poissons Ratio (z) = 0.00796 0.53698
#
# Static dielectric constant tensor:
#      x y z
#    x 3.439670 0.000000 0.000000 
#    y 0.000000 3.738690 0.000000 
#    z 0.000000 0.000000 3.427280 
# 
# 
# High freq. dielectric constant tensor:
#      x y z
#    x 1.731040 0.000000 0.000000 
#    y 0.000000 1.770610 0.000000 
#    z 0.000000 0.000000 1.748830 
# 
# From -- ./inp_files/2122.got.cif
#   From: 2010.03.12/outbox.cif.g09.slc.cpg/sg57_2_cif.got.tgz:2122.got - 2010.04.16 15:48:40.
