data_PCOD8231122
_publ_section_title
;
Structure prediction by ZEFSAII (Michael W. Deem and Ramdas Pophale) SiO2 
 PCOD8231122
Probable space group: P B C M
;
_chemical_formula_sum "Si O2"
_cell_formula_units_Z 64
_cell_length_a 18.831848
_cell_length_b 23.407658
_cell_length_c 8.946924
_cell_angle_alpha 90.000000
_cell_angle_beta 90.000000
_cell_angle_gamma 90.000000
_cell_volume 3943.888715
_symmetry_space_group_name_H-M "P B C M"
_symmetry_group_IT_number 57
_symmetry_cell_setting 'orthorhombic'
loop_
_space_group_symop_operation_xyz
x,y,z
-x,-y,1/2+z
x,1/2-y,-z
-x,1/2+y,1/2-z
-x,-y,-z
x,y,1/2-z
-x,1/2+y,z
x,1/2-y,1/2+z
loop_
_atom_site_type_symbol
_atom_site_label
_atom_site_fract_x
_atom_site_fract_y
_atom_site_fract_z
Si Si1 0.754112 0.986017 0.924982
Si Si2 0.891317 0.022278 0.077313
Si Si3 0.104644 0.309603 0.425460
Si Si4 0.399182 0.976052 0.423029
Si Si5 0.010972 0.085383 0.577501
Si Si6 0.252892 0.136545 0.927755
Si Si7 0.484406 0.085965 0.074662
Si Si8 0.610026 0.809510 0.572164
O O1 0.760531 0.970816 0.750000
O O2 0.684494 0.024199 0.956677
O O3 0.749001 0.928353 0.018905
O O4 0.820040 0.023838 0.979643
O O5 0.872209 0.031474 0.250000
O O6 0.928737 0.961773 0.049015
O O7 0.942185 0.073442 0.023344
O O8 0.085627 0.250000 0.500000
O O9 0.105704 0.300979 0.250000
O O10 0.043344 0.354164 0.472007
O O11 0.180588 0.332842 0.479402
O O12 0.415300 0.968831 0.250000
O O13 0.437427 0.922913 0.504684
O O14 0.431642 0.035980 0.481809
O O15 0.987593 0.084732 0.750000
O O16 0.262822 0.137698 0.750000
O O17 0.314984 0.171092 0.007039
O O18 0.492944 0.084246 0.250000
O O19 0.450991 0.145949 0.023867
O O20 0.586979 0.750000 0.500000
O O21 0.617235 0.804390 0.750000
#
# Coordination Sequence:
#
# PCOD8231122 Si02
#       8
#     8   8   8   8   8   8   8   8
#     4  11  20  32  50  74 103 134 163 201 250 300
#     4  10  19  32  50  73  98 126 166 205 245 299
#     4  10  21  35  49  69  98 131 170 207 241 286
#     4   9  18  32  49  71  97 126 163 201 245 297
#     4   9  18  34  49  68  98 129 163 206 248 288
#     4  11  21  34  49  70 100 136 174 210 241 284
#     4   9  18  33  49  69  97 127 163 206 245 287
#     4  11  22  36  50  71 100 134 173 208 245 291
#
# _framework density 16.227637999999999
#
# number of rings (size 3 to 8) (size 9 to 14) (size 15 to 20)
#    0.000    2.000    2.500    1.875    0.000    5.000 
#    0.000    0.000    0.000    0.000    0.000    0.875 
#    0.000    6.000    0.000    0.000    0.000    0.000 
#
# Total GULP energy -793715.024689 kJ/mol
# GULP energy per Si atom -12401.797261 kJ/mol
# Density = 1.619070 g / cm^3
# Si number density = 16.227638 Si / 1000 Ang^3
#
#
#
# Elastic Constant Matrix: (Units=GPa)
#
#
# Indices 1 2 3 4 5 6 
#
# 1 99.3682 59.8973 39.6584 0.0000 0.0000 0.0000
# 2 59.8973 100.5424 38.6650 0.0000 0.0000 0.0000
# 3 39.6584 38.6650 53.4867 0.0000 0.0000 0.0000
# 4 0.0000 0.0000 0.0000 28.0231 0.0000 0.0000
# 5 0.0000 0.0000 0.0000 0.0000 28.2041 0.0000
# 6 0.0000 0.0000 0.0000 0.0000 0.0000 20.0571
#
#
#
# Elastic Compliance Matrix: (Units=1/GPa)
#
#
# Indices 1 2 3 4 5 6 
#
# 1 0.017690 -0.007610 -0.007615 0.000000 0.000000 0.000000
# 2 -0.007610 0.017050 -0.006682 0.000000 0.000000 0.000000
# 3 -0.007615 -0.006682 0.029173 0.000000 0.000000 0.000000
# 4 0.000000 0.000000 0.000000 0.035685 0.000000 0.000000
# 5 0.000000 0.000000 0.000000 0.000000 0.035456 0.000000
# 6 0.000000 0.000000 0.000000 0.000000 0.000000 0.049858
#
#
# Mechanical properties :
#
#
# Convention : Reuss Voigt Hill
#
# Bulk Modulus (GPa) = 49.75752 58.87098 54.31425
# Shear Modulus (GPa) = 21.23810 22.93528 22.08669
#
# Velocity S-wave (km/s) = 3.62160 3.76353 3.69325
# Velocity P-wave (km/s) = 6.94383 7.43253 7.19233
#
# Compressibility (1/GPa) = 0.02009746
#
# Stress axis : x y z
#
# Youngs Moduli (GPa) = 56.52849 58.65263 34.27805
#
# Poissons Ratio (x) = 0.44636 0.26104
# Poissons Ratio (y) = 0.43020 0.22905
# Poissons Ratio (z) = 0.43048 0.39193
#
# Static dielectric constant tensor:
#      x y z
#    x 3.158010 0.000000 0.000000 
#    y 0.000000 3.099120 0.000000 
#    z 0.000000 0.000000 3.109590 
# 
# 
# High freq. dielectric constant tensor:
#      x y z
#    x 1.618820 0.000000 0.000000 
#    y 0.000000 1.599760 0.000000 
#    z 0.000000 0.000000 1.632680 
# 
# From -- ./inp_files/7150.got.cif
#   From: 2010.03.12/outbox.cif.g09.slc.cpg/sg57_4_cif.got.tgz:7150.got - 2010.04.16 15:48:40.
