data_PCOD8231299
_publ_section_title
;
Structure prediction by ZEFSAII (Michael W. Deem and Ramdas Pophale) SiO2 
 PCOD8231299
Probable space group: P B C M
;
_chemical_formula_sum "Si O2"
_cell_formula_units_Z 56
_cell_length_a 17.531957
_cell_length_b 19.538369
_cell_length_c 9.002605
_cell_angle_alpha 90.000000
_cell_angle_beta 90.000000
_cell_angle_gamma 90.000000
_cell_volume 3083.804938
_symmetry_space_group_name_H-M "P B C M"
_symmetry_group_IT_number 57
_symmetry_cell_setting 'orthorhombic'
loop_
_space_group_symop_operation_xyz
x,y,z
-x,-y,1/2+z
x,1/2-y,-z
-x,1/2+y,1/2-z
-x,-y,-z
x,y,1/2-z
-x,1/2+y,z
x,1/2-y,1/2+z
loop_
_atom_site_type_symbol
_atom_site_label
_atom_site_fract_x
_atom_site_fract_y
_atom_site_fract_z
Si Si1 0.139187 0.932190 0.573582
Si Si2 0.530313 0.067408 0.425029
Si Si3 0.284953 0.393750 0.080189
Si Si4 0.587554 0.818702 0.924449
Si Si5 0.889774 0.914317 0.079165
Si Si6 0.985128 0.175413 0.426737
Si Si7 0.695941 0.453966 0.925664
O O1 0.139932 0.934265 0.750000
O O2 0.087004 0.869790 0.517057
O O3 0.225782 0.919848 0.511412
O O4 0.107721 0.006730 0.520889
O O5 0.527637 0.055882 0.250000
O O6 0.476450 0.128163 0.477235
O O7 0.618055 0.083945 0.475695
O O8 0.500000 0.000000 0.500000
O O9 0.310988 0.383803 0.250000
O O10 0.194793 0.383839 0.064743
O O11 0.309190 0.467998 0.018532
O O12 0.328237 0.338523 0.980186
O O13 0.590514 0.809599 0.750000
O O14 0.560029 0.750000 0.000000
O O15 0.917764 0.910250 0.250000
O O16 0.940433 0.866003 0.975960
O O17 0.980973 0.250000 0.500000
O O18 0.986026 0.184305 0.250000
O O19 0.704433 0.455372 0.750000
#
# Coordination Sequence:
#
# PCOD8231299 Si02
#       7
#     8   8   8   8   8   8   8
#     4   8  16  32  55  80 103 132 173 215 259 313
#     4  10  19  32  55  81 104 134 174 216 259 307
#     4   9  17  32  55  78 101 132 166 209 262 314
#     4  11  23  35  49  74 108 144 178 213 258 311
#     4   9  18  34  57  82 104 130 172 217 263 317
#     4  11  22  35  52  75 105 141 176 214 261 310
#     4   8  14  29  54  80 102 128 165 210 260 310
#
# _framework density 18.159383999999999
#
# number of rings (size 3 to 8) (size 9 to 14) (size 15 to 20)
#    0.000    2.571    1.429    3.000    0.000    1.714 
#    0.000    1.429    0.000    3.429    0.000    0.000 
#    0.000    0.000    0.000    0.000    0.000    0.000 
#
# Total GULP energy -694091.409293 kJ/mol
# GULP energy per Si atom -12394.489452 kJ/mol
# Density = 1.811805 g / cm^3
# Si number density = 18.159384 Si / 1000 Ang^3
#
#
#
# Elastic Constant Matrix: (Units=GPa)
#
#
# Indices 1 2 3 4 5 6 
#
# 1 127.7668 75.8239 37.1920 0.0000 0.0000 0.0000
# 2 75.8239 130.2358 43.5754 0.0000 0.0000 0.0000
# 3 37.1920 43.5754 49.0788 0.0000 0.0000 0.0000
# 4 0.0000 0.0000 0.0000 16.0187 0.0000 0.0000
# 5 0.0000 0.0000 0.0000 0.0000 21.6321 0.0000
# 6 0.0000 0.0000 0.0000 0.0000 0.0000 23.9750
#
#
#
# Elastic Compliance Matrix: (Units=1/GPa)
#
#
# Indices 1 2 3 4 5 6 
#
# 1 0.012567 -0.005876 -0.004307 0.000000 0.000000 0.000000
# 2 -0.005876 0.013671 -0.007685 0.000000 0.000000 0.000000
# 3 -0.004307 -0.007685 0.030462 0.000000 0.000000 0.000000
# 4 0.000000 0.000000 0.000000 0.062427 0.000000 0.000000
# 5 0.000000 0.000000 0.000000 0.000000 0.046228 0.000000
# 6 0.000000 0.000000 0.000000 0.000000 0.000000 0.041710
#
#
# Mechanical properties :
#
#
# Convention : Reuss Voigt Hill
#
# Bulk Modulus (GPa) = 47.69780 68.91825 58.30802
# Shear Modulus (GPa) = 20.01692 22.35782 21.18737
#
# Velocity S-wave (km/s) = 3.32368 3.51265 3.41947
# Velocity P-wave (km/s) = 6.40721 7.38146 6.91152
#
# Compressibility (1/GPa) = 0.02096533
#
# Stress axis : x y z
#
# Youngs Moduli (GPa) = 79.57048 73.14947 32.82758
#
# Poissons Ratio (x) = 0.42982 0.14138
# Poissons Ratio (y) = 0.46755 0.25228
# Poissons Ratio (z) = 0.34268 0.56215
#
# Static dielectric constant tensor:
#      x y z
#    x 3.702760 0.000000 0.000000 
#    y 0.000000 3.314740 0.000000 
#    z 0.000000 0.000000 -44.083970 
# 
# 
# High freq. dielectric constant tensor:
#      x y z
#    x 1.718830 0.000000 0.000000 
#    y 0.000000 1.688750 0.000000 
#    z 0.000000 0.000000 1.676550 
# 
# From -- ./inp_files/7027.got.cif
#   From: 2010.03.12/outbox.cif.g09.slc.cpg/sg57_4_cif.got.tgz:7027.got - 2010.04.16 15:48:40.
