data_PCOD8231209
_publ_section_title
;
Structure prediction by ZEFSAII (Michael W. Deem and Ramdas Pophale) SiO2 
 PCOD8231209
Probable space group: P B C M
;
_chemical_formula_sum "Si O2"
_cell_formula_units_Z 56
_cell_length_a 14.555819
_cell_length_b 22.412740
_cell_length_c 9.170751
_cell_angle_alpha 90.000000
_cell_angle_beta 90.000000
_cell_angle_gamma 90.000000
_cell_volume 2991.827167
_symmetry_space_group_name_H-M "P B C M"
_symmetry_group_IT_number 57
_symmetry_cell_setting 'orthorhombic'
loop_
_space_group_symop_operation_xyz
x,y,z
-x,-y,1/2+z
x,1/2-y,-z
-x,1/2+y,1/2-z
-x,-y,-z
x,y,1/2-z
-x,1/2+y,z
x,1/2-y,1/2+z
loop_
_atom_site_type_symbol
_atom_site_label
_atom_site_fract_x
_atom_site_fract_y
_atom_site_fract_z
Si Si1 0.801362 0.597803 0.585596
Si Si2 0.077822 0.309698 0.579709
Si Si3 0.615338 0.954735 0.080702
Si Si4 0.304058 0.691103 0.576382
Si Si5 0.911432 0.019419 0.414299
Si Si6 0.411276 0.573025 0.920946
Si Si7 0.873127 0.150277 0.079055
O O1 0.817572 0.622124 0.750000
O O2 0.855588 0.637667 0.471659
O O3 0.693226 0.594865 0.546042
O O4 0.833248 0.529639 0.573323
O O5 0.109516 0.250000 0.500000
O O6 0.092097 0.301275 0.750000
O O7 0.973096 0.324175 0.539934
O O8 0.616479 0.971906 0.250000
O O9 0.518716 0.925140 0.034644
O O10 0.635705 0.016025 0.995625
O O11 0.346925 0.750000 0.500000
O O12 0.303835 0.699058 0.750000
O O13 0.364178 0.634265 0.525685
O O14 0.200042 0.684888 0.518959
O O15 0.945295 0.030086 0.250000
O O16 0.870212 0.081478 0.472490
O O17 0.000000 0.000000 0.500000
O O18 0.397411 0.565367 0.750000
O O19 0.849686 0.158323 0.250000
#
# Coordination Sequence:
#
# PCOD8231209 Si02
#       7
#     8   8   8   8   8   8   8
#     4  10  20  34  55  81 110 143 178 217 266 318
#     4  11  23  38  55  74 103 142 184 226 265 313
#     4   9  18  35  60  85 111 142 176 221 273 326
#     4  11  23  37  55  80 110 146 185 227 273 325
#     4  10  19  32  51  79 110 140 174 215 264 314
#     4   9  19  36  57  84 113 141 177 221 273 327
#     4  10  21  37  56  80 109 143 183 222 268 322
#
# _framework density 18.717659000000001
#
# number of rings (size 3 to 8) (size 9 to 14) (size 15 to 20)
#    0.000    2.000    1.429    2.143    0.000    5.714 
#    0.000    0.714    0.000    1.714    0.000    0.000 
#    0.000    0.000    0.000    0.000    0.000    0.000 
#
# Total GULP energy -694505.970305 kJ/mol
# GULP energy per Si atom -12401.892327 kJ/mol
# Density = 1.867506 g / cm^3
# Si number density = 18.717659 Si / 1000 Ang^3
#
#
#
# Elastic Constant Matrix: (Units=GPa)
#
#
# Indices 1 2 3 4 5 6 
#
# 1 90.3718 38.7234 38.3847 0.0000 0.0000 0.0000
# 2 38.7234 112.5116 45.5291 0.0000 0.0000 0.0000
# 3 38.3847 45.5291 67.4309 0.0000 0.0000 0.0000
# 4 0.0000 0.0000 0.0000 33.8483 0.0000 0.0000
# 5 0.0000 0.0000 0.0000 0.0000 23.9960 0.0000
# 6 0.0000 0.0000 0.0000 0.0000 0.0000 25.4906
#
#
#
# Elastic Compliance Matrix: (Units=1/GPa)
#
#
# Indices 1 2 3 4 5 6 
#
# 1 0.015034 -0.002354 -0.006968 0.000000 0.000000 0.000000
# 2 -0.002354 0.012598 -0.007166 0.000000 0.000000 0.000000
# 3 -0.006968 -0.007166 0.023635 0.000000 0.000000 0.000000
# 4 0.000000 0.000000 0.000000 0.029544 0.000000 0.000000
# 5 0.000000 0.000000 0.000000 0.000000 0.041674 0.000000
# 6 0.000000 0.000000 0.000000 0.000000 0.000000 0.039230
#
#
# Mechanical properties :
#
#
# Convention : Reuss Voigt Hill
#
# Bulk Modulus (GPa) = 54.67532 57.28761 55.98146
# Shear Modulus (GPa) = 24.90182 26.51211 25.70697
#
# Velocity S-wave (km/s) = 3.65141 3.76762 3.70997
# Velocity P-wave (km/s) = 6.85938 7.04267 6.95163
#
# Compressibility (1/GPa) = 0.01828979
#
# Stress axis : x y z
#
# Youngs Moduli (GPa) = 66.51596 79.37717 42.31006
#
# Poissons Ratio (x) = 0.18689 0.29483
# Poissons Ratio (y) = 0.15661 0.30319
# Poissons Ratio (z) = 0.46350 0.56881
#
# Static dielectric constant tensor:
#      x y z
#    x 3.519410 0.000000 0.000000 
#    y 0.000000 3.521930 0.000000 
#    z 0.000000 0.000000 3.359520 
# 
# 
# High freq. dielectric constant tensor:
#      x y z
#    x 1.724000 0.000000 0.000000 
#    y 0.000000 1.727510 0.000000 
#    z 0.000000 0.000000 1.724000 
# 
# From -- ./inp_files/5202.got.cif
#   From: 2010.03.12/outbox.cif.g09.slc.cpg/sg57_3_cif.got.tgz:5202.got - 2010.04.16 15:48:40.
