data_PCOD8231379
_publ_section_title
;
Structure prediction by ZEFSAII (Michael W. Deem and Ramdas Pophale) SiO2 
 PCOD8231379
Probable space group: P B C M
;
_chemical_formula_sum "Si O2"
_cell_formula_units_Z 48
_cell_length_a 14.850705
_cell_length_b 18.757835
_cell_length_c 9.121167
_cell_angle_alpha 90.000000
_cell_angle_beta 90.000000
_cell_angle_gamma 90.000000
_cell_volume 2540.856803
_symmetry_space_group_name_H-M "P B C M"
_symmetry_group_IT_number 57
_symmetry_cell_setting 'orthorhombic'
loop_
_space_group_symop_operation_xyz
x,y,z
-x,-y,1/2+z
x,1/2-y,-z
-x,1/2+y,1/2-z
-x,-y,-z
x,y,1/2-z
-x,1/2+y,z
x,1/2-y,1/2+z
loop_
_atom_site_type_symbol
_atom_site_label
_atom_site_fract_x
_atom_site_fract_y
_atom_site_fract_z
Si Si1 0.548043 0.904236 0.920553
Si Si2 0.874466 0.576279 0.076840
Si Si3 0.380741 0.942655 0.078423
Si Si4 0.824149 0.078559 0.575723
Si Si5 0.960774 0.325354 0.574820
Si Si6 0.280139 0.178119 0.077944
O O1 0.526381 0.906834 0.750000
O O2 0.616766 0.840961 0.960263
O O3 0.596702 0.977033 0.971348
O O4 0.453894 0.890548 0.003372
O O5 0.869388 0.573858 0.250000
O O6 0.872017 0.494682 0.020468
O O7 0.785921 0.616651 0.017810
O O8 0.963035 0.618213 0.024524
O O9 0.390605 0.933277 0.250000
O O10 0.280336 0.922858 0.028842
O O11 0.835305 0.089403 0.750000
O O12 0.867198 0.144593 0.488606
O O13 0.982785 0.250000 0.500000
O O14 0.956035 0.316192 0.750000
O O15 0.266301 0.188256 0.250000
O O16 0.251467 0.250000 0.000000
#
# Coordination Sequence:
#
# PCOD8231379 Si02
#       6
#     8   8   8   8   8   8
#     4   9  17  31  51  75 106 141 175 215 263 316
#     4   9  18  35  58  81 108 142 180 222 273 327
#     4   9  17  31  54  79 103 135 175 218 267 316
#     4  10  19  36  60  83 108 142 181 226 274 324
#     4  11  23  38  56  80 110 145 182 224 272 325
#     4  10  19  33  52  77 110 147 181 218 270 326
#
# _framework density 18.891265000000001
#
# number of rings (size 3 to 8) (size 9 to 14) (size 15 to 20)
#    0.000    2.333    1.667    1.500    0.000    1.333 
#    0.000    3.333    0.000    2.000    0.000    0.000 
#    0.000    0.000    0.000    0.000    0.000    0.000 
#
# Total GULP energy -595128.533022 kJ/mol
# GULP energy per Si atom -12398.511105 kJ/mol
# Density = 1.884827 g / cm^3
# Si number density = 18.891265 Si / 1000 Ang^3
#
#
#
# Elastic Constant Matrix: (Units=GPa)
#
#
# Indices 1 2 3 4 5 6 
#
# 1 118.7299 26.2908 36.7929 0.0000 0.0000 0.0000
# 2 26.2908 62.1799 20.7360 0.0000 0.0000 0.0000
# 3 36.7929 20.7360 39.3195 0.0000 0.0000 0.0000
# 4 0.0000 0.0000 0.0000 29.1700 0.0000 0.0000
# 5 0.0000 0.0000 0.0000 0.0000 27.5276 0.0000
# 6 0.0000 0.0000 0.0000 0.0000 0.0000 19.2296
#
#
#
# Elastic Compliance Matrix: (Units=1/GPa)
#
#
# Indices 1 2 3 4 5 6 
#
# 1 0.011994 -0.001612 -0.010373 0.000000 0.000000 0.000000
# 2 -0.001612 0.019731 -0.008897 0.000000 0.000000 0.000000
# 3 -0.010373 -0.008897 0.039831 0.000000 0.000000 0.000000
# 4 0.000000 0.000000 0.000000 0.034282 0.000000 0.000000
# 5 0.000000 0.000000 0.000000 0.000000 0.036327 0.000000
# 6 0.000000 0.000000 0.000000 0.000000 0.000000 0.052003
#
#
# Mechanical properties :
#
#
# Convention : Reuss Voigt Hill
#
# Bulk Modulus (GPa) = 33.56635 43.09654 38.33144
# Shear Modulus (GPa) = 20.33649 24.27943 22.30796
#
# Velocity S-wave (km/s) = 3.28457 3.58889 3.44009
# Velocity P-wave (km/s) = 5.67374 6.32740 6.00946
#
# Compressibility (1/GPa) = 0.02979174
#
# Stress axis : x y z
#
# Youngs Moduli (GPa) = 83.37553 50.68163 25.10582
#
# Poissons Ratio (x) = 0.08170 0.26043
# Poissons Ratio (y) = 0.13440 0.22337
# Poissons Ratio (z) = 0.86486 0.45092
#
# Static dielectric constant tensor:
#      x y z
#    x 3.649090 0.000000 0.000000 
#    y 0.000000 3.393700 0.000000 
#    z 0.000000 0.000000 3.189930 
# 
# 
# High freq. dielectric constant tensor:
#      x y z
#    x 1.745900 0.000000 0.000000 
#    y 0.000000 1.720560 0.000000 
#    z 0.000000 0.000000 1.709950 
# 
# From -- ./inp_files/4589.got.cif
#   From: 2010.03.12/outbox.cif.g09.slc.cpg/sg57_3_cif.got.tgz:4589.got - 2010.04.16 15:48:40.
