data_PCOD8231755
_publ_section_title
;
Structure prediction by ZEFSAII (Michael W. Deem and Ramdas Pophale) SiO2 
 PCOD8231755
Probable space group: P B C M
;
_chemical_formula_sum "Si O2"
_cell_formula_units_Z 64
_cell_length_a 14.938217
_cell_length_b 8.964461
_cell_length_c 25.402432
_cell_angle_alpha 90.000000
_cell_angle_beta 90.000000
_cell_angle_gamma 90.000000
_cell_volume 3401.717495
_symmetry_space_group_name_H-M "P B C M"
_symmetry_group_IT_number 57
_symmetry_cell_setting 'orthorhombic'
loop_
_space_group_symop_operation_xyz
x,y,z
-x,-y,1/2+z
x,1/2-y,-z
-x,1/2+y,1/2-z
-x,-y,-z
x,y,1/2-z
-x,1/2+y,z
x,1/2-y,1/2+z
loop_
_atom_site_type_symbol
_atom_site_label
_atom_site_fract_x
_atom_site_fract_y
_atom_site_fract_z
Si Si1 0.395679 0.863185 0.843614
Si Si2 0.557711 0.038269 0.690592
Si Si3 0.071253 0.877175 0.687994
Si Si4 0.237428 0.065156 0.811106
Si Si5 0.626883 0.897772 0.532413
Si Si6 0.108069 0.541843 0.687291
Si Si7 0.572942 0.372894 0.958028
Si Si8 0.722894 0.618334 0.359106
O O1 0.423728 0.713772 0.813943
O O2 0.378889 0.819185 0.904656
O O3 0.472369 0.989611 0.843516
O O4 0.308610 0.932079 0.816820
O O5 0.531470 0.002030 0.750000
O O6 0.642522 0.938999 0.676542
O O7 0.079396 0.870672 0.750000
O O8 0.088014 0.709582 0.667019
O O9 0.144461 0.996118 0.667620
O O10 0.974005 0.935112 0.671118
O O11 0.231001 0.114869 0.750000
O O12 0.261355 0.207515 0.846628
O O13 0.638945 0.750000 0.500000
O O14 0.527280 0.933543 0.555807
O O15 0.698925 0.903877 0.579454
O O16 0.643456 0.018325 0.486466
O O17 0.126601 0.535460 0.750000
O O18 0.191797 0.481312 0.654789
O O19 0.550271 0.250000 0.000000
#
# Coordination Sequence:
#
# PCOD8231755 Si02
#       8
#     8   8   8   8   8   8   8   8
#     4  12  24  38  55  79 109 153 192 236 285 340
#     4  12  24  37  52  79 117 153 189 224 278 344
#     4   9  19  35  55  83 118 156 194 233 275 329
#     4  11  22  36  54  81 118 156 194 232 277 344
#     4  10  21  37  56  78 105 139 188 246 292 331
#     4  10  19  34  57  85 118 152 189 233 283 344
#     4  10  21  37  58  76 102 139 190 247 291 330
#     4  12  22  36  58  84 112 152 191 235 290 344
#
# _framework density 18.814024
#
# number of rings (size 3 to 8) (size 9 to 14) (size 15 to 20)
#    0.000    1.250    1.250    6.000    3.500    3.000 
#    0.000    0.000    0.000    0.000    0.000    8.750 
#    0.000    0.000    0.000    0.250    0.000    0.000 
#
# Total GULP energy -793395.845717 kJ/mol
# GULP energy per Si atom -12396.810089 kJ/mol
# Density = 1.877120 g / cm^3
# Si number density = 18.814024 Si / 1000 Ang^3
#
#
#
# Elastic Constant Matrix: (Units=GPa)
#
#
# Indices 1 2 3 4 5 6 
#
# 1 93.0861 25.1331 39.6171 0.0000 0.0000 0.0000
# 2 25.1331 77.4770 27.0320 0.0000 0.0000 0.0000
# 3 39.6171 27.0320 93.4439 0.0000 0.0000 0.0000
# 4 0.0000 0.0000 0.0000 23.5094 0.0000 0.0000
# 5 0.0000 0.0000 0.0000 0.0000 12.2071 0.0000
# 6 0.0000 0.0000 0.0000 0.0000 0.0000 34.2169
#
#
#
# Elastic Compliance Matrix: (Units=1/GPa)
#
#
# Indices 1 2 3 4 5 6 
#
# 1 0.013586 -0.002667 -0.004989 0.000000 0.000000 0.000000
# 2 -0.002667 0.014879 -0.003174 0.000000 0.000000 0.000000
# 3 -0.004989 -0.003174 0.013735 0.000000 0.000000 0.000000
# 4 0.000000 0.000000 0.000000 0.042536 0.000000 0.000000
# 5 0.000000 0.000000 0.000000 0.000000 0.081919 0.000000
# 6 0.000000 0.000000 0.000000 0.000000 0.000000 0.029225
#
#
# Mechanical properties :
#
#
# Convention : Reuss Voigt Hill
#
# Bulk Modulus (GPa) = 48.68077 49.73014 49.20546
# Shear Modulus (GPa) = 22.28300 25.46834 23.87567
#
# Velocity S-wave (km/s) = 3.44522 3.68324 3.56622
# Velocity P-wave (km/s) = 6.46196 6.67669 6.57020
#
# Compressibility (1/GPa) = 0.02054199
#
# Stress axis : x y z
#
# Youngs Moduli (GPa) = 73.60611 67.20668 72.80813
#
# Poissons Ratio (x) = 0.17922 0.36320
# Poissons Ratio (y) = 0.19628 0.23108
# Poissons Ratio (z) = 0.36719 0.21330
#
# Static dielectric constant tensor:
#      x y z
#    x 3.514320 0.000000 0.000000 
#    y 0.000000 3.588220 0.000000 
#    z 0.000000 0.000000 3.299360 
# 
# 
# High freq. dielectric constant tensor:
#      x y z
#    x 1.714480 0.000000 0.000000 
#    y 0.000000 1.750480 0.000000 
#    z 0.000000 0.000000 1.710610 
# 
# From -- ./inp_files/27451.got.cif
#   From: 2010.03.12/outbox.cif.g09.slc.cpg/sg57_14_cif.got.tgz:27451.got - 2010.04.16 15:48:40.
