data_PCOD8231918
_publ_section_title
;
Structure prediction by ZEFSAII (Michael W. Deem and Ramdas Pophale) SiO2 
 PCOD8231918
Probable space group: P B C M
;
_chemical_formula_sum "Si O2"
_cell_formula_units_Z 48
_cell_length_a 22.562169
_cell_length_b 5.321981
_cell_length_c 19.070476
_cell_angle_alpha 90.000000
_cell_angle_beta 90.000000
_cell_angle_gamma 90.000000
_cell_volume 2289.895696
_symmetry_space_group_name_H-M "P B C M"
_symmetry_group_IT_number 57
_symmetry_cell_setting 'orthorhombic'
loop_
_space_group_symop_operation_xyz
x,y,z
-x,-y,1/2+z
x,1/2-y,-z
-x,1/2+y,1/2-z
-x,-y,-z
x,y,1/2-z
-x,1/2+y,z
x,1/2-y,1/2+z
loop_
_atom_site_type_symbol
_atom_site_label
_atom_site_fract_x
_atom_site_fract_y
_atom_site_fract_z
Si Si1 0.073794 0.000008 0.379802
Si Si2 0.467233 0.000002 0.666288
Si Si3 0.053287 0.500008 0.327942
Si Si4 0.334591 0.999994 0.832391
Si Si5 0.264396 0.499989 0.667023
Si Si6 0.818398 1.000000 0.539885
O O1 0.093708 0.745539 0.339292
O O2 0.001835 0.000012 0.383328
O O3 0.093709 0.254481 0.339295
O O4 0.109259 1.000000 0.453585
O O5 0.466907 1.000000 0.750000
O O6 0.500002 0.750006 0.638228
O O7 0.400593 0.999993 0.635209
O O8 0.025761 0.499997 0.250000
O O9 0.341113 0.000017 0.750000
O O10 0.300995 0.747072 0.855545
O O11 0.300991 0.252903 0.855550
O O12 0.248263 0.499983 0.750000
O O13 0.205384 0.500001 0.619774
O O14 0.796666 0.750000 0.500000
O O15 0.796666 0.250000 0.500000
#
# Coordination Sequence:
#
# PCOD8231918 Si02
#       6
#     8   8   8   8   8   8
#     4  10  20  36  56  82 110 148 183 224 276 332
#     4   9  15  23  40  70 111 153 180 211 275 346
#     4  10  19  35  59  89 120 148 183 227 279 341
#     4   9  17  31  50  78 114 147 188 236 280 332
#     4  10  21  37  59  82 108 149 194 240 286 330
#     4  12  26  44  60  83 117 151 191 240 289 340
#
# _framework density 20.961652999999998
#
# number of rings (size 3 to 8) (size 9 to 14) (size 15 to 20)
#    0.000    2.000    0.000    5.500    0.000    6.000 
#    0.000   11.667    0.000    0.000    0.000    0.000 
#    0.000   46.667    0.000    0.000    0.000    0.000 
#
# Total GULP energy -594644.089981 kJ/mol
# GULP energy per Si atom -12388.418541 kJ/mol
# Density = 2.091394 g / cm^3
# Si number density = 20.961653 Si / 1000 Ang^3
#
#
#
# Elastic Constant Matrix: (Units=GPa)
#
#
# Indices 1 2 3 4 5 6 
#
# 1 86.4723 40.2746 39.1068 0.0000 0.0000 0.0000
# 2 40.2746 238.1996 38.2036 0.0000 0.0000 0.0000
# 3 39.1068 38.2036 58.8375 0.0000 0.0000 0.0000
# 4 0.0000 0.0000 0.0000 21.3230 0.0000 0.0000
# 5 0.0000 0.0000 0.0000 0.0000 12.5651 0.0000
# 6 0.0000 0.0000 0.0000 0.0000 0.0000 22.3371
#
#
#
# Elastic Compliance Matrix: (Units=1/GPa)
#
#
# Indices 1 2 3 4 5 6 
#
# 1 0.016823 -0.001173 -0.010420 0.000000 0.000000 0.000000
# 2 -0.001173 0.004768 -0.002316 0.000000 0.000000 0.000000
# 3 -0.010420 -0.002316 0.025425 0.000000 0.000000 0.000000
# 4 0.000000 0.000000 0.000000 0.046898 0.000000 0.000000
# 5 0.000000 0.000000 0.000000 0.000000 0.079585 0.000000
# 6 0.000000 0.000000 0.000000 0.000000 0.000000 0.044769
#
#
# Mechanical properties :
#
#
# Convention : Reuss Voigt Hill
#
# Bulk Modulus (GPa) = 52.08809 68.74215 60.41512
# Shear Modulus (GPa) = 19.80307 28.97334 24.38820
#
# Velocity S-wave (km/s) = 3.07698 3.72184 3.41466
# Velocity P-wave (km/s) = 6.12592 7.16484 6.66565
#
# Compressibility (1/GPa) = 0.01919825
#
# Stress axis : x y z
#
# Youngs Moduli (GPa) = 59.44174 209.73166 39.33066
#
# Poissons Ratio (x) = 0.24607 0.40982
# Poissons Ratio (y) = 0.06974 0.09109
# Poissons Ratio (z) = 0.61937 0.48575
#
# Static dielectric constant tensor:
#      x y z
#    x 3.649750 0.000000 0.000000 
#    y 0.000000 4.747000 0.000000 
#    z 0.000000 0.000000 3.201720 
# 
# 
# High freq. dielectric constant tensor:
#      x y z
#    x 1.801830 0.000000 0.000000 
#    y 0.000000 1.862860 0.000000 
#    z 0.000000 0.000000 1.757200 
# 
# From -- ./inp_files/23111.got.cif
#   From: 2010.03.12/outbox.cif.g09.slc.cpg/sg57_12_cif.got.tgz:23111.got - 2010.04.16 15:48:40.
