data_PCOD8231668
_publ_section_title
;
Structure prediction by ZEFSAII (Michael W. Deem and Ramdas Pophale) SiO2 
 PCOD8231668
Probable space group: P B C M
;
_chemical_formula_sum "Si O2"
_cell_formula_units_Z 48
_cell_length_a 15.379686
_cell_length_b 9.463059
_cell_length_c 17.316666
_cell_angle_alpha 90.000000
_cell_angle_beta 90.000000
_cell_angle_gamma 90.000000
_cell_volume 2520.248106
_symmetry_space_group_name_H-M "P B C M"
_symmetry_group_IT_number 57
_symmetry_cell_setting 'orthorhombic'
loop_
_space_group_symop_operation_xyz
x,y,z
-x,-y,1/2+z
x,1/2-y,-z
-x,1/2+y,1/2-z
-x,-y,-z
x,y,1/2-z
-x,1/2+y,z
x,1/2-y,1/2+z
loop_
_atom_site_type_symbol
_atom_site_label
_atom_site_fract_x
_atom_site_fract_y
_atom_site_fract_z
Si Si1 0.736119 0.744617 0.409224
Si Si2 0.078138 0.565268 0.338048
Si Si3 0.079544 0.259804 0.839071
Si Si4 0.424943 0.741844 0.341678
Si Si5 0.269425 0.547031 0.342179
Si Si6 0.411906 0.437894 0.658046
O O1 0.725793 0.750000 0.500000
O O2 0.834649 0.705946 0.387464
O O3 0.677415 0.619404 0.376045
O O4 0.704930 0.893045 0.373523
O O5 0.082019 0.616269 0.250000
O O6 0.053247 0.402536 0.345473
O O7 0.174018 0.592408 0.374285
O O8 0.000817 0.654453 0.377636
O O9 0.097053 0.303093 0.750000
O O10 0.425583 0.739745 0.250000
O O11 0.338580 0.661848 0.371715
O O12 0.509000 0.658555 0.373062
O O13 0.425850 0.902120 0.372515
O O14 0.267360 0.532918 0.250000
O O15 0.406981 0.435488 0.750000
#
# Coordination Sequence:
#
# PCOD8231668 Si02
#       6
#     8   8   8   8   8   8
#     4  11  22  35  50  73 104 143 181 213 251 301
#     4   8  15  27  49  75  97 123 161 205 253 299
#     4   9  17  32  52  75 101 132 168 213 259 303
#     4   9  18  32  57  85 105 128 166 211 261 313
#     4   9  17  34  55  76 103 135 168 212 262 310
#     4  10  19  34  55  80 104 131 167 212 259 308
#
# _framework density 19.045743999999999
#
# number of rings (size 3 to 8) (size 9 to 14) (size 15 to 20)
#    0.000    2.667    0.000    3.500    0.000    4.000 
#    0.000   12.500    0.000    0.000    0.000    0.000 
#    0.000    0.000    0.000    0.000    0.000    0.000 
#
# Total GULP energy -595105.248315 kJ/mol
# GULP energy per Si atom -12398.026007 kJ/mol
# Density = 1.900239 g / cm^3
# Si number density = 19.045744 Si / 1000 Ang^3
#
#
#
# Elastic Constant Matrix: (Units=GPa)
#
#
# Indices 1 2 3 4 5 6 
#
# 1 132.4235 86.1772 18.7258 0.0000 0.0000 0.0000
# 2 86.1772 127.7253 23.6534 0.0000 0.0000 0.0000
# 3 18.7258 23.6534 32.7280 0.0000 0.0000 0.0000
# 4 0.0000 0.0000 0.0000 3.3356 0.0000 0.0000
# 5 0.0000 0.0000 0.0000 0.0000 6.1795 0.0000
# 6 0.0000 0.0000 0.0000 0.0000 0.0000 46.9078
#
#
#
# Elastic Compliance Matrix: (Units=1/GPa)
#
#
# Indices 1 2 3 4 5 6 
#
# 1 0.013512 -0.008872 -0.001319 0.000000 0.000000 0.000000
# 2 -0.008872 0.014865 -0.005667 0.000000 0.000000 0.000000
# 3 -0.001319 -0.005667 0.035405 0.000000 0.000000 0.000000
# 4 0.000000 0.000000 0.000000 0.299800 0.000000 0.000000
# 5 0.000000 0.000000 0.000000 0.000000 0.161825 0.000000
# 6 0.000000 0.000000 0.000000 0.000000 0.000000 0.021318
#
#
# Mechanical properties :
#
#
# Convention : Reuss Voigt Hill
#
# Bulk Modulus (GPa) = 31.18573 61.10995 46.14784
# Shear Modulus (GPa) = 8.48709 22.23926 15.36317
#
# Velocity S-wave (km/s) = 2.11325 3.42083 2.84323
# Velocity P-wave (km/s) = 4.72907 6.91074 5.92125
#
# Compressibility (1/GPa) = 0.03206595
#
# Stress axis : x y z
#
# Youngs Moduli (GPa) = 74.00910 67.27234 28.24460
#
# Poissons Ratio (x) = 0.59686 0.03725
# Poissons Ratio (y) = 0.65663 0.16006
# Poissons Ratio (z) = 0.09760 0.38122
#
# Static dielectric constant tensor:
#      x y z
#    x 3.805780 0.000000 0.000000 
#    y 0.000000 3.582460 0.000000 
#    z 0.000000 0.000000 2.972840 
# 
# 
# High freq. dielectric constant tensor:
#      x y z
#    x 1.757380 0.000000 0.000000 
#    y 0.000000 1.742660 0.000000 
#    z 0.000000 0.000000 1.686470 
# 
# From -- ./inp_files/18974.got.cif
#   From: 2010.03.12/outbox.cif.g09.slc.cpg/sg57_10_cif.got.tgz:18974.got - 2010.04.16 15:48:40.
