data_PCOD8231087
_publ_section_title
;
Structure prediction by ZEFSAII (Michael W. Deem and Ramdas Pophale) SiO2 
 PCOD8231087
Probable space group: P B C M
;
_chemical_formula_sum "Si O2"
_cell_formula_units_Z 64
_cell_length_a 27.269996
_cell_length_b 14.680460
_cell_length_c 8.972883
_cell_angle_alpha 90.000000
_cell_angle_beta 90.000000
_cell_angle_gamma 90.000000
_cell_volume 3592.168856
_symmetry_space_group_name_H-M "P B C M"
_symmetry_group_IT_number 57
_symmetry_cell_setting 'orthorhombic'
loop_
_space_group_symop_operation_xyz
x,y,z
-x,-y,1/2+z
x,1/2-y,-z
-x,1/2+y,1/2-z
-x,-y,-z
x,y,1/2-z
-x,1/2+y,z
x,1/2-y,1/2+z
loop_
_atom_site_type_symbol
_atom_site_label
_atom_site_fract_x
_atom_site_fract_y
_atom_site_fract_z
Si Si1 0.887638 0.964685 0.074424
Si Si2 0.808082 0.844853 0.574040
Si Si3 0.581000 0.343309 0.574407
Si Si4 0.530893 0.841956 0.924276
Si Si5 0.613300 0.519226 0.074546
Si Si6 0.966692 0.843202 0.927080
Si Si7 0.921421 0.339505 0.921751
Si Si8 0.304285 0.342549 0.576766
O O1 0.888260 0.943195 0.250000
O O2 0.887874 0.073056 0.043650
O O3 0.838924 0.925889 0.998445
O O4 0.935981 0.924701 0.998046
O O5 0.824521 0.750000 0.500000
O O6 0.818022 0.839417 0.750000
O O7 0.751643 0.866345 0.535942
O O8 0.599310 0.250000 0.500000
O O9 0.587391 0.334998 0.750000
O O10 0.524777 0.363380 0.527349
O O11 0.614565 0.424386 0.512852
O O12 0.535367 0.825628 0.750000
O O13 0.565091 0.924993 0.975692
O O14 0.550140 0.750000 0.000000
O O15 0.612870 0.499481 0.250000
O O16 0.661675 0.574218 0.024486
O O17 0.958695 0.840588 0.750000
O O18 0.022957 0.859158 0.974506
O O19 0.946934 0.750000 0.000000
O O20 0.922116 0.315550 0.750000
O O21 0.899169 0.250000 0.000000
O O22 0.321894 0.250000 0.500000
O O23 0.311119 0.324994 0.750000
#
# Coordination Sequence:
#
# PCOD8231087 Si02
#       8
#     8   8   8   8   8   8   8   8
#     4  11  21  33  50  74 100 129 165 204 242 287
#     4  10  20  35  53  75 101 130 160 196 242 292
#     4  10  20  33  48  69  97 132 168 203 241 285
#     4   9  18  30  46  70 101 132 163 198 240 287
#     4  10  19  32  50  73  99 128 162 203 244 289
#     4  10  19  32  49  72 101 133 164 198 239 286
#     4   9  20  35  51  71  98 130 165 202 241 283
#     4   9  19  34  53  76 102 128 158 196 242 291
#
# _framework density 17.816534000000001
#
# number of rings (size 3 to 8) (size 9 to 14) (size 15 to 20)
#    0.000    2.250    0.000    3.000    0.000    3.500 
#    0.000    0.000    0.000    0.750    0.000    1.750 
#    0.000    0.000    0.000    0.000    0.000    0.000 
#
# Total GULP energy -793756.390169 kJ/mol
# GULP energy per Si atom -12402.443596 kJ/mol
# Density = 1.777598 g / cm^3
# Si number density = 17.816534 Si / 1000 Ang^3
#
#
#
# Elastic Constant Matrix: (Units=GPa)
#
#
# Indices 1 2 3 4 5 6 
#
# 1 77.0353 63.1359 36.5652 0.0000 0.0000 0.0000
# 2 63.1359 146.2543 61.0055 0.0000 0.0000 0.0000
# 3 36.5652 61.0055 75.1200 0.0000 0.0000 0.0000
# 4 0.0000 0.0000 0.0000 35.6929 0.0000 0.0000
# 5 0.0000 0.0000 0.0000 0.0000 20.8992 0.0000
# 6 0.0000 0.0000 0.0000 0.0000 0.0000 26.7844
#
#
#
# Elastic Compliance Matrix: (Units=1/GPa)
#
#
# Indices 1 2 3 4 5 6 
#
# 1 0.020976 -0.007253 -0.004320 0.000000 0.000000 0.000000
# 2 -0.007253 0.012848 -0.006903 0.000000 0.000000 0.000000
# 3 -0.004320 -0.006903 0.021021 0.000000 0.000000 0.000000
# 4 0.000000 0.000000 0.000000 0.028017 0.000000 0.000000
# 5 0.000000 0.000000 0.000000 0.000000 0.047849 0.000000
# 6 0.000000 0.000000 0.000000 0.000000 0.000000 0.037335
#
#
# Mechanical properties :
#
#
# Convention : Reuss Voigt Hill
#
# Bulk Modulus (GPa) = 55.89039 68.86921 62.37980
# Shear Modulus (GPa) = 23.70087 25.85551 24.77819
#
# Velocity S-wave (km/s) = 3.65125 3.81361 3.73331
# Velocity P-wave (km/s) = 7.01524 7.62431 7.32610
#
# Compressibility (1/GPa) = 0.01789216
#
# Stress axis : x y z
#
# Youngs Moduli (GPa) = 47.67367 77.83287 47.57117
#
# Poissons Ratio (x) = 0.56453 0.20550
# Poissons Ratio (y) = 0.34578 0.32841
# Poissons Ratio (z) = 0.20594 0.53732
#
# Static dielectric constant tensor:
#      x y z
#    x 3.256210 0.000000 0.000000 
#    y 0.000000 3.310520 0.000000 
#    z 0.000000 0.000000 3.295550 
# 
# 
# High freq. dielectric constant tensor:
#      x y z
#    x 1.668510 0.000000 0.000000 
#    y 0.000000 1.688980 0.000000 
#    z 0.000000 0.000000 1.695490 
# 
# From -- ./inp_files/10284.got.cif
#   From: 2010.03.12/outbox.cif.g09.slc.cpg/sg57_6_cif.got.tgz:10284.got - 2010.04.16 15:48:40.
