data_PCOD8231519
_publ_section_title
;
Structure prediction by ZEFSAII (Michael W. Deem and Ramdas Pophale) SiO2 
 PCOD8231519
Probable space group: P B C M
;
_chemical_formula_sum "Si O2"
_cell_formula_units_Z 56
_cell_length_a 21.010972
_cell_length_b 15.457827
_cell_length_c 8.585858
_cell_angle_alpha 90.000000
_cell_angle_beta 90.000000
_cell_angle_gamma 90.000000
_cell_volume 2788.549049
_symmetry_space_group_name_H-M "P B C M"
_symmetry_group_IT_number 57
_symmetry_cell_setting 'orthorhombic'
loop_
_space_group_symop_operation_xyz
x,y,z
-x,-y,1/2+z
x,1/2-y,-z
-x,1/2+y,1/2-z
-x,-y,-z
x,y,1/2-z
-x,1/2+y,z
x,1/2-y,1/2+z
loop_
_atom_site_type_symbol
_atom_site_label
_atom_site_fract_x
_atom_site_fract_y
_atom_site_fract_z
Si Si1 0.861421 0.658918 0.066264
Si Si2 0.532209 0.417968 0.429798
Si Si3 0.120830 0.838628 0.934176
Si Si4 0.342255 0.508717 0.933081
Si Si5 0.207357 0.998425 0.932241
Si Si6 0.006499 0.404587 0.434169
Si Si7 0.406499 0.160521 0.933231
O O1 0.869846 0.664734 0.250000
O O2 0.835734 0.750000 0.000000
O O3 0.810471 0.585031 0.024986
O O4 0.928541 0.638457 0.988249
O O5 0.500000 0.500000 0.500000
O O6 0.535911 0.436927 0.250000
O O7 0.606442 0.415594 0.484576
O O8 0.483785 0.339203 0.466281
O O9 0.116686 0.834272 0.750000
O O10 0.162947 0.919802 0.989199
O O11 0.151584 0.750000 0.000000
O O12 0.050757 0.845949 0.005542
O O13 0.326309 0.511184 0.750000
O O14 0.279403 0.527955 0.031046
O O15 0.370579 0.415195 0.976087
O O16 0.198266 0.015822 0.750000
O O17 0.005618 0.409651 0.250000
O O18 0.000000 0.500000 0.500000
O O19 0.392083 0.152048 0.750000
O O20 0.379399 0.250000 0.000000
#
# Coordination Sequence:
#
# PCOD8231519 Si02
#       7
#     8   8   8   8   8   8   8
#     4  12  25  42  64  90 123 161 201 249 305 364
#     4   8  16  31  52  77 105 138 177 223 271 326
#     4  11  24  42  65  90 120 156 201 252 306 362
#     4  10  20  36  58  82 111 150 193 235 288 348
#     4  11  24  42  62  87 121 160 204 251 300 358
#     4  12  23  39  64  93 124 157 199 248 305 363
#     4  10  19  33  54  83 116 148 187 234 287 342
#
# _framework density 20.082127
#
# number of rings (size 3 to 8) (size 9 to 14) (size 15 to 20)
#    0.000    1.429    1.429    4.714    0.000    3.429 
#    0.000    3.571    0.000    3.429    0.000    0.000 
#    0.000    0.000    0.000    0.000    0.000    0.000 
#
# Total GULP energy -694158.098061 kJ/mol
# GULP energy per Si atom -12395.680323 kJ/mol
# Density = 2.003642 g / cm^3
# Si number density = 20.082127 Si / 1000 Ang^3
#
#
#
# Elastic Constant Matrix: (Units=GPa)
#
#
# Indices 1 2 3 4 5 6 
#
# 1 95.7364 9.3273 15.1978 0.0000 0.0000 0.0000
# 2 9.3273 81.1876 31.3388 0.0000 0.0000 0.0000
# 3 15.1978 31.3388 69.1145 0.0000 0.0000 0.0000
# 4 0.0000 0.0000 0.0000 30.0638 0.0000 0.0000
# 5 0.0000 0.0000 0.0000 0.0000 30.9256 0.0000
# 6 0.0000 0.0000 0.0000 0.0000 0.0000 18.6052
#
#
#
# Elastic Compliance Matrix: (Units=1/GPa)
#
#
# Indices 1 2 3 4 5 6 
#
# 1 0.010834 -0.000394 -0.002204 0.000000 0.000000 0.000000
# 2 -0.000394 0.014945 -0.006690 0.000000 0.000000 0.000000
# 3 -0.002204 -0.006690 0.017987 0.000000 0.000000 0.000000
# 4 0.000000 0.000000 0.000000 0.033263 0.000000 0.000000
# 5 0.000000 0.000000 0.000000 0.000000 0.032336 0.000000
# 6 0.000000 0.000000 0.000000 0.000000 0.000000 0.053749
#
#
# Mechanical properties :
#
#
# Convention : Reuss Voigt Hill
#
# Bulk Modulus (GPa) = 39.69802 39.75181 39.72492
# Shear Modulus (GPa) = 26.30429 28.59724 27.45076
#
# Velocity S-wave (km/s) = 3.62309 3.77771 3.70121
# Velocity P-wave (km/s) = 6.10845 6.23423 6.17166
#
# Compressibility (1/GPa) = 0.02519017
#
# Stress axis : x y z
#
# Youngs Moduli (GPa) = 92.30595 66.91335 55.59677
#
# Poissons Ratio (x) = 0.02637 0.12251
# Poissons Ratio (y) = 0.03637 0.37193
# Poissons Ratio (z) = 0.20340 0.44764
#
# Static dielectric constant tensor:
#      x y z
#    x 3.959020 0.000000 0.000000 
#    y 0.000000 3.973190 0.000000 
#    z 0.000000 0.000000 3.695360 
# 
# 
# High freq. dielectric constant tensor:
#      x y z
#    x 1.786140 0.000000 0.000000 
#    y 0.000000 1.775240 0.000000 
#    z 0.000000 0.000000 1.796540 
# 
# From -- ./inp_files/8143.got.cif
#   From: 2010.03.12/outbox.cif.g09.slc.cpg/sg57_5_cif.got.tgz:8143.got - 2010.04.16 15:48:40.
