data_PCOD8231636
_publ_section_title
;
Structure prediction by ZEFSAII (Michael W. Deem and Ramdas Pophale) SiO2 
 PCOD8231636
Probable space group: P B C M
;
_chemical_formula_sum "Si O2"
_cell_formula_units_Z 48
_cell_length_a 18.807153
_cell_length_b 15.452083
_cell_length_c 8.675782
_cell_angle_alpha 90.000000
_cell_angle_beta 90.000000
_cell_angle_gamma 90.000000
_cell_volume 2521.266310
_symmetry_space_group_name_H-M "P B C M"
_symmetry_group_IT_number 57
_symmetry_cell_setting 'orthorhombic'
loop_
_space_group_symop_operation_xyz
x,y,z
-x,-y,1/2+z
x,1/2-y,-z
-x,1/2+y,1/2-z
-x,-y,-z
x,y,1/2-z
-x,1/2+y,z
x,1/2-y,1/2+z
loop_
_atom_site_type_symbol
_atom_site_label
_atom_site_fract_x
_atom_site_fract_y
_atom_site_fract_z
Si Si1 0.426863 0.158911 0.566371
Si Si2 0.580812 0.340921 0.566623
Si Si3 0.831473 0.999709 0.433322
Si Si4 0.328970 0.003419 0.932575
Si Si5 0.913863 0.159463 0.567905
Si Si6 0.924434 0.839979 0.068185
O O1 0.399332 0.250000 0.500000
O O2 0.430897 0.163666 0.750000
O O3 0.504033 0.135848 0.500903
O O4 0.372904 0.085689 0.506009
O O5 0.608903 0.250000 0.500000
O O6 0.575343 0.335195 0.750000
O O7 0.635068 0.414657 0.509828
O O8 0.834595 0.005462 0.250000
O O9 0.751179 0.991026 0.495681
O O10 0.864058 0.085870 0.502085
O O11 0.875467 0.917306 0.495184
O O12 0.328826 0.005171 0.750000
O O13 0.886453 0.250000 0.500000
O O14 0.907799 0.162178 0.750000
O O15 0.994872 0.142138 0.513572
O O16 0.919581 0.833384 0.250000
O O17 0.895710 0.750000 0.000000
#
# Coordination Sequence:
#
# PCOD8231636 Si02
#       6
#     8   8   8   8   8   8
#     4  10  19  34  54  77 102 132 168 210 252 298
#     4  10  19  34  54  76  99 130 169 211 252 298
#     4  10  20  36  54  76 106 140 171 210 260 308
#     4   9  20  35  52  74 105 138 168 203 253 305
#     4  10  20  35  54  79 104 134 174 216 257 304
#     4   9  19  34  55  78 104 136 173 214 258 303
#
# _framework density 19.038053999999999
#
# number of rings (size 3 to 8) (size 9 to 14) (size 15 to 20)
#    0.000    2.333    0.000    3.500    0.000    2.667 
#    0.000    7.500    0.000    0.000    0.000    0.000 
#    0.000    0.000    0.000    0.000    0.000    0.000 
#
# Total GULP energy -595287.516779 kJ/mol
# GULP energy per Si atom -12401.823266 kJ/mol
# Density = 1.899472 g / cm^3
# Si number density = 19.038054 Si / 1000 Ang^3
#
#
#
# Elastic Constant Matrix: (Units=GPa)
#
#
# Indices 1 2 3 4 5 6 
#
# 1 119.5984 92.5402 25.7720 0.0000 0.0000 0.0000
# 2 92.5402 167.5149 31.3823 0.0000 0.0000 0.0000
# 3 25.7720 31.3823 48.1918 0.0000 0.0000 0.0000
# 4 0.0000 0.0000 0.0000 29.9670 0.0000 0.0000
# 5 0.0000 0.0000 0.0000 0.0000 20.4275 0.0000
# 6 0.0000 0.0000 0.0000 0.0000 0.0000 10.0537
#
#
#
# Elastic Compliance Matrix: (Units=1/GPa)
#
#
# Indices 1 2 3 4 5 6 
#
# 1 0.014971 -0.007711 -0.002985 0.000000 0.000000 0.000000
# 2 -0.007711 0.010771 -0.002890 0.000000 0.000000 0.000000
# 3 -0.002985 -0.002890 0.024229 0.000000 0.000000 0.000000
# 4 0.000000 0.000000 0.000000 0.033370 0.000000 0.000000
# 5 0.000000 0.000000 0.000000 0.000000 0.048954 0.000000
# 6 0.000000 0.000000 0.000000 0.000000 0.000000 0.099465
#
#
# Mechanical properties :
#
#
# Convention : Reuss Voigt Hill
#
# Bulk Modulus (GPa) = 43.86269 70.52157 57.19213
# Shear Modulus (GPa) = 18.75948 24.46371 21.61159
#
# Velocity S-wave (km/s) = 3.14246 3.58856 3.37290
# Velocity P-wave (km/s) = 6.02132 7.36839 6.72865
#
# Compressibility (1/GPa) = 0.02279842
#
# Stress axis : x y z
#
# Youngs Moduli (GPa) = 66.79479 92.84139 41.27347
#
# Poissons Ratio (x) = 0.71594 0.12319
# Poissons Ratio (y) = 0.51508 0.11929
# Poissons Ratio (z) = 0.19936 0.26833
#
# Static dielectric constant tensor:
#      x y z
#    x 3.648270 0.000000 0.000000 
#    y 0.000000 3.715270 0.000000 
#    z 0.000000 0.000000 3.323990 
# 
# 
# High freq. dielectric constant tensor:
#      x y z
#    x 1.735960 0.000000 0.000000 
#    y 0.000000 1.756340 0.000000 
#    z 0.000000 0.000000 1.727430 
# 
# From -- ./inp_files/6529.got.cif
#   From: 2010.03.12/outbox.cif.g09.slc.cpg/sg57_4_cif.got.tgz:6529.got - 2010.04.16 15:48:40.
