data_PCOD8231842
_publ_section_title
;
Structure prediction by ZEFSAII (Michael W. Deem and Ramdas Pophale) SiO2 
 PCOD8231842
Probable space group: P B C M
;
_chemical_formula_sum "Si O2"
_cell_formula_units_Z 64
_cell_length_a 9.528042
_cell_length_b 21.141836
_cell_length_c 17.249610
_cell_angle_alpha 90.000000
_cell_angle_beta 90.000000
_cell_angle_gamma 90.000000
_cell_volume 3474.766637
_symmetry_space_group_name_H-M "P B C M"
_symmetry_group_IT_number 57
_symmetry_cell_setting 'orthorhombic'
loop_
_space_group_symop_operation_xyz
x,y,z
-x,-y,1/2+z
x,1/2-y,-z
-x,1/2+y,1/2-z
-x,-y,-z
x,y,1/2-z
-x,1/2+y,z
x,1/2-y,1/2+z
loop_
_atom_site_type_symbol
_atom_site_label
_atom_site_fract_x
_atom_site_fract_y
_atom_site_fract_z
Si Si1 0.903475 0.448231 0.960855
Si Si2 0.233671 0.869448 0.077988
Si Si3 0.425614 0.810103 0.545465
Si Si4 0.191064 0.759644 0.840311
Si Si5 0.960348 0.637653 0.340183
Si Si6 0.368903 0.027270 0.547553
Si Si7 0.673430 0.607016 0.090247
Si Si8 0.403967 0.973824 0.339540
O O1 0.965817 0.422196 0.880860
O O2 0.749190 0.474417 0.940533
O O3 0.894064 0.391479 0.023224
O O4 0.000000 0.500000 0.000000
O O5 0.175596 0.812239 0.130326
O O6 0.281752 0.927927 0.130380
O O7 0.363819 0.853173 0.022599
O O8 0.488598 0.750000 0.500000
O O9 0.308157 0.793409 0.608414
O O10 0.544663 0.844828 0.594314
O O11 0.235250 0.760155 0.750000
O O12 0.044987 0.796965 0.852711
O O13 0.948698 0.620715 0.250000
O O14 0.806599 0.645094 0.377369
O O15 0.302564 0.086059 0.499755
O O16 0.440260 0.045544 0.629101
O O17 0.500000 0.000000 0.500000
O O18 0.640341 0.545546 0.141704
O O19 0.416102 0.963590 0.250000
#
# Coordination Sequence:
#
# PCOD8231842 Si02
#       8
#     8   8   8   8   8   8   8   8
#     4  12  21  37  61  89 117 158 198 244 294 370
#     4  11  19  39  61  87 119 155 201 246 295 365
#     4  10  21  38  63  88 114 156 205 248 291 354
#     4  10  23  39  60  88 118 157 205 255 300 351
#     4  11  24  39  57  88 124 157 202 254 303 352
#     4  10  19  35  56  86 118 150 197 241 288 357
#     4  11  20  39  59  87 123 158 200 242 306 367
#     4  11  21  33  61  94 121 155 193 251 311 355
#
# _framework density 18.418503000000001
#
# number of rings (size 3 to 8) (size 9 to 14) (size 15 to 20)
#    0.000    1.250    6.250    1.500    0.000    1.500 
#    2.250    0.625    0.000    0.000    0.000    0.000 
#    0.000    0.000    0.000    0.000    0.000    0.000 
#
# Total GULP energy -793434.982817 kJ/mol
# GULP energy per Si atom -12397.421607 kJ/mol
# Density = 1.837658 g / cm^3
# Si number density = 18.418503 Si / 1000 Ang^3
#
#
#
# Elastic Constant Matrix: (Units=GPa)
#
#
# Indices 1 2 3 4 5 6 
#
# 1 102.2050 49.1645 49.2791 0.0000 0.0000 0.0000
# 2 49.1645 102.3930 46.6661 0.0000 0.0000 0.0000
# 3 49.2791 46.6661 117.8132 0.0000 0.0000 0.0000
# 4 0.0000 0.0000 0.0000 24.6327 0.0000 0.0000
# 5 0.0000 0.0000 0.0000 0.0000 26.7463 0.0000
# 6 0.0000 0.0000 0.0000 0.0000 0.0000 29.3001
#
#
#
# Elastic Compliance Matrix: (Units=1/GPa)
#
#
# Indices 1 2 3 4 5 6 
#
# 1 0.014061 -0.004968 -0.003914 0.000000 0.000000 0.000000
# 2 -0.004968 0.013673 -0.003338 0.000000 0.000000 0.000000
# 3 -0.003914 -0.003338 0.011447 0.000000 0.000000 0.000000
# 4 0.000000 0.000000 0.000000 0.040596 0.000000 0.000000
# 5 0.000000 0.000000 0.000000 0.000000 0.037388 0.000000
# 6 0.000000 0.000000 0.000000 0.000000 0.000000 0.034130
#
#
# Mechanical properties :
#
#
# Convention : Reuss Voigt Hill
#
# Bulk Modulus (GPa) = 67.83223 68.07006 67.95115
# Shear Modulus (GPa) = 27.67809 27.95592 27.81700
#
# Velocity S-wave (km/s) = 3.88072 3.90014 3.89044
# Velocity P-wave (km/s) = 7.54905 7.57094 7.56001
#
# Compressibility (1/GPa) = 0.01474225
#
# Stress axis : x y z
#
# Youngs Moduli (GPa) = 71.11879 73.13760 87.35751
#
# Poissons Ratio (x) = 0.36333 0.34189
# Poissons Ratio (y) = 0.35330 0.29159
# Poissons Ratio (z) = 0.27834 0.24413
#
# Static dielectric constant tensor:
#      x y z
#    x 7.930160 0.000000 0.000000 
#    y 0.000000 3.383260 0.000000 
#    z 0.000000 0.000000 3.730740 
# 
# 
# High freq. dielectric constant tensor:
#      x y z
#    x 1.707450 0.000000 0.000000 
#    y 0.000000 1.713900 0.000000 
#    z 0.000000 0.000000 1.716350 
# 
# From -- ./inp_files/21511.got.cif
#   From: 2010.03.12/outbox.cif.g09.slc.cpg/sg57_11_cif.got.tgz:21511.got - 2010.04.16 15:48:40.
