data_PCOD8231073
_publ_section_title
;
Structure prediction by ZEFSAII (Michael W. Deem and Ramdas Pophale) SiO2 
 PCOD8231073
Probable space group: P B C M
;
_chemical_formula_sum "Si O2"
_cell_formula_units_Z 64
_cell_length_a 21.458588
_cell_length_b 19.602446
_cell_length_c 8.858671
_cell_angle_alpha 90.000000
_cell_angle_beta 90.000000
_cell_angle_gamma 90.000000
_cell_volume 3726.318567
_symmetry_space_group_name_H-M "P B C M"
_symmetry_group_IT_number 57
_symmetry_cell_setting 'orthorhombic'
loop_
_space_group_symop_operation_xyz
x,y,z
-x,-y,1/2+z
x,1/2-y,-z
-x,1/2+y,1/2-z
-x,-y,-z
x,y,1/2-z
-x,1/2+y,z
x,1/2-y,1/2+z
loop_
_atom_site_type_symbol
_atom_site_label
_atom_site_fract_x
_atom_site_fract_y
_atom_site_fract_z
Si Si1 0.558516 0.036612 0.427553
Si Si2 0.009013 0.395565 0.084018
Si Si3 0.623391 0.820031 0.570994
Si Si4 0.130326 0.322604 0.069624
Si Si5 0.193548 0.451994 0.571372
Si Si6 0.480235 0.818157 0.574287
Si Si7 0.089175 0.530697 0.416433
Si Si8 0.677705 0.548020 0.570609
O O1 0.549372 0.029870 0.250000
O O2 0.559637 0.116125 0.476765
O O3 0.500000 0.000000 0.500000
O O4 0.622890 0.003112 0.481226
O O5 0.985976 0.373088 0.250000
O O6 0.059044 0.340620 0.021191
O O7 0.042546 0.467938 0.096357
O O8 0.948600 0.402958 0.976984
O O9 0.648233 0.750000 0.500000
O O10 0.633706 0.821102 0.750000
O O11 0.551515 0.830950 0.524739
O O12 0.664001 0.877427 0.492224
O O13 0.137184 0.322002 0.250000
O O14 0.148891 0.250000 0.000000
O O15 0.176571 0.379675 0.004387
O O16 0.195645 0.442598 0.750000
O O17 0.144838 0.511451 0.529307
O O18 0.259317 0.477932 0.507119
O O19 0.452282 0.750000 0.500000
O O20 0.476382 0.805665 0.750000
O O21 0.115739 0.548176 0.250000
O O22 0.685206 0.549959 0.750000
#
# Coordination Sequence:
#
# PCOD8231073 Si02
#       8
#     8   8   8   8   8   8   8   8
#     4  10  20  34  53  76 102 130 163 209 262 312
#     4   8  15  27  45  70  97 125 157 196 239 283
#     4  10  19  32  49  69  97 128 165 205 246 301
#     4  10  20  34  51  73 103 137 174 210 245 289
#     4  11  22  35  50  68  96 133 171 209 251 299
#     4   9  18  32  50  74 100 126 157 196 245 304
#     4   9  16  28  47  70  95 122 157 200 243 285
#     4  11  22  35  51  72  99 132 172 214 261 311
#
# _framework density 17.175128000000001
#
# number of rings (size 3 to 8) (size 9 to 14) (size 15 to 20)
#    0.000    2.250    1.250    3.375    0.000    5.500 
#    0.000    2.500    0.000    0.000    0.000    0.875 
#    0.000    4.000    0.000    0.000    0.000    0.000 
#
# Total GULP energy -793485.708144 kJ/mol
# GULP energy per Si atom -12398.214190 kJ/mol
# Density = 1.713604 g / cm^3
# Si number density = 17.175128 Si / 1000 Ang^3
#
#
#
# Elastic Constant Matrix: (Units=GPa)
#
#
# Indices 1 2 3 4 5 6 
#
# 1 97.3572 42.8996 43.9126 0.0000 0.0000 0.0000
# 2 42.8996 60.2343 25.3661 0.0000 0.0000 0.0000
# 3 43.9126 25.3661 84.6961 0.0000 0.0000 0.0000
# 4 0.0000 0.0000 0.0000 24.2926 0.0000 0.0000
# 5 0.0000 0.0000 0.0000 0.0000 26.1553 0.0000
# 6 0.0000 0.0000 0.0000 0.0000 0.0000 20.1652
#
#
#
# Elastic Compliance Matrix: (Units=1/GPa)
#
#
# Indices 1 2 3 4 5 6 
#
# 1 0.017308 -0.009781 -0.006044 0.000000 0.000000 0.000000
# 2 -0.009781 0.024526 -0.002274 0.000000 0.000000 0.000000
# 3 -0.006044 -0.002274 0.015622 0.000000 0.000000 0.000000
# 4 0.000000 0.000000 0.000000 0.041165 0.000000 0.000000
# 5 0.000000 0.000000 0.000000 0.000000 0.038233 0.000000
# 6 0.000000 0.000000 0.000000 0.000000 0.000000 0.049590
#
#
# Mechanical properties :
#
#
# Convention : Reuss Voigt Hill
#
# Bulk Modulus (GPa) = 47.04497 51.84936 49.44716
# Shear Modulus (GPa) = 21.76483 22.79655 22.28069
#
# Velocity S-wave (km/s) = 3.56368 3.64717 3.60566
# Velocity P-wave (km/s) = 6.66212 6.92748 6.79609
#
# Compressibility (1/GPa) = 0.02125626
#
# Stress axis : x y z
#
# Youngs Moduli (GPa) = 57.77765 40.77311 64.01372
#
# Poissons Ratio (x) = 0.39882 0.38690
# Poissons Ratio (y) = 0.56515 0.14557
# Poissons Ratio (z) = 0.34921 0.09272
#
# Static dielectric constant tensor:
#      x y z
#    x 3.181220 0.000000 0.000000 
#    y 0.000000 3.184710 0.000000 
#    z 0.000000 0.000000 3.341190 
# 
# 
# High freq. dielectric constant tensor:
#      x y z
#    x 1.643940 0.000000 0.000000 
#    y 0.000000 1.639030 0.000000 
#    z 0.000000 0.000000 1.673990 
# 
# From -- ./inp_files/8464.got.cif
#   From: 2010.03.12/outbox.cif.g09.slc.cpg/sg57_5_cif.got.tgz:8464.got - 2010.04.16 15:48:40.
