data_PCOD8231202
_publ_section_title
;
Structure prediction by ZEFSAII (Michael W. Deem and Ramdas Pophale) SiO2 
 PCOD8231202
Probable space group: P B C M
;
_chemical_formula_sum "Si O2"
_cell_formula_units_Z 56
_cell_length_a 21.205124
_cell_length_b 15.624332
_cell_length_c 8.854501
_cell_angle_alpha 90.000000
_cell_angle_beta 90.000000
_cell_angle_gamma 90.000000
_cell_volume 2933.636946
_symmetry_space_group_name_H-M "P B C M"
_symmetry_group_IT_number 57
_symmetry_cell_setting 'orthorhombic'
loop_
_space_group_symop_operation_xyz
x,y,z
-x,-y,1/2+z
x,1/2-y,-z
-x,1/2+y,1/2-z
-x,-y,-z
x,y,1/2-z
-x,1/2+y,z
x,1/2-y,1/2+z
loop_
_atom_site_type_symbol
_atom_site_label
_atom_site_fract_x
_atom_site_fract_y
_atom_site_fract_z
Si Si1 0.471857 0.584525 0.571707
Si Si2 0.994666 0.591940 0.572908
Si Si3 0.873153 0.162433 0.927446
Si Si4 0.792067 0.001012 0.930030
Si Si5 0.418720 0.165707 0.428870
Si Si6 0.348863 0.502385 0.572998
Si Si7 0.139999 0.159624 0.570599
O O1 0.500000 0.500000 0.500000
O O2 0.484177 0.586405 0.750000
O O3 0.508856 0.661873 0.491462
O O4 0.396220 0.582035 0.536387
O O5 0.994562 0.576531 0.750000
O O6 0.931615 0.639809 0.518983
O O7 0.000000 0.500000 0.500000
O O8 0.054285 0.649034 0.523320
O O9 0.865122 0.171100 0.750000
O O10 0.833236 0.081355 0.986855
O O11 0.847568 0.250000 0.000000
O O12 0.796594 0.990326 0.750000
O O13 0.721054 0.019122 0.989970
O O14 0.815210 0.914108 0.006753
O O15 0.386952 0.250000 0.500000
O O16 0.420323 0.170989 0.250000
O O17 0.377909 0.086068 0.491298
O O18 0.343674 0.489612 0.750000
O O19 0.160830 0.250000 0.500000
O O20 0.146674 0.163985 0.750000
#
# Coordination Sequence:
#
# PCOD8231202 Si02
#       7
#     8   8   8   8   8   8   8
#     4   9  16  30  51  75 101 130 167 208 255 305
#     4  10  20  35  56  83 108 138 178 226 280 329
#     4  10  21  36  57  81 106 140 180 223 275 326
#     4  10  20  38  59  79 109 147 187 228 275 326
#     4  10  19  32  51  78 107 136 174 217 267 316
#     4   8  17  33  54  76 102 139 177 216 262 317
#     4  11  23  37  55  81 113 146 184 228 276 331
#
# _framework density 19.088932
#
# number of rings (size 3 to 8) (size 9 to 14) (size 15 to 20)
#    0.000    2.286    1.429    2.571    0.000    2.286 
#    0.000    6.429    0.000    1.714    0.000    0.000 
#    0.000    0.000    0.000    0.000    0.000    0.000 
#
# Total GULP energy -694119.593179 kJ/mol
# GULP energy per Si atom -12394.992735 kJ/mol
# Density = 1.904548 g / cm^3
# Si number density = 19.088932 Si / 1000 Ang^3
#
#
#
# Elastic Constant Matrix: (Units=GPa)
#
#
# Indices 1 2 3 4 5 6 
#
# 1 111.7443 20.3286 19.3658 0.0000 0.0000 0.0000
# 2 20.3286 92.6756 20.2201 0.0000 0.0000 0.0000
# 3 19.3658 20.2201 49.3012 0.0000 0.0000 0.0000
# 4 0.0000 0.0000 0.0000 35.1643 0.0000 0.0000
# 5 0.0000 0.0000 0.0000 0.0000 19.9739 0.0000
# 6 0.0000 0.0000 0.0000 0.0000 0.0000 18.5350
#
#
#
# Elastic Compliance Matrix: (Units=1/GPa)
#
#
# Indices 1 2 3 4 5 6 
#
# 1 0.009773 -0.001435 -0.003251 0.000000 0.000000 0.000000
# 2 -0.001435 0.012061 -0.004383 0.000000 0.000000 0.000000
# 3 -0.003251 -0.004383 0.023358 0.000000 0.000000 0.000000
# 4 0.000000 0.000000 0.000000 0.028438 0.000000 0.000000
# 5 0.000000 0.000000 0.000000 0.000000 0.050065 0.000000
# 6 0.000000 0.000000 0.000000 0.000000 0.000000 0.053952
#
#
# Mechanical properties :
#
#
# Convention : Reuss Voigt Hill
#
# Bulk Modulus (GPa) = 36.96068 41.50558 39.23313
# Shear Modulus (GPa) = 24.41365 27.65510 26.03437
#
# Velocity S-wave (km/s) = 3.58011 3.81037 3.69704
# Velocity P-wave (km/s) = 6.04103 6.41475 6.23069
#
# Compressibility (1/GPa) = 0.02705578
#
# Stress axis : x y z
#
# Youngs Moduli (GPa) = 102.31929 82.90949 42.81175
#
# Poissons Ratio (x) = 0.11894 0.13917
# Poissons Ratio (y) = 0.14678 0.18766
# Poissons Ratio (z) = 0.33260 0.36341
#
# Static dielectric constant tensor:
#      x y z
#    x 3.931160 0.000000 0.000000 
#    y 0.000000 3.547960 0.000000 
#    z 0.000000 0.000000 3.478920 
# 
# 
# High freq. dielectric constant tensor:
#      x y z
#    x 1.742360 0.000000 0.000000 
#    y 0.000000 1.737460 0.000000 
#    z 0.000000 0.000000 1.728640 
# 
# From -- ./inp_files/8086.got.cif
#   From: 2010.03.12/outbox.cif.g09.slc.cpg/sg57_5_cif.got.tgz:8086.got - 2010.04.16 15:48:40.
