data_PCOD8231922
_publ_section_title
;
Structure prediction by ZEFSAII (Michael W. Deem and Ramdas Pophale) SiO2 
 PCOD8231922
Probable space group: P B C M
;
_chemical_formula_sum "Si O2"
_cell_formula_units_Z 40
_cell_length_a 14.418298
_cell_length_b 15.540883
_cell_length_c 8.701680
_cell_angle_alpha 90.000000
_cell_angle_beta 90.000000
_cell_angle_gamma 90.000000
_cell_volume 1949.812259
_symmetry_space_group_name_H-M "P B C M"
_symmetry_group_IT_number 57
_symmetry_cell_setting 'orthorhombic'
loop_
_space_group_symop_operation_xyz
x,y,z
-x,-y,1/2+z
x,1/2-y,-z
-x,1/2+y,1/2-z
-x,-y,-z
x,y,1/2-z
-x,1/2+y,z
x,1/2-y,1/2+z
loop_
_atom_site_type_symbol
_atom_site_label
_atom_site_fract_x
_atom_site_fract_y
_atom_site_fract_z
Si Si1 0.898220 0.002895 0.932804
Si Si2 0.601036 0.100941 0.927194
Si Si3 0.588133 0.599606 0.428130
Si Si4 0.784951 0.160182 0.068900
Si Si5 0.785504 0.661722 0.068798
O O1 0.900926 0.006042 0.750000
O O2 0.845619 0.917845 0.993466
O O3 0.844732 0.085712 0.992408
O O4 0.000000 0.000000 0.000000
O O5 0.620484 0.122798 0.750000
O O6 0.608773 0.000033 0.961033
O O7 0.498654 0.133794 0.973313
O O8 0.676476 0.149233 0.030145
O O9 0.565243 0.614063 0.250000
O O10 0.678638 0.651168 0.483037
O O11 0.800292 0.159210 0.250000
O O12 0.821074 0.250000 0.000000
O O13 0.792923 0.665302 0.250000
O O14 0.825664 0.750000 0.000000
#
# Coordination Sequence:
#
# PCOD8231922 Si02
#       5
#     8   8   8   8   8
#     4  11  24  46  69  94 126 162 205 261 319 378
#     4  10  19  35  59  89 126 167 209 258 306 366
#     4   9  18  35  57  86 125 169 209 253 304 363
#     4  12  25  42  66  95 126 166 211 261 317 379
#     4  10  22  40  63  91 127 163 204 254 305 363
#
# _framework density 20.514796
#
# number of rings (size 3 to 8) (size 9 to 14) (size 15 to 20)
#    0.000    1.600    2.000    3.000    0.000    4.800 
#    0.000    4.000    0.000    0.000    0.000    0.000 
#    0.000    0.000    0.000    0.000    0.000    0.000 
#
# Total GULP energy -496175.690030 kJ/mol
# GULP energy per Si atom -12404.392251 kJ/mol
# Density = 2.046810 g / cm^3
# Si number density = 20.514796 Si / 1000 Ang^3
#
#
#
# Elastic Constant Matrix: (Units=GPa)
#
#
# Indices 1 2 3 4 5 6 
#
# 1 125.7975 71.7702 40.2446 0.0000 0.0000 0.0000
# 2 71.7702 147.3115 45.7946 0.0000 0.0000 0.0000
# 3 40.2446 45.7946 81.3285 0.0000 0.0000 0.0000
# 4 0.0000 0.0000 0.0000 33.8220 0.0000 0.0000
# 5 0.0000 0.0000 0.0000 0.0000 37.2811 0.0000
# 6 0.0000 0.0000 0.0000 0.0000 0.0000 5.2540
#
#
#
# Elastic Compliance Matrix: (Units=1/GPa)
#
#
# Indices 1 2 3 4 5 6 
#
# 1 0.011623 -0.004697 -0.003107 0.000000 0.000000 0.000000
# 2 -0.004697 0.010127 -0.003378 0.000000 0.000000 0.000000
# 3 -0.003107 -0.003378 0.015735 0.000000 0.000000 0.000000
# 4 0.000000 0.000000 0.000000 0.029567 0.000000 0.000000
# 5 0.000000 0.000000 0.000000 0.000000 0.026823 0.000000
# 6 0.000000 0.000000 0.000000 0.000000 0.000000 0.190333
#
#
# Mechanical properties :
#
#
# Convention : Reuss Voigt Hill
#
# Bulk Modulus (GPa) = 66.13032 74.45069 70.29051
# Shear Modulus (GPa) = 16.04563 28.37994 22.21279
#
# Velocity S-wave (km/s) = 2.79973 3.72343 3.29412
# Velocity P-wave (km/s) = 6.53886 7.40643 6.98613
#
# Compressibility (1/GPa) = 0.01512166
#
# Stress axis : x y z
#
# Youngs Moduli (GPa) = 86.03750 98.74828 63.55158
#
# Poissons Ratio (x) = 0.46381 0.19744
# Poissons Ratio (y) = 0.40411 0.21468
# Poissons Ratio (z) = 0.26730 0.33357
#
# Static dielectric constant tensor:
#      x y z
#    x 3.778420 0.000000 0.000000 
#    y 0.000000 3.921460 0.000000 
#    z 0.000000 0.000000 3.673480 
# 
# 
# High freq. dielectric constant tensor:
#      x y z
#    x 1.803670 0.000000 0.000000 
#    y 0.000000 1.807210 0.000000 
#    z 0.000000 0.000000 1.800910 
# 
# From -- ./inp_files/4288.got.cif
#   From: 2010.03.12/outbox.cif.g09.slc.cpg/sg57_3_cif.got.tgz:4288.got - 2010.04.16 15:48:40.
