data_PCOD8231123
_publ_section_title
;
Structure prediction by ZEFSAII (Michael W. Deem and Ramdas Pophale) SiO2 
 PCOD8231123
Probable space group: P B C M
;
_chemical_formula_sum "Si O2"
_cell_formula_units_Z 64
_cell_length_a 23.203271
_cell_length_b 17.000677
_cell_length_c 9.057210
_cell_angle_alpha 90.000000
_cell_angle_beta 90.000000
_cell_angle_gamma 90.000000
_cell_volume 3572.809544
_symmetry_space_group_name_H-M "P B C M"
_symmetry_group_IT_number 57
_symmetry_cell_setting 'orthorhombic'
loop_
_space_group_symop_operation_xyz
x,y,z
-x,-y,1/2+z
x,1/2-y,-z
-x,1/2+y,1/2-z
-x,-y,-z
x,y,1/2-z
-x,1/2+y,z
x,1/2-y,1/2+z
loop_
_atom_site_type_symbol
_atom_site_label
_atom_site_fract_x
_atom_site_fract_y
_atom_site_fract_z
Si Si1 0.818509 0.827624 0.425541
Si Si2 0.966042 0.333330 0.424590
Si Si3 0.074124 0.104935 0.078225
Si Si4 0.462083 0.064856 0.077872
Si Si5 0.864526 0.057849 0.583051
Si Si6 0.633008 0.015194 0.075145
Si Si7 0.563886 0.169348 0.420202
Si Si8 0.762065 0.990172 0.423038
O O1 0.790496 0.750000 0.500000
O O2 0.822815 0.818053 0.250000
O O3 0.881884 0.837160 0.494876
O O4 0.778740 0.901654 0.471498
O O5 0.972136 0.250000 0.500000
O O6 0.977564 0.328586 0.250000
O O7 0.902036 0.365831 0.458396
O O8 0.012571 0.390305 0.499393
O O9 0.070098 0.129317 0.250000
O O10 0.094245 0.016104 0.057597
O O11 0.456289 0.045578 0.250000
O O12 0.496146 0.147319 0.054024
O O13 0.500000 0.000000 0.000000
O O14 0.399429 0.059442 0.001186
O O15 0.842676 0.061506 0.750000
O O16 0.807225 0.053577 0.485103
O O17 0.627588 0.004105 0.250000
O O18 0.605085 0.098174 0.023754
O O19 0.698605 0.011586 0.018819
O O20 0.579756 0.250000 0.500000
O O21 0.576661 0.183796 0.250000
O O22 0.764659 0.998572 0.250000
#
# Coordination Sequence:
#
# PCOD8231123 Si02
#       8
#     8   8   8   8   8   8   8   8
#     4  10  19  32  50  73  99 129 162 201 250 302
#     4  11  22  35  50  72 100 129 162 203 250 303
#     4  10  19  33  53  75  97 124 158 202 253 305
#     4   9  17  30  49  74 100 129 161 197 240 288
#     4   9  20  36  53  73  98 127 164 207 249 295
#     4   9  18  34  53  75 101 132 170 209 245 291
#     4   9  18  31  49  74 104 132 164 203 245 288
#     4   9  19  35  55  74  97 132 171 206 246 292
#
# _framework density 17.913072
#
# number of rings (size 3 to 8) (size 9 to 14) (size 15 to 20)
#    0.000    2.500    0.000    3.000    0.000    5.000 
#    0.000    1.250    0.000    6.000    0.000    0.000 
#    0.000    0.000    0.000    0.000    0.000    0.000 
#
# Total GULP energy -793398.719523 kJ/mol
# GULP energy per Si atom -12396.854993 kJ/mol
# Density = 1.787230 g / cm^3
# Si number density = 17.913072 Si / 1000 Ang^3
#
#
#
# Elastic Constant Matrix: (Units=GPa)
#
#
# Indices 1 2 3 4 5 6 
#
# 1 129.2101 33.5128 43.3407 0.0000 0.0000 0.0000
# 2 33.5128 48.0578 26.5429 0.0000 0.0000 0.0000
# 3 43.3407 26.5429 67.3122 0.0000 0.0000 0.0000
# 4 0.0000 0.0000 0.0000 26.5040 0.0000 0.0000
# 5 0.0000 0.0000 0.0000 0.0000 28.5059 0.0000
# 6 0.0000 0.0000 0.0000 0.0000 0.0000 20.6417
#
#
#
# Elastic Compliance Matrix: (Units=1/GPa)
#
#
# Indices 1 2 3 4 5 6 
#
# 1 0.010624 -0.004641 -0.005010 0.000000 0.000000 0.000000
# 2 -0.004641 0.028630 -0.008301 0.000000 0.000000 0.000000
# 3 -0.005010 -0.008301 0.021355 0.000000 0.000000 0.000000
# 4 0.000000 0.000000 0.000000 0.037730 0.000000 0.000000
# 5 0.000000 0.000000 0.000000 0.000000 0.035080 0.000000
# 6 0.000000 0.000000 0.000000 0.000000 0.000000 0.048446
#
#
# Mechanical properties :
#
#
# Convention : Reuss Voigt Hill
#
# Bulk Modulus (GPa) = 40.47953 50.15254 45.31603
# Shear Modulus (GPa) = 22.12350 24.54258 23.33304
#
# Velocity S-wave (km/s) = 3.51814 3.70549 3.61303
# Velocity P-wave (km/s) = 6.25699 6.80926 6.53896
#
# Compressibility (1/GPa) = 0.02470385
#
# Stress axis : x y z
#
# Youngs Moduli (GPa) = 94.12952 34.92900 46.82656
#
# Poissons Ratio (x) = 0.16211 0.23461
# Poissons Ratio (y) = 0.43687 0.38871
# Poissons Ratio (z) = 0.47161 0.28995
#
# Static dielectric constant tensor:
#      x y z
#    x 3.474030 0.000000 0.000000 
#    y 0.000000 3.274390 0.000000 
#    z 0.000000 0.000000 3.397000 
# 
# 
# High freq. dielectric constant tensor:
#      x y z
#    x 1.685050 0.000000 0.000000 
#    y 0.000000 1.679230 0.000000 
#    z 0.000000 0.000000 1.699110 
# 
# From -- ./inp_files/8578.got.cif
#   From: 2010.03.12/outbox.cif.g09.slc.cpg/sg57_5_cif.got.tgz:8578.got - 2010.04.16 15:48:40.
