data_PCOD8231339
_publ_section_title
;
Structure prediction by ZEFSAII (Michael W. Deem and Ramdas Pophale) SiO2 
 PCOD8231339
Probable space group: P B C M
;
_chemical_formula_sum "Si O2"
_cell_formula_units_Z 64
_cell_length_a 20.368309
_cell_length_b 19.827857
_cell_length_c 8.872212
_cell_angle_alpha 90.000000
_cell_angle_beta 90.000000
_cell_angle_gamma 90.000000
_cell_volume 3583.130812
_symmetry_space_group_name_H-M "P B C M"
_symmetry_group_IT_number 57
_symmetry_cell_setting 'orthorhombic'
loop_
_space_group_symop_operation_xyz
x,y,z
-x,-y,1/2+z
x,1/2-y,-z
-x,1/2+y,1/2-z
-x,-y,-z
x,y,1/2-z
-x,1/2+y,z
x,1/2-y,1/2+z
loop_
_atom_site_type_symbol
_atom_site_label
_atom_site_fract_x
_atom_site_fract_y
_atom_site_fract_z
Si Si1 0.947574 0.314484 0.917486
Si Si2 0.793399 0.313235 0.586481
Si Si3 0.944848 0.045871 0.928911
Si Si4 0.193352 0.539604 0.430322
Si Si5 0.631726 0.681895 0.925612
Si Si6 0.442049 0.543564 0.429694
Si Si7 0.478664 0.680429 0.572726
Si Si8 0.318143 0.041562 0.928386
O O1 0.978348 0.324055 0.750000
O O2 0.870691 0.301736 0.899446
O O3 0.980152 0.250000 0.000000
O O4 0.961439 0.378531 0.021277
O O5 0.760916 0.250000 0.500000
O O6 0.759804 0.312708 0.750000
O O7 0.781389 0.386739 0.511609
O O8 0.945436 0.040627 0.750000
O O9 0.874706 0.020614 0.990805
O O10 0.000000 0.000000 0.000000
O O11 0.182294 0.542555 0.250000
O O12 0.246909 0.484570 0.480759
O O13 0.644154 0.689266 0.750000
O O14 0.555434 0.671266 0.962583
O O15 0.670018 0.616927 0.993067
O O16 0.659393 0.750000 0.000000
O O17 0.500000 0.500000 0.500000
O O18 0.449783 0.544708 0.250000
O O19 0.440814 0.619121 0.493951
O O20 0.374192 0.509627 0.483659
O O21 0.452921 0.750000 0.500000
O O22 0.464209 0.680562 0.750000
O O23 0.321945 0.045122 0.750000
#
# Coordination Sequence:
#
# PCOD8231339 Si02
#       8
#     8   8   8   8   8   8   8   8
#     4   9  16  28  47  74 104 134 169 208 252 302
#     4   8  14  24  42  66  91 122 159 197 237 286
#     4  11  21  34  53  78 107 138 174 218 265 314
#     4   9  18  34  53  73  99 134 174 214 260 314
#     4   9  17  31  50  74  99 129 170 215 261 311
#     4  11  20  33  52  76 104 138 175 217 263 311
#     4  10  19  33  51  75 104 136 177 221 268 318
#     4   9  18  34  54  74 102 138 174 213 263 319
#
# _framework density 17.861474999999999
#
# number of rings (size 3 to 8) (size 9 to 14) (size 15 to 20)
#    0.000    2.500    1.250    3.000    0.000    3.500 
#    0.000    2.500    0.000    2.250    0.000    3.500 
#    0.000    0.000    0.000    0.000    0.000    0.000 
#
# Total GULP energy -793340.164757 kJ/mol
# GULP energy per Si atom -12395.940074 kJ/mol
# Density = 1.782082 g / cm^3
# Si number density = 17.861475 Si / 1000 Ang^3
#
#
#
# Elastic Constant Matrix: (Units=GPa)
#
#
# Indices 1 2 3 4 5 6 
#
# 1 79.9624 69.4237 39.9465 0.0000 0.0000 0.0000
# 2 69.4237 169.6029 53.2855 0.0000 0.0000 0.0000
# 3 39.9465 53.2855 86.6155 0.0000 0.0000 0.0000
# 4 0.0000 0.0000 0.0000 33.8801 0.0000 0.0000
# 5 0.0000 0.0000 0.0000 0.0000 16.8873 0.0000
# 6 0.0000 0.0000 0.0000 0.0000 0.0000 23.0482
#
#
#
# Elastic Compliance Matrix: (Units=1/GPa)
#
#
# Indices 1 2 3 4 5 6 
#
# 1 0.021350 -0.006998 -0.005541 0.000000 0.000000 0.000000
# 2 -0.006998 0.009603 -0.002680 0.000000 0.000000 0.000000
# 3 -0.005541 -0.002680 0.015750 0.000000 0.000000 0.000000
# 4 0.000000 0.000000 0.000000 0.029516 0.000000 0.000000
# 5 0.000000 0.000000 0.000000 0.000000 0.059216 0.000000
# 6 0.000000 0.000000 0.000000 0.000000 0.000000 0.043387
#
#
# Mechanical properties :
#
#
# Convention : Reuss Voigt Hill
#
# Bulk Modulus (GPa) = 61.48784 73.49913 67.49349
# Shear Modulus (GPa) = 23.29028 26.33145 24.81087
#
# Velocity S-wave (km/s) = 3.61493 3.84370 3.73107
# Velocity P-wave (km/s) = 7.20577 7.80625 7.51202
#
# Compressibility (1/GPa) = 0.01626338
#
# Stress axis : x y z
#
# Youngs Moduli (GPa) = 46.83837 104.13695 63.49386
#
# Poissons Ratio (x) = 0.72878 0.35183
# Poissons Ratio (y) = 0.32779 0.17016
# Poissons Ratio (z) = 0.25954 0.27909
#
# Static dielectric constant tensor:
#      x y z
#    x 3.021920 0.000000 0.000000 
#    y 0.000000 3.611510 0.000000 
#    z 0.000000 0.000000 3.359970 
# 
# 
# High freq. dielectric constant tensor:
#      x y z
#    x 1.645600 0.000000 0.000000 
#    y 0.000000 1.706280 0.000000 
#    z 0.000000 0.000000 1.685930 
# 
# From -- ./inp_files/7272.got.cif
#   From: 2010.03.12/outbox.cif.g09.slc.cpg/sg57_4_cif.got.tgz:7272.got - 2010.04.16 15:48:40.
