data_PCOD8231363
_publ_section_title
;
Structure prediction by ZEFSAII (Michael W. Deem and Ramdas Pophale) SiO2 
 PCOD8231363
Probable space group: P B C M
;
_chemical_formula_sum "Si O2"
_cell_formula_units_Z 48
_cell_length_a 31.318781
_cell_length_b 9.085711
_cell_length_c 8.855573
_cell_angle_alpha 90.000000
_cell_angle_beta 90.000000
_cell_angle_gamma 90.000000
_cell_volume 2519.883344
_symmetry_space_group_name_H-M "P B C M"
_symmetry_group_IT_number 57
_symmetry_cell_setting 'orthorhombic'
loop_
_space_group_symop_operation_xyz
x,y,z
-x,-y,1/2+z
x,1/2-y,-z
-x,1/2+y,1/2-z
-x,-y,-z
x,y,1/2-z
-x,1/2+y,z
x,1/2-y,1/2+z
loop_
_atom_site_type_symbol
_atom_site_label
_atom_site_fract_x
_atom_site_fract_y
_atom_site_fract_z
Si Si1 0.537369 0.090935 0.572853
Si Si2 0.370907 0.904405 0.076496
Si Si3 0.796861 0.591775 0.929364
Si Si4 0.038418 0.089881 0.929171
Si Si5 0.721981 0.411732 0.428764
Si Si6 0.121363 0.908040 0.926748
O O1 0.536778 0.250000 0.500000
O O2 0.528820 0.104173 0.750000
O O3 0.584058 0.012777 0.538791
O O4 0.500000 0.000000 0.500000
O O5 0.370286 0.865743 0.250000
O O6 0.325537 0.980374 0.035233
O O7 0.372229 0.750000 0.000000
O O8 0.793848 0.606448 0.750000
O O9 0.835260 0.485783 0.980927
O O10 0.805579 0.750000 0.000000
O O11 0.753406 0.526057 0.994062
O O12 0.032613 0.101036 0.750000
O O13 0.082009 0.009556 0.975960
O O14 0.039269 0.250000 0.000000
O O15 0.000000 0.000000 0.000000
O O16 0.727769 0.250000 0.500000
O O17 0.730962 0.401392 0.250000
O O18 0.121761 0.882988 0.750000
O O19 0.116728 0.750000 0.000000
#
# Coordination Sequence:
#
# PCOD8231363 Si02
#       6
#     8   8   8   8   8   8
#     4  10  19  33  52  76 104 137 175 218 265 318
#     4   8  16  30  50  74 102 134 172 215 263 315
#     4  11  23  39  57  81 111 146 183 224 273 326
#     4  11  23  40  61  88 119 154 192 234 280 330
#     4  10  19  34  56  82 108 138 176 221 267 319
#     4  10  23  40  60  85 114 147 187 230 276 326
#
# _framework density 19.048499
#
# number of rings (size 3 to 8) (size 9 to 14) (size 15 to 20)
#    0.000    2.000    0.000    3.500    0.000    6.667 
#    0.000    0.833    0.000    0.000    0.000    0.000 
#    0.000    0.000    0.000    0.000    0.000    0.000 
#
# Total GULP energy -594832.242152 kJ/mol
# GULP energy per Si atom -12392.338378 kJ/mol
# Density = 1.900514 g / cm^3
# Si number density = 19.048499 Si / 1000 Ang^3
#
#
#
# Elastic Constant Matrix: (Units=GPa)
#
#
# Indices 1 2 3 4 5 6 
#
# 1 185.7998 75.6279 67.9327 0.0000 0.0000 0.0000
# 2 75.6279 123.5157 50.8728 0.0000 0.0000 0.0000
# 3 67.9327 50.8728 83.4440 0.0000 0.0000 0.0000
# 4 0.0000 0.0000 0.0000 36.9963 0.0000 0.0000
# 5 0.0000 0.0000 0.0000 0.0000 32.0454 0.0000
# 6 0.0000 0.0000 0.0000 0.0000 0.0000 29.6046
#
#
#
# Elastic Compliance Matrix: (Units=1/GPa)
#
#
# Indices 1 2 3 4 5 6 
#
# 1 0.008486 -0.003139 -0.004995 0.000000 0.000000 0.000000
# 2 -0.003139 0.011972 -0.004743 0.000000 0.000000 0.000000
# 3 -0.004995 -0.004743 0.018943 0.000000 0.000000 0.000000
# 4 0.000000 0.000000 0.000000 0.027030 0.000000 0.000000
# 5 0.000000 0.000000 0.000000 0.000000 0.031206 0.000000
# 6 0.000000 0.000000 0.000000 0.000000 0.000000 0.033778
#
#
# Mechanical properties :
#
#
# Convention : Reuss Voigt Hill
#
# Bulk Modulus (GPa) = 73.28226 86.84737 80.06482
# Shear Modulus (GPa) = 30.91822 32.95100 31.93461
#
# Velocity S-wave (km/s) = 4.03318 4.16366 4.09894
# Velocity P-wave (km/s) = 7.76168 8.29496 8.03275
#
# Compressibility (1/GPa) = 0.01364587
#
# Stress axis : x y z
#
# Youngs Moduli (GPa) = 117.84160 83.53109 52.79122
#
# Poissons Ratio (x) = 0.26217 0.26369
# Poissons Ratio (y) = 0.36986 0.25041
# Poissons Ratio (z) = 0.58862 0.39623
#
# Static dielectric constant tensor:
#      x y z
#    x 4.415880 0.000000 0.000000 
#    y 0.000000 3.202060 0.000000 
#    z 0.000000 0.000000 3.645590 
# 
# 
# High freq. dielectric constant tensor:
#      x y z
#    x 1.772360 0.000000 0.000000 
#    y 0.000000 1.717030 0.000000 
#    z 0.000000 0.000000 1.752750 
# 
# From -- ./inp_files/10009.got.cif
#   From: 2010.03.12/outbox.cif.g09.slc.cpg/sg57_6_cif.got.tgz:10009.got - 2010.04.16 15:48:40.
