data_PCOD8231114
_publ_section_title
;
Structure prediction by ZEFSAII (Michael W. Deem and Ramdas Pophale) SiO2 
 PCOD8231114
Probable space group: P B C M
;
_chemical_formula_sum "Si O2"
_cell_formula_units_Z 48
_cell_length_a 31.428004
_cell_length_b 9.088761
_cell_length_c 8.736750
_cell_angle_alpha 90.000000
_cell_angle_beta 90.000000
_cell_angle_gamma 90.000000
_cell_volume 2495.579398
_symmetry_space_group_name_H-M "P B C M"
_symmetry_group_IT_number 57
_symmetry_cell_setting 'orthorhombic'
loop_
_space_group_symop_operation_xyz
x,y,z
-x,-y,1/2+z
x,1/2-y,-z
-x,1/2+y,1/2-z
-x,-y,-z
x,y,1/2-z
-x,1/2+y,z
x,1/2-y,1/2+z
loop_
_atom_site_type_symbol
_atom_site_label
_atom_site_fract_x
_atom_site_fract_y
_atom_site_fract_z
Si Si1 0.800170 0.906875 0.571937
Si Si2 0.883739 0.088675 0.569804
Si Si3 0.370653 0.907562 0.428074
Si Si4 0.960722 0.911935 0.067604
Si Si5 0.721222 0.088425 0.568795
Si Si6 0.537973 0.089773 0.570194
O O1 0.810090 0.750000 0.500000
O O2 0.794971 0.879282 0.750000
O O3 0.837941 0.019403 0.535820
O O4 0.756944 0.978105 0.502932
O O5 0.884930 0.250000 0.500000
O O6 0.894182 0.094128 0.750000
O O7 0.917560 0.989319 0.482712
O O8 0.372310 0.750000 0.500000
O O9 0.369267 0.880416 0.250000
O O10 0.325481 0.981514 0.477045
O O11 0.415712 0.987626 0.469537
O O12 0.963798 0.905806 0.250000
O O13 0.961652 0.750000 0.000000
O O14 0.000000 0.000000 0.000000
O O15 0.727447 0.250000 0.500000
O O16 0.726571 0.103958 0.750000
O O17 0.536614 0.250000 0.500000
O O18 0.530925 0.100801 0.750000
O O19 0.500000 0.000000 0.500000
#
# Coordination Sequence:
#
# PCOD8231114 Si02
#       6
#     8   8   8   8   8   8
#     4  10  22  37  55  79 111 146 181 220 268 321
#     4  11  23  40  61  88 117 150 190 233 278 328
#     4   8  15  28  48  71  98 129 167 212 260 311
#     4  12  25  43  65  91 122 157 194 236 282 331
#     4   9  17  32  53  78 103 132 171 217 263 314
#     4  10  19  32  50  73 100 134 172 216 265 319
#
# _framework density 19.234010999999999
#
# number of rings (size 3 to 8) (size 9 to 14) (size 15 to 20)
#    0.000    2.000    0.000    4.000    0.000    4.000 
#    0.000    0.833    0.000    2.000    0.000    0.000 
#    0.000    0.000    0.000    0.000    0.000    0.000 
#
# Total GULP energy -594758.491624 kJ/mol
# GULP energy per Si atom -12390.801909 kJ/mol
# Density = 1.919023 g / cm^3
# Si number density = 19.234011 Si / 1000 Ang^3
#
#
#
# Elastic Constant Matrix: (Units=GPa)
#
#
# Indices 1 2 3 4 5 6 
#
# 1 166.2551 64.5326 65.6176 0.0000 0.0000 0.0000
# 2 64.5326 117.0009 49.0693 0.0000 0.0000 0.0000
# 3 65.6176 49.0693 88.3864 0.0000 0.0000 0.0000
# 4 0.0000 0.0000 0.0000 32.3085 0.0000 0.0000
# 5 0.0000 0.0000 0.0000 0.0000 26.0397 0.0000
# 6 0.0000 0.0000 0.0000 0.0000 0.0000 35.7340
#
#
#
# Elastic Compliance Matrix: (Units=1/GPa)
#
#
# Indices 1 2 3 4 5 6 
#
# 1 0.009196 -0.002879 -0.005229 0.000000 0.000000 0.000000
# 2 -0.002879 0.012042 -0.004548 0.000000 0.000000 0.000000
# 3 -0.005229 -0.004548 0.017721 0.000000 0.000000 0.000000
# 4 0.000000 0.000000 0.000000 0.030952 0.000000 0.000000
# 5 0.000000 0.000000 0.000000 0.000000 0.038403 0.000000
# 6 0.000000 0.000000 0.000000 0.000000 0.000000 0.027985
#
#
# Mechanical properties :
#
#
# Convention : Reuss Voigt Hill
#
# Bulk Modulus (GPa) = 73.27493 81.12016 77.19755
# Shear Modulus (GPa) = 30.09161 31.64461 30.86811
#
# Velocity S-wave (km/s) = 3.95967 4.06056 4.01043
# Velocity P-wave (km/s) = 7.68665 8.01568 7.85289
#
# Compressibility (1/GPa) = 0.01364723
#
# Stress axis : x y z
#
# Youngs Moduli (GPa) = 108.74155 83.03962 56.43159
#
# Poissons Ratio (x) = 0.23910 0.29506
# Poissons Ratio (y) = 0.31310 0.25665
# Poissons Ratio (z) = 0.56857 0.37766
#
# Static dielectric constant tensor:
#      x y z
#    x 4.492100 0.000000 0.000000 
#    y 0.000000 3.275140 0.000000 
#    z 0.000000 0.000000 3.635630 
# 
# 
# High freq. dielectric constant tensor:
#      x y z
#    x 1.782850 0.000000 0.000000 
#    y 0.000000 1.724040 0.000000 
#    z 0.000000 0.000000 1.752980 
# 
# From -- ./inp_files/9943.got.cif
#   From: 2010.03.12/outbox.cif.g09.slc.cpg/sg57_5_cif.got.tgz:9943.got - 2010.04.16 15:48:40.
