data_PCOD8231561
_publ_section_title
;
Structure prediction by ZEFSAII (Michael W. Deem and Ramdas Pophale) SiO2 
 PCOD8231561
Probable space group: P B C M
;
_chemical_formula_sum "Si O2"
_cell_formula_units_Z 64
_cell_length_a 19.223577
_cell_length_b 9.318087
_cell_length_c 17.464742
_cell_angle_alpha 90.000000
_cell_angle_beta 90.000000
_cell_angle_gamma 90.000000
_cell_volume 3128.406193
_symmetry_space_group_name_H-M "P B C M"
_symmetry_group_IT_number 57
_symmetry_cell_setting 'orthorhombic'
loop_
_space_group_symop_operation_xyz
x,y,z
-x,-y,1/2+z
x,1/2-y,-z
-x,1/2+y,1/2-z
-x,-y,-z
x,y,1/2-z
-x,1/2+y,z
x,1/2-y,1/2+z
loop_
_atom_site_type_symbol
_atom_site_label
_atom_site_fract_x
_atom_site_fract_y
_atom_site_fract_z
Si Si1 0.163971 0.468579 0.339361
Si Si2 0.459111 0.019182 0.080903
Si Si3 0.826211 0.686559 0.418456
Si Si4 0.424773 0.717300 0.091060
Si Si5 0.677409 0.001174 0.340006
Si Si6 0.947820 0.307017 0.660348
Si Si7 0.045301 0.507336 0.921782
Si Si8 0.674770 0.710220 0.084755
O O1 0.155009 0.457359 0.250000
O O2 0.137087 0.315031 0.370576
O O3 0.242437 0.500049 0.364805
O O4 0.118591 0.601940 0.368823
O O5 0.513150 0.119250 0.125393
O O6 0.384266 0.091806 0.077265
O O7 0.442523 0.872727 0.126665
O O8 0.500000 0.000000 0.000000
O O9 0.811627 0.750000 0.500000
O O10 0.875120 0.547610 0.428820
O O11 0.749185 0.650079 0.381229
O O12 0.354240 0.641088 0.118073
O O13 0.421804 0.750000 0.000000
O O14 0.665913 0.017137 0.250000
O O15 0.645807 0.848831 0.368329
O O16 0.944411 0.265190 0.750000
O O17 0.013703 0.407640 0.644500
O O18 0.952304 0.169204 0.606792
O O19 0.000000 0.500000 0.000000
O O20 0.693749 0.750000 0.000000
#
# Coordination Sequence:
#
# PCOD8231561 Si02
#       8
#     8   8   8   8   8   8   8   8
#     4   9  20  39  61  84 117 155 192 234 287 344
#     4  10  19  33  56  86 115 147 193 246 285 326
#     4  10  21  36  58  85 113 149 190 234 286 345
#     4  10  19  33  56  82 111 152 195 236 285 342
#     4  10  21  39  60  87 122 155 185 235 299 348
#     4  11  23  39  60  84 111 153 199 236 277 341
#     4  12  24  39  58  86 121 151 185 240 298 339
#     4  10  19  36  61  86 113 150 195 235 280 345
#
# _framework density 20.457701
#
# number of rings (size 3 to 8) (size 9 to 14) (size 15 to 20)
#    0.000    1.750    0.000    6.375    0.000    3.000 
#    0.000    4.375    0.000    0.000    0.000    0.000 
#    0.000    0.000    0.000    0.000    0.000    0.000 
#
# Total GULP energy -792838.030596 kJ/mol
# GULP energy per Si atom -12388.094228 kJ/mol
# Density = 2.041114 g / cm^3
# Si number density = 20.457701 Si / 1000 Ang^3
#
#
#
# Elastic Constant Matrix: (Units=GPa)
#
#
# Indices 1 2 3 4 5 6 
#
# 1 104.1184 65.9979 27.0955 0.0000 0.0000 0.0000
# 2 65.9979 147.0378 32.5965 0.0000 0.0000 0.0000
# 3 27.0955 32.5965 43.2404 0.0000 0.0000 0.0000
# 4 0.0000 0.0000 0.0000 33.6435 0.0000 0.0000
# 5 0.0000 0.0000 0.0000 0.0000 35.3526 0.0000
# 6 0.0000 0.0000 0.0000 0.0000 0.0000 61.2327
#
#
#
# Elastic Compliance Matrix: (Units=1/GPa)
#
#
# Indices 1 2 3 4 5 6 
#
# 1 0.014249 -0.005302 -0.004932 0.000000 0.000000 0.000000
# 2 -0.005302 0.010139 -0.004320 0.000000 0.000000 0.000000
# 3 -0.004932 -0.004320 0.029474 0.000000 0.000000 0.000000
# 4 0.000000 0.000000 0.000000 0.029723 0.000000 0.000000
# 5 0.000000 0.000000 0.000000 0.000000 0.028286 0.000000
# 6 0.000000 0.000000 0.000000 0.000000 0.000000 0.016331
#
#
# Mechanical properties :
#
#
# Convention : Reuss Voigt Hill
#
# Bulk Modulus (GPa) = 40.39980 60.64183 50.52081
# Shear Modulus (GPa) = 30.20021 37.29286 33.74654
#
# Velocity S-wave (km/s) = 3.84634 4.27420 4.06590
# Velocity P-wave (km/s) = 6.28622 7.35291 6.84039
#
# Compressibility (1/GPa) = 0.02475260
#
# Stress axis : x y z
#
# Youngs Moduli (GPa) = 70.18117 98.63187 33.92861
#
# Poissons Ratio (x) = 0.52298 0.16732
# Poissons Ratio (y) = 0.37212 0.14659
# Poissons Ratio (z) = 0.34610 0.42613
#
# Static dielectric constant tensor:
#      x y z
#    x 4.313280 0.000000 0.000000 
#    y 0.000000 2.769940 0.000000 
#    z 0.000000 0.000000 3.450580 
# 
# 
# High freq. dielectric constant tensor:
#      x y z
#    x 1.813910 0.000000 0.000000 
#    y 0.000000 1.804100 0.000000 
#    z 0.000000 0.000000 1.773260 
# 
# From -- ./inp_files/25601.got.cif
#   From: 2010.03.12/outbox.cif.g09.slc.cpg/sg57_13_cif.got.tgz:25601.got - 2010.04.16 15:48:40.
