data_PCOD8231554
_publ_section_title
;
Structure prediction by ZEFSAII (Michael W. Deem and Ramdas Pophale) SiO2 
 PCOD8231554
Probable space group: P B C M
;
_chemical_formula_sum "Si O2"
_cell_formula_units_Z 64
_cell_length_a 14.855182
_cell_length_b 10.024407
_cell_length_c 22.147920
_cell_angle_alpha 90.000000
_cell_angle_beta 90.000000
_cell_angle_gamma 90.000000
_cell_volume 3298.144006
_symmetry_space_group_name_H-M "P B C M"
_symmetry_group_IT_number 57
_symmetry_cell_setting 'orthorhombic'
loop_
_space_group_symop_operation_xyz
x,y,z
-x,-y,1/2+z
x,1/2-y,-z
-x,1/2+y,1/2-z
-x,-y,-z
x,y,1/2-z
-x,1/2+y,z
x,1/2-y,1/2+z
loop_
_atom_site_type_symbol
_atom_site_label
_atom_site_fract_x
_atom_site_fract_y
_atom_site_fract_z
Si Si1 0.043927 0.853475 0.381486
Si Si2 0.516638 0.004947 0.394318
Si Si3 0.393650 0.606260 0.504598
Si Si4 0.428972 0.243354 0.321790
Si Si5 0.207196 0.945623 0.450934
Si Si6 0.768334 0.698133 0.369508
Si Si7 0.048390 0.378336 0.683117
Si Si8 0.126337 0.370492 0.044127
O O1 0.141001 0.847657 0.414136
O O2 0.020018 0.705296 0.358898
O O3 0.966768 0.908776 0.424821
O O4 0.047110 0.963957 0.328948
O O5 0.601886 0.038841 0.437849
O O6 0.488240 0.125173 0.350415
O O7 0.437611 0.981931 0.442852
O O8 0.538241 0.880120 0.352099
O O9 0.443138 0.750000 0.500000
O O10 0.291925 0.635688 0.524920
O O11 0.446691 0.248695 0.250000
O O12 0.323095 0.223357 0.333223
O O13 0.242701 0.068655 0.411134
O O14 0.154740 0.998250 0.509070
O O15 0.850022 0.675557 0.323130
O O16 0.793820 0.826671 0.410100
O O17 0.013861 0.353606 0.750000
O O18 0.103974 0.250000 0.000000
#
# Coordination Sequence:
#
# PCOD8231554 Si02
#       8
#     8   8   8   8   8   8   8   8
#     4  10  21  34  55  84 116 150 195 237 284 353
#     4  11  24  41  61  92 117 152 205 241 314 361
#     4  11  22  38  61  86 121 155 192 258 296 368
#     4  12  23  41  65  88 122 157 197 250 299 365
#     4  10  19  33  55  85 116 152 189 235 299 349
#     4   9  19  35  57  86 111 149 202 236 285 353
#     4  10  20  37  57  80 112 154 200 243 279 329
#     4   9  18  33  54  84 119 151 185 236 286 346
#
# _framework density 19.404852999999999
#
# number of rings (size 3 to 8) (size 9 to 14) (size 15 to 20)
#    0.000    1.750    2.500    3.000    0.000    1.500 
#    0.000    0.000    0.000    0.000    0.000    0.000 
#    0.000    0.000    0.000    0.000    0.000    0.000 
#
# Total GULP energy -793372.178870 kJ/mol
# GULP energy per Si atom -12396.440295 kJ/mol
# Density = 1.936069 g / cm^3
# Si number density = 19.404853 Si / 1000 Ang^3
#
#
#
# Elastic Constant Matrix: (Units=GPa)
#
#
# Indices 1 2 3 4 5 6 
#
# 1 99.9461 27.4075 41.5345 0.0000 0.0000 0.0000
# 2 27.4075 78.6715 32.3200 0.0000 0.0000 0.0000
# 3 41.5345 32.3200 123.4448 0.0000 0.0000 0.0000
# 4 0.0000 0.0000 0.0000 23.0683 0.0000 0.0000
# 5 0.0000 0.0000 0.0000 0.0000 17.9742 0.0000
# 6 0.0000 0.0000 0.0000 0.0000 0.0000 16.9924
#
#
#
# Elastic Compliance Matrix: (Units=1/GPa)
#
#
# Indices 1 2 3 4 5 6 
#
# 1 0.012184 -0.002869 -0.003348 0.000000 0.000000 0.000000
# 2 -0.002869 0.014919 -0.002941 0.000000 0.000000 0.000000
# 3 -0.003348 -0.002941 0.009997 0.000000 0.000000 0.000000
# 4 0.000000 0.000000 0.000000 0.043350 0.000000 0.000000
# 5 0.000000 0.000000 0.000000 0.000000 0.055635 0.000000
# 6 0.000000 0.000000 0.000000 0.000000 0.000000 0.058850
#
#
# Mechanical properties :
#
#
# Convention : Reuss Voigt Hill
#
# Bulk Modulus (GPa) = 53.23728 56.06515 54.65121
# Shear Modulus (GPa) = 22.77790 24.99366 23.88578
#
# Velocity S-wave (km/s) = 3.42983 3.59278 3.51225
# Velocity P-wave (km/s) = 6.57112 6.79454 6.68376
#
# Compressibility (1/GPa) = 0.01878383
#
# Stress axis : x y z
#
# Youngs Moduli (GPa) = 82.07806 67.03011 100.02774
#
# Poissons Ratio (x) = 0.19231 0.33491
# Poissons Ratio (y) = 0.23548 0.29415
# Poissons Ratio (z) = 0.27481 0.19711
#
# Static dielectric constant tensor:
#      x y z
#    x 3.463240 0.000000 0.000000 
#    y 0.000000 3.410090 0.000000 
#    z 0.000000 0.000000 3.581250 
# 
# 
# High freq. dielectric constant tensor:
#      x y z
#    x 1.750580 0.000000 0.000000 
#    y 0.000000 1.754110 0.000000 
#    z 0.000000 0.000000 1.755880 
# 
# From -- ./inp_files/27459.got.cif
#   From: 2010.03.12/outbox.cif.g09.slc.cpg/sg57_14_cif.got.tgz:27459.got - 2010.04.16 15:48:40.
