data_PCOD8231926
_publ_section_title
;
Structure prediction by ZEFSAII (Michael W. Deem and Ramdas Pophale) SiO2 
 PCOD8231926
Probable space group: P B C M
;
_chemical_formula_sum "Si O2"
_cell_formula_units_Z 64
_cell_length_a 11.554943
_cell_length_b 18.453719
_cell_length_c 15.702408
_cell_angle_alpha 90.000000
_cell_angle_beta 90.000000
_cell_angle_gamma 90.000000
_cell_volume 3348.250699
_symmetry_space_group_name_H-M "P B C M"
_symmetry_group_IT_number 57
_symmetry_cell_setting 'orthorhombic'
loop_
_space_group_symop_operation_xyz
x,y,z
-x,-y,1/2+z
x,1/2-y,-z
-x,1/2+y,1/2-z
-x,-y,-z
x,y,1/2-z
-x,1/2+y,z
x,1/2-y,1/2+z
loop_
_atom_site_type_symbol
_atom_site_label
_atom_site_fract_x
_atom_site_fract_y
_atom_site_fract_z
Si Si1 0.107723 0.647644 0.153858
Si Si2 0.394623 0.834976 0.350173
Si Si3 0.034899 0.335850 0.003552
Si Si4 0.527094 0.808358 0.649381
Si Si5 0.656239 0.421144 0.651024
Si Si6 0.866005 0.318978 0.152853
Si Si7 0.706303 0.666707 0.019714
Si Si8 0.550595 0.947337 0.070721
O O1 0.071042 0.622886 0.250000
O O2 0.219187 0.604754 0.119435
O O3 0.127955 0.732849 0.153832
O O4 0.013811 0.628061 0.082645
O O5 0.388714 0.825958 0.250000
O O6 0.474234 0.768296 0.384817
O O7 0.262200 0.835852 0.383766
O O8 0.446301 0.912940 0.375188
O O9 0.961853 0.356004 0.089509
O O10 0.032936 0.250000 0.000000
O O11 0.166253 0.365009 0.999585
O O12 0.537717 0.807782 0.750000
O O13 0.442213 0.869825 0.610630
O O14 0.655101 0.831315 0.615961
O O15 0.650786 0.406915 0.750000
O O16 0.634387 0.505018 0.630250
O O17 0.886172 0.348275 0.250000
O O18 0.703139 0.750000 0.000000
O O19 0.622693 0.619980 0.962085
O O20 0.500000 0.000000 0.000000
#
# Coordination Sequence:
#
# PCOD8231926 Si02
#       8
#     8   8   8   8   8   8   8   8
#     4   9  17  33  58  84 111 143 188 241 287 336
#     4  10  20  36  59  86 113 146 191 241 291 341
#     4   9  20  34  55  84 114 149 192 234 286 331
#     4  10  19  35  60  85 113 148 183 233 292 341
#     4  10  20  36  56  84 116 146 185 234 288 349
#     4   9  17  33  58  88 113 141 191 246 288 334
#     4  11  22  40  55  82 120 151 190 236 276 350
#     4  12  24  35  55  84 116 154 188 230 295 344
#
# _framework density 19.114459
#
# number of rings (size 3 to 8) (size 9 to 14) (size 15 to 20)
#    0.000    2.000    3.750    0.375    1.750    0.500 
#    2.250    3.750    0.000    0.000    0.000    0.000 
#    0.000    0.000    0.000    0.000    0.000    0.000 
#
# Total GULP energy -792865.073205 kJ/mol
# GULP energy per Si atom -12388.516769 kJ/mol
# Density = 1.907095 g / cm^3
# Si number density = 19.114459 Si / 1000 Ang^3
#
#
#
# Elastic Constant Matrix: (Units=GPa)
#
#
# Indices 1 2 3 4 5 6 
#
# 1 136.7866 24.8523 53.1386 0.0000 0.0000 0.0000
# 2 24.8523 55.2520 10.3083 0.0000 0.0000 0.0000
# 3 53.1386 10.3083 61.2064 0.0000 0.0000 0.0000
# 4 0.0000 0.0000 0.0000 23.1315 0.0000 0.0000
# 5 0.0000 0.0000 0.0000 0.0000 27.1650 0.0000
# 6 0.0000 0.0000 0.0000 0.0000 0.0000 48.5520
#
#
#
# Elastic Compliance Matrix: (Units=1/GPa)
#
#
# Indices 1 2 3 4 5 6 
#
# 1 0.011638 -0.003458 -0.009521 0.000000 0.000000 0.000000
# 2 -0.003458 0.019714 -0.000318 0.000000 0.000000 0.000000
# 3 -0.009521 -0.000318 0.024658 0.000000 0.000000 0.000000
# 4 0.000000 0.000000 0.000000 0.043231 0.000000 0.000000
# 5 0.000000 0.000000 0.000000 0.000000 0.036812 0.000000
# 6 0.000000 0.000000 0.000000 0.000000 0.000000 0.020596
#
#
# Mechanical properties :
#
#
# Convention : Reuss Voigt Hill
#
# Bulk Modulus (GPa) = 33.99651 47.76038 40.87844
# Shear Modulus (GPa) = 25.90018 30.76609 28.33313
#
# Velocity S-wave (km/s) = 3.68503 4.01630 3.85423
# Velocity P-wave (km/s) = 5.99419 6.82263 6.42178
#
# Compressibility (1/GPa) = 0.02941479
#
# Stress axis : x y z
#
# Youngs Moduli (GPa) = 85.92669 50.72613 40.55480
#
# Poissons Ratio (x) = 0.17543 0.38614
# Poissons Ratio (y) = 0.29716 0.01288
# Poissons Ratio (z) = 0.81814 0.01612
#
# Static dielectric constant tensor:
#      x y z
#    x 4.120690 0.000000 0.000000 
#    y 0.000000 3.668470 0.000000 
#    z 0.000000 0.000000 3.602840 
# 
# 
# High freq. dielectric constant tensor:
#      x y z
#    x 1.742080 0.000000 0.000000 
#    y 0.000000 1.717940 0.000000 
#    z 0.000000 0.000000 1.744130 
# 
# From -- ./inp_files/18009.got.cif
#   From: 2010.03.12/outbox.cif.g09.slc.cpg/sg57_10_cif.got.tgz:18009.got - 2010.04.16 15:48:40.
