data_PCOD8231676
_publ_section_title
;
Structure prediction by ZEFSAII (Michael W. Deem and Ramdas Pophale) SiO2 
 PCOD8231676
Probable space group: P B C M
;
_chemical_formula_sum "Si O2"
_cell_formula_units_Z 40
_cell_length_a 15.221986
_cell_length_b 7.717970
_cell_length_c 16.107563
_cell_angle_alpha 90.000000
_cell_angle_beta 90.000000
_cell_angle_gamma 90.000000
_cell_volume 1892.362106
_symmetry_space_group_name_H-M "P B C M"
_symmetry_group_IT_number 57
_symmetry_cell_setting 'orthorhombic'
loop_
_space_group_symop_operation_xyz
x,y,z
-x,-y,1/2+z
x,1/2-y,-z
-x,1/2+y,1/2-z
-x,-y,-z
x,y,1/2-z
-x,1/2+y,z
x,1/2-y,1/2+z
loop_
_atom_site_type_symbol
_atom_site_label
_atom_site_fract_x
_atom_site_fract_y
_atom_site_fract_z
Si Si1 0.554881 0.115972 0.938871
Si Si2 0.785037 0.660069 0.848707
Si Si3 0.900133 0.348518 0.848897
Si Si4 0.090800 0.462815 0.651000
Si Si5 0.602166 0.701999 0.152075
O O1 0.489184 0.217885 0.877521
O O2 0.617640 0.992384 0.884627
O O3 0.607054 0.250000 0.000000
O O4 0.500000 0.000000 0.000000
O O5 0.791341 0.663390 0.750000
O O6 0.824384 0.478585 0.882440
O O7 0.683798 0.678799 0.877535
O O8 0.840702 0.822053 0.884498
O O9 0.900914 0.348608 0.750000
O O10 0.882480 0.154009 0.882113
O O11 0.993843 0.416181 0.881933
O O12 0.091176 0.460871 0.750000
O O13 0.599927 0.683761 0.250000
#
# Coordination Sequence:
#
# PCOD8231676 Si02
#       5
#     8   8   8   8   8
#     4   9  19  37  58  75 101 142 182 215 268 345
#     4   9  17  27  40  67 103 135 172 220 269 319
#     4   9  14  22  37  57  91 141 180 205 253 323
#     4   9  14  22  37  57  91 141 180 205 252 322
#     4  10  19  34  55  82 111 136 174 233 287 324
#
# _framework density 21.137602000000001
#
# number of rings (size 3 to 8) (size 9 to 14) (size 15 to 20)
#    0.000    2.800    2.000    0.600    0.000    0.000 
#    7.200    0.000    0.000    0.000    0.000    0.000 
#    0.000   20.800    0.000    0.000    0.000    0.000 
#
# Total GULP energy -495643.289892 kJ/mol
# GULP energy per Si atom -12391.082247 kJ/mol
# Density = 2.108949 g / cm^3
# Si number density = 21.137602 Si / 1000 Ang^3
#
#
#
# Elastic Constant Matrix: (Units=GPa)
#
#
# Indices 1 2 3 4 5 6 
#
# 1 47.5696 3.5591 -1.4117 0.0000 0.0000 0.0000
# 2 3.5591 117.6108 4.0870 0.0000 0.0000 0.0000
# 3 -1.4117 4.0870 34.0996 0.0000 0.0000 0.0000
# 4 0.0000 0.0000 0.0000 17.8817 0.0000 0.0000
# 5 0.0000 0.0000 0.0000 0.0000 4.0325 0.0000
# 6 0.0000 0.0000 0.0000 0.0000 0.0000 34.0997
#
#
#
# Elastic Compliance Matrix: (Units=1/GPa)
#
#
# Indices 1 2 3 4 5 6 
#
# 1 0.021100 -0.000672 0.000954 0.000000 0.000000 0.000000
# 2 -0.000672 0.008560 -0.001054 0.000000 0.000000 0.000000
# 3 0.000954 -0.001054 0.029492 0.000000 0.000000 0.000000
# 4 0.000000 0.000000 0.000000 0.055923 0.000000 0.000000
# 5 0.000000 0.000000 0.000000 0.000000 0.247986 0.000000
# 6 0.000000 0.000000 0.000000 0.000000 0.000000 0.029326
#
#
# Mechanical properties :
#
#
# Convention : Reuss Voigt Hill
#
# Bulk Modulus (GPa) = 17.35842 23.52762 20.44302
# Shear Modulus (GPa) = 12.10266 24.07248 18.08757
#
# Velocity S-wave (km/s) = 2.39543 3.37834 2.92842
# Velocity P-wave (km/s) = 3.98506 5.13541 4.59637
#
# Compressibility (1/GPa) = 0.05760895
#
# Stress axis : x y z
#
# Youngs Moduli (GPa) = 47.39247 116.82835 33.90791
#
# Poissons Ratio (x) = 0.07847 -0.03235
# Poissons Ratio (y) = 0.03183 0.03573
# Poissons Ratio (z) = -0.04522 0.12310
#
# Static dielectric constant tensor:
#      x y z
#    x 3.329320 0.000000 0.000000 
#    y 0.000000 4.774540 0.000000 
#    z 0.000000 0.000000 3.429460 
# 
# 
# High freq. dielectric constant tensor:
#      x y z
#    x 1.802720 0.000000 0.000000 
#    y 0.000000 1.848590 0.000000 
#    z 0.000000 0.000000 1.782160 
# 
# From -- ./inp_files/18243.got.cif
#   From: 2010.03.12/outbox.cif.g09.slc.cpg/sg57_10_cif.got.tgz:18243.got - 2010.04.16 15:48:40.
