data_PCOD8231787
_publ_section_title
;
Structure prediction by ZEFSAII (Michael W. Deem and Ramdas Pophale) SiO2 
 PCOD8231787
Probable space group: P B C M
;
_chemical_formula_sum "Si O2"
_cell_formula_units_Z 60
_cell_length_a 18.166272
_cell_length_b 9.169303
_cell_length_c 18.120840
_cell_angle_alpha 90.000000
_cell_angle_beta 90.000000
_cell_angle_gamma 90.000000
_cell_volume 3018.425509
_symmetry_space_group_name_H-M "P B C M"
_symmetry_group_IT_number 57
_symmetry_cell_setting 'orthorhombic'
loop_
_space_group_symop_operation_xyz
x,y,z
-x,-y,1/2+z
x,1/2-y,-z
-x,1/2+y,1/2-z
-x,-y,-z
x,y,1/2-z
-x,1/2+y,z
x,1/2-y,1/2+z
loop_
_atom_site_type_symbol
_atom_site_label
_atom_site_fract_x
_atom_site_fract_y
_atom_site_fract_z
Si Si1 0.419686 0.638681 0.377509
Si Si2 0.848716 0.359433 0.837197
Si Si3 0.677477 0.250000 0.000000
Si Si4 0.710578 0.960698 0.331392
Si Si5 0.200006 0.920855 0.085907
Si Si6 0.557933 0.028399 0.835594
Si Si7 0.296213 0.361219 0.662462
Si Si8 0.928998 0.412501 0.522540
O O1 0.377282 0.643694 0.455323
O O2 0.364220 0.552744 0.323993
O O3 0.438072 0.798666 0.346992
O O4 0.493505 0.543305 0.384504
O O5 0.866483 0.379040 0.750000
O O6 0.775623 0.443023 0.866643
O O7 0.837124 0.189060 0.855295
O O8 0.914428 0.422554 0.888818
O O9 0.727204 0.151613 0.947644
O O10 0.738587 0.923632 0.250000
O O11 0.698152 0.803471 0.370323
O O12 0.143153 0.965911 0.021821
O O13 0.223005 0.066651 0.128689
O O14 0.541700 0.994390 0.750000
O O15 0.632875 0.953349 0.862567
O O16 0.290238 0.364885 0.750000
O O17 0.946882 0.250000 0.500000
O O18 0.000000 0.500000 0.500000
#
# Coordination Sequence:
#
# PCOD8231787 Si02
#       8
#     8   8   4   8   8   8   8   8
#     4  12  23  38  58  83 118 160 205 256 312 371
#     4  10  19  36  63  90 118 159 208 256 304 359
#     4  12  22  40  64  86 120 156 212 252 306 382
#     4  10  19  34  58  88 118 149 198 257 309 360
#     4  11  19  41  65  89 121 162 208 253 307 383
#     4  11  22  37  57  81 111 152 203 256 315 364
#     4  10  21  36  58  91 120 154 207 263 313 369
#     4  10  22  40  63  90 127 164 204 245 310 384
#
# _framework density 19.877911999999998
#
# number of rings (size 3 to 8) (size 9 to 14) (size 15 to 20)
#    0.000    1.333    4.667    2.400    0.000    4.800 
#    0.000    5.333    0.000    0.000    0.000    0.000 
#    0.000    0.000    0.000    0.000    0.000    0.000 
#
# Total GULP energy -743782.259810 kJ/mol
# GULP energy per Si atom -12396.370997 kJ/mol
# Density = 1.983267 g / cm^3
# Si number density = 19.877912 Si / 1000 Ang^3
#
#
#
# Elastic Constant Matrix: (Units=GPa)
#
#
# Indices 1 2 3 4 5 6 
#
# 1 119.3787 58.0179 56.9531 0.0000 0.0000 0.0000
# 2 58.0179 113.6853 25.3364 0.0000 0.0000 0.0000
# 3 56.9531 25.3364 88.5053 0.0000 0.0000 0.0000
# 4 0.0000 0.0000 0.0000 21.3300 0.0000 0.0000
# 5 0.0000 0.0000 0.0000 0.0000 28.7275 0.0000
# 6 0.0000 0.0000 0.0000 0.0000 0.0000 38.8229
#
#
#
# Elastic Compliance Matrix: (Units=1/GPa)
#
#
# Indices 1 2 3 4 5 6 
#
# 1 0.015065 -0.005904 -0.008004 0.000000 0.000000 0.000000
# 2 -0.005904 0.011710 0.000447 0.000000 0.000000 0.000000
# 3 -0.008004 0.000447 0.016321 0.000000 0.000000 0.000000
# 4 0.000000 0.000000 0.000000 0.046882 0.000000 0.000000
# 5 0.000000 0.000000 0.000000 0.000000 0.034810 0.000000
# 6 0.000000 0.000000 0.000000 0.000000 0.000000 0.025758
#
#
# Mechanical properties :
#
#
# Convention : Reuss Voigt Hill
#
# Bulk Modulus (GPa) = 61.82842 66.90932 64.36887
# Shear Modulus (GPa) = 27.34351 29.86022 28.60186
#
# Velocity S-wave (km/s) = 3.71289 3.88000 3.79737
# Velocity P-wave (km/s) = 7.03935 7.33524 7.18882
#
# Compressibility (1/GPa) = 0.01617379
#
# Stress axis : x y z
#
# Youngs Moduli (GPa) = 66.38058 85.39925 61.26998
#
# Poissons Ratio (x) = 0.50422 0.49040
# Poissons Ratio (y) = 0.39193 -0.02740
# Poissons Ratio (z) = 0.53130 -0.03820
#
# Static dielectric constant tensor:
#      x y z
#    x 3.513550 0.000000 0.000000 
#    y 0.000000 3.854880 0.000000 
#    z 0.000000 0.000000 3.564350 
# 
# 
# High freq. dielectric constant tensor:
#      x y z
#    x 1.764260 0.000000 0.000000 
#    y 0.000000 1.777510 0.000000 
#    z 0.000000 0.000000 1.767630 
# 
# From -- ./inp_files/22878.got.cif
#   From: 2010.03.12/outbox.cif.g09.slc.cpg/sg57_12_cif.got.tgz:22878.got - 2010.04.16 15:48:40.
