data_PCOD8231874
_publ_section_title
;
Structure prediction by ZEFSAII (Michael W. Deem and Ramdas Pophale) SiO2 
 PCOD8231874
Probable space group: P B C M
;
_chemical_formula_sum "Si O2"
_cell_formula_units_Z 64
_cell_length_a 5.298964
_cell_length_b 20.774188
_cell_length_c 29.827398
_cell_angle_alpha 90.000000
_cell_angle_beta 90.000000
_cell_angle_gamma 90.000000
_cell_volume 3283.449913
_symmetry_space_group_name_H-M "P B C M"
_symmetry_group_IT_number 57
_symmetry_cell_setting 'orthorhombic'
loop_
_space_group_symop_operation_xyz
x,y,z
-x,-y,1/2+z
x,1/2-y,-z
-x,1/2+y,1/2-z
-x,-y,-z
x,y,1/2-z
-x,1/2+y,z
x,1/2-y,1/2+z
loop_
_atom_site_type_symbol
_atom_site_label
_atom_site_fract_x
_atom_site_fract_y
_atom_site_fract_z
Si Si1 0.452336 0.070417 0.553115
Si Si2 0.823064 0.593783 0.411061
Si Si3 0.467221 0.884995 0.300926
Si Si4 0.222077 0.533947 0.631565
Si Si5 0.860204 0.718707 0.147311
Si Si6 0.309555 0.935878 0.964094
Si Si7 0.166543 0.357477 0.119173
Si Si8 0.344408 0.742988 0.300872
O O1 0.548075 0.033453 0.597240
O O2 0.653795 0.090235 0.515068
O O3 0.326923 0.134990 0.573130
O O4 0.272511 0.013887 0.532668
O O5 0.886620 0.538469 0.373163
O O6 0.821858 0.661694 0.387003
O O7 0.555449 0.585458 0.435577
O O8 0.052333 0.595089 0.446305
O O9 0.559867 0.897578 0.250000
O O10 0.308175 0.947417 0.317797
O O11 0.702747 0.875161 0.333566
O O12 0.296816 0.820284 0.303496
O O13 0.052984 0.591392 0.612773
O O14 0.920373 0.783778 0.119677
O O15 0.605207 0.724483 0.175650
O O16 0.104872 0.706137 0.178242
O O17 0.368088 0.719821 0.250000
#
# Coordination Sequence:
#
# PCOD8231874 Si02
#       8
#     8   8   8   8   8   8   8   8
#     4   9  20  34  60  86 113 144 199 241 285 340
#     4  11  23  38  59  84 120 154 193 232 297 348
#     4   9  19  34  55  86 114 143 189 242 287 336
#     4  10  19  35  59  83 112 150 188 238 288 341
#     4  11  22  38  59  83 117 155 190 237 292 352
#     4  10  21  37  60  87 113 153 193 242 284 346
#     4  10  19  35  58  82 112 153 193 237 289 342
#     4  10  20  37  61  85 108 149 200 239 277 338
#
# _framework density 19.491693999999999
#
# number of rings (size 3 to 8) (size 9 to 14) (size 15 to 20)
#    0.000    2.000    2.500    1.125    1.750    2.500 
#    0.000    1.875    0.000    0.000    0.000    0.000 
#    0.000    0.000    0.000    0.000    0.000    0.000 
#
# Total GULP energy -792952.233656 kJ/mol
# GULP energy per Si atom -12389.878651 kJ/mol
# Density = 1.944733 g / cm^3
# Si number density = 19.491694 Si / 1000 Ang^3
#
#
#
# Elastic Constant Matrix: (Units=GPa)
#
#
# Indices 1 2 3 4 5 6 
#
# 1 73.4038 10.2438 9.3247 0.0000 0.0000 0.0000
# 2 10.2438 85.8294 29.0927 0.0000 0.0000 0.0000
# 3 9.3247 29.0927 87.5570 0.0000 0.0000 0.0000
# 4 0.0000 0.0000 0.0000 24.2325 0.0000 0.0000
# 5 0.0000 0.0000 0.0000 0.0000 25.4231 0.0000
# 6 0.0000 0.0000 0.0000 0.0000 0.0000 17.6885
#
#
#
# Elastic Compliance Matrix: (Units=1/GPa)
#
#
# Indices 1 2 3 4 5 6 
#
# 1 0.013939 -0.001308 -0.001050 0.000000 0.000000 0.000000
# 2 -0.001308 0.013252 -0.004264 0.000000 0.000000 0.000000
# 3 -0.001050 -0.004264 0.012950 0.000000 0.000000 0.000000
# 4 0.000000 0.000000 0.000000 0.041267 0.000000 0.000000
# 5 0.000000 0.000000 0.000000 0.000000 0.039334 0.000000
# 6 0.000000 0.000000 0.000000 0.000000 0.000000 0.056534
#
#
# Mechanical properties :
#
#
# Convention : Reuss Voigt Hill
#
# Bulk Modulus (GPa) = 37.17791 38.23474 37.70633
# Shear Modulus (GPa) = 25.06436 26.67740 25.87088
#
# Velocity S-wave (km/s) = 3.58983 3.70355 3.64713
# Velocity P-wave (km/s) = 6.02476 6.16010 6.09280
#
# Compressibility (1/GPa) = 0.02689769
#
# Stress axis : x y z
#
# Youngs Moduli (GPa) = 71.74038 75.45764 77.22126
#
# Poissons Ratio (x) = 0.09868 0.08108
# Poissons Ratio (y) = 0.09382 0.32928
# Poissons Ratio (z) = 0.07533 0.32176
#
# Static dielectric constant tensor:
#      x y z
#    x 3.529460 0.000000 0.000000 
#    y 0.000000 3.610560 0.000000 
#    z 0.000000 0.000000 3.684230 
# 
# 
# High freq. dielectric constant tensor:
#      x y z
#    x 1.758970 0.000000 0.000000 
#    y 0.000000 1.734290 0.000000 
#    z 0.000000 0.000000 1.758940 
# 
# From -- ./inp_files/28137.got.cif
#   From: 2010.03.12/outbox.cif.g09.slc.cpg/sg57_15_cif.got.tgz:28137.got - 2010.04.16 15:48:40.
