data_PCOD8232551
_publ_section_title
;
Structure prediction by ZEFSAII (Michael W. Deem and Ramdas Pophale) SiO2 
 PCOD8232551
Probable space group: P B C M
;
_chemical_formula_sum "Si O2"
_cell_formula_units_Z 64
_cell_length_a 20.454320
_cell_length_b 19.645797
_cell_length_c 8.837192
_cell_angle_alpha 90.000000
_cell_angle_beta 90.000000
_cell_angle_gamma 90.000000
_cell_volume 3551.149769
_symmetry_space_group_name_H-M "P B C M"
_symmetry_group_IT_number 57
_symmetry_cell_setting 'orthorhombic'
loop_
_space_group_symop_operation_xyz
x,y,z
-x,-y,1/2+z
x,1/2-y,-z
-x,1/2+y,1/2-z
-x,-y,-z
x,y,1/2-z
-x,1/2+y,z
x,1/2-y,1/2+z
loop_
_atom_site_type_symbol
_atom_site_label
_atom_site_fract_x
_atom_site_fract_y
_atom_site_fract_z
Si Si1 0.676796 0.538861 0.923831
Si Si2 0.012412 0.682174 0.926445
Si Si3 0.127983 0.320309 0.569870
Si Si4 0.175308 0.454082 0.425405
Si Si5 0.561237 0.037595 0.572343
Si Si6 0.370761 0.182615 0.572731
Si Si7 0.938007 0.464170 0.073986
Si Si8 0.519261 0.182751 0.572909
O O1 0.653868 0.533399 0.750000
O O2 0.751718 0.516409 0.944492
O O3 0.669640 0.616704 0.979872
O O4 0.631011 0.490510 0.021785
O O5 0.997423 0.695293 0.750000
O O6 0.059493 0.617415 0.948414
O O7 0.045061 0.750000 0.000000
O O8 0.945362 0.666446 0.012879
O O9 0.155545 0.250000 0.500000
O O10 0.129595 0.316420 0.750000
O O11 0.171734 0.382577 0.512450
O O12 0.157510 0.441981 0.250000
O O13 0.127589 0.510234 0.495016
O O14 0.553259 0.029406 0.750000
O O15 0.560209 0.116708 0.523546
O O16 0.500000 0.000000 0.500000
O O17 0.338832 0.250000 0.500000
O O18 0.367439 0.192406 0.750000
O O19 0.445008 0.173115 0.514596
O O20 0.936712 0.483953 0.250000
O O21 0.000000 0.500000 0.000000
O O22 0.551382 0.250000 0.500000
O O23 0.520206 0.193207 0.750000
#
# Coordination Sequence:
#
# PCOD8232551 Si02
#       8
#     8   8   8   8   8   8   8   8
#     4  10  22  39  55  77 111 148 184 229 276 326
#     4  10  20  34  55  83 112 141 179 227 280 329
#     4  11  21  34  54  78 111 149 188 228 272 328
#     4  11  23  38  56  79 112 150 189 231 280 331
#     4  11  21  35  57  83 110 142 183 228 274 326
#     4   9  17  32  50  73 107 141 180 220 263 316
#     4  11  22  36  58  84 112 145 185 230 277 330
#     4   9  18  32  52  79 109 138 174 221 269 318
#
# _framework density 18.022331999999999
#
# number of rings (size 3 to 8) (size 9 to 14) (size 15 to 20)
#    0.000    1.750    2.500    3.375    0.000    4.500 
#    0.000    1.250    0.000    0.750    0.000    0.000 
#    0.000    0.000    0.000    0.000    0.000    0.000 
#
# Total GULP energy -793662.927348 kJ/mol
# GULP energy per Si atom -12400.983240 kJ/mol
# Density = 1.798131 g / cm^3
# Si number density = 18.022332 Si / 1000 Ang^3
#
#
#
# Elastic Constant Matrix: (Units=GPa)
#
#
# Indices 1 2 3 4 5 6 
#
# 1 82.5093 55.1962 42.9315 0.0000 0.0000 0.0000
# 2 55.1962 128.5429 61.3175 0.0000 0.0000 0.0000
# 3 42.9315 61.3175 109.8823 0.0000 0.0000 0.0000
# 4 0.0000 0.0000 0.0000 35.1213 0.0000 0.0000
# 5 0.0000 0.0000 0.0000 0.0000 24.9030 0.0000
# 6 0.0000 0.0000 0.0000 0.0000 0.0000 25.1251
#
#
#
# Elastic Compliance Matrix: (Units=1/GPa)
#
#
# Indices 1 2 3 4 5 6 
#
# 1 0.018054 -0.005979 -0.003717 0.000000 0.000000 0.000000
# 2 -0.005979 0.012582 -0.004685 0.000000 0.000000 0.000000
# 3 -0.003717 -0.004685 0.013167 0.000000 0.000000 0.000000
# 4 0.000000 0.000000 0.000000 0.028473 0.000000 0.000000
# 5 0.000000 0.000000 0.000000 0.000000 0.040156 0.000000
# 6 0.000000 0.000000 0.000000 0.000000 0.000000 0.039801
#
#
# Mechanical properties :
#
#
# Convention : Reuss Voigt Hill
#
# Bulk Modulus (GPa) = 66.48756 71.09168 68.78962
# Shear Modulus (GPa) = 26.88056 27.79584 27.33820
#
# Velocity S-wave (km/s) = 3.86620 3.93147 3.89897
# Velocity P-wave (km/s) = 7.54333 7.75504 7.64992
#
# Compressibility (1/GPa) = 0.01504041
#
# Stress axis : x y z
#
# Youngs Moduli (GPa) = 55.38990 79.48032 75.94586
#
# Poissons Ratio (x) = 0.47522 0.28230
# Poissons Ratio (y) = 0.33118 0.35580
# Poissons Ratio (z) = 0.20589 0.37236
#
# Static dielectric constant tensor:
#      x y z
#    x 3.134610 0.000000 0.000000 
#    y 0.000000 3.361960 0.000000 
#    z 0.000000 0.000000 3.410020 
# 
# 
# High freq. dielectric constant tensor:
#      x y z
#    x 1.666540 0.000000 0.000000 
#    y 0.000000 1.705620 0.000000 
#    z 0.000000 0.000000 1.708240 
# 
# From -- ./inp_files/7209.got.cif
#   From: 2010.03.12/outbox.cif.g09.slc.cpg/sg57_4_cif.got.tgz:7209.got - 2010.04.16 15:48:40.
