data_PCOD8232602
_publ_section_title
;
Structure prediction by ZEFSAII (Michael W. Deem and Ramdas Pophale) SiO2 
 PCOD8232602
Probable space group: P B C M
;
_chemical_formula_sum "Si O2"
_cell_formula_units_Z 40
_cell_length_a 16.414454
_cell_length_b 4.914879
_cell_length_c 24.736559
_cell_angle_alpha 90.000000
_cell_angle_beta 90.000000
_cell_angle_gamma 90.000000
_cell_volume 1995.623264
_symmetry_space_group_name_H-M "P B C M"
_symmetry_group_IT_number 57
_symmetry_cell_setting 'orthorhombic'
loop_
_space_group_symop_operation_xyz
x,y,z
-x,-y,1/2+z
x,1/2-y,-z
-x,1/2+y,1/2-z
-x,-y,-z
x,y,1/2-z
-x,1/2+y,z
x,1/2-y,1/2+z
loop_
_atom_site_type_symbol
_atom_site_label
_atom_site_fract_x
_atom_site_fract_y
_atom_site_fract_z
Si Si1 0.692376 0.797708 0.688100
Si Si2 0.304593 0.007387 0.964378
Si Si3 0.223522 0.688579 0.141055
Si Si4 0.054036 0.785162 0.687965
Si Si5 0.444651 0.114471 0.886021
O O1 0.685200 0.887307 0.750000
O O2 0.759647 0.561186 0.681898
O O3 0.606105 0.677564 0.668239
O O4 0.716425 0.060285 0.652883
O O5 0.384721 0.140210 0.937157
O O6 0.238758 0.912105 0.919982
O O7 0.264999 0.250000 0.000000
O O8 0.330231 0.750000 0.000000
O O9 0.130171 0.777736 0.149017
O O10 0.083036 0.751156 0.750000
O O11 0.979908 0.583025 0.675362
O O12 0.522736 0.307611 0.887404
#
# Coordination Sequence:
#
# PCOD8232602 Si02
#       5
#     8   8   8   8   8
#     4  11  22  37  59  84 115 157 193 227 282 350
#     4  11  23  40  61  83 109 151 202 249 297 338
#     4  11  22  39  60  85 118 151 194 239 278 343
#     4  10  20  34  57  89 120 149 180 222 282 342
#     4  11  23  38  56  84 115 144 189 242 291 343
#
# _framework density 20.043865
#
# number of rings (size 3 to 8) (size 9 to 14) (size 15 to 20)
#    0.000    1.200    0.000    9.000    0.000    4.800 
#    0.000    0.000    0.000    3.600    0.000    0.000 
#    0.000    0.000    0.000    0.000    0.000    0.000 
#
# Total GULP energy -496155.631767 kJ/mol
# GULP energy per Si atom -12403.890794 kJ/mol
# Density = 1.999824 g / cm^3
# Si number density = 20.043865 Si / 1000 Ang^3
#
#
#
# Elastic Constant Matrix: (Units=GPa)
#
#
# Indices 1 2 3 4 5 6 
#
# 1 101.4878 19.3608 47.3933 0.0000 0.0000 0.0000
# 2 19.3608 101.9537 32.1559 0.0000 0.0000 0.0000
# 3 47.3933 32.1559 105.0849 0.0000 0.0000 0.0000
# 4 0.0000 0.0000 0.0000 33.5709 0.0000 0.0000
# 5 0.0000 0.0000 0.0000 0.0000 17.7605 0.0000
# 6 0.0000 0.0000 0.0000 0.0000 0.0000 27.6435
#
#
#
# Elastic Compliance Matrix: (Units=1/GPa)
#
#
# Indices 1 2 3 4 5 6 
#
# 1 0.012522 -0.000660 -0.005445 0.000000 0.000000 0.000000
# 2 -0.000660 0.010891 -0.003035 0.000000 0.000000 0.000000
# 3 -0.005445 -0.003035 0.012901 0.000000 0.000000 0.000000
# 4 0.000000 0.000000 0.000000 0.029788 0.000000 0.000000
# 5 0.000000 0.000000 0.000000 0.000000 0.056305 0.000000
# 6 0.000000 0.000000 0.000000 0.000000 0.000000 0.036175
#
#
# Mechanical properties :
#
#
# Convention : Reuss Voigt Hill
#
# Bulk Modulus (GPa) = 55.45527 56.26072 55.85799
# Shear Modulus (GPa) = 27.34129 29.76940 28.55534
#
# Velocity S-wave (km/s) = 3.69734 3.85803 3.77854
# Velocity P-wave (km/s) = 6.77895 6.92644 6.85309
#
# Compressibility (1/GPa) = 0.01803255
#
# Stress axis : x y z
#
# Youngs Moduli (GPa) = 79.85712 91.81933 77.51537
#
# Poissons Ratio (x) = 0.06064 0.42211
# Poissons Ratio (y) = 0.05274 0.23524
# Poissons Ratio (z) = 0.43486 0.27865
#
# Static dielectric constant tensor:
#      x y z
#    x 3.394060 0.000000 0.000000 
#    y 0.000000 3.818070 0.000000 
#    z 0.000000 0.000000 3.535840 
# 
# 
# High freq. dielectric constant tensor:
#      x y z
#    x 1.765910 0.000000 0.000000 
#    y 0.000000 1.806750 0.000000 
#    z 0.000000 0.000000 1.768320 
# 
# From -- ./inp_files/27349.got.cif
#   From: 2010.03.12/outbox.cif.g09.slc.cpg/sg57_14_cif.got.tgz:27349.got - 2010.04.16 15:48:40.
