data_PCOD8232225
_publ_section_title
;
Structure prediction by ZEFSAII (Michael W. Deem and Ramdas Pophale) SiO2 
 PCOD8232225
Probable space group: P B C M
;
_chemical_formula_sum "Si O2"
_cell_formula_units_Z 48
_cell_length_a 31.023400
_cell_length_b 9.843097
_cell_length_c 8.678006
_cell_angle_alpha 90.000000
_cell_angle_beta 90.000000
_cell_angle_gamma 90.000000
_cell_volume 2649.970891
_symmetry_space_group_name_H-M "P B C M"
_symmetry_group_IT_number 57
_symmetry_cell_setting 'orthorhombic'
loop_
_space_group_symop_operation_xyz
x,y,z
-x,-y,1/2+z
x,1/2-y,-z
-x,1/2+y,1/2-z
-x,-y,-z
x,y,1/2-z
-x,1/2+y,z
x,1/2-y,1/2+z
loop_
_atom_site_type_symbol
_atom_site_label
_atom_site_fract_x
_atom_site_fract_y
_atom_site_fract_z
Si Si1 0.965709 0.101288 0.430725
Si Si2 0.534238 0.896623 0.566275
Si Si3 0.870837 0.398508 0.570626
Si Si4 0.211712 0.602837 0.927079
Si Si5 0.374006 0.394816 0.067316
Si Si6 0.693011 0.100055 0.569406
O O1 0.972135 0.250000 0.500000
O O2 0.972944 0.113697 0.250000
O O3 0.917953 0.039568 0.468719
O O4 0.000000 0.000000 0.500000
O O5 0.522237 0.750000 0.500000
O O6 0.532989 0.894197 0.750000
O O7 0.581269 0.942011 0.508766
O O8 0.500000 0.000000 0.500000
O O9 0.869934 0.250000 0.500000
O O10 0.863956 0.388848 0.750000
O O11 0.829128 0.479886 0.501548
O O12 0.201003 0.618363 0.750000
O O13 0.258803 0.536380 0.953441
O O14 0.214406 0.750000 0.000000
O O15 0.379774 0.383091 0.250000
O O16 0.359372 0.250000 0.000000
O O17 0.338475 0.504964 0.025908
O O18 0.689334 0.250000 0.500000
O O19 0.680824 0.104031 0.750000
#
# Coordination Sequence:
#
# PCOD8232225 Si02
#       6
#     8   8   8   8   8   8
#     4  10  20  33  50  73 100 132 168 209 254 305
#     4  11  22  39  60  84 111 141 177 218 261 308
#     4   9  16  26  43  67  95 126 163 203 248 299
#     4   9  16  26  44  69  99 130 163 205 253 298
#     4  11  22  38  58  80 107 143 179 214 258 310
#     4  10  20  34  52  79 109 138 173 215 259 304
#
# _framework density 18.113406000000001
#
# number of rings (size 3 to 8) (size 9 to 14) (size 15 to 20)
#    0.000    2.000    0.000    7.000    0.000    4.667 
#    0.000    3.333    0.000    1.000    0.000    7.000 
#    0.000    0.000    0.000    0.000    0.000    0.000 
#
# Total GULP energy -594811.058260 kJ/mol
# GULP energy per Si atom -12391.897047 kJ/mol
# Density = 1.807218 g / cm^3
# Si number density = 18.113406 Si / 1000 Ang^3
#
#
#
# Elastic Constant Matrix: (Units=GPa)
#
#
# Indices 1 2 3 4 5 6 
#
# 1 158.5721 69.9610 74.3664 0.0000 0.0000 0.0000
# 2 69.9610 63.0120 41.9320 0.0000 0.0000 0.0000
# 3 74.3664 41.9320 147.2440 0.0000 0.0000 0.0000
# 4 0.0000 0.0000 0.0000 26.9338 0.0000 0.0000
# 5 0.0000 0.0000 0.0000 0.0000 35.6397 0.0000
# 6 0.0000 0.0000 0.0000 0.0000 0.0000 30.1971
#
#
#
# Elastic Compliance Matrix: (Units=1/GPa)
#
#
# Indices 1 2 3 4 5 6 
#
# 1 0.013438 -0.012836 -0.003132 0.000000 0.000000 0.000000
# 2 -0.012836 0.031842 -0.002585 0.000000 0.000000 0.000000
# 3 -0.003132 -0.002585 0.009109 0.000000 0.000000 0.000000
# 4 0.000000 0.000000 0.000000 0.037128 0.000000 0.000000
# 5 0.000000 0.000000 0.000000 0.000000 0.028059 0.000000
# 6 0.000000 0.000000 0.000000 0.000000 0.000000 0.033116
#
#
# Mechanical properties :
#
#
# Convention : Reuss Voigt Hill
#
# Bulk Modulus (GPa) = 57.85707 82.37186 70.11447
# Shear Modulus (GPa) = 25.56780 30.72536 28.14658
#
# Velocity S-wave (km/s) = 3.76112 4.12306 3.94624
# Velocity P-wave (km/s) = 7.13248 8.26078 7.71728
#
# Compressibility (1/GPa) = 0.01728397
#
# Stress axis : x y z
#
# Youngs Moduli (GPa) = 74.41496 31.40504 109.77943
#
# Poissons Ratio (x) = 0.40312 0.34378
# Poissons Ratio (y) = 0.95521 0.28377
# Poissons Ratio (z) = 0.23303 0.08118
#
# Static dielectric constant tensor:
#      x y z
#    x 4.525160 0.000000 0.000000 
#    y 0.000000 2.928660 0.000000 
#    z 0.000000 0.000000 3.448100 
# 
# 
# High freq. dielectric constant tensor:
#      x y z
#    x 1.729200 0.000000 0.000000 
#    y 0.000000 1.648880 0.000000 
#    z 0.000000 0.000000 1.727300 
# 
# From -- ./inp_files/9911.got.cif
#   From: 2010.03.12/outbox.cif.g09.slc.cpg/sg57_5_cif.got.tgz:9911.got - 2010.04.16 15:48:40.
