data_PCOD8232278
_publ_section_title
;
Structure prediction by ZEFSAII (Michael W. Deem and Ramdas Pophale) SiO2 
 PCOD8232278
Probable space group: P B C M
;
_chemical_formula_sum "Si O2"
_cell_formula_units_Z 64
_cell_length_a 15.523014
_cell_length_b 23.104286
_cell_length_c 8.988421
_cell_angle_alpha 90.000000
_cell_angle_beta 90.000000
_cell_angle_gamma 90.000000
_cell_volume 3223.680608
_symmetry_space_group_name_H-M "P B C M"
_symmetry_group_IT_number 57
_symmetry_cell_setting 'orthorhombic'
loop_
_space_group_symop_operation_xyz
x,y,z
-x,-y,1/2+z
x,1/2-y,-z
-x,1/2+y,1/2-z
-x,-y,-z
x,y,1/2-z
-x,1/2+y,z
x,1/2-y,1/2+z
loop_
_atom_site_type_symbol
_atom_site_label
_atom_site_fract_x
_atom_site_fract_y
_atom_site_fract_z
Si Si1 0.545154 0.092617 0.573906
Si Si2 0.908941 0.997294 0.078638
Si Si3 0.667843 0.185687 0.427884
Si Si4 0.182019 0.307962 0.423820
Si Si5 0.844807 0.378022 0.919967
Si Si6 0.016471 0.807721 0.077201
Si Si7 0.399245 0.466031 0.918293
Si Si8 0.783458 0.916486 0.581271
O O1 0.548449 0.104165 0.750000
O O2 0.589051 0.147297 0.491825
O O3 0.446814 0.082687 0.518921
O O4 0.589473 0.032002 0.525740
O O5 0.926238 0.983403 0.250000
O O6 0.845983 0.052763 0.060044
O O7 0.862302 0.943376 0.006441
O O8 0.000000 0.000000 0.000000
O O9 0.667785 0.250000 0.500000
O O10 0.658311 0.191446 0.250000
O O11 0.755354 0.151357 0.472462
O O12 0.214582 0.250000 0.500000
O O13 0.199276 0.304603 0.250000
O O14 0.082282 0.320156 0.463985
O O15 0.239938 0.357101 0.498604
O O16 0.863117 0.360452 0.750000
O O17 0.924379 0.359347 0.021340
O O18 0.029417 0.799147 0.250000
O O19 0.050908 0.750000 0.000000
O O20 0.434272 0.459562 0.750000
O O21 0.298077 0.457590 0.926967
O O22 0.812027 0.904426 0.750000
#
# Coordination Sequence:
#
# PCOD8232278 Si02
#       8
#     8   8   8   8   8   8   8   8
#     4  10  20  37  62  89 115 146 185 229 280 338
#     4  11  23  38  56  82 117 156 197 242 294 346
#     4  11  23  39  58  83 117 155 194 239 292 350
#     4  10  21  37  56  79 107 142 183 227 276 326
#     4  10  22  37  54  78 110 149 192 237 284 337
#     4  10  20  33  52  75 102 139 183 230 275 322
#     4   9  20  38  61  89 118 148 184 229 281 338
#     4  11  22  37  58  84 114 147 184 227 276 332
#
# _framework density 19.853083000000002
#
# number of rings (size 3 to 8) (size 9 to 14) (size 15 to 20)
#    0.000    1.750    0.000    4.125    0.000    8.000 
#    0.000    0.625    0.000    3.000    0.000    0.000 
#    0.000    0.000    0.000    0.000    0.000    0.000 
#
# Total GULP energy -793577.451000 kJ/mol
# GULP energy per Si atom -12399.647672 kJ/mol
# Density = 1.980790 g / cm^3
# Si number density = 19.853083 Si / 1000 Ang^3
#
#
#
# Elastic Constant Matrix: (Units=GPa)
#
#
# Indices 1 2 3 4 5 6 
#
# 1 54.5592 31.8951 34.7161 0.0000 0.0000 0.0000
# 2 31.8951 111.9010 50.5428 0.0000 0.0000 0.0000
# 3 34.7161 50.5428 107.5290 0.0000 0.0000 0.0000
# 4 0.0000 0.0000 0.0000 38.0917 0.0000 0.0000
# 5 0.0000 0.0000 0.0000 0.0000 29.0222 0.0000
# 6 0.0000 0.0000 0.0000 0.0000 0.0000 35.0563
#
#
#
# Elastic Compliance Matrix: (Units=1/GPa)
#
#
# Indices 1 2 3 4 5 6 
#
# 1 0.024632 -0.004353 -0.005906 0.000000 0.000000 0.000000
# 2 -0.004353 0.012114 -0.004289 0.000000 0.000000 0.000000
# 3 -0.005906 -0.004289 0.013223 0.000000 0.000000 0.000000
# 4 0.000000 0.000000 0.000000 0.026252 0.000000 0.000000
# 5 0.000000 0.000000 0.000000 0.000000 0.034456 0.000000
# 6 0.000000 0.000000 0.000000 0.000000 0.000000 0.028526
#
#
# Mechanical properties :
#
#
# Convention : Reuss Voigt Hill
#
# Bulk Modulus (GPa) = 47.91040 56.47744 52.19392
# Shear Modulus (GPa) = 28.52956 30.88971 29.70963
#
# Velocity S-wave (km/s) = 3.79494 3.94879 3.87263
# Velocity P-wave (km/s) = 6.58687 7.02140 6.80760
#
# Compressibility (1/GPa) = 0.02087229
#
# Stress axis : x y z
#
# Youngs Moduli (GPa) = 40.59815 82.54663 75.62804
#
# Poissons Ratio (x) = 0.35933 0.44668
# Poissons Ratio (y) = 0.17672 0.32436
# Poissons Ratio (z) = 0.23979 0.35403
#
# Static dielectric constant tensor:
#      x y z
#    x 3.417820 0.000000 0.000000 
#    y 0.000000 3.703640 0.000000 
#    z 0.000000 0.000000 3.733520 
# 
# 
# High freq. dielectric constant tensor:
#      x y z
#    x 1.759040 0.000000 0.000000 
#    y 0.000000 1.780830 0.000000 
#    z 0.000000 0.000000 1.785940 
# 
# From -- ./inp_files/5627.got.cif
#   From: 2010.03.12/outbox.cif.g09.slc.cpg/sg57_3_cif.got.tgz:5627.got - 2010.04.16 15:48:40.
