data_PCOD8232935
_publ_section_title
;
Structure prediction by ZEFSAII (Michael W. Deem and Ramdas Pophale) SiO2 
 PCOD8232935
Probable space group: P B C M
;
_chemical_formula_sum "Si O2"
_cell_formula_units_Z 64
_cell_length_a 22.574626
_cell_length_b 9.178848
_cell_length_c 14.297374
_cell_angle_alpha 90.000000
_cell_angle_beta 90.000000
_cell_angle_gamma 90.000000
_cell_volume 2962.545437
_symmetry_space_group_name_H-M "P B C M"
_symmetry_group_IT_number 57
_symmetry_cell_setting 'orthorhombic'
loop_
_space_group_symop_operation_xyz
x,y,z
-x,-y,1/2+z
x,1/2-y,-z
-x,1/2+y,1/2-z
-x,-y,-z
x,y,1/2-z
-x,1/2+y,z
x,1/2-y,1/2+z
loop_
_atom_site_type_symbol
_atom_site_label
_atom_site_fract_x
_atom_site_fract_y
_atom_site_fract_z
Si Si1 0.647263 0.914603 0.480012
Si Si2 0.826587 0.599319 0.537409
Si Si3 0.741462 0.081245 0.356415
Si Si4 0.946488 0.228817 0.852558
Si Si5 0.461743 0.332869 0.144039
Si Si6 0.573458 0.991692 0.644222
Si Si7 0.175197 0.834561 0.412188
Si Si8 0.943657 0.949411 0.362860
O O1 0.672782 0.750000 0.500000
O O2 0.587441 0.904900 0.420721
O O3 0.631285 0.992331 0.578293
O O4 0.691000 0.026155 0.427675
O O5 0.800027 0.750000 0.500000
O O6 0.794474 0.533763 0.629162
O O7 0.811105 0.496577 0.447853
O O8 0.893113 0.626099 0.573787
O O9 0.718410 0.073422 0.250000
O O10 0.766358 0.246213 0.375850
O O11 0.971581 0.259187 0.750000
O O12 0.880399 0.160056 0.841878
O O13 0.944504 0.385505 0.901767
O O14 0.994276 0.119812 0.897397
O O15 0.448651 0.383547 0.250000
O O16 0.461425 0.159903 0.134038
O O17 0.527226 0.383838 0.113583
O O18 0.596406 0.016069 0.750000
O O19 0.147575 0.750000 0.500000
O O20 0.931870 0.938405 0.250000
#
# Coordination Sequence:
#
# PCOD8232935 Si02
#       8
#     8   8   8   8   8   8   8   8
#     4  10  20  35  60  92 122 163 221 278 326 381
#     4  11  24  41  61  90 122 157 202 257 318 388
#     4  11  22  42  67  85 115 166 217 272 333 387
#     4  10  20  36  57  87 122 158 199 244 300 375
#     4   9  17  32  54  87 127 170 211 254 317 383
#     4   9  18  33  56  87 131 171 206 259 320 380
#     4  10  21  39  61  85 116 155 194 252 317 379
#     4  10  21  37  59  86 122 163 200 243 306 384
#
# _framework density 21.603045000000002
#
# number of rings (size 3 to 8) (size 9 to 14) (size 15 to 20)
#    0.000    2.000    2.500    1.875    1.750    1.500 
#    0.000    5.625    0.000   15.000    0.000    0.000 
#    0.000    0.000    0.000    0.000    0.000    0.000 
#
# Total GULP energy -792898.049546 kJ/mol
# GULP energy per Si atom -12389.032024 kJ/mol
# Density = 2.155388 g / cm^3
# Si number density = 21.603045 Si / 1000 Ang^3
#
#
#
# Elastic Constant Matrix: (Units=GPa)
#
#
# Indices 1 2 3 4 5 6 
#
# 1 102.8910 35.0789 51.8126 0.0000 0.0000 0.0000
# 2 35.0789 99.2772 40.1842 0.0000 0.0000 0.0000
# 3 51.8126 40.1842 95.0276 0.0000 0.0000 0.0000
# 4 0.0000 0.0000 0.0000 21.1345 0.0000 0.0000
# 5 0.0000 0.0000 0.0000 0.0000 38.0978 0.0000
# 6 0.0000 0.0000 0.0000 0.0000 0.0000 33.9698
#
#
#
# Elastic Compliance Matrix: (Units=1/GPa)
#
#
# Indices 1 2 3 4 5 6 
#
# 1 0.013787 -0.002206 -0.006584 0.000000 0.000000 0.000000
# 2 -0.002206 0.012506 -0.004085 0.000000 0.000000 0.000000
# 3 -0.006584 -0.004085 0.015841 0.000000 0.000000 0.000000
# 4 0.000000 0.000000 0.000000 0.047316 0.000000 0.000000
# 5 0.000000 0.000000 0.000000 0.000000 0.026248 0.000000
# 6 0.000000 0.000000 0.000000 0.000000 0.000000 0.029438
#
#
# Mechanical properties :
#
#
# Convention : Reuss Voigt Hill
#
# Bulk Modulus (GPa) = 61.04331 61.26081 61.15206
# Shear Modulus (GPa) = 28.35302 29.98177 29.16740
#
# Velocity S-wave (km/s) = 3.62671 3.72943 3.67843
# Velocity P-wave (km/s) = 6.77167 6.85302 6.81247
#
# Compressibility (1/GPa) = 0.01638181
#
# Stress axis : x y z
#
# Youngs Moduli (GPa) = 72.53332 79.96118 63.12858
#
# Poissons Ratio (x) = 0.17643 0.41564
# Poissons Ratio (y) = 0.16004 0.25790
# Poissons Ratio (z) = 0.47756 0.32667
#
# Static dielectric constant tensor:
#      x y z
#    x 3.742360 0.000000 0.000000 
#    y 0.000000 3.956030 0.000000 
#    z 0.000000 0.000000 3.967600 
# 
# 
# High freq. dielectric constant tensor:
#      x y z
#    x 1.834040 0.000000 0.000000 
#    y 0.000000 1.839190 0.000000 
#    z 0.000000 0.000000 1.850310 
# 
# From -- ./inp_files/19531.got.cif
#   From: 2010.03.12/outbox.cif.g09.slc.cpg/sg57_10_cif.got.tgz:19531.got - 2010.04.16 15:48:40.
