data_PCOD8232420
_publ_section_title
;
Structure prediction by ZEFSAII (Michael W. Deem and Ramdas Pophale) SiO2 
 PCOD8232420
Probable space group: P B C M
;
_chemical_formula_sum "Si O2"
_cell_formula_units_Z 64
_cell_length_a 21.134656
_cell_length_b 17.543517
_cell_length_c 9.565001
_cell_angle_alpha 90.000000
_cell_angle_beta 90.000000
_cell_angle_gamma 90.000000
_cell_volume 3546.474693
_symmetry_space_group_name_H-M "P B C M"
_symmetry_group_IT_number 57
_symmetry_cell_setting 'orthorhombic'
loop_
_space_group_symop_operation_xyz
x,y,z
-x,-y,1/2+z
x,1/2-y,-z
-x,1/2+y,1/2-z
-x,-y,-z
x,y,1/2-z
-x,1/2+y,z
x,1/2-y,1/2+z
loop_
_atom_site_type_symbol
_atom_site_label
_atom_site_fract_x
_atom_site_fract_y
_atom_site_fract_z
Si Si1 0.162462 0.321470 0.093570
Si Si2 0.312899 0.562354 0.593074
Si Si3 0.436881 0.015941 0.083086
Si Si4 0.748934 0.600226 0.404168
Si Si5 0.911118 0.061060 0.912931
Si Si6 0.618845 0.677654 0.090782
Si Si7 0.052731 0.076327 0.906241
Si Si8 0.204121 0.670960 0.582089
O O1 0.186278 0.305401 0.250000
O O2 0.088518 0.342769 0.090325
O O3 0.177666 0.250000 0.000000
O O4 0.200946 0.391477 0.027833
O O5 0.326470 0.588052 0.750000
O O6 0.382023 0.543047 0.526566
O O7 0.272557 0.486126 0.589354
O O8 0.269118 0.629490 0.527402
O O9 0.445359 0.006794 0.250000
O O10 0.419343 0.102549 0.045117
O O11 0.500000 0.000000 0.000000
O O12 0.778523 0.615347 0.250000
O O13 0.692580 0.659932 0.429728
O O14 0.902328 0.043110 0.750000
O O15 0.856438 0.119285 0.961537
O O16 0.980617 0.095142 0.949395
O O17 0.909127 0.980892 0.993286
O O18 0.603373 0.698525 0.250000
O O19 0.597634 0.750000 0.000000
O O20 0.054521 0.041080 0.750000
O O21 0.198355 0.750000 0.500000
O O22 0.204714 0.683954 0.750000
#
# Coordination Sequence:
#
# PCOD8232420 Si02
#       8
#     8   8   8   8   8   8   8   8
#     4  11  22  32  43  65  99 132 160 194 237 285
#     4   8  16  33  55  75  98 129 162 198 244 296
#     4   9  18  34  54  76 102 133 168 203 241 290
#     4   9  17  32  53  73  94 125 164 202 241 289
#     4   9  18  34  55  74  93 123 164 207 254 306
#     4   9  18  31  49  74 102 129 161 202 245 290
#     4   9  19  34  50  71  97 124 161 209 253 297
#     4  10  20  34  53  76 101 132 170 211 256 303
#
# _framework density 18.04609
#
# number of rings (size 3 to 8) (size 9 to 14) (size 15 to 20)
#    0.000    2.750    0.000    3.000    0.000    5.000 
#    0.000    3.750    0.000    3.000    0.000    0.000 
#    0.000    0.000    0.000    0.000    0.000    0.000 
#
# Total GULP energy -792965.496205 kJ/mol
# GULP energy per Si atom -12390.085878 kJ/mol
# Density = 1.800502 g / cm^3
# Si number density = 18.046090 Si / 1000 Ang^3
#
#
#
# Elastic Constant Matrix: (Units=GPa)
#
#
# Indices 1 2 3 4 5 6 
#
# 1 116.0374 57.1962 45.6825 0.0000 0.0000 0.0000
# 2 57.1962 81.8568 37.9707 0.0000 0.0000 0.0000
# 3 45.6825 37.9707 70.4838 0.0000 0.0000 0.0000
# 4 0.0000 0.0000 0.0000 29.4592 0.0000 0.0000
# 5 0.0000 0.0000 0.0000 0.0000 26.4564 0.0000
# 6 0.0000 0.0000 0.0000 0.0000 0.0000 21.4293
#
#
#
# Elastic Compliance Matrix: (Units=1/GPa)
#
#
# Indices 1 2 3 4 5 6 
#
# 1 0.014464 -0.007676 -0.005239 0.000000 0.000000 0.000000
# 2 -0.007676 0.020360 -0.005993 0.000000 0.000000 0.000000
# 3 -0.005239 -0.005993 0.020812 0.000000 0.000000 0.000000
# 4 0.000000 0.000000 0.000000 0.033945 0.000000 0.000000
# 5 0.000000 0.000000 0.000000 0.000000 0.037798 0.000000
# 6 0.000000 0.000000 0.000000 0.000000 0.000000 0.046665
#
#
# Mechanical properties :
#
#
# Convention : Reuss Voigt Hill
#
# Bulk Modulus (GPa) = 56.12016 61.11964 58.61990
# Shear Modulus (GPa) = 22.95661 23.97089 23.46375
#
# Velocity S-wave (km/s) = 3.57053 3.64856 3.60976
# Velocity P-wave (km/s) = 6.94003 7.18968 7.06596
#
# Compressibility (1/GPa) = 0.01781891
#
# Stress axis : x y z
#
# Youngs Moduli (GPa) = 69.13534 49.11540 48.04920
#
# Poissons Ratio (x) = 0.37703 0.25175
# Poissons Ratio (y) = 0.53071 0.28796
# Poissons Ratio (z) = 0.36223 0.29435
#
# Static dielectric constant tensor:
#      x y z
#    x 3.460040 0.000000 0.000000 
#    y 0.000000 3.205990 0.000000 
#    z 0.000000 0.000000 3.260400 
# 
# 
# High freq. dielectric constant tensor:
#      x y z
#    x 1.700590 0.000000 0.000000 
#    y 0.000000 1.686560 0.000000 
#    z 0.000000 0.000000 1.683850 
# 
# From -- ./inp_files/9334.got.cif
#   From: 2010.03.12/outbox.cif.g09.slc.cpg/sg57_5_cif.got.tgz:9334.got - 2010.04.16 15:48:40.
