data_PCOD8232126
_publ_section_title
;
Structure prediction by ZEFSAII (Michael W. Deem and Ramdas Pophale) SiO2 
 PCOD8232126
Probable space group: P B C M
;
_chemical_formula_sum "Si O2"
_cell_formula_units_Z 56
_cell_length_a 20.332789
_cell_length_b 15.330765
_cell_length_c 9.433448
_cell_angle_alpha 90.000000
_cell_angle_beta 90.000000
_cell_angle_gamma 90.000000
_cell_volume 2940.568091
_symmetry_space_group_name_H-M "P B C M"
_symmetry_group_IT_number 57
_symmetry_cell_setting 'orthorhombic'
loop_
_space_group_symop_operation_xyz
x,y,z
-x,-y,1/2+z
x,1/2-y,-z
-x,1/2+y,1/2-z
-x,-y,-z
x,y,1/2-z
-x,1/2+y,z
x,1/2-y,1/2+z
loop_
_atom_site_type_symbol
_atom_site_label
_atom_site_fract_x
_atom_site_fract_y
_atom_site_fract_z
Si Si1 0.171144 0.671519 0.085973
Si Si2 0.920155 0.921766 0.094732
Si Si3 0.533879 0.923282 0.084830
Si Si4 0.031509 0.617437 0.094093
Si Si5 0.779188 0.517934 0.915459
Si Si6 0.596029 0.333185 0.089358
Si Si7 0.650528 0.976797 0.581158
O O1 0.169738 0.695809 0.250000
O O2 0.096441 0.661363 0.027227
O O3 0.212333 0.584828 0.059669
O O4 0.205433 0.750000 0.000000
O O5 0.918258 0.878613 0.250000
O O6 0.954207 0.015230 0.105456
O O7 0.845378 0.930888 0.037957
O O8 0.965908 0.861416 0.995973
O O9 0.546317 0.948207 0.250000
O O10 0.483523 0.841931 0.075742
O O11 0.500000 0.000000 0.000000
O O12 0.602363 0.908659 0.001152
O O13 0.017973 0.655218 0.250000
O O14 0.762733 0.536221 0.750000
O O15 0.721942 0.547992 0.020931
O O16 0.616224 0.313303 0.250000
O O17 0.631425 0.423258 0.040986
O O18 0.620502 0.250000 0.000000
O O19 0.646723 0.961282 0.750000
#
# Coordination Sequence:
#
# PCOD8232126 Si02
#       7
#     8   8   8   8   8   8   8
#     4   9  18  30  42  59  86 119 152 183 219 265
#     4   8  14  25  41  60  80 103 136 175 215 257
#     4   9  17  31  49  69  92 119 152 190 229 269
#     4   8  14  25  40  58  80 105 136 177 219 254
#     4   9  18  31  44  61  88 120 149 181 222 264
#     4   9  19  32  47  69  94 119 151 187 223 266
#     4  10  20  32  46  68  94 123 159 191 224 272
#
# _framework density 19.043938000000001
#
# number of rings (size 3 to 8) (size 9 to 14) (size 15 to 20)
#    0.000    3.143    0.000    3.429    0.000    5.714 
#    0.000    5.714    0.000    0.000    0.000    1.000 
#    0.000    6.857    0.000    0.000    0.000    0.000 
#
# Total GULP energy -693817.190496 kJ/mol
# GULP energy per Si atom -12389.592687 kJ/mol
# Density = 1.900059 g / cm^3
# Si number density = 19.043938 Si / 1000 Ang^3
#
#
#
# Elastic Constant Matrix: (Units=GPa)
#
#
# Indices 1 2 3 4 5 6 
#
# 1 103.6337 -12.2768 41.2982 0.0000 0.0000 0.0000
# 2 -12.2768 5.7436 -0.2680 0.0000 0.0000 0.0000
# 3 41.2982 -0.2680 76.0642 0.0000 0.0000 0.0000
# 4 0.0000 0.0000 0.0000 21.2929 0.0000 0.0000
# 5 0.0000 0.0000 0.0000 0.0000 33.3326 0.0000
# 6 0.0000 0.0000 0.0000 0.0000 0.0000 8.9214
#
#
#
# Elastic Compliance Matrix: (Units=1/GPa)
#
#
# Indices 1 2 3 4 5 6 
#
# 1 0.017991 0.038005 -0.009634 0.000000 0.000000 0.000000
# 2 0.038005 0.254423 -0.019738 0.000000 0.000000 0.000000
# 3 -0.009634 -0.019738 0.018308 0.000000 0.000000 0.000000
# 4 0.000000 0.000000 0.000000 0.046964 0.000000 0.000000
# 5 0.000000 0.000000 0.000000 0.000000 0.030001 0.000000
# 6 0.000000 0.000000 0.000000 0.000000 0.000000 0.112091
#
#
# Mechanical properties :
#
#
# Convention : Reuss Voigt Hill
#
# Bulk Modulus (GPa) = 3.24688 26.99425 15.12057
# Shear Modulus (GPa) = 8.84685 23.15524 16.00104
#
# Velocity S-wave (km/s) = 2.15768 3.49074 2.90179
# Velocity P-wave (km/s) = 2.81355 5.51838 4.37999
#
# Compressibility (1/GPa) = 0.30798828
#
# Stress axis : x y z
#
# Youngs Moduli (GPa) = 55.58409 3.93046 54.62125
#
# Poissons Ratio (x) = -0.14938 0.52622
# Poissons Ratio (y) = -2.11249 1.07812
# Poissons Ratio (z) = 0.53550 0.07758
#
# Static dielectric constant tensor:
#      x y z
#    x 3.810490 0.000000 0.000000 
#    y 0.000000 3.041740 0.000000 
#    z 0.000000 0.000000 3.708560 
# 
# 
# High freq. dielectric constant tensor:
#      x y z
#    x 1.741160 0.000000 0.000000 
#    y 0.000000 1.684780 0.000000 
#    z 0.000000 0.000000 1.741310 
# 
# From -- ./inp_files/8307.got.cif
#   From: 2010.03.12/outbox.cif.g09.slc.cpg/sg57_5_cif.got.tgz:8307.got - 2010.04.16 15:48:40.
