data_PCOD8232258
_publ_section_title
;
Structure prediction by ZEFSAII (Michael W. Deem and Ramdas Pophale) SiO2 
 PCOD8232258
Probable space group: P B C M
;
_chemical_formula_sum "Si O2"
_cell_formula_units_Z 64
_cell_length_a 20.351250
_cell_length_b 9.178781
_cell_length_c 18.212124
_cell_angle_alpha 90.000000
_cell_angle_beta 90.000000
_cell_angle_gamma 90.000000
_cell_volume 3402.018695
_symmetry_space_group_name_H-M "P B C M"
_symmetry_group_IT_number 57
_symmetry_cell_setting 'orthorhombic'
loop_
_space_group_symop_operation_xyz
x,y,z
-x,-y,1/2+z
x,1/2-y,-z
-x,1/2+y,1/2-z
-x,-y,-z
x,y,1/2-z
-x,1/2+y,z
x,1/2-y,1/2+z
loop_
_atom_site_type_symbol
_atom_site_label
_atom_site_fract_x
_atom_site_fract_y
_atom_site_fract_z
Si Si1 0.457875 0.100057 0.666049
Si Si2 0.818763 0.060711 0.164156
Si Si3 0.296347 0.659490 0.073089
Si Si4 0.419885 0.774336 0.665043
Si Si5 0.198639 0.254730 0.086004
Si Si6 0.338652 0.326367 0.428588
Si Si7 0.958876 0.992400 0.334945
Si Si8 0.078662 0.175261 0.337624
O O1 0.454156 0.147090 0.750000
O O2 0.527824 0.155952 0.635022
O O3 0.395416 0.179755 0.631138
O O4 0.455033 0.928884 0.653393
O O5 0.798662 0.050731 0.250000
O O6 0.769504 0.170909 0.122952
O O7 0.896045 0.102172 0.155288
O O8 0.813384 0.905999 0.126013
O O9 0.354724 0.738655 0.116844
O O10 0.314395 0.491737 0.055547
O O11 0.282416 0.750000 0.000000
O O12 0.400557 0.750493 0.750000
O O13 0.276672 0.225357 0.096536
O O14 0.150237 0.139056 0.126553
O O15 0.181127 0.250000 0.000000
O O16 0.369212 0.250000 0.500000
O O17 0.973330 0.969654 0.250000
O O18 0.024771 0.062207 0.369098
O O19 0.944718 0.833102 0.368013
O O20 0.085644 0.171788 0.250000
#
# Coordination Sequence:
#
# PCOD8232258 Si02
#       8
#     8   8   8   8   8   8   8   8
#     4   9  18  32  52  74  96 124 165 208 243 287
#     4   9  17  33  55  74  96 136 179 209 246 308
#     4  10  20  33  51  76 101 127 165 212 253 293
#     4   9  18  33  51  73  98 127 161 202 247 295
#     4   9  17  30  48  73 101 128 163 211 254 294
#     4   9  19  34  50  68  97 132 162 197 246 304
#     4   8  15  28  48  71  94 124 167 210 248 293
#     4   9  16  29  48  69  94 128 166 205 247 298
#
# _framework density 18.812360000000002
#
# number of rings (size 3 to 8) (size 9 to 14) (size 15 to 20)
#    0.000    3.000    0.000    1.500    0.000    5.000 
#    0.000    9.375    0.000    0.750    0.000    7.875 
#    0.000    0.000    0.000    0.000    0.000    0.000 
#
# Total GULP energy -792921.588107 kJ/mol
# GULP energy per Si atom -12389.399814 kJ/mol
# Density = 1.876954 g / cm^3
# Si number density = 18.812360 Si / 1000 Ang^3
#
#
#
# Elastic Constant Matrix: (Units=GPa)
#
#
# Indices 1 2 3 4 5 6 
#
# 1 39.0870 0.5938 20.6327 0.0000 0.0000 0.0000
# 2 0.5938 20.9008 15.1615 0.0000 0.0000 0.0000
# 3 20.6327 15.1615 72.9231 0.0000 0.0000 0.0000
# 4 0.0000 0.0000 0.0000 28.3253 0.0000 0.0000
# 5 0.0000 0.0000 0.0000 0.0000 17.8574 0.0000
# 6 0.0000 0.0000 0.0000 0.0000 0.0000 26.4340
#
#
#
# Elastic Compliance Matrix: (Units=1/GPa)
#
#
# Indices 1 2 3 4 5 6 
#
# 1 0.030789 0.006411 -0.010044 0.000000 0.000000 0.000000
# 2 0.006411 0.057678 -0.013806 0.000000 0.000000 0.000000
# 3 -0.010044 -0.013806 0.019425 0.000000 0.000000 0.000000
# 4 0.000000 0.000000 0.000000 0.035304 0.000000 0.000000
# 5 0.000000 0.000000 0.000000 0.000000 0.055999 0.000000
# 6 0.000000 0.000000 0.000000 0.000000 0.000000 0.037830
#
#
# Mechanical properties :
#
#
# Convention : Reuss Voigt Hill
#
# Bulk Modulus (GPa) = 13.69593 22.85410 18.27502
# Shear Modulus (GPa) = 16.87815 20.95819 18.91817
#
# Velocity S-wave (km/s) = 2.99855 3.34138 3.17460
# Velocity P-wave (km/s) = 4.39141 5.20205 4.81382
#
# Compressibility (1/GPa) = 0.07301438
#
# Stress axis : x y z
#
# Youngs Moduli (GPa) = 32.47959 17.33766 51.47898
#
# Poissons Ratio (x) = -0.11116 0.51707
# Poissons Ratio (y) = -0.20824 0.71072
# Poissons Ratio (z) = 0.32623 0.23936
#
# Static dielectric constant tensor:
#      x y z
#    x 4.010780 0.000000 0.000000 
#    y 0.000000 3.342240 0.000000 
#    z 0.000000 0.000000 3.394380 
# 
# 
# High freq. dielectric constant tensor:
#      x y z
#    x 1.748730 0.000000 0.000000 
#    y 0.000000 1.696420 0.000000 
#    z 0.000000 0.000000 1.714650 
# 
# From -- ./inp_files/23031.got.cif
#   From: 2010.03.12/outbox.cif.g09.slc.cpg/sg57_12_cif.got.tgz:23031.got - 2010.04.16 15:48:40.
