data_PCOD8232198
_publ_section_title
;
Structure prediction by ZEFSAII (Michael W. Deem and Ramdas Pophale) SiO2 
 PCOD8232198
Probable space group: P B C M
;
_chemical_formula_sum "Si O2"
_cell_formula_units_Z 48
_cell_length_a 16.330717
_cell_length_b 18.845750
_cell_length_c 8.992001
_cell_angle_alpha 90.000000
_cell_angle_beta 90.000000
_cell_angle_gamma 90.000000
_cell_volume 2767.419680
_symmetry_space_group_name_H-M "P B C M"
_symmetry_group_IT_number 57
_symmetry_cell_setting 'orthorhombic'
loop_
_space_group_symop_operation_xyz
x,y,z
-x,-y,1/2+z
x,1/2-y,-z
-x,1/2+y,1/2-z
-x,-y,-z
x,y,1/2-z
-x,1/2+y,z
x,1/2-y,1/2+z
loop_
_atom_site_type_symbol
_atom_site_label
_atom_site_fract_x
_atom_site_fract_y
_atom_site_fract_z
Si Si1 0.799214 0.859904 0.083649
Si Si2 0.740277 0.480299 0.583369
Si Si3 0.640078 0.681704 0.075571
Si Si4 0.106890 0.560383 0.917967
Si Si5 0.582053 0.973165 0.925723
Si Si6 0.047995 0.398895 0.917870
O O1 0.801488 0.827648 0.250000
O O2 0.777789 0.942121 0.092105
O O3 0.732443 0.819822 0.985248
O O4 0.887366 0.849955 0.006160
O O5 0.723579 0.451301 0.750000
O O6 0.805989 0.430217 0.500613
O O7 0.656292 0.480489 0.490755
O O8 0.642787 0.693071 0.250000
O O9 0.592250 0.609869 0.033123
O O10 0.595741 0.750000 0.000000
O O11 0.116053 0.588452 0.750000
O O12 0.078790 0.479301 0.917800
O O13 0.039776 0.607825 0.002606
O O14 0.579240 0.984741 0.750000
O O15 0.500000 0.000000 0.000000
O O16 0.039822 0.370582 0.750000
#
# Coordination Sequence:
#
# PCOD8232198 Si02
#       6
#     8   8   8   8   8   8
#     4   9  16  26  40  58  82 113 147 182 221 265
#     4   9  16  26  40  58  82 113 147 183 226 275
#     4  10  20  33  49  69  93 122 156 193 234 283
#     4   9  15  22  33  51  77 109 144 180 217 258
#     4  10  20  33  49  69  93 122 156 195 242 295
#     4   9  15  22  33  51  77 109 144 179 214 254
#
# _framework density 17.344677999999998
#
# number of rings (size 3 to 8) (size 9 to 14) (size 15 to 20)
#    0.000    2.667    0.000    3.000    0.000   10.000 
#    0.000    0.000    0.000    0.000    0.000    0.000 
#    0.000    1.333    0.000   11.333    0.000   19.500 
#
# Total GULP energy -595090.793727 kJ/mol
# GULP energy per Si atom -12397.724869 kJ/mol
# Density = 1.730520 g / cm^3
# Si number density = 17.344678 Si / 1000 Ang^3
#
#
#
# Elastic Constant Matrix: (Units=GPa)
#
#
# Indices 1 2 3 4 5 6 
#
# 1 141.5052 35.0608 75.2041 0.0000 0.0000 0.0000
# 2 35.0608 36.8237 31.5964 0.0000 0.0000 0.0000
# 3 75.2041 31.5964 144.6568 0.0000 0.0000 0.0000
# 4 0.0000 0.0000 0.0000 17.5184 0.0000 0.0000
# 5 0.0000 0.0000 0.0000 0.0000 35.9988 0.0000
# 6 0.0000 0.0000 0.0000 0.0000 0.0000 9.7854
#
#
#
# Elastic Compliance Matrix: (Units=1/GPa)
#
#
# Indices 1 2 3 4 5 6 
#
# 1 0.011013 -0.006858 -0.004227 0.000000 0.000000 0.000000
# 2 -0.006858 0.037691 -0.004667 0.000000 0.000000 0.000000
# 3 -0.004227 -0.004667 0.010130 0.000000 0.000000 0.000000
# 4 0.000000 0.000000 0.000000 0.057083 0.000000 0.000000
# 5 0.000000 0.000000 0.000000 0.000000 0.027779 0.000000
# 6 0.000000 0.000000 0.000000 0.000000 0.000000 0.102193
#
#
# Mechanical properties :
#
#
# Convention : Reuss Voigt Hill
#
# Bulk Modulus (GPa) = 36.59203 67.41203 52.00203
# Shear Modulus (GPa) = 17.45181 24.73548 21.09365
#
# Velocity S-wave (km/s) = 3.17547 3.78049 3.49111
# Velocity P-wave (km/s) = 5.88112 7.61621 6.80420
#
# Compressibility (1/GPa) = 0.02732836
#
# Stress axis : x y z
#
# Youngs Moduli (GPa) = 90.80329 26.53151 98.71673
#
# Poissons Ratio (x) = 0.18196 0.41731
# Poissons Ratio (y) = 0.62276 0.46072
# Poissons Ratio (z) = 0.38385 0.12382
#
# Static dielectric constant tensor:
#      x y z
#    x 3.210240 0.000000 0.000000 
#    y 0.000000 2.818420 0.000000 
#    z 0.000000 0.000000 3.503560 
# 
# 
# High freq. dielectric constant tensor:
#      x y z
#    x 1.659960 0.000000 0.000000 
#    y 0.000000 1.604780 0.000000 
#    z 0.000000 0.000000 1.694370 
# 
# From -- ./inp_files/4851.got.cif
#   From: 2010.03.12/outbox.cif.g09.slc.cpg/sg57_3_cif.got.tgz:4851.got - 2010.04.16 15:48:40.
