data_PCOD8232365
_publ_section_title
;
Structure prediction by ZEFSAII (Michael W. Deem and Ramdas Pophale) SiO2 
 PCOD8232365
Probable space group: P B C M
;
_chemical_formula_sum "Si O2"
_cell_formula_units_Z 64
_cell_length_a 17.886143
_cell_length_b 21.825510
_cell_length_c 8.633613
_cell_angle_alpha 90.000000
_cell_angle_beta 90.000000
_cell_angle_gamma 90.000000
_cell_volume 3370.339707
_symmetry_space_group_name_H-M "P B C M"
_symmetry_group_IT_number 57
_symmetry_cell_setting 'orthorhombic'
loop_
_space_group_symop_operation_xyz
x,y,z
-x,-y,1/2+z
x,1/2-y,-z
-x,1/2+y,1/2-z
-x,-y,-z
x,y,1/2-z
-x,1/2+y,z
x,1/2-y,1/2+z
loop_
_atom_site_type_symbol
_atom_site_label
_atom_site_fract_x
_atom_site_fract_y
_atom_site_fract_z
Si Si1 0.885322 0.816025 0.567579
Si Si2 0.378249 0.192025 0.571071
Si Si3 0.728391 0.022880 0.920974
Si Si4 0.535820 0.185423 0.068790
Si Si5 0.736349 0.881363 0.579294
Si Si6 0.438140 0.549470 0.564991
Si Si7 0.882260 0.471293 0.568350
Si Si8 0.978697 0.585230 0.568343
O O1 0.876315 0.750000 0.500000
O O2 0.898934 0.816127 0.750000
O O3 0.811630 0.852013 0.517182
O O4 0.954136 0.847301 0.480466
O O5 0.331711 0.250000 0.500000
O O6 0.402042 0.197761 0.750000
O O7 0.448017 0.189703 0.456061
O O8 0.328469 0.132122 0.545651
O O9 0.727940 0.052772 0.750000
O O10 0.645370 0.031105 0.993814
O O11 0.748105 0.952480 0.911864
O O12 0.799090 0.049519 0.014074
O O13 0.556302 0.181762 0.250000
O O14 0.571681 0.250000 0.000000
O O15 0.556167 0.120636 0.987283
O O16 0.714990 0.855532 0.750000
O O17 0.500000 0.500000 0.500000
O O18 0.445588 0.545905 0.750000
O O19 0.878034 0.473425 0.750000
O O20 0.916395 0.536247 0.506494
O O21 0.940765 0.420917 0.511531
O O22 0.989678 0.578517 0.750000
#
# Coordination Sequence:
#
# PCOD8232365 Si02
#       8
#     8   8   8   8   8   8   8   8
#     4  11  22  35  53  77 112 152 193 233 278 338
#     4  11  21  33  51  74 103 141 188 236 284 344
#     4  10  21  37  57  82 115 150 188 236 291 346
#     4  11  22  39  61  83 112 150 198 251 304 367
#     4  10  20  34  51  75 109 149 189 232 280 335
#     4  11  23  39  61  91 125 163 203 251 309 365
#     4  10  20  34  57  85 111 142 183 233 285 338
#     4  10  20  35  56  81 111 145 186 231 279 333
#
# _framework density 18.989184000000002
#
# number of rings (size 3 to 8) (size 9 to 14) (size 15 to 20)
#    0.000    1.500    1.250    5.625    0.000    5.500 
#    0.000    0.000    0.000    0.750    0.000    1.750 
#    0.000    0.000    0.000    0.000    0.000    0.000 
#
# Total GULP energy -792878.594084 kJ/mol
# GULP energy per Si atom -12388.728033 kJ/mol
# Density = 1.894596 g / cm^3
# Si number density = 18.989184 Si / 1000 Ang^3
#
#
#
# Elastic Constant Matrix: (Units=GPa)
#
#
# Indices 1 2 3 4 5 6 
#
# 1 126.5638 41.6260 36.1324 0.0000 0.0000 0.0000
# 2 41.6260 99.6601 20.4796 0.0000 0.0000 0.0000
# 3 36.1324 20.4796 57.6786 0.0000 0.0000 0.0000
# 4 0.0000 0.0000 0.0000 30.8357 0.0000 0.0000
# 5 0.0000 0.0000 0.0000 0.0000 28.6222 0.0000
# 6 0.0000 0.0000 0.0000 0.0000 0.0000 27.8622
#
#
#
# Elastic Compliance Matrix: (Units=1/GPa)
#
#
# Indices 1 2 3 4 5 6 
#
# 1 0.010532 -0.003283 -0.005432 0.000000 0.000000 0.000000
# 2 -0.003283 0.011847 -0.002150 0.000000 0.000000 0.000000
# 3 -0.005432 -0.002150 0.021504 0.000000 0.000000 0.000000
# 4 0.000000 0.000000 0.000000 0.032430 0.000000 0.000000
# 5 0.000000 0.000000 0.000000 0.000000 0.034938 0.000000
# 6 0.000000 0.000000 0.000000 0.000000 0.000000 0.035891
#
#
# Mechanical properties :
#
#
# Convention : Reuss Voigt Hill
#
# Bulk Modulus (GPa) = 45.14048 53.37539 49.25794
# Shear Modulus (GPa) = 28.36808 29.84164 29.10486
#
# Velocity S-wave (km/s) = 3.86930 3.96852 3.91923
# Velocity P-wave (km/s) = 6.61705 7.01201 6.81739
#
# Compressibility (1/GPa) = 0.02215306
#
# Stress axis : x y z
#
# Youngs Moduli (GPa) = 94.95312 84.40956 46.50375
#
# Poissons Ratio (x) = 0.27708 0.25260
# Poissons Ratio (y) = 0.31169 0.09999
# Poissons Ratio (z) = 0.51577 0.18149
#
# Static dielectric constant tensor:
#      x y z
#    x 3.494120 0.000000 0.000000 
#    y 0.000000 3.796930 0.000000 
#    z 0.000000 0.000000 3.657140 
# 
# 
# High freq. dielectric constant tensor:
#      x y z
#    x 1.726170 0.000000 0.000000 
#    y 0.000000 1.727690 0.000000 
#    z 0.000000 0.000000 1.745030 
# 
# From -- ./inp_files/7142.got.cif
#   From: 2010.03.12/outbox.cif.g09.slc.cpg/sg57_4_cif.got.tgz:7142.got - 2010.04.16 15:48:40.
