data_PCOD8232620
_publ_section_title
;
Structure prediction by ZEFSAII (Michael W. Deem and Ramdas Pophale) SiO2 
 PCOD8232620
Probable space group: P B C M
;
_chemical_formula_sum "Si O2"
_cell_formula_units_Z 56
_cell_length_a 11.731675
_cell_length_b 20.955573
_cell_length_c 10.775217
_cell_angle_alpha 90.000000
_cell_angle_beta 90.000000
_cell_angle_gamma 90.000000
_cell_volume 2649.022145
_symmetry_space_group_name_H-M "P B C M"
_symmetry_group_IT_number 57
_symmetry_cell_setting 'orthorhombic'
loop_
_space_group_symop_operation_xyz
x,y,z
-x,-y,1/2+z
x,1/2-y,-z
-x,1/2+y,1/2-z
-x,-y,-z
x,y,1/2-z
-x,1/2+y,z
x,1/2-y,1/2+z
loop_
_atom_site_type_symbol
_atom_site_label
_atom_site_fract_x
_atom_site_fract_y
_atom_site_fract_z
Si Si1 0.885224 0.038855 0.884952
Si Si2 0.418247 0.510171 0.384848
Si Si3 0.293934 0.116448 0.888272
Si Si4 0.920104 0.596559 0.466346
Si Si5 0.518591 0.195899 0.605136
Si Si6 0.292436 0.621814 0.477491
Si Si7 0.090369 0.701607 0.388358
O O1 0.859519 0.065804 0.750000
O O2 0.788235 0.066793 0.971077
O O3 0.009518 0.064907 0.921536
O O4 0.881786 0.961944 0.879614
O O5 0.500000 0.500000 0.500000
O O6 0.479594 0.499566 0.250000
O O7 0.316065 0.459320 0.396117
O O8 0.372655 0.582905 0.382965
O O9 0.256782 0.136512 0.750000
O O10 0.190579 0.133595 0.980637
O O11 0.407800 0.154080 0.925767
O O12 0.996562 0.645973 0.389623
O O13 0.520785 0.250000 0.500000
O O14 0.517814 0.220070 0.750000
O O15 0.632265 0.153854 0.585890
O O16 0.218130 0.674909 0.406740
O O17 0.061753 0.750000 0.500000
O O18 0.085740 0.733356 0.250000
#
# Coordination Sequence:
#
# PCOD8232620 Si02
#       7
#     8   8   8   8   8   8   8
#     4  10  20  34  59  95 129 161 202 257 319 381
#     4  11  22  39  63  96 134 168 206 258 322 387
#     4  10  21  40  63  91 129 170 212 259 318 381
#     4  10  21  39  61  91 126 167 212 257 316 379
#     4  11  25  44  65  91 127 170 218 266 313 377
#     4  11  22  40  67  97 127 163 210 260 326 382
#     4  11  26  45  66  93 128 171 219 267 315 374
#
# _framework density 21.139876000000001
#
# number of rings (size 3 to 8) (size 9 to 14) (size 15 to 20)
#    0.000    1.429    2.857    2.143    0.000    6.857 
#    0.000    2.857    0.000    0.000    0.000    0.000 
#    0.000    0.000    0.000    0.000    0.000    0.000 
#
# Total GULP energy -694112.516429 kJ/mol
# GULP energy per Si atom -12394.866365 kJ/mol
# Density = 2.109176 g / cm^3
# Si number density = 21.139876 Si / 1000 Ang^3
#
#
#
# Elastic Constant Matrix: (Units=GPa)
#
#
# Indices 1 2 3 4 5 6 
#
# 1 108.5782 22.8001 43.3602 0.0000 0.0000 0.0000
# 2 22.8001 88.1768 37.4236 0.0000 0.0000 0.0000
# 3 43.3602 37.4236 147.9241 0.0000 0.0000 0.0000
# 4 0.0000 0.0000 0.0000 23.7042 0.0000 0.0000
# 5 0.0000 0.0000 0.0000 0.0000 20.6652 0.0000
# 6 0.0000 0.0000 0.0000 0.0000 0.0000 30.0570
#
#
#
# Elastic Compliance Matrix: (Units=1/GPa)
#
#
# Indices 1 2 3 4 5 6 
#
# 1 0.010628 -0.001597 -0.002711 0.000000 0.000000 0.000000
# 2 -0.001597 0.012945 -0.002807 0.000000 0.000000 0.000000
# 3 -0.002711 -0.002807 0.008265 0.000000 0.000000 0.000000
# 4 0.000000 0.000000 0.000000 0.042187 0.000000 0.000000
# 5 0.000000 0.000000 0.000000 0.000000 0.048391 0.000000
# 6 0.000000 0.000000 0.000000 0.000000 0.000000 0.033270
#
#
# Mechanical properties :
#
#
# Convention : Reuss Voigt Hill
#
# Bulk Modulus (GPa) = 56.79423 61.31631 59.05527
# Shear Modulus (GPa) = 28.44373 30.95829 29.70101
#
# Velocity S-wave (km/s) = 3.67209 3.83096 3.75237
# Velocity P-wave (km/s) = 6.70099 6.97398 6.83885
#
# Compressibility (1/GPa) = 0.01760742
#
# Stress axis : x y z
#
# Youngs Moduli (GPa) = 94.09009 77.24900 120.99160
#
# Poissons Ratio (x) = 0.12340 0.32803
# Poissons Ratio (y) = 0.15031 0.33959
# Poissons Ratio (z) = 0.25510 0.21682
#
# Static dielectric constant tensor:
#      x y z
#    x 3.799300 0.000000 0.000000 
#    y 0.000000 3.771630 0.000000 
#    z 0.000000 0.000000 3.766780 
# 
# 
# High freq. dielectric constant tensor:
#      x y z
#    x 1.827930 0.000000 0.000000 
#    y 0.000000 1.819310 0.000000 
#    z 0.000000 0.000000 1.828400 
# 
# From -- ./inp_files/13104.got.cif
#   From: 2010.03.12/outbox.cif.g09.slc.cpg/sg57_7_cif.got.tgz:13104.got - 2010.04.16 15:48:40.
