data_PCOD8232400
_publ_section_title
;
Structure prediction by ZEFSAII (Michael W. Deem and Ramdas Pophale) SiO2 
 PCOD8232400
Probable space group: P B C M
;
_chemical_formula_sum "Si O2"
_cell_formula_units_Z 64
_cell_length_a 20.348623
_cell_length_b 18.515832
_cell_length_c 9.163868
_cell_angle_alpha 90.000000
_cell_angle_beta 90.000000
_cell_angle_gamma 90.000000
_cell_volume 3452.685987
_symmetry_space_group_name_H-M "P B C M"
_symmetry_group_IT_number 57
_symmetry_cell_setting 'orthorhombic'
loop_
_space_group_symop_operation_xyz
x,y,z
-x,-y,1/2+z
x,1/2-y,-z
-x,1/2+y,1/2-z
-x,-y,-z
x,y,1/2-z
-x,1/2+y,z
x,1/2-y,1/2+z
loop_
_atom_site_type_symbol
_atom_site_label
_atom_site_fract_x
_atom_site_fract_y
_atom_site_fract_z
Si Si1 0.931221 0.420333 0.421209
Si Si2 0.319997 0.914805 0.422458
Si Si3 0.575892 0.822477 0.580328
Si Si4 0.191401 0.674142 0.578554
Si Si5 0.691467 0.577181 0.422489
Si Si6 0.425424 0.675872 0.078320
Si Si7 0.938288 0.914664 0.579313
Si Si8 0.188764 0.326208 0.923090
O O1 0.941269 0.411922 0.250000
O O2 0.868695 0.375275 0.476076
O O3 0.919487 0.503601 0.465279
O O4 0.996041 0.388837 0.497976
O O5 0.334709 0.913048 0.250000
O O6 0.258565 0.865255 0.464779
O O7 0.383427 0.888332 0.510049
O O8 0.305170 0.995404 0.480019
O O9 0.597607 0.750000 0.500000
O O10 0.585863 0.807222 0.750000
O O11 0.622932 0.886940 0.525940
O O12 0.501027 0.843638 0.544709
O O13 0.187803 0.750000 0.500000
O O14 0.187397 0.687259 0.750000
O O15 0.696389 0.575522 0.250000
O O16 0.752892 0.622782 0.483031
O O17 0.411603 0.683870 0.250000
O O18 0.404926 0.750000 0.000000
O O19 0.951738 0.909099 0.750000
O O20 0.879628 0.862626 0.530107
O O21 0.193234 0.315703 0.750000
O O22 0.195512 0.250000 0.000000
#
# Coordination Sequence:
#
# PCOD8232400 Si02
#       8
#     8   8   8   8   8   8   8   8
#     4   9  18  34  54  74  98 130 167 204 244 294
#     4  10  20  35  55  76 100 133 171 210 254 303
#     4   9  18  33  53  76 103 135 170 207 248 298
#     4  10  21  35  52  74  99 129 166 207 248 293
#     4   9  18  34  55  76 100 134 172 208 251 302
#     4  10  20  34  52  76 105 135 168 207 251 299
#     4   9  18  33  53  76 101 130 164 203 247 294
#     4  10  20  34  53  76 103 134 169 209 251 299
#
# _framework density 18.536293000000001
#
# number of rings (size 3 to 8) (size 9 to 14) (size 15 to 20)
#    0.000    2.500    0.000    1.875    0.000    7.000 
#    0.000    3.750    0.000    3.000    0.000    0.000 
#    0.000    0.000    0.000    0.000    0.000    0.000 
#
# Total GULP energy -793729.094733 kJ/mol
# GULP energy per Si atom -12402.017105 kJ/mol
# Density = 1.849410 g / cm^3
# Si number density = 18.536293 Si / 1000 Ang^3
#
#
#
# Elastic Constant Matrix: (Units=GPa)
#
#
# Indices 1 2 3 4 5 6 
#
# 1 96.8880 37.1123 28.1933 0.0000 0.0000 0.0000
# 2 37.1123 86.3592 24.1991 0.0000 0.0000 0.0000
# 3 28.1933 24.1991 32.8395 0.0000 0.0000 0.0000
# 4 0.0000 0.0000 0.0000 30.4392 0.0000 0.0000
# 5 0.0000 0.0000 0.0000 0.0000 23.7671 0.0000
# 6 0.0000 0.0000 0.0000 0.0000 0.0000 38.8638
#
#
#
# Elastic Compliance Matrix: (Units=1/GPa)
#
#
# Indices 1 2 3 4 5 6 
#
# 1 0.014537 -0.003466 -0.009927 0.000000 0.000000 0.000000
# 2 -0.003466 0.015419 -0.008387 0.000000 0.000000 0.000000
# 3 -0.009927 -0.008387 0.045154 0.000000 0.000000 0.000000
# 4 0.000000 0.000000 0.000000 0.032852 0.000000 0.000000
# 5 0.000000 0.000000 0.000000 0.000000 0.042075 0.000000
# 6 0.000000 0.000000 0.000000 0.000000 0.000000 0.025731
#
#
# Mechanical properties :
#
#
# Convention : Reuss Voigt Hill
#
# Bulk Modulus (GPa) = 31.69419 43.89958 37.79689
# Shear Modulus (GPa) = 21.75392 27.05280 24.40336
#
# Velocity S-wave (km/s) = 3.42948 3.82442 3.63232
# Velocity P-wave (km/s) = 5.72864 6.57541 6.16658
#
# Compressibility (1/GPa) = 0.03155152
#
# Stress axis : x y z
#
# Youngs Moduli (GPa) = 68.78875 64.85509 22.14664
#
# Poissons Ratio (x) = 0.22477 0.21984
# Poissons Ratio (y) = 0.23840 0.18574
# Poissons Ratio (z) = 0.68284 0.54392
#
# Static dielectric constant tensor:
#      x y z
#    x 3.611580 0.000000 0.000000 
#    y 0.000000 3.481270 0.000000 
#    z 0.000000 0.000000 3.207270 
# 
# 
# High freq. dielectric constant tensor:
#      x y z
#    x 1.733770 0.000000 0.000000 
#    y 0.000000 1.721620 0.000000 
#    z 0.000000 0.000000 1.698050 
# 
# From -- ./inp_files/8484.got.cif
#   From: 2010.03.12/outbox.cif.g09.slc.cpg/sg57_5_cif.got.tgz:8484.got - 2010.04.16 15:48:40.
