data_PCOD8232345
_publ_section_title
;
Structure prediction by ZEFSAII (Michael W. Deem and Ramdas Pophale) SiO2 
 PCOD8232345
Probable space group: P B C M
;
_chemical_formula_sum "Si O2"
_cell_formula_units_Z 56
_cell_length_a 31.769671
_cell_length_b 5.240070
_cell_length_c 13.133782
_cell_angle_alpha 90.000000
_cell_angle_beta 90.000000
_cell_angle_gamma 90.000000
_cell_volume 2186.450297
_symmetry_space_group_name_H-M "P B C M"
_symmetry_group_IT_number 57
_symmetry_cell_setting 'orthorhombic'
loop_
_space_group_symop_operation_xyz
x,y,z
-x,-y,1/2+z
x,1/2-y,-z
-x,1/2+y,1/2-z
-x,-y,-z
x,y,1/2-z
-x,1/2+y,z
x,1/2-y,1/2+z
loop_
_atom_site_type_symbol
_atom_site_label
_atom_site_fract_x
_atom_site_fract_y
_atom_site_fract_z
Si Si1 0.881342 0.901704 0.128331
Si Si2 0.976791 0.598308 0.628367
Si Si3 0.696697 0.898810 0.366199
Si Si4 0.739384 0.399249 0.128050
Si Si5 0.518733 0.318500 0.884691
Si Si6 0.393279 0.998077 0.936732
Si Si7 0.835109 0.098247 0.628556
O O1 0.879221 0.901073 0.250000
O O2 0.863010 0.635265 0.084992
O O3 0.929068 0.933340 0.090509
O O4 0.853255 0.134997 0.085023
O O5 0.978885 0.598797 0.750000
O O6 0.995180 0.864792 0.585243
O O7 0.711501 0.890261 0.250000
O O8 0.710952 0.631177 0.417302
O O9 0.721278 0.135006 0.418662
O O10 0.646386 0.924585 0.368701
O O11 0.735552 0.392087 0.250000
O O12 0.787247 0.435223 0.092306
O O13 0.490024 0.541441 0.833190
O O14 0.566918 0.408097 0.869519
O O15 0.506291 0.250000 0.000000
O O16 0.379356 0.750000 0.000000
O O17 0.407082 0.250000 0.000000
O O18 0.837856 0.099460 0.750000
#
# Coordination Sequence:
#
# PCOD8232345 Si02
#       7
#     8   8   8   8   8   8   8
#     4   9  15  21  30  44  62  86 119 166 220 264
#     4   9  15  21  27  36  54  82 116 155 207 268
#     4  10  20  34  50  69  96 128 158 190 238 292
#     4   9  17  29  45  63  84 114 149 185 230 284
#     4   9  16  28  47  71  96 122 155 194 232 271
#     4  11  21  33  52  77 101 126 160 200 237 274
#     4   9  15  23  35  51  69  90 125 172 219 263
#
# _framework density 25.612290000000002
#
# number of rings (size 3 to 8) (size 9 to 14) (size 15 to 20)
#    0.000    2.571    0.000    4.714    0.000    6.857 
#    0.000    0.000    0.000    0.857    0.000    0.000 
#    0.000    1.143    0.000    0.000    0.000    0.000 
#
# Total GULP energy -694342.857508 kJ/mol
# GULP energy per Si atom -12398.979598 kJ/mol
# Density = 2.555400 g / cm^3
# Si number density = 25.612290 Si / 1000 Ang^3
#
#
#
# Elastic Constant Matrix: (Units=GPa)
#
#
# Indices 1 2 3 4 5 6 
#
# 1 218.8993 119.2359 -9.4599 0.0000 0.0000 0.0000
# 2 119.2359 260.5452 21.4996 0.0000 0.0000 0.0000
# 3 -9.4599 21.4996 22.8036 0.0000 0.0000 0.0000
# 4 0.0000 0.0000 0.0000 -22.9364 0.0000 0.0000
# 5 0.0000 0.0000 0.0000 0.0000 17.9566 0.0000
# 6 0.0000 0.0000 0.0000 0.0000 0.0000 57.6784
#
#
#
# Elastic Compliance Matrix: (Units=1/GPa)
#
#
# Indices 1 2 3 4 5 6 
#
# 1 0.006820 -0.003638 0.006259 0.000000 0.000000 0.000000
# 2 -0.003638 0.006102 -0.007262 0.000000 0.000000 0.000000
# 3 0.006259 -0.007262 0.053296 0.000000 0.000000 0.000000
# 4 0.000000 0.000000 0.000000 -0.043599 0.000000 0.000000
# 5 0.000000 0.000000 0.000000 0.000000 0.055690 0.000000
# 6 0.000000 0.000000 0.000000 0.000000 0.000000 0.017338
#
#
# Mechanical properties :
#
#
# Convention : Reuss Voigt Hill
#
# Bulk Modulus (GPa) = 17.56338 84.97771 51.27054
# Shear Modulus (GPa) = 40.35260 35.27122 37.81191
#
# Velocity S-wave (km/s) = 3.97358 3.71498 3.84646
# Velocity P-wave (km/s) = 5.28439 7.18693 6.30780
#
# Compressibility (1/GPa) = 0.05693665
#
# Stress axis : x y z
#
# Youngs Moduli (GPa) = 146.62147 163.87711 18.76309
#
# Poissons Ratio (x) = 0.59614 -0.11744
# Poissons Ratio (y) = 0.53337 0.13626
# Poissons Ratio (z) = -0.91771 1.19012
#
# Static dielectric constant tensor:
#      x y z
#    x 4.399350 0.000000 0.000000 
#    y 0.000000 5.203440 0.000000 
#    z 0.000000 0.000000 4.223810 
# 
# 
# High freq. dielectric constant tensor:
#      x y z
#    x 2.016780 0.000000 0.000000 
#    y 0.000000 2.047500 0.000000 
#    z 0.000000 0.000000 2.028700 
# 
# From -- ./inp_files/19640.got.cif
#   From: 2010.03.12/outbox.cif.g09.slc.cpg/sg57_10_cif.got.tgz:19640.got - 2010.04.16 15:48:40.
