data_PCOD8232538
_publ_section_title
;
Structure prediction by ZEFSAII (Michael W. Deem and Ramdas Pophale) SiO2 
 PCOD8232538
Probable space group: P B C M
;
_chemical_formula_sum "Si O2"
_cell_formula_units_Z 48
_cell_length_a 7.680072
_cell_length_b 19.053817
_cell_length_c 17.418556
_cell_angle_alpha 90.000000
_cell_angle_beta 90.000000
_cell_angle_gamma 90.000000
_cell_volume 2548.938930
_symmetry_space_group_name_H-M "P B C M"
_symmetry_group_IT_number 57
_symmetry_cell_setting 'orthorhombic'
loop_
_space_group_symop_operation_xyz
x,y,z
-x,-y,1/2+z
x,1/2-y,-z
-x,1/2+y,1/2-z
-x,-y,-z
x,y,1/2-z
-x,1/2+y,z
x,1/2-y,1/2+z
loop_
_atom_site_type_symbol
_atom_site_label
_atom_site_fract_x
_atom_site_fract_y
_atom_site_fract_z
Si Si1 0.511369 0.156480 0.658924
Si Si2 0.199242 0.602265 0.158803
Si Si3 0.496343 0.497329 0.841402
Si Si4 0.818518 0.746259 0.659586
Si Si5 0.187767 0.747560 0.909431
Si Si6 0.812701 0.904454 0.840476
O O1 0.534826 0.161387 0.750000
O O2 0.335331 0.195260 0.632425
O O3 0.678584 0.189362 0.619367
O O4 0.496680 0.076748 0.629079
O O5 0.206622 0.611433 0.250000
O O6 0.334151 0.544247 0.128670
O O7 0.246101 0.677577 0.123911
O O8 0.007742 0.577563 0.131195
O O9 0.493437 0.495838 0.750000
O O10 0.325509 0.458877 0.876501
O O11 0.853323 0.740886 0.750000
O O12 0.763764 0.825101 0.635733
O O13 0.996093 0.724242 0.617815
O O14 0.191333 0.750000 0.000000
O O15 0.803157 0.911993 0.750000
#
# Coordination Sequence:
#
# PCOD8232538 Si02
#       6
#     8   8   8   8   8   8
#     4  10  20  34  55  82 108 134 169 219 272 314
#     4   9  17  32  53  74  98 133 176 215 253 306
#     4   9  17  29  50  80 106 129 164 214 267 312
#     4   9  18  34  56  78 101 135 178 220 259 304
#     4  11  22  35  53  77 106 141 178 217 262 311
#     4   8  14  26  47  73  97 124 162 207 252 299
#
# _framework density 18.831365000000002
#
# number of rings (size 3 to 8) (size 9 to 14) (size 15 to 20)
#    0.000    2.667    0.000    3.500    0.000    4.667 
#    0.000    5.833    0.000    5.000    0.000    0.000 
#    0.000    0.000    0.000    0.000    0.000    0.000 
#
# Total GULP energy -595137.940657 kJ/mol
# GULP energy per Si atom -12398.707097 kJ/mol
# Density = 1.878850 g / cm^3
# Si number density = 18.831365 Si / 1000 Ang^3
#
#
#
# Elastic Constant Matrix: (Units=GPa)
#
#
# Indices 1 2 3 4 5 6 
#
# 1 140.5547 105.8320 19.3505 0.0000 0.0000 0.0000
# 2 105.8320 157.6731 22.3569 0.0000 0.0000 0.0000
# 3 19.3505 22.3569 33.3956 0.0000 0.0000 0.0000
# 4 0.0000 0.0000 0.0000 5.3584 0.0000 0.0000
# 5 0.0000 0.0000 0.0000 0.0000 4.5219 0.0000
# 6 0.0000 0.0000 0.0000 0.0000 0.0000 20.5936
#
#
#
# Elastic Compliance Matrix: (Units=1/GPa)
#
#
# Indices 1 2 3 4 5 6 
#
# 1 0.014515 -0.009447 -0.002086 0.000000 0.000000 0.000000
# 2 -0.009447 0.013156 -0.003333 0.000000 0.000000 0.000000
# 3 -0.002086 -0.003333 0.033384 0.000000 0.000000 0.000000
# 4 0.000000 0.000000 0.000000 0.186624 0.000000 0.000000
# 5 0.000000 0.000000 0.000000 0.000000 0.221145 0.000000
# 6 0.000000 0.000000 0.000000 0.000000 0.000000 0.048559
#
#
# Mechanical properties :
#
#
# Convention : Reuss Voigt Hill
#
# Bulk Modulus (GPa) = 31.92613 69.63357 50.77985
# Shear Modulus (GPa) = 8.96769 18.36703 13.66736
#
# Velocity S-wave (km/s) = 2.18459 3.12644 2.69695
# Velocity P-wave (km/s) = 4.83257 7.07747 6.05988
#
# Compressibility (1/GPa) = 0.03132231
#
# Stress axis : x y z
#
# Youngs Moduli (GPa) = 68.89461 76.01280 29.95406
#
# Poissons Ratio (x) = 0.71808 0.06249
# Poissons Ratio (y) = 0.65083 0.09985
# Poissons Ratio (z) = 0.14373 0.25338
#
# Static dielectric constant tensor:
#      x y z
#    x 3.781960 0.000000 0.000000 
#    y 0.000000 3.698690 0.000000 
#    z 0.000000 0.000000 2.954950 
# 
# 
# High freq. dielectric constant tensor:
#      x y z
#    x 1.748410 0.000000 0.000000 
#    y 0.000000 1.732380 0.000000 
#    z 0.000000 0.000000 1.681440 
# 
# From -- ./inp_files/20940.got.cif
#   From: 2010.03.12/outbox.cif.g09.slc.cpg/sg57_11_cif.got.tgz:20940.got - 2010.04.16 15:48:40.
