data_PCOD8232861
_publ_section_title
;
Structure prediction by ZEFSAII (Michael W. Deem and Ramdas Pophale) SiO2 
 PCOD8232861
Probable space group: P B C M
;
_chemical_formula_sum "Si O2"
_cell_formula_units_Z 48
_cell_length_a 18.343607
_cell_length_b 15.256725
_cell_length_c 8.599209
_cell_angle_alpha 90.000000
_cell_angle_beta 90.000000
_cell_angle_gamma 90.000000
_cell_volume 2406.603589
_symmetry_space_group_name_H-M "P B C M"
_symmetry_group_IT_number 57
_symmetry_cell_setting 'orthorhombic'
loop_
_space_group_symop_operation_xyz
x,y,z
-x,-y,1/2+z
x,1/2-y,-z
-x,1/2+y,1/2-z
-x,-y,-z
x,y,1/2-z
-x,1/2+y,z
x,1/2-y,1/2+z
loop_
_atom_site_type_symbol
_atom_site_label
_atom_site_fract_x
_atom_site_fract_y
_atom_site_fract_z
Si Si1 0.062233 0.657822 0.566653
Si Si2 0.095250 0.344433 0.565289
Si Si3 0.599009 0.659318 0.431973
Si Si4 0.331353 0.505634 0.429281
Si Si5 0.434818 0.841688 0.934063
Si Si6 0.836402 0.487033 0.570188
O O1 0.091811 0.750000 0.500000
O O2 0.048800 0.666337 0.750000
O O3 0.120210 0.582666 0.532579
O O4 0.986956 0.632265 0.483639
O O5 0.118757 0.250000 0.500000
O O6 0.102073 0.345256 0.750000
O O7 0.148936 0.415534 0.491429
O O8 0.629402 0.750000 0.500000
O O9 0.597263 0.669293 0.250000
O O10 0.653882 0.583120 0.478612
O O11 0.517055 0.640084 0.494568
O O12 0.349746 0.488087 0.250000
O O13 0.382723 0.581841 0.498701
O O14 0.248306 0.534495 0.452478
O O15 0.430696 0.837655 0.750000
O O16 0.405506 0.750000 0.000000
O O17 0.859925 0.479495 0.750000
#
# Coordination Sequence:
#
# PCOD8232861 Si02
#       6
#     8   8   8   8   8   8
#     4  11  22  39  62  87 114 147 187 232 278 330
#     4  11  22  39  62  87 113 145 187 234 280 332
#     4  10  20  35  58  83 110 143 185 231 278 330
#     4  10  22  38  56  80 114 149 185 228 277 329
#     4   9  19  36  57  83 110 143 184 230 278 327
#     4  11  23  39  57  82 116 153 188 229 279 334
#
# _framework density 19.945119999999999
#
# number of rings (size 3 to 8) (size 9 to 14) (size 15 to 20)
#    0.000    1.667    0.000    6.000    0.000    4.000 
#    0.000    1.667    0.000    0.000    0.000    0.000 
#    0.000    0.000    0.000    0.000    0.000    0.000 
#
# Total GULP energy -595454.260421 kJ/mol
# GULP energy per Si atom -12405.297092 kJ/mol
# Density = 1.989972 g / cm^3
# Si number density = 19.945120 Si / 1000 Ang^3
#
#
#
# Elastic Constant Matrix: (Units=GPa)
#
#
# Indices 1 2 3 4 5 6 
#
# 1 43.0459 19.5936 13.6935 0.0000 0.0000 0.0000
# 2 19.5936 93.1621 12.9046 0.0000 0.0000 0.0000
# 3 13.6935 12.9046 63.2306 0.0000 0.0000 0.0000
# 4 0.0000 0.0000 0.0000 38.5582 0.0000 0.0000
# 5 0.0000 0.0000 0.0000 0.0000 24.0009 0.0000
# 6 0.0000 0.0000 0.0000 0.0000 0.0000 14.8624
#
#
#
# Elastic Compliance Matrix: (Units=1/GPa)
#
#
# Indices 1 2 3 4 5 6 
#
# 1 0.027054 -0.005020 -0.004834 0.000000 0.000000 0.000000
# 2 -0.005020 0.011978 -0.001357 0.000000 0.000000 0.000000
# 3 -0.004834 -0.001357 0.017139 0.000000 0.000000 0.000000
# 4 0.000000 0.000000 0.000000 0.025935 0.000000 0.000000
# 5 0.000000 0.000000 0.000000 0.000000 0.041665 0.000000
# 6 0.000000 0.000000 0.000000 0.000000 0.000000 0.067284
#
#
# Mechanical properties :
#
#
# Convention : Reuss Voigt Hill
#
# Bulk Modulus (GPa) = 29.63224 32.42467 31.02846
# Shear Modulus (GPa) = 22.24914 25.70076 23.97495
#
# Velocity S-wave (km/s) = 3.34356 3.59357 3.47081
# Velocity P-wave (km/s) = 5.45848 5.78883 5.62608
#
# Compressibility (1/GPa) = 0.03374702
#
# Stress axis : x y z
#
# Youngs Moduli (GPa) = 36.96305 83.48747 58.34614
#
# Poissons Ratio (x) = 0.41913 0.28207
# Poissons Ratio (y) = 0.18557 0.07919
# Poissons Ratio (z) = 0.17869 0.11332
#
# Static dielectric constant tensor:
#      x y z
#    x 3.579620 0.000000 0.000000 
#    y 0.000000 3.770330 0.000000 
#    z 0.000000 0.000000 3.632060 
# 
# 
# High freq. dielectric constant tensor:
#      x y z
#    x 1.769060 0.000000 0.000000 
#    y 0.000000 1.789530 0.000000 
#    z 0.000000 0.000000 1.784270 
# 
# From -- ./inp_files/6492.got.cif
#   From: 2010.03.12/outbox.cif.g09.slc.cpg/sg57_4_cif.got.tgz:6492.got - 2010.04.16 15:48:40.
