data_PCOD8232626
_publ_section_title
;
Structure prediction by ZEFSAII (Michael W. Deem and Ramdas Pophale) SiO2 
 PCOD8232626
Probable space group: P B C M
;
_chemical_formula_sum "Si O2"
_cell_formula_units_Z 60
_cell_length_a 16.722917
_cell_length_b 19.436678
_cell_length_c 8.670472
_cell_angle_alpha 90.000000
_cell_angle_beta 90.000000
_cell_angle_gamma 90.000000
_cell_volume 2818.232470
_symmetry_space_group_name_H-M "P B C M"
_symmetry_group_IT_number 57
_symmetry_cell_setting 'orthorhombic'
loop_
_space_group_symop_operation_xyz
x,y,z
-x,-y,1/2+z
x,1/2-y,-z
-x,1/2+y,1/2-z
-x,-y,-z
x,y,1/2-z
-x,1/2+y,z
x,1/2-y,1/2+z
loop_
_atom_site_type_symbol
_atom_site_label
_atom_site_fract_x
_atom_site_fract_y
_atom_site_fract_z
Si Si1 0.454981 0.682378 0.925589
Si Si2 0.270364 0.458771 0.072049
Si Si3 0.296905 0.601870 0.573387
Si Si4 0.152688 0.676756 0.433933
Si Si5 0.152537 0.365889 0.569366
Si Si6 0.013118 0.924792 0.930432
Si Si7 0.259516 0.250000 0.500000
Si Si8 0.618868 0.644827 0.417078
O O1 0.480805 0.695861 0.750000
O O2 0.389059 0.623527 0.937144
O O3 0.415686 0.750000 0.000000
O O4 0.532838 0.665538 0.023633
O O5 0.246372 0.452861 0.250000
O O6 0.291552 0.536356 0.035065
O O7 0.195223 0.438642 0.964292
O O8 0.345383 0.409256 0.038048
O O9 0.273383 0.585942 0.750000
O O10 0.238924 0.660748 0.506826
O O11 0.122597 0.750000 0.500000
O O12 0.157788 0.681287 0.250000
O O13 0.092582 0.615119 0.486433
O O14 0.163882 0.344900 0.750000
O O15 0.196442 0.310732 0.453633
O O16 0.060001 0.373882 0.525937
O O17 0.015873 0.937059 0.750000
O O18 0.000000 0.000000 0.000000
O O19 0.321904 0.289196 0.612407
O O20 0.609284 0.609273 0.250000
#
# Coordination Sequence:
#
# PCOD8232626 Si02
#       8
#     8   8   8   8   8   8   4   8
#     4  11  24  40  63  91 121 159 205 256 310 373
#     4  11  23  39  62  92 125 163 210 258 310 377
#     4  11  24  43  65  90 123 164 211 261 317 374
#     4  11  24  42  66  95 129 168 215 267 321 380
#     4  10  22  40  62  89 126 167 208 256 312 375
#     4  10  23  42  64  93 128 168 216 264 320 383
#     4  10  20  34  62  92 120 158 204 250 304 374
#     4  11  23  40  63  89 126 166 203 253 312 374
#
# _framework density 21.289940000000001
#
# number of rings (size 3 to 8) (size 9 to 14) (size 15 to 20)
#    0.000    1.333    0.667    5.200    0.933   12.267 
#    0.000    0.000    0.000    0.000    0.000    0.000 
#    0.000    0.000    0.000    0.000    0.000    0.000 
#
# Total GULP energy -743470.500298 kJ/mol
# GULP energy per Si atom -12391.175005 kJ/mol
# Density = 2.124148 g / cm^3
# Si number density = 21.289940 Si / 1000 Ang^3
#
#
#
# Elastic Constant Matrix: (Units=GPa)
#
#
# Indices 1 2 3 4 5 6 
#
# 1 120.8798 37.3245 37.0389 0.0000 0.0000 0.0000
# 2 37.3245 104.6778 30.0696 0.0000 0.0000 0.0000
# 3 37.0389 30.0696 86.1455 0.0000 0.0000 0.0000
# 4 0.0000 0.0000 0.0000 30.1127 0.0000 0.0000
# 5 0.0000 0.0000 0.0000 0.0000 18.5596 0.0000
# 6 0.0000 0.0000 0.0000 0.0000 0.0000 20.4516
#
#
#
# Elastic Compliance Matrix: (Units=1/GPa)
#
#
# Indices 1 2 3 4 5 6 
#
# 1 0.010138 -0.002626 -0.003442 0.000000 0.000000 0.000000
# 2 -0.002626 0.011298 -0.002815 0.000000 0.000000 0.000000
# 3 -0.003442 -0.002815 0.014071 0.000000 0.000000 0.000000
# 4 0.000000 0.000000 0.000000 0.033209 0.000000 0.000000
# 5 0.000000 0.000000 0.000000 0.000000 0.053880 0.000000
# 6 0.000000 0.000000 0.000000 0.000000 0.000000 0.048896
#
#
# Mechanical properties :
#
#
# Convention : Reuss Voigt Hill
#
# Bulk Modulus (GPa) = 56.36642 57.84101 57.10372
# Shear Modulus (GPa) = 25.61845 27.64280 26.63062
#
# Velocity S-wave (km/s) = 3.47264 3.60724 3.54058
# Velocity P-wave (km/s) = 6.52779 6.67658 6.60261
#
# Compressibility (1/GPa) = 0.01774106
#
# Stress axis : x y z
#
# Youngs Moduli (GPa) = 98.63547 88.51124 71.06938
#
# Poissons Ratio (x) = 0.23244 0.24465
# Poissons Ratio (y) = 0.25903 0.20003
# Poissons Ratio (z) = 0.33954 0.24912
#
# Static dielectric constant tensor:
#      x y z
#    x 3.977800 0.000000 0.000000 
#    y 0.000000 3.941780 0.000000 
#    z 0.000000 0.000000 3.822510 
# 
# 
# High freq. dielectric constant tensor:
#      x y z
#    x 1.845650 0.000000 0.000000 
#    y 0.000000 1.837050 0.000000 
#    z 0.000000 0.000000 1.829680 
# 
# From -- ./inp_files/6871.got.cif
#   From: 2010.03.12/outbox.cif.g09.slc.cpg/sg57_4_cif.got.tgz:6871.got - 2010.04.16 15:48:40.
