data_PCOD8232600
_publ_section_title
;
Structure prediction by ZEFSAII (Michael W. Deem and Ramdas Pophale) SiO2 
 PCOD8232600
Probable space group: P B C M
;
_chemical_formula_sum "Si O2"
_cell_formula_units_Z 56
_cell_length_a 5.186473
_cell_length_b 32.560086
_cell_length_c 15.776487
_cell_angle_alpha 90.000000
_cell_angle_beta 90.000000
_cell_angle_gamma 90.000000
_cell_volume 2664.207022
_symmetry_space_group_name_H-M "P B C M"
_symmetry_group_IT_number 57
_symmetry_cell_setting 'orthorhombic'
loop_
_space_group_symop_operation_xyz
x,y,z
-x,-y,1/2+z
x,1/2-y,-z
-x,1/2+y,1/2-z
-x,-y,-z
x,y,1/2-z
-x,1/2+y,z
x,1/2-y,1/2+z
loop_
_atom_site_type_symbol
_atom_site_label
_atom_site_fract_x
_atom_site_fract_y
_atom_site_fract_z
Si Si1 0.214348 0.121145 0.003244
Si Si2 0.698361 0.197785 0.655610
Si Si3 0.907994 0.054246 0.928458
Si Si4 0.435656 0.608959 0.841874
Si Si5 0.231144 0.518461 0.405714
Si Si6 0.810724 0.789739 0.447048
Si Si7 0.280196 0.064287 0.346927
O O1 0.955584 0.095458 0.985058
O O2 0.375895 0.109995 0.920414
O O3 0.172721 0.170215 0.008772
O O4 0.334034 0.103659 0.091399
O O5 0.718586 0.216441 0.750000
O O6 0.749746 0.148991 0.656064
O O7 0.409727 0.205387 0.622829
O O8 0.915010 0.218544 0.597316
O O9 0.740058 0.068122 0.848228
O O10 0.746253 0.025014 0.992362
O O11 0.163071 0.030138 0.894684
O O12 0.579358 0.607764 0.750000
O O13 0.995365 0.544170 0.365381
O O14 0.497260 0.530067 0.360276
O O15 0.737638 0.750000 0.500000
O O16 0.288573 0.079960 0.250000
#
# Coordination Sequence:
#
# PCOD8232600 Si02
#       7
#     8   8   8   8   8   8   8
#     4  10  22  39  61  86 123 160 202 251 301 363
#     4  10  21  39  61  89 125 160 193 243 307 370
#     4  10  20  37  58  84 118 157 199 249 307 359
#     4  10  20  34  57  88 119 157 198 243 303 368
#     4  10  23  37  61  83 118 157 204 251 306 347
#     4  11  22  39  65  93 121 159 205 248 308 368
#     4  11  23  41  60  83 119 164 208 252 298 349
#
# _framework density 21.019390000000001
#
# number of rings (size 3 to 8) (size 9 to 14) (size 15 to 20)
#    0.000    1.714    2.857    1.286    2.000    4.000 
#    0.000    1.429    0.000    0.000    0.000    0.000 
#    0.000    0.000    0.000    0.000    0.000    0.000 
#
# Total GULP energy -694062.032079 kJ/mol
# GULP energy per Si atom -12393.964859 kJ/mol
# Density = 2.097155 g / cm^3
# Si number density = 21.019390 Si / 1000 Ang^3
#
#
#
# Elastic Constant Matrix: (Units=GPa)
#
#
# Indices 1 2 3 4 5 6 
#
# 1 61.9511 -1.9962 11.5720 0.0000 0.0000 0.0000
# 2 -1.9962 99.4965 29.1264 0.0000 0.0000 0.0000
# 3 11.5720 29.1264 130.5422 0.0000 0.0000 0.0000
# 4 0.0000 0.0000 0.0000 15.8207 0.0000 0.0000
# 5 0.0000 0.0000 0.0000 0.0000 23.1642 0.0000
# 6 0.0000 0.0000 0.0000 0.0000 0.0000 20.4914
#
#
#
# Elastic Compliance Matrix: (Units=1/GPa)
#
#
# Indices 1 2 3 4 5 6 
#
# 1 0.016474 0.000811 -0.001641 0.000000 0.000000 0.000000
# 2 0.000811 0.010793 -0.002480 0.000000 0.000000 0.000000
# 3 -0.001641 -0.002480 0.008359 0.000000 0.000000 0.000000
# 4 0.000000 0.000000 0.000000 0.063208 0.000000 0.000000
# 5 0.000000 0.000000 0.000000 0.000000 0.043170 0.000000
# 6 0.000000 0.000000 0.000000 0.000000 0.000000 0.048801
#
#
# Mechanical properties :
#
#
# Convention : Reuss Voigt Hill
#
# Bulk Modulus (GPa) = 34.47574 41.04380 37.75977
# Shear Modulus (GPa) = 24.14349 28.78111 26.46230
#
# Velocity S-wave (km/s) = 3.39282 3.70437 3.55201
# Velocity P-wave (km/s) = 5.63789 6.15350 5.90133
#
# Compressibility (1/GPa) = 0.02900591
#
# Stress axis : x y z
#
# Youngs Moduli (GPa) = 60.69992 92.65388 119.62891
#
# Poissons Ratio (x) = -0.07514 0.19635
# Poissons Ratio (y) = -0.04923 0.29668
# Poissons Ratio (z) = 0.09963 0.22978
#
# Static dielectric constant tensor:
#      x y z
#    x 3.640690 0.000000 0.000000 
#    y 0.000000 3.899240 0.000000 
#    z 0.000000 0.000000 3.847090 
# 
# 
# High freq. dielectric constant tensor:
#      x y z
#    x 1.821360 0.000000 0.000000 
#    y 0.000000 1.804930 0.000000 
#    z 0.000000 0.000000 1.816070 
# 
# From -- ./inp_files/15254.got.cif
#   From: 2010.03.12/outbox.cif.g09.slc.cpg/sg57_8_cif.got.tgz:15254.got - 2010.04.16 15:48:40.
