data_PCOD8232436
_publ_section_title
;
Structure prediction by ZEFSAII (Michael W. Deem and Ramdas Pophale) SiO2 
 PCOD8232436
Probable space group: P B C M
;
_chemical_formula_sum "Si O2"
_cell_formula_units_Z 40
_cell_length_a 13.704604
_cell_length_b 17.874218
_cell_length_c 9.103097
_cell_angle_alpha 90.000000
_cell_angle_beta 90.000000
_cell_angle_gamma 90.000000
_cell_volume 2229.886262
_symmetry_space_group_name_H-M "P B C M"
_symmetry_group_IT_number 57
_symmetry_cell_setting 'orthorhombic'
loop_
_space_group_symop_operation_xyz
x,y,z
-x,-y,1/2+z
x,1/2-y,-z
-x,1/2+y,1/2-z
-x,-y,-z
x,y,1/2-z
-x,1/2+y,z
x,1/2-y,1/2+z
loop_
_atom_site_type_symbol
_atom_site_label
_atom_site_fract_x
_atom_site_fract_y
_atom_site_fract_z
Si Si1 0.885648 0.598968 0.923811
Si Si2 0.915647 0.173764 0.581210
Si Si3 0.788180 0.033147 0.579073
Si Si4 0.310967 0.323085 0.082027
Si Si5 0.599620 0.520603 0.922692
O O1 0.886069 0.580979 0.750000
O O2 0.798524 0.655361 0.966152
O O3 0.985429 0.636015 0.980070
O O4 0.869511 0.521764 0.010702
O O5 0.889965 0.250000 0.500000
O O6 0.932488 0.193718 0.750000
O O7 0.825660 0.117586 0.559141
O O8 0.773236 0.013114 0.750000
O O9 0.686321 0.027637 0.493535
O O10 0.312902 0.301186 0.250000
O O11 0.382787 0.391769 0.047918
O O12 0.349192 0.250000 0.000000
O O13 0.595638 0.502608 0.750000
O O14 0.500000 0.500000 0.000000
#
# Coordination Sequence:
#
# PCOD8232436 Si02
#       5
#     8   8   8   8   8
#     4   9  18  33  51  75 106 139 175 215 255 301
#     4  10  21  34  50  75 108 143 180 217 254 300
#     4  10  20  34  53  78 104 135 175 216 258 310
#     4   9  18  31  50  77 106 131 162 206 255 304
#     4  10  21  38  58  79 102 132 171 216 262 313
#
# _framework density 17.938134999999999
#
# number of rings (size 3 to 8) (size 9 to 14) (size 15 to 20)
#    0.000    2.400    0.000    3.600    0.000    6.400 
#    0.000    1.000    0.000    0.000    0.000    0.000 
#    0.000    0.000    0.000    0.000    0.000    0.000 
#
# Total GULP energy -496066.335068 kJ/mol
# GULP energy per Si atom -12401.658377 kJ/mol
# Density = 1.789731 g / cm^3
# Si number density = 17.938135 Si / 1000 Ang^3
#
#
#
# Elastic Constant Matrix: (Units=GPa)
#
#
# Indices 1 2 3 4 5 6 
#
# 1 91.1180 50.8885 51.2123 0.0000 0.0000 0.0000
# 2 50.8885 113.0336 64.4644 0.0000 0.0000 0.0000
# 3 51.2123 64.4644 92.7255 0.0000 0.0000 0.0000
# 4 0.0000 0.0000 0.0000 36.3781 0.0000 0.0000
# 5 0.0000 0.0000 0.0000 0.0000 30.5093 0.0000
# 6 0.0000 0.0000 0.0000 0.0000 0.0000 12.5528
#
#
#
# Elastic Compliance Matrix: (Units=1/GPa)
#
#
# Indices 1 2 3 4 5 6 
#
# 1 0.016833 -0.003772 -0.006675 0.000000 0.000000 0.000000
# 2 -0.003772 0.015504 -0.008696 0.000000 0.000000 0.000000
# 3 -0.006675 -0.008696 0.020516 0.000000 0.000000 0.000000
# 4 0.000000 0.000000 0.000000 0.027489 0.000000 0.000000
# 5 0.000000 0.000000 0.000000 0.000000 0.032777 0.000000
# 6 0.000000 0.000000 0.000000 0.000000 0.000000 0.079663
#
#
# Mechanical properties :
#
#
# Convention : Reuss Voigt Hill
#
# Bulk Modulus (GPa) = 68.63741 70.00085 69.31913
# Shear Modulus (GPa) = 21.19339 24.57550 22.88445
#
# Velocity S-wave (km/s) = 3.44098 3.70539 3.57563
# Velocity P-wave (km/s) = 7.35756 7.57725 7.46821
#
# Compressibility (1/GPa) = 0.01456931
#
# Stress axis : x y z
#
# Youngs Moduli (GPa) = 59.40866 64.49870 48.74168
#
# Poissons Ratio (x) = 0.24326 0.32533
# Poissons Ratio (y) = 0.22406 0.42385
# Poissons Ratio (z) = 0.39653 0.56086
#
# Static dielectric constant tensor:
#      x y z
#    x 3.229460 0.000000 0.000000 
#    y 0.000000 3.104530 0.000000 
#    z 0.000000 0.000000 3.354310 
# 
# 
# High freq. dielectric constant tensor:
#      x y z
#    x 1.685400 0.000000 0.000000 
#    y 0.000000 1.691330 0.000000 
#    z 0.000000 0.000000 1.699460 
# 
# From -- ./inp_files/2686.got.cif
#   From: 2010.03.12/outbox.cif.g09.slc.cpg/sg57_2_cif.got.tgz:2686.got - 2010.04.16 15:48:40.
