data_PCOD8232759
_publ_section_title
;
Structure prediction by ZEFSAII (Michael W. Deem and Ramdas Pophale) SiO2 
 PCOD8232759
Probable space group: P B C M
;
_chemical_formula_sum "Si O2"
_cell_formula_units_Z 48
_cell_length_a 12.457059
_cell_length_b 23.467377
_cell_length_c 9.175522
_cell_angle_alpha 90.000000
_cell_angle_beta 90.000000
_cell_angle_gamma 90.000000
_cell_volume 2682.321635
_symmetry_space_group_name_H-M "P B C M"
_symmetry_group_IT_number 57
_symmetry_cell_setting 'orthorhombic'
loop_
_space_group_symop_operation_xyz
x,y,z
-x,-y,1/2+z
x,1/2-y,-z
-x,1/2+y,1/2-z
-x,-y,-z
x,y,1/2-z
-x,1/2+y,z
x,1/2-y,1/2+z
loop_
_atom_site_type_symbol
_atom_site_label
_atom_site_fract_x
_atom_site_fract_y
_atom_site_fract_z
Si Si1 0.864156 0.191946 0.578159
Si Si2 0.299905 0.883524 0.582131
Si Si3 0.107142 0.194240 0.917565
Si Si4 0.493603 0.308161 0.920138
Si Si5 0.688993 0.874132 0.080916
Si Si6 0.611706 0.503245 0.580637
O O1 0.826707 0.250000 0.500000
O O2 0.847613 0.199398 0.750000
O O3 0.792645 0.140202 0.521283
O O4 0.986768 0.177092 0.534928
O O5 0.265669 0.875363 0.750000
O O6 0.411985 0.852681 0.550010
O O7 0.313372 0.949758 0.540306
O O8 0.108012 0.211377 0.750000
O O9 0.187086 0.141915 0.950187
O O10 0.148664 0.250000 0.000000
O O11 0.476812 0.295984 0.750000
O O12 0.524761 0.250000 0.000000
O O13 0.384599 0.333483 0.984358
O O14 0.658832 0.864651 0.250000
O O15 0.675029 0.939784 0.034855
O O16 0.500000 0.500000 0.500000
O O17 0.583587 0.502248 0.750000
#
# Coordination Sequence:
#
# PCOD8232759 Si02
#       6
#     8   8   8   8   8   8
#     4  10  20  35  56  79 106 139 177 220 266 317
#     4  10  21  36  53  77 108 140 178 219 263 314
#     4   9  19  35  54  79 107 138 175 217 266 317
#     4  11  22  34  50  76 109 138 172 218 266 318
#     4  10  20  35  56  79 106 140 177 217 266 317
#     4  10  20  36  56  78 106 143 180 218 262 313
#
# _framework density 17.894945
#
# number of rings (size 3 to 8) (size 9 to 14) (size 15 to 20)
#    0.000    2.000    1.667    2.000    0.000    6.000 
#    0.000    0.833    0.000    0.000    0.000    0.000 
#    0.000    0.000    0.000    0.000    0.000    0.000 
#
# Total GULP energy -595358.578606 kJ/mol
# GULP energy per Si atom -12403.303721 kJ/mol
# Density = 1.785422 g / cm^3
# Si number density = 17.894945 Si / 1000 Ang^3
#
#
#
# Elastic Constant Matrix: (Units=GPa)
#
#
# Indices 1 2 3 4 5 6 
#
# 1 92.6762 47.4102 41.9621 0.0000 0.0000 0.0000
# 2 47.4102 109.7715 43.3276 0.0000 0.0000 0.0000
# 3 41.9621 43.3276 67.8809 0.0000 0.0000 0.0000
# 4 0.0000 0.0000 0.0000 25.8054 0.0000 0.0000
# 5 0.0000 0.0000 0.0000 0.0000 27.8177 0.0000
# 6 0.0000 0.0000 0.0000 0.0000 0.0000 25.4479
#
#
#
# Elastic Compliance Matrix: (Units=1/GPa)
#
#
# Indices 1 2 3 4 5 6 
#
# 1 0.016246 -0.004081 -0.007438 0.000000 0.000000 0.000000
# 2 -0.004081 0.013203 -0.005905 0.000000 0.000000 0.000000
# 3 -0.007438 -0.005905 0.023099 0.000000 0.000000 0.000000
# 4 0.000000 0.000000 0.000000 0.038752 0.000000 0.000000
# 5 0.000000 0.000000 0.000000 0.000000 0.035948 0.000000
# 6 0.000000 0.000000 0.000000 0.000000 0.000000 0.039296
#
#
# Mechanical properties :
#
#
# Convention : Reuss Voigt Hill
#
# Bulk Modulus (GPa) = 56.49590 59.52538 58.01064
# Shear Modulus (GPa) = 24.12085 24.98944 24.55514
#
# Velocity S-wave (km/s) = 3.67538 3.74097 3.70832
# Velocity P-wave (km/s) = 7.04632 7.21081 7.12904
#
# Compressibility (1/GPa) = 0.01770040
#
# Stress axis : x y z
#
# Youngs Moduli (GPa) = 61.55531 75.74098 43.29278
#
# Poissons Ratio (x) = 0.30907 0.32201
# Poissons Ratio (y) = 0.25118 0.25563
# Poissons Ratio (z) = 0.45784 0.44723
#
# Static dielectric constant tensor:
#      x y z
#    x 3.327260 0.000000 0.000000 
#    y 0.000000 3.481700 0.000000 
#    z 0.000000 0.000000 3.368360 
# 
# 
# High freq. dielectric constant tensor:
#      x y z
#    x 1.689920 0.000000 0.000000 
#    y 0.000000 1.693570 0.000000 
#    z 0.000000 0.000000 1.696180 
# 
# From -- ./inp_files/3083.got.cif
#   From: 2010.03.12/outbox.cif.g09.slc.cpg/sg57_2_cif.got.tgz:3083.got - 2010.04.16 15:48:40.
