data_PCOD8232488
_publ_section_title
;
Structure prediction by ZEFSAII (Michael W. Deem and Ramdas Pophale) SiO2 
 PCOD8232488
Probable space group: P B C M
;
_chemical_formula_sum "Si O2"
_cell_formula_units_Z 48
_cell_length_a 30.733887
_cell_length_b 9.599056
_cell_length_c 8.739669
_cell_angle_alpha 90.000000
_cell_angle_beta 90.000000
_cell_angle_gamma 90.000000
_cell_volume 2578.344833
_symmetry_space_group_name_H-M "P B C M"
_symmetry_group_IT_number 57
_symmetry_cell_setting 'orthorhombic'
loop_
_space_group_symop_operation_xyz
x,y,z
-x,-y,1/2+z
x,1/2-y,-z
-x,1/2+y,1/2-z
-x,-y,-z
x,y,1/2-z
-x,1/2+y,z
x,1/2-y,1/2+z
loop_
_atom_site_type_symbol
_atom_site_label
_atom_site_fract_x
_atom_site_fract_y
_atom_site_fract_z
Si Si1 0.034040 0.104023 0.569364
Si Si2 0.464815 0.099012 0.572800
Si Si3 0.867976 0.604381 0.571006
Si Si4 0.208326 0.596523 0.068557
Si Si5 0.369254 0.100052 0.927941
Si Si6 0.717337 0.594916 0.068492
O O1 0.020536 0.250000 0.500000
O O2 0.029578 0.107401 0.750000
O O3 0.083192 0.065006 0.517717
O O4 0.000000 0.000000 0.500000
O O5 0.468312 0.250000 0.500000
O O6 0.475121 0.116635 0.750000
O O7 0.416666 0.029053 0.548957
O O8 0.500000 0.000000 0.500000
O O9 0.851943 0.750000 0.500000
O O10 0.866196 0.628583 0.750000
O O11 0.836672 0.478610 0.520979
O O12 0.214318 0.604403 0.250000
O O13 0.207985 0.750000 0.000000
O O14 0.246815 0.507729 0.996623
O O15 0.356676 0.110907 0.750000
O O16 0.374595 0.250000 0.000000
O O17 0.329252 0.027364 0.017661
O O18 0.720859 0.602793 0.250000
O O19 0.723031 0.750000 0.000000
#
# Coordination Sequence:
#
# PCOD8232488 Si02
#       6
#     8   8   8   8   8   8
#     4  10  20  36  56  82 112 145 182 223 269 318
#     4  10  20  34  54  79 109 142 179 221 267 316
#     4   9  20  37  58  81 107 140 182 224 265 315
#     4  11  23  39  56  79 110 143 177 219 269 322
#     4   9  17  31  52  78 105 137 177 221 264 313
#     4  11  21  35  57  83 108 139 177 220 265 316
#
# _framework density 18.616595
#
# number of rings (size 3 to 8) (size 9 to 14) (size 15 to 20)
#    0.000    2.000    0.000    5.000    0.000    6.000 
#    0.000    2.500    0.000    4.000    0.000    0.000 
#    0.000    0.000    0.000    0.000    0.000    0.000 
#
# Total GULP energy -594994.579770 kJ/mol
# GULP energy per Si atom -12395.720412 kJ/mol
# Density = 1.857422 g / cm^3
# Si number density = 18.616595 Si / 1000 Ang^3
#
#
#
# Elastic Constant Matrix: (Units=GPa)
#
#
# Indices 1 2 3 4 5 6 
#
# 1 157.7299 94.7175 72.6421 0.0000 0.0000 0.0000
# 2 94.7175 120.8058 61.4717 0.0000 0.0000 0.0000
# 3 72.6421 61.4717 118.2208 0.0000 0.0000 0.0000
# 4 0.0000 0.0000 0.0000 33.8229 0.0000 0.0000
# 5 0.0000 0.0000 0.0000 0.0000 29.4954 0.0000
# 6 0.0000 0.0000 0.0000 0.0000 0.0000 21.2807
#
#
#
# Elastic Compliance Matrix: (Units=1/GPa)
#
#
# Indices 1 2 3 4 5 6 
#
# 1 0.013056 -0.008369 -0.003671 0.000000 0.000000 0.000000
# 2 -0.008369 0.016620 -0.003500 0.000000 0.000000 0.000000
# 3 -0.003671 -0.003500 0.012534 0.000000 0.000000 0.000000
# 4 0.000000 0.000000 0.000000 0.029566 0.000000 0.000000
# 5 0.000000 0.000000 0.000000 0.000000 0.033904 0.000000
# 6 0.000000 0.000000 0.000000 0.000000 0.000000 0.046991
#
#
# Mechanical properties :
#
#
# Convention : Reuss Voigt Hill
#
# Bulk Modulus (GPa) = 89.83486 94.93544 92.38515
# Shear Modulus (GPa) = 26.67243 28.11481 27.39362
#
# Velocity S-wave (km/s) = 3.78924 3.89035 3.84013
# Velocity P-wave (km/s) = 8.21611 8.44307 8.33037
#
# Compressibility (1/GPa) = 0.01113154
#
# Stress axis : x y z
#
# Youngs Moduli (GPa) = 76.59348 60.16875 79.78166
#
# Poissons Ratio (x) = 0.50352 0.29288
# Poissons Ratio (y) = 0.64097 0.27922
# Poissons Ratio (z) = 0.28117 0.21058
#
# Static dielectric constant tensor:
#      x y z
#    x 4.182990 0.000000 0.000000 
#    y 0.000000 3.178360 0.000000 
#    z 0.000000 0.000000 3.601920 
# 
# 
# High freq. dielectric constant tensor:
#      x y z
#    x 1.744980 0.000000 0.000000 
#    y 0.000000 1.694410 0.000000 
#    z 0.000000 0.000000 1.739400 
# 
# From -- ./inp_files/9908.got.cif
#   From: 2010.03.12/outbox.cif.g09.slc.cpg/sg57_5_cif.got.tgz:9908.got - 2010.04.16 15:48:40.
