data_PCOD8233798
_publ_section_title
;
Structure prediction by ZEFSAII (Michael W. Deem and Ramdas Pophale) SiO2 
 PCOD8233798
Probable space group: P B C M
;
_chemical_formula_sum "Si O2"
_cell_formula_units_Z 56
_cell_length_a 17.949931
_cell_length_b 19.003934
_cell_length_c 8.751696
_cell_angle_alpha 90.000000
_cell_angle_beta 90.000000
_cell_angle_gamma 90.000000
_cell_volume 2985.372449
_symmetry_space_group_name_H-M "P B C M"
_symmetry_group_IT_number 57
_symmetry_cell_setting 'orthorhombic'
loop_
_space_group_symop_operation_xyz
x,y,z
-x,-y,1/2+z
x,1/2-y,-z
-x,1/2+y,1/2-z
-x,-y,-z
x,y,1/2-z
-x,1/2+y,z
x,1/2-y,1/2+z
loop_
_atom_site_type_symbol
_atom_site_label
_atom_site_fract_x
_atom_site_fract_y
_atom_site_fract_z
Si Si1 0.190495 0.435135 0.930083
Si Si2 0.968626 0.571471 0.569434
Si Si3 0.772424 0.419567 0.927379
Si Si4 0.083265 0.825366 0.927422
Si Si5 0.475547 0.174672 0.428520
Si Si6 0.685450 0.673288 0.430487
Si Si7 0.363854 0.673175 0.430008
O O1 0.175746 0.429254 0.750000
O O2 0.252012 0.379972 0.989733
O O3 0.116060 0.417039 0.020940
O O4 0.219360 0.512454 0.968331
O O5 0.974301 0.565328 0.750000
O O6 0.000000 0.500000 0.500000
O O7 0.014454 0.638189 0.511651
O O8 0.765045 0.441328 0.750000
O O9 0.843148 0.370493 0.953494
O O10 0.699452 0.379440 0.989841
O O11 0.063468 0.817590 0.750000
O O12 0.097720 0.750000 0.000000
O O13 0.478800 0.250000 0.500000
O O14 0.473927 0.185148 0.250000
O O15 0.396301 0.140401 0.479440
O O16 0.554729 0.138358 0.474141
O O17 0.699071 0.750000 0.500000
O O18 0.690535 0.681244 0.250000
O O19 0.352311 0.750000 0.500000
O O20 0.355193 0.682540 0.250000
#
# Coordination Sequence:
#
# PCOD8233798 Si02
#       7
#     8   8   8   8   8   8   8
#     4  11  23  38  58  82 111 147 188 228 279 338
#     4  12  24  41  63  85 111 146 187 230 282 340
#     4  10  21  36  54  79 113 151 189 227 276 333
#     4  11  23  39  60  87 117 149 189 233 279 330
#     4   8  14  28  50  75 106 141 181 227 277 326
#     4   9  19  35  56  82 109 142 184 233 281 331
#     4   9  17  30  51  79 109 145 186 230 276 327
#
# _framework density 18.758127000000002
#
# number of rings (size 3 to 8) (size 9 to 14) (size 15 to 20)
#    0.000    2.000    1.429    2.571    0.000    2.857 
#    0.000    2.143    0.000    0.000    0.000    0.000 
#    0.000    0.000    0.000    0.000    0.000    0.000 
#
# Total GULP energy -694052.828649 kJ/mol
# GULP energy per Si atom -12393.800512 kJ/mol
# Density = 1.871543 g / cm^3
# Si number density = 18.758127 Si / 1000 Ang^3
#
#
#
# Elastic Constant Matrix: (Units=GPa)
#
#
# Indices 1 2 3 4 5 6 
#
# 1 171.8044 57.9851 47.2361 0.0000 0.0000 0.0000
# 2 57.9851 88.5948 37.4029 0.0000 0.0000 0.0000
# 3 47.2361 37.4029 71.2438 0.0000 0.0000 0.0000
# 4 0.0000 0.0000 0.0000 29.9073 0.0000 0.0000
# 5 0.0000 0.0000 0.0000 0.0000 21.7998 0.0000
# 6 0.0000 0.0000 0.0000 0.0000 0.0000 23.0745
#
#
#
# Elastic Compliance Matrix: (Units=1/GPa)
#
#
# Indices 1 2 3 4 5 6 
#
# 1 0.008031 -0.003865 -0.003296 0.000000 0.000000 0.000000
# 2 -0.003865 0.016362 -0.006027 0.000000 0.000000 0.000000
# 3 -0.003296 -0.006027 0.019386 0.000000 0.000000 0.000000
# 4 0.000000 0.000000 0.000000 0.033437 0.000000 0.000000
# 5 0.000000 0.000000 0.000000 0.000000 0.045872 0.000000
# 6 0.000000 0.000000 0.000000 0.000000 0.000000 0.043338
#
#
# Mechanical properties :
#
#
# Convention : Reuss Voigt Hill
#
# Bulk Modulus (GPa) = 57.46279 68.54349 63.00314
# Shear Modulus (GPa) = 25.17602 27.55757 26.36679
#
# Velocity S-wave (km/s) = 3.66750 3.83704 3.75323
# Velocity P-wave (km/s) = 6.97381 7.50004 7.24171
#
# Compressibility (1/GPa) = 0.01740257
#
# Stress axis : x y z
#
# Youngs Moduli (GPa) = 124.51499 61.11890 51.58442
#
# Poissons Ratio (x) = 0.23622 0.17001
# Poissons Ratio (y) = 0.48125 0.31091
# Poissons Ratio (z) = 0.41036 0.36838
#
# Static dielectric constant tensor:
#      x y z
#    x 4.226060 0.000000 0.000000 
#    y 0.000000 3.309670 0.000000 
#    z 0.000000 0.000000 3.401280 
# 
# 
# High freq. dielectric constant tensor:
#      x y z
#    x 1.756200 0.000000 0.000000 
#    y 0.000000 1.705390 0.000000 
#    z 0.000000 0.000000 1.729660 
# 
# From -- ./inp_files/5158.got.cif
#   From: 2010.03.12/outbox.cif.g09.slc.cpg/sg57_3_cif.got.tgz:5158.got - 2010.04.16 15:48:40.
