data_PCOD8233122
_publ_section_title
;
Structure prediction by ZEFSAII (Michael W. Deem and Ramdas Pophale) SiO2 
 PCOD8233122
Probable space group: P B C M
;
_chemical_formula_sum "Si O2"
_cell_formula_units_Z 64
_cell_length_a 11.876261
_cell_length_b 30.897498
_cell_length_c 8.624103
_cell_angle_alpha 90.000000
_cell_angle_beta 90.000000
_cell_angle_gamma 90.000000
_cell_volume 3164.586572
_symmetry_space_group_name_H-M "P B C M"
_symmetry_group_IT_number 57
_symmetry_cell_setting 'orthorhombic'
loop_
_space_group_symop_operation_xyz
x,y,z
-x,-y,1/2+z
x,1/2-y,-z
-x,1/2+y,1/2-z
-x,-y,-z
x,y,1/2-z
-x,1/2+y,z
x,1/2-y,1/2+z
loop_
_atom_site_type_symbol
_atom_site_label
_atom_site_fract_x
_atom_site_fract_y
_atom_site_fract_z
Si Si1 0.227241 0.453671 0.930670
Si Si2 0.996379 0.074299 0.932371
Si Si3 0.002802 0.172617 0.934166
Si Si4 0.372542 0.379446 0.430371
Si Si5 0.230253 0.957847 0.568916
Si Si6 0.759888 0.795056 0.066976
Si Si7 0.635922 0.120621 0.930372
Si Si8 0.234355 0.794829 0.433042
O O1 0.198063 0.451911 0.750000
O O2 0.114975 0.447465 0.030937
O O3 0.319068 0.417506 0.969483
O O4 0.277606 0.500358 0.977297
O O5 0.971318 0.071619 0.750000
O O6 0.999386 0.123449 0.993535
O O7 0.899067 0.049451 0.022979
O O8 0.005941 0.172168 0.750000
O O9 0.114671 0.195731 0.999858
O O10 0.892408 0.197274 0.996640
O O11 0.344098 0.387343 0.250000
O O12 0.322295 0.333591 0.486214
O O13 0.504249 0.378956 0.463261
O O14 0.239145 0.966938 0.750000
O O15 0.307209 0.917246 0.526855
O O16 0.762027 0.791486 0.250000
O O17 0.713777 0.750000 0.000000
O O18 0.664687 0.113528 0.750000
O O19 0.685787 0.166264 0.989014
O O20 0.281785 0.750000 0.500000
O O21 0.234747 0.791795 0.250000
#
# Coordination Sequence:
#
# PCOD8233122 Si02
#       8
#     8   8   8   8   8   8   8   8
#     4  12  25  41  63  93 125 159 200 248 304 366
#     4  11  20  39  66  91 124 162 200 245 300 363
#     4   9  17  33  59  85 117 157 195 238 300 359
#     4  10  22  42  65  87 117 161 210 257 306 358
#     4  12  25  41  63  93 125 159 200 248 304 366
#     4  10  20  36  58  88 121 159 199 246 303 362
#     4  10  22  42  65  87 117 161 210 257 306 358
#     4  10  20  36  58  88 121 159 199 246 303 362
#
# _framework density 20.22381
#
# number of rings (size 3 to 8) (size 9 to 14) (size 15 to 20)
#    0.000    1.500    2.500    3.375    0.000    2.500 
#    0.000    0.000    0.000    0.000    0.000    0.000 
#    0.000    0.000    0.000    0.000    0.000    0.000 
#
# Total GULP energy -793885.269818 kJ/mol
# GULP energy per Si atom -12404.457341 kJ/mol
# Density = 2.017778 g / cm^3
# Si number density = 20.223810 Si / 1000 Ang^3
#
#
#
# Elastic Constant Matrix: (Units=GPa)
#
#
# Indices 1 2 3 4 5 6 
#
# 1 107.7815 47.3772 25.6828 0.0000 0.0000 0.0000
# 2 47.3772 163.5011 34.5841 0.0000 0.0000 0.0000
# 3 25.6828 34.5841 48.5881 0.0000 0.0000 0.0000
# 4 0.0000 0.0000 0.0000 34.8686 0.0000 0.0000
# 5 0.0000 0.0000 0.0000 0.0000 18.7470 0.0000
# 6 0.0000 0.0000 0.0000 0.0000 0.0000 1.4728
#
#
#
# Elastic Compliance Matrix: (Units=1/GPa)
#
#
# Indices 1 2 3 4 5 6 
#
# 1 0.011349 -0.002378 -0.004307 0.000000 0.000000 0.000000
# 2 -0.002378 0.007698 -0.004223 0.000000 0.000000 0.000000
# 3 -0.004307 -0.004223 0.025863 0.000000 0.000000 0.000000
# 4 0.000000 0.000000 0.000000 0.028679 0.000000 0.000000
# 5 0.000000 0.000000 0.000000 0.000000 0.053342 0.000000
# 6 0.000000 0.000000 0.000000 0.000000 0.000000 0.678988
#
#
# Mechanical properties :
#
#
# Convention : Reuss Voigt Hill
#
# Bulk Modulus (GPa) = 43.29608 59.46210 51.37909
# Shear Modulus (GPa) = 5.98492 25.16612 15.57552
#
# Velocity S-wave (km/s) = 1.72214 3.53140 2.77818
# Velocity P-wave (km/s) = 5.04076 6.78923 5.97925
#
# Compressibility (1/GPa) = 0.02309678
#
# Stress axis : x y z
#
# Youngs Moduli (GPa) = 88.11020 129.89796 38.66489
#
# Poissons Ratio (x) = 0.30886 0.16652
# Poissons Ratio (y) = 0.20950 0.16327
# Poissons Ratio (z) = 0.37946 0.54852
#
# Static dielectric constant tensor:
#      x y z
#    x 3.681890 0.000000 0.000000 
#    y 0.000000 3.925840 0.000000 
#    z 0.000000 0.000000 3.396280 
# 
# 
# High freq. dielectric constant tensor:
#      x y z
#    x 1.786660 0.000000 0.000000 
#    y 0.000000 1.808220 0.000000 
#    z 0.000000 0.000000 1.769590 
# 
# From -- ./inp_files/3843.got.cif
#   From: 2010.03.12/outbox.cif.g09.slc.cpg/sg57_2_cif.got.tgz:3843.got - 2010.04.16 15:48:40.
