data_PCOD8233036
_publ_section_title
;
Structure prediction by ZEFSAII (Michael W. Deem and Ramdas Pophale) SiO2 
 PCOD8233036
Probable space group: P B C M
;
_chemical_formula_sum "Si O2"
_cell_formula_units_Z 48
_cell_length_a 30.425310
_cell_length_b 9.473087
_cell_length_c 8.584633
_cell_angle_alpha 90.000000
_cell_angle_beta 90.000000
_cell_angle_gamma 90.000000
_cell_volume 2474.276733
_symmetry_space_group_name_H-M "P B C M"
_symmetry_group_IT_number 57
_symmetry_cell_setting 'orthorhombic'
loop_
_space_group_symop_operation_xyz
x,y,z
-x,-y,1/2+z
x,1/2-y,-z
-x,1/2+y,1/2-z
-x,-y,-z
x,y,1/2-z
-x,1/2+y,z
x,1/2-y,1/2+z
loop_
_atom_site_type_symbol
_atom_site_label
_atom_site_fract_x
_atom_site_fract_y
_atom_site_fract_z
Si Si1 0.711082 0.095248 0.933904
Si Si2 0.369619 0.096023 0.065084
Si Si3 0.112439 0.401091 0.565290
Si Si4 0.960816 0.093441 0.434593
Si Si5 0.461687 0.404822 0.434717
Si Si6 0.212455 0.398129 0.566555
O O1 0.712275 0.103424 0.750000
O O2 0.668815 0.008011 0.990440
O O3 0.755435 0.020266 0.997277
O O4 0.708221 0.250000 0.000000
O O5 0.373987 0.104655 0.250000
O O6 0.358565 0.250000 0.000000
O O7 0.414870 0.036133 0.993640
O O8 0.096404 0.250000 0.500000
O O9 0.105891 0.402223 0.750000
O O10 0.085061 0.526314 0.488073
O O11 0.162638 0.430162 0.514041
O O12 0.964893 0.250000 0.500000
O O13 0.963580 0.098403 0.250000
O O14 0.000000 0.000000 0.500000
O O15 0.469400 0.250000 0.500000
O O16 0.500000 0.500000 0.500000
O O17 0.462628 0.403085 0.250000
O O18 0.229108 0.250000 0.500000
O O19 0.215590 0.386856 0.750000
#
# Coordination Sequence:
#
# PCOD8233036 Si02
#       6
#     8   8   8   8   8   8
#     4  10  22  37  54  80 113 147 185 230 278 329
#     4  10  20  36  57  81 109 143 186 230 275 330
#     4  10  20  37  60  87 118 151 190 234 281 334
#     4  12  25  42  62  86 116 151 191 234 284 337
#     4  11  22  38  59  84 113 146 185 228 278 333
#     4   9  19  36  58  84 113 148 189 230 274 329
#
# _framework density 19.399607
#
# number of rings (size 3 to 8) (size 9 to 14) (size 15 to 20)
#    0.000    1.667    0.000    6.000    0.000    4.000 
#    0.000    3.333    0.000    0.000    0.000    0.000 
#    0.000    0.000    0.000    0.000    0.000    0.000 
#
# Total GULP energy -595352.442437 kJ/mol
# GULP energy per Si atom -12403.175884 kJ/mol
# Density = 1.935545 g / cm^3
# Si number density = 19.399607 Si / 1000 Ang^3
#
#
#
# Elastic Constant Matrix: (Units=GPa)
#
#
# Indices 1 2 3 4 5 6 
#
# 1 152.0283 101.8225 52.5799 0.0000 0.0000 0.0000
# 2 101.8225 155.0812 51.7968 0.0000 0.0000 0.0000
# 3 52.5799 51.7968 108.5454 0.0000 0.0000 0.0000
# 4 0.0000 0.0000 0.0000 38.2426 0.0000 0.0000
# 5 0.0000 0.0000 0.0000 0.0000 29.3023 0.0000
# 6 0.0000 0.0000 0.0000 0.0000 0.0000 46.6041
#
#
#
# Elastic Compliance Matrix: (Units=1/GPa)
#
#
# Indices 1 2 3 4 5 6 
#
# 1 0.012286 -0.007231 -0.002501 0.000000 0.000000 0.000000
# 2 -0.007231 0.011927 -0.002189 0.000000 0.000000 0.000000
# 3 -0.002501 -0.002189 0.011468 0.000000 0.000000 0.000000
# 4 0.000000 0.000000 0.000000 0.026149 0.000000 0.000000
# 5 0.000000 0.000000 0.000000 0.000000 0.034127 0.000000
# 6 0.000000 0.000000 0.000000 0.000000 0.000000 0.021457
#
#
# Mechanical properties :
#
#
# Convention : Reuss Voigt Hill
#
# Bulk Modulus (GPa) = 84.45747 92.00592 88.23169
# Shear Modulus (GPa) = 34.43463 36.79352 35.61407
#
# Velocity S-wave (km/s) = 4.21767 4.35974 4.28929
# Velocity P-wave (km/s) = 8.20661 8.53655 8.37321
#
# Compressibility (1/GPa) = 0.01184028
#
# Stress axis : x y z
#
# Youngs Moduli (GPa) = 81.39423 83.84193 87.19613
#
# Poissons Ratio (x) = 0.60630 0.21804
# Poissons Ratio (y) = 0.58860 0.19084
# Poissons Ratio (z) = 0.20353 0.18350
#
# Static dielectric constant tensor:
#      x y z
#    x 3.992830 0.000000 0.000000 
#    y 0.000000 3.484500 0.000000 
#    z 0.000000 0.000000 3.590920 
# 
# 
# High freq. dielectric constant tensor:
#      x y z
#    x 1.772560 0.000000 0.000000 
#    y 0.000000 1.754470 0.000000 
#    z 0.000000 0.000000 1.764640 
# 
# From -- ./inp_files/10044.got.cif
#   From: 2010.03.12/outbox.cif.g09.slc.cpg/sg57_6_cif.got.tgz:10044.got - 2010.04.16 15:48:40.
