data_PCOD8233173
_publ_section_title
;
Structure prediction by ZEFSAII (Michael W. Deem and Ramdas Pophale) SiO2 
 PCOD8233173
Probable space group: P B C M
;
_chemical_formula_sum "Si O2"
_cell_formula_units_Z 48
_cell_length_a 14.979650
_cell_length_b 19.118476
_cell_length_c 8.811634
_cell_angle_alpha 90.000000
_cell_angle_beta 90.000000
_cell_angle_gamma 90.000000
_cell_volume 2523.546934
_symmetry_space_group_name_H-M "P B C M"
_symmetry_group_IT_number 57
_symmetry_cell_setting 'orthorhombic'
loop_
_space_group_symop_operation_xyz
x,y,z
-x,-y,1/2+z
x,1/2-y,-z
-x,1/2+y,1/2-z
-x,-y,-z
x,y,1/2-z
-x,1/2+y,z
x,1/2-y,1/2+z
loop_
_atom_site_type_symbol
_atom_site_label
_atom_site_fract_x
_atom_site_fract_y
_atom_site_fract_z
Si Si1 0.631194 0.825542 0.428988
Si Si2 0.020095 0.074077 0.425585
Si Si3 0.524222 0.426647 0.071071
Si Si4 0.723737 0.425356 0.070706
Si Si5 0.227636 0.078227 0.424807
Si Si6 0.879847 0.173738 0.569340
O O1 0.625148 0.750000 0.500000
O O2 0.631628 0.818239 0.250000
O O3 0.545012 0.868621 0.487177
O O4 0.721510 0.863188 0.480101
O O5 0.991519 0.071249 0.250000
O O6 0.123444 0.092737 0.443075
O O7 0.967919 0.134801 0.512226
O O8 0.000000 0.000000 0.500000
O O9 0.518972 0.435762 0.250000
O O10 0.623884 0.403999 0.020138
O O11 0.500000 0.500000 0.000000
O O12 0.734065 0.428508 0.250000
O O13 0.748143 0.502061 0.006454
O O14 0.793123 0.368199 0.007896
O O15 0.257928 0.083352 0.250000
O O16 0.875823 0.250000 0.500000
O O17 0.882392 0.178455 0.750000
#
# Coordination Sequence:
#
# PCOD8233173 Si02
#       6
#     8   8   8   8   8   8
#     4  11  24  39  58  88 121 156 195 242 294 347
#     4  11  22  38  62  91 119 156 199 244 296 353
#     4  10  20  36  60  88 116 151 195 240 288 346
#     4   9  18  36  61  86 117 154 192 238 293 350
#     4  10  20  38  63  87 115 155 195 240 295 348
#     4  11  23  41  61  88 122 159 197 244 300 353
#
# _framework density 19.020845999999999
#
# number of rings (size 3 to 8) (size 9 to 14) (size 15 to 20)
#    0.000    1.667    3.333    1.500    0.000    3.333 
#    0.000    1.667    0.000    0.000    0.000    0.000 
#    0.000    0.000    0.000    0.000    0.000    0.000 
#
# Total GULP energy -595335.847989 kJ/mol
# GULP energy per Si atom -12402.830166 kJ/mol
# Density = 1.897755 g / cm^3
# Si number density = 19.020846 Si / 1000 Ang^3
#
#
#
# Elastic Constant Matrix: (Units=GPa)
#
#
# Indices 1 2 3 4 5 6 
#
# 1 134.5556 78.0244 45.2191 0.0000 0.0000 0.0000
# 2 78.0244 180.2976 53.4151 0.0000 0.0000 0.0000
# 3 45.2191 53.4151 69.4148 0.0000 0.0000 0.0000
# 4 0.0000 0.0000 0.0000 34.1389 0.0000 0.0000
# 5 0.0000 0.0000 0.0000 0.0000 24.8668 0.0000
# 6 0.0000 0.0000 0.0000 0.0000 0.0000 35.0716
#
#
#
# Elastic Compliance Matrix: (Units=1/GPa)
#
#
# Indices 1 2 3 4 5 6 
#
# 1 0.010908 -0.003388 -0.004499 0.000000 0.000000 0.000000
# 2 -0.003388 0.008236 -0.004131 0.000000 0.000000 0.000000
# 3 -0.004499 -0.004131 0.020516 0.000000 0.000000 0.000000
# 4 0.000000 0.000000 0.000000 0.029292 0.000000 0.000000
# 5 0.000000 0.000000 0.000000 0.000000 0.040214 0.000000
# 6 0.000000 0.000000 0.000000 0.000000 0.000000 0.028513
#
#
# Mechanical properties :
#
#
# Convention : Reuss Voigt Hill
#
# Bulk Modulus (GPa) = 64.00118 81.95393 72.97755
# Shear Modulus (GPa) = 29.95377 32.65607 31.30492
#
# Velocity S-wave (km/s) = 3.97266 4.14799 4.06127
# Velocity P-wave (km/s) = 7.40025 8.13148 7.77447
#
# Compressibility (1/GPa) = 0.01562471
#
# Stress axis : x y z
#
# Youngs Moduli (GPa) = 91.67349 121.41421 48.74265
#
# Poissons Ratio (x) = 0.41131 0.21930
# Poissons Ratio (y) = 0.31056 0.20136
# Poissons Ratio (z) = 0.41246 0.50156
#
# Static dielectric constant tensor:
#      x y z
#    x 3.027210 0.000000 0.000000 
#    y 0.000000 3.472180 0.000000 
#    z 0.000000 0.000000 3.424270 
# 
# 
# High freq. dielectric constant tensor:
#      x y z
#    x 1.756310 0.000000 0.000000 
#    y 0.000000 1.741240 0.000000 
#    z 0.000000 0.000000 1.729030 
# 
# From -- ./inp_files/4613.got.cif
#   From: 2010.03.12/outbox.cif.g09.slc.cpg/sg57_3_cif.got.tgz:4613.got - 2010.04.16 15:48:40.
