data_PCOD8233511
_publ_section_title
;
Structure prediction by ZEFSAII (Michael W. Deem and Ramdas Pophale) SiO2 
 PCOD8233511
Probable space group: P B C M
;
_chemical_formula_sum "Si O2"
_cell_formula_units_Z 32
_cell_length_a 20.100717
_cell_length_b 9.363642
_cell_length_c 8.631276
_cell_angle_alpha 90.000000
_cell_angle_beta 90.000000
_cell_angle_gamma 90.000000
_cell_volume 1624.543535
_symmetry_space_group_name_H-M "P B C M"
_symmetry_group_IT_number 57
_symmetry_cell_setting 'orthorhombic'
loop_
_space_group_symop_operation_xyz
x,y,z
-x,-y,1/2+z
x,1/2-y,-z
-x,1/2+y,1/2-z
-x,-y,-z
x,y,1/2-z
-x,1/2+y,z
x,1/2-y,1/2+z
loop_
_atom_site_type_symbol
_atom_site_label
_atom_site_fract_x
_atom_site_fract_y
_atom_site_fract_z
Si Si1 0.328610 0.402124 0.934052
Si Si2 0.941066 0.093380 0.933160
Si Si3 0.822367 0.601577 0.431605
Si Si4 0.559605 0.092706 0.433964
O O1 0.338056 0.403412 0.750000
O O2 0.252681 0.431527 0.986440
O O3 0.353034 0.250000 0.000000
O O4 0.370675 0.527478 0.011123
O O5 0.947615 0.098866 0.750000
O O6 0.870758 0.025216 0.986395
O O7 0.945539 0.250000 0.000000
O O8 0.000000 0.000000 0.000000
O O9 0.848866 0.750000 0.500000
O O10 0.824456 0.620098 0.250000
O O11 0.552685 0.250000 0.500000
O O12 0.555934 0.096410 0.250000
O O13 0.500000 0.000000 0.500000
#
# Coordination Sequence:
#
# PCOD8233511 Si02
#       4
#     8   8   8   8
#     4  10  20  38  61  88 119 154 192 235 284 340
#     4  11  23  39  58  84 115 152 193 239 289 343
#     4   9  20  37  59  85 116 151 191 234 284 340
#     4  12  25  42  62  87 117 153 193 238 287 341
#
# _framework density 19.697842000000001
#
# number of rings (size 3 to 8) (size 9 to 14) (size 15 to 20)
#    0.000    1.500    0.000    5.250    0.000    6.000 
#    0.000    2.500    0.000    0.000    0.000    0.000 
#    0.000    0.000    0.000    0.000    0.000    0.000 
#
# Total GULP energy -396935.214186 kJ/mol
# GULP energy per Si atom -12404.225443 kJ/mol
# Density = 1.965301 g / cm^3
# Si number density = 19.697842 Si / 1000 Ang^3
#
#
#
# Elastic Constant Matrix: (Units=GPa)
#
#
# Indices 1 2 3 4 5 6 
#
# 1 127.8971 96.3174 54.4749 0.0000 0.0000 0.0000
# 2 96.3174 191.9804 65.2880 0.0000 0.0000 0.0000
# 3 54.4749 65.2880 112.1096 0.0000 0.0000 0.0000
# 4 0.0000 0.0000 0.0000 40.8521 0.0000 0.0000
# 5 0.0000 0.0000 0.0000 0.0000 30.7699 0.0000
# 6 0.0000 0.0000 0.0000 0.0000 0.0000 55.7199
#
#
#
# Elastic Compliance Matrix: (Units=1/GPa)
#
#
# Indices 1 2 3 4 5 6 
#
# 1 0.013454 -0.005645 -0.003250 0.000000 0.000000 0.000000
# 2 -0.005645 0.008863 -0.002419 0.000000 0.000000 0.000000
# 3 -0.003250 -0.002419 0.011908 0.000000 0.000000 0.000000
# 4 0.000000 0.000000 0.000000 0.024479 0.000000 0.000000
# 5 0.000000 0.000000 0.000000 0.000000 0.032499 0.000000
# 6 0.000000 0.000000 0.000000 0.000000 0.000000 0.017947
#
#
# Mechanical properties :
#
#
# Convention : Reuss Voigt Hill
#
# Bulk Modulus (GPa) = 86.22365 96.01639 91.12002
# Shear Modulus (GPa) = 36.86134 39.86216 38.36175
#
# Velocity S-wave (km/s) = 4.33059 4.50342 4.41785
# Velocity P-wave (km/s) = 8.29901 8.71157 8.50779
#
# Compressibility (1/GPa) = 0.01159775
#
# Stress axis : x y z
#
# Youngs Moduli (GPa) = 74.32727 112.82345 83.97833
#
# Poissons Ratio (x) = 0.63684 0.27295
# Poissons Ratio (y) = 0.41955 0.20314
# Poissons Ratio (z) = 0.24158 0.27291
#
# Static dielectric constant tensor:
#      x y z
#    x 4.084840 0.000000 0.000000 
#    y 0.000000 3.677850 0.000000 
#    z 0.000000 0.000000 3.723700 
# 
# 
# High freq. dielectric constant tensor:
#      x y z
#    x 1.783400 0.000000 0.000000 
#    y 0.000000 1.773590 0.000000 
#    z 0.000000 0.000000 1.779550 
# 
# From -- ./inp_files/7529.got.cif
#   From: 2010.03.12/outbox.cif.g09.slc.cpg/sg57_4_cif.got.tgz:7529.got - 2010.04.16 15:48:40.
