data_PCOD8233013
_publ_section_title
;
Structure prediction by ZEFSAII (Michael W. Deem and Ramdas Pophale) SiO2 
 PCOD8233013
Probable space group: P B C M
;
_chemical_formula_sum "Si O2"
_cell_formula_units_Z 48
_cell_length_a 8.781374
_cell_length_b 15.604814
_cell_length_c 18.529078
_cell_angle_alpha 90.000000
_cell_angle_beta 90.000000
_cell_angle_gamma 90.000000
_cell_volume 2539.071205
_symmetry_space_group_name_H-M "P B C M"
_symmetry_group_IT_number 57
_symmetry_cell_setting 'orthorhombic'
loop_
_space_group_symop_operation_xyz
x,y,z
-x,-y,1/2+z
x,1/2-y,-z
-x,1/2+y,1/2-z
-x,-y,-z
x,y,1/2-z
-x,1/2+y,z
x,1/2-y,1/2+z
loop_
_atom_site_type_symbol
_atom_site_label
_atom_site_fract_x
_atom_site_fract_y
_atom_site_fract_z
Si Si1 0.296039 0.030179 0.436963
Si Si2 0.220111 0.142044 0.834235
Si Si3 0.641102 0.018655 0.096257
Si Si4 0.126319 0.290905 0.923839
Si Si5 0.885286 0.126958 0.169470
Si Si6 0.921859 0.043736 0.671017
O O1 0.464948 0.043080 0.406891
O O2 0.212149 0.120491 0.436648
O O3 0.289958 0.992151 0.516802
O O4 0.212247 0.959624 0.387339
O O5 0.247489 0.159161 0.750000
O O6 0.241831 0.229721 0.878880
O O7 0.047074 0.113452 0.851371
O O8 0.338961 0.069810 0.859809
O O9 0.725420 0.097898 0.134731
O O10 0.968646 0.302101 0.879560
O O11 0.082811 0.250000 0.000000
O O12 0.855118 0.164216 0.250000
O O13 0.996062 0.046919 0.175137
O O14 0.852838 0.065351 0.750000
#
# Coordination Sequence:
#
# PCOD8233013 Si02
#       6
#     8   8   8   8   8   8
#     4  10  21  35  55  83 114 144 188 223 275 334
#     4  10  20  36  57  81 110 143 184 232 279 328
#     4  10  20  36  56  81 111 149 183 232 270 329
#     4  11  21  35  57  85 111 149 184 233 285 333
#     4   9  19  35  55  80 108 141 184 227 272 328
#     4   8  17  32  54  78 103 136 179 225 261 317
#
# _framework density 18.904551000000001
#
# number of rings (size 3 to 8) (size 9 to 14) (size 15 to 20)
#    0.000    2.333    1.667    2.000    2.333    4.000 
#    0.000    2.500    0.000    0.000    0.000    0.000 
#    0.000    0.000    0.000    0.000    0.000    0.000 
#
# Total GULP energy -595171.217666 kJ/mol
# GULP energy per Si atom -12399.400368 kJ/mol
# Density = 1.886152 g / cm^3
# Si number density = 18.904551 Si / 1000 Ang^3
#
#
#
# Elastic Constant Matrix: (Units=GPa)
#
#
# Indices 1 2 3 4 5 6 
#
# 1 72.0681 15.6071 56.5521 0.0000 0.0000 0.0000
# 2 15.6071 43.1296 20.3204 0.0000 0.0000 0.0000
# 3 56.5521 20.3204 138.6289 0.0000 0.0000 0.0000
# 4 0.0000 0.0000 0.0000 20.0586 0.0000 0.0000
# 5 0.0000 0.0000 0.0000 0.0000 26.3633 0.0000
# 6 0.0000 0.0000 0.0000 0.0000 0.0000 10.8342
#
#
#
# Elastic Compliance Matrix: (Units=1/GPa)
#
#
# Indices 1 2 3 4 5 6 
#
# 1 0.020980 -0.003824 -0.007998 0.000000 0.000000 0.000000
# 2 -0.003824 0.025603 -0.002193 0.000000 0.000000 0.000000
# 3 -0.007998 -0.002193 0.010798 0.000000 0.000000 0.000000
# 4 0.000000 0.000000 0.000000 0.049854 0.000000 0.000000
# 5 0.000000 0.000000 0.000000 0.000000 0.037932 0.000000
# 6 0.000000 0.000000 0.000000 0.000000 0.000000 0.092301
#
#
# Mechanical properties :
#
#
# Convention : Reuss Voigt Hill
#
# Bulk Modulus (GPa) = 34.07048 48.75397 41.41223
# Shear Modulus (GPa) = 18.16335 22.20767 20.18551
#
# Velocity S-wave (km/s) = 3.10303 3.43115 3.27120
# Velocity P-wave (km/s) = 5.55877 6.44535 6.01841
#
# Compressibility (1/GPa) = 0.02935092
#
# Stress axis : x y z
#
# Youngs Moduli (GPa) = 47.66463 39.05812 92.61241
#
# Poissons Ratio (x) = 0.14934 0.74072
# Poissons Ratio (y) = 0.18225 0.20311
# Poissons Ratio (z) = 0.38122 0.08566
#
# Static dielectric constant tensor:
#      x y z
#    x 3.273300 0.000000 0.000000 
#    y 0.000000 3.381980 0.000000 
#    z 0.000000 0.000000 3.841260 
# 
# 
# High freq. dielectric constant tensor:
#      x y z
#    x 1.708350 0.000000 0.000000 
#    y 0.000000 1.719300 0.000000 
#    z 0.000000 0.000000 1.757750 
# 
# From -- ./inp_files/20941.got.cif
#   From: 2010.03.12/outbox.cif.g09.slc.cpg/sg57_11_cif.got.tgz:20941.got - 2010.04.16 15:48:40.
