data_PCOD8233001
_publ_section_title
;
Structure prediction by ZEFSAII (Michael W. Deem and Ramdas Pophale) SiO2 
 PCOD8233001
Probable space group: P B C M
;
_chemical_formula_sum "Si O2"
_cell_formula_units_Z 64
_cell_length_a 19.504865
_cell_length_b 18.765920
_cell_length_c 9.218537
_cell_angle_alpha 90.000000
_cell_angle_beta 90.000000
_cell_angle_gamma 90.000000
_cell_volume 3374.231011
_symmetry_space_group_name_H-M "P B C M"
_symmetry_group_IT_number 57
_symmetry_cell_setting 'orthorhombic'
loop_
_space_group_symop_operation_xyz
x,y,z
-x,-y,1/2+z
x,1/2-y,-z
-x,1/2+y,1/2-z
-x,-y,-z
x,y,1/2-z
-x,1/2+y,z
x,1/2-y,1/2+z
loop_
_atom_site_type_symbol
_atom_site_label
_atom_site_fract_x
_atom_site_fract_y
_atom_site_fract_z
Si Si1 0.533808 0.676425 0.081310
Si Si2 0.593923 0.414937 0.918602
Si Si3 0.209558 0.442381 0.919233
Si Si4 0.725116 0.178196 0.419488
Si Si5 0.027862 0.819548 0.083716
Si Si6 0.873113 0.822691 0.421541
Si Si7 0.632999 0.550510 0.417603
Si Si8 0.159841 0.597974 0.916713
O O1 0.525212 0.693976 0.250000
O O2 0.466048 0.636409 0.022142
O O3 0.599871 0.627288 0.051096
O O4 0.545192 0.750000 0.000000
O O5 0.581863 0.429592 0.750000
O O6 0.666798 0.379466 0.951244
O O7 0.590617 0.490702 0.997268
O O8 0.202625 0.421928 0.750000
O O9 0.288360 0.447803 0.967850
O O10 0.171633 0.516014 0.955601
O O11 0.175485 0.383772 0.019461
O O12 0.703491 0.250000 0.500000
O O13 0.733528 0.194184 0.250000
O O14 0.796183 0.148951 0.481049
O O15 0.027659 0.796752 0.250000
O O16 0.079888 0.884652 0.054327
O O17 0.951452 0.842807 0.036448
O O18 0.053644 0.750000 0.000000
O O19 0.851497 0.750000 0.500000
O O20 0.862661 0.814372 0.250000
O O21 0.627574 0.529827 0.250000
O O22 0.180641 0.613142 0.750000
#
# Coordination Sequence:
#
# PCOD8233001 Si02
#       8
#     8   8   8   8   8   8   8   8
#     4  10  22  39  58  84 114 146 188 234 279 332
#     4  10  21  37  57  83 113 146 186 231 276 330
#     4  10  21  37  57  83 114 148 185 228 280 336
#     4  11  22  34  52  80 113 148 188 228 272 327
#     4   9  19  35  55  80 109 145 187 230 278 332
#     4  10  21  38  59  82 109 143 186 234 282 333
#     4  10  21  38  60  84 113 149 188 228 279 337
#     4  10  20  36  56  79 113 150 185 227 277 333
#
# _framework density 18.967283999999999
#
# number of rings (size 3 to 8) (size 9 to 14) (size 15 to 20)
#    0.000    2.000    1.250    1.875    0.000    5.500 
#    0.000    1.250    0.000    0.000    0.000    0.000 
#    0.000    0.000    0.000    0.000    0.000    0.000 
#
# Total GULP energy -793855.059498 kJ/mol
# GULP energy per Si atom -12403.985305 kJ/mol
# Density = 1.892411 g / cm^3
# Si number density = 18.967284 Si / 1000 Ang^3
#
#
#
# Elastic Constant Matrix: (Units=GPa)
#
#
# Indices 1 2 3 4 5 6 
#
# 1 80.4613 60.5624 38.3185 0.0000 0.0000 0.0000
# 2 60.5624 132.9098 59.6407 0.0000 0.0000 0.0000
# 3 38.3185 59.6407 71.3304 0.0000 0.0000 0.0000
# 4 0.0000 0.0000 0.0000 38.3007 0.0000 0.0000
# 5 0.0000 0.0000 0.0000 0.0000 20.7610 0.0000
# 6 0.0000 0.0000 0.0000 0.0000 0.0000 28.6669
#
#
#
# Elastic Compliance Matrix: (Units=1/GPa)
#
#
# Indices 1 2 3 4 5 6 
#
# 1 0.019968 -0.006859 -0.004992 0.000000 0.000000 0.000000
# 2 -0.006859 0.014398 -0.008354 0.000000 0.000000 0.000000
# 3 -0.004992 -0.008354 0.023686 0.000000 0.000000 0.000000
# 4 0.000000 0.000000 0.000000 0.026109 0.000000 0.000000
# 5 0.000000 0.000000 0.000000 0.000000 0.048167 0.000000
# 6 0.000000 0.000000 0.000000 0.000000 0.000000 0.034883
#
#
# Mechanical properties :
#
#
# Convention : Reuss Voigt Hill
#
# Bulk Modulus (GPa) = 56.68134 66.86052 61.77093
# Shear Modulus (GPa) = 23.41899 25.95771 24.68835
#
# Velocity S-wave (km/s) = 3.51765 3.70341 3.61172
# Velocity P-wave (km/s) = 6.81521 7.32215 7.07322
#
# Compressibility (1/GPa) = 0.01764249
#
# Stress axis : x y z
#
# Youngs Moduli (GPa) = 50.07945 69.45530 42.21931
#
# Poissons Ratio (x) = 0.47637 0.21077
# Poissons Ratio (y) = 0.34348 0.35269
# Poissons Ratio (z) = 0.25001 0.58021
#
# Static dielectric constant tensor:
#      x y z
#    x 3.614780 0.000000 0.000000 
#    y 0.000000 3.412710 0.000000 
#    z 0.000000 0.000000 3.423630 
# 
# 
# High freq. dielectric constant tensor:
#      x y z
#    x 1.745470 0.000000 0.000000 
#    y 0.000000 1.737700 0.000000 
#    z 0.000000 0.000000 1.734300 
# 
# From -- ./inp_files/8611.got.cif
#   From: 2010.03.12/outbox.cif.g09.slc.cpg/sg57_5_cif.got.tgz:8611.got - 2010.04.16 15:48:40.
