data_PCOD8233585
_publ_section_title
;
Structure prediction by ZEFSAII (Michael W. Deem and Ramdas Pophale) SiO2 
 PCOD8233585
Probable space group: P B C M
;
_chemical_formula_sum "Si O2"
_cell_formula_units_Z 56
_cell_length_a 10.120149
_cell_length_b 19.577502
_cell_length_c 13.447478
_cell_angle_alpha 90.000000
_cell_angle_beta 90.000000
_cell_angle_gamma 90.000000
_cell_volume 2664.311665
_symmetry_space_group_name_H-M "P B C M"
_symmetry_group_IT_number 57
_symmetry_cell_setting 'orthorhombic'
loop_
_space_group_symop_operation_xyz
x,y,z
-x,-y,1/2+z
x,1/2-y,-z
-x,1/2+y,1/2-z
-x,-y,-z
x,y,1/2-z
-x,1/2+y,z
x,1/2-y,1/2+z
loop_
_atom_site_type_symbol
_atom_site_label
_atom_site_fract_x
_atom_site_fract_y
_atom_site_fract_z
Si Si1 0.458038 0.841208 0.929924
Si Si2 0.077479 0.301361 0.868444
Si Si3 0.293230 0.411870 0.634316
Si Si4 0.525716 0.804280 0.361183
Si Si5 0.171676 0.157947 0.862018
Si Si6 0.821289 0.381752 0.635096
Si Si7 0.853715 0.981943 0.474161
O O1 0.552844 0.902871 0.894930
O O2 0.530471 0.775709 0.884030
O O3 0.313435 0.841178 0.882766
O O4 0.442908 0.840816 0.050501
O O5 0.071549 0.295269 0.750000
O O6 0.944506 0.338339 0.910110
O O7 0.205459 0.346195 0.898268
O O8 0.096452 0.223842 0.911249
O O9 0.278603 0.429017 0.750000
O O10 0.236888 0.476175 0.572740
O O11 0.466277 0.818294 0.250000
O O12 0.672651 0.831853 0.366074
O O13 0.121664 0.149474 0.750000
O O14 0.137886 0.089126 0.917446
O O15 0.850481 0.392328 0.750000
O O16 0.796481 0.456379 0.590199
O O17 0.000000 0.000000 0.500000
#
# Coordination Sequence:
#
# PCOD8233585 Si02
#       7
#     8   8   8   8   8   8   8
#     4  11  22  40  67  97 130 175 218 265 335 400
#     4   9  19  38  67  96 125 167 216 269 327 385
#     4  11  21  39  65  93 128 172 222 268 319 396
#     4  10  20  38  66  99 130 163 215 280 327 378
#     4  10  20  39  69  99 127 165 223 282 325 380
#     4  11  24  44  66  95 137 177 214 266 339 413
#     4  12  25  41  62  95 130 179 223 269 332 395
#
# _framework density 21.018563
#
# number of rings (size 3 to 8) (size 9 to 14) (size 15 to 20)
#    0.000    1.429    4.286    1.714    0.000    1.714 
#    5.143    0.714    0.000    0.000    0.000    0.000 
#    0.000    0.000    0.000    0.000    0.000    0.000 
#
# Total GULP energy -694263.659839 kJ/mol
# GULP energy per Si atom -12397.565354 kJ/mol
# Density = 2.097072 g / cm^3
# Si number density = 21.018563 Si / 1000 Ang^3
#
#
#
# Elastic Constant Matrix: (Units=GPa)
#
#
# Indices 1 2 3 4 5 6 
#
# 1 80.3500 10.5768 6.5430 0.0000 0.0000 0.0000
# 2 10.5768 91.8218 32.8747 0.0000 0.0000 0.0000
# 3 6.5430 32.8747 67.7507 0.0000 0.0000 0.0000
# 4 0.0000 0.0000 0.0000 26.2806 0.0000 0.0000
# 5 0.0000 0.0000 0.0000 0.0000 29.1066 0.0000
# 6 0.0000 0.0000 0.0000 0.0000 0.0000 22.2915
#
#
#
# Elastic Compliance Matrix: (Units=1/GPa)
#
#
# Indices 1 2 3 4 5 6 
#
# 1 0.012659 -0.001235 -0.000623 0.000000 0.000000 0.000000
# 2 -0.001235 0.013301 -0.006335 0.000000 0.000000 0.000000
# 3 -0.000623 -0.006335 0.017894 0.000000 0.000000 0.000000
# 4 0.000000 0.000000 0.000000 0.038051 0.000000 0.000000
# 5 0.000000 0.000000 0.000000 0.000000 0.034356 0.000000
# 6 0.000000 0.000000 0.000000 0.000000 0.000000 0.044860
#
#
# Mechanical properties :
#
#
# Convention : Reuss Voigt Hill
#
# Bulk Modulus (GPa) = 36.40631 37.76795 37.08713
# Shear Modulus (GPa) = 26.78620 28.19761 27.49190
#
# Velocity S-wave (km/s) = 3.57376 3.66670 3.62053
# Velocity P-wave (km/s) = 5.86409 5.99451 5.92966
#
# Compressibility (1/GPa) = 0.02746776
#
# Stress axis : x y z
#
# Youngs Moduli (GPa) = 78.99599 75.18270 55.88460
#
# Poissons Ratio (x) = 0.09285 0.03483
# Poissons Ratio (y) = 0.09756 0.35402
# Poissons Ratio (z) = 0.04924 0.47626
#
# Static dielectric constant tensor:
#      x y z
#    x 3.553280 0.000000 0.000000 
#    y 0.000000 5.115980 0.000000 
#    z 0.000000 0.000000 4.106000 
# 
# 
# High freq. dielectric constant tensor:
#      x y z
#    x 1.811260 0.000000 0.000000 
#    y 0.000000 1.808200 0.000000 
#    z 0.000000 0.000000 1.841820 
# 
# From -- ./inp_files/16745.got.cif
#   From: 2010.03.12/outbox.cif.g09.slc.cpg/sg57_9_cif.got.tgz:16745.got - 2010.04.16 15:48:40.
