data_PCOD8233191
_publ_section_title
;
Structure prediction by ZEFSAII (Michael W. Deem and Ramdas Pophale) SiO2 
 PCOD8233191
Probable space group: P B C M
;
_chemical_formula_sum "Si O2"
_cell_formula_units_Z 64
_cell_length_a 23.819837
_cell_length_b 15.045879
_cell_length_c 8.813005
_cell_angle_alpha 90.000000
_cell_angle_beta 90.000000
_cell_angle_gamma 90.000000
_cell_volume 3158.496258
_symmetry_space_group_name_H-M "P B C M"
_symmetry_group_IT_number 57
_symmetry_cell_setting 'orthorhombic'
loop_
_space_group_symop_operation_xyz
x,y,z
-x,-y,1/2+z
x,1/2-y,-z
-x,1/2+y,1/2-z
-x,-y,-z
x,y,1/2-z
-x,1/2+y,z
x,1/2-y,1/2+z
loop_
_atom_site_type_symbol
_atom_site_label
_atom_site_fract_x
_atom_site_fract_y
_atom_site_fract_z
Si Si1 0.497792 0.157598 0.568909
Si Si2 0.987991 0.350068 0.929520
Si Si3 0.607259 0.908449 0.921157
Si Si4 0.381278 0.888650 0.079656
Si Si5 0.078437 0.495887 0.573370
Si Si6 0.263014 0.837273 0.428934
Si Si7 0.284763 0.338846 0.428319
Si Si8 0.207125 0.017768 0.073579
O O1 0.476920 0.250000 0.500000
O O2 0.497340 0.155578 0.750000
O O3 0.452551 0.087496 0.506819
O O4 0.559698 0.136292 0.499538
O O5 0.983573 0.337365 0.750000
O O6 0.042700 0.408765 0.976511
O O7 0.989030 0.250000 0.000000
O O8 0.936516 0.412046 0.986545
O O9 0.599464 0.872338 0.750000
O O10 0.630890 0.007275 0.919893
O O11 0.652367 0.848996 0.007843
O O12 0.386196 0.852280 0.250000
O O13 0.326285 0.846549 0.000535
O O14 0.069285 0.516307 0.750000
O O15 0.141993 0.469429 0.536095
O O16 0.234757 0.750000 0.500000
O O17 0.267032 0.828722 0.250000
O O18 0.223650 0.918492 0.474662
O O19 0.258516 0.250000 0.500000
O O20 0.288681 0.329874 0.250000
O O21 0.243311 0.417701 0.470630
O O22 0.220785 0.036268 0.250000
#
# Coordination Sequence:
#
# PCOD8233191 Si02
#       8
#     8   8   8   8   8   8   8   8
#     4  11  22  36  53  80 111 142 185 234 290 356
#     4  10  20  36  60  90 126 164 206 250 298 352
#     4  11  21  39  61  81 109 146 189 240 301 358
#     4   9  19  36  58  80 108 145 187 235 293 354
#     4   9  20  38  61  90 122 163 207 250 300 350
#     4  10  20  37  59  84 115 154 194 240 294 351
#     4  12  25  41  62  88 117 154 200 247 300 361
#     4  10  21  41  64  87 123 161 200 249 300 351
#
# _framework density 20.262808
#
# number of rings (size 3 to 8) (size 9 to 14) (size 15 to 20)
#    0.000    1.750    1.250    3.375    0.000    2.500 
#    0.000    5.000    0.000    0.000    0.000    0.000 
#    0.000    0.000    0.000    0.000    0.000    0.000 
#
# Total GULP energy -793447.379973 kJ/mol
# GULP energy per Si atom -12397.615312 kJ/mol
# Density = 2.021669 g / cm^3
# Si number density = 20.262808 Si / 1000 Ang^3
#
#
#
# Elastic Constant Matrix: (Units=GPa)
#
#
# Indices 1 2 3 4 5 6 
#
# 1 84.8220 18.6640 33.5180 0.0000 0.0000 0.0000
# 2 18.6640 106.1024 43.0700 0.0000 0.0000 0.0000
# 3 33.5180 43.0700 96.1532 0.0000 0.0000 0.0000
# 4 0.0000 0.0000 0.0000 32.9903 0.0000 0.0000
# 5 0.0000 0.0000 0.0000 0.0000 19.3365 0.0000
# 6 0.0000 0.0000 0.0000 0.0000 0.0000 9.9656
#
#
#
# Elastic Compliance Matrix: (Units=1/GPa)
#
#
# Indices 1 2 3 4 5 6 
#
# 1 0.013702 -0.000576 -0.004518 0.000000 0.000000 0.000000
# 2 -0.000576 0.011544 -0.004970 0.000000 0.000000 0.000000
# 3 -0.004518 -0.004970 0.014201 0.000000 0.000000 0.000000
# 4 0.000000 0.000000 0.000000 0.030312 0.000000 0.000000
# 5 0.000000 0.000000 0.000000 0.000000 0.051716 0.000000
# 6 0.000000 0.000000 0.000000 0.000000 0.000000 0.100345
#
#
# Mechanical properties :
#
#
# Convention : Reuss Voigt Hill
#
# Bulk Modulus (GPa) = 51.76516 53.06463 52.41490
# Shear Modulus (GPa) = 20.12986 25.24685 22.68836
#
# Velocity S-wave (km/s) = 3.15531 3.53366 3.34983
# Velocity P-wave (km/s) = 6.23514 6.54935 6.39418
#
# Compressibility (1/GPa) = 0.01931801
#
# Stress axis : x y z
#
# Youngs Moduli (GPa) = 72.98444 86.62786 70.41640
#
# Poissons Ratio (x) = 0.04991 0.31815
# Poissons Ratio (y) = 0.04205 0.34996
# Poissons Ratio (z) = 0.32976 0.43053
#
# Static dielectric constant tensor:
#      x y z
#    x 3.738040 0.000000 0.000000 
#    y 0.000000 3.616910 0.000000 
#    z 0.000000 0.000000 3.530860 
# 
# 
# High freq. dielectric constant tensor:
#      x y z
#    x 1.792760 0.000000 0.000000 
#    y 0.000000 1.799340 0.000000 
#    z 0.000000 0.000000 1.777380 
# 
# From -- ./inp_files/9390.got.cif
#   From: 2010.03.12/outbox.cif.g09.slc.cpg/sg57_5_cif.got.tgz:9390.got - 2010.04.16 15:48:40.
