data_PCOD8233799
_publ_section_title
;
Structure prediction by ZEFSAII (Michael W. Deem and Ramdas Pophale) SiO2 
 PCOD8233799
Probable space group: P B C M
;
_chemical_formula_sum "Si O2"
_cell_formula_units_Z 48
_cell_length_a 27.436707
_cell_length_b 5.067682
_cell_length_c 16.778485
_cell_angle_alpha 90.000000
_cell_angle_beta 90.000000
_cell_angle_gamma 90.000000
_cell_volume 2332.889048
_symmetry_space_group_name_H-M "P B C M"
_symmetry_group_IT_number 57
_symmetry_cell_setting 'orthorhombic'
loop_
_space_group_symop_operation_xyz
x,y,z
-x,-y,1/2+z
x,1/2-y,-z
-x,1/2+y,1/2-z
-x,-y,-z
x,y,1/2-z
-x,1/2+y,z
x,1/2-y,1/2+z
loop_
_atom_site_type_symbol
_atom_site_label
_atom_site_fract_x
_atom_site_fract_y
_atom_site_fract_z
Si Si1 0.365965 0.659514 0.589832
Si Si2 0.317077 0.146973 0.657735
Si Si3 0.970692 0.962838 0.155762
Si Si4 0.531417 0.126724 0.657905
Si Si5 0.879322 0.007696 0.447119
Si Si6 0.229887 0.994045 0.946691
O O1 0.356018 0.750000 0.500000
O O2 0.332286 0.406724 0.608410
O O3 0.421829 0.576027 0.602881
O O4 0.355417 0.908889 0.646984
O O5 0.313726 0.225226 0.750000
O O6 0.264986 0.037915 0.628349
O O7 0.968319 0.967018 0.250000
O O8 0.002989 0.202908 0.122711
O O9 0.915207 0.976133 0.127010
O O10 0.547480 0.103082 0.750000
O O11 0.509143 0.410112 0.637339
O O12 0.880259 0.750000 0.500000
O O13 0.824690 0.063526 0.414217
O O14 0.897731 0.250000 0.500000
O O15 0.229660 0.250000 0.000000
O O16 0.248998 0.750000 0.000000
#
# Coordination Sequence:
#
# PCOD8233799 Si02
#       6
#     8   8   8   8   8   8
#     4  12  25  41  63  91 123 158 197 244 296 349
#     4  12  24  40  63  90 119 155 200 244 292 353
#     4  10  21  36  54  79 113 151 190 236 287 338
#     4  10  21  38  60  86 119 156 193 239 292 344
#     4  10  21  36  57  84 112 148 190 236 287 343
#     4  10  21  39  60  84 117 151 189 238 295 350
#
# _framework density 20.575346
#
# number of rings (size 3 to 8) (size 9 to 14) (size 15 to 20)
#    0.000    1.333    0.000    6.500    0.000    4.667 
#    0.000    0.000    0.000   10.000    0.000    0.000 
#    0.000    0.000    0.000    0.000    0.000    0.000 
#
# Total GULP energy -595432.461302 kJ/mol
# GULP energy per Si atom -12404.842944 kJ/mol
# Density = 2.052852 g / cm^3
# Si number density = 20.575346 Si / 1000 Ang^3
#
#
#
# Elastic Constant Matrix: (Units=GPa)
#
#
# Indices 1 2 3 4 5 6 
#
# 1 119.2653 26.2011 52.1968 0.0000 0.0000 0.0000
# 2 26.2011 130.5459 33.5278 0.0000 0.0000 0.0000
# 3 52.1968 33.5278 77.7734 0.0000 0.0000 0.0000
# 4 0.0000 0.0000 0.0000 20.7303 0.0000 0.0000
# 5 0.0000 0.0000 0.0000 0.0000 38.9437 0.0000
# 6 0.0000 0.0000 0.0000 0.0000 0.0000 34.6388
#
#
#
# Elastic Compliance Matrix: (Units=1/GPa)
#
#
# Indices 1 2 3 4 5 6 
#
# 1 0.011888 -0.000379 -0.007815 0.000000 0.000000 0.000000
# 2 -0.000379 0.008626 -0.003464 0.000000 0.000000 0.000000
# 3 -0.007815 -0.003464 0.019597 0.000000 0.000000 0.000000
# 4 0.000000 0.000000 0.000000 0.048238 0.000000 0.000000
# 5 0.000000 0.000000 0.000000 0.000000 0.025678 0.000000
# 6 0.000000 0.000000 0.000000 0.000000 0.000000 0.028869
#
#
# Mechanical properties :
#
#
# Convention : Reuss Voigt Hill
#
# Bulk Modulus (GPa) = 59.54640 61.27067 60.40853
# Shear Modulus (GPa) = 29.10160 33.23983 31.17072
#
# Velocity S-wave (km/s) = 3.76492 4.02371 3.89646
# Velocity P-wave (km/s) = 6.92120 7.17149 7.04746
#
# Compressibility (1/GPa) = 0.01679363
#
# Stress axis : x y z
#
# Youngs Moduli (GPa) = 84.11608 115.92979 51.02929
#
# Poissons Ratio (x) = 0.04392 0.39882
# Poissons Ratio (y) = 0.03186 0.17678
# Poissons Ratio (z) = 0.65740 0.40162
#
# Static dielectric constant tensor:
#      x y z
#    x 3.938970 0.000000 0.000000 
#    y 0.000000 4.017910 0.000000 
#    z 0.000000 0.000000 3.416060 
# 
# 
# High freq. dielectric constant tensor:
#      x y z
#    x 1.816450 0.000000 0.000000 
#    y 0.000000 1.827760 0.000000 
#    z 0.000000 0.000000 1.782260 
# 
# From -- ./inp_files/19562.got.cif
#   From: 2010.03.12/outbox.cif.g09.slc.cpg/sg57_10_cif.got.tgz:19562.got - 2010.04.16 15:48:40.
