data_PCOD8233524
_publ_section_title
;
Structure prediction by ZEFSAII (Michael W. Deem and Ramdas Pophale) SiO2 
 PCOD8233524
Probable space group: P B C M
;
_chemical_formula_sum "Si O2"
_cell_formula_units_Z 64
_cell_length_a 12.218554
_cell_length_b 14.321346
_cell_length_c 17.605903
_cell_angle_alpha 90.000000
_cell_angle_beta 90.000000
_cell_angle_gamma 90.000000
_cell_volume 3080.788998
_symmetry_space_group_name_H-M "P B C M"
_symmetry_group_IT_number 57
_symmetry_cell_setting 'orthorhombic'
loop_
_space_group_symop_operation_xyz
x,y,z
-x,-y,1/2+z
x,1/2-y,-z
-x,1/2+y,1/2-z
-x,-y,-z
x,y,1/2-z
-x,1/2+y,z
x,1/2-y,1/2+z
loop_
_atom_site_type_symbol
_atom_site_label
_atom_site_fract_x
_atom_site_fract_y
_atom_site_fract_z
Si Si1 0.398341 0.414057 0.418430
Si Si2 0.308396 0.801538 0.834832
Si Si3 0.098031 0.691111 0.835018
Si Si4 0.602127 0.539338 0.093690
Si Si5 0.994860 0.614344 0.162307
Si Si6 0.555215 0.731186 0.163429
Si Si7 0.800371 0.465280 0.593543
Si Si8 0.157540 0.984293 0.078832
O O1 0.407306 0.421598 0.508695
O O2 0.500858 0.471955 0.383479
O O3 0.394818 0.306946 0.393305
O O4 0.280970 0.449920 0.387687
O O5 0.304249 0.847825 0.750000
O O6 0.226156 0.715070 0.837134
O O7 0.427042 0.764081 0.853841
O O8 0.276749 0.874063 0.900917
O O9 0.061486 0.663799 0.750000
O O10 0.085150 0.600839 0.887794
O O11 0.026597 0.780035 0.863170
O O12 0.602782 0.628357 0.148843
O O13 0.715317 0.482577 0.104070
O O14 0.959090 0.611608 0.250000
O O15 0.895427 0.580579 0.109409
O O16 0.100338 0.546299 0.152832
O O17 0.581849 0.758748 0.250000
O O18 0.853975 0.476811 0.511124
#
# Coordination Sequence:
#
# PCOD8233524 Si02
#       8
#     8   8   8   8   8   8   8   8
#     4  10  21  39  61  88 125 166 206 246 304 374
#     4   9  18  34  55  84 122 158 200 252 292 347
#     4   9  19  37  60  86 115 156 202 245 304 360
#     4  10  22  40  59  89 125 165 198 253 311 359
#     4  10  22  40  61  85 120 158 195 255 315 363
#     4  11  22  35  57  90 125 164 206 248 302 365
#     4  10  20  38  62  87 118 154 209 253 301 361
#     4  11  22  38  63  91 120 154 205 254 303 368
#
# _framework density 20.773897999999999
#
# number of rings (size 3 to 8) (size 9 to 14) (size 15 to 20)
#    0.000    2.000    1.250    3.000    0.000    4.500 
#    4.500    0.000    2.750    0.000    0.000    0.000 
#    0.000    0.000    0.000    0.000    0.000    0.000 
#
# Total GULP energy -793464.935435 kJ/mol
# GULP energy per Si atom -12397.889616 kJ/mol
# Density = 2.072662 g / cm^3
# Si number density = 20.773898 Si / 1000 Ang^3
#
#
#
# Elastic Constant Matrix: (Units=GPa)
#
#
# Indices 1 2 3 4 5 6 
#
# 1 62.1710 26.1908 24.5115 0.0000 0.0000 0.0000
# 2 26.1908 101.1239 42.5581 0.0000 0.0000 0.0000
# 3 24.5115 42.5581 62.3772 0.0000 0.0000 0.0000
# 4 0.0000 0.0000 0.0000 30.9584 0.0000 0.0000
# 5 0.0000 0.0000 0.0000 0.0000 29.3829 0.0000
# 6 0.0000 0.0000 0.0000 0.0000 0.0000 30.9413
#
#
#
# Elastic Compliance Matrix: (Units=1/GPa)
#
#
# Indices 1 2 3 4 5 6 
#
# 1 0.019495 -0.002560 -0.005914 0.000000 0.000000 0.000000
# 2 -0.002560 0.014208 -0.008688 0.000000 0.000000 0.000000
# 3 -0.005914 -0.008688 0.024283 0.000000 0.000000 0.000000
# 4 0.000000 0.000000 0.000000 0.032301 0.000000 0.000000
# 5 0.000000 0.000000 0.000000 0.000000 0.034033 0.000000
# 6 0.000000 0.000000 0.000000 0.000000 0.000000 0.032319
#
#
# Mechanical properties :
#
#
# Convention : Reuss Voigt Hill
#
# Bulk Modulus (GPa) = 42.26168 45.79923 44.03046
# Shear Modulus (GPa) = 25.14446 27.08396 26.11421
#
# Velocity S-wave (km/s) = 3.48284 3.61466 3.54936
# Velocity P-wave (km/s) = 6.04660 6.28613 6.16753
#
# Compressibility (1/GPa) = 0.02366210
#
# Stress axis : x y z
#
# Youngs Moduli (GPa) = 51.29567 70.38178 41.18145
#
# Poissons Ratio (x) = 0.18020 0.24354
# Poissons Ratio (y) = 0.13133 0.35778
# Poissons Ratio (z) = 0.30335 0.61146
#
# Static dielectric constant tensor:
#      x y z
#    x 3.797750 0.000000 0.000000 
#    y 0.000000 3.566150 0.000000 
#    z 0.000000 0.000000 3.679690 
# 
# 
# High freq. dielectric constant tensor:
#      x y z
#    x 1.811210 0.000000 0.000000 
#    y 0.000000 1.803210 0.000000 
#    z 0.000000 0.000000 1.803920 
# 
# From -- ./inp_files/22025.got.cif
#   From: 2010.03.12/outbox.cif.g09.slc.cpg/sg57_12_cif.got.tgz:22025.got - 2010.04.16 15:48:40.
