data_PCOD8233273
_publ_section_title
;
Structure prediction by ZEFSAII (Michael W. Deem and Ramdas Pophale) SiO2 
 PCOD8233273
Probable space group: P B C M
;
_chemical_formula_sum "Si O2"
_cell_formula_units_Z 40
_cell_length_a 25.845540
_cell_length_b 9.101549
_cell_length_c 8.557283
_cell_angle_alpha 90.000000
_cell_angle_beta 90.000000
_cell_angle_gamma 90.000000
_cell_volume 2012.967749
_symmetry_space_group_name_H-M "P B C M"
_symmetry_group_IT_number 57
_symmetry_cell_setting 'orthorhombic'
loop_
_space_group_symop_operation_xyz
x,y,z
-x,-y,1/2+z
x,1/2-y,-z
-x,1/2+y,1/2-z
-x,-y,-z
x,y,1/2-z
-x,1/2+y,z
x,1/2-y,1/2+z
loop_
_atom_site_type_symbol
_atom_site_label
_atom_site_fract_x
_atom_site_fract_y
_atom_site_fract_z
Si Si1 0.655109 0.412196 0.564264
Si Si2 0.245747 0.088899 0.566135
Si Si3 0.547835 0.088162 0.564966
Si Si4 0.144934 0.913192 0.935334
Si Si5 0.951522 0.587045 0.434921
O O1 0.665680 0.250000 0.500000
O O2 0.651632 0.404157 0.750000
O O3 0.700944 0.517755 0.504889
O O4 0.601911 0.479852 0.495951
O O5 0.237756 0.250000 0.500000
O O6 0.246876 0.101799 0.750000
O O7 0.199042 0.984620 0.511880
O O8 0.542722 0.250000 0.500000
O O9 0.547109 0.087842 0.750000
O O10 0.500000 0.000000 0.500000
O O11 0.137803 0.911898 0.750000
O O12 0.142300 0.750000 0.000000
O O13 0.100474 0.008722 0.012355
O O14 0.952441 0.750000 0.500000
O O15 0.954594 0.591844 0.250000
O O16 0.000000 0.500000 0.500000
#
# Coordination Sequence:
#
# PCOD8233273 Si02
#       5
#     8   8   8   8   8
#     4  10  20  37  58  84 114 150 193 239 288 347
#     4  10  23  39  59  86 119 154 194 240 292 348
#     4  11  22  38  59  85 115 152 193 240 292 349
#     4  11  23  41  63  91 122 159 201 245 295 352
#     4  12  25  43  65  92 124 161 201 248 298 352
#
# _framework density 19.871155999999999
#
# number of rings (size 3 to 8) (size 9 to 14) (size 15 to 20)
#    0.000    1.200    0.000    7.800    0.000    5.600 
#    0.000    2.000    0.000    0.000    0.000    0.000 
#    0.000    0.000    0.000    0.000    0.000    0.000 
#
# Total GULP energy -496151.877709 kJ/mol
# GULP energy per Si atom -12403.796943 kJ/mol
# Density = 1.982593 g / cm^3
# Si number density = 19.871156 Si / 1000 Ang^3
#
#
#
# Elastic Constant Matrix: (Units=GPa)
#
#
# Indices 1 2 3 4 5 6 
#
# 1 189.5730 93.0575 76.2737 0.0000 0.0000 0.0000
# 2 93.0575 150.1045 59.2521 0.0000 0.0000 0.0000
# 3 76.2737 59.2521 142.2444 0.0000 0.0000 0.0000
# 4 0.0000 0.0000 0.0000 39.6174 0.0000 0.0000
# 5 0.0000 0.0000 0.0000 0.0000 34.7916 0.0000
# 6 0.0000 0.0000 0.0000 0.0000 0.0000 47.6114
#
#
#
# Elastic Compliance Matrix: (Units=1/GPa)
#
#
# Indices 1 2 3 4 5 6 
#
# 1 0.008423 -0.004116 -0.002802 0.000000 0.000000 0.000000
# 2 -0.004116 0.009984 -0.001952 0.000000 0.000000 0.000000
# 3 -0.002802 -0.001952 0.009346 0.000000 0.000000 0.000000
# 4 0.000000 0.000000 0.000000 0.025241 0.000000 0.000000
# 5 0.000000 0.000000 0.000000 0.000000 0.028743 0.000000
# 6 0.000000 0.000000 0.000000 0.000000 0.000000 0.021003
#
#
# Mechanical properties :
#
#
# Convention : Reuss Voigt Hill
#
# Bulk Modulus (GPa) = 99.86805 104.34317 102.10561
# Shear Modulus (GPa) = 40.38229 41.29333 40.83781
#
# Velocity S-wave (km/s) = 4.51289 4.56351 4.53827
# Velocity P-wave (km/s) = 8.80465 8.96612 8.88575
#
# Compressibility (1/GPa) = 0.01001321
#
# Stress axis : x y z
#
# Youngs Moduli (GPa) = 118.72781 100.16013 107.00055
#
# Poissons Ratio (x) = 0.41222 0.29982
# Poissons Ratio (y) = 0.48863 0.20887
# Poissons Ratio (z) = 0.33268 0.19551
#
# Static dielectric constant tensor:
#      x y z
#    x 4.091010 0.000000 0.000000 
#    y 0.000000 3.834880 0.000000 
#    z 0.000000 0.000000 3.792950 
# 
# 
# High freq. dielectric constant tensor:
#      x y z
#    x 1.799740 0.000000 0.000000 
#    y 0.000000 1.781210 0.000000 
#    z 0.000000 0.000000 1.790130 
# 
# From -- ./inp_files/8899.got.cif
#   From: 2010.03.12/outbox.cif.g09.slc.cpg/sg57_5_cif.got.tgz:8899.got - 2010.04.16 15:48:40.
