data_PCOD8233162
_publ_section_title
;
Structure prediction by ZEFSAII (Michael W. Deem and Ramdas Pophale) SiO2 
 PCOD8233162
Probable space group: P B C M
;
_chemical_formula_sum "Si O2"
_cell_formula_units_Z 60
_cell_length_a 8.869830
_cell_length_b 11.488619
_cell_length_c 27.971950
_cell_angle_alpha 90.000000
_cell_angle_beta 90.000000
_cell_angle_gamma 90.000000
_cell_volume 2850.400375
_symmetry_space_group_name_H-M "P B C M"
_symmetry_group_IT_number 57
_symmetry_cell_setting 'orthorhombic'
loop_
_space_group_symop_operation_xyz
x,y,z
-x,-y,1/2+z
x,1/2-y,-z
-x,1/2+y,1/2-z
-x,-y,-z
x,y,1/2-z
-x,1/2+y,z
x,1/2-y,1/2+z
loop_
_atom_site_type_symbol
_atom_site_label
_atom_site_fract_x
_atom_site_fract_y
_atom_site_fract_z
Si Si1 0.907910 0.686581 0.131670
Si Si2 0.769010 0.672430 0.546729
Si Si3 0.772181 0.250000 0.500000
Si Si4 0.382268 0.863354 0.857685
Si Si5 0.328683 0.008833 0.155691
Si Si6 0.138808 0.564449 0.071014
Si Si7 0.838029 0.287742 0.304639
Si Si8 0.561644 0.351854 0.423322
O O1 0.817855 0.760204 0.093501
O O2 0.784478 0.617036 0.162139
O O3 0.002910 0.582932 0.107557
O O4 0.011087 0.775174 0.162918
O O5 0.788972 0.750000 0.500000
O O6 0.874391 0.557649 0.543010
O O7 0.599276 0.626444 0.552712
O O8 0.875673 0.330153 0.533335
O O9 0.671270 0.330649 0.467128
O O10 0.294526 0.935972 0.898537
O O11 0.268108 0.821469 0.816593
O O12 0.453925 0.752198 0.884852
O O13 0.506008 0.941614 0.829539
O O14 0.258574 0.905193 0.187094
O O15 0.362226 0.964552 0.101662
O O16 0.889949 0.282631 0.250000
#
# Coordination Sequence:
#
# PCOD8233162 Si02
#       8
#     8   8   4   8   8   8   8   8
#     4  11  25  44  63  92 132 179 215 271 330 402
#     4  12  24  37  62  94 131 175 228 272 321 382
#     4  10  22  36  60  86 130 174 222 274 320 368
#     4   9  19  39  65  93 124 167 203 270 323 387
#     4  11  21  40  73  91 126 171 216 265 335 389
#     4  10  23  40  58  88 132 174 222 265 330 378
#     4  10  24  45  67  98 131 162 213 274 338 405
#     4  10  20  36  59  94 123 166 218 270 315 377
#
# _framework density 21.049675000000001
#
# number of rings (size 3 to 8) (size 9 to 14) (size 15 to 20)
#    0.000    1.600    3.333    1.600    2.800    2.133 
#    0.000    0.000    0.000    0.000    0.000    0.000 
#    0.000    0.000    0.000    0.000    0.000    0.000 
#
# Total GULP energy -743701.280785 kJ/mol
# GULP energy per Si atom -12395.021346 kJ/mol
# Density = 2.100176 g / cm^3
# Si number density = 21.049675 Si / 1000 Ang^3
#
#
#
# Elastic Constant Matrix: (Units=GPa)
#
#
# Indices 1 2 3 4 5 6 
#
# 1 72.8388 16.0707 18.4557 0.0000 0.0000 0.0000
# 2 16.0707 77.1047 10.9798 0.0000 0.0000 0.0000
# 3 18.4557 10.9798 84.4779 0.0000 0.0000 0.0000
# 4 0.0000 0.0000 0.0000 21.4412 0.0000 0.0000
# 5 0.0000 0.0000 0.0000 0.0000 388.6022 0.0000
# 6 0.0000 0.0000 0.0000 0.0000 0.0000 26.7005
#
#
#
# Elastic Compliance Matrix: (Units=1/GPa)
#
#
# Indices 1 2 3 4 5 6 
#
# 1 0.015075 -0.002723 -0.002939 0.000000 0.000000 0.000000
# 2 -0.002723 0.013706 -0.001186 0.000000 0.000000 0.000000
# 3 -0.002939 -0.001186 0.012634 0.000000 0.000000 0.000000
# 4 0.000000 0.000000 0.000000 0.046639 0.000000 0.000000
# 5 0.000000 0.000000 0.000000 0.000000 0.002573 0.000000
# 6 0.000000 0.000000 0.000000 0.000000 0.000000 0.037452
#
#
# Mechanical properties :
#
#
# Convention : Reuss Voigt Hill
#
# Bulk Modulus (GPa) = 36.08027 36.15934 36.11981
# Shear Modulus (GPa) = 33.10905 99.94314 66.52609
#
# Velocity S-wave (km/s) = 3.97028 6.89802 5.62787
# Velocity P-wave (km/s) = 6.18023 8.98104 7.70890
#
# Compressibility (1/GPa) = 0.02771598
#
# Stress axis : x y z
#
# Youngs Moduli (GPa) = 66.33686 72.96099 79.15292
#
# Poissons Ratio (x) = 0.19870 0.23266
# Poissons Ratio (y) = 0.18066 0.09391
# Poissons Ratio (z) = 0.19499 0.08656
#
# Static dielectric constant tensor:
#      x y z
#    x 3.857740 0.000000 0.000000 
#    y 0.000000 3.891170 0.000000 
#    z 0.000000 0.000000 3.466150 
# 
# 
# High freq. dielectric constant tensor:
#      x y z
#    x 1.834870 0.000000 0.000000 
#    y 0.000000 1.827380 0.000000 
#    z 0.000000 0.000000 1.793140 
# 
# From -- ./inp_files/28392.got.cif
#   From: 2010.03.12/outbox.cif.g09.slc.cpg/sg57_15_cif.got.tgz:28392.got - 2010.04.16 15:48:40.
