data_PCOD8233564
_publ_section_title
;
Structure prediction by ZEFSAII (Michael W. Deem and Ramdas Pophale) SiO2 
 PCOD8233564
Probable space group: P B C M
;
_chemical_formula_sum "Si O2"
_cell_formula_units_Z 48
_cell_length_a 13.817020
_cell_length_b 11.374637
_cell_length_c 14.904089
_cell_angle_alpha 90.000000
_cell_angle_beta 90.000000
_cell_angle_gamma 90.000000
_cell_volume 2342.380087
_symmetry_space_group_name_H-M "P B C M"
_symmetry_group_IT_number 57
_symmetry_cell_setting 'orthorhombic'
loop_
_space_group_symop_operation_xyz
x,y,z
-x,-y,1/2+z
x,1/2-y,-z
-x,1/2+y,1/2-z
-x,-y,-z
x,y,1/2-z
-x,1/2+y,z
x,1/2-y,1/2+z
loop_
_atom_site_type_symbol
_atom_site_label
_atom_site_fract_x
_atom_site_fract_y
_atom_site_fract_z
Si Si1 0.078454 0.711007 0.146930
Si Si2 0.522332 0.651323 0.426203
Si Si3 0.687738 0.785994 0.151366
Si Si4 0.878472 0.673314 0.414614
Si Si5 0.850338 0.082666 0.519794
Si Si6 0.649286 0.011197 0.037757
O O1 0.119371 0.700984 0.250000
O O2 0.120504 0.825109 0.096662
O O3 0.961611 0.709143 0.156388
O O4 0.106571 0.603635 0.080393
O O5 0.503500 0.750000 0.500000
O O6 0.584741 0.716980 0.349675
O O7 0.417161 0.597273 0.398703
O O8 0.583473 0.538984 0.458314
O O9 0.706386 0.833019 0.250000
O O10 0.771380 0.695855 0.122873
O O11 0.693581 0.900235 0.089679
O O12 0.902232 0.750000 0.500000
O O13 0.889108 0.539295 0.443265
O O14 0.734425 0.085750 0.507431
#
# Coordination Sequence:
#
# PCOD8233564 Si02
#       6
#     8   8   8   8   8   8
#     4  11  27  43  64 101 133 170 220 271 329 388
#     4   9  19  38  63  87 115 163 212 256 313 394
#     4  11  22  37  61  96 129 162 213 272 323 381
#     4  12  21  44  68  91 125 174 222 264 316 394
#     4  11  23  44  70  92 131 177 214 268 326 392
#     4  10  20  38  65  86 119 167 215 254 318 390
#
# _framework density 20.491978
#
# number of rings (size 3 to 8) (size 9 to 14) (size 15 to 20)
#    0.000    1.333    5.000    1.500    2.333    2.667 
#    0.000    0.000    0.000    0.000    0.000    0.000 
#    0.000    0.000    0.000    0.000    0.000    0.000 
#
# Total GULP energy -594754.753568 kJ/mol
# GULP energy per Si atom -12390.724033 kJ/mol
# Density = 2.044534 g / cm^3
# Si number density = 20.491978 Si / 1000 Ang^3
#
#
#
# Elastic Constant Matrix: (Units=GPa)
#
#
# Indices 1 2 3 4 5 6 
#
# 1 120.3388 66.2538 37.5472 0.0000 0.0000 0.0000
# 2 66.2538 94.1849 23.5811 0.0000 0.0000 0.0000
# 3 37.5472 23.5811 108.9813 0.0000 0.0000 0.0000
# 4 0.0000 0.0000 0.0000 8.7427 0.0000 0.0000
# 5 0.0000 0.0000 0.0000 0.0000 21.1096 0.0000
# 6 0.0000 0.0000 0.0000 0.0000 0.0000 35.0923
#
#
#
# Elastic Compliance Matrix: (Units=1/GPa)
#
#
# Indices 1 2 3 4 5 6 
#
# 1 0.014394 -0.009393 -0.002927 0.000000 0.000000 0.000000
# 2 -0.009393 0.017355 -0.000519 0.000000 0.000000 0.000000
# 3 -0.002927 -0.000519 0.010297 0.000000 0.000000 0.000000
# 4 0.000000 0.000000 0.000000 0.114381 0.000000 0.000000
# 5 0.000000 0.000000 0.000000 0.000000 0.047372 0.000000
# 6 0.000000 0.000000 0.000000 0.000000 0.000000 0.028496
#
#
# Mechanical properties :
#
#
# Convention : Reuss Voigt Hill
#
# Bulk Modulus (GPa) = 61.09438 64.25214 62.67326
# Shear Modulus (GPa) = 18.98049 26.06378 22.52213
#
# Velocity S-wave (km/s) = 3.04672 3.57024 3.31882
# Velocity P-wave (km/s) = 6.50040 6.95833 6.73326
#
# Compressibility (1/GPa) = 0.01636812
#
# Stress axis : x y z
#
# Youngs Moduli (GPa) = 69.47123 57.62112 97.11946
#
# Poissons Ratio (x) = 0.54123 0.28426
# Poissons Ratio (y) = 0.65254 0.05041
# Poissons Ratio (z) = 0.20333 0.02991
#
# Static dielectric constant tensor:
#      x y z
#    x 4.127940 0.000000 0.000000 
#    y 0.000000 2.664710 0.000000 
#    z 0.000000 0.000000 3.770140 
# 
# 
# High freq. dielectric constant tensor:
#      x y z
#    x 1.817600 0.000000 0.000000 
#    y 0.000000 1.808030 0.000000 
#    z 0.000000 0.000000 1.767250 
# 
# From -- ./inp_files/18394.got.cif
#   From: 2010.03.12/outbox.cif.g09.slc.cpg/sg57_10_cif.got.tgz:18394.got - 2010.04.16 15:48:40.
