data_PCOD8233869
_publ_section_title
;
Structure prediction by ZEFSAII (Michael W. Deem and Ramdas Pophale) SiO2 
 PCOD8233869
Probable space group: P B C M
;
_chemical_formula_sum "Si O2"
_cell_formula_units_Z 64
_cell_length_a 23.531371
_cell_length_b 14.708057
_cell_length_c 9.052433
_cell_angle_alpha 90.000000
_cell_angle_beta 90.000000
_cell_angle_gamma 90.000000
_cell_volume 3133.053814
_symmetry_space_group_name_H-M "P B C M"
_symmetry_group_IT_number 57
_symmetry_cell_setting 'orthorhombic'
loop_
_space_group_symop_operation_xyz
x,y,z
-x,-y,1/2+z
x,1/2-y,-z
-x,1/2+y,1/2-z
-x,-y,-z
x,y,1/2-z
-x,1/2+y,z
x,1/2-y,1/2+z
loop_
_atom_site_type_symbol
_atom_site_label
_atom_site_fract_x
_atom_site_fract_y
_atom_site_fract_z
Si Si1 0.911770 0.162638 0.917424
Si Si2 0.300002 0.652840 0.422438
Si Si3 0.426455 0.653768 0.420494
Si Si4 0.469254 0.346934 0.078611
Si Si5 0.128623 0.031420 0.079453
Si Si6 0.742569 0.982461 0.922301
Si Si7 0.343344 0.152743 0.922636
Si Si8 0.972592 0.584103 0.581699
O O1 0.891603 0.171975 0.750000
O O2 0.980908 0.164405 0.930549
O O3 0.884629 0.070037 0.983047
O O4 0.886521 0.250000 0.000000
O O5 0.293375 0.750000 0.500000
O O6 0.284081 0.662658 0.250000
O O7 0.363906 0.610681 0.438925
O O8 0.259062 0.581911 0.503787
O O9 0.423366 0.750000 0.500000
O O10 0.442295 0.665129 0.250000
O O11 0.478410 0.597632 0.499558
O O12 0.484067 0.336085 0.250000
O O13 0.406742 0.391029 0.058344
O O14 0.466364 0.250000 0.000000
O O15 0.111026 0.034903 0.250000
O O16 0.194158 0.056917 0.055430
O O17 0.088572 0.104895 0.994651
O O18 0.726801 0.990432 0.750000
O O19 0.700388 0.914947 0.003263
O O20 0.328890 0.164554 0.750000
O O21 0.338337 0.250000 0.000000
O O22 0.960627 0.558359 0.750000
O O23 0.000000 0.500000 0.500000
#
# Coordination Sequence:
#
# PCOD8233869 Si02
#       8
#     8   8   8   8   8   8   8   8
#     4   9  18  32  51  79 111 138 169 210 255 307
#     4  10  21  37  56  80 112 150 191 235 282 337
#     4   9  16  27  47  74 104 138 177 222 275 336
#     4   9  16  27  48  76 104 134 171 220 279 341
#     4   9  20  37  54  76 106 139 180 225 266 316
#     4  11  23  39  59  82 111 150 193 239 288 335
#     4  10  21  38  59  83 110 141 182 233 288 347
#     4   9  17  31  52  76 102 134 169 206 251 301
#
# _framework density 20.427354000000001
#
# number of rings (size 3 to 8) (size 9 to 14) (size 15 to 20)
#    0.000    2.500    0.000    3.750    0.000    7.000 
#    0.000    2.500    0.000    1.500    0.000    0.000 
#    0.000    0.000    0.000    0.000    0.000    0.000 
#
# Total GULP energy -793003.085079 kJ/mol
# GULP energy per Si atom -12390.673204 kJ/mol
# Density = 2.038086 g / cm^3
# Si number density = 20.427354 Si / 1000 Ang^3
#
#
#
# Elastic Constant Matrix: (Units=GPa)
#
#
# Indices 1 2 3 4 5 6 
#
# 1 73.9370 -4.2131 36.9047 0.0000 0.0000 0.0000
# 2 -4.2131 22.9998 11.9655 0.0000 0.0000 0.0000
# 3 36.9047 11.9655 127.0447 0.0000 0.0000 0.0000
# 4 0.0000 0.0000 0.0000 27.1366 0.0000 0.0000
# 5 0.0000 0.0000 0.0000 0.0000 32.7249 0.0000
# 6 0.0000 0.0000 0.0000 0.0000 0.0000 17.9556
#
#
#
# Elastic Compliance Matrix: (Units=1/GPa)
#
#
# Indices 1 2 3 4 5 6 
#
# 1 0.016525 0.005809 -0.005347 0.000000 0.000000 0.000000
# 2 0.005809 0.047761 -0.006186 0.000000 0.000000 0.000000
# 3 -0.005347 -0.006186 0.010007 0.000000 0.000000 0.000000
# 4 0.000000 0.000000 0.000000 0.036851 0.000000 0.000000
# 5 0.000000 0.000000 0.000000 0.000000 0.030558 0.000000
# 6 0.000000 0.000000 0.000000 0.000000 0.000000 0.055693
#
#
# Mechanical properties :
#
#
# Convention : Reuss Voigt Hill
#
# Bulk Modulus (GPa) = 15.91216 34.81062 25.36139
# Shear Modulus (GPa) = 21.75891 27.51840 24.63865
#
# Velocity S-wave (km/s) = 3.26726 3.67431 3.47675
# Velocity P-wave (km/s) = 4.69466 5.92275 5.34410
#
# Compressibility (1/GPa) = 0.06284501
#
# Stress axis : x y z
#
# Youngs Moduli (GPa) = 60.51383 20.93764 99.92812
#
# Poissons Ratio (x) = -0.12163 0.53436
# Poissons Ratio (y) = -0.35153 0.61813
# Poissons Ratio (z) = 0.32359 0.12951
#
# Static dielectric constant tensor:
#      x y z
#    x 5.392060 0.000000 0.000000 
#    y 0.000000 3.564830 0.000000 
#    z 0.000000 0.000000 3.738070 
# 
# 
# High freq. dielectric constant tensor:
#      x y z
#    x 1.809110 0.000000 0.000000 
#    y 0.000000 1.754940 0.000000 
#    z 0.000000 0.000000 1.809290 
# 
# From -- ./inp_files/9381.got.cif
#   From: 2010.03.12/outbox.cif.g09.slc.cpg/sg57_5_cif.got.tgz:9381.got - 2010.04.16 15:48:40.
