data_PCOD8233631
_publ_section_title
;
Structure prediction by ZEFSAII (Michael W. Deem and Ramdas Pophale) SiO2 
 PCOD8233631
Probable space group: P B C M
;
_chemical_formula_sum "Si O2"
_cell_formula_units_Z 48
_cell_length_a 11.877388
_cell_length_b 9.903626
_cell_length_c 17.589030
_cell_angle_alpha 90.000000
_cell_angle_beta 90.000000
_cell_angle_gamma 90.000000
_cell_volume 2068.983679
_symmetry_space_group_name_H-M "P B C M"
_symmetry_group_IT_number 57
_symmetry_cell_setting 'orthorhombic'
loop_
_space_group_symop_operation_xyz
x,y,z
-x,-y,1/2+z
x,1/2-y,-z
-x,1/2+y,1/2-z
-x,-y,-z
x,y,1/2-z
-x,1/2+y,z
x,1/2-y,1/2+z
loop_
_atom_site_type_symbol
_atom_site_label
_atom_site_fract_x
_atom_site_fract_y
_atom_site_fract_z
Si Si1 0.744179 0.896094 0.480318
Si Si2 0.247354 0.954808 0.666498
Si Si3 0.510968 0.923182 0.662745
Si Si4 0.073338 0.007453 0.424991
Si Si5 0.493772 0.172566 0.931952
Si Si6 0.954786 0.264530 0.663356
O O1 0.793552 0.750000 0.500000
O O2 0.608234 0.898031 0.479311
O O3 0.789442 0.937019 0.396668
O O4 0.795745 0.992493 0.546257
O O5 0.229217 0.020151 0.750000
O O6 0.376537 0.911576 0.656181
O O7 0.171592 0.822615 0.656725
O O8 0.551842 0.936397 0.750000
O O9 0.557359 0.783146 0.627299
O O10 0.556492 0.054719 0.615577
O O11 0.048373 0.883238 0.371202
O O12 0.000000 0.000000 0.500000
O O13 0.045127 0.143124 0.379354
O O14 0.565272 0.250000 0.000000
O O15 0.994151 0.252009 0.750000
#
# Coordination Sequence:
#
# PCOD8233631 Si02
#       6
#     8   8   8   8   8   8
#     4  10  21  39  61  94 131 166 216 263 327 390
#     4   9  20  39  62  89 128 173 218 266 326 389
#     4  10  20  39  65  92 127 175 221 269 327 391
#     4  12  23  40  67  95 127 170 216 266 326 391
#     4  10  21  39  62  93 131 168 217 272 329 388
#     4  11  24  43  65  95 130 170 219 271 322 385
#
# _framework density 23.199797
#
# number of rings (size 3 to 8) (size 9 to 14) (size 15 to 20)
#    0.000    1.667    1.667    3.000    0.000    0.667 
#   12.000    0.833    0.000    2.000    0.000    0.000 
#    0.000    0.000    0.000    0.000    0.000    0.000 
#
# Total GULP energy -594895.231711 kJ/mol
# GULP energy per Si atom -12393.650661 kJ/mol
# Density = 2.314699 g / cm^3
# Si number density = 23.199797 Si / 1000 Ang^3
#
#
#
# Elastic Constant Matrix: (Units=GPa)
#
#
# Indices 1 2 3 4 5 6 
#
# 1 43.3356 -6.4737 13.4562 0.0000 0.0000 0.0000
# 2 -6.4737 77.7535 22.2444 0.0000 0.0000 0.0000
# 3 13.4562 22.2444 128.5934 0.0000 0.0000 0.0000
# 4 0.0000 0.0000 0.0000 53.1531 0.0000 0.0000
# 5 0.0000 0.0000 0.0000 0.0000 28.2677 0.0000
# 6 0.0000 0.0000 0.0000 0.0000 0.0000 25.0347
#
#
#
# Elastic Compliance Matrix: (Units=1/GPa)
#
#
# Indices 1 2 3 4 5 6 
#
# 1 0.024462 0.002913 -0.003064 0.000000 0.000000 0.000000
# 2 0.002913 0.013878 -0.002705 0.000000 0.000000 0.000000
# 3 -0.003064 -0.002705 0.008565 0.000000 0.000000 0.000000
# 4 0.000000 0.000000 0.000000 0.018814 0.000000 0.000000
# 5 0.000000 0.000000 0.000000 0.000000 0.035376 0.000000
# 6 0.000000 0.000000 0.000000 0.000000 0.000000 0.039945
#
#
# Mechanical properties :
#
#
# Convention : Reuss Voigt Hill
#
# Bulk Modulus (GPa) = 24.27595 34.23738 29.25666
# Shear Modulus (GPa) = 31.15613 35.98814 33.57213
#
# Velocity S-wave (km/s) = 3.66860 3.94283 3.80819
# Velocity P-wave (km/s) = 5.33211 5.95966 5.65460
#
# Compressibility (1/GPa) = 0.04119304
#
# Stress axis : x y z
#
# Youngs Moduli (GPa) = 40.87940 72.05801 116.75384
#
# Poissons Ratio (x) = -0.20992 0.35770
# Poissons Ratio (y) = -0.11909 0.31587
# Poissons Ratio (z) = 0.12524 0.19495
#
# Static dielectric constant tensor:
#      x y z
#    x 3.947950 0.000000 0.000000 
#    y 0.000000 4.201070 0.000000 
#    z 0.000000 0.000000 4.660920 
# 
# 
# High freq. dielectric constant tensor:
#      x y z
#    x 1.883480 0.000000 0.000000 
#    y 0.000000 1.915320 0.000000 
#    z 0.000000 0.000000 1.941360 
# 
# From -- ./inp_files/22444.got.cif
#   From: 2010.03.12/outbox.cif.g09.slc.cpg/sg57_12_cif.got.tgz:22444.got - 2010.04.16 15:48:40.
