data_PCOD8233303
_publ_section_title
;
Structure prediction by ZEFSAII (Michael W. Deem and Ramdas Pophale) SiO2 
 PCOD8233303
Probable space group: P B C M
;
_chemical_formula_sum "Si O2"
_cell_formula_units_Z 40
_cell_length_a 9.740344
_cell_length_b 13.148161
_cell_length_c 16.743569
_cell_angle_alpha 90.000000
_cell_angle_beta 90.000000
_cell_angle_gamma 90.000000
_cell_volume 2144.308883
_symmetry_space_group_name_H-M "P B C M"
_symmetry_group_IT_number 57
_symmetry_cell_setting 'orthorhombic'
loop_
_space_group_symop_operation_xyz
x,y,z
-x,-y,1/2+z
x,1/2-y,-z
-x,1/2+y,1/2-z
-x,-y,-z
x,y,1/2-z
-x,1/2+y,z
x,1/2-y,1/2+z
loop_
_atom_site_type_symbol
_atom_site_label
_atom_site_fract_x
_atom_site_fract_y
_atom_site_fract_z
Si Si1 0.815231 0.839745 0.943336
Si Si2 0.922357 0.392117 0.843371
Si Si3 0.328619 0.803846 0.915809
Si Si4 0.404365 0.279006 0.157295
Si Si5 0.714247 0.526372 0.918300
O O1 0.691469 0.797904 0.890415
O O2 0.933988 0.881453 0.887527
O O3 0.872684 0.750000 0.000000
O O4 0.756774 0.932130 0.995340
O O5 0.950816 0.387262 0.750000
O O6 0.818228 0.301322 0.869940
O O7 0.853128 0.500165 0.867886
O O8 0.438296 0.746975 0.860907
O O9 0.372737 0.922151 0.930100
O O10 0.313931 0.750000 0.000000
O O11 0.373871 0.266191 0.250000
O O12 0.377116 0.394621 0.131064
#
# Coordination Sequence:
#
# PCOD8233303 Si02
#       5
#     8   8   8   8   8
#     4  10  20  37  61  86 116 156 200 236 293 358
#     4  10  20  37  59  85 117 152 193 247 298 340
#     4  10  22  38  61  83 116 158 197 240 295 355
#     4  11  22  37  59  87 118 154 197 246 296 351
#     4   9  22  38  62  83 119 156 199 238 295 355
#
# _framework density 18.654029000000001
#
# number of rings (size 3 to 8) (size 9 to 14) (size 15 to 20)
#    1.200    0.800    0.000    4.800    0.000    3.200 
#    0.000    0.000    0.000    2.400    0.000    0.000 
#    0.000    0.000    0.000    0.000    0.000    0.000 
#
# Total GULP energy -495862.346510 kJ/mol
# GULP energy per Si atom -12396.558663 kJ/mol
# Density = 1.861157 g / cm^3
# Si number density = 18.654029 Si / 1000 Ang^3
#
#
#
# Elastic Constant Matrix: (Units=GPa)
#
#
# Indices 1 2 3 4 5 6 
#
# 1 40.0719 -2.9597 25.4249 0.0000 0.0000 0.0000
# 2 -2.9597 60.4555 35.7240 0.0000 0.0000 0.0000
# 3 25.4249 35.7240 149.8078 0.0000 0.0000 0.0000
# 4 0.0000 0.0000 0.0000 -8.4544 0.0000 0.0000
# 5 0.0000 0.0000 0.0000 0.0000 13.3733 0.0000
# 6 0.0000 0.0000 0.0000 0.0000 0.0000 10.7836
#
#
#
# Elastic Compliance Matrix: (Units=1/GPa)
#
#
# Indices 1 2 3 4 5 6 
#
# 1 0.029249 0.005081 -0.006176 0.000000 0.000000 0.000000
# 2 0.005081 0.020137 -0.005664 0.000000 0.000000 0.000000
# 3 -0.006176 -0.005664 0.009074 0.000000 0.000000 0.000000
# 4 0.000000 0.000000 0.000000 -0.118282 0.000000 0.000000
# 5 0.000000 0.000000 0.000000 0.000000 0.074776 0.000000
# 6 0.000000 0.000000 0.000000 0.000000 0.000000 0.092734
#
#
# Mechanical properties :
#
#
# Convention : Reuss Voigt Hill
#
# Bulk Modulus (GPa) = 22.25078 40.74598 31.49838
# Shear Modulus (GPa) = 36.71446 15.95022 26.33234
#
# Velocity S-wave (km/s) = 4.44123 2.92730 3.76122
# Velocity P-wave (km/s) = 6.18493 5.77199 5.98203
#
# Compressibility (1/GPa) = 0.04494225
#
# Stress axis : x y z
#
# Youngs Moduli (GPa) = 34.18938 49.65980 110.20379
#
# Poissons Ratio (x) = -0.25233 0.68059
# Poissons Ratio (y) = -0.17372 0.62423
# Poissons Ratio (z) = 0.21114 0.28129
#
# Static dielectric constant tensor:
#      x y z
#    x 3.334910 0.000000 0.000000 
#    y 0.000000 3.390630 0.000000 
#    z 0.000000 0.000000 3.379590 
# 
# 
# High freq. dielectric constant tensor:
#      x y z
#    x 1.720020 0.000000 0.000000 
#    y 0.000000 1.718150 0.000000 
#    z 0.000000 0.000000 1.733350 
# 
# From -- ./inp_files/20703.got.cif
#   From: 2010.03.12/outbox.cif.g09.slc.cpg/sg57_11_cif.got.tgz:20703.got - 2010.04.16 15:48:40.
