data_PCOD8233984
_publ_section_title
;
Structure prediction by ZEFSAII (Michael W. Deem and Ramdas Pophale) SiO2 
 PCOD8233984
Probable space group: P B C M
;
_chemical_formula_sum "Si O2"
_cell_formula_units_Z 52
_cell_length_a 19.550974
_cell_length_b 9.176192
_cell_length_c 14.738939
_cell_angle_alpha 90.000000
_cell_angle_beta 90.000000
_cell_angle_gamma 90.000000
_cell_volume 2644.217113
_symmetry_space_group_name_H-M "P B C M"
_symmetry_group_IT_number 57
_symmetry_cell_setting 'orthorhombic'
loop_
_space_group_symop_operation_xyz
x,y,z
-x,-y,1/2+z
x,1/2-y,-z
-x,1/2+y,1/2-z
-x,-y,-z
x,y,1/2-z
-x,1/2+y,z
x,1/2-y,1/2+z
loop_
_atom_site_type_symbol
_atom_site_label
_atom_site_fract_x
_atom_site_fract_y
_atom_site_fract_z
Si Si1 0.836153 0.923644 0.605235
Si Si2 0.814301 0.594299 0.601338
Si Si3 0.676303 0.065849 0.356406
Si Si4 0.708975 0.395231 0.148450
Si Si5 0.496766 0.250000 0.500000
Si Si6 0.406330 0.508687 0.971585
Si Si7 0.916985 0.546807 0.750000
Si Si8 0.055553 0.382689 0.750000
O O1 0.807018 0.763799 0.628211
O O2 0.845035 0.935493 0.497806
O O3 0.907329 0.943145 0.659084
O O4 0.786465 0.051078 0.639969
O O5 0.738490 0.536677 0.615937
O O6 0.869202 0.514171 0.664014
O O7 0.656440 0.048240 0.250000
O O8 0.701990 0.227740 0.380738
O O9 0.611409 0.023316 0.420245
O O10 0.682140 0.415801 0.250000
O O11 0.663372 0.496363 0.083948
O O12 0.546504 0.353859 0.439710
O O13 0.447235 0.361152 0.553778
O O14 0.947086 0.708676 0.750000
O O15 0.977915 0.432702 0.750000
#
# Coordination Sequence:
#
# PCOD8233984 Si02
#       8
#     8   8   8   8   4   8   4   4
#     4  10  21  37  60  89 119 153 201 247 291 349
#     4  10  21  37  60  89 119 153 201 247 291 349
#     4  11  22  36  59  90 119 153 199 248 295 343
#     4  11  22  36  59  90 119 153 199 248 295 343
#     4  10  24  42  66  82 124 160 198 230 310 364
#     4  11  22  44  60  88 119 162 192 250 292 358
#     4  10  22  40  58  86 126 161 194 243 295 355
#     4  10  22  40  58  86 126 161 194 243 295 355
#
# _framework density 19.665555000000001
#
# number of rings (size 3 to 8) (size 9 to 14) (size 15 to 20)
#    0.000    1.538    4.615    0.000    2.154    1.846 
#    0.000    4.615    0.000    0.000    0.000    0.000 
#    0.000    0.000    0.000    0.000    0.000    0.000 
#
# Total GULP energy -644630.066134 kJ/mol
# GULP energy per Si atom -12396.732041 kJ/mol
# Density = 1.962080 g / cm^3
# Si number density = 19.665555 Si / 1000 Ang^3
#
#
#
# Elastic Constant Matrix: (Units=GPa)
#
#
# Indices 1 2 3 4 5 6 
#
# 1 86.2115 31.2668 25.4444 0.0000 0.0000 0.0000
# 2 31.2668 74.2004 16.6145 0.0000 0.0000 0.0000
# 3 25.4444 16.6145 106.8267 0.0000 0.0000 0.0000
# 4 0.0000 0.0000 0.0000 19.4449 0.0000 0.0000
# 5 0.0000 0.0000 0.0000 0.0000 4.6511 0.0000
# 6 0.0000 0.0000 0.0000 0.0000 0.0000 38.6711
#
#
#
# Elastic Compliance Matrix: (Units=1/GPa)
#
#
# Indices 1 2 3 4 5 6 
#
# 1 0.014340 -0.005468 -0.002565 0.000000 0.000000 0.000000
# 2 -0.005468 0.016048 -0.001194 0.000000 0.000000 0.000000
# 3 -0.002565 -0.001194 0.010158 0.000000 0.000000 0.000000
# 4 0.000000 0.000000 0.000000 0.051427 0.000000 0.000000
# 5 0.000000 0.000000 0.000000 0.000000 0.215003 0.000000
# 6 0.000000 0.000000 0.000000 0.000000 0.000000 0.025859
#
#
# Mechanical properties :
#
#
# Convention : Reuss Voigt Hill
#
# Bulk Modulus (GPa) = 45.26490 45.98779 45.62634
# Shear Modulus (GPa) = 13.94107 25.48092 19.71100
#
# Velocity S-wave (km/s) = 2.66542 3.60351 3.16936
# Velocity P-wave (km/s) = 5.70438 6.38353 6.05348
#
# Compressibility (1/GPa) = 0.02209217
#
# Stress axis : x y z
#
# Youngs Moduli (GPa) = 69.73710 62.31132 98.44907
#
# Poissons Ratio (x) = 0.34073 0.25252
# Poissons Ratio (y) = 0.38133 0.11751
# Poissons Ratio (z) = 0.17888 0.07437
#
# Static dielectric constant tensor:
#      x y z
#    x 3.491020 0.000000 0.000000 
#    y 0.000000 3.641570 0.000000 
#    z 0.000000 0.000000 3.742100 
# 
# 
# High freq. dielectric constant tensor:
#      x y z
#    x 1.762060 0.000000 0.000000 
#    y 0.000000 1.769050 0.000000 
#    z 0.000000 0.000000 1.760530 
# 
# From -- ./inp_files/19311.got.cif
#   From: 2010.03.12/outbox.cif.g09.slc.cpg/sg57_10_cif.got.tgz:19311.got - 2010.04.16 15:48:40.
