data_PCOD8234080
_publ_section_title
;
Structure prediction by ZEFSAII (Michael W. Deem and Ramdas Pophale) SiO2 
 PCOD8234080
Probable space group: P B C M
;
_chemical_formula_sum "Si O2"
_cell_formula_units_Z 64
_cell_length_a 25.881289
_cell_length_b 14.702413
_cell_length_c 8.601173
_cell_angle_alpha 90.000000
_cell_angle_beta 90.000000
_cell_angle_gamma 90.000000
_cell_volume 3272.895986
_symmetry_space_group_name_H-M "P B C M"
_symmetry_group_IT_number 57
_symmetry_cell_setting 'orthorhombic'
loop_
_space_group_symop_operation_xyz
x,y,z
-x,-y,1/2+z
x,1/2-y,-z
-x,1/2+y,1/2-z
-x,-y,-z
x,y,1/2-z
-x,1/2+y,z
x,1/2-y,1/2+z
loop_
_atom_site_type_symbol
_atom_site_label
_atom_site_fract_x
_atom_site_fract_y
_atom_site_fract_z
Si Si1 0.125251 0.848506 0.071434
Si Si2 0.494108 0.351528 0.067658
Si Si3 0.943394 0.499811 0.567987
Si Si4 0.579098 0.998363 0.931018
Si Si5 0.242668 0.346698 0.931928
Si Si6 0.757703 0.150884 0.929659
Si Si7 0.310294 0.001977 0.930309
Si Si8 0.133689 0.151854 0.565688
O O1 0.107875 0.846598 0.250000
O O2 0.183685 0.885636 0.054738
O O3 0.121425 0.750000 0.000000
O O4 0.085814 0.908300 0.974791
O O5 0.482304 0.344349 0.250000
O O6 0.544817 0.412190 0.035280
O O7 0.501302 0.250000 0.000000
O O8 0.447128 0.404002 0.984755
O O9 0.948384 0.507796 0.750000
O O10 0.910291 0.584301 0.501952
O O11 0.000000 0.500000 0.500000
O O12 0.592328 0.989749 0.750000
O O13 0.630247 0.013378 0.030150
O O14 0.233953 0.337182 0.750000
O O15 0.259150 0.250000 0.000000
O O16 0.288583 0.415735 0.967191
O O17 0.189342 0.382228 0.006392
O O18 0.740275 0.150845 0.750000
O O19 0.752657 0.250000 0.000000
O O20 0.720530 0.088862 0.030687
O O21 0.303763 0.025606 0.750000
O O22 0.119741 0.250000 0.500000
O O23 0.135326 0.154894 0.750000
#
# Coordination Sequence:
#
# PCOD8234080 Si02
#       8
#     8   8   8   8   8   8   8   8
#     4  10  21  38  61  85 112 147 188 233 283 340
#     4  10  21  39  64  89 115 151 194 239 288 341
#     4  11  24  39  57  82 113 147 188 235 285 340
#     4  10  22  40  60  86 119 153 195 241 286 339
#     4  11  22  38  60  86 116 151 191 234 283 342
#     4  10  21  38  60  87 117 153 194 235 283 340
#     4  12  24  38  58  86 122 158 193 238 288 339
#     4  10  21  38  60  85 112 147 188 232 282 338
#
# _framework density 19.554548
#
# number of rings (size 3 to 8) (size 9 to 14) (size 15 to 20)
#    0.000    1.500    0.000    6.000    0.000    8.500 
#    0.000    5.000    0.000    0.000    0.000    0.000 
#    0.000    0.000    0.000    0.000    0.000    0.000 
#
# Total GULP energy -793848.304996 kJ/mol
# GULP energy per Si atom -12403.879766 kJ/mol
# Density = 1.951004 g / cm^3
# Si number density = 19.554548 Si / 1000 Ang^3
#
#
#
# Elastic Constant Matrix: (Units=GPa)
#
#
# Indices 1 2 3 4 5 6 
#
# 1 105.2090 48.4693 23.5103 0.0000 0.0000 0.0000
# 2 48.4693 102.5744 26.0904 0.0000 0.0000 0.0000
# 3 23.5103 26.0904 78.0913 0.0000 0.0000 0.0000
# 4 0.0000 0.0000 0.0000 35.0712 0.0000 0.0000
# 5 0.0000 0.0000 0.0000 0.0000 29.1500 0.0000
# 6 0.0000 0.0000 0.0000 0.0000 0.0000 49.3632
#
#
#
# Elastic Compliance Matrix: (Units=1/GPa)
#
#
# Indices 1 2 3 4 5 6 
#
# 1 0.012414 -0.005372 -0.001943 0.000000 0.000000 0.000000
# 2 -0.005372 0.012979 -0.002719 0.000000 0.000000 0.000000
# 3 -0.001943 -0.002719 0.014299 0.000000 0.000000 0.000000
# 4 0.000000 0.000000 0.000000 0.028513 0.000000 0.000000
# 5 0.000000 0.000000 0.000000 0.000000 0.034305 0.000000
# 6 0.000000 0.000000 0.000000 0.000000 0.000000 0.020258
#
#
# Mechanical properties :
#
#
# Convention : Reuss Voigt Hill
#
# Bulk Modulus (GPa) = 50.95621 53.55720 52.25671
# Shear Modulus (GPa) = 33.47246 35.23719 34.35482
#
# Velocity S-wave (km/s) = 4.14182 4.24960 4.19605
# Velocity P-wave (km/s) = 6.99914 7.17822 7.08924
#
# Compressibility (1/GPa) = 0.01962469
#
# Stress axis : x y z
#
# Youngs Moduli (GPa) = 80.55606 77.04795 69.93592
#
# Poissons Ratio (x) = 0.41388 0.13586
# Poissons Ratio (y) = 0.43273 0.19016
# Poissons Ratio (z) = 0.15649 0.20950
#
# Static dielectric constant tensor:
#      x y z
#    x 3.634020 0.000000 0.000000 
#    y 0.000000 3.599930 0.000000 
#    z 0.000000 0.000000 3.739930 
# 
# 
# High freq. dielectric constant tensor:
#      x y z
#    x 1.761050 0.000000 0.000000 
#    y 0.000000 1.770340 0.000000 
#    z 0.000000 0.000000 1.779720 
# 
# From -- ./inp_files/9296.got.cif
#   From: 2010.03.12/outbox.cif.g09.slc.cpg/sg57_5_cif.got.tgz:9296.got - 2010.04.16 15:48:40.
