data_PCOD8234071
_publ_section_title
;
Structure prediction by ZEFSAII (Michael W. Deem and Ramdas Pophale) SiO2 
 PCOD8234071
Probable space group: P B C M
;
_chemical_formula_sum "Si O2"
_cell_formula_units_Z 48
_cell_length_a 7.671158
_cell_length_b 14.078802
_cell_length_c 23.209943
_cell_angle_alpha 90.000000
_cell_angle_beta 90.000000
_cell_angle_gamma 90.000000
_cell_volume 2506.690430
_symmetry_space_group_name_H-M "P B C M"
_symmetry_group_IT_number 57
_symmetry_cell_setting 'orthorhombic'
loop_
_space_group_symop_operation_xyz
x,y,z
-x,-y,1/2+z
x,1/2-y,-z
-x,1/2+y,1/2-z
-x,-y,-z
x,y,1/2-z
-x,1/2+y,z
x,1/2-y,1/2+z
loop_
_atom_site_type_symbol
_atom_site_label
_atom_site_fract_x
_atom_site_fract_y
_atom_site_fract_z
Si Si1 0.845537 0.464147 0.461977
Si Si2 0.875900 0.295782 0.118672
Si Si3 0.550886 0.121060 0.681973
Si Si4 0.228646 0.247197 0.316914
Si Si5 0.347692 0.670224 0.457628
Si Si6 0.377441 0.075136 0.121553
O O1 0.922812 0.389603 0.416782
O O2 0.699126 0.419430 0.503130
O O3 0.761970 0.551485 0.427761
O O4 0.000000 0.500000 0.500000
O O5 0.717532 0.317599 0.162453
O O6 0.822948 0.213256 0.073796
O O7 0.047831 0.266229 0.151780
O O8 0.561858 0.104991 0.750000
O O9 0.375800 0.177056 0.663961
O O10 0.544127 0.019498 0.650327
O O11 0.191706 0.256485 0.250000
O O12 0.288451 0.139813 0.329812
O O13 0.432168 0.750000 0.500000
O O14 0.475233 0.638641 0.407492
#
# Coordination Sequence:
#
# PCOD8234071 Si02
#       6
#     8   8   8   8   8   8
#     4  10  22  36  58  90 122 156 203 252 295 363
#     4  10  21  40  62  85 124 160 198 255 301 358
#     4  10  22  41  61  88 122 157 202 254 301 358
#     4  11  23  40  64  91 119 162 207 246 310 365
#     4  10  21  38  59  88 120 160 205 242 309 360
#     4  11  22  39  64  88 124 162 202 253 302 365
#
# _framework density 19.148754
#
# number of rings (size 3 to 8) (size 9 to 14) (size 15 to 20)
#    0.000    1.667    1.667    2.500    2.333    1.333 
#    0.000    0.000    0.000    0.000    0.000    0.000 
#    0.000    0.000    0.000    0.000    0.000    0.000 
#
# Total GULP energy -595290.223314 kJ/mol
# GULP energy per Si atom -12401.879652 kJ/mol
# Density = 1.910517 g / cm^3
# Si number density = 19.148754 Si / 1000 Ang^3
#
#
#
# Elastic Constant Matrix: (Units=GPa)
#
#
# Indices 1 2 3 4 5 6 
#
# 1 75.4023 49.6103 37.5369 0.0000 0.0000 0.0000
# 2 49.6103 92.3198 38.2526 0.0000 0.0000 0.0000
# 3 37.5369 38.2526 90.1757 0.0000 0.0000 0.0000
# 4 0.0000 0.0000 0.0000 35.3300 0.0000 0.0000
# 5 0.0000 0.0000 0.0000 0.0000 38.3201 0.0000
# 6 0.0000 0.0000 0.0000 0.0000 0.0000 13.6754
#
#
#
# Elastic Compliance Matrix: (Units=1/GPa)
#
#
# Indices 1 2 3 4 5 6 
#
# 1 0.022290 -0.009868 -0.005092 0.000000 0.000000 0.000000
# 2 -0.009868 0.017510 -0.003320 0.000000 0.000000 0.000000
# 3 -0.005092 -0.003320 0.014618 0.000000 0.000000 0.000000
# 4 0.000000 0.000000 0.000000 0.028305 0.000000 0.000000
# 5 0.000000 0.000000 0.000000 0.000000 0.026096 0.000000
# 6 0.000000 0.000000 0.000000 0.000000 0.000000 0.073124
#
#
# Mechanical properties :
#
#
# Convention : Reuss Voigt Hill
#
# Bulk Modulus (GPa) = 56.00151 56.52192 56.26171
# Shear Modulus (GPa) = 22.27607 26.29831 24.28719
#
# Velocity S-wave (km/s) = 3.41444 3.70992 3.56524
# Velocity P-wave (km/s) = 6.69728 6.92334 6.81125
#
# Compressibility (1/GPa) = 0.01785666
#
# Stress axis : x y z
#
# Youngs Moduli (GPa) = 44.86346 57.10875 68.41005
#
# Poissons Ratio (x) = 0.56355 0.34838
# Poissons Ratio (y) = 0.44271 0.22714
# Poissons Ratio (z) = 0.22847 0.18962
#
# Static dielectric constant tensor:
#      x y z
#    x 3.334810 0.000000 0.000000 
#    y 0.000000 3.473300 0.000000 
#    z 0.000000 0.000000 3.647740 
# 
# 
# High freq. dielectric constant tensor:
#      x y z
#    x 1.736390 0.000000 0.000000 
#    y 0.000000 1.753930 0.000000 
#    z 0.000000 0.000000 1.761460 
# 
# From -- ./inp_files/26699.got.cif
#   From: 2010.03.12/outbox.cif.g09.slc.cpg/sg57_14_cif.got.tgz:26699.got - 2010.04.16 15:48:40.
