data_PCOD8234032
_publ_section_title
;
Structure prediction by ZEFSAII (Michael W. Deem and Ramdas Pophale) SiO2 
 PCOD8234032
Probable space group: P B C M
;
_chemical_formula_sum "Si O2"
_cell_formula_units_Z 56
_cell_length_a 21.141689
_cell_length_b 15.578627
_cell_length_c 9.021643
_cell_angle_alpha 90.000000
_cell_angle_beta 90.000000
_cell_angle_gamma 90.000000
_cell_volume 2971.354689
_symmetry_space_group_name_H-M "P B C M"
_symmetry_group_IT_number 57
_symmetry_cell_setting 'orthorhombic'
loop_
_space_group_symop_operation_xyz
x,y,z
-x,-y,1/2+z
x,1/2-y,-z
-x,1/2+y,1/2-z
-x,-y,-z
x,y,1/2-z
-x,1/2+y,z
x,1/2-y,1/2+z
loop_
_atom_site_type_symbol
_atom_site_label
_atom_site_fract_x
_atom_site_fract_y
_atom_site_fract_z
Si Si1 0.461895 0.574185 0.420667
Si Si2 0.990533 0.590990 0.576680
Si Si3 0.872697 0.162979 0.920784
Si Si4 0.792052 0.004400 0.925812
Si Si5 0.416442 0.165869 0.418738
Si Si6 0.350954 0.507805 0.574362
Si Si7 0.132206 0.162153 0.427332
O O1 0.500000 0.500000 0.500000
O O2 0.451375 0.550212 0.250000
O O3 0.507053 0.657567 0.436486
O O4 0.393344 0.583648 0.499762
O O5 0.974107 0.577992 0.750000
O O6 0.936762 0.643336 0.492405
O O7 0.000000 0.500000 0.500000
O O8 0.053401 0.646656 0.556711
O O9 0.854919 0.173433 0.750000
O O10 0.833664 0.082868 0.989739
O O11 0.851598 0.250000 0.000000
O O12 0.794192 0.005967 0.750000
O O13 0.720581 0.014806 0.983930
O O14 0.820815 0.913780 0.978862
O O15 0.391746 0.250000 0.500000
O O16 0.396752 0.177195 0.250000
O O17 0.379320 0.083004 0.480985
O O18 0.355780 0.518203 0.750000
O O19 0.157969 0.250000 0.500000
O O20 0.128042 0.170822 0.250000
#
# Coordination Sequence:
#
# PCOD8234032 Si02
#       7
#     8   8   8   8   8   8   8
#     4   9  17  31  50  74 101 129 167 211 253 305
#     4  11  21  36  59  85 112 144 185 234 291 345
#     4  10  21  38  58  81 106 142 184 229 282 335
#     4   9  19  38  58  76 109 151 187 224 276 337
#     4   9  18  30  48  76 104 132 168 210 259 311
#     4   9  18  34  55  75 100 141 181 215 264 321
#     4  11  22  38  57  82 115 151 190 234 283 341
#
# _framework density 18.846620999999999
#
# number of rings (size 3 to 8) (size 9 to 14) (size 15 to 20)
#    0.000    2.286    1.429    2.571    0.000    5.714 
#    0.000    2.857    0.000    3.429    0.000    0.000 
#    0.000    0.000    0.000    0.000    0.000    0.000 
#
# Total GULP energy -694207.035140 kJ/mol
# GULP energy per Si atom -12396.554199 kJ/mol
# Density = 1.880373 g / cm^3
# Si number density = 18.846621 Si / 1000 Ang^3
#
#
#
# Elastic Constant Matrix: (Units=GPa)
#
#
# Indices 1 2 3 4 5 6 
#
# 1 114.3917 27.0610 29.7740 0.0000 0.0000 0.0000
# 2 27.0610 95.3607 29.7947 0.0000 0.0000 0.0000
# 3 29.7740 29.7947 65.2430 0.0000 0.0000 0.0000
# 4 0.0000 0.0000 0.0000 33.6998 0.0000 0.0000
# 5 0.0000 0.0000 0.0000 0.0000 25.1200 0.0000
# 6 0.0000 0.0000 0.0000 0.0000 0.0000 17.1542
#
#
#
# Elastic Compliance Matrix: (Units=1/GPa)
#
#
# Indices 1 2 3 4 5 6 
#
# 1 0.010143 -0.001670 -0.003866 0.000000 0.000000 0.000000
# 2 -0.001670 0.012507 -0.004949 0.000000 0.000000 0.000000
# 3 -0.003866 -0.004949 0.019352 0.000000 0.000000 0.000000
# 4 0.000000 0.000000 0.000000 0.029674 0.000000 0.000000
# 5 0.000000 0.000000 0.000000 0.000000 0.039809 0.000000
# 6 0.000000 0.000000 0.000000 0.000000 0.000000 0.058295
#
#
# Mechanical properties :
#
#
# Convention : Reuss Voigt Hill
#
# Bulk Modulus (GPa) = 47.55020 49.80611 48.67815
# Shear Modulus (GPa) = 25.28302 27.75251 26.51777
#
# Velocity S-wave (km/s) = 3.66664 3.84154 3.75511
# Velocity P-wave (km/s) = 6.57347 6.79419 6.68474
#
# Compressibility (1/GPa) = 0.02103041
#
# Stress axis : x y z
#
# Youngs Moduli (GPa) = 98.58675 79.95589 51.67473
#
# Poissons Ratio (x) = 0.13357 0.19978
# Poissons Ratio (y) = 0.16469 0.25575
# Poissons Ratio (z) = 0.38115 0.39572
#
# Static dielectric constant tensor:
#      x y z
#    x 3.665650 0.000000 0.000000 
#    y 0.000000 3.814030 0.000000 
#    z 0.000000 0.000000 3.523150 
# 
# 
# High freq. dielectric constant tensor:
#      x y z
#    x 1.730720 0.000000 0.000000 
#    y 0.000000 1.723040 0.000000 
#    z 0.000000 0.000000 1.720630 
# 
# From -- ./inp_files/8136.got.cif
#   From: 2010.03.12/outbox.cif.g09.slc.cpg/sg57_5_cif.got.tgz:8136.got - 2010.04.16 15:48:40.
