data_PCOD8234803
_publ_section_title
;
Structure prediction by ZEFSAII (Michael W. Deem and Ramdas Pophale) SiO2 
 PCOD8234803
Probable space group: P B C M
;
_chemical_formula_sum "Si O2"
_cell_formula_units_Z 40
_cell_length_a 12.245807
_cell_length_b 8.725886
_cell_length_c 15.792849
_cell_angle_alpha 90.000000
_cell_angle_beta 90.000000
_cell_angle_gamma 90.000000
_cell_volume 1687.553027
_symmetry_space_group_name_H-M "P B C M"
_symmetry_group_IT_number 57
_symmetry_cell_setting 'orthorhombic'
loop_
_space_group_symop_operation_xyz
x,y,z
-x,-y,1/2+z
x,1/2-y,-z
-x,1/2+y,1/2-z
-x,-y,-z
x,y,1/2-z
-x,1/2+y,z
x,1/2-y,1/2+z
loop_
_atom_site_type_symbol
_atom_site_label
_atom_site_fract_x
_atom_site_fract_y
_atom_site_fract_z
Si Si1 0.641108 0.083589 0.416722
Si Si2 0.535527 0.780961 0.153611
Si Si3 0.927164 0.996254 0.845900
Si Si4 0.876863 0.314145 0.594796
Si Si5 0.288411 0.110566 0.064447
O O1 0.564920 0.234536 0.408445
O O2 0.758963 0.121999 0.376470
O O3 0.580447 0.949204 0.365942
O O4 0.660739 0.035595 0.514713
O O5 0.495030 0.773818 0.250000
O O6 0.631214 0.655960 0.140377
O O7 0.928159 0.934039 0.750000
O O8 0.915538 0.179265 0.843166
O O9 0.828490 0.924426 0.898037
O O10 0.038286 0.953149 0.894814
O O11 0.873222 0.250000 0.500000
O O12 0.275897 0.250000 0.000000
#
# Coordination Sequence:
#
# PCOD8234803 Si02
#       5
#     8   8   8   8   8
#     4  11  26  47  74 105 145 194 249 295 357 441
#     4  11  25  44  72 105 148 190 241 305 367 422
#     4  12  27  46  74 110 147 184 240 307 367 425
#     4  12  27  49  78 105 146 196 245 294 363 448
#     4  10  23  45  73 104 141 195 243 294 357 442
#
# _framework density 23.702957000000001
#
# number of rings (size 3 to 8) (size 9 to 14) (size 15 to 20)
#    0.000    0.800    2.000    3.600    8.400    5.600 
#    0.000    0.000    0.000    0.000    0.000    0.000 
#    0.000    0.000    0.000    0.000    0.000    0.000 
#
# Total GULP energy -496110.362654 kJ/mol
# GULP energy per Si atom -12402.759066 kJ/mol
# Density = 2.364901 g / cm^3
# Si number density = 23.702957 Si / 1000 Ang^3
#
#
#
# Elastic Constant Matrix: (Units=GPa)
#
#
# Indices 1 2 3 4 5 6 
#
# 1 179.4427 90.3639 40.3724 0.0000 0.0000 0.0000
# 2 90.3639 112.0322 39.3905 0.0000 0.0000 0.0000
# 3 40.3724 39.3905 103.4335 0.0000 0.0000 0.0000
# 4 0.0000 0.0000 0.0000 27.2090 0.0000 0.0000
# 5 0.0000 0.0000 0.0000 0.0000 26.0345 0.0000
# 6 0.0000 0.0000 0.0000 0.0000 0.0000 52.1710
#
#
#
# Elastic Compliance Matrix: (Units=1/GPa)
#
#
# Indices 1 2 3 4 5 6 
#
# 1 0.009458 -0.007309 -0.000908 0.000000 0.000000 0.000000
# 2 -0.007309 0.015955 -0.003223 0.000000 0.000000 0.000000
# 3 -0.000908 -0.003223 0.011250 0.000000 0.000000 0.000000
# 4 0.000000 0.000000 0.000000 0.036753 0.000000 0.000000
# 5 0.000000 0.000000 0.000000 0.000000 0.038411 0.000000
# 6 0.000000 0.000000 0.000000 0.000000 0.000000 0.019168
#
#
# Mechanical properties :
#
#
# Convention : Reuss Voigt Hill
#
# Bulk Modulus (GPa) = 72.55958 81.68468 77.12213
# Shear Modulus (GPa) = 31.55197 36.06835 33.81016
#
# Velocity S-wave (km/s) = 3.65244 3.90511 3.78088
# Velocity P-wave (km/s) = 6.96172 7.40741 7.18802
#
# Compressibility (1/GPa) = 0.01378178
#
# Stress axis : x y z
#
# Youngs Moduli (GPa) = 105.73050 62.67640 88.88966
#
# Poissons Ratio (x) = 0.45813 0.08071
# Poissons Ratio (y) = 0.77283 0.28650
# Poissons Ratio (z) = 0.09600 0.20201
#
# Static dielectric constant tensor:
#      x y z
#    x 4.400550 0.000000 0.000000 
#    y 0.000000 4.568570 0.000000 
#    z 0.000000 0.000000 4.074620 
# 
# 
# High freq. dielectric constant tensor:
#      x y z
#    x 1.952750 0.000000 0.000000 
#    y 0.000000 1.952660 0.000000 
#    z 0.000000 0.000000 1.929400 
# 
# From -- ./inp_files/21572.got.cif
#   From: 2010.03.12/outbox.cif.g09.slc.cpg/sg57_11_cif.got.tgz:21572.got - 2010.04.16 15:48:40.
