data_PCOD8234810
_publ_section_title
;
Structure prediction by ZEFSAII (Michael W. Deem and Ramdas Pophale) SiO2 
 PCOD8234810
Probable space group: P B C M
;
_chemical_formula_sum "Si O2"
_cell_formula_units_Z 16
_cell_length_a 4.867752
_cell_length_b 13.656854
_cell_length_c 7.974281
_cell_angle_alpha 90.000000
_cell_angle_beta 90.000000
_cell_angle_gamma 90.000000
_cell_volume 530.115675
_symmetry_space_group_name_H-M "P B C M"
_symmetry_group_IT_number 57
_symmetry_cell_setting 'orthorhombic'
loop_
_space_group_symop_operation_xyz
x,y,z
-x,-y,1/2+z
x,1/2-y,-z
-x,1/2+y,1/2-z
-x,-y,-z
x,y,1/2-z
-x,1/2+y,z
x,1/2-y,1/2+z
loop_
_atom_site_type_symbol
_atom_site_label
_atom_site_fract_x
_atom_site_fract_y
_atom_site_fract_z
Si Si1 0.966077 0.260514 0.750000
Si Si2 0.477198 0.372797 0.250000
Si Si3 0.755043 0.065201 0.437754
O O1 0.282010 0.222496 0.750000
O O2 0.890862 0.326546 0.586575
O O3 0.794677 0.160857 0.750000
O O4 0.485350 0.428404 0.435075
O O5 0.661174 0.025685 0.250000
O O6 0.000000 0.000000 0.500000
#
# Coordination Sequence:
#
# PCOD8234810 Si02
#       3
#     4   4   8
#     4  10  27  44  79 114 149 210 261 330 401 464
#     4  12  23  52  73 114 161 192 275 336 381 484
#     4  10  23  48  79 115 158 215 265 327 409 479
#
# _framework density 30.182086999999999
#
# number of rings (size 3 to 8) (size 9 to 14) (size 15 to 20)
#    1.500    0.000    2.500    1.500    0.000    8.000 
#    4.500   15.000    0.000    0.000    0.000    0.000 
#    0.000    0.000    0.000    0.000    0.000    0.000 
#
# Total GULP energy -198444.281248 kJ/mol
# GULP energy per Si atom -12402.767578 kJ/mol
# Density = 3.011339 g / cm^3
# Si number density = 30.182087 Si / 1000 Ang^3
#
#
#
# Elastic Constant Matrix: (Units=GPa)
#
#
# Indices 1 2 3 4 5 6 
#
# 1 163.4498 78.0553 88.8403 0.0000 0.0000 0.0000
# 2 78.0553 171.7270 129.7086 0.0000 0.0000 0.0000
# 3 88.8403 129.7086 229.0526 0.0000 0.0000 0.0000
# 4 0.0000 0.0000 0.0000 76.0692 0.0000 0.0000
# 5 0.0000 0.0000 0.0000 0.0000 66.7243 0.0000
# 6 0.0000 0.0000 0.0000 0.0000 0.0000 78.8402
#
#
#
# Elastic Compliance Matrix: (Units=1/GPa)
#
#
# Indices 1 2 3 4 5 6 
#
# 1 0.008254 -0.002330 -0.001882 0.000000 0.000000 0.000000
# 2 -0.002330 0.010833 -0.005231 0.000000 0.000000 0.000000
# 3 -0.001882 -0.005231 0.008058 0.000000 0.000000 0.000000
# 4 0.000000 0.000000 0.000000 0.013146 0.000000 0.000000
# 5 0.000000 0.000000 0.000000 0.000000 0.014987 0.000000
# 6 0.000000 0.000000 0.000000 0.000000 0.000000 0.012684
#
#
# Mechanical properties :
#
#
# Convention : Reuss Voigt Hill
#
# Bulk Modulus (GPa) = 121.07860 128.60419 124.84139
# Shear Modulus (GPa) = 55.80319 62.16842 58.98580
#
# Velocity S-wave (km/s) = 4.30453 4.54340 4.42558
# Velocity P-wave (km/s) = 8.05658 8.38005 8.21991
#
# Compressibility (1/GPa) = 0.00825910
#
# Stress axis : x y z
#
# Youngs Moduli (GPa) = 121.15841 92.30693 124.10287
#
# Poissons Ratio (x) = 0.21510 0.23352
# Poissons Ratio (y) = 0.28233 0.64918
# Poissons Ratio (z) = 0.22798 0.48285
#
# Static dielectric constant tensor:
#      x y z
#    x 5.002880 0.000000 0.000000 
#    y 0.000000 6.375110 0.000000 
#    z 0.000000 0.000000 7.507340 
# 
# 
# High freq. dielectric constant tensor:
#      x y z
#    x 2.232630 0.000000 0.000000 
#    y 0.000000 2.311350 0.000000 
#    z 0.000000 0.000000 2.293060 
# 
# From -- ./inp_files/593.got.cif
#   From: 2010.03.12/outbox.cif.g09.slc.cpg/sg57_1_cif.got.tgz:593.got - 2010.04.16 15:48:40.
