data_PCOD8234054
_publ_section_title
;
Structure prediction by ZEFSAII (Michael W. Deem and Ramdas Pophale) SiO2 
 PCOD8234054
Probable space group: P B C M
;
_chemical_formula_sum "Si O2"
_cell_formula_units_Z 60
_cell_length_a 25.738761
_cell_length_b 11.906431
_cell_length_c 9.201652
_cell_angle_alpha 90.000000
_cell_angle_beta 90.000000
_cell_angle_gamma 90.000000
_cell_volume 2819.908660
_symmetry_space_group_name_H-M "P B C M"
_symmetry_group_IT_number 57
_symmetry_cell_setting 'orthorhombic'
loop_
_space_group_symop_operation_xyz
x,y,z
-x,-y,1/2+z
x,1/2-y,-z
-x,1/2+y,1/2-z
-x,-y,-z
x,y,1/2-z
-x,1/2+y,z
x,1/2-y,1/2+z
loop_
_atom_site_type_symbol
_atom_site_label
_atom_site_fract_x
_atom_site_fract_y
_atom_site_fract_z
Si Si1 0.324062 0.061777 0.414734
Si Si2 0.534197 0.145029 0.914787
Si Si3 0.576431 0.565735 0.584634
Si Si4 0.822013 0.942565 0.409403
Si Si5 0.261911 0.872859 0.576685
Si Si6 0.076095 0.424682 0.587126
Si Si7 0.980925 0.154790 0.589295
Si Si8 0.248873 0.250000 0.500000
O O1 0.337361 0.025799 0.250000
O O2 0.283041 0.163744 0.404889
O O3 0.374117 0.113023 0.497398
O O4 0.306380 0.949497 0.501895
O O5 0.555054 0.142751 0.750000
O O6 0.471362 0.152710 0.915915
O O7 0.557447 0.250000 0.000000
O O8 0.556405 0.041816 0.001028
O O9 0.592557 0.536775 0.750000
O O10 0.847272 0.957820 0.250000
O O11 0.865822 0.920022 0.528140
O O12 0.785702 0.832120 0.400079
O O13 0.791242 0.057059 0.449553
O O14 0.258476 0.750000 0.500000
O O15 0.272710 0.859123 0.750000
O O16 0.076120 0.374915 0.750000
O O17 0.036889 0.357745 0.486057
O O18 0.056956 0.551310 0.588167
O O19 0.950157 0.250000 0.500000
O O20 0.992773 0.197251 0.750000
#
# Coordination Sequence:
#
# PCOD8234054 Si02
#       8
#     8   8   8   8   8   8   8   4
#     4  11  23  40  64  91 122 161 206 256 309 367
#     4  10  21  38  60  87 120 158 199 248 298 357
#     4  10  22  39  59  87 121 157 199 246 300 362
#     4  10  22  40  62  88 121 160 201 251 306 363
#     4  10  22  41  63  88 120 156 201 253 308 366
#     4  10  22  38  58  86 118 155 199 244 297 359
#     4  10  21  38  59  84 117 155 197 246 297 356
#     4  10  24  42  62  92 126 164 208 258 306 370
#
# _framework density 21.277286
#
# number of rings (size 3 to 8) (size 9 to 14) (size 15 to 20)
#    0.000    1.867    0.000    2.800    1.867    9.067 
#    0.000    5.333    0.000    0.000    0.000    0.000 
#    0.000    0.000    0.000    0.000    0.000    0.000 
#
# Total GULP energy -743614.361884 kJ/mol
# GULP energy per Si atom -12393.572698 kJ/mol
# Density = 2.122886 g / cm^3
# Si number density = 21.277286 Si / 1000 Ang^3
#
#
#
# Elastic Constant Matrix: (Units=GPa)
#
#
# Indices 1 2 3 4 5 6 
#
# 1 80.6137 9.3000 37.5449 0.0000 0.0000 0.0000
# 2 9.3000 98.5400 41.5372 0.0000 0.0000 0.0000
# 3 37.5449 41.5372 168.3858 0.0000 0.0000 0.0000
# 4 0.0000 0.0000 0.0000 29.1821 0.0000 0.0000
# 5 0.0000 0.0000 0.0000 0.0000 30.4672 0.0000
# 6 0.0000 0.0000 0.0000 0.0000 0.0000 21.7899
#
#
#
# Elastic Compliance Matrix: (Units=1/GPa)
#
#
# Indices 1 2 3 4 5 6 
#
# 1 0.013842 -0.000006 -0.003085 0.000000 0.000000 0.000000
# 2 -0.000006 0.011326 -0.002793 0.000000 0.000000 0.000000
# 3 -0.003085 -0.002793 0.007315 0.000000 0.000000 0.000000
# 4 0.000000 0.000000 0.000000 0.034268 0.000000 0.000000
# 5 0.000000 0.000000 0.000000 0.000000 0.032822 0.000000
# 6 0.000000 0.000000 0.000000 0.000000 0.000000 0.045893
#
#
# Mechanical properties :
#
#
# Convention : Reuss Voigt Hill
#
# Bulk Modulus (GPa) = 48.27029 58.25597 53.26313
# Shear Modulus (GPa) = 30.46204 33.56499 32.01352
#
# Velocity S-wave (km/s) = 3.78785 3.97609 3.88311
# Velocity P-wave (km/s) = 6.47039 6.96548 6.72249
#
# Compressibility (1/GPa) = 0.02071668
#
# Stress axis : x y z
#
# Youngs Moduli (GPa) = 72.24229 88.29366 136.69725
#
# Poissons Ratio (x) = 0.00053 0.42170
# Poissons Ratio (y) = 0.00044 0.38173
# Poissons Ratio (z) = 0.22286 0.24656
#
# Static dielectric constant tensor:
#      x y z
#    x 3.783920 0.000000 0.000000 
#    y 0.000000 3.911520 0.000000 
#    z 0.000000 0.000000 4.395510 
# 
# 
# High freq. dielectric constant tensor:
#      x y z
#    x 1.823110 0.000000 0.000000 
#    y 0.000000 1.837670 0.000000 
#    z 0.000000 0.000000 1.849990 
# 
# From -- ./inp_files/9758.got.cif
#   From: 2010.03.12/outbox.cif.g09.slc.cpg/sg57_5_cif.got.tgz:9758.got - 2010.04.16 15:48:40.
