data_PCOD8234324
_publ_section_title
;
Structure prediction by ZEFSAII (Michael W. Deem and Ramdas Pophale) SiO2 
 PCOD8234324
Probable space group: P B C M
;
_chemical_formula_sum "Si O2"
_cell_formula_units_Z 48
_cell_length_a 29.457206
_cell_length_b 4.982382
_cell_length_c 14.771150
_cell_angle_alpha 90.000000
_cell_angle_beta 90.000000
_cell_angle_gamma 90.000000
_cell_volume 2167.918154
_symmetry_space_group_name_H-M "P B C M"
_symmetry_group_IT_number 57
_symmetry_cell_setting 'orthorhombic'
loop_
_space_group_symop_operation_xyz
x,y,z
-x,-y,1/2+z
x,1/2-y,-z
-x,1/2+y,1/2-z
-x,-y,-z
x,y,1/2-z
-x,1/2+y,z
x,1/2-y,1/2+z
loop_
_atom_site_type_symbol
_atom_site_label
_atom_site_fract_x
_atom_site_fract_y
_atom_site_fract_z
Si Si1 0.748240 0.000902 0.560098
Si Si2 0.343242 0.180040 0.147837
Si Si3 0.469547 0.954170 0.750000
Si Si4 0.967717 0.669290 0.750000
Si Si5 0.161993 0.770127 0.393550
Si Si6 0.601644 0.168505 0.098707
Si Si7 0.108243 0.266187 0.391878
O O1 0.730038 0.250000 0.500000
O O2 0.787038 0.122419 0.627655
O O3 0.767940 0.750000 0.500000
O O4 0.707565 0.883920 0.618332
O O5 0.342666 0.290054 0.250000
O O6 0.363490 0.419496 0.086425
O O7 0.373720 0.916619 0.145292
O O8 0.512333 0.756895 0.750000
O O9 0.440607 0.918808 0.659309
O O10 0.938205 0.663346 0.841762
O O11 0.000292 0.420953 0.750000
O O12 0.159568 0.750000 0.500000
O O13 0.147359 0.477206 0.358973
O O14 0.125400 0.980073 0.355333
O O15 0.583378 0.250000 0.000000
O O16 0.099939 0.250000 0.500000
#
# Coordination Sequence:
#
# PCOD8234324 Si02
#       7
#     8   8   4   4   8   8   8
#     4  11  21  36  62  95 130 171 221 263 306 370
#     4  12  23  42  63  97 140 178 220 271 317 381
#     4  12  26  46  72  99 134 163 212 286 340 392
#     4  12  26  42  62  91 122 153 202 264 320 382
#     4   9  18  36  62  87 122 164 207 251 300 362
#     4  12  25  45  71  97 132 178 221 264 333 397
#     4  10  21  40  63  88 120 163 203 250 313 375
#
# _framework density 22.141057
#
# number of rings (size 3 to 8) (size 9 to 14) (size 15 to 20)
#    0.000    1.000    1.667    7.500    0.000    1.333 
#    3.000    0.000    0.000    0.000    2.167    0.000 
#    0.000    0.000    0.000    0.000    0.000    0.000 
#
# Total GULP energy -595108.624459 kJ/mol
# GULP energy per Si atom -12398.096343 kJ/mol
# Density = 2.209066 g / cm^3
# Si number density = 22.141057 Si / 1000 Ang^3
#
#
#
# Elastic Constant Matrix: (Units=GPa)
#
#
# Indices 1 2 3 4 5 6 
#
# 1 122.8607 35.0991 45.9090 0.0000 0.0000 0.0000
# 2 35.0991 123.2209 22.0301 0.0000 0.0000 0.0000
# 3 45.9090 22.0301 92.2563 0.0000 0.0000 0.0000
# 4 0.0000 0.0000 0.0000 19.7460 0.0000 0.0000
# 5 0.0000 0.0000 0.0000 0.0000 -10.8759 0.0000
# 6 0.0000 0.0000 0.0000 0.0000 0.0000 51.5243
#
#
#
# Elastic Compliance Matrix: (Units=1/GPa)
#
#
# Indices 1 2 3 4 5 6 
#
# 1 0.010518 -0.002152 -0.004720 0.000000 0.000000 0.000000
# 2 -0.002152 0.008918 -0.001059 0.000000 0.000000 0.000000
# 3 -0.004720 -0.001059 0.013441 0.000000 0.000000 0.000000
# 4 0.000000 0.000000 0.000000 0.050643 0.000000 0.000000
# 5 0.000000 0.000000 0.000000 0.000000 -0.091947 0.000000
# 6 0.000000 0.000000 0.000000 0.000000 0.000000 0.019408
#
#
# Mechanical properties :
#
#
# Convention : Reuss Voigt Hill
#
# Bulk Modulus (GPa) = 58.77101 60.49045 59.63073
# Shear Modulus (GPa) = 153.77737 27.76554 90.77146
#
# Velocity S-wave (km/s) = 8.34292 3.54507 6.40983
# Velocity P-wave (km/s) = 10.92736 6.64353 9.04278
#
# Compressibility (1/GPa) = 0.01701519
#
# Stress axis : x y z
#
# Youngs Moduli (GPa) = 95.07668 112.13557 74.39954
#
# Poissons Ratio (x) = 0.24133 0.35117
# Poissons Ratio (y) = 0.20461 0.07876
# Poissons Ratio (z) = 0.44876 0.11870
#
# Static dielectric constant tensor:
#      x y z
#    x 4.131740 0.000000 0.000000 
#    y 0.000000 4.575390 0.000000 
#    z 0.000000 0.000000 3.962100 
# 
# 
# High freq. dielectric constant tensor:
#      x y z
#    x 1.867940 0.000000 0.000000 
#    y 0.000000 1.898350 0.000000 
#    z 0.000000 0.000000 1.856440 
# 
# From -- ./inp_files/19607.got.cif
#   From: 2010.03.12/outbox.cif.g09.slc.cpg/sg57_10_cif.got.tgz:19607.got - 2010.04.16 15:48:40.
