data_PCOD8234835
_publ_section_title
;
Structure prediction by ZEFSAII (Michael W. Deem and Ramdas Pophale) SiO2 
 PCOD8234835
Probable space group: P B C M
;
_chemical_formula_sum "Si O2"
_cell_formula_units_Z 40
_cell_length_a 6.121279
_cell_length_b 9.823640
_cell_length_c 29.989160
_cell_angle_alpha 90.000000
_cell_angle_beta 90.000000
_cell_angle_gamma 90.000000
_cell_volume 1803.345393
_symmetry_space_group_name_H-M "P B C M"
_symmetry_group_IT_number 57
_symmetry_cell_setting 'orthorhombic'
loop_
_space_group_symop_operation_xyz
x,y,z
-x,-y,1/2+z
x,1/2-y,-z
-x,1/2+y,1/2-z
-x,-y,-z
x,y,1/2-z
-x,1/2+y,z
x,1/2-y,1/2+z
loop_
_atom_site_type_symbol
_atom_site_label
_atom_site_fract_x
_atom_site_fract_y
_atom_site_fract_z
Si Si1 0.558847 0.363457 0.823908
Si Si2 0.147278 0.761617 0.250000
Si Si3 0.243063 0.288711 0.602851
Si Si4 0.859980 0.012079 0.106494
Si Si5 0.239624 0.443321 0.750000
Si Si6 0.432140 0.626399 0.470194
O O1 0.714823 0.269262 0.794228
O O2 0.426222 0.270538 0.858935
O O3 0.704986 0.471347 0.850719
O O4 0.391721 0.446403 0.793333
O O5 0.915682 0.687346 0.250000
O O6 0.090997 0.921695 0.250000
O O7 0.355442 0.319473 0.555752
O O8 0.090220 0.415800 0.615925
O O9 0.104678 0.149193 0.599165
O O10 0.758784 0.080963 0.062791
O O11 0.339435 0.750000 0.500000
O O12 0.500000 0.500000 0.500000
#
# Coordination Sequence:
#
# PCOD8234835 Si02
#       6
#     8   4   8   8   4   8
#     4  10  24  43  66  92 131 170 214 263 315 376
#     4  11  24  42  67  97 129 169 213 265 316 380
#     4  11  25  42  66  96 128 169 214 262 321 380
#     4  11  25  42  66  95 129 169 213 263 319 381
#     4  11  24  42  67  97 129 167 215 263 318 380
#     4  11  24  45  66  94 131 169 214 265 319 376
#
# _framework density 22.180997999999999
#
# number of rings (size 3 to 8) (size 9 to 14) (size 15 to 20)
#    0.000    1.200    2.000    2.400    2.800   12.800 
#    0.000    0.000    0.000    0.000    0.000    0.000 
#    0.000    0.000    0.000    0.000    0.000    0.000 
#
# Total GULP energy -496207.453408 kJ/mol
# GULP energy per Si atom -12405.186335 kJ/mol
# Density = 2.213051 g / cm^3
# Si number density = 22.180998 Si / 1000 Ang^3
#
#
#
# Elastic Constant Matrix: (Units=GPa)
#
#
# Indices 1 2 3 4 5 6 
#
# 1 71.4968 2.0664 25.1512 0.0000 0.0000 0.0000
# 2 2.0664 104.5300 25.4675 0.0000 0.0000 0.0000
# 3 25.1512 25.4675 126.1218 0.0000 0.0000 0.0000
# 4 0.0000 0.0000 0.0000 16.7164 0.0000 0.0000
# 5 0.0000 0.0000 0.0000 0.0000 18.1074 0.0000
# 6 0.0000 0.0000 0.0000 0.0000 0.0000 34.8250
#
#
#
# Elastic Compliance Matrix: (Units=1/GPa)
#
#
# Indices 1 2 3 4 5 6 
#
# 1 0.015063 0.000457 -0.003096 0.000000 0.000000 0.000000
# 2 0.000457 0.010075 -0.002126 0.000000 0.000000 0.000000
# 3 -0.003096 -0.002126 0.008975 0.000000 0.000000 0.000000
# 4 0.000000 0.000000 0.000000 0.059822 0.000000 0.000000
# 5 0.000000 0.000000 0.000000 0.000000 0.055226 0.000000
# 6 0.000000 0.000000 0.000000 0.000000 0.000000 0.028715
#
#
# Mechanical properties :
#
#
# Convention : Reuss Voigt Hill
#
# Bulk Modulus (GPa) = 40.67769 45.27986 42.97878
# Shear Modulus (GPa) = 25.56228 30.56065 28.06146
#
# Velocity S-wave (km/s) = 3.39844 3.71588 3.56070
# Velocity P-wave (km/s) = 5.81189 6.23446 6.02688
#
# Compressibility (1/GPa) = 0.02458350
#
# Stress axis : x y z
#
# Youngs Moduli (GPa) = 66.38979 99.25097 111.41508
#
# Poissons Ratio (x) = -0.04531 0.34494
# Poissons Ratio (y) = -0.03031 0.23682
# Poissons Ratio (z) = 0.20554 0.21096
#
# Static dielectric constant tensor:
#      x y z
#    x 3.904160 0.000000 0.000000 
#    y 0.000000 3.769590 0.000000 
#    z 0.000000 0.000000 3.965160 
# 
# 
# High freq. dielectric constant tensor:
#      x y z
#    x 1.866500 0.000000 0.000000 
#    y 0.000000 1.873530 0.000000 
#    z 0.000000 0.000000 1.893240 
# 
# From -- ./inp_files/27809.got.cif
#   From: 2010.03.12/outbox.cif.g09.slc.cpg/sg57_14_cif.got.tgz:27809.got - 2010.04.16 15:48:40.
