data_PCOD8234741
_publ_section_title
;
Structure prediction by ZEFSAII (Michael W. Deem and Ramdas Pophale) SiO2 
 PCOD8234741
Probable space group: P B C M
;
_chemical_formula_sum "Si O2"
_cell_formula_units_Z 64
_cell_length_a 24.238893
_cell_length_b 8.538427
_cell_length_c 15.125807
_cell_angle_alpha 90.000000
_cell_angle_beta 90.000000
_cell_angle_gamma 90.000000
_cell_volume 3130.467547
_symmetry_space_group_name_H-M "P B C M"
_symmetry_group_IT_number 57
_symmetry_cell_setting 'orthorhombic'
loop_
_space_group_symop_operation_xyz
x,y,z
-x,-y,1/2+z
x,1/2-y,-z
-x,1/2+y,1/2-z
-x,-y,-z
x,y,1/2-z
-x,1/2+y,z
x,1/2-y,1/2+z
loop_
_atom_site_type_symbol
_atom_site_label
_atom_site_fract_x
_atom_site_fract_y
_atom_site_fract_z
Si Si1 0.957522 0.028593 0.652425
Si Si2 0.637894 0.435911 0.496822
Si Si3 0.837486 0.541960 0.852042
Si Si4 0.159822 0.089899 0.147581
Si Si5 0.762738 0.436247 0.497068
Si Si6 0.561117 0.447007 0.849248
Si Si7 0.943790 0.348739 0.589170
Si Si8 0.555602 0.076264 0.849204
O O1 0.967802 0.958222 0.750000
O O2 0.898401 0.977278 0.614588
O O3 0.004522 0.967553 0.585612
O O4 0.957806 0.216758 0.661557
O O5 0.638038 0.250000 0.500000
O O6 0.700137 0.497300 0.488826
O O7 0.609867 0.503989 0.585880
O O8 0.603066 0.494322 0.412084
O O9 0.826511 0.499028 0.750000
O O10 0.845573 0.725607 0.865450
O O11 0.890193 0.448148 0.886972
O O12 0.784657 0.495426 0.908977
O O13 0.172223 0.046116 0.250000
O O14 0.205834 0.010575 0.086446
O O15 0.767779 0.250000 0.500000
O O16 0.575159 0.505082 0.750000
O O17 0.555427 0.261880 0.852514
O O18 0.503788 0.519209 0.883000
O O19 0.934779 0.250000 0.500000
O O20 0.567003 0.014125 0.750000
#
# Coordination Sequence:
#
# PCOD8234741 Si02
#       8
#     8   8   8   8   8   8   8   8
#     4  11  22  38  59  85 116 150 188 233 289 354
#     4   9  19  34  53  78 108 144 185 229 279 335
#     4  11  23  41  62  84 115 156 197 242 296 354
#     4  10  23  42  63  85 116 157 197 241 296 353
#     4  11  23  39  60  86 114 149 199 250 292 343
#     4   9  17  31  52  78 110 143 179 222 272 330
#     4  12  24  38  60  91 121 152 192 240 294 351
#     4   9  17  31  52  79 109 143 180 223 274 332
#
# _framework density 20.444230999999998
#
# number of rings (size 3 to 8) (size 9 to 14) (size 15 to 20)
#    0.000    1.750    0.000    4.875    0.000    4.500 
#    0.000    5.000    0.000    3.000    0.000    0.000 
#    0.000    0.000    0.000    0.000    0.000    0.000 
#
# Total GULP energy -793517.454234 kJ/mol
# GULP energy per Si atom -12398.710222 kJ/mol
# Density = 2.039770 g / cm^3
# Si number density = 20.444231 Si / 1000 Ang^3
#
#
#
# Elastic Constant Matrix: (Units=GPa)
#
#
# Indices 1 2 3 4 5 6 
#
# 1 94.6980 27.5557 46.3284 0.0000 0.0000 0.0000
# 2 27.5557 69.7239 26.0425 0.0000 0.0000 0.0000
# 3 46.3284 26.0425 116.6343 0.0000 0.0000 0.0000
# 4 0.0000 0.0000 0.0000 27.0081 0.0000 0.0000
# 5 0.0000 0.0000 0.0000 0.0000 32.6577 0.0000
# 6 0.0000 0.0000 0.0000 0.0000 0.0000 28.9627
#
#
#
# Elastic Compliance Matrix: (Units=1/GPa)
#
#
# Indices 1 2 3 4 5 6 
#
# 1 0.013955 -0.003758 -0.004704 0.000000 0.000000 0.000000
# 2 -0.003758 0.016659 -0.002227 0.000000 0.000000 0.000000
# 3 -0.004704 -0.002227 0.010939 0.000000 0.000000 0.000000
# 4 0.000000 0.000000 0.000000 0.037026 0.000000 0.000000
# 5 0.000000 0.000000 0.000000 0.000000 0.030621 0.000000
# 6 0.000000 0.000000 0.000000 0.000000 0.000000 0.034527
#
#
# Mechanical properties :
#
#
# Convention : Reuss Voigt Hill
#
# Bulk Modulus (GPa) = 49.56481 53.43439 51.49960
# Shear Modulus (GPa) = 29.09850 29.80102 29.44976
#
# Velocity S-wave (km/s) = 3.77677 3.82209 3.79950
# Velocity P-wave (km/s) = 6.58143 6.75805 6.67032
#
# Compressibility (1/GPa) = 0.02017561
#
# Stress axis : x y z
#
# Youngs Moduli (GPa) = 71.66062 60.02638 91.41219
#
# Poissons Ratio (x) = 0.22559 0.42999
# Poissons Ratio (y) = 0.26931 0.20357
# Poissons Ratio (z) = 0.33708 0.13368
#
# Static dielectric constant tensor:
#      x y z
#    x 3.829730 0.000000 0.000000 
#    y 0.000000 3.715930 0.000000 
#    z 0.000000 0.000000 4.072360 
# 
# 
# High freq. dielectric constant tensor:
#      x y z
#    x 1.794000 0.000000 0.000000 
#    y 0.000000 1.794250 0.000000 
#    z 0.000000 0.000000 1.815010 
# 
# From -- ./inp_files/19512.got.cif
#   From: 2010.03.12/outbox.cif.g09.slc.cpg/sg57_10_cif.got.tgz:19512.got - 2010.04.16 15:48:40.
