data_PCOD8234281
_publ_section_title
;
Structure prediction by ZEFSAII (Michael W. Deem and Ramdas Pophale) SiO2 
 PCOD8234281
Probable space group: P B C M
;
_chemical_formula_sum "Si O2"
_cell_formula_units_Z 48
_cell_length_a 8.950162
_cell_length_b 16.025631
_cell_length_c 15.348147
_cell_angle_alpha 90.000000
_cell_angle_beta 90.000000
_cell_angle_gamma 90.000000
_cell_volume 2201.415322
_symmetry_space_group_name_H-M "P B C M"
_symmetry_group_IT_number 57
_symmetry_cell_setting 'orthorhombic'
loop_
_space_group_symop_operation_xyz
x,y,z
-x,-y,1/2+z
x,1/2-y,-z
-x,1/2+y,1/2-z
-x,-y,-z
x,y,1/2-z
-x,1/2+y,z
x,1/2-y,1/2+z
loop_
_atom_site_type_symbol
_atom_site_label
_atom_site_fract_x
_atom_site_fract_y
_atom_site_fract_z
Si Si1 0.174426 0.305135 0.578730
Si Si2 0.049143 0.682681 0.852497
Si Si3 0.381966 0.846155 0.353828
Si Si4 0.525765 0.680324 0.347010
Si Si5 0.413768 0.997814 0.645116
Si Si6 0.128103 0.447009 0.457074
O O1 0.237455 0.250000 0.500000
O O2 0.295812 0.304619 0.655687
O O3 0.176533 0.398471 0.543513
O O4 0.011165 0.271880 0.610174
O O5 0.052990 0.690046 0.750000
O O6 0.211339 0.655298 0.888603
O O7 0.931735 0.613516 0.881490
O O8 0.386190 0.845555 0.250000
O O9 0.452710 0.761118 0.393688
O O10 0.472963 0.928188 0.385111
O O11 0.462964 0.678548 0.250000
O O12 0.482121 0.590586 0.387507
O O13 0.386305 0.001329 0.750000
O O14 0.260564 0.003314 0.590428
O O15 0.000000 0.500000 0.500000
#
# Coordination Sequence:
#
# PCOD8234281 Si02
#       6
#     8   8   8   8   8   8
#     4  10  22  40  58  90 125 164 209 254 326 386
#     4  10  21  41  67  89 121 170 217 265 318 380
#     4   9  19  37  63  94 120 155 214 272 316 371
#     4  10  21  39  65  93 120 161 216 266 314 381
#     4  10  22  42  67  92 124 170 222 268 322 394
#     4  11  25  41  57  91 131 168 204 261 332 393
#
# _framework density 21.804155000000002
#
# number of rings (size 3 to 8) (size 9 to 14) (size 15 to 20)
#    0.000    2.000    0.000    3.000    4.667    2.000 
#    3.000    1.667    0.000    0.000    0.000    0.000 
#    0.000    0.000    0.000    0.000    0.000    0.000 
#
# Total GULP energy -594644.784694 kJ/mol
# GULP energy per Si atom -12388.433014 kJ/mol
# Density = 2.175453 g / cm^3
# Si number density = 21.804155 Si / 1000 Ang^3
#
#
#
# Elastic Constant Matrix: (Units=GPa)
#
#
# Indices 1 2 3 4 5 6 
#
# 1 135.6031 42.5956 16.9594 0.0000 0.0000 0.0000
# 2 42.5956 131.0155 3.8721 0.0000 0.0000 0.0000
# 3 16.9594 3.8721 39.7704 0.0000 0.0000 0.0000
# 4 0.0000 0.0000 0.0000 8.6714 0.0000 0.0000
# 5 0.0000 0.0000 0.0000 0.0000 40.1343 0.0000
# 6 0.0000 0.0000 0.0000 0.0000 0.0000 31.6357
#
#
#
# Elastic Compliance Matrix: (Units=1/GPa)
#
#
# Indices 1 2 3 4 5 6 
#
# 1 0.008655 -0.002713 -0.003427 0.000000 0.000000 0.000000
# 2 -0.002713 0.008505 0.000329 0.000000 0.000000 0.000000
# 3 -0.003427 0.000329 0.026574 0.000000 0.000000 0.000000
# 4 0.000000 0.000000 0.000000 0.115322 0.000000 0.000000
# 5 0.000000 0.000000 0.000000 0.000000 0.024916 0.000000
# 6 0.000000 0.000000 0.000000 0.000000 0.000000 0.031610
#
#
# Mechanical properties :
#
#
# Convention : Reuss Voigt Hill
#
# Bulk Modulus (GPa) = 31.14069 48.13812 39.63940
# Shear Modulus (GPa) = 21.01663 32.28576 26.65119
#
# Velocity S-wave (km/s) = 3.10801 3.85218 3.49993
# Velocity P-wave (km/s) = 5.21466 6.47388 5.87809
#
# Compressibility (1/GPa) = 0.03211233
#
# Stress axis : x y z
#
# Youngs Moduli (GPa) = 115.53840 117.57921 37.63130
#
# Poissons Ratio (x) = 0.31895 0.12895
# Poissons Ratio (y) = 0.31342 -0.01237
# Poissons Ratio (z) = 0.39592 -0.03865
#
# Static dielectric constant tensor:
#      x y z
#    x 4.040560 0.000000 0.000000 
#    y 0.000000 4.245220 0.000000 
#    z 0.000000 0.000000 3.634020 
# 
# 
# High freq. dielectric constant tensor:
#      x y z
#    x 1.859970 0.000000 0.000000 
#    y 0.000000 1.865590 0.000000 
#    z 0.000000 0.000000 1.841980 
# 
# From -- ./inp_files/16388.got.cif
#   From: 2010.03.12/outbox.cif.g09.slc.cpg/sg57_9_cif.got.tgz:16388.got - 2010.04.16 15:48:40.
