data_PCOD8234799
_publ_section_title
;
Structure prediction by ZEFSAII (Michael W. Deem and Ramdas Pophale) SiO2 
 PCOD8234799
Probable space group: P B C M
;
_chemical_formula_sum "Si O2"
_cell_formula_units_Z 32
_cell_length_a 5.062512
_cell_length_b 10.523696
_cell_length_c 24.989930
_cell_angle_alpha 90.000000
_cell_angle_beta 90.000000
_cell_angle_gamma 90.000000
_cell_volume 1331.371939
_symmetry_space_group_name_H-M "P B C M"
_symmetry_group_IT_number 57
_symmetry_cell_setting 'orthorhombic'
loop_
_space_group_symop_operation_xyz
x,y,z
-x,-y,1/2+z
x,1/2-y,-z
-x,1/2+y,1/2-z
-x,-y,-z
x,y,1/2-z
-x,1/2+y,z
x,1/2-y,1/2+z
loop_
_atom_site_type_symbol
_atom_site_label
_atom_site_fract_x
_atom_site_fract_y
_atom_site_fract_z
Si Si1 0.360092 0.988321 0.310073
Si Si2 0.742511 0.216792 0.190332
Si Si3 0.430412 0.624159 0.033981
Si Si4 0.931411 0.620814 0.394900
O O1 0.252229 0.016956 0.250000
O O2 0.591409 0.086710 0.323947
O O3 0.132245 0.003935 0.354695
O O4 0.449154 0.840441 0.313743
O O5 0.865048 0.209425 0.250000
O O6 0.973517 0.232303 0.145936
O O7 0.165190 0.584297 0.064820
O O8 0.670403 0.662281 0.073011
O O9 0.366724 0.750000 0.000000
O O10 0.500000 0.500000 0.000000
#
# Coordination Sequence:
#
# PCOD8234799 Si02
#       4
#     8   8   8   8
#     4  10  23  44  74 114 153 191 241 296 365 450
#     4  10  23  44  74 114 153 193 241 296 366 450
#     4  12  30  50  73 106 141 189 250 314 361 426
#     4  12  25  46  78 102 148 187 245 292 376 425
#
# _framework density 24.035357999999999
#
# number of rings (size 3 to 8) (size 9 to 14) (size 15 to 20)
#    0.000    1.000    2.500    2.250    7.000    2.000 
#    0.000    5.000    0.000    0.000    0.000    0.000 
#    0.000    0.000    0.000    0.000    0.000    0.000 
#
# Total GULP energy -396424.099480 kJ/mol
# GULP energy per Si atom -12388.253109 kJ/mol
# Density = 2.398065 g / cm^3
# Si number density = 24.035358 Si / 1000 Ang^3
#
#
#
# Elastic Constant Matrix: (Units=GPa)
#
#
# Indices 1 2 3 4 5 6 
#
# 1 102.4384 3.4645 42.9781 0.0000 0.0000 0.0000
# 2 3.4645 101.1949 18.4004 0.0000 0.0000 0.0000
# 3 42.9781 18.4004 140.2035 0.0000 0.0000 0.0000
# 4 0.0000 0.0000 0.0000 -35.5763 0.0000 0.0000
# 5 0.0000 0.0000 0.0000 0.0000 39.4063 0.0000
# 6 0.0000 0.0000 0.0000 0.0000 0.0000 29.8250
#
#
#
# Elastic Compliance Matrix: (Units=1/GPa)
#
#
# Indices 1 2 3 4 5 6 
#
# 1 0.011209 0.000247 -0.003468 0.000000 0.000000 0.000000
# 2 0.000247 0.010129 -0.001405 0.000000 0.000000 0.000000
# 3 -0.003468 -0.001405 0.008380 0.000000 0.000000 0.000000
# 4 0.000000 0.000000 0.000000 -0.028109 0.000000 0.000000
# 5 0.000000 0.000000 0.000000 0.000000 0.025377 0.000000
# 6 0.000000 0.000000 0.000000 0.000000 0.000000 0.033529
#
#
# Mechanical properties :
#
#
# Convention : Reuss Voigt Hill
#
# Bulk Modulus (GPa) = 48.86421 52.61364 50.73892
# Shear Modulus (GPa) = 65.28329 25.33059 45.30694
#
# Velocity S-wave (km/s) = 5.21731 3.24989 4.34638
# Velocity P-wave (km/s) = 7.52782 6.00166 6.80764
#
# Compressibility (1/GPa) = 0.02046488
#
# Stress axis : x y z
#
# Youngs Moduli (GPa) = 89.21587 98.72698 119.33062
#
# Poissons Ratio (x) = -0.02438 0.41388
# Poissons Ratio (y) = -0.02203 0.16766
# Poissons Ratio (z) = 0.30943 0.13871
#
# Static dielectric constant tensor:
#      x y z
#    x 4.169330 0.000000 0.000000 
#    y 0.000000 4.271360 0.000000 
#    z 0.000000 0.000000 4.879180 
# 
# 
# High freq. dielectric constant tensor:
#      x y z
#    x 1.935830 0.000000 0.000000 
#    y 0.000000 1.945040 0.000000 
#    z 0.000000 0.000000 1.983330 
# 
# From -- ./inp_files/23344.got.cif
#   From: 2010.03.12/outbox.cif.g09.slc.cpg/sg57_12_cif.got.tgz:23344.got - 2010.04.16 15:48:40.
