data_PCOD8234783
_publ_section_title
;
Structure prediction by ZEFSAII (Michael W. Deem and Ramdas Pophale) SiO2 
 PCOD8234783
Probable space group: P B C M
;
_chemical_formula_sum "Si O2"
_cell_formula_units_Z 40
_cell_length_a 14.619601
_cell_length_b 8.472128
_cell_length_c 15.028049
_cell_angle_alpha 90.000000
_cell_angle_beta 90.000000
_cell_angle_gamma 90.000000
_cell_volume 1861.361089
_symmetry_space_group_name_H-M "P B C M"
_symmetry_group_IT_number 57
_symmetry_cell_setting 'orthorhombic'
loop_
_space_group_symop_operation_xyz
x,y,z
-x,-y,1/2+z
x,1/2-y,-z
-x,1/2+y,1/2-z
-x,-y,-z
x,y,1/2-z
-x,1/2+y,z
x,1/2-y,1/2+z
loop_
_atom_site_type_symbol
_atom_site_label
_atom_site_fract_x
_atom_site_fract_y
_atom_site_fract_z
Si Si1 0.911796 0.853716 0.088261
Si Si2 0.923160 0.532088 0.152338
Si Si3 0.271293 0.914742 0.147028
Si Si4 0.734851 0.456546 0.852959
Si Si5 0.398265 0.436963 0.499276
O O1 0.928629 0.721423 0.163261
O O2 0.000798 0.965964 0.084564
O O3 0.825174 0.962458 0.108195
O O4 0.897053 0.750000 0.000000
O O5 0.938121 0.457223 0.250000
O O6 0.823761 0.489247 0.114221
O O7 0.293304 0.957004 0.250000
O O8 0.259325 0.729532 0.133644
O O9 0.349276 0.988319 0.085327
O O10 0.722449 0.503135 0.750000
O O11 0.646967 0.513269 0.906601
O O12 0.396616 0.250000 0.500000
O O13 0.500000 0.500000 0.500000
#
# Coordination Sequence:
#
# PCOD8234783 Si02
#       5
#     8   8   8   8   8
#     4  12  24  38  60  93 131 174 224 273 328 391
#     4  11  22  38  59  87 125 171 217 266 322 388
#     4  10  23  43  68  96 131 172 217 268 328 394
#     4  11  23  42  67  96 130 171 216 269 330 396
#     4  12  26  45  69  96 128 166 212 270 330 393
#
# _framework density 21.489649
#
# number of rings (size 3 to 8) (size 9 to 14) (size 15 to 20)
#    0.000    0.800    0.000    8.400    0.000    6.400 
#    0.000    0.000    0.000    0.000    0.000    0.000 
#    0.000    0.000    0.000    0.000    0.000    0.000 
#
# Total GULP energy -496000.936875 kJ/mol
# GULP energy per Si atom -12400.023422 kJ/mol
# Density = 2.144074 g / cm^3
# Si number density = 21.489649 Si / 1000 Ang^3
#
#
#
# Elastic Constant Matrix: (Units=GPa)
#
#
# Indices 1 2 3 4 5 6 
#
# 1 190.2891 67.1211 79.9721 0.0000 0.0000 0.0000
# 2 67.1211 137.3864 49.2145 0.0000 0.0000 0.0000
# 3 79.9721 49.2145 142.1079 0.0000 0.0000 0.0000
# 4 0.0000 0.0000 0.0000 35.4003 0.0000 0.0000
# 5 0.0000 0.0000 0.0000 0.0000 32.6422 0.0000
# 6 0.0000 0.0000 0.0000 0.0000 0.0000 56.9558
#
#
#
# Elastic Compliance Matrix: (Units=1/GPa)
#
#
# Indices 1 2 3 4 5 6 
#
# 1 0.007555 -0.002475 -0.003394 0.000000 0.000000 0.000000
# 2 -0.002475 0.009120 -0.001766 0.000000 0.000000 0.000000
# 3 -0.003394 -0.001766 0.009559 0.000000 0.000000 0.000000
# 4 0.000000 0.000000 0.000000 0.028248 0.000000 0.000000
# 5 0.000000 0.000000 0.000000 0.000000 0.030635 0.000000
# 6 0.000000 0.000000 0.000000 0.000000 0.000000 0.017557
#
#
# Mechanical properties :
#
#
# Convention : Reuss Voigt Hill
#
# Bulk Modulus (GPa) = 91.21089 95.82208 93.51648
# Shear Modulus (GPa) = 41.11864 43.23138 42.17501
#
# Velocity S-wave (km/s) = 4.37901 4.49010 4.43490
# Velocity P-wave (km/s) = 8.25251 8.45979 8.35679
#
# Compressibility (1/GPa) = 0.01096360
#
# Stress axis : x y z
#
# Youngs Moduli (GPa) = 132.36821 109.64380 104.61800
#
# Poissons Ratio (x) = 0.27137 0.35511
# Poissons Ratio (y) = 0.32761 0.18473
# Poissons Ratio (z) = 0.44930 0.19360
#
# Static dielectric constant tensor:
#      x y z
#    x 3.826360 0.000000 0.000000 
#    y 0.000000 4.328760 0.000000 
#    z 0.000000 0.000000 4.012050 
# 
# 
# High freq. dielectric constant tensor:
#      x y z
#    x 1.840490 0.000000 0.000000 
#    y 0.000000 1.867310 0.000000 
#    z 0.000000 0.000000 1.862180 
# 
# From -- ./inp_files/18197.got.cif
#   From: 2010.03.12/outbox.cif.g09.slc.cpg/sg57_10_cif.got.tgz:18197.got - 2010.04.16 15:48:40.
