data_PCOD8234975
_publ_section_title
;
Structure prediction by ZEFSAII (Michael W. Deem and Ramdas Pophale) SiO2 
 PCOD8234975
Probable space group: P B C M
;
_chemical_formula_sum "Si O2"
_cell_formula_units_Z 48
_cell_length_a 14.878486
_cell_length_b 19.206184
_cell_length_c 8.847223
_cell_angle_alpha 90.000000
_cell_angle_beta 90.000000
_cell_angle_gamma 90.000000
_cell_volume 2528.173064
_symmetry_space_group_name_H-M "P B C M"
_symmetry_group_IT_number 57
_symmetry_cell_setting 'orthorhombic'
loop_
_space_group_symop_operation_xyz
x,y,z
-x,-y,1/2+z
x,1/2-y,-z
-x,1/2+y,1/2-z
-x,-y,-z
x,y,1/2-z
-x,1/2+y,z
x,1/2-y,1/2+z
loop_
_atom_site_type_symbol
_atom_site_label
_atom_site_fract_x
_atom_site_fract_y
_atom_site_fract_z
Si Si1 0.542497 0.567188 0.075978
Si Si2 0.867950 0.678144 0.571643
Si Si3 0.612966 0.176355 0.074785
Si Si4 0.766184 0.414069 0.427868
Si Si5 0.729388 0.561741 0.929117
Si Si6 0.070264 0.820831 0.426398
O O1 0.560598 0.549178 0.250000
O O2 0.477332 0.632257 0.056672
O O3 0.500000 0.500000 0.000000
O O4 0.635341 0.587152 0.996427
O O5 0.833224 0.750000 0.500000
O O6 0.862848 0.686133 0.750000
O O7 0.805017 0.615661 0.515211
O O8 0.969569 0.661476 0.516503
O O9 0.640005 0.184616 0.250000
O O10 0.592984 0.250000 0.000000
O O11 0.693136 0.140220 0.985448
O O12 0.753424 0.425442 0.250000
O O13 0.756053 0.486209 0.512984
O O14 0.864691 0.384530 0.468759
O O15 0.721013 0.558811 0.750000
O O16 0.106885 0.750000 0.500000
O O17 0.070711 0.806921 0.250000
#
# Coordination Sequence:
#
# PCOD8234975 Si02
#       6
#     8   8   8   8   8   8
#     4  11  23  40  62  85 114 153 194 237 288 346
#     4   9  20  39  60  83 115 152 194 243 291 344
#     4  11  24  40  60  87 118 152 192 238 290 347
#     4  11  22  36  58  86 118 154 194 241 290 348
#     4  11  23  38  59  86 117 154 193 239 293 348
#     4   9  19  36  57  83 114 152 194 238 291 344
#
# _framework density 18.986042999999999
#
# number of rings (size 3 to 8) (size 9 to 14) (size 15 to 20)
#    0.000    1.667    1.667    2.500    0.000    7.333 
#    0.000    3.333    0.000    0.000    0.000    0.000 
#    0.000    0.000    0.000    0.000    0.000    0.000 
#
# Total GULP energy -595387.142929 kJ/mol
# GULP energy per Si atom -12403.898811 kJ/mol
# Density = 1.894283 g / cm^3
# Si number density = 18.986043 Si / 1000 Ang^3
#
#
#
# Elastic Constant Matrix: (Units=GPa)
#
#
# Indices 1 2 3 4 5 6 
#
# 1 118.2399 57.6756 47.0646 0.0000 0.0000 0.0000
# 2 57.6756 118.3266 42.1480 0.0000 0.0000 0.0000
# 3 47.0646 42.1480 76.2927 0.0000 0.0000 0.0000
# 4 0.0000 0.0000 0.0000 34.8027 0.0000 0.0000
# 5 0.0000 0.0000 0.0000 0.0000 30.0785 0.0000
# 6 0.0000 0.0000 0.0000 0.0000 0.0000 -1.5592
#
#
#
# Elastic Compliance Matrix: (Units=1/GPa)
#
#
# Indices 1 2 3 4 5 6 
#
# 1 0.012715 -0.004237 -0.005503 0.000000 0.000000 0.000000
# 2 -0.004237 0.011934 -0.003979 0.000000 0.000000 0.000000
# 3 -0.005503 -0.003979 0.018700 0.000000 0.000000 0.000000
# 4 0.000000 0.000000 0.000000 0.028733 0.000000 0.000000
# 5 0.000000 0.000000 0.000000 0.000000 0.033246 0.000000
# 6 0.000000 0.000000 0.000000 0.000000 0.000000 -0.641367
#
#
# Mechanical properties :
#
#
# Convention : Reuss Voigt Hill
#
# Bulk Modulus (GPa) = 62.85036 67.40394 65.12715
# Shear Modulus (GPa) = -9.93448 23.72913 6.89732
#
# Velocity S-wave (km/s) = -2.28995 3.53911 1.90807
# Velocity P-wave (km/s) = 5.11698 7.23045 6.26350
#
# Compressibility (1/GPa) = 0.01591081
#
# Stress axis : x y z
#
# Youngs Moduli (GPa) = 78.64974 83.79501 53.47578
#
# Poissons Ratio (x) = 0.35507 0.29426
# Poissons Ratio (y) = 0.33327 0.21277
# Poissons Ratio (z) = 0.43278 0.33341
#
# Static dielectric constant tensor:
#      x y z
#    x 3.781850 0.000000 0.000000 
#    y 0.000000 3.533260 0.000000 
#    z 0.000000 0.000000 3.608760 
# 
# 
# High freq. dielectric constant tensor:
#      x y z
#    x 1.749460 0.000000 0.000000 
#    y 0.000000 1.741290 0.000000 
#    z 0.000000 0.000000 1.747620 
# 
# From -- ./inp_files/4599.got.cif
#   From: 2010.03.12/outbox.cif.g09.slc.cpg/sg57_3_cif.got.tgz:4599.got - 2010.04.16 15:48:40.
