data_PCOD8234537
_publ_section_title
;
Structure prediction by ZEFSAII (Michael W. Deem and Ramdas Pophale) SiO2 
 PCOD8234537
Probable space group: P B C M
;
_chemical_formula_sum "Si O2"
_cell_formula_units_Z 48
_cell_length_a 9.744083
_cell_length_b 13.693854
_cell_length_c 17.084813
_cell_angle_alpha 90.000000
_cell_angle_beta 90.000000
_cell_angle_gamma 90.000000
_cell_volume 2279.695791
_symmetry_space_group_name_H-M "P B C M"
_symmetry_group_IT_number 57
_symmetry_cell_setting 'orthorhombic'
loop_
_space_group_symop_operation_xyz
x,y,z
-x,-y,1/2+z
x,1/2-y,-z
-x,1/2+y,1/2-z
-x,-y,-z
x,y,1/2-z
-x,1/2+y,z
x,1/2-y,1/2+z
loop_
_atom_site_type_symbol
_atom_site_label
_atom_site_fract_x
_atom_site_fract_y
_atom_site_fract_z
Si Si1 0.748801 0.435147 0.896905
Si Si2 0.659008 0.417444 0.425744
Si Si3 0.883433 0.265400 0.408232
Si Si4 0.136333 0.126004 0.839103
Si Si5 0.462278 0.082673 0.162008
Si Si6 0.562114 0.697448 0.660606
O O1 0.828358 0.336258 0.871592
O O2 0.855465 0.525330 0.889502
O O3 0.618847 0.458543 0.841104
O O4 0.681964 0.423870 0.982255
O O5 0.778073 0.352309 0.387367
O O6 0.650506 0.526251 0.390488
O O7 0.513227 0.370187 0.402624
O O8 0.902602 0.250000 0.500000
O O9 0.026514 0.297716 0.371894
O O10 0.100250 0.098134 0.750000
O O11 0.276820 0.183982 0.845691
O O12 0.407834 0.074367 0.250000
O O13 0.470421 0.193288 0.133312
O O14 0.510581 0.676921 0.750000
#
# Coordination Sequence:
#
# PCOD8234537 Si02
#       6
#     8   8   8   8   8   8
#     4  11  23  42  66  95 130 173 220 273 336 395
#     4  11  22  41  66  95 130 168 226 272 329 395
#     4  10  25  45  65  94 131 176 223 273 328 401
#     4  11  25  43  64  96 135 173 217 273 335 394
#     4  11  22  37  63  97 130 168 215 275 330 391
#     4  10  22  39  62  96 132 167 220 277 326 392
#
# _framework density 21.055440999999998
#
# number of rings (size 3 to 8) (size 9 to 14) (size 15 to 20)
#    0.000    1.333    3.333    1.500    0.000    8.000 
#    0.000    1.667    0.000    0.000    0.000    0.000 
#    0.000    0.000    0.000    0.000    0.000    0.000 
#
# Total GULP energy -595228.331379 kJ/mol
# GULP energy per Si atom -12400.590237 kJ/mol
# Density = 2.100752 g / cm^3
# Si number density = 21.055441 Si / 1000 Ang^3
#
#
#
# Elastic Constant Matrix: (Units=GPa)
#
#
# Indices 1 2 3 4 5 6 
#
# 1 97.1262 35.7290 43.4620 0.0000 0.0000 0.0000
# 2 35.7290 104.0397 44.4821 0.0000 0.0000 0.0000
# 3 43.4620 44.4821 80.1290 0.0000 0.0000 0.0000
# 4 0.0000 0.0000 0.0000 32.3482 0.0000 0.0000
# 5 0.0000 0.0000 0.0000 0.0000 29.4149 0.0000
# 6 0.0000 0.0000 0.0000 0.0000 0.0000 48.7997
#
#
#
# Elastic Compliance Matrix: (Units=1/GPa)
#
#
# Indices 1 2 3 4 5 6 
#
# 1 0.013917 -0.002035 -0.006419 0.000000 0.000000 0.000000
# 2 -0.002035 0.012901 -0.006058 0.000000 0.000000 0.000000
# 3 -0.006419 -0.006058 0.019324 0.000000 0.000000 0.000000
# 4 0.000000 0.000000 0.000000 0.030914 0.000000 0.000000
# 5 0.000000 0.000000 0.000000 0.000000 0.033996 0.000000
# 6 0.000000 0.000000 0.000000 0.000000 0.000000 0.020492
#
#
# Mechanical properties :
#
#
# Convention : Reuss Voigt Hill
#
# Bulk Modulus (GPa) = 58.41586 58.73789 58.57687
# Shear Modulus (GPa) = 30.07110 32.62069 31.34589
#
# Velocity S-wave (km/s) = 3.78324 3.94035 3.86259
# Velocity P-wave (km/s) = 6.84747 6.97561 6.91184
#
# Compressibility (1/GPa) = 0.01711864
#
# Stress axis : x y z
#
# Youngs Moduli (GPa) = 71.85590 77.51631 51.74830
#
# Poissons Ratio (x) = 0.15774 0.33216
# Poissons Ratio (y) = 0.14622 0.31348
# Poissons Ratio (z) = 0.46123 0.46957
#
# Static dielectric constant tensor:
#      x y z
#    x 3.690300 0.000000 0.000000 
#    y 0.000000 4.103810 0.000000 
#    z 0.000000 0.000000 3.721330 
# 
# 
# High freq. dielectric constant tensor:
#      x y z
#    x 1.813190 0.000000 0.000000 
#    y 0.000000 1.844710 0.000000 
#    z 0.000000 0.000000 1.817890 
# 
# From -- ./inp_files/20978.got.cif
#   From: 2010.03.12/outbox.cif.g09.slc.cpg/sg57_11_cif.got.tgz:20978.got - 2010.04.16 15:48:40.
