data_PCOD8234057
_publ_section_title
;
Structure prediction by ZEFSAII (Michael W. Deem and Ramdas Pophale) SiO2 
 PCOD8234057
Probable space group: P B C M
;
_chemical_formula_sum "Si O2"
_cell_formula_units_Z 40
_cell_length_a 25.597194
_cell_length_b 9.093802
_cell_length_c 8.684311
_cell_angle_alpha 90.000000
_cell_angle_beta 90.000000
_cell_angle_gamma 90.000000
_cell_volume 2021.497562
_symmetry_space_group_name_H-M "P B C M"
_symmetry_group_IT_number 57
_symmetry_cell_setting 'orthorhombic'
loop_
_space_group_symop_operation_xyz
x,y,z
-x,-y,1/2+z
x,1/2-y,-z
-x,1/2+y,1/2-z
-x,-y,-z
x,y,1/2-z
-x,1/2+y,z
x,1/2-y,1/2+z
loop_
_atom_site_type_symbol
_atom_site_label
_atom_site_fract_x
_atom_site_fract_y
_atom_site_fract_z
Si Si1 0.149748 0.909454 0.931125
Si Si2 0.654617 0.091650 0.930485
Si Si3 0.452466 0.910770 0.932661
Si Si4 0.243095 0.410595 0.929555
Si Si5 0.952344 0.910900 0.431341
O O1 0.155502 0.894512 0.750000
O O2 0.101192 0.010403 0.979042
O O3 0.140122 0.750000 0.000000
O O4 0.202114 0.979110 0.996510
O O5 0.644244 0.112998 0.750000
O O6 0.699884 0.975127 0.964268
O O7 0.669879 0.250000 0.000000
O O8 0.602963 0.023894 0.010701
O O9 0.455024 0.910509 0.750000
O O10 0.457389 0.750000 0.000000
O O11 0.500000 0.000000 0.000000
O O12 0.231393 0.399609 0.750000
O O13 0.237924 0.250000 0.000000
O O14 0.951431 0.750000 0.500000
O O15 0.959359 0.901211 0.250000
O O16 0.000000 0.000000 0.500000
#
# Coordination Sequence:
#
# PCOD8234057 Si02
#       5
#     8   8   8   8   8
#     4  11  24  41  63  90 121 157 199 244 294 351
#     4  10  21  38  59  85 115 151 195 241 291 349
#     4  11  22  38  60  86 117 154 195 241 292 348
#     4  11  24  40  61  88 120 156 196 243 295 349
#     4  11  24  41  63  91 123 160 200 247 297 351
#
# _framework density 19.787310999999999
#
# number of rings (size 3 to 8) (size 9 to 14) (size 15 to 20)
#    0.000    1.200    0.000    7.200    0.000   12.000 
#    0.000    2.000    0.000    0.000    0.000    0.000 
#    0.000    0.000    0.000    0.000    0.000    0.000 
#
# Total GULP energy -496194.075256 kJ/mol
# GULP energy per Si atom -12404.851881 kJ/mol
# Density = 1.974227 g / cm^3
# Si number density = 19.787311 Si / 1000 Ang^3
#
#
#
# Elastic Constant Matrix: (Units=GPa)
#
#
# Indices 1 2 3 4 5 6 
#
# 1 141.5287 70.8009 80.3060 0.0000 0.0000 0.0000
# 2 70.8009 136.0385 63.0053 0.0000 0.0000 0.0000
# 3 80.3060 63.0053 131.9296 0.0000 0.0000 0.0000
# 4 0.0000 0.0000 0.0000 40.2675 0.0000 0.0000
# 5 0.0000 0.0000 0.0000 0.0000 36.7405 0.0000
# 6 0.0000 0.0000 0.0000 0.0000 0.0000 -34.3555
#
#
#
# Elastic Compliance Matrix: (Units=1/GPa)
#
#
# Indices 1 2 3 4 5 6 
#
# 1 0.012091 -0.003703 -0.005591 0.000000 0.000000 0.000000
# 2 -0.003703 0.010573 -0.002795 0.000000 0.000000 0.000000
# 3 -0.005591 -0.002795 0.012318 0.000000 0.000000 0.000000
# 4 0.000000 0.000000 0.000000 0.024834 0.000000 0.000000
# 5 0.000000 0.000000 0.000000 0.000000 0.027218 0.000000
# 6 0.000000 0.000000 0.000000 0.000000 0.000000 -0.029107
#
#
# Mechanical properties :
#
#
# Convention : Reuss Voigt Hill
#
# Bulk Modulus (GPa) = 92.56950 93.08013 92.82482
# Shear Modulus (GPa) = 58.33929 21.55612 39.94770
#
# Velocity S-wave (km/s) = 5.43573 3.30417 4.49804
# Velocity P-wave (km/s) = 9.28871 7.85488 8.60172
#
# Compressibility (1/GPa) = 0.01080269
#
# Stress axis : x y z
#
# Youngs Moduli (GPa) = 82.70782 94.58381 81.18177
#
# Poissons Ratio (x) = 0.35025 0.45391
# Poissons Ratio (y) = 0.30627 0.22691
# Poissons Ratio (z) = 0.46244 0.26437
#
# Static dielectric constant tensor:
#      x y z
#    x 3.566000 0.000000 0.000000 
#    y 0.000000 3.683540 0.000000 
#    z 0.000000 0.000000 3.857280 
# 
# 
# High freq. dielectric constant tensor:
#      x y z
#    x 1.792460 0.000000 0.000000 
#    y 0.000000 1.778110 0.000000 
#    z 0.000000 0.000000 1.793160 
# 
# From -- ./inp_files/8896.got.cif
#   From: 2010.03.12/outbox.cif.g09.slc.cpg/sg57_5_cif.got.tgz:8896.got - 2010.04.16 15:48:40.
