data_PCOD8234704
_publ_section_title
;
Structure prediction by ZEFSAII (Michael W. Deem and Ramdas Pophale) SiO2 
 PCOD8234704
Probable space group: P B C M
;
_chemical_formula_sum "Si O2"
_cell_formula_units_Z 64
_cell_length_a 18.855439
_cell_length_b 11.645098
_cell_length_c 14.298038
_cell_angle_alpha 90.000000
_cell_angle_beta 90.000000
_cell_angle_gamma 90.000000
_cell_volume 3139.469317
_symmetry_space_group_name_H-M "P B C M"
_symmetry_group_IT_number 57
_symmetry_cell_setting 'orthorhombic'
loop_
_space_group_symop_operation_xyz
x,y,z
-x,-y,1/2+z
x,1/2-y,-z
-x,1/2+y,1/2-z
-x,-y,-z
x,y,1/2-z
-x,1/2+y,z
x,1/2-y,1/2+z
loop_
_atom_site_type_symbol
_atom_site_label
_atom_site_fract_x
_atom_site_fract_y
_atom_site_fract_z
Si Si1 0.385404 0.415461 0.032671
Si Si2 0.031778 0.959393 0.858227
Si Si3 0.760303 0.980673 0.998192
Si Si4 0.173406 0.852416 0.644883
Si Si5 0.440778 0.204694 0.354310
Si Si6 0.590535 0.321228 0.911434
Si Si7 0.278450 0.666521 0.644555
Si Si8 0.091000 0.382883 0.514236
O O1 0.420072 0.330922 0.108227
O O2 0.398867 0.546004 0.062921
O O3 0.300202 0.392339 0.032625
O O4 0.414992 0.392034 0.927950
O O5 0.022855 0.996180 0.750000
O O6 0.088233 0.854643 0.869738
O O7 0.956244 0.922765 0.898375
O O8 0.064230 0.064666 0.916510
O O9 0.717979 0.057266 0.921962
O O10 0.828423 0.914567 0.957663
O O11 0.785577 0.057324 0.082973
O O12 0.193090 0.888368 0.750000
O O13 0.201425 0.724218 0.624377
O O14 0.407743 0.186669 0.250000
O O15 0.525612 0.192650 0.339874
O O16 0.662560 0.264040 0.873412
O O17 0.563996 0.250000 0.000000
O O18 0.285059 0.621840 0.750000
O O19 0.084085 0.250000 0.500000
#
# Coordination Sequence:
#
# PCOD8234704 Si02
#       8
#     8   8   8   8   8   8   8   8
#     4  11  24  44  69  91 128 175 216 264 330 389
#     4   9  20  40  63  92 126 160 207 263 312 372
#     4  11  22  39  62  85 129 167 210 263 311 378
#     4   9  18  35  61  91 121 160 206 253 311 369
#     4  11  27  44  64  96 130 171 218 269 324 392
#     4  12  21  43  68  94 126 166 210 272 331 389
#     4  11  22  36  61  98 128 162 209 263 325 378
#     4  10  23  39  63  93 124 172 215 254 320 384
#
# _framework density 20.38561
#
# number of rings (size 3 to 8) (size 9 to 14) (size 15 to 20)
#    0.000    1.500    3.750    1.125    1.750    6.000 
#    0.000    1.250    0.000    0.000    0.000    0.000 
#    0.000    0.000    0.000    0.000    0.000    0.000 
#
# Total GULP energy -793345.779663 kJ/mol
# GULP energy per Si atom -12396.027807 kJ/mol
# Density = 2.033921 g / cm^3
# Si number density = 20.385610 Si / 1000 Ang^3
#
#
#
# Elastic Constant Matrix: (Units=GPa)
#
#
# Indices 1 2 3 4 5 6 
#
# 1 136.3059 41.2682 40.3454 0.0000 0.0000 0.0000
# 2 41.2682 93.8993 26.5686 0.0000 0.0000 0.0000
# 3 40.3454 26.5686 109.9687 0.0000 0.0000 0.0000
# 4 0.0000 0.0000 0.0000 3.0612 0.0000 0.0000
# 5 0.0000 0.0000 0.0000 0.0000 24.2926 0.0000
# 6 0.0000 0.0000 0.0000 0.0000 0.0000 26.6972
#
#
#
# Elastic Compliance Matrix: (Units=1/GPa)
#
#
# Indices 1 2 3 4 5 6 
#
# 1 0.009079 -0.003271 -0.002541 0.000000 0.000000 0.000000
# 2 -0.003271 0.012610 -0.001846 0.000000 0.000000 0.000000
# 3 -0.002541 -0.001846 0.010472 0.000000 0.000000 0.000000
# 4 0.000000 0.000000 0.000000 0.326666 0.000000 0.000000
# 5 0.000000 0.000000 0.000000 0.000000 0.041165 0.000000
# 6 0.000000 0.000000 0.000000 0.000000 0.000000 0.037457
#
#
# Mechanical properties :
#
#
# Convention : Reuss Voigt Hill
#
# Bulk Modulus (GPa) = 59.36833 61.83760 60.60297
# Shear Modulus (GPa) = 10.90801 26.27632 18.59217
#
# Velocity S-wave (km/s) = 2.31570 3.59411 3.02325
# Velocity P-wave (km/s) = 6.02792 6.90096 6.47916
#
# Compressibility (1/GPa) = 0.01684400
#
# Stress axis : x y z
#
# Youngs Moduli (GPa) = 110.14647 79.30316 95.49593
#
# Poissons Ratio (x) = 0.25942 0.24261
# Poissons Ratio (y) = 0.36032 0.17632
# Poissons Ratio (z) = 0.27983 0.14642
#
# Static dielectric constant tensor:
#      x y z
#    x 4.106960 0.000000 0.000000 
#    y 0.000000 3.511850 0.000000 
#    z 0.000000 0.000000 3.717650 
# 
# 
# High freq. dielectric constant tensor:
#      x y z
#    x 1.812210 0.000000 0.000000 
#    y 0.000000 1.781010 0.000000 
#    z 0.000000 0.000000 1.798270 
# 
# From -- ./inp_files/19096.got.cif
#   From: 2010.03.12/outbox.cif.g09.slc.cpg/sg57_10_cif.got.tgz:19096.got - 2010.04.16 15:48:40.
