data_PCOD8234765
_publ_section_title
;
Structure prediction by ZEFSAII (Michael W. Deem and Ramdas Pophale) SiO2 
 PCOD8234765
Probable space group: P B C M
;
_chemical_formula_sum "Si O2"
_cell_formula_units_Z 40
_cell_length_a 9.039687
_cell_length_b 14.632546
_cell_length_c 14.376568
_cell_angle_alpha 90.000000
_cell_angle_beta 90.000000
_cell_angle_gamma 90.000000
_cell_volume 1901.640920
_symmetry_space_group_name_H-M "P B C M"
_symmetry_group_IT_number 57
_symmetry_cell_setting 'orthorhombic'
loop_
_space_group_symop_operation_xyz
x,y,z
-x,-y,1/2+z
x,1/2-y,-z
-x,1/2+y,1/2-z
-x,-y,-z
x,y,1/2-z
-x,1/2+y,z
x,1/2-y,1/2+z
loop_
_atom_site_type_symbol
_atom_site_label
_atom_site_fract_x
_atom_site_fract_y
_atom_site_fract_z
Si Si1 0.359831 0.334104 0.432207
Si Si2 0.103370 0.570375 0.250000
Si Si3 0.158087 0.500938 0.451780
Si Si4 0.724279 0.258390 0.250000
Si Si5 0.240535 0.045934 0.250000
Si Si6 0.316438 0.900286 0.399681
Si Si7 0.375071 0.238649 0.250000
O O1 0.391863 0.250000 0.500000
O O2 0.237726 0.403902 0.471732
O O3 0.509192 0.389868 0.412824
O O4 0.302545 0.290227 0.336889
O O5 0.155161 0.515710 0.341170
O O6 0.172570 0.670815 0.250000
O O7 0.928049 0.578274 0.250000
O O8 0.245849 0.585985 0.498313
O O9 0.000000 0.500000 0.500000
O O10 0.758559 0.316122 0.156021
O O11 0.551651 0.238363 0.250000
O O12 0.341279 0.133376 0.250000
O O13 0.282314 0.991625 0.342484
#
# Coordination Sequence:
#
# PCOD8234765 Si02
#       7
#     8   4   8   4   4   8   4
#     4  11  25  44  70 102 131 176 228 283 338 399
#     4  12  27  42  66 100 137 181 225 265 352 400
#     4  12  26  45  68  99 138 181 222 277 343 419
#     4   9  24  42  68 100 133 179 224 284 335 400
#     4  11  22  44  68  98 136 180 221 277 336 407
#     4  10  23  45  68  97 134 176 228 278 337 397
#     4  10  23  42  68  98 136 170 228 282 335 393
#
# _framework density 21.034464
#
# number of rings (size 3 to 8) (size 9 to 14) (size 15 to 20)
#    0.000    1.200    2.000    3.000    8.400    1.600 
#    0.000    0.000    0.000    0.000    0.000    0.000 
#    0.000    0.000    0.000    0.000    0.000    0.000 
#
# Total GULP energy -496056.855170 kJ/mol
# GULP energy per Si atom -12401.421379 kJ/mol
# Density = 2.098659 g / cm^3
# Si number density = 21.034464 Si / 1000 Ang^3
#
#
#
# Elastic Constant Matrix: (Units=GPa)
#
#
# Indices 1 2 3 4 5 6 
#
# 1 89.2064 59.6343 30.6561 0.0000 0.0000 0.0000
# 2 59.6343 125.3264 34.3020 0.0000 0.0000 0.0000
# 3 30.6561 34.3020 127.3139 0.0000 0.0000 0.0000
# 4 0.0000 0.0000 0.0000 175.0262 0.0000 0.0000
# 5 0.0000 0.0000 0.0000 0.0000 39.6576 0.0000
# 6 0.0000 0.0000 0.0000 0.0000 0.0000 28.8635
#
#
#
# Elastic Compliance Matrix: (Units=1/GPa)
#
#
# Indices 1 2 3 4 5 6 
#
# 1 0.016924 -0.007490 -0.002057 0.000000 0.000000 0.000000
# 2 -0.007490 0.011929 -0.001411 0.000000 0.000000 0.000000
# 3 -0.002057 -0.001411 0.008730 0.000000 0.000000 0.000000
# 4 0.000000 0.000000 0.000000 0.005713 0.000000 0.000000
# 5 0.000000 0.000000 0.000000 0.000000 0.025216 0.000000
# 6 0.000000 0.000000 0.000000 0.000000 0.000000 0.034646
#
#
# Mechanical properties :
#
#
# Convention : Reuss Voigt Hill
#
# Bulk Modulus (GPa) = 63.82488 65.67018 64.74753
# Shear Modulus (GPa) = 38.37419 63.19308 50.78364
#
# Velocity S-wave (km/s) = 4.27587 5.48706 4.91889
# Velocity P-wave (km/s) = 7.40178 8.45174 7.94412
#
# Compressibility (1/GPa) = 0.01566787
#
# Stress axis : x y z
#
# Youngs Moduli (GPa) = 59.08818 83.82823 114.54767
#
# Poissons Ratio (x) = 0.62786 0.23564
# Poissons Ratio (y) = 0.44256 0.16158
# Poissons Ratio (z) = 0.12155 0.11824
#
# Static dielectric constant tensor:
#      x y z
#    x 3.670610 0.000000 0.000000 
#    y 0.000000 3.804110 0.000000 
#    z 0.000000 0.000000 4.241040 
# 
# 
# High freq. dielectric constant tensor:
#      x y z
#    x 1.818450 0.000000 0.000000 
#    y 0.000000 1.829650 0.000000 
#    z 0.000000 0.000000 1.845090 
# 
# From -- ./inp_files/15991.got.cif
#   From: 2010.03.12/outbox.cif.g09.slc.cpg/sg57_8_cif.got.tgz:15991.got - 2010.04.16 15:48:40.
