data_PCOD8234455
_publ_section_title
;
Structure prediction by ZEFSAII (Michael W. Deem and Ramdas Pophale) SiO2 
 PCOD8234455
Probable space group: P B C M
;
_chemical_formula_sum "Si O2"
_cell_formula_units_Z 48
_cell_length_a 30.579005
_cell_length_b 9.169861
_cell_length_c 8.690889
_cell_angle_alpha 90.000000
_cell_angle_beta 90.000000
_cell_angle_gamma 90.000000
_cell_volume 2436.970689
_symmetry_space_group_name_H-M "P B C M"
_symmetry_group_IT_number 57
_symmetry_cell_setting 'orthorhombic'
loop_
_space_group_symop_operation_xyz
x,y,z
-x,-y,1/2+z
x,1/2-y,-z
-x,1/2+y,1/2-z
-x,-y,-z
x,y,1/2-z
-x,1/2+y,z
x,1/2-y,1/2+z
loop_
_atom_site_type_symbol
_atom_site_label
_atom_site_fract_x
_atom_site_fract_y
_atom_site_fract_z
Si Si1 0.881507 0.090475 0.932024
Si Si2 0.959890 0.910682 0.433232
Si Si3 0.702708 0.903665 0.932197
Si Si4 0.623359 0.092799 0.568842
Si Si5 0.800428 0.598158 0.429913
Si Si6 0.539709 0.910030 0.932103
O O1 0.890183 0.092743 0.750000
O O2 0.833138 0.032316 0.973957
O O3 0.887235 0.250000 0.000000
O O4 0.915136 0.983557 0.013649
O O5 0.962342 0.750000 0.500000
O O6 0.962506 0.906180 0.250000
O O7 0.000000 0.000000 0.500000
O O8 0.700640 0.891372 0.750000
O O9 0.751787 0.942845 0.990198
O O10 0.669391 0.027236 0.992080
O O11 0.687385 0.750000 0.000000
O O12 0.615148 0.250000 0.500000
O O13 0.624132 0.109198 0.750000
O O14 0.584565 0.986706 0.515867
O O15 0.817191 0.750000 0.500000
O O16 0.799535 0.623604 0.250000
O O17 0.535038 0.902231 0.750000
O O18 0.539130 0.750000 0.000000
O O19 0.500000 0.000000 0.000000
#
# Coordination Sequence:
#
# PCOD8234455 Si02
#       6
#     8   8   8   8   8   8
#     4  11  23  39  58  85 118 154 193 236 283 336
#     4  12  25  43  65  90 119 153 191 235 284 337
#     4   9  18  35  56  81 110 144 185 231 279 333
#     4  10  22  37  55  80 112 146 185 229 278 332
#     4   9  19  35  57  82 112 147 187 232 281 334
#     4  11  23  39  59  84 112 146 185 231 281 336
#
# _framework density 19.696586
#
# number of rings (size 3 to 8) (size 9 to 14) (size 15 to 20)
#    0.000    1.667    0.000    4.500    0.000    6.667 
#    0.000    0.000    0.000    0.000    0.000    0.000 
#    0.000    0.000    0.000    0.000    0.000    0.000 
#
# Total GULP energy -595323.074143 kJ/mol
# GULP energy per Si atom -12402.564045 kJ/mol
# Density = 1.965176 g / cm^3
# Si number density = 19.696586 Si / 1000 Ang^3
#
#
#
# Elastic Constant Matrix: (Units=GPa)
#
#
# Indices 1 2 3 4 5 6 
#
# 1 137.6844 86.6621 54.5713 0.0000 0.0000 0.0000
# 2 86.6621 178.8751 57.2490 0.0000 0.0000 0.0000
# 3 54.5713 57.2490 81.7859 0.0000 0.0000 0.0000
# 4 0.0000 0.0000 0.0000 39.5294 0.0000 0.0000
# 5 0.0000 0.0000 0.0000 0.0000 27.8301 0.0000
# 6 0.0000 0.0000 0.0000 0.0000 0.0000 41.2600
#
#
#
# Elastic Compliance Matrix: (Units=1/GPa)
#
#
# Indices 1 2 3 4 5 6 
#
# 1 0.011855 -0.004139 -0.005013 0.000000 0.000000 0.000000
# 2 -0.004139 0.008650 -0.003293 0.000000 0.000000 0.000000
# 3 -0.005013 -0.003293 0.017877 0.000000 0.000000 0.000000
# 4 0.000000 0.000000 0.000000 0.025298 0.000000 0.000000
# 5 0.000000 0.000000 0.000000 0.000000 0.035932 0.000000
# 6 0.000000 0.000000 0.000000 0.000000 0.000000 0.024237
#
#
# Mechanical properties :
#
#
# Convention : Reuss Voigt Hill
#
# Bulk Modulus (GPa) = 74.11902 88.36781 81.24341
# Shear Modulus (GPa) = 32.62950 35.04810 33.83880
#
# Velocity S-wave (km/s) = 4.07456 4.22287 4.14938
# Velocity P-wave (km/s) = 7.73616 8.29088 8.01832
#
# Compressibility (1/GPa) = 0.01349181
#
# Stress axis : x y z
#
# Youngs Moduli (GPa) = 84.35097 115.60993 55.93843
#
# Poissons Ratio (x) = 0.47854 0.28041
# Poissons Ratio (y) = 0.34915 0.18419
# Poissons Ratio (z) = 0.42284 0.38068
#
# Static dielectric constant tensor:
#      x y z
#    x 4.192300 0.000000 0.000000 
#    y 0.000000 3.572480 0.000000 
#    z 0.000000 0.000000 3.623900 
# 
# 
# High freq. dielectric constant tensor:
#      x y z
#    x 1.787280 0.000000 0.000000 
#    y 0.000000 1.774690 0.000000 
#    z 0.000000 0.000000 1.769490 
# 
# From -- ./inp_files/9994.got.cif
#   From: 2010.03.12/outbox.cif.g09.slc.cpg/sg57_5_cif.got.tgz:9994.got - 2010.04.16 15:48:40.
