data_PCOD8234041
_publ_section_title
;
Structure prediction by ZEFSAII (Michael W. Deem and Ramdas Pophale) SiO2 
 PCOD8234041
Probable space group: P B C M
;
_chemical_formula_sum "Si O2"
_cell_formula_units_Z 56
_cell_length_a 8.867371
_cell_length_b 22.933114
_cell_length_c 14.571103
_cell_angle_alpha 90.000000
_cell_angle_beta 90.000000
_cell_angle_gamma 90.000000
_cell_volume 2963.127488
_symmetry_space_group_name_H-M "P B C M"
_symmetry_group_IT_number 57
_symmetry_cell_setting 'orthorhombic'
loop_
_space_group_symop_operation_xyz
x,y,z
-x,-y,1/2+z
x,1/2-y,-z
-x,1/2+y,1/2-z
-x,-y,-z
x,y,1/2-z
-x,1/2+y,z
x,1/2-y,1/2+z
loop_
_atom_site_type_symbol
_atom_site_label
_atom_site_fract_x
_atom_site_fract_y
_atom_site_fract_z
Si Si1 0.464418 0.829547 0.644004
Si Si2 0.722114 0.379749 0.018760
Si Si3 0.958739 0.931754 0.003987
Si Si4 0.291825 0.100763 0.646501
Si Si5 0.574428 0.470576 0.146638
Si Si6 0.724600 0.911149 0.852313
Si Si7 0.536011 0.304789 0.357465
O O1 0.413063 0.837711 0.750000
O O2 0.348147 0.864876 0.580544
O O3 0.634217 0.852055 0.628369
O O4 0.479962 0.762280 0.615952
O O5 0.661566 0.438749 0.064873
O O6 0.683675 0.327366 0.088859
O O7 0.899243 0.388779 0.006509
O O8 0.856678 0.913494 0.089816
O O9 0.871762 0.915942 0.912344
O O10 0.000000 0.000000 0.000000
O O11 0.237907 0.112413 0.750000
O O12 0.397223 0.043497 0.639226
O O13 0.389118 0.157088 0.611145
O O14 0.630577 0.452194 0.250000
O O15 0.600911 0.538507 0.129471
O O16 0.787977 0.913972 0.750000
O O17 0.562827 0.314621 0.250000
#
# Coordination Sequence:
#
# PCOD8234041 Si02
#       7
#     8   8   8   8   8   8   8
#     4  10  22  39  63  86 109 147 195 244 291 335
#     4  11  21  35  58  83 120 152 188 226 285 341
#     4  12  25  36  51  85 125 158 182 222 287 354
#     4   9  20  37  61  86 110 145 195 243 281 327
#     4   9  18  35  59  84 108 146 198 245 281 324
#     4  10  21  38  58  83 115 153 193 236 287 341
#     4   9  19  41  66  88 108 140 197 253 286 323
#
# _framework density 18.898949999999999
#
# number of rings (size 3 to 8) (size 9 to 14) (size 15 to 20)
#    0.000    2.000    1.429    3.429    2.000    3.429 
#    0.000    2.857    0.000    3.429    0.000    0.000 
#    0.000    0.000    0.000    0.000    0.000    0.000 
#
# Total GULP energy -694131.483062 kJ/mol
# GULP energy per Si atom -12395.205055 kJ/mol
# Density = 1.885594 g / cm^3
# Si number density = 18.898950 Si / 1000 Ang^3
#
#
#
# Elastic Constant Matrix: (Units=GPa)
#
#
# Indices 1 2 3 4 5 6 
#
# 1 133.0076 60.8462 70.9172 0.0000 0.0000 0.0000
# 2 60.8462 114.9549 50.0066 0.0000 0.0000 0.0000
# 3 70.9172 50.0066 112.7143 0.0000 0.0000 0.0000
# 4 0.0000 0.0000 0.0000 19.4543 0.0000 0.0000
# 5 0.0000 0.0000 0.0000 0.0000 24.1739 0.0000
# 6 0.0000 0.0000 0.0000 0.0000 0.0000 19.7024
#
#
#
# Elastic Compliance Matrix: (Units=1/GPa)
#
#
# Indices 1 2 3 4 5 6 
#
# 1 0.012645 -0.004005 -0.006179 0.000000 0.000000 0.000000
# 2 -0.004005 0.012048 -0.002825 0.000000 0.000000 0.000000
# 3 -0.006179 -0.002825 0.014013 0.000000 0.000000 0.000000
# 4 0.000000 0.000000 0.000000 0.051402 0.000000 0.000000
# 5 0.000000 0.000000 0.000000 0.000000 0.041367 0.000000
# 6 0.000000 0.000000 0.000000 0.000000 0.000000 0.050755
#
#
# Mechanical properties :
#
#
# Convention : Reuss Voigt Hill
#
# Bulk Modulus (GPa) = 78.81884 80.46853 79.64368
# Shear Modulus (GPa) = 23.53172 24.59325 24.06249
#
# Velocity S-wave (km/s) = 3.53247 3.61127 3.57209
# Velocity P-wave (km/s) = 7.64420 7.74978 7.69717
#
# Compressibility (1/GPa) = 0.01268732
#
# Stress axis : x y z
#
# Youngs Moduli (GPa) = 79.08145 83.00109 71.36129
#
# Poissons Ratio (x) = 0.33243 0.44095
# Poissons Ratio (y) = 0.31673 0.20161
# Poissons Ratio (z) = 0.48866 0.23450
#
# Static dielectric constant tensor:
#      x y z
#    x 3.237820 0.000000 0.000000 
#    y 0.000000 3.610420 0.000000 
#    z 0.000000 0.000000 3.738350 
# 
# 
# High freq. dielectric constant tensor:
#      x y z
#    x 1.707300 0.000000 0.000000 
#    y 0.000000 1.736150 0.000000 
#    z 0.000000 0.000000 1.755510 
# 
# From -- ./inp_files/16755.got.cif
#   From: 2010.03.12/outbox.cif.g09.slc.cpg/sg57_9_cif.got.tgz:16755.got - 2010.04.16 15:48:40.
