data_PCOD8234996
_publ_section_title
;
Structure prediction by ZEFSAII (Michael W. Deem and Ramdas Pophale) SiO2 
 PCOD8234996
Probable space group: P B C M
;
_chemical_formula_sum "Si O2"
_cell_formula_units_Z 48
_cell_length_a 9.374037
_cell_length_b 8.384083
_cell_length_c 30.331126
_cell_angle_alpha 90.000000
_cell_angle_beta 90.000000
_cell_angle_gamma 90.000000
_cell_volume 2383.805215
_symmetry_space_group_name_H-M "P B C M"
_symmetry_group_IT_number 57
_symmetry_cell_setting 'orthorhombic'
loop_
_space_group_symop_operation_xyz
x,y,z
-x,-y,1/2+z
x,1/2-y,-z
-x,1/2+y,1/2-z
-x,-y,-z
x,y,1/2-z
-x,1/2+y,z
x,1/2-y,1/2+z
loop_
_atom_site_type_symbol
_atom_site_label
_atom_site_fract_x
_atom_site_fract_y
_atom_site_fract_z
Si Si1 0.617181 0.322498 0.547999
Si Si2 0.812218 0.186412 0.877057
Si Si3 0.684598 0.806056 0.452059
Si Si4 0.614904 0.139101 0.799409
Si Si5 0.121030 0.315580 0.877201
Si Si6 0.315895 0.229351 0.200795
O O1 0.642070 0.250000 0.500000
O O2 0.722811 0.232780 0.580412
O O3 0.645409 0.509170 0.547159
O O4 0.454020 0.294275 0.563228
O O5 0.722774 0.225769 0.832864
O O6 0.952654 0.293131 0.875481
O O7 0.849278 0.001725 0.880702
O O8 0.736789 0.750000 0.500000
O O9 0.814039 0.775792 0.418950
O O10 0.640857 0.208141 0.750000
O O11 0.451950 0.167314 0.814113
O O12 0.637024 0.952333 0.800714
O O13 0.187523 0.238729 0.832908
O O14 0.264458 0.277086 0.250000
#
# Coordination Sequence:
#
# PCOD8234996 Si02
#       6
#     8   8   8   8   8   8
#     4  11  22  39  62  87 114 146 187 232 280 332
#     4  11  23  38  56  82 116 152 190 232 282 336
#     4  11  22  39  62  87 114 146 187 232 280 332
#     4   9  19  36  58  83 111 145 187 233 279 330
#     4  11  23  38  56  82 116 152 190 232 282 336
#     4   9  19  36  58  83 111 145 187 233 279 330
#
# _framework density 20.135874999999999
#
# number of rings (size 3 to 8) (size 9 to 14) (size 15 to 20)
#    0.000    1.667    0.000    6.000    0.000    6.667 
#    0.000    3.333    0.000    0.000    0.000    0.000 
#    0.000    0.000    0.000    0.000    0.000    0.000 
#
# Total GULP energy -595398.299086 kJ/mol
# GULP energy per Si atom -12404.131231 kJ/mol
# Density = 2.009004 g / cm^3
# Si number density = 20.135875 Si / 1000 Ang^3
#
#
#
# Elastic Constant Matrix: (Units=GPa)
#
#
# Indices 1 2 3 4 5 6 
#
# 1 75.9960 -16.7562 51.8411 0.0000 0.0000 0.0000
# 2 -16.7562 45.8119 9.9906 0.0000 0.0000 0.0000
# 3 51.8411 9.9906 100.4018 0.0000 0.0000 0.0000
# 4 0.0000 0.0000 0.0000 27.0895 0.0000 0.0000
# 5 0.0000 0.0000 0.0000 0.0000 19.4232 0.0000
# 6 0.0000 0.0000 0.0000 0.0000 0.0000 29.4970
#
#
#
# Elastic Compliance Matrix: (Units=1/GPa)
#
#
# Indices 1 2 3 4 5 6 
#
# 1 0.025965 0.012696 -0.014670 0.000000 0.000000 0.000000
# 2 0.012696 0.028521 -0.009394 0.000000 0.000000 0.000000
# 3 -0.014670 -0.009394 0.018469 0.000000 0.000000 0.000000
# 4 0.000000 0.000000 0.000000 0.036915 0.000000 0.000000
# 5 0.000000 0.000000 0.000000 0.000000 0.051485 0.000000
# 6 0.000000 0.000000 0.000000 0.000000 0.000000 0.033902
#
#
# Mechanical properties :
#
#
# Convention : Reuss Voigt Hill
#
# Bulk Modulus (GPa) = 19.91215 34.70676 27.30945
# Shear Modulus (GPa) = 21.30091 27.01089 24.15590
#
# Velocity S-wave (km/s) = 3.25600 3.66653 3.46735
# Velocity P-wave (km/s) = 4.90365 5.93281 5.44261
#
# Compressibility (1/GPa) = 0.05022059
#
# Stress axis : x y z
#
# Youngs Moduli (GPa) = 38.51293 35.06227 54.14351
#
# Poissons Ratio (x) = -0.44516 0.79430
# Poissons Ratio (y) = -0.48897 0.50860
# Poissons Ratio (z) = 0.56499 0.32936
#
# Static dielectric constant tensor:
#      x y z
#    x 3.819450 0.000000 0.000000 
#    y 0.000000 3.625440 0.000000 
#    z 0.000000 0.000000 4.036410 
# 
# 
# High freq. dielectric constant tensor:
#      x y z
#    x 1.780020 0.000000 0.000000 
#    y 0.000000 1.791640 0.000000 
#    z 0.000000 0.000000 1.800510 
# 
# From -- ./inp_files/2037.got.cif
#   From: 2010.03.12/outbox.cif.g09.slc.cpg/sg57_2_cif.got.tgz:2037.got - 2010.04.16 15:48:40.
