data_PCOD8234655
_publ_section_title
;
Structure prediction by ZEFSAII (Michael W. Deem and Ramdas Pophale) SiO2 
 PCOD8234655
Probable space group: P B C M
;
_chemical_formula_sum "Si O2"
_cell_formula_units_Z 48
_cell_length_a 9.662887
_cell_length_b 16.788097
_cell_length_c 14.499034
_cell_angle_alpha 90.000000
_cell_angle_beta 90.000000
_cell_angle_gamma 90.000000
_cell_volume 2352.054816
_symmetry_space_group_name_H-M "P B C M"
_symmetry_group_IT_number 57
_symmetry_cell_setting 'orthorhombic'
loop_
_space_group_symop_operation_xyz
x,y,z
-x,-y,1/2+z
x,1/2-y,-z
-x,1/2+y,1/2-z
-x,-y,-z
x,y,1/2-z
-x,1/2+y,z
x,1/2-y,1/2+z
loop_
_atom_site_type_symbol
_atom_site_label
_atom_site_fract_x
_atom_site_fract_y
_atom_site_fract_z
Si Si1 0.378809 0.961963 0.443108
Si Si2 0.868737 0.987063 0.062021
Si Si3 0.983626 0.772433 0.750000
Si Si4 0.701686 0.223801 0.750000
Si Si5 0.983745 0.455985 0.750000
Si Si6 0.506108 0.208485 0.595956
Si Si7 0.804192 0.802495 0.091310
Si Si8 0.724945 0.033674 0.750000
O O1 0.422748 0.874575 0.419708
O O2 0.345031 0.003242 0.343133
O O3 0.500000 0.000000 0.500000
O O4 0.248693 0.963534 0.510198
O O5 0.834454 0.893953 0.068062
O O6 0.888339 0.026326 0.161912
O O7 0.000000 0.000000 0.000000
O O8 0.955168 0.866644 0.750000
O O9 0.918446 0.731007 0.839152
O O10 0.148735 0.763041 0.750000
O O11 0.609857 0.255159 0.663814
O O12 0.713111 0.128726 0.750000
O O13 0.112722 0.515496 0.750000
O O14 0.493750 0.250000 0.500000
O O15 0.349693 0.201856 0.636227
O O16 0.814965 0.750000 0.000000
#
# Coordination Sequence:
#
# PCOD8234655 Si02
#       8
#     8   8   4   4   4   8   8   4
#     4  11  23  42  67 100 131 175 228 277 340 408
#     4  12  24  42  70  97 137 175 226 279 338 407
#     4  12  27  41  65  98 132 168 227 275 335 405
#     4  10  23  42  61  96 126 173 213 273 343 385
#     4  12  26  43  65 103 133 180 224 280 343 402
#     4  10  23  42  67  91 134 174 222 276 339 402
#     4  11  24  44  68  96 128 180 222 271 336 407
#     4  10  22  42  67  87 135 175 212 272 339 402
#
# _framework density 20.407686999999999
#
# number of rings (size 3 to 8) (size 9 to 14) (size 15 to 20)
#    0.000    1.000    3.333    3.000    4.667    1.333 
#    0.000    0.833    0.000    0.000    0.000    0.000 
#    0.000    0.000    0.000    0.000    0.000    0.000 
#
# Total GULP energy -595035.993348 kJ/mol
# GULP energy per Si atom -12396.583195 kJ/mol
# Density = 2.036124 g / cm^3
# Si number density = 20.407687 Si / 1000 Ang^3
#
#
#
# Elastic Constant Matrix: (Units=GPa)
#
#
# Indices 1 2 3 4 5 6 
#
# 1 162.7322 9.9238 66.8871 0.0000 0.0000 0.0000
# 2 9.9238 36.2040 12.6021 0.0000 0.0000 0.0000
# 3 66.8871 12.6021 146.4187 0.0000 0.0000 0.0000
# 4 0.0000 0.0000 0.0000 3.8807 0.0000 0.0000
# 5 0.0000 0.0000 0.0000 0.0000 46.5805 0.0000
# 6 0.0000 0.0000 0.0000 0.0000 0.0000 30.2361
#
#
#
# Elastic Compliance Matrix: (Units=1/GPa)
#
#
# Indices 1 2 3 4 5 6 
#
# 1 0.007594 -0.000901 -0.003392 0.000000 0.000000 0.000000
# 2 -0.000901 0.028581 -0.002048 0.000000 0.000000 0.000000
# 3 -0.003392 -0.002048 0.008555 0.000000 0.000000 0.000000
# 4 0.000000 0.000000 0.000000 0.257686 0.000000 0.000000
# 5 0.000000 0.000000 0.000000 0.000000 0.021468 0.000000
# 6 0.000000 0.000000 0.000000 0.000000 0.000000 0.033073
#
#
# Mechanical properties :
#
#
# Convention : Reuss Voigt Hill
#
# Bulk Modulus (GPa) = 31.20245 58.24234 44.72239
# Shear Modulus (GPa) = 13.14672 33.20224 23.17448
#
# Velocity S-wave (km/s) = 2.54087 4.03792 3.37349
# Velocity P-wave (km/s) = 4.89191 7.09515 6.09393
#
# Compressibility (1/GPa) = 0.03204877
#
# Stress axis : x y z
#
# Youngs Moduli (GPa) = 131.68231 34.98795 116.88571
#
# Poissons Ratio (x) = 0.03153 0.39643
# Poissons Ratio (y) = 0.11865 0.23942
# Poissons Ratio (z) = 0.44661 0.07167
#
# Static dielectric constant tensor:
#      x y z
#    x 5.398490 0.000000 0.000000 
#    y 0.000000 3.554990 0.000000 
#    z 0.000000 0.000000 3.443850 
# 
# 
# High freq. dielectric constant tensor:
#      x y z
#    x 1.817270 0.000000 0.000000 
#    y 0.000000 1.787060 0.000000 
#    z 0.000000 0.000000 1.818430 
# 
# From -- ./inp_files/16461.got.cif
#   From: 2010.03.12/outbox.cif.g09.slc.cpg/sg57_9_cif.got.tgz:16461.got - 2010.04.16 15:48:40.
