data_PCOD8235805
_publ_section_title
;
Structure prediction by ZEFSAII (Michael W. Deem and Ramdas Pophale) SiO2 
 PCOD8235805
Probable space group: P N N M
;
_chemical_formula_sum "Si O2"
_cell_formula_units_Z 32
_cell_length_a 9.366778
_cell_length_b 11.301483
_cell_length_c 15.199368
_cell_angle_alpha 90.000000
_cell_angle_beta 90.000000
_cell_angle_gamma 90.000000
_cell_volume 1608.982029
_symmetry_space_group_name_H-M "P N N M"
_symmetry_group_IT_number 58
_symmetry_cell_setting 'orthorhombic'
loop_
_space_group_symop_operation_xyz
x,y,z
-x,-y,z
1/2+x,1/2-y,1/2-z
1/2-x,1/2+y,1/2-z
-x,-y,-z
x,y,-z
1/2-x,1/2+y,1/2+z
1/2+x,1/2-y,1/2+z
loop_
_atom_site_type_symbol
_atom_site_label
_atom_site_fract_x
_atom_site_fract_y
_atom_site_fract_z
Si Si1 0.500000 0.000000 0.718583
Si Si2 0.298755 0.129444 0.400555
Si Si3 0.652433 0.553783 0.000000
Si Si4 0.645975 0.142546 0.136612
Si Si5 0.330299 0.483267 0.500000
Si Si6 0.401601 0.173326 0.000000
O O1 0.564053 0.893907 0.659479
O O2 0.379225 0.931495 0.774826
O O3 0.335989 0.178719 0.500000
O O4 0.191668 0.220076 0.350481
O O5 0.228008 0.999018 0.412299
O O6 0.500000 0.500000 0.000000
O O7 0.647271 0.692700 0.000000
O O8 0.780816 0.085975 0.086826
O O9 0.496173 0.137990 0.084176
O O10 0.500000 0.500000 0.500000
O O11 0.248904 0.607989 0.500000
#
# Coordination Sequence:
#
# PCOD8235805 Si02
#       6
#     4   8   4   8   4   4
#     4  12  25  41  64 104 140 176 222 293 355 386
#     4  10  23  43  66  92 134 175 221 273 330 421
#     4  10  18  37  68  93 116 176 230 255 322 413
#     4  11  21  44  67  94 131 176 226 277 344 401
#     4  11  22  39  67  97 130 174 227 272 342 415
#     4  11  18  39  76  91 130 177 216 276 345 408
#
# _framework density 19.888349000000002
#
# number of rings (size 3 to 8) (size 9 to 14) (size 15 to 20)
#    0.750    0.500    7.500    1.125    0.000    4.000 
#    4.500    0.000    0.000    0.000    0.000    0.000 
#    0.000    0.000    0.000    0.000    0.000    0.000 
#
# Total GULP energy -396503.193884 kJ/mol
# GULP energy per Si atom -12390.724809 kJ/mol
# Density = 1.984308 g / cm^3
# Si number density = 19.888349 Si / 1000 Ang^3
#
#
#
# Elastic Constant Matrix: (Units=GPa)
#
#
# Indices 1 2 3 4 5 6 
#
# 1 135.0911 46.6629 38.5614 0.0000 0.0000 0.0000
# 2 46.6629 118.6026 26.6099 0.0000 0.0000 0.0000
# 3 38.5614 26.6099 84.1810 0.0000 0.0000 0.0000
# 4 0.0000 0.0000 0.0000 16.0676 0.0000 0.0000
# 5 0.0000 0.0000 0.0000 0.0000 8.4942 0.0000
# 6 0.0000 0.0000 0.0000 0.0000 0.0000 42.6245
#
#
#
# Elastic Compliance Matrix: (Units=1/GPa)
#
#
# Indices 1 2 3 4 5 6 
#
# 1 0.009377 -0.002934 -0.003368 0.000000 0.000000 0.000000
# 2 -0.002934 0.009993 -0.001815 0.000000 0.000000 0.000000
# 3 -0.003368 -0.001815 0.013996 0.000000 0.000000 0.000000
# 4 0.000000 0.000000 0.000000 0.062237 0.000000 0.000000
# 5 0.000000 0.000000 0.000000 0.000000 0.117727 0.000000
# 6 0.000000 0.000000 0.000000 0.000000 0.000000 0.023461
#
#
# Mechanical properties :
#
#
# Convention : Reuss Voigt Hill
#
# Bulk Modulus (GPa) = 58.36910 62.39368 60.38139
# Shear Modulus (GPa) = 19.32476 28.50663 23.91570
#
# Velocity S-wave (km/s) = 3.12053 3.79005 3.47147
# Velocity P-wave (km/s) = 6.51120 7.11285 6.81867
#
# Compressibility (1/GPa) = 0.01713235
#
# Stress axis : x y z
#
# Youngs Moduli (GPa) = 106.64192 100.07062 71.45034
#
# Poissons Ratio (x) = 0.29357 0.24065
# Poissons Ratio (y) = 0.31285 0.12968
# Poissons Ratio (z) = 0.35918 0.18162
#
# Static dielectric constant tensor:
#      x y z
#    x 3.424450 0.000000 0.000000 
#    y 0.000000 3.582440 0.000000 
#    z 0.000000 0.000000 3.379590 
# 
# 
# High freq. dielectric constant tensor:
#      x y z
#    x 1.762480 0.000000 0.000000 
#    y 0.000000 1.790710 0.000000 
#    z 0.000000 0.000000 1.752710 
# 
# From -- ./inp_files/24896.got.cif
#   From: 2010.06.25/outbox.cif.g09.slc.cpg/sg58_13_cif.got.tgz:24896.got - 2010.06.26 21:38:00.
