data_PCOD8235991
_publ_section_title
;
Structure prediction by ZEFSAII (Michael W. Deem and Ramdas Pophale) SiO2 
 PCOD8235991
Probable space group: P N N M
;
_chemical_formula_sum "Si O2"
_cell_formula_units_Z 64
_cell_length_a 24.695758
_cell_length_b 15.368007
_cell_length_c 8.950274
_cell_angle_alpha 90.000000
_cell_angle_beta 90.000000
_cell_angle_gamma 90.000000
_cell_volume 3396.848997
_symmetry_space_group_name_H-M "P N N M"
_symmetry_group_IT_number 58
_symmetry_cell_setting 'orthorhombic'
loop_
_space_group_symop_operation_xyz
x,y,z
-x,-y,z
1/2+x,1/2-y,1/2-z
1/2-x,1/2+y,1/2-z
-x,-y,-z
x,y,-z
1/2-x,1/2+y,1/2+z
1/2+x,1/2-y,1/2+z
loop_
_atom_site_type_symbol
_atom_site_label
_atom_site_fract_x
_atom_site_fract_y
_atom_site_fract_z
Si Si1 0.222358 0.545680 0.329750
Si Si2 0.893208 0.509423 0.326259
Si Si3 0.638408 0.326668 0.175479
Si Si4 0.067026 0.674706 0.677773
Si Si5 0.658214 0.504916 0.673039
Si Si6 0.258727 0.219456 0.673639
Si Si7 0.650963 0.680486 0.176904
Si Si8 0.054751 0.316332 0.677852
O O1 0.220825 0.581860 0.500000
O O2 0.171461 0.482412 0.300592
O O3 0.277115 0.492886 0.300080
O O4 0.216680 0.626560 0.218989
O O5 0.907734 0.508462 0.500000
O O6 0.915648 0.419346 0.256013
O O7 0.921981 0.593411 0.253143
O O8 0.632395 0.417230 0.261808
O O9 0.695082 0.279105 0.213314
O O10 0.590626 0.264469 0.234476
O O11 0.634512 0.346470 0.000000
O O12 0.069848 0.672228 0.500000
O O13 0.107686 0.748815 0.736826
O O14 0.006561 0.697020 0.733481
O O15 0.643153 0.510922 0.500000
O O16 0.633135 0.587303 0.758119
O O17 0.268988 0.236223 0.500000
O O18 0.289263 0.294842 0.764388
O O19 0.651871 0.674672 0.000000
O O20 0.058491 0.320339 0.500000
#
# Coordination Sequence:
#
# PCOD8235991 Si02
#       8
#     8   8   8   8   8   8   8   8
#     4   9  17  31  51  76 107 138 170 211 259 310
#     4   9  15  26  48  78 109 136 165 208 261 311
#     4   9  19  35  54  78 108 139 176 222 271 315
#     4   9  17  30  49  78 109 137 175 219 265 311
#     4  10  21  35  54  77 106 141 180 222 270 321
#     4  10  19  31  50  76 108 141 174 212 260 317
#     4  11  21  34  53  78 109 142 179 222 266 313
#     4   9  17  29  51  79 106 137 175 222 267 311
#
# _framework density 18.840990000000001
#
# number of rings (size 3 to 8) (size 9 to 14) (size 15 to 20)
#    0.000    2.500    1.250    1.500    1.750    2.500 
#    0.000    0.625    0.000    5.250    0.000    0.875 
#    0.000    0.000    0.000    0.000    0.000    0.000 
#
# Total GULP energy -793542.007124 kJ/mol
# GULP energy per Si atom -12399.093861 kJ/mol
# Density = 1.879811 g / cm^3
# Si number density = 18.840990 Si / 1000 Ang^3
#
#
#
# Elastic Constant Matrix: (Units=GPa)
#
#
# Indices 1 2 3 4 5 6 
#
# 1 95.2910 66.3104 21.7153 0.0000 0.0000 0.0000
# 2 66.3104 150.0793 41.8905 0.0000 0.0000 0.0000
# 3 21.7153 41.8905 46.4345 0.0000 0.0000 0.0000
# 4 0.0000 0.0000 0.0000 24.9815 0.0000 0.0000
# 5 0.0000 0.0000 0.0000 0.0000 16.5568 0.0000
# 6 0.0000 0.0000 0.0000 0.0000 0.0000 27.3428
#
#
#
# Elastic Compliance Matrix: (Units=1/GPa)
#
#
# Indices 1 2 3 4 5 6 
#
# 1 0.015221 -0.006333 -0.001405 0.000000 0.000000 0.000000
# 2 -0.006333 0.011541 -0.007450 0.000000 0.000000 0.000000
# 3 -0.001405 -0.007450 0.028913 0.000000 0.000000 0.000000
# 4 0.000000 0.000000 0.000000 0.040030 0.000000 0.000000
# 5 0.000000 0.000000 0.000000 0.000000 0.060398 0.000000
# 6 0.000000 0.000000 0.000000 0.000000 0.000000 0.036573
#
#
# Mechanical properties :
#
#
# Convention : Reuss Voigt Hill
#
# Bulk Modulus (GPa) = 39.52570 61.29303 50.40936
# Shear Modulus (GPa) = 21.59968 24.56880 23.08424
#
# Velocity S-wave (km/s) = 3.38956 3.61502 3.50410
# Velocity P-wave (km/s) = 6.02851 7.07297 6.57152
#
# Compressibility (1/GPa) = 0.02529999
#
# Stress axis : x y z
#
# Youngs Moduli (GPa) = 65.69677 86.64943 34.58614
#
# Poissons Ratio (x) = 0.54877 0.04859
# Poissons Ratio (y) = 0.41607 0.25765
# Poissons Ratio (z) = 0.09230 0.64551
#
# Static dielectric constant tensor:
#      x y z
#    x 3.532410 0.000000 0.000000 
#    y 0.000000 3.497330 0.000000 
#    z 0.000000 0.000000 3.084100 
# 
# 
# High freq. dielectric constant tensor:
#      x y z
#    x 1.726510 0.000000 0.000000 
#    y 0.000000 1.734660 0.000000 
#    z 0.000000 0.000000 1.690190 
# 
# From -- ./inp_files/10015.got.cif
#   From: 2010.06.25/outbox.cif.g09.slc.cpg/sg58_6_cif.got.tgz:10015.got - 2010.06.26 21:38:00.
