data_PCOD8235542
_publ_section_title
;
Structure prediction by ZEFSAII (Michael W. Deem and Ramdas Pophale) SiO2 
 PCOD8235542
Probable space group: P N N M
;
_chemical_formula_sum "Si O2"
_cell_formula_units_Z 64
_cell_length_a 14.759718
_cell_length_b 17.891537
_cell_length_c 14.647341
_cell_angle_alpha 90.000000
_cell_angle_beta 90.000000
_cell_angle_gamma 90.000000
_cell_volume 3867.982523
_symmetry_space_group_name_H-M "P N N M"
_symmetry_group_IT_number 58
_symmetry_cell_setting 'orthorhombic'
loop_
_space_group_symop_operation_xyz
x,y,z
-x,-y,z
1/2+x,1/2-y,1/2-z
1/2-x,1/2+y,1/2-z
-x,-y,-z
x,y,-z
1/2-x,1/2+y,1/2+z
1/2+x,1/2-y,1/2+z
loop_
_atom_site_type_symbol
_atom_site_label
_atom_site_fract_x
_atom_site_fract_y
_atom_site_fract_z
Si Si1 0.191122 0.288875 0.608336
Si Si2 0.288884 0.561702 0.396677
Si Si3 0.131925 0.554252 0.268267
Si Si4 0.010820 0.306413 0.100858
Si Si5 0.037256 0.137401 0.104834
Si Si6 0.689104 0.848976 0.395475
Si Si7 0.345021 0.394009 0.603847
Si Si8 0.066853 0.388835 0.271380
O O1 0.173707 0.300676 0.500000
O O2 0.221956 0.202636 0.628234
O O3 0.274338 0.337079 0.648161
O O4 0.103455 0.321808 0.662471
O O5 0.277202 0.590001 0.500000
O O6 0.198985 0.585603 0.344597
O O7 0.376218 0.599000 0.347909
O O8 0.300360 0.473872 0.390606
O O9 0.174993 0.579660 0.170852
O O10 0.126747 0.464070 0.272668
O O11 0.036737 0.591409 0.295942
O O12 0.902425 0.300009 0.116001
O O13 0.051401 0.224955 0.114679
O O14 0.064994 0.360771 0.167607
O O15 0.031285 0.337518 0.000000
O O16 0.943613 0.109923 0.152635
O O17 0.036542 0.109750 0.000000
O O18 0.698530 0.877847 0.500000
O O19 0.360517 0.367148 0.500000
#
# Coordination Sequence:
#
# PCOD8235542 Si02
#       8
#     8   8   8   8   8   8   8   8
#     4  10  18  31  51  71  93 126 163 196 231 279
#     4  10  19  29  44  69 101 131 153 186 240 294
#     4  10  21  34  46  69 100 130 163 197 232 283
#     4   9  17  31  49  70  93 121 154 195 246 286
#     4   9  16  27  45  70  97 120 148 191 243 293
#     4   9  18  33  52  69  91 123 163 207 241 272
#     4   9  15  27  46  69  95 122 153 190 236 290
#     4  10  21  33  47  69  99 130 162 195 233 284
#
# _framework density 16.546092999999999
#
# number of rings (size 3 to 8) (size 9 to 14) (size 15 to 20)
#    0.000    2.500    2.500    0.375    1.750    2.500 
#    0.000    3.750    0.000    0.000    0.000    0.000 
#    0.000    2.000    0.000    0.500    0.000    0.000 
#
# Total GULP energy -792927.520766 kJ/mol
# GULP energy per Si atom -12389.492512 kJ/mol
# Density = 1.650843 g / cm^3
# Si number density = 16.546093 Si / 1000 Ang^3
#
#
#
# Elastic Constant Matrix: (Units=GPa)
#
#
# Indices 1 2 3 4 5 6 
#
# 1 82.9418 20.5001 39.3332 0.0000 0.0000 0.0000
# 2 20.5001 33.9861 20.8384 0.0000 0.0000 0.0000
# 3 39.3332 20.8384 63.9811 0.0000 0.0000 0.0000
# 4 0.0000 0.0000 0.0000 20.9198 0.0000 0.0000
# 5 0.0000 0.0000 0.0000 0.0000 19.2765 0.0000
# 6 0.0000 0.0000 0.0000 0.0000 0.0000 16.4582
#
#
#
# Elastic Compliance Matrix: (Units=1/GPa)
#
#
# Indices 1 2 3 4 5 6 
#
# 1 0.017672 -0.004996 -0.009237 0.000000 0.000000 0.000000
# 2 -0.004996 0.038178 -0.009363 0.000000 0.000000 0.000000
# 3 -0.009237 -0.009363 0.024358 0.000000 0.000000 0.000000
# 4 0.000000 0.000000 0.000000 0.047802 0.000000 0.000000
# 5 0.000000 0.000000 0.000000 0.000000 0.051877 0.000000
# 6 0.000000 0.000000 0.000000 0.000000 0.000000 0.060760
#
#
# Mechanical properties :
#
#
# Convention : Reuss Voigt Hill
#
# Bulk Modulus (GPa) = 30.28853 38.02804 34.15829
# Shear Modulus (GPa) = 16.73118 18.01338 17.37228
#
# Velocity S-wave (km/s) = 3.18337 3.30309 3.24378
# Velocity P-wave (km/s) = 5.64420 6.13027 5.89225
#
# Compressibility (1/GPa) = 0.03301580
#
# Stress axis : x y z
#
# Youngs Moduli (GPa) = 56.58731 26.19287 41.05490
#
# Poissons Ratio (x) = 0.13086 0.37922
# Poissons Ratio (y) = 0.28271 0.38440
# Poissons Ratio (z) = 0.52269 0.24525
#
# Static dielectric constant tensor:
#      x y z
#    x 3.235020 0.000000 0.000000 
#    y 0.000000 3.014730 0.000000 
#    z 0.000000 0.000000 2.929180 
# 
# 
# High freq. dielectric constant tensor:
#      x y z
#    x 1.636320 0.000000 0.000000 
#    y 0.000000 1.631740 0.000000 
#    z 0.000000 0.000000 1.601870 
# 
# From -- ./inp_files/21502.got.cif
#   From: 2010.06.25/outbox.cif.g09.slc.cpg/sg58_11_cif.got.tgz:21502.got - 2010.06.26 21:38:00.
