data_PCOD8235887
_publ_section_title
;
Structure prediction by ZEFSAII (Michael W. Deem and Ramdas Pophale) SiO2 
 PCOD8235887
Probable space group: P N N M
;
_chemical_formula_sum "Si O2"
_cell_formula_units_Z 64
_cell_length_a 21.718114
_cell_length_b 5.143613
_cell_length_c 31.422563
_cell_angle_alpha 90.000000
_cell_angle_beta 90.000000
_cell_angle_gamma 90.000000
_cell_volume 3510.201111
_symmetry_space_group_name_H-M "P N N M"
_symmetry_group_IT_number 58
_symmetry_cell_setting 'orthorhombic'
loop_
_space_group_symop_operation_xyz
x,y,z
-x,-y,z
1/2+x,1/2-y,1/2-z
1/2-x,1/2+y,1/2-z
-x,-y,-z
x,y,-z
1/2-x,1/2+y,1/2+z
1/2+x,1/2-y,1/2+z
loop_
_atom_site_type_symbol
_atom_site_label
_atom_site_fract_x
_atom_site_fract_y
_atom_site_fract_z
Si Si1 0.872344 0.973897 0.413382
Si Si2 0.163550 0.956504 0.048654
Si Si3 0.927077 0.999784 0.123339
Si Si4 0.069571 0.526943 0.450570
Si Si5 0.427258 0.004755 0.230292
Si Si6 0.073097 0.499922 0.174767
Si Si7 0.257223 0.956128 0.451071
Si Si8 0.573044 0.495767 0.821730
O O1 0.908289 0.180073 0.442683
O O2 0.889356 0.026757 0.364865
O O3 0.889371 0.679473 0.425352
O O4 0.799775 0.008432 0.419499
O O5 0.213694 0.176760 0.058739
O O6 0.103219 0.992907 0.077045
O O7 0.192903 0.677470 0.058432
O O8 0.141213 0.977404 0.000000
O O9 0.903959 0.241822 0.151265
O O10 0.903652 0.746218 0.148162
O O11 0.000000 0.000000 0.116326
O O12 0.074542 0.460379 0.500000
O O13 0.000000 0.500000 0.433910
O O14 0.405959 0.270051 0.208469
O O15 0.500000 0.000000 0.234552
O O16 0.398510 0.988406 0.277675
O O17 0.405125 0.765425 0.201594
O O18 0.000000 0.500000 0.177621
O O19 0.234295 0.974020 0.500000
O O20 0.500000 0.500000 0.831264
#
# Coordination Sequence:
#
# PCOD8235887 Si02
#       8
#     8   8   8   8   8   8   8   8
#     4  12  22  35  53  74  99 135 180 227 263 305
#     4  10  21  37  55  78 107 136 170 211 254 302
#     4  10  19  32  54  84 111 135 164 200 250 309
#     4  11  22  34  49  71 101 134 168 214 274 329
#     4   9  17  30  47  71 105 138 165 201 254 310
#     4   9  17  30  50  78 109 137 168 201 238 303
#     4  10  21  37  55  73  97 136 184 224 253 292
#     4  10  19  30  47  73 103 133 166 211 269 317
#
# _framework density 18.232572000000001
#
# number of rings (size 3 to 8) (size 9 to 14) (size 15 to 20)
#    0.000    1.875    0.000    5.250    0.000    6.250 
#    0.000    0.000    0.000    4.500    0.000   17.500 
#    0.000    0.000    0.000    0.000    0.000    0.000 
#
# Total GULP energy -793830.954577 kJ/mol
# GULP energy per Si atom -12403.608665 kJ/mol
# Density = 1.819107 g / cm^3
# Si number density = 18.232572 Si / 1000 Ang^3
#
#
#
# Elastic Constant Matrix: (Units=GPa)
#
#
# Indices 1 2 3 4 5 6 
#
# 1 46.7755 11.3293 40.9773 0.0000 0.0000 0.0000
# 2 11.3293 105.6587 27.0471 0.0000 0.0000 0.0000
# 3 40.9773 27.0471 110.3600 0.0000 0.0000 0.0000
# 4 0.0000 0.0000 0.0000 23.0521 0.0000 0.0000
# 5 0.0000 0.0000 0.0000 0.0000 6.0878 0.0000
# 6 0.0000 0.0000 0.0000 0.0000 0.0000 14.3590
#
#
#
# Elastic Compliance Matrix: (Units=1/GPa)
#
#
# Indices 1 2 3 4 5 6 
#
# 1 0.031702 -0.000412 -0.011670 0.000000 0.000000 0.000000
# 2 -0.000412 0.010103 -0.002323 0.000000 0.000000 0.000000
# 3 -0.011670 -0.002323 0.013964 0.000000 0.000000 0.000000
# 4 0.000000 0.000000 0.000000 0.043380 0.000000 0.000000
# 5 0.000000 0.000000 0.000000 0.000000 0.164263 0.000000
# 6 0.000000 0.000000 0.000000 0.000000 0.000000 0.069643
#
#
# Mechanical properties :
#
#
# Convention : Reuss Voigt Hill
#
# Bulk Modulus (GPa) = 37.09379 46.83351 41.96365
# Shear Modulus (GPa) = 13.48247 20.92914 17.20580
#
# Velocity S-wave (km/s) = 2.72227 3.39174 3.07528
# Velocity P-wave (km/s) = 5.50182 6.40945 5.97290
#
# Compressibility (1/GPa) = 0.02695869
#
# Stress axis : x y z
#
# Youngs Moduli (GPa) = 31.54360 98.97748 71.61335
#
# Poissons Ratio (x) = 0.04076 0.83575
# Poissons Ratio (y) = 0.01299 0.16637
# Poissons Ratio (z) = 0.36812 0.22995
#
# Static dielectric constant tensor:
#      x y z
#    x 2.959190 0.000000 0.000000 
#    y 0.000000 3.665630 0.000000 
#    z 0.000000 0.000000 3.444020 
# 
# 
# High freq. dielectric constant tensor:
#      x y z
#    x 1.659550 0.000000 0.000000 
#    y 0.000000 1.731110 0.000000 
#    z 0.000000 0.000000 1.711260 
# 
# From -- ./inp_files/33859.got.cif
#   From: 2010.06.25/outbox.cif.g09.slc.cpg/sg58_17_cif.got.tgz:33859.got - 2010.06.26 21:38:00.
