data_PCOD8235682
_publ_section_title
;
Structure prediction by ZEFSAII (Michael W. Deem and Ramdas Pophale) SiO2 
 PCOD8235682
Probable space group: P N N M
;
_chemical_formula_sum "Si O2"
_cell_formula_units_Z 48
_cell_length_a 19.164868
_cell_length_b 15.201739
_cell_length_c 8.870167
_cell_angle_alpha 90.000000
_cell_angle_beta 90.000000
_cell_angle_gamma 90.000000
_cell_volume 2584.228434
_symmetry_space_group_name_H-M "P N N M"
_symmetry_group_IT_number 58
_symmetry_cell_setting 'orthorhombic'
loop_
_space_group_symop_operation_xyz
x,y,z
-x,-y,z
1/2+x,1/2-y,1/2-z
1/2-x,1/2+y,1/2-z
-x,-y,-z
x,y,-z
1/2-x,1/2+y,1/2+z
1/2+x,1/2-y,1/2+z
loop_
_atom_site_type_symbol
_atom_site_label
_atom_site_fract_x
_atom_site_fract_y
_atom_site_fract_z
Si Si1 0.331038 0.873796 0.178530
Si Si2 0.075523 0.721439 0.178420
Si Si3 0.579061 0.977170 0.323327
Si Si4 0.425018 0.528112 0.678848
Si Si5 0.326720 0.375167 0.320419
Si Si6 0.076988 0.226719 0.821307
O O1 0.251966 0.876174 0.240305
O O2 0.365583 0.786962 0.244696
O O3 0.369120 0.961739 0.231313
O O4 0.333427 0.869094 0.000000
O O5 0.095373 0.622635 0.226654
O O6 0.133381 0.788651 0.242709
O O7 0.999233 0.746677 0.241144
O O8 0.072037 0.729259 0.000000
O O9 0.591443 0.992853 0.500000
O O10 0.500000 0.000000 0.279818
O O11 0.500000 0.500000 0.746247
O O12 0.428973 0.521628 0.500000
O O13 0.365906 0.462179 0.741250
O O14 0.406507 0.627013 0.728245
O O15 0.327748 0.374178 0.500000
O O16 0.081022 0.239990 0.000000
#
# Coordination Sequence:
#
# PCOD8235682 Si02
#       6
#     8   8   8   8   8   8
#     4  11  23  35  49  75 115 147 166 205 267 326
#     4   9  16  30  54  79 102 131 173 220 259 301
#     4  10  19  34  57  80 100 132 183 227 253 294
#     4   9  15  27  54  85 104 126 171 226 263 295
#     4   9  18  32  49  78 113 138 165 210 271 320
#     4  10  18  32  57  83 102 130 180 226 254 296
#
# _framework density 18.574207999999999
#
# number of rings (size 3 to 8) (size 9 to 14) (size 15 to 20)
#    0.000    2.333    3.333    0.500    0.000    1.667 
#    0.000    0.000    0.000    4.500    0.000    0.000 
#    0.000    0.000    0.000    0.000    0.000    0.000 
#
# Total GULP energy -595159.834090 kJ/mol
# GULP energy per Si atom -12399.163210 kJ/mol
# Density = 1.853193 g / cm^3
# Si number density = 18.574208 Si / 1000 Ang^3
#
#
#
# Elastic Constant Matrix: (Units=GPa)
#
#
# Indices 1 2 3 4 5 6 
#
# 1 175.0419 103.9963 30.7268 0.0000 0.0000 0.0000
# 2 103.9963 190.1443 28.7744 0.0000 0.0000 0.0000
# 3 30.7268 28.7744 25.2849 0.0000 0.0000 0.0000
# 4 0.0000 0.0000 0.0000 16.3619 0.0000 0.0000
# 5 0.0000 0.0000 0.0000 0.0000 17.7115 0.0000
# 6 0.0000 0.0000 0.0000 0.0000 0.0000 32.8671
#
#
#
# Elastic Compliance Matrix: (Units=1/GPa)
#
#
# Indices 1 2 3 4 5 6 
#
# 1 0.009309 -0.004082 -0.006666 0.000000 0.000000 0.000000
# 2 -0.004082 0.008144 -0.004307 0.000000 0.000000 0.000000
# 3 -0.006666 -0.004307 0.052551 0.000000 0.000000 0.000000
# 4 0.000000 0.000000 0.000000 0.061117 0.000000 0.000000
# 5 0.000000 0.000000 0.000000 0.000000 0.056460 0.000000
# 6 0.000000 0.000000 0.000000 0.000000 0.000000 0.030426
#
#
# Mechanical properties :
#
#
# Convention : Reuss Voigt Hill
#
# Bulk Modulus (GPa) = 25.06703 79.71848 52.39275
# Shear Modulus (GPa) = 19.12671 28.51969 23.82320
#
# Velocity S-wave (km/s) = 3.21245 3.92273 3.58522
# Velocity P-wave (km/s) = 5.22347 7.97052 6.73846
#
# Compressibility (1/GPa) = 0.03989304
#
# Stress axis : x y z
#
# Youngs Moduli (GPa) = 107.42848 122.79509 19.02910
#
# Poissons Ratio (x) = 0.50129 0.12685
# Poissons Ratio (y) = 0.43856 0.08195
# Poissons Ratio (z) = 0.71614 0.52883
#
# Static dielectric constant tensor:
#      x y z
#    x 3.584820 0.000000 0.000000 
#    y 0.000000 3.721690 0.000000 
#    z 0.000000 0.000000 2.852250 
# 
# 
# High freq. dielectric constant tensor:
#      x y z
#    x 1.723680 0.000000 0.000000 
#    y 0.000000 1.742230 0.000000 
#    z 0.000000 0.000000 1.663210 
# 
# From -- ./inp_files/5910.got.cif
#   From: 2010.06.25/outbox.cif.g09.slc.cpg/sg58_3_cif.got.tgz:5910.got - 2010.06.26 21:38:00.
