data_PCOD8235789
_publ_section_title
;
Structure prediction by ZEFSAII (Michael W. Deem and Ramdas Pophale) SiO2 
 PCOD8235789
Probable space group: P N N M
;
_chemical_formula_sum "Si O2"
_cell_formula_units_Z 56
_cell_length_a 11.484569
_cell_length_b 16.746066
_cell_length_c 15.084760
_cell_angle_alpha 90.000000
_cell_angle_beta 90.000000
_cell_angle_gamma 90.000000
_cell_volume 2901.121414
_symmetry_space_group_name_H-M "P N N M"
_symmetry_group_IT_number 58
_symmetry_cell_setting 'orthorhombic'
loop_
_space_group_symop_operation_xyz
x,y,z
-x,-y,z
1/2+x,1/2-y,1/2-z
1/2-x,1/2+y,1/2-z
-x,-y,-z
x,y,-z
1/2-x,1/2+y,1/2+z
1/2+x,1/2-y,1/2+z
loop_
_atom_site_type_symbol
_atom_site_label
_atom_site_fract_x
_atom_site_fract_y
_atom_site_fract_z
Si Si1 0.625175 0.529926 0.220281
Si Si2 0.255333 0.127175 0.267972
Si Si3 0.285626 0.325022 0.101935
Si Si4 0.107845 0.887455 0.096073
Si Si5 0.087366 0.213444 0.151496
Si Si6 0.541754 0.789704 0.807472
Si Si7 0.186865 0.267066 0.601455
O O1 0.500000 0.500000 0.181750
O O2 0.724367 0.463034 0.207098
O O3 0.678382 0.602563 0.165048
O O4 0.602200 0.549726 0.323867
O O5 0.183272 0.149924 0.181094
O O6 0.392122 0.136188 0.241088
O O7 0.218248 0.186036 0.347366
O O8 0.151967 0.294337 0.117525
O O9 0.371131 0.252717 0.124317
O O10 0.299705 0.351150 0.000000
O O11 0.213321 0.829659 0.118145
O O12 0.992415 0.832879 0.081275
O O13 0.126955 0.930578 0.000000
O O14 0.998290 0.229021 0.231682
O O15 0.427352 0.813628 0.862455
O O16 0.169400 0.242580 0.500000
#
# Coordination Sequence:
#
# PCOD8235789 Si02
#       7
#     8   8   8   8   8   8   8
#     4  12  22  39  57  88 128 158 192 244 310 375
#     4  10  20  34  60  83 118 158 191 238 303 360
#     4  11  23  37  60  91 120 153 200 252 300 351
#     4  11  21  38  62  86 115 156 205 253 296 351
#     4  10  18  39  60  85 113 150 203 247 285 344
#     4  10  18  36  60  83 114 154 200 245 292 350
#     4  10  20  36  60  87 113 152 208 250 289 353
#
# _framework density 19.302879999999998
#
# number of rings (size 3 to 8) (size 9 to 14) (size 15 to 20)
#    0.000    1.429    4.286    3.429    0.000    1.143 
#    0.000    4.286    0.000    2.571    0.000    0.000 
#    0.000    0.000    0.000    0.000    0.000    0.000 
#
# Total GULP energy -693909.042865 kJ/mol
# GULP energy per Si atom -12391.232908 kJ/mol
# Density = 1.925895 g / cm^3
# Si number density = 19.302880 Si / 1000 Ang^3
#
#
#
# Elastic Constant Matrix: (Units=GPa)
#
#
# Indices 1 2 3 4 5 6 
#
# 1 84.5536 14.5345 31.7904 0.0000 0.0000 0.0000
# 2 14.5345 45.3090 18.5012 0.0000 0.0000 0.0000
# 3 31.7904 18.5012 95.7372 0.0000 0.0000 0.0000
# 4 0.0000 0.0000 0.0000 15.6935 0.0000 0.0000
# 5 0.0000 0.0000 0.0000 0.0000 17.0475 0.0000
# 6 0.0000 0.0000 0.0000 0.0000 0.0000 28.5699
#
#
#
# Elastic Compliance Matrix: (Units=1/GPa)
#
#
# Indices 1 2 3 4 5 6 
#
# 1 0.013829 -0.002781 -0.004055 0.000000 0.000000 0.000000
# 2 -0.002781 0.024521 -0.003815 0.000000 0.000000 0.000000
# 3 -0.004055 -0.003815 0.012529 0.000000 0.000000 0.000000
# 4 0.000000 0.000000 0.000000 0.063721 0.000000 0.000000
# 5 0.000000 0.000000 0.000000 0.000000 0.058660 0.000000
# 6 0.000000 0.000000 0.000000 0.000000 0.000000 0.035002
#
#
# Mechanical properties :
#
#
# Convention : Reuss Voigt Hill
#
# Bulk Modulus (GPa) = 33.80938 39.47243 36.64091
# Shear Modulus (GPa) = 20.88367 22.98043 21.93205
#
# Velocity S-wave (km/s) = 3.29278 3.45413 3.37442
# Velocity P-wave (km/s) = 5.65772 6.03336 5.84856
#
# Compressibility (1/GPa) = 0.02957759
#
# Stress axis : x y z
#
# Youngs Moduli (GPa) = 72.31026 40.78216 79.81481
#
# Poissons Ratio (x) = 0.11340 0.32363
# Poissons Ratio (y) = 0.20106 0.30452
# Poissons Ratio (z) = 0.29320 0.15560
#
# Static dielectric constant tensor:
#      x y z
#    x 3.914760 0.000000 0.000000 
#    y 0.000000 3.270090 0.000000 
#    z 0.000000 0.000000 3.561610 
# 
# 
# High freq. dielectric constant tensor:
#      x y z
#    x 1.766040 0.000000 0.000000 
#    y 0.000000 1.719130 0.000000 
#    z 0.000000 0.000000 1.753640 
# 
# From -- ./inp_files/21264.got.cif
#   From: 2010.06.25/outbox.cif.g09.slc.cpg/sg58_11_cif.got.tgz:21264.got - 2010.06.26 21:38:00.
