data_PCOD8235996
_publ_section_title
;
Structure prediction by ZEFSAII (Michael W. Deem and Ramdas Pophale) SiO2 
 PCOD8235996
Probable space group: P N N M
;
_chemical_formula_sum "Si O2"
_cell_formula_units_Z 64
_cell_length_a 21.879298
_cell_length_b 11.896365
_cell_length_c 13.713250
_cell_angle_alpha 90.000000
_cell_angle_beta 90.000000
_cell_angle_gamma 90.000000
_cell_volume 3569.341139
_symmetry_space_group_name_H-M "P N N M"
_symmetry_group_IT_number 58
_symmetry_cell_setting 'orthorhombic'
loop_
_space_group_symop_operation_xyz
x,y,z
-x,-y,z
1/2+x,1/2-y,1/2-z
1/2-x,1/2+y,1/2-z
-x,-y,-z
x,y,-z
1/2-x,1/2+y,1/2+z
1/2+x,1/2-y,1/2+z
loop_
_atom_site_type_symbol
_atom_site_label
_atom_site_fract_x
_atom_site_fract_y
_atom_site_fract_z
Si Si1 0.788180 0.733984 0.701291
Si Si2 0.853187 0.532501 0.387909
Si Si3 0.976969 0.665447 0.610644
Si Si4 0.401968 0.168782 0.783050
Si Si5 0.323495 0.131160 0.613646
Si Si6 0.372730 0.390090 0.890793
Si Si7 0.395330 0.635003 0.888651
Si Si8 0.268516 0.889476 0.390948
O O1 0.799687 0.613235 0.650692
O O2 0.725932 0.785054 0.660192
O O3 0.843350 0.819689 0.683369
O O4 0.784547 0.711439 0.817255
O O5 0.840761 0.510523 0.500000
O O6 0.918703 0.588989 0.367733
O O7 0.852141 0.411564 0.335716
O O8 0.001056 0.644905 0.500000
O O9 0.958143 0.795906 0.625037
O O10 0.029423 0.632599 0.687636
O O11 0.388419 0.156306 0.667578
O O12 0.392278 0.296808 0.814461
O O13 0.331079 0.158263 0.500000
O O14 0.306751 0.001539 0.631983
O O15 0.409579 0.504763 0.867240
O O16 0.302072 0.422773 0.881293
O O17 0.388316 0.347089 0.000000
O O18 0.371055 0.651839 0.000000
O O19 0.283395 0.845916 0.500000
#
# Coordination Sequence:
#
# PCOD8235996 Si02
#       8
#     8   8   8   8   8   8   8   8
#     4  11  18  34  57  78 101 139 176 210 258 318
#     4  10  20  33  53  81 107 136 174 219 268 319
#     4   9  19  34  52  77 106 137 173 220 274 319
#     4  12  21  32  51  76 110 140 172 214 267 310
#     4  11  22  36  53  75 108 145 177 210 258 319
#     4  10  19  31  50  77 108 138 169 210 261 313
#     4   9  18  33  55  78 104 140 178 213 261 326
#     4  10  20  34  51  76 111 140 169 215 261 307
#
# _framework density 17.930479999999999
#
# number of rings (size 3 to 8) (size 9 to 14) (size 15 to 20)
#    0.000    1.750    3.750    3.375    0.000    1.500 
#    0.000    1.875    0.000    5.250    0.000    0.875 
#    0.000    0.000    0.000    0.000    0.000    0.000 
#
# Total GULP energy -793552.011477 kJ/mol
# GULP energy per Si atom -12399.250179 kJ/mol
# Density = 1.788967 g / cm^3
# Si number density = 17.930480 Si / 1000 Ang^3
#
#
#
# Elastic Constant Matrix: (Units=GPa)
#
#
# Indices 1 2 3 4 5 6 
#
# 1 46.5136 -0.4757 30.8713 0.0000 0.0000 0.0000
# 2 -0.4757 76.2268 34.4224 0.0000 0.0000 0.0000
# 3 30.8713 34.4224 117.5724 0.0000 0.0000 0.0000
# 4 0.0000 0.0000 0.0000 29.1953 0.0000 0.0000
# 5 0.0000 0.0000 0.0000 0.0000 27.3040 0.0000
# 6 0.0000 0.0000 0.0000 0.0000 0.0000 19.7985
#
#
#
# Elastic Compliance Matrix: (Units=1/GPa)
#
#
# Indices 1 2 3 4 5 6 
#
# 1 0.026998 0.003883 -0.008226 0.000000 0.000000 0.000000
# 2 0.003883 0.015676 -0.005609 0.000000 0.000000 0.000000
# 3 -0.008226 -0.005609 0.012308 0.000000 0.000000 0.000000
# 4 0.000000 0.000000 0.000000 0.034252 0.000000 0.000000
# 5 0.000000 0.000000 0.000000 0.000000 0.036625 0.000000
# 6 0.000000 0.000000 0.000000 0.000000 0.000000 0.050509
#
#
# Mechanical properties :
#
#
# Convention : Reuss Voigt Hill
#
# Bulk Modulus (GPa) = 28.50790 41.10541 34.80666
# Shear Modulus (GPa) = 24.04261 26.95922 25.50091
#
# Velocity S-wave (km/s) = 3.66577 3.88176 3.77531
# Velocity P-wave (km/s) = 5.81815 6.56242 6.20146
#
# Compressibility (1/GPa) = 0.03507799
#
# Stress axis : x y z
#
# Youngs Moduli (GPa) = 37.03927 63.79204 81.25116
#
# Poissons Ratio (x) = -0.24771 0.66837
# Poissons Ratio (y) = -0.14383 0.45575
# Poissons Ratio (z) = 0.30468 0.35782
#
# Static dielectric constant tensor:
#      x y z
#    x 3.171170 0.000000 0.000000 
#    y 0.000000 3.427240 0.000000 
#    z 0.000000 0.000000 3.296610 
# 
# 
# High freq. dielectric constant tensor:
#      x y z
#    x 1.672320 0.000000 0.000000 
#    y 0.000000 1.705930 0.000000 
#    z 0.000000 0.000000 1.674870 
# 
# From -- ./inp_files/17533.got.cif
#   From: 2010.06.25/outbox.cif.g09.slc.cpg/sg58_9_cif.got.tgz:17533.got - 2010.06.26 21:38:00.
