data_PCOD8235884
_publ_section_title
;
Structure prediction by ZEFSAII (Michael W. Deem and Ramdas Pophale) SiO2 
 PCOD8235884
Probable space group: P N N M
;
_chemical_formula_sum "Si O2"
_cell_formula_units_Z 56
_cell_length_a 20.062110
_cell_length_b 17.290608
_cell_length_c 9.205983
_cell_angle_alpha 90.000000
_cell_angle_beta 90.000000
_cell_angle_gamma 90.000000
_cell_volume 3193.427352
_symmetry_space_group_name_H-M "P N N M"
_symmetry_group_IT_number 58
_symmetry_cell_setting 'orthorhombic'
loop_
_space_group_symop_operation_xyz
x,y,z
-x,-y,z
1/2+x,1/2-y,1/2-z
1/2-x,1/2+y,1/2-z
-x,-y,-z
x,y,-z
1/2-x,1/2+y,1/2+z
1/2+x,1/2-y,1/2+z
loop_
_atom_site_type_symbol
_atom_site_label
_atom_site_fract_x
_atom_site_fract_y
_atom_site_fract_z
Si Si1 0.652137 0.965618 0.671756
Si Si2 0.595088 0.129505 0.333339
Si Si3 0.882469 0.798630 0.165935
Si Si4 0.488324 0.622783 0.838088
Si Si5 0.106768 0.976041 0.663686
Si Si6 0.972166 0.414383 0.662849
Si Si7 0.211335 0.064357 0.827916
O O1 0.656014 0.951837 0.500000
O O2 0.593786 0.912615 0.738375
O O3 0.719002 0.937408 0.746983
O O4 0.640365 0.056165 0.710560
O O5 0.572015 0.120137 0.500000
O O6 0.637571 0.208606 0.310817
O O7 0.528870 0.137890 0.236472
O O8 0.954489 0.812149 0.239518
O O9 0.823870 0.855154 0.222427
O O10 0.894425 0.819370 0.000000
O O11 0.562822 0.598241 0.784750
O O12 0.441543 0.548627 0.836238
O O13 0.493891 0.656512 0.000000
O O14 0.134663 0.962709 0.500000
O O15 0.167411 0.991005 0.774506
O O16 0.956388 0.383886 0.500000
O O17 0.000000 0.500000 0.655849
O O18 0.222012 0.058702 0.000000
#
# Coordination Sequence:
#
# PCOD8235884 Si02
#       7
#     8   8   8   8   8   8   8
#     4  10  19  32  52  73  96 129 166 202 242 291
#     4   9  18  33  52  73  97 126 161 199 244 296
#     4   9  18  31  48  71  99 129 160 200 248 295
#     4   8  14  25  43  66  91 120 157 198 234 276
#     4   8  14  26  43  64  91 122 158 196 232 279
#     4   9  17  30  50  76  99 118 149 196 243 284
#     4  10  19  30  47  72 100 130 166 205 246 290
#
# _framework density 17.536017999999999
#
# number of rings (size 3 to 8) (size 9 to 14) (size 15 to 20)
#    0.000    3.000    0.000    2.143    0.000    4.000 
#    0.000    2.857    3.143    0.000    0.000    0.000 
#    0.000    0.000    0.000    0.000    0.000    0.000 
#
# Total GULP energy -693985.303323 kJ/mol
# GULP energy per Si atom -12392.594702 kJ/mol
# Density = 1.749611 g / cm^3
# Si number density = 17.536018 Si / 1000 Ang^3
#
#
#
# Elastic Constant Matrix: (Units=GPa)
#
#
# Indices 1 2 3 4 5 6 
#
# 1 111.8846 35.8745 56.8460 0.0000 0.0000 0.0000
# 2 35.8745 63.7204 29.5553 0.0000 0.0000 0.0000
# 3 56.8460 29.5553 90.1990 0.0000 0.0000 0.0000
# 4 0.0000 0.0000 0.0000 16.9875 0.0000 0.0000
# 5 0.0000 0.0000 0.0000 0.0000 33.8773 0.0000
# 6 0.0000 0.0000 0.0000 0.0000 0.0000 17.3418
#
#
#
# Elastic Compliance Matrix: (Units=1/GPa)
#
#
# Indices 1 2 3 4 5 6 
#
# 1 0.014174 -0.004524 -0.007450 0.000000 0.000000 0.000000
# 2 -0.004524 0.019950 -0.003686 0.000000 0.000000 0.000000
# 3 -0.007450 -0.003686 0.016990 0.000000 0.000000 0.000000
# 4 0.000000 0.000000 0.000000 0.058867 0.000000 0.000000
# 5 0.000000 0.000000 0.000000 0.000000 0.029518 0.000000
# 6 0.000000 0.000000 0.000000 0.000000 0.000000 0.057664
#
#
# Mechanical properties :
#
#
# Convention : Reuss Voigt Hill
#
# Bulk Modulus (GPa) = 50.52238 56.70618 53.61428
# Shear Modulus (GPa) = 21.26928 23.20988 22.23958
#
# Velocity S-wave (km/s) = 3.48644 3.64202 3.56508
# Velocity P-wave (km/s) = 6.71418 7.07763 6.89830
#
# Compressibility (1/GPa) = 0.01979321
#
# Stress axis : x y z
#
# Youngs Moduli (GPa) = 70.55319 50.12477 58.85925
#
# Poissons Ratio (x) = 0.22677 0.43852
# Poissons Ratio (y) = 0.31919 0.21694
# Poissons Ratio (z) = 0.52564 0.18475
#
# Static dielectric constant tensor:
#      x y z
#    x 3.282890 0.000000 0.000000 
#    y 0.000000 3.184910 0.000000 
#    z 0.000000 0.000000 3.431150 
# 
# 
# High freq. dielectric constant tensor:
#      x y z
#    x 1.662460 0.000000 0.000000 
#    y 0.000000 1.650120 0.000000 
#    z 0.000000 0.000000 1.682510 
# 
# From -- ./inp_files/9177.got.cif
#   From: 2010.06.25/outbox.cif.g09.slc.cpg/sg58_5_cif.got.tgz:9177.got - 2010.06.26 21:38:00.
