data_PCOD8235649
_publ_section_title
;
Structure prediction by ZEFSAII (Michael W. Deem and Ramdas Pophale) SiO2 
 PCOD8235649
Probable space group: P N N M
;
_chemical_formula_sum "Si O2"
_cell_formula_units_Z 56
_cell_length_a 12.501797
_cell_length_b 17.906595
_cell_length_c 13.186556
_cell_angle_alpha 90.000000
_cell_angle_beta 90.000000
_cell_angle_gamma 90.000000
_cell_volume 2952.003291
_symmetry_space_group_name_H-M "P N N M"
_symmetry_group_IT_number 58
_symmetry_cell_setting 'orthorhombic'
loop_
_space_group_symop_operation_xyz
x,y,z
-x,-y,z
1/2+x,1/2-y,1/2-z
1/2-x,1/2+y,1/2-z
-x,-y,-z
x,y,-z
1/2-x,1/2+y,1/2+z
1/2+x,1/2-y,1/2+z
loop_
_atom_site_type_symbol
_atom_site_label
_atom_site_fract_x
_atom_site_fract_y
_atom_site_fract_z
Si Si1 0.343201 0.197829 0.889554
Si Si2 0.380160 0.928454 0.286627
Si Si3 0.682927 0.636513 0.888780
Si Si4 0.592096 0.185331 0.119229
Si Si5 0.410096 0.083955 0.615042
Si Si6 0.964008 0.916641 0.616730
Si Si7 0.276067 0.670474 0.806560
O O1 0.286040 0.277745 0.895859
O O2 0.468458 0.206726 0.861811
O O3 0.272647 0.157337 0.805267
O O4 0.332478 0.157875 0.000000
O O5 0.261547 0.908493 0.318726
O O6 0.390113 0.895819 0.171967
O O7 0.470237 0.887457 0.356846
O O8 0.388875 0.018139 0.301219
O O9 0.562670 0.633422 0.845579
O O10 0.684125 0.597798 0.000000
O O11 0.671230 0.248886 0.167514
O O12 0.618099 0.178569 0.000000
O O13 0.408759 0.052318 0.500000
O O14 0.325102 0.151668 0.620830
O O15 0.934125 0.899675 0.500000
O O16 0.862122 0.895383 0.683330
O O17 0.000000 0.000000 0.636075
#
# Coordination Sequence:
#
# PCOD8235649 Si02
#       7
#     8   8   8   8   8   8   8
#     4  10  21  37  57  84 117 154 198 241 297 358
#     4  11  21  37  56  83 123 160 196 243 301 366
#     4  10  18  32  54  78 113 156 192 234 293 359
#     4  11  22  39  60  86 119 159 204 249 297 356
#     4  11  23  37  57  90 123 156 196 255 313 355
#     4  10  20  33  55  87 118 152 191 240 301 359
#     4  12  21  38  64  90 121 152 202 255 305 353
#
# _framework density 18.97017
#
# number of rings (size 3 to 8) (size 9 to 14) (size 15 to 20)
#    0.000    1.286    4.286    3.857    0.000    1.143 
#    0.000    2.143    0.000    1.286    0.000    0.000 
#    0.000    0.000    0.000    0.000    0.000    0.000 
#
# Total GULP energy -693755.064660 kJ/mol
# GULP energy per Si atom -12388.483298 kJ/mol
# Density = 1.892699 g / cm^3
# Si number density = 18.970170 Si / 1000 Ang^3
#
#
#
# Elastic Constant Matrix: (Units=GPa)
#
#
# Indices 1 2 3 4 5 6 
#
# 1 96.2738 24.1763 57.7350 0.0000 0.0000 0.0000
# 2 24.1763 57.1941 36.4777 0.0000 0.0000 0.0000
# 3 57.7350 36.4777 113.3682 0.0000 0.0000 0.0000
# 4 0.0000 0.0000 0.0000 26.0814 0.0000 0.0000
# 5 0.0000 0.0000 0.0000 0.0000 32.4488 0.0000
# 6 0.0000 0.0000 0.0000 0.0000 0.0000 31.2851
#
#
#
# Elastic Compliance Matrix: (Units=1/GPa)
#
#
# Indices 1 2 3 4 5 6 
#
# 1 0.015110 -0.001861 -0.007096 0.000000 0.000000 0.000000
# 2 -0.001861 0.022228 -0.006204 0.000000 0.000000 0.000000
# 3 -0.007096 -0.006204 0.014431 0.000000 0.000000 0.000000
# 4 0.000000 0.000000 0.000000 0.038342 0.000000 0.000000
# 5 0.000000 0.000000 0.000000 0.000000 0.030818 0.000000
# 6 0.000000 0.000000 0.000000 0.000000 0.000000 0.031964
#
#
# Mechanical properties :
#
#
# Convention : Reuss Voigt Hill
#
# Bulk Modulus (GPa) = 46.62952 55.95713 51.29333
# Shear Modulus (GPa) = 26.26538 27.85952 27.06245
#
# Velocity S-wave (km/s) = 3.72501 3.83638 3.78111
# Velocity P-wave (km/s) = 6.56770 7.01322 6.79411
#
# Compressibility (1/GPa) = 0.02144564
#
# Stress axis : x y z
#
# Youngs Moduli (GPa) = 66.18136 44.98802 69.29514
#
# Poissons Ratio (x) = 0.08373 0.49173
# Poissons Ratio (y) = 0.12318 0.42993
# Poissons Ratio (z) = 0.46964 0.27912
#
# Static dielectric constant tensor:
#      x y z
#    x 3.703920 0.000000 0.000000 
#    y 0.000000 3.488610 0.000000 
#    z 0.000000 0.000000 3.523650 
# 
# 
# High freq. dielectric constant tensor:
#      x y z
#    x 1.753750 0.000000 0.000000 
#    y 0.000000 1.718990 0.000000 
#    z 0.000000 0.000000 1.716980 
# 
# From -- ./inp_files/14593.got.cif
#   From: 2010.06.25/outbox.cif.g09.slc.cpg/sg58_8_cif.got.tgz:14593.got - 2010.06.26 21:38:00.
