data_PCOD8235665
_publ_section_title
;
Structure prediction by ZEFSAII (Michael W. Deem and Ramdas Pophale) SiO2 
 PCOD8235665
Probable space group: P N N M
;
_chemical_formula_sum "Si O2"
_cell_formula_units_Z 48
_cell_length_a 10.273595
_cell_length_b 29.083615
_cell_length_c 8.866770
_cell_angle_alpha 90.000000
_cell_angle_beta 90.000000
_cell_angle_gamma 90.000000
_cell_volume 2649.331306
_symmetry_space_group_name_H-M "P N N M"
_symmetry_group_IT_number 58
_symmetry_cell_setting 'orthorhombic'
loop_
_space_group_symop_operation_xyz
x,y,z
-x,-y,z
1/2+x,1/2-y,1/2-z
1/2-x,1/2+y,1/2-z
-x,-y,-z
x,y,-z
1/2-x,1/2+y,1/2+z
1/2+x,1/2-y,1/2+z
loop_
_atom_site_type_symbol
_atom_site_label
_atom_site_fract_x
_atom_site_fract_y
_atom_site_fract_z
Si Si1 0.516422 0.879365 0.322702
Si Si2 0.254181 0.385834 0.326864
Si Si3 0.490195 0.216307 0.822573
Si Si4 0.869347 0.020445 0.822242
Si Si5 0.711851 0.717834 0.672933
Si Si6 0.381790 0.032582 0.821705
O O1 0.531719 0.877069 0.500000
O O2 0.369520 0.891850 0.279262
O O3 0.557861 0.830245 0.255757
O O4 0.611798 0.918048 0.257579
O O5 0.206279 0.392163 0.500000
O O6 0.357113 0.425377 0.282342
O O7 0.319562 0.336162 0.305706
O O8 0.391591 0.256429 0.777064
O O9 0.639330 0.228314 0.775031
O O10 0.485854 0.208272 0.000000
O O11 0.747420 0.991997 0.759481
O O12 0.874490 0.013657 0.000000
O O13 0.000000 0.000000 0.747051
O O14 0.691423 0.732987 0.500000
O O15 0.500000 0.000000 0.772299
O O16 0.380744 0.040257 0.000000
#
# Coordination Sequence:
#
# PCOD8235665 Si02
#       6
#     8   8   8   8   8   8
#     4  11  21  33  54  81 109 138 181 228 271 316
#     4   9  17  34  56  78 108 144 182 219 266 321
#     4  10  21  38  59  81 110 144 182 223 272 331
#     4   9  17  31  53  79 108 140 178 219 259 315
#     4   9  19  35  56  81 110 141 180 229 274 320
#     4  10  18  32  55  79 105 139 180 220 261 315
#
# _framework density 18.117778999999999
#
# number of rings (size 3 to 8) (size 9 to 14) (size 15 to 20)
#    0.000    2.333    1.667    3.000    0.000    3.667 
#    3.000    0.000    0.000    2.000    0.000    0.000 
#    0.000    0.000    0.000    0.000    0.000    0.000 
#
# Total GULP energy -595171.097072 kJ/mol
# GULP energy per Si atom -12399.397856 kJ/mol
# Density = 1.807654 g / cm^3
# Si number density = 18.117779 Si / 1000 Ang^3
#
#
#
# Elastic Constant Matrix: (Units=GPa)
#
#
# Indices 1 2 3 4 5 6 
#
# 1 119.7233 75.7276 30.4880 0.0000 0.0000 0.0000
# 2 75.7276 135.5698 38.1395 0.0000 0.0000 0.0000
# 3 30.4880 38.1395 57.7102 0.0000 0.0000 0.0000
# 4 0.0000 0.0000 0.0000 27.9716 0.0000 0.0000
# 5 0.0000 0.0000 0.0000 0.0000 19.5451 0.0000
# 6 0.0000 0.0000 0.0000 0.0000 0.0000 32.8405
#
#
#
# Elastic Compliance Matrix: (Units=1/GPa)
#
#
# Indices 1 2 3 4 5 6 
#
# 1 0.013223 -0.006659 -0.002585 0.000000 0.000000 0.000000
# 2 -0.006659 0.012414 -0.004686 0.000000 0.000000 0.000000
# 3 -0.002585 -0.004686 0.021791 0.000000 0.000000 0.000000
# 4 0.000000 0.000000 0.000000 0.035751 0.000000 0.000000
# 5 0.000000 0.000000 0.000000 0.000000 0.051164 0.000000
# 6 0.000000 0.000000 0.000000 0.000000 0.000000 0.030450
#
#
# Mechanical properties :
#
#
# Convention : Reuss Voigt Hill
#
# Bulk Modulus (GPa) = 51.10545 66.85705 58.98125
# Shear Modulus (GPa) = 25.10358 27.31466 26.20912
#
# Velocity S-wave (km/s) = 3.72637 3.88702 3.80754
# Velocity P-wave (km/s) = 6.83981 7.55822 7.20797
#
# Compressibility (1/GPa) = 0.01956739
#
# Stress axis : x y z
#
# Youngs Moduli (GPa) = 75.62756 80.55251 45.89122
#
# Poissons Ratio (x) = 0.53639 0.11862
# Poissons Ratio (y) = 0.50359 0.21507
# Poissons Ratio (z) = 0.19548 0.37751
#
# Static dielectric constant tensor:
#      x y z
#    x 3.382850 0.000000 0.000000 
#    y 0.000000 3.506360 0.000000 
#    z 0.000000 0.000000 3.092150 
# 
# 
# High freq. dielectric constant tensor:
#      x y z
#    x 1.685900 0.000000 0.000000 
#    y 0.000000 1.714350 0.000000 
#    z 0.000000 0.000000 1.679850 
# 
# From -- ./inp_files/2847.got.cif
#   From: 2010.06.25/outbox.cif.g09.slc.cpg/sg58_2_cif.got.tgz:2847.got - 2010.06.26 21:38:00.
