data_PCOD8235326
_publ_section_title
;
Structure prediction by ZEFSAII (Michael W. Deem and Ramdas Pophale) SiO2 
 PCOD8235326
Probable space group: P N N M
;
_chemical_formula_sum "Si O2"
_cell_formula_units_Z 64
_cell_length_a 26.696296
_cell_length_b 18.162825
_cell_length_c 9.082671
_cell_angle_alpha 90.000000
_cell_angle_beta 90.000000
_cell_angle_gamma 90.000000
_cell_volume 4404.006899
_symmetry_space_group_name_H-M "P N N M"
_symmetry_group_IT_number 58
_symmetry_cell_setting 'orthorhombic'
loop_
_space_group_symop_operation_xyz
x,y,z
-x,-y,z
1/2+x,1/2-y,1/2-z
1/2-x,1/2+y,1/2-z
-x,-y,-z
x,y,-z
1/2-x,1/2+y,1/2+z
1/2+x,1/2-y,1/2+z
loop_
_atom_site_type_symbol
_atom_site_label
_atom_site_fract_x
_atom_site_fract_y
_atom_site_fract_z
Si Si1 0.357850 0.160318 0.333064
Si Si2 0.648857 0.172885 0.171431
Si Si3 0.944926 0.415602 0.326072
Si Si4 0.443469 0.919580 0.825225
Si Si5 0.256579 0.931143 0.834322
Si Si6 0.705230 0.292619 0.326676
Si Si7 0.790989 0.212709 0.833147
Si Si8 0.255217 0.080854 0.327387
O O1 0.371849 0.141404 0.500000
O O2 0.405833 0.143021 0.235638
O O3 0.344905 0.247732 0.313750
O O4 0.309770 0.112361 0.283122
O O5 0.598111 0.136518 0.236355
O O6 0.693506 0.115220 0.198676
O O7 0.657697 0.249043 0.259010
O O8 0.643595 0.192080 0.000000
O O9 0.941004 0.413341 0.500000
O O10 0.932469 0.497691 0.266839
O O11 0.001161 0.393669 0.275082
O O12 0.440365 0.922286 0.000000
O O13 0.208568 0.875940 0.814964
O O14 0.251431 0.996251 0.718916
O O15 0.258291 0.963484 0.000000
O O16 0.698256 0.300646 0.500000
O O17 0.754410 0.245954 0.288524
O O18 0.711526 0.373555 0.255353
O O19 0.770771 0.231457 0.000000
O O20 0.245891 0.087632 0.500000
#
# Coordination Sequence:
#
# PCOD8235326 Si02
#       8
#     8   8   8   8   8   8   8   8
#     4   9  17  28  40  55  78 108 135 160 197 237
#     4   9  16  28  43  57  79 110 137 162 200 241
#     4   9  16  27  42  59  78 103 138 172 196 224
#     4   8  15  27  42  58  78 106 137 167 198 232
#     4   9  16  26  42  61  78 101 134 167 196 231
#     4  10  18  27  40  58  78 101 134 170 198 230
#     4   8  16  30  42  54  78 108 133 160 199 242
#     4  10  19  29  40  56  81 109 134 162 199 241
#
# _framework density 14.532221
#
# number of rings (size 3 to 8) (size 9 to 14) (size 15 to 20)
#    0.000    3.000    0.000    4.500    0.000    5.500 
#    0.000    2.500    0.000    0.000    0.000    0.000 
#    0.000    1.000    0.000   11.500    0.000    3.500 
#
# Total GULP energy -793105.499391 kJ/mol
# GULP energy per Si atom -12392.273428 kJ/mol
# Density = 1.449914 g / cm^3
# Si number density = 14.532221 Si / 1000 Ang^3
#
#
#
# Elastic Constant Matrix: (Units=GPa)
#
#
# Indices 1 2 3 4 5 6 
#
# 1 84.7076 47.8798 29.2673 0.0000 0.0000 0.0000
# 2 47.8798 82.7289 37.1781 0.0000 0.0000 0.0000
# 3 29.2673 37.1781 56.8485 0.0000 0.0000 0.0000
# 4 0.0000 0.0000 0.0000 23.9033 0.0000 0.0000
# 5 0.0000 0.0000 0.0000 0.0000 17.6593 0.0000
# 6 0.0000 0.0000 0.0000 0.0000 0.0000 26.5579
#
#
#
# Elastic Compliance Matrix: (Units=1/GPa)
#
#
# Indices 1 2 3 4 5 6 
#
# 1 0.018018 -0.008865 -0.003479 0.000000 0.000000 0.000000
# 2 -0.008865 0.021480 -0.009484 0.000000 0.000000 0.000000
# 3 -0.003479 -0.009484 0.025584 0.000000 0.000000 0.000000
# 4 0.000000 0.000000 0.000000 0.041835 0.000000 0.000000
# 5 0.000000 0.000000 0.000000 0.000000 0.056627 0.000000
# 6 0.000000 0.000000 0.000000 0.000000 0.000000 0.037654
#
#
# Mechanical properties :
#
#
# Convention : Reuss Voigt Hill
#
# Bulk Modulus (GPa) = 46.66948 50.32616 48.49782
# Shear Modulus (GPa) = 19.84164 20.95475 20.39819
#
# Velocity S-wave (km/s) = 3.69908 3.80142 3.75060
# Velocity P-wave (km/s) = 7.10130 7.34668 7.22503
#
# Compressibility (1/GPa) = 0.02142728
#
# Stress axis : x y z
#
# Youngs Moduli (GPa) = 55.50053 46.55462 39.08689
#
# Poissons Ratio (x) = 0.41269 0.13598
# Poissons Ratio (y) = 0.49199 0.37070
# Poissons Ratio (z) = 0.19308 0.44152
#
# Static dielectric constant tensor:
#      x y z
#    x 2.780410 0.000000 0.000000 
#    y 0.000000 2.936810 0.000000 
#    z 0.000000 0.000000 2.674730 
# 
# 
# High freq. dielectric constant tensor:
#      x y z
#    x 1.522880 0.000000 0.000000 
#    y 0.000000 1.544760 0.000000 
#    z 0.000000 0.000000 1.548290 
# 
# From -- ./inp_files/8502.got.cif
#   From: 2010.06.25/outbox.cif.g09.slc.cpg/sg58_5_cif.got.tgz:8502.got - 2010.06.26 21:38:00.
