data_PCOD8235346
_publ_section_title
;
Structure prediction by ZEFSAII (Michael W. Deem and Ramdas Pophale) SiO2 
 PCOD8235346
Probable space group: P N N M
;
_chemical_formula_sum "Si O2"
_cell_formula_units_Z 64
_cell_length_a 19.155685
_cell_length_b 23.214998
_cell_length_c 9.087676
_cell_angle_alpha 90.000000
_cell_angle_beta 90.000000
_cell_angle_gamma 90.000000
_cell_volume 4041.282147
_symmetry_space_group_name_H-M "P N N M"
_symmetry_group_IT_number 58
_symmetry_cell_setting 'orthorhombic'
loop_
_space_group_symop_operation_xyz
x,y,z
-x,-y,z
1/2+x,1/2-y,1/2-z
1/2-x,1/2+y,1/2-z
-x,-y,-z
x,y,-z
1/2-x,1/2+y,1/2+z
1/2+x,1/2-y,1/2+z
loop_
_atom_site_type_symbol
_atom_site_label
_atom_site_fract_x
_atom_site_fract_y
_atom_site_fract_z
Si Si1 0.862546 0.719664 0.173615
Si Si2 0.509662 0.742448 0.674261
Si Si3 0.126960 0.061304 0.327536
Si Si4 0.496064 0.387619 0.327242
Si Si5 0.792550 0.825450 0.328857
Si Si6 0.840425 0.263578 0.171900
Si Si7 0.751384 0.156536 0.827456
Si Si8 0.650235 0.554234 0.670820
O O1 0.834561 0.780677 0.230337
O O2 0.823036 0.665374 0.246773
O O3 0.944482 0.717183 0.218956
O O4 0.852105 0.716819 0.000000
O O5 0.514179 0.737489 0.500000
O O6 0.499565 0.677438 0.734681
O O7 0.581597 0.769790 0.740373
O O8 0.114665 0.056240 0.500000
O O9 0.052806 0.073169 0.253212
O O10 0.183189 0.110644 0.287927
O O11 0.159180 0.002445 0.267566
O O12 0.511431 0.390725 0.500000
O O13 0.420265 0.412282 0.288478
O O14 0.806978 0.810964 0.500000
O O15 0.709310 0.818576 0.294230
O O16 0.803527 0.205884 0.233190
O O17 0.850716 0.254759 0.000000
O O18 0.783687 0.094558 0.790356
O O19 0.738742 0.164260 0.000000
O O20 0.650282 0.537107 0.500000
#
# Coordination Sequence:
#
# PCOD8235346 Si02
#       8
#     8   8   8   8   8   8   8   8
#     4  10  18  27  45  70  93 114 141 182 233 271
#     4   9  15  25  45  70  90 113 146 187 222 256
#     4  11  22  32  43  65  96 126 153 189 237 271
#     4  10  18  31  47  65  89 121 163 193 212 256
#     4   9  18  31  46  63  87 122 155 184 222 268
#     4   8  13  26  47  65  83 110 149 188 217 257
#     4   9  17  31  48  65  87 117 153 188 224 266
#     4  10  20  33  50  66  84 123 169 196 216 257
#
# _framework density 15.836558999999999
#
# number of rings (size 3 to 8) (size 9 to 14) (size 15 to 20)
#    0.000    2.500    2.500    1.875    0.000    3.000 
#    0.000    0.000    0.000    6.000    0.000    0.875 
#    0.000    7.000    0.000    0.000    0.000    0.000 
#
# Total GULP energy -793282.855870 kJ/mol
# GULP energy per Si atom -12395.044623 kJ/mol
# Density = 1.580051 g / cm^3
# Si number density = 15.836559 Si / 1000 Ang^3
#
#
#
# Elastic Constant Matrix: (Units=GPa)
#
#
# Indices 1 2 3 4 5 6 
#
# 1 96.2055 30.9217 28.4469 0.0000 0.0000 0.0000
# 2 30.9217 59.2436 25.9277 0.0000 0.0000 0.0000
# 3 28.4469 25.9277 39.7290 0.0000 0.0000 0.0000
# 4 0.0000 0.0000 0.0000 16.5414 0.0000 0.0000
# 5 0.0000 0.0000 0.0000 0.0000 19.1066 0.0000
# 6 0.0000 0.0000 0.0000 0.0000 0.0000 23.9049
#
#
#
# Elastic Compliance Matrix: (Units=1/GPa)
#
#
# Indices 1 2 3 4 5 6 
#
# 1 0.013845 -0.004042 -0.007275 0.000000 0.000000 0.000000
# 2 -0.004042 0.024808 -0.013296 0.000000 0.000000 0.000000
# 3 -0.007275 -0.013296 0.039057 0.000000 0.000000 0.000000
# 4 0.000000 0.000000 0.000000 0.060454 0.000000 0.000000
# 5 0.000000 0.000000 0.000000 0.000000 0.052338 0.000000
# 6 0.000000 0.000000 0.000000 0.000000 0.000000 0.041832
#
#
# Mechanical properties :
#
#
# Convention : Reuss Voigt Hill
#
# Bulk Modulus (GPa) = 35.10833 40.64119 37.87476
# Shear Modulus (GPa) = 17.17886 19.23603 18.20744
#
# Velocity S-wave (km/s) = 3.29714 3.48898 3.39442
# Velocity P-wave (km/s) = 6.05906 6.47682 6.27142
#
# Compressibility (1/GPa) = 0.02848327
#
# Stress axis : x y z
#
# Youngs Moduli (GPa) = 72.22902 40.30949 25.60373
#
# Poissons Ratio (x) = 0.16294 0.18627
# Poissons Ratio (y) = 0.29196 0.34042
# Poissons Ratio (z) = 0.52549 0.53595
#
# Static dielectric constant tensor:
#      x y z
#    x 3.345480 0.000000 0.000000 
#    y 0.000000 2.913040 0.000000 
#    z 0.000000 0.000000 2.822140 
# 
# 
# High freq. dielectric constant tensor:
#      x y z
#    x 1.609590 0.000000 0.000000 
#    y 0.000000 1.582260 0.000000 
#    z 0.000000 0.000000 1.589200 
# 
# From -- ./inp_files/9397.got.cif
#   From: 2010.06.25/outbox.cif.g09.slc.cpg/sg58_5_cif.got.tgz:9397.got - 2010.06.26 21:38:00.
