data_PCOD8235113
_publ_section_title
;
Structure prediction by ZEFSAII (Michael W. Deem and Ramdas Pophale) SiO2 
 PCOD8235113
Probable space group: P B C M
;
_chemical_formula_sum "Si O2"
_cell_formula_units_Z 40
_cell_length_a 5.174851
_cell_length_b 30.395835
_cell_length_c 10.789430
_cell_angle_alpha 90.000000
_cell_angle_beta 90.000000
_cell_angle_gamma 90.000000
_cell_volume 1697.111708
_symmetry_space_group_name_H-M "P B C M"
_symmetry_group_IT_number 57
_symmetry_cell_setting 'orthorhombic'
loop_
_space_group_symop_operation_xyz
x,y,z
-x,-y,1/2+z
x,1/2-y,-z
-x,1/2+y,1/2-z
-x,-y,-z
x,y,1/2-z
-x,1/2+y,z
x,1/2-y,1/2+z
loop_
_atom_site_type_symbol
_atom_site_label
_atom_site_fract_x
_atom_site_fract_y
_atom_site_fract_z
Si Si1 0.768634 0.199188 0.499190
Si Si2 0.613040 0.565768 0.991782
Si Si3 0.713077 0.841206 0.892781
Si Si4 0.338975 0.651720 0.750000
Si Si5 0.815975 0.013483 0.609872
Si Si6 0.154191 0.407716 0.250000
O O1 0.845158 0.250000 0.500000
O O2 0.024565 0.173076 0.459574
O O3 0.676481 0.183588 0.633070
O O4 0.524578 0.192761 0.407080
O O5 0.342095 0.557904 0.921086
O O6 0.830821 0.563057 0.878957
O O7 0.610324 0.613714 0.048950
O O8 0.630656 0.529943 0.102366
O O9 0.781389 0.847632 0.750000
O O10 0.113863 0.616573 0.750000
O O11 0.613872 0.627245 0.750000
O O12 0.928989 0.018015 0.750000
O O13 0.000000 0.000000 0.500000
#
# Coordination Sequence:
#
# PCOD8235113 Si02
#       6
#     8   8   8   4   8   4
#     4  12  27  48  73 110 145 189 240 298 360 428
#     4  11  25  46  68 101 142 187 244 290 359 426
#     4  12  27  48  74 106 148 194 237 296 364 431
#     4  12  24  46  76 108 136 188 242 302 352 426
#     4  11  27  44  71 105 143 188 239 302 362 429
#     4  12  24  44  76 104 142 184 252 292 358 428
#
# _framework density 23.569455000000001
#
# number of rings (size 3 to 8) (size 9 to 14) (size 15 to 20)
#    0.000    0.400    5.000    1.800    9.800    1.600 
#    0.000    0.000    0.000    0.000    0.000    0.000 
#    0.000    0.000    0.000    0.000    0.000    0.000 
#
# Total GULP energy -496001.203809 kJ/mol
# GULP energy per Si atom -12400.030095 kJ/mol
# Density = 2.351581 g / cm^3
# Si number density = 23.569455 Si / 1000 Ang^3
#
#
#
# Elastic Constant Matrix: (Units=GPa)
#
#
# Indices 1 2 3 4 5 6 
#
# 1 119.6277 35.8536 40.6226 0.0000 0.0000 0.0000
# 2 35.8536 109.1440 64.9720 0.0000 0.0000 0.0000
# 3 40.6226 64.9720 161.7528 0.0000 0.0000 0.0000
# 4 0.0000 0.0000 0.0000 33.6026 0.0000 0.0000
# 5 0.0000 0.0000 0.0000 0.0000 34.6299 0.0000
# 6 0.0000 0.0000 0.0000 0.0000 0.0000 23.4421
#
#
#
# Elastic Compliance Matrix: (Units=1/GPa)
#
#
# Indices 1 2 3 4 5 6 
#
# 1 0.009539 -0.002244 -0.001494 0.000000 0.000000 0.000000
# 2 -0.002244 0.012569 -0.004485 0.000000 0.000000 0.000000
# 3 -0.001494 -0.004485 0.008359 0.000000 0.000000 0.000000
# 4 0.000000 0.000000 0.000000 0.029760 0.000000 0.000000
# 5 0.000000 0.000000 0.000000 0.000000 0.028877 0.000000
# 6 0.000000 0.000000 0.000000 0.000000 0.000000 0.042658
#
#
# Mechanical properties :
#
#
# Convention : Reuss Voigt Hill
#
# Bulk Modulus (GPa) = 71.32375 74.82455 73.07415
# Shear Modulus (GPa) = 32.70469 34.94000 33.82234
#
# Velocity S-wave (km/s) = 3.72908 3.85441 3.79226
# Velocity P-wave (km/s) = 6.99057 7.18498 7.08844
#
# Compressibility (1/GPa) = 0.01402058
#
# Stress axis : x y z
#
# Youngs Moduli (GPa) = 104.82977 79.55840 119.62940
#
# Poissons Ratio (x) = 0.17854 0.17876
# Poissons Ratio (y) = 0.23525 0.53656
# Poissons Ratio (z) = 0.15665 0.35684
#
# Static dielectric constant tensor:
#      x y z
#    x 4.473280 0.000000 0.000000 
#    y 0.000000 6.085380 0.000000 
#    z 0.000000 0.000000 2.762530 
# 
# 
# High freq. dielectric constant tensor:
#      x y z
#    x 1.955440 0.000000 0.000000 
#    y 0.000000 1.945770 0.000000 
#    z 0.000000 0.000000 1.949110 
# 
# From -- ./inp_files/10967.got.cif
#   From: 2010.03.12/outbox.cif.g09.slc.cpg/sg57_6_cif.got.tgz:10967.got - 2010.04.16 15:48:40.
