data_PCOD8235753
_publ_section_title
;
Structure prediction by ZEFSAII (Michael W. Deem and Ramdas Pophale) SiO2 
 PCOD8235753
Probable space group: P N N M
;
_chemical_formula_sum "Si O2"
_cell_formula_units_Z 64
_cell_length_a 20.332554
_cell_length_b 19.253813
_cell_length_c 8.563594
_cell_angle_alpha 90.000000
_cell_angle_beta 90.000000
_cell_angle_gamma 90.000000
_cell_volume 3352.468864
_symmetry_space_group_name_H-M "P N N M"
_symmetry_group_IT_number 58
_symmetry_cell_setting 'orthorhombic'
loop_
_space_group_symop_operation_xyz
x,y,z
-x,-y,z
1/2+x,1/2-y,1/2-z
1/2-x,1/2+y,1/2-z
-x,-y,-z
x,y,-z
1/2-x,1/2+y,1/2+z
1/2+x,1/2-y,1/2+z
loop_
_atom_site_type_symbol
_atom_site_label
_atom_site_fract_x
_atom_site_fract_y
_atom_site_fract_z
Si Si1 0.068872 0.038570 0.678218
Si Si2 0.633283 0.825036 0.317449
Si Si3 0.010306 0.329939 0.682338
Si Si4 0.006945 0.175236 0.683162
Si Si5 0.313515 0.456998 0.318292
Si Si6 0.686477 0.959432 0.182234
Si Si7 0.566941 0.038925 0.319442
Si Si8 0.859541 0.181117 0.315731
O O1 0.095162 0.038608 0.500000
O O2 0.056979 0.116603 0.746513
O O3 0.121316 0.001237 0.786713
O O4 0.000000 0.000000 0.687759
O O5 0.618092 0.824727 0.500000
O O6 0.565713 0.839705 0.226382
O O7 0.683112 0.887108 0.276070
O O8 0.665788 0.752108 0.265005
O O9 0.017923 0.346226 0.500000
O O10 0.033895 0.251763 0.723434
O O11 0.057639 0.380020 0.780322
O O12 0.000840 0.163064 0.500000
O O13 0.933083 0.165904 0.749957
O O14 0.308064 0.440425 0.500000
O O15 0.251032 0.500321 0.258371
O O16 0.313508 0.383456 0.228512
O O17 0.624033 0.007869 0.213952
O O18 0.690885 0.942429 0.000000
O O19 0.585429 0.029004 0.500000
O O20 0.500000 0.000000 0.275643
O O21 0.859110 0.193144 0.500000
#
# Coordination Sequence:
#
# PCOD8235753 Si02
#       8
#     8   8   8   8   8   8   8   8
#     4  10  18  34  59  84 113 151 193 232 282 348
#     4  11  21  35  57  87 117 146 190 243 287 335
#     4  10  19  33  56  84 116 153 191 233 290 350
#     4   8  16  31  53  84 113 144 189 233 273 338
#     4  11  24  39  56  86 120 151 195 245 288 336
#     4  11  24  41  59  81 115 158 198 235 286 354
#     4  11  22  36  57  86 115 143 188 245 293 340
#     4  10  19  36  60  84 113 152 193 232 286 350
#
# _framework density 19.090408
#
# number of rings (size 3 to 8) (size 9 to 14) (size 15 to 20)
#    0.000    1.750    2.500    3.750    0.000    2.750 
#    0.000    2.500    0.000    4.500    0.000    0.000 
#    0.000    0.000    0.000    0.000    0.000    0.000 
#
# Total GULP energy -793698.524873 kJ/mol
# GULP energy per Si atom -12401.539451 kJ/mol
# Density = 1.904696 g / cm^3
# Si number density = 19.090408 Si / 1000 Ang^3
#
#
#
# Elastic Constant Matrix: (Units=GPa)
#
#
# Indices 1 2 3 4 5 6 
#
# 1 64.8494 44.1755 15.3347 0.0000 0.0000 0.0000
# 2 44.1755 157.3091 23.4928 0.0000 0.0000 0.0000
# 3 15.3347 23.4928 44.2767 0.0000 0.0000 0.0000
# 4 0.0000 0.0000 0.0000 31.1248 0.0000 0.0000
# 5 0.0000 0.0000 0.0000 0.0000 21.4353 0.0000
# 6 0.0000 0.0000 0.0000 0.0000 0.0000 28.1992
#
#
#
# Elastic Compliance Matrix: (Units=1/GPa)
#
#
# Indices 1 2 3 4 5 6 
#
# 1 0.019774 -0.004920 -0.004238 0.000000 0.000000 0.000000
# 2 -0.004920 0.008128 -0.002609 0.000000 0.000000 0.000000
# 3 -0.004238 -0.002609 0.025437 0.000000 0.000000 0.000000
# 4 0.000000 0.000000 0.000000 0.032129 0.000000 0.000000
# 5 0.000000 0.000000 0.000000 0.000000 0.046652 0.000000
# 6 0.000000 0.000000 0.000000 0.000000 0.000000 0.035462
#
#
# Mechanical properties :
#
#
# Convention : Reuss Voigt Hill
#
# Bulk Modulus (GPa) = 33.55042 48.04904 40.79973
# Shear Modulus (GPa) = 24.86934 28.38068 26.62501
#
# Velocity S-wave (km/s) = 3.61323 3.85989 3.73859
# Velocity P-wave (km/s) = 5.91776 6.71482 6.32885
#
# Compressibility (1/GPa) = 0.02980588
#
# Stress axis : x y z
#
# Youngs Moduli (GPa) = 50.57147 123.02938 39.31252
#
# Poissons Ratio (x) = 0.60531 0.16661
# Poissons Ratio (y) = 0.24881 0.10256
# Poissons Ratio (z) = 0.21432 0.32095
#
# Static dielectric constant tensor:
#      x y z
#    x 3.307380 0.000000 0.000000 
#    y 0.000000 3.934040 0.000000 
#    z 0.000000 0.000000 3.358960 
# 
# 
# High freq. dielectric constant tensor:
#      x y z
#    x 1.705440 0.000000 0.000000 
#    y 0.000000 1.763970 0.000000 
#    z 0.000000 0.000000 1.737560 
# 
# From -- ./inp_files/8296.got.cif
#   From: 2010.06.25/outbox.cif.g09.slc.cpg/sg58_5_cif.got.tgz:8296.got - 2010.06.26 21:38:00.
