data_PCOD8235662
_publ_section_title
;
Structure prediction by ZEFSAII (Michael W. Deem and Ramdas Pophale) SiO2 
 PCOD8235662
Probable space group: P N N M
;
_chemical_formula_sum "Si O2"
_cell_formula_units_Z 64
_cell_length_a 12.887269
_cell_length_b 27.200112
_cell_length_c 9.422141
_cell_angle_alpha 90.000000
_cell_angle_beta 90.000000
_cell_angle_gamma 90.000000
_cell_volume 3302.791705
_symmetry_space_group_name_H-M "P N N M"
_symmetry_group_IT_number 58
_symmetry_cell_setting 'orthorhombic'
loop_
_space_group_symop_operation_xyz
x,y,z
-x,-y,z
1/2+x,1/2-y,1/2-z
1/2-x,1/2+y,1/2-z
-x,-y,-z
x,y,-z
1/2-x,1/2+y,1/2+z
1/2+x,1/2-y,1/2+z
loop_
_atom_site_type_symbol
_atom_site_label
_atom_site_fract_x
_atom_site_fract_y
_atom_site_fract_z
Si Si1 0.963087 0.944969 0.335149
Si Si2 0.352153 0.376290 0.168440
Si Si3 0.787728 0.306185 0.656640
Si Si4 0.966016 0.445830 0.665158
Si Si5 0.898537 0.735600 0.155472
Si Si6 0.878699 0.623156 0.832391
Si Si7 0.763790 0.911448 0.166817
Si Si8 0.567708 0.726970 0.168821
O O1 0.941164 0.933299 0.500000
O O2 0.856971 0.937315 0.249617
O O3 0.056106 0.911145 0.273034
O O4 0.000000 0.000000 0.312459
O O5 0.237291 0.394070 0.216764
O O6 0.372178 0.321064 0.224802
O O7 0.355606 0.376781 0.000000
O O8 0.820434 0.324946 0.500000
O O9 0.713096 0.259726 0.642412
O O10 0.746551 0.355670 0.731633
O O11 0.885529 0.278981 0.729443
O O12 0.989270 0.437187 0.500000
O O13 0.843905 0.439568 0.698321
O O14 0.000000 0.500000 0.713862
O O15 0.033258 0.406815 0.751750
O O16 0.889015 0.680092 0.210828
O O17 0.953974 0.772280 0.265118
O O18 0.952325 0.736153 0.000000
O O19 0.893039 0.615300 0.000000
O O20 0.791634 0.912003 0.000000
O O21 0.562080 0.726865 0.000000
#
# Coordination Sequence:
#
# PCOD8235662 Si02
#       8
#     8   8   8   8   8   8   8   8
#     4  10  22  38  58  84 112 143 183 236 286 328
#     4   9  18  35  57  83 114 148 188 232 279 333
#     4   9  17  32  53  75 103 142 179 209 259 325
#     4  10  23  41  59  83 115 148 187 241 292 332
#     4  10  19  32  51  79 112 141 176 226 268 310
#     4  10  20  36  59  85 113 148 191 232 277 341
#     4  10  21  38  58  80 110 147 186 226 277 343
#     4  10  18  32  55  78 106 149 188 216 262 329
#
# _framework density 19.377548000000001
#
# number of rings (size 3 to 8) (size 9 to 14) (size 15 to 20)
#    0.000    2.250    1.250    1.500    1.750    2.500 
#    0.000    2.500    0.000    0.000    0.000    0.000 
#    0.000    0.000    0.000    0.000    0.000    0.000 
#
# Total GULP energy -793078.718220 kJ/mol
# GULP energy per Si atom -12391.854972 kJ/mol
# Density = 1.933344 g / cm^3
# Si number density = 19.377548 Si / 1000 Ang^3
#
#
#
# Elastic Constant Matrix: (Units=GPa)
#
#
# Indices 1 2 3 4 5 6 
#
# 1 116.0313 41.5184 38.9378 0.0000 0.0000 0.0000
# 2 41.5184 107.9583 31.0108 0.0000 0.0000 0.0000
# 3 38.9378 31.0108 39.2012 0.0000 0.0000 0.0000
# 4 0.0000 0.0000 0.0000 16.6891 0.0000 0.0000
# 5 0.0000 0.0000 0.0000 0.0000 22.3548 0.0000
# 6 0.0000 0.0000 0.0000 0.0000 0.0000 35.2172
#
#
#
# Elastic Compliance Matrix: (Units=1/GPa)
#
#
# Indices 1 2 3 4 5 6 
#
# 1 0.013162 -0.001691 -0.011736 0.000000 0.000000 0.000000
# 2 -0.001691 0.012204 -0.007975 0.000000 0.000000 0.000000
# 3 -0.011736 -0.007975 0.043475 0.000000 0.000000 0.000000
# 4 0.000000 0.000000 0.000000 0.059919 0.000000 0.000000
# 5 0.000000 0.000000 0.000000 0.000000 0.044733 0.000000
# 6 0.000000 0.000000 0.000000 0.000000 0.000000 0.028395
#
#
# Mechanical properties :
#
#
# Convention : Reuss Voigt Hill
#
# Bulk Modulus (GPa) = 38.40544 54.01385 46.20964
# Shear Modulus (GPa) = 19.73405 24.96715 22.35060
#
# Velocity S-wave (km/s) = 3.19470 3.59340 3.39990
# Velocity P-wave (km/s) = 5.78539 6.71950 6.26986
#
# Compressibility (1/GPa) = 0.02603798
#
# Stress axis : x y z
#
# Youngs Moduli (GPa) = 75.97872 81.94223 23.00183
#
# Poissons Ratio (x) = 0.13853 0.26994
# Poissons Ratio (y) = 0.12845 0.18343
# Poissons Ratio (z) = 0.89167 0.65347
#
# Static dielectric constant tensor:
#      x y z
#    x 3.612300 0.000000 0.000000 
#    y 0.000000 3.657090 0.000000 
#    z 0.000000 0.000000 3.240220 
# 
# 
# High freq. dielectric constant tensor:
#      x y z
#    x 1.764850 0.000000 0.000000 
#    y 0.000000 1.766100 0.000000 
#    z 0.000000 0.000000 1.715260 
# 
# From -- ./inp_files/4803.got.cif
#   From: 2010.06.25/outbox.cif.g09.slc.cpg/sg58_3_cif.got.tgz:4803.got - 2010.06.26 21:38:00.
