data_PCOD8235068
_publ_section_title
;
Structure prediction by ZEFSAII (Michael W. Deem and Ramdas Pophale) SiO2 
 PCOD8235068
Probable space group: P B C M
;
_chemical_formula_sum "Si O2"
_cell_formula_units_Z 48
_cell_length_a 12.026735
_cell_length_b 9.013336
_cell_length_c 21.754217
_cell_angle_alpha 90.000000
_cell_angle_beta 90.000000
_cell_angle_gamma 90.000000
_cell_volume 2358.178954
_symmetry_space_group_name_H-M "P B C M"
_symmetry_group_IT_number 57
_symmetry_cell_setting 'orthorhombic'
loop_
_space_group_symop_operation_xyz
x,y,z
-x,-y,1/2+z
x,1/2-y,-z
-x,1/2+y,1/2-z
-x,-y,-z
x,y,1/2-z
-x,1/2+y,z
x,1/2-y,1/2+z
loop_
_atom_site_type_symbol
_atom_site_label
_atom_site_fract_x
_atom_site_fract_y
_atom_site_fract_z
Si Si1 0.745651 0.977221 0.879891
Si Si2 0.150935 0.407080 0.750000
Si Si3 0.868604 0.019273 0.378964
Si Si4 0.921638 0.566218 0.750000
Si Si5 0.304539 0.783150 0.570311
Si Si6 0.064564 0.292163 0.931118
Si Si7 0.457688 0.129461 0.044453
O O1 0.771740 0.928455 0.810145
O O2 0.837455 0.912796 0.926701
O O3 0.625530 0.919898 0.902163
O O4 0.744334 0.154780 0.885756
O O5 0.096673 0.243707 0.750000
O O6 0.054046 0.531082 0.750000
O O7 0.861096 0.016074 0.305878
O O8 0.902465 0.854944 0.396312
O O9 0.750284 0.061891 0.408471
O O10 0.956007 0.142236 0.399852
O O11 0.272800 0.750000 0.500000
O O12 0.436805 0.796642 0.578343
O O13 0.035442 0.250000 0.000000
O O14 0.398584 0.250000 0.000000
O O15 0.500000 0.000000 0.000000
#
# Coordination Sequence:
#
# PCOD8235068 Si02
#       7
#     8   4   8   4   8   8   8
#     4  12  24  44  69 101 137 183 234 286 342 412
#     4  12  28  46  71  99 140 190 237 284 329 422
#     4  12  24  41  65  97 138 178 229 279 341 421
#     4  12  24  48  65  97 136 192 231 272 345 416
#     4  11  24  43  69 106 138 175 226 285 351 414
#     4  12  24  39  65  99 136 176 222 293 354 407
#     4  11  23  44  74 102 136 179 225 287 355 417
#
# _framework density 20.354690000000002
#
# number of rings (size 3 to 8) (size 9 to 14) (size 15 to 20)
#    0.000    0.333    6.667    3.500    4.667    0.000 
#    0.000    1.667    0.000    0.000    0.000    0.000 
#    0.000    0.000    0.000    0.000    0.000    0.000 
#
# Total GULP energy -595294.415923 kJ/mol
# GULP energy per Si atom -12401.966998 kJ/mol
# Density = 2.030836 g / cm^3
# Si number density = 20.354690 Si / 1000 Ang^3
#
#
#
# Elastic Constant Matrix: (Units=GPa)
#
#
# Indices 1 2 3 4 5 6 
#
# 1 91.7984 34.1745 46.0264 0.0000 0.0000 0.0000
# 2 34.1745 75.3072 27.6113 0.0000 0.0000 0.0000
# 3 46.0264 27.6113 135.8409 0.0000 0.0000 0.0000
# 4 0.0000 0.0000 0.0000 37.8719 0.0000 0.0000
# 5 0.0000 0.0000 0.0000 0.0000 12.2197 0.0000
# 6 0.0000 0.0000 0.0000 0.0000 0.0000 35.4405
#
#
#
# Elastic Compliance Matrix: (Units=1/GPa)
#
#
# Indices 1 2 3 4 5 6 
#
# 1 0.014844 -0.005286 -0.003955 0.000000 0.000000 0.000000
# 2 -0.005286 0.016231 -0.001508 0.000000 0.000000 0.000000
# 3 -0.003955 -0.001508 0.009008 0.000000 0.000000 0.000000
# 4 0.000000 0.000000 0.000000 0.026405 0.000000 0.000000
# 5 0.000000 0.000000 0.000000 0.000000 0.081835 0.000000
# 6 0.000000 0.000000 0.000000 0.000000 0.000000 0.028216
#
#
# Mechanical properties :
#
#
# Convention : Reuss Voigt Hill
#
# Bulk Modulus (GPa) = 53.80817 57.61901 55.71359
# Shear Modulus (GPa) = 24.48178 30.11537 27.29858
#
# Velocity S-wave (km/s) = 3.47184 3.85064 3.66614
# Velocity P-wave (km/s) = 6.52413 6.93822 6.73436
#
# Compressibility (1/GPa) = 0.01858454
#
# Stress axis : x y z
#
# Youngs Moduli (GPa) = 67.36517 61.61146 111.01015
#
# Poissons Ratio (x) = 0.32569 0.43907
# Poissons Ratio (y) = 0.35611 0.16740
# Poissons Ratio (z) = 0.26644 0.09291
#
# Static dielectric constant tensor:
#      x y z
#    x 3.799680 0.000000 0.000000 
#    y 0.000000 4.043330 0.000000 
#    z 0.000000 0.000000 3.499430 
# 
# 
# High freq. dielectric constant tensor:
#      x y z
#    x 1.790250 0.000000 0.000000 
#    y 0.000000 1.818570 0.000000 
#    z 0.000000 0.000000 1.790900 
# 
# From -- ./inp_files/27149.got.cif
#   From: 2010.03.12/outbox.cif.g09.slc.cpg/sg57_14_cif.got.tgz:27149.got - 2010.04.16 15:48:40.
