data_PCOD8235869
_publ_section_title
;
Structure prediction by ZEFSAII (Michael W. Deem and Ramdas Pophale) SiO2 
 PCOD8235869
Probable space group: P N N M
;
_chemical_formula_sum "Si O2"
_cell_formula_units_Z 48
_cell_length_a 16.486732
_cell_length_b 18.121446
_cell_length_c 9.519220
_cell_angle_alpha 90.000000
_cell_angle_beta 90.000000
_cell_angle_gamma 90.000000
_cell_volume 2843.994758
_symmetry_space_group_name_H-M "P N N M"
_symmetry_group_IT_number 58
_symmetry_cell_setting 'orthorhombic'
loop_
_space_group_symop_operation_xyz
x,y,z
-x,-y,z
1/2+x,1/2-y,1/2-z
1/2-x,1/2+y,1/2-z
-x,-y,-z
x,y,-z
1/2-x,1/2+y,1/2+z
1/2+x,1/2-y,1/2+z
loop_
_atom_site_type_symbol
_atom_site_label
_atom_site_fract_x
_atom_site_fract_y
_atom_site_fract_z
Si Si1 0.511931 0.915757 0.336183
Si Si2 0.753029 0.055402 0.162373
Si Si3 0.652337 0.165303 0.665720
Si Si4 0.665498 0.903620 0.837804
Si Si5 0.413851 0.525827 0.667032
Si Si6 0.328480 0.669271 0.333415
O O1 0.531019 0.908357 0.500000
O O2 0.432754 0.870586 0.292215
O O3 0.587376 0.882210 0.252595
O O4 0.500000 0.000000 0.291071
O O5 0.725769 0.124083 0.256820
O O6 0.691284 0.988118 0.187323
O O7 0.843473 0.031794 0.210289
O O8 0.752542 0.079541 0.000000
O O9 0.668824 0.160176 0.500000
O O10 0.648620 0.249528 0.720201
O O11 0.737490 0.850400 0.784842
O O12 0.644715 0.889765 0.000000
O O13 0.500000 0.500000 0.731728
O O14 0.418991 0.529026 0.500000
O O15 0.391454 0.607679 0.725587
O O16 0.331533 0.664914 0.500000
#
# Coordination Sequence:
#
# PCOD8235869 Si02
#       6
#     8   8   8   8   8   8
#     4  10  19  30  46  72 100 124 156 190 229 285
#     4   9  17  29  48  73  94 117 156 198 234 275
#     4  10  19  32  48  67  98 132 155 187 236 288
#     4   9  17  31  50  68  90 124 161 193 227 276
#     4   8  14  28  50  72  92 117 157 204 237 268
#     4   8  16  31  48  66  91 126 161 189 232 285
#
# _framework density 16.877668
#
# number of rings (size 3 to 8) (size 9 to 14) (size 15 to 20)
#    0.000    3.000    1.667    2.000    0.000    1.000 
#    3.000    0.833    0.000    1.500    0.000    0.000 
#    0.000    0.000    0.000    0.000    0.000    0.000 
#
# Total GULP energy -595053.963725 kJ/mol
# GULP energy per Si atom -12396.957578 kJ/mol
# Density = 1.683925 g / cm^3
# Si number density = 16.877668 Si / 1000 Ang^3
#
#
#
# Elastic Constant Matrix: (Units=GPa)
#
#
# Indices 1 2 3 4 5 6 
#
# 1 144.2506 81.5930 39.5542 0.0000 0.0000 0.0000
# 2 81.5930 136.9687 31.7854 0.0000 0.0000 0.0000
# 3 39.5542 31.7854 29.2512 0.0000 0.0000 0.0000
# 4 0.0000 0.0000 0.0000 14.6806 0.0000 0.0000
# 5 0.0000 0.0000 0.0000 0.0000 13.8468 0.0000
# 6 0.0000 0.0000 0.0000 0.0000 0.0000 23.9998
#
#
#
# Elastic Compliance Matrix: (Units=1/GPa)
#
#
# Indices 1 2 3 4 5 6 
#
# 1 0.013122 -0.004946 -0.012369 0.000000 0.000000 0.000000
# 2 -0.004946 0.011627 -0.005946 0.000000 0.000000 0.000000
# 3 -0.012369 -0.005946 0.057373 0.000000 0.000000 0.000000
# 4 0.000000 0.000000 0.000000 0.068117 0.000000 0.000000
# 5 0.000000 0.000000 0.000000 0.000000 0.072219 0.000000
# 6 0.000000 0.000000 0.000000 0.000000 0.000000 0.041667
#
#
# Mechanical properties :
#
#
# Convention : Reuss Voigt Hill
#
# Bulk Modulus (GPa) = 28.08989 68.48175 48.28582
# Shear Modulus (GPa) = 15.50319 21.00797 18.25558
#
# Velocity S-wave (km/s) = 3.03407 3.53189 3.29240
# Velocity P-wave (km/s) = 5.38084 7.56940 6.56693
#
# Compressibility (1/GPa) = 0.03560000
#
# Stress axis : x y z
#
# Youngs Moduli (GPa) = 76.20917 86.00359 17.42973
#
# Poissons Ratio (x) = 0.42541 0.21558
# Poissons Ratio (y) = 0.37696 0.10364
# Poissons Ratio (z) = 0.94261 0.51139
#
# Static dielectric constant tensor:
#      x y z
#    x 3.279870 0.000000 0.000000 
#    y 0.000000 3.304260 0.000000 
#    z 0.000000 0.000000 2.778620 
# 
# 
# High freq. dielectric constant tensor:
#      x y z
#    x 1.655610 0.000000 0.000000 
#    y 0.000000 1.644130 0.000000 
#    z 0.000000 0.000000 1.612230 
# 
# From -- ./inp_files/6035.got.cif
#   From: 2010.06.25/outbox.cif.g09.slc.cpg/sg58_4_cif.got.tgz:6035.got - 2010.06.26 21:38:00.
