data_PCOD8235076
_publ_section_title
;
Structure prediction by ZEFSAII (Michael W. Deem and Ramdas Pophale) SiO2 
 PCOD8235076
Probable space group: P B C M
;
_chemical_formula_sum "Si O2"
_cell_formula_units_Z 40
_cell_length_a 25.509007
_cell_length_b 8.920321
_cell_length_c 8.678136
_cell_angle_alpha 90.000000
_cell_angle_beta 90.000000
_cell_angle_gamma 90.000000
_cell_volume 1974.697097
_symmetry_space_group_name_H-M "P B C M"
_symmetry_group_IT_number 57
_symmetry_cell_setting 'orthorhombic'
loop_
_space_group_symop_operation_xyz
x,y,z
-x,-y,1/2+z
x,1/2-y,-z
-x,1/2+y,1/2-z
-x,-y,-z
x,y,1/2-z
-x,1/2+y,z
x,1/2-y,1/2+z
loop_
_atom_site_type_symbol
_atom_site_label
_atom_site_fract_x
_atom_site_fract_y
_atom_site_fract_z
Si Si1 0.644459 0.087457 0.071630
Si Si2 0.845875 0.414212 0.431079
Si Si3 0.450955 0.413891 0.932023
Si Si4 0.950581 0.584909 0.432279
Si Si5 0.249435 0.409078 0.072486
O O1 0.627509 0.094914 0.250000
O O2 0.700932 0.014855 0.050664
O O3 0.647289 0.250000 0.000000
O O4 0.602679 0.993357 0.976766
O O5 0.841070 0.250000 0.500000
O O6 0.842320 0.398185 0.250000
O O7 0.899968 0.490371 0.483155
O O8 0.799349 0.519010 0.486809
O O9 0.456264 0.406275 0.750000
O O10 0.450404 0.250000 0.000000
O O11 0.500000 0.500000 0.000000
O O12 0.946021 0.750000 0.500000
O O13 0.956113 0.596523 0.250000
O O14 0.000000 0.500000 0.500000
O O15 0.234565 0.387559 0.250000
O O16 0.263415 0.250000 0.000000
#
# Coordination Sequence:
#
# PCOD8235076 Si02
#       5
#     8   8   8   8   8
#     4  11  24  42  64  93 126 163 206 253 305 363
#     4  11  24  41  63  91 124 161 204 252 305 363
#     4  12  25  43  66  93 126 164 206 254 307 364
#     4  11  24  41  63  91 123 161 203 252 305 363
#     4  11  24  41  64  92 125 163 205 253 306 363
#
# _framework density 20.256271000000002
#
# number of rings (size 3 to 8) (size 9 to 14) (size 15 to 20)
#    0.000    0.800    0.000    7.200    0.000   12.800 
#    0.000    0.000    0.000    0.000    0.000    0.000 
#    0.000    0.000    0.000    0.000    0.000    0.000 
#
# Total GULP energy -496282.837627 kJ/mol
# GULP energy per Si atom -12407.070941 kJ/mol
# Density = 2.021017 g / cm^3
# Si number density = 20.256271 Si / 1000 Ang^3
#
#
#
# Elastic Constant Matrix: (Units=GPa)
#
#
# Indices 1 2 3 4 5 6 
#
# 1 111.9163 39.0524 55.6380 0.0000 0.0000 0.0000
# 2 39.0524 149.5082 59.8008 0.0000 0.0000 0.0000
# 3 55.6380 59.8008 113.2168 0.0000 0.0000 0.0000
# 4 0.0000 0.0000 0.0000 39.8858 0.0000 0.0000
# 5 0.0000 0.0000 0.0000 0.0000 35.6928 0.0000
# 6 0.0000 0.0000 0.0000 0.0000 0.0000 50.5987
#
#
#
# Elastic Compliance Matrix: (Units=1/GPa)
#
#
# Indices 1 2 3 4 5 6 
#
# 1 0.011936 -0.000978 -0.005349 0.000000 0.000000 0.000000
# 2 -0.000978 0.008560 -0.004041 0.000000 0.000000 0.000000
# 3 -0.005349 -0.004041 0.013596 0.000000 0.000000 0.000000
# 4 0.000000 0.000000 0.000000 0.025072 0.000000 0.000000
# 5 0.000000 0.000000 0.000000 0.000000 0.028017 0.000000
# 6 0.000000 0.000000 0.000000 0.000000 0.000000 0.019763
#
#
# Mechanical properties :
#
#
# Convention : Reuss Voigt Hill
#
# Bulk Modulus (GPa) = 74.87381 75.95819 75.41600
# Shear Modulus (GPa) = 37.84117 39.91214 38.87665
#
# Velocity S-wave (km/s) = 4.32687 4.44369 4.38567
# Velocity P-wave (km/s) = 7.87438 7.99428 7.93456
#
# Compressibility (1/GPa) = 0.01335581
#
# Stress axis : x y z
#
# Youngs Moduli (GPa) = 83.78213 116.81723 73.55347
#
# Poissons Ratio (x) = 0.11427 0.39343
# Poissons Ratio (y) = 0.08196 0.29722
# Poissons Ratio (z) = 0.44814 0.47204
#
# Static dielectric constant tensor:
#      x y z
#    x 3.924050 0.000000 0.000000 
#    y 0.000000 3.955070 0.000000 
#    z 0.000000 0.000000 3.974070 
# 
# 
# High freq. dielectric constant tensor:
#      x y z
#    x 1.812070 0.000000 0.000000 
#    y 0.000000 1.815440 0.000000 
#    z 0.000000 0.000000 1.812160 
# 
# From -- ./inp_files/8856.got.cif
#   From: 2010.03.12/outbox.cif.g09.slc.cpg/sg57_5_cif.got.tgz:8856.got - 2010.04.16 15:48:40.
