data_PCOD8235569
_publ_section_title
;
Structure prediction by ZEFSAII (Michael W. Deem and Ramdas Pophale) SiO2 
 PCOD8235569
Probable space group: P N N M
;
_chemical_formula_sum "Si O2"
_cell_formula_units_Z 64
_cell_length_a 20.709051
_cell_length_b 19.730475
_cell_length_c 9.161122
_cell_angle_alpha 90.000000
_cell_angle_beta 90.000000
_cell_angle_gamma 90.000000
_cell_volume 3743.229072
_symmetry_space_group_name_H-M "P N N M"
_symmetry_group_IT_number 58
_symmetry_cell_setting 'orthorhombic'
loop_
_space_group_symop_operation_xyz
x,y,z
-x,-y,z
1/2+x,1/2-y,1/2-z
1/2-x,1/2+y,1/2-z
-x,-y,-z
x,y,-z
1/2-x,1/2+y,1/2+z
1/2+x,1/2-y,1/2+z
loop_
_atom_site_type_symbol
_atom_site_label
_atom_site_fract_x
_atom_site_fract_y
_atom_site_fract_z
Si Si1 0.563662 0.205964 0.172142
Si Si2 0.686444 0.708410 0.326666
Si Si3 0.228366 0.081171 0.168722
Si Si4 0.810400 0.789824 0.672032
Si Si5 0.880508 0.418370 0.331661
Si Si6 0.376272 0.930879 0.172024
Si Si7 0.934947 0.293149 0.826687
Si Si8 0.766746 0.067706 0.173718
O O1 0.624332 0.251828 0.217345
O O2 0.576611 0.128720 0.226775
O O3 0.501543 0.233499 0.258025
O O4 0.550355 0.209463 0.000000
O O5 0.688559 0.711103 0.500000
O O6 0.748918 0.748365 0.265505
O O7 0.621139 0.742909 0.268751
O O8 0.688303 0.629954 0.272449
O O9 0.188134 0.135348 0.260391
O O10 0.304520 0.089756 0.196305
O O11 0.206349 0.005920 0.222735
O O12 0.211596 0.091987 0.000000
O O13 0.804938 0.797179 0.500000
O O14 0.897611 0.402606 0.500000
O O15 0.903278 0.494538 0.289133
O O16 0.920040 0.368655 0.228140
O O17 0.304868 0.920905 0.239892
O O18 0.368741 0.923466 0.000000
O O19 0.939924 0.293165 0.000000
O O20 0.761383 0.066993 0.000000
#
# Coordination Sequence:
#
# PCOD8235569 Si02
#       8
#     8   8   8   8   8   8   8   8
#     4  10  20  34  52  71  94 130 172 207 236 280
#     4   9  16  29  50  73  95 124 163 202 239 283
#     4   9  17  28  49  78 102 121 149 202 252 284
#     4  10  18  31  53  75  96 127 164 201 242 291
#     4   9  17  30  48  71  98 128 161 195 235 286
#     4   8  14  27  48  71  93 122 164 205 232 268
#     4  11  22  33  47  70 102 134 160 199 249 292
#     4   8  13  26  49  75  96 118 159 205 240 277
#
# _framework density 17.097538
#
# number of rings (size 3 to 8) (size 9 to 14) (size 15 to 20)
#    0.000    2.750    2.500    1.875    0.000    1.000 
#    0.000    3.125    0.000    3.750    0.000    5.250 
#    0.000    0.000    0.000    0.000    0.000    0.000 
#
# Total GULP energy -793265.789046 kJ/mol
# GULP energy per Si atom -12394.777954 kJ/mol
# Density = 1.705862 g / cm^3
# Si number density = 17.097538 Si / 1000 Ang^3
#
#
#
# Elastic Constant Matrix: (Units=GPa)
#
#
# Indices 1 2 3 4 5 6 
#
# 1 112.8797 69.2104 36.2794 0.0000 0.0000 0.0000
# 2 69.2104 133.9333 30.0262 0.0000 0.0000 0.0000
# 3 36.2794 30.0262 30.4553 0.0000 0.0000 0.0000
# 4 0.0000 0.0000 0.0000 23.1655 0.0000 0.0000
# 5 0.0000 0.0000 0.0000 0.0000 17.1885 0.0000
# 6 0.0000 0.0000 0.0000 0.0000 0.0000 22.2958
#
#
#
# Elastic Compliance Matrix: (Units=1/GPa)
#
#
# Indices 1 2 3 4 5 6 
#
# 1 0.016966 -0.005438 -0.014848 0.000000 0.000000 0.000000
# 2 -0.005438 0.011328 -0.004690 0.000000 0.000000 0.000000
# 3 -0.014848 -0.004690 0.055147 0.000000 0.000000 0.000000
# 4 0.000000 0.000000 0.000000 0.043168 0.000000 0.000000
# 5 0.000000 0.000000 0.000000 0.000000 0.058178 0.000000
# 6 0.000000 0.000000 0.000000 0.000000 0.000000 0.044851
#
#
# Mechanical properties :
#
#
# Convention : Reuss Voigt Hill
#
# Bulk Modulus (GPa) = 29.86237 60.92227 45.39232
# Shear Modulus (GPa) = 17.19664 21.98014 19.58839
#
# Velocity S-wave (km/s) = 3.17487 3.58938 3.38847
# Velocity P-wave (km/s) = 5.56269 7.27240 6.47423
#
# Compressibility (1/GPa) = 0.03348696
#
# Stress axis : x y z
#
# Youngs Moduli (GPa) = 58.94287 88.27598 18.13329
#
# Poissons Ratio (x) = 0.48006 0.26925
# Poissons Ratio (y) = 0.32054 0.08505
# Poissons Ratio (z) = 0.87521 0.41405
#
# Static dielectric constant tensor:
#      x y z
#    x 3.112470 0.000000 0.000000 
#    y 0.000000 3.486530 0.000000 
#    z 0.000000 0.000000 2.778130 
# 
# 
# High freq. dielectric constant tensor:
#      x y z
#    x 1.639740 0.000000 0.000000 
#    y 0.000000 1.668360 0.000000 
#    z 0.000000 0.000000 1.617770 
# 
# From -- ./inp_files/9398.got.cif
#   From: 2010.06.25/outbox.cif.g09.slc.cpg/sg58_5_cif.got.tgz:9398.got - 2010.06.26 21:38:00.
