data_PCOD8235084
_publ_section_title
;
Structure prediction by ZEFSAII (Michael W. Deem and Ramdas Pophale) SiO2 
 PCOD8235084
Probable space group: P B C M
;
_chemical_formula_sum "Si O2"
_cell_formula_units_Z 64
_cell_length_a 17.976503
_cell_length_b 11.181371
_cell_length_c 14.970007
_cell_angle_alpha 90.000000
_cell_angle_beta 90.000000
_cell_angle_gamma 90.000000
_cell_volume 3009.000588
_symmetry_space_group_name_H-M "P B C M"
_symmetry_group_IT_number 57
_symmetry_cell_setting 'orthorhombic'
loop_
_space_group_symop_operation_xyz
x,y,z
-x,-y,1/2+z
x,1/2-y,-z
-x,1/2+y,1/2-z
-x,-y,-z
x,y,1/2-z
-x,1/2+y,z
x,1/2-y,1/2+z
loop_
_atom_site_type_symbol
_atom_site_label
_atom_site_fract_x
_atom_site_fract_y
_atom_site_fract_z
Si Si1 0.045712 0.191952 0.857032
Si Si2 0.442430 0.032649 0.848193
Si Si3 0.788817 0.801101 0.350212
Si Si4 0.953695 0.421666 0.644248
Si Si5 0.635198 0.737946 0.400134
Si Si6 0.652317 0.378124 0.523245
Si Si7 0.215974 0.578264 0.350594
Si Si8 0.609046 0.482293 0.349005
O O1 0.044538 0.189642 0.750000
O O2 0.129347 0.216147 0.892503
O O3 0.998395 0.305690 0.895137
O O4 0.020260 0.056343 0.889598
O O5 0.438715 0.971977 0.750000
O O6 0.391098 0.149044 0.843930
O O7 0.411700 0.942107 0.921178
O O8 0.527174 0.069991 0.870105
O O9 0.789638 0.750034 0.250000
O O10 0.725593 0.729436 0.403794
O O11 0.765988 0.939094 0.350400
O O12 0.962746 0.421753 0.750000
O O13 0.868286 0.398816 0.617623
O O14 0.603979 0.750000 0.500000
O O15 0.601484 0.624782 0.350287
O O16 0.619491 0.250000 0.500000
O O17 0.728713 0.361512 0.578330
O O18 0.665974 0.444123 0.427783
O O19 0.228575 0.629838 0.250000
O O20 0.636701 0.441018 0.250000
#
# Coordination Sequence:
#
# PCOD8235084 Si02
#       8
#     8   8   8   8   8   8   8   8
#     4   8  14  25  46  79 116 153 195 248 297 354
#     4  11  24  42  65  88 116 159 204 246 308 378
#     4   9  16  30  55  85 114 151 205 250 290 357
#     4   8  14  26  49  81 118 155 200 251 302 363
#     4  12  22  38  66  89 120 157 199 257 308 361
#     4  12  25  40  61  86 123 163 202 253 302 367
#     4   9  17  34  58  86 117 160 214 254 292 362
#     4  11  26  42  60  92 125 154 197 259 317 365
#
# _framework density 21.26952
#
# number of rings (size 3 to 8) (size 9 to 14) (size 15 to 20)
#    0.000    2.000    2.500    3.375    1.750    1.000 
#    0.000    1.250    0.000    3.750    0.000    4.375 
#    0.000    0.000    0.000    5.500    0.000    0.500 
#
# Total GULP energy -793086.429282 kJ/mol
# GULP energy per Si atom -12391.975458 kJ/mol
# Density = 2.122111 g / cm^3
# Si number density = 21.269520 Si / 1000 Ang^3
#
#
#
# Elastic Constant Matrix: (Units=GPa)
#
#
# Indices 1 2 3 4 5 6 
#
# 1 87.2764 39.6184 29.8991 0.0000 0.0000 0.0000
# 2 39.6184 109.1655 33.0125 0.0000 0.0000 0.0000
# 3 29.8991 33.0125 97.5031 0.0000 0.0000 0.0000
# 4 0.0000 0.0000 0.0000 13.6770 0.0000 0.0000
# 5 0.0000 0.0000 0.0000 0.0000 14.7475 0.0000
# 6 0.0000 0.0000 0.0000 0.0000 0.0000 28.6580
#
#
#
# Elastic Compliance Matrix: (Units=1/GPa)
#
#
# Indices 1 2 3 4 5 6 
#
# 1 0.014445 -0.004348 -0.002957 0.000000 0.000000 0.000000
# 2 -0.004348 0.011514 -0.002565 0.000000 0.000000 0.000000
# 3 -0.002957 -0.002565 0.012031 0.000000 0.000000 0.000000
# 4 0.000000 0.000000 0.000000 0.073116 0.000000 0.000000
# 5 0.000000 0.000000 0.000000 0.000000 0.067808 0.000000
# 6 0.000000 0.000000 0.000000 0.000000 0.000000 0.034894
#
#
# Mechanical properties :
#
#
# Convention : Reuss Voigt Hill
#
# Bulk Modulus (GPa) = 54.79630 55.44501 55.12065
# Shear Modulus (GPa) = 20.86531 24.17749 22.52140
#
# Velocity S-wave (km/s) = 3.13548 3.37519 3.25754
# Velocity P-wave (km/s) = 6.23916 6.42756 6.33406
#
# Compressibility (1/GPa) = 0.01824941
#
# Stress axis : x y z
#
# Youngs Moduli (GPa) = 69.22969 86.85013 83.11562
#
# Poissons Ratio (x) = 0.37762 0.24580
# Poissons Ratio (y) = 0.30101 0.21320
# Poissons Ratio (z) = 0.20473 0.22278
#
# Static dielectric constant tensor:
#      x y z
#    x 3.821590 0.000000 0.000000 
#    y 0.000000 3.880660 0.000000 
#    z 0.000000 0.000000 3.676530 
# 
# 
# High freq. dielectric constant tensor:
#      x y z
#    x 1.823150 0.000000 0.000000 
#    y 0.000000 1.819440 0.000000 
#    z 0.000000 0.000000 1.824280 
# 
# From -- ./inp_files/19145.got.cif
#   From: 2010.03.12/outbox.cif.g09.slc.cpg/sg57_10_cif.got.tgz:19145.got - 2010.04.16 15:48:40.
