data_PCOD8236094
_publ_section_title
;
Structure prediction by ZEFSAII (Michael W. Deem and Ramdas Pophale) SiO2 
 PCOD8236094
Probable space group: P N N M
;
_chemical_formula_sum "Si O2"
_cell_formula_units_Z 48
_cell_length_a 31.056983
_cell_length_b 9.524524
_cell_length_c 9.235328
_cell_angle_alpha 90.000000
_cell_angle_beta 90.000000
_cell_angle_gamma 90.000000
_cell_volume 2731.837543
_symmetry_space_group_name_H-M "P N N M"
_symmetry_group_IT_number 58
_symmetry_cell_setting 'orthorhombic'
loop_
_space_group_symop_operation_xyz
x,y,z
-x,-y,z
1/2+x,1/2-y,1/2-z
1/2-x,1/2+y,1/2-z
-x,-y,-z
x,y,-z
1/2-x,1/2+y,1/2+z
1/2+x,1/2-y,1/2+z
loop_
_atom_site_type_symbol
_atom_site_label
_atom_site_fract_x
_atom_site_fract_y
_atom_site_fract_z
Si Si1 0.040043 0.912193 0.668956
Si Si2 0.878339 0.083827 0.159698
Si Si3 0.124567 0.582463 0.162998
Si Si4 0.041582 0.587420 0.331041
Si Si5 0.284778 0.387470 0.331265
Si Si6 0.291257 0.101355 0.830041
O O1 0.044071 0.938036 0.500000
O O2 0.084428 0.972546 0.735252
O O3 0.032842 0.749644 0.707996
O O4 0.000000 0.000000 0.733110
O O5 0.877680 0.251089 0.160491
O O6 0.830384 0.037045 0.209498
O O7 0.888797 0.025746 0.000000
O O8 0.081856 0.524891 0.242254
O O9 0.166610 0.536581 0.253010
O O10 0.126935 0.521002 0.000000
O O11 0.051917 0.569282 0.500000
O O12 0.000000 0.500000 0.283714
O O13 0.286049 0.341816 0.500000
O O14 0.277376 0.250555 0.234528
O O15 0.247300 0.495627 0.297522
O O16 0.300638 0.118368 0.000000
#
# Coordination Sequence:
#
# PCOD8236094 Si02
#       6
#     8   8   8   8   8   8
#     4   9  17  29  45  66  90 115 147 186 225 268
#     4   8  15  29  47  65  88 119 152 186 225 271
#     4   9  17  30  48  69  94 123 158 197 233 278
#     4   9  17  30  48  68  91 120 154 191 232 280
#     4   9  19  34  50  72 100 126 158 201 242 285
#     4  10  19  32  52  74  97 128 163 198 241 291
#
# _framework density 17.570591
#
# number of rings (size 3 to 8) (size 9 to 14) (size 15 to 20)
#    0.000    3.000    0.000    2.000    0.000    6.000 
#    0.000    1.667    0.000    6.000    0.000    0.000 
#    0.000    0.000    0.000    0.000    0.000    0.000 
#
# Total GULP energy -595054.842648 kJ/mol
# GULP energy per Si atom -12396.975889 kJ/mol
# Density = 1.753060 g / cm^3
# Si number density = 17.570591 Si / 1000 Ang^3
#
#
#
# Elastic Constant Matrix: (Units=GPa)
#
#
# Indices 1 2 3 4 5 6 
#
# 1 192.8386 57.5978 84.1189 0.0000 0.0000 0.0000
# 2 57.5978 44.1216 39.2688 0.0000 0.0000 0.0000
# 3 84.1189 39.2688 92.5622 0.0000 0.0000 0.0000
# 4 0.0000 0.0000 0.0000 14.5252 0.0000 0.0000
# 5 0.0000 0.0000 0.0000 0.0000 35.3000 0.0000
# 6 0.0000 0.0000 0.0000 0.0000 0.0000 29.2605
#
#
#
# Elastic Compliance Matrix: (Units=1/GPa)
#
#
# Indices 1 2 3 4 5 6 
#
# 1 0.010110 -0.008066 -0.005766 0.000000 0.000000 0.000000
# 2 -0.008066 0.042850 -0.010848 0.000000 0.000000 0.000000
# 3 -0.005766 -0.010848 0.020646 0.000000 0.000000 0.000000
# 4 0.000000 0.000000 0.000000 0.068846 0.000000 0.000000
# 5 0.000000 0.000000 0.000000 0.000000 0.028329 0.000000
# 6 0.000000 0.000000 0.000000 0.000000 0.000000 0.034176
#
#
# Mechanical properties :
#
#
# Convention : Reuss Voigt Hill
#
# Bulk Modulus (GPa) = 41.24573 76.83258 59.03916
# Shear Modulus (GPa) = 19.05504 25.71960 22.38732
#
# Velocity S-wave (km/s) = 3.29672 3.83010 3.57338
# Velocity P-wave (km/s) = 6.16575 7.96131 7.12035
#
# Compressibility (1/GPa) = 0.02424494
#
# Stress axis : x y z
#
# Youngs Moduli (GPa) = 98.91093 23.33739 48.43665
#
# Poissons Ratio (x) = 0.18825 0.27927
# Poissons Ratio (y) = 0.79786 0.52544
# Poissons Ratio (z) = 0.57030 0.25316
#
# Static dielectric constant tensor:
#      x y z
#    x 3.683690 0.000000 0.000000 
#    y 0.000000 -1.316720 0.000000 
#    z 0.000000 0.000000 3.373120 
# 
# 
# High freq. dielectric constant tensor:
#      x y z
#    x 1.698000 0.000000 0.000000 
#    y 0.000000 1.632460 0.000000 
#    z 0.000000 0.000000 1.682120 
# 
# From -- ./inp_files/4315.got.cif
#   From: 2010.06.25/outbox.cif.g09.slc.cpg/sg58_3_cif.got.tgz:4315.got - 2010.06.26 21:38:00.
