data_PCOD8236598
_publ_section_title
;
Structure prediction by ZEFSAII (Michael W. Deem and Ramdas Pophale) SiO2 
 PCOD8236598
Probable space group: P N N M
;
_chemical_formula_sum "Si O2"
_cell_formula_units_Z 40
_cell_length_a 8.951760
_cell_length_b 29.132262
_cell_length_c 7.758341
_cell_angle_alpha 90.000000
_cell_angle_beta 90.000000
_cell_angle_gamma 90.000000
_cell_volume 2023.259095
_symmetry_space_group_name_H-M "P N N M"
_symmetry_group_IT_number 58
_symmetry_cell_setting 'orthorhombic'
loop_
_space_group_symop_operation_xyz
x,y,z
-x,-y,z
1/2+x,1/2-y,1/2-z
1/2-x,1/2+y,1/2-z
-x,-y,-z
x,y,-z
1/2-x,1/2+y,1/2+z
1/2+x,1/2-y,1/2+z
loop_
_atom_site_type_symbol
_atom_site_label
_atom_site_fract_x
_atom_site_fract_y
_atom_site_fract_z
Si Si1 0.335403 0.054950 0.000000
Si Si2 0.810939 0.547064 0.500000
Si Si3 0.823258 0.788546 0.701786
Si Si4 0.153731 0.801163 0.804727
Si Si5 0.198005 0.390051 0.809157
Si Si6 0.646626 0.879836 0.302505
O O1 0.511562 0.047794 0.000000
O O2 0.286735 0.081852 0.826633
O O3 0.253770 0.005496 0.000000
O O4 0.748461 0.572244 0.670695
O O5 0.856005 0.785692 0.500000
O O6 0.738537 0.743330 0.769840
O O7 0.719428 0.831619 0.746455
O O8 0.977585 0.792774 0.801829
O O9 0.196228 0.845645 0.694470
O O10 0.204542 0.810243 0.000000
O O11 0.029562 0.373898 0.770956
O O12 0.210430 0.412063 0.000000
O O13 0.681888 0.894388 0.500000
#
# Coordination Sequence:
#
# PCOD8236598 Si02
#       6
#     4   4   8   8   8   8
#     4   9  18  32  57  83 115 147 183 237 282 323
#     4   9  18  34  53  87 115 143 191 231 278 339
#     4  10  22  37  53  79 113 146 186 230 273 332
#     4  11  22  36  55  81 112 147 189 229 273 334
#     4  10  19  35  57  80 114 150 182 231 281 325
#     4   9  19  35  55  81 112 147 186 227 278 333
#
# _framework density 19.770081999999999
#
# number of rings (size 3 to 8) (size 9 to 14) (size 15 to 20)
#    0.000    2.200    1.000    1.800    1.400    4.000 
#    0.000    4.000    0.000    2.400    0.000    4.200 
#    0.000    0.000    0.000    0.000    0.000    0.000 
#
# Total GULP energy -496075.149051 kJ/mol
# GULP energy per Si atom -12401.878726 kJ/mol
# Density = 1.972508 g / cm^3
# Si number density = 19.770082 Si / 1000 Ang^3
#
#
#
# Elastic Constant Matrix: (Units=GPa)
#
#
# Indices 1 2 3 4 5 6 
#
# 1 40.1018 -1.0493 11.0132 0.0000 0.0000 0.0000
# 2 -1.0493 105.6167 50.5724 0.0000 0.0000 0.0000
# 3 11.0132 50.5724 105.4943 0.0000 0.0000 0.0000
# 4 0.0000 0.0000 0.0000 26.2680 0.0000 0.0000
# 5 0.0000 0.0000 0.0000 0.0000 21.9023 0.0000
# 6 0.0000 0.0000 0.0000 0.0000 0.0000 21.5803
#
#
#
# Elastic Compliance Matrix: (Units=1/GPa)
#
#
# Indices 1 2 3 4 5 6 
#
# 1 0.026001 0.002022 -0.003684 0.000000 0.000000 0.000000
# 2 0.002022 0.012446 -0.006178 0.000000 0.000000 0.000000
# 3 -0.003684 -0.006178 0.012825 0.000000 0.000000 0.000000
# 4 0.000000 0.000000 0.000000 0.038069 0.000000 0.000000
# 5 0.000000 0.000000 0.000000 0.000000 0.045657 0.000000
# 6 0.000000 0.000000 0.000000 0.000000 0.000000 0.046339
#
#
# Mechanical properties :
#
#
# Convention : Reuss Voigt Hill
#
# Bulk Modulus (GPa) = 28.09449 41.36503 34.72976
# Shear Modulus (GPa) = 23.93704 26.66187 25.29945
#
# Velocity S-wave (km/s) = 3.48339 3.67631 3.58115
# Velocity P-wave (km/s) = 5.51544 6.24410 5.89105
#
# Compressibility (1/GPa) = 0.03559417
#
# Stress axis : x y z
#
# Youngs Moduli (GPa) = 38.45983 80.34470 77.97102
#
# Poissons Ratio (x) = -0.16248 0.28723
# Poissons Ratio (y) = -0.07778 0.48168
# Poissons Ratio (z) = 0.14168 0.49635
#
# Static dielectric constant tensor:
#      x y z
#    x 3.248440 0.000000 0.000000 
#    y 0.000000 3.686300 0.000000 
#    z 0.000000 0.000000 3.650260 
# 
# 
# High freq. dielectric constant tensor:
#      x y z
#    x 1.741930 0.000000 0.000000 
#    y 0.000000 1.765250 0.000000 
#    z 0.000000 0.000000 1.781130 
# 
# From -- ./inp_files/2638.got.cif
#   From: 2010.06.25/outbox.cif.g09.slc.cpg/sg58_2_cif.got.tgz:2638.got - 2010.06.26 21:38:00.
