data_PCOD8236259
_publ_section_title
;
Structure prediction by ZEFSAII (Michael W. Deem and Ramdas Pophale) SiO2 
 PCOD8236259
Probable space group: P N N M
;
_chemical_formula_sum "Si O2"
_cell_formula_units_Z 64
_cell_length_a 20.775728
_cell_length_b 16.756846
_cell_length_c 9.604772
_cell_angle_alpha 90.000000
_cell_angle_beta 90.000000
_cell_angle_gamma 90.000000
_cell_volume 3343.763780
_symmetry_space_group_name_H-M "P N N M"
_symmetry_group_IT_number 58
_symmetry_cell_setting 'orthorhombic'
loop_
_space_group_symop_operation_xyz
x,y,z
-x,-y,z
1/2+x,1/2-y,1/2-z
1/2-x,1/2+y,1/2-z
-x,-y,-z
x,y,-z
1/2-x,1/2+y,1/2+z
1/2+x,1/2-y,1/2+z
loop_
_atom_site_type_symbol
_atom_site_label
_atom_site_fract_x
_atom_site_fract_y
_atom_site_fract_z
Si Si1 0.735187 0.778228 0.843603
Si Si2 0.595337 0.174342 0.845482
Si Si3 0.072632 0.004503 0.663819
Si Si4 0.875704 0.405722 0.345089
Si Si5 0.297009 0.943221 0.841715
Si Si6 0.492497 0.093346 0.660945
Si Si7 0.814136 0.106555 0.337238
Si Si8 0.647921 0.340536 0.840900
O O1 0.680455 0.842991 0.845766
O O2 0.700588 0.697033 0.788652
O O3 0.790974 0.813241 0.747898
O O4 0.762478 0.764270 0.000000
O O5 0.668499 0.142661 0.824128
O O6 0.552474 0.139644 0.723593
O O7 0.595514 0.269764 0.835011
O O8 0.570967 0.147739 0.000000
O O9 0.065475 0.016638 0.500000
O O10 0.113139 0.923507 0.699061
O O11 0.112679 0.080951 0.721660
O O12 0.000000 0.000000 0.728712
O O13 0.905874 0.413380 0.500000
O O14 0.848751 0.490854 0.295092
O O15 0.929058 0.375675 0.237866
O O16 0.235243 0.950852 0.743429
O O17 0.274275 0.958382 0.000000
O O18 0.487251 0.115353 0.500000
O O19 0.500000 0.000000 0.687399
O O20 0.801584 0.095233 0.500000
O O21 0.670849 0.355415 0.000000
#
# Coordination Sequence:
#
# PCOD8236259 Si02
#       8
#     8   8   8   8   8   8   8   8
#     4  10  21  35  54  83 114 143 178 226 280 330
#     4  10  20  34  55  80 106 145 187 220 266 329
#     4   9  19  36  58  83 111 144 187 236 280 330
#     4  10  21  36  54  76 108 148 184 217 262 326
#     4  10  19  33  54  79 107 143 182 219 266 325
#     4  11  23  36  52  78 110 144 181 223 271 319
#     4  10  20  34  56  84 110 140 180 229 284 328
#     4  10  20  36  59  84 108 142 187 233 278 327
#
# _framework density 19.140108000000001
#
# number of rings (size 3 to 8) (size 9 to 14) (size 15 to 20)
#    0.000    2.000    2.500    1.125    0.000    3.500 
#    0.000    3.750    0.000    1.500    0.000    0.000 
#    0.000    0.000    0.000    0.000    0.000    0.000 
#
# Total GULP energy -793432.244224 kJ/mol
# GULP energy per Si atom -12397.378816 kJ/mol
# Density = 1.909654 g / cm^3
# Si number density = 19.140108 Si / 1000 Ang^3
#
#
#
# Elastic Constant Matrix: (Units=GPa)
#
#
# Indices 1 2 3 4 5 6 
#
# 1 114.7342 45.3858 53.9957 0.0000 0.0000 0.0000
# 2 45.3858 93.4241 26.2935 0.0000 0.0000 0.0000
# 3 53.9957 26.2935 72.3804 0.0000 0.0000 0.0000
# 4 0.0000 0.0000 0.0000 14.3528 0.0000 0.0000
# 5 0.0000 0.0000 0.0000 0.0000 3.2055 0.0000
# 6 0.0000 0.0000 0.0000 0.0000 0.0000 26.6134
#
#
#
# Elastic Compliance Matrix: (Units=1/GPa)
#
#
# Indices 1 2 3 4 5 6 
#
# 1 0.015030 -0.004618 -0.009535 0.000000 0.000000 0.000000
# 2 -0.004618 0.013342 -0.001402 0.000000 0.000000 0.000000
# 3 -0.009535 -0.001402 0.021438 0.000000 0.000000 0.000000
# 4 0.000000 0.000000 0.000000 0.069673 0.000000 0.000000
# 5 0.000000 0.000000 0.000000 0.000000 0.311968 0.000000
# 6 0.000000 0.000000 0.000000 0.000000 0.000000 0.037575
#
#
# Mechanical properties :
#
#
# Convention : Reuss Voigt Hill
#
# Bulk Modulus (GPa) = 53.47326 59.09874 56.28600
# Shear Modulus (GPa) = 9.87426 19.15858 14.51642
#
# Velocity S-wave (km/s) = 2.27379 3.16724 2.75695
# Velocity P-wave (km/s) = 5.90694 6.65726 6.29329
#
# Compressibility (1/GPa) = 0.01870094
#
# Stress axis : x y z
#
# Youngs Moduli (GPa) = 66.53500 74.95236 46.64658
#
# Poissons Ratio (x) = 0.34613 0.44475
# Poissons Ratio (y) = 0.30726 0.06538
# Poissons Ratio (z) = 0.63438 0.10505
#
# Static dielectric constant tensor:
#      x y z
#    x 3.402400 0.000000 0.000000 
#    y 0.000000 3.663060 0.000000 
#    z 0.000000 0.000000 3.448150 
# 
# 
# High freq. dielectric constant tensor:
#      x y z
#    x 1.736250 0.000000 0.000000 
#    y 0.000000 1.751140 0.000000 
#    z 0.000000 0.000000 1.725520 
# 
# From -- ./inp_files/9221.got.cif
#   From: 2010.06.25/outbox.cif.g09.slc.cpg/sg58_5_cif.got.tgz:9221.got - 2010.06.26 21:38:00.
