data_PCOD8236801
_publ_section_title
;
Structure prediction by ZEFSAII (Michael W. Deem and Ramdas Pophale) SiO2 
 PCOD8236801
Probable space group: P N N M
;
_chemical_formula_sum "Si O2"
_cell_formula_units_Z 64
_cell_length_a 29.087739
_cell_length_b 12.776366
_cell_length_c 8.526009
_cell_angle_alpha 90.000000
_cell_angle_beta 90.000000
_cell_angle_gamma 90.000000
_cell_volume 3168.568467
_symmetry_space_group_name_H-M "P N N M"
_symmetry_group_IT_number 58
_symmetry_cell_setting 'orthorhombic'
loop_
_space_group_symop_operation_xyz
x,y,z
-x,-y,z
1/2+x,1/2-y,1/2-z
1/2-x,1/2+y,1/2-z
-x,-y,-z
x,y,-z
1/2-x,1/2+y,1/2+z
1/2+x,1/2-y,1/2+z
loop_
_atom_site_type_symbol
_atom_site_label
_atom_site_fract_x
_atom_site_fract_y
_atom_site_fract_z
Si Si1 0.209102 0.445641 0.820200
Si Si2 0.567729 0.318802 0.317829
Si Si3 0.115721 0.381262 0.315050
Si Si4 0.919391 0.402102 0.675872
Si Si5 0.299516 0.365035 0.680530
Si Si6 0.030385 0.796009 0.314306
Si Si7 0.182469 0.652000 0.674593
Si Si8 0.897139 0.045346 0.817116
O O1 0.166103 0.375492 0.762484
O O2 0.253742 0.429249 0.714159
O O3 0.197787 0.567515 0.802062
O O4 0.219513 0.418576 0.000000
O O5 0.574159 0.292849 0.500000
O O6 0.588489 0.224238 0.217479
O O7 0.514425 0.333199 0.277555
O O8 0.593508 0.425191 0.270528
O O9 0.122791 0.398254 0.500000
O O10 0.087392 0.482663 0.245277
O O11 0.936018 0.423288 0.500000
O O12 0.956220 0.321105 0.751205
O O13 0.872292 0.336865 0.680989
O O14 0.302219 0.332141 0.500000
O O15 0.295351 0.262150 0.785291
O O16 0.344133 0.433083 0.726353
O O17 0.021209 0.792479 0.500000
O O18 0.070484 0.878883 0.282370
O O19 0.198309 0.617817 0.500000
O O20 0.907547 0.064296 0.000000
#
# Coordination Sequence:
#
# PCOD8236801 Si02
#       8
#     8   8   8   8   8   8   8   8
#     4  11  23  39  60  89 122 159 198 245 304 369
#     4  11  24  41  58  84 125 167 203 247 309 367
#     4  10  21  41  63  86 118 158 203 253 307 363
#     4   8  17  34  59  86 115 149 189 245 302 353
#     4  11  22  38  61  89 116 154 204 252 302 362
#     4  11  21  37  62  91 118 154 204 252 306 366
#     4  10  19  37  60  85 117 154 192 246 305 358
#     4  10  23  41  60  84 120 159 200 251 304 359
#
# _framework density 20.198395999999999
#
# number of rings (size 3 to 8) (size 9 to 14) (size 15 to 20)
#    0.000    1.750    1.250    4.125    0.000    4.500 
#    0.000    8.125    0.000    0.000    0.000    0.000 
#    0.000    0.000    0.000    0.000    0.000    0.000 
#
# Total GULP energy -793529.081707 kJ/mol
# GULP energy per Si atom -12398.891902 kJ/mol
# Density = 2.015242 g / cm^3
# Si number density = 20.198396 Si / 1000 Ang^3
#
#
#
# Elastic Constant Matrix: (Units=GPa)
#
#
# Indices 1 2 3 4 5 6 
#
# 1 81.3567 34.6253 16.7555 0.0000 0.0000 0.0000
# 2 34.6253 106.9662 22.7315 0.0000 0.0000 0.0000
# 3 16.7555 22.7315 53.3210 0.0000 0.0000 0.0000
# 4 0.0000 0.0000 0.0000 29.5892 0.0000 0.0000
# 5 0.0000 0.0000 0.0000 0.0000 30.8350 0.0000
# 6 0.0000 0.0000 0.0000 0.0000 0.0000 25.8236
#
#
#
# Elastic Compliance Matrix: (Units=1/GPa)
#
#
# Indices 1 2 3 4 5 6 
#
# 1 0.014635 -0.004135 -0.002836 0.000000 0.000000 0.000000
# 2 -0.004135 0.011448 -0.003581 0.000000 0.000000 0.000000
# 3 -0.002836 -0.003581 0.021172 0.000000 0.000000 0.000000
# 4 0.000000 0.000000 0.000000 0.033796 0.000000 0.000000
# 5 0.000000 0.000000 0.000000 0.000000 0.032431 0.000000
# 6 0.000000 0.000000 0.000000 0.000000 0.000000 0.038724
#
#
# Mechanical properties :
#
#
# Convention : Reuss Voigt Hill
#
# Bulk Modulus (GPa) = 38.23892 43.31874 40.77883
# Shear Modulus (GPa) = 27.46816 28.41832 27.94324
#
# Velocity S-wave (km/s) = 3.69171 3.75502 3.72350
# Velocity P-wave (km/s) = 6.09462 6.34771 6.22245
#
# Compressibility (1/GPa) = 0.02615136
#
# Stress axis : x y z
#
# Youngs Moduli (GPa) = 68.32716 87.34962 47.23142
#
# Poissons Ratio (x) = 0.36117 0.13396
# Poissons Ratio (y) = 0.28252 0.16915
# Poissons Ratio (z) = 0.19380 0.31282
#
# Static dielectric constant tensor:
#      x y z
#    x 3.645770 0.000000 0.000000 
#    y 0.000000 3.663350 0.000000 
#    z 0.000000 0.000000 3.491160 
# 
# 
# High freq. dielectric constant tensor:
#      x y z
#    x 1.786520 0.000000 0.000000 
#    y 0.000000 1.795000 0.000000 
#    z 0.000000 0.000000 1.779320 
# 
# From -- ./inp_files/11055.got.cif
#   From: 2010.06.25/outbox.cif.g09.slc.cpg/sg58_6_cif.got.tgz:11055.got - 2010.06.26 21:38:00.
