data_PCOD8236997
_publ_section_title
;
Structure prediction by ZEFSAII (Michael W. Deem and Ramdas Pophale) SiO2 
 PCOD8236997
Probable space group: P N N M
;
_chemical_formula_sum "Si O2"
_cell_formula_units_Z 56
_cell_length_a 17.689521
_cell_length_b 21.973529
_cell_length_c 9.148448
_cell_angle_alpha 90.000000
_cell_angle_beta 90.000000
_cell_angle_gamma 90.000000
_cell_volume 3556.012740
_symmetry_space_group_name_H-M "P N N M"
_symmetry_group_IT_number 58
_symmetry_cell_setting 'orthorhombic'
loop_
_space_group_symop_operation_xyz
x,y,z
-x,-y,z
1/2+x,1/2-y,1/2-z
1/2-x,1/2+y,1/2-z
-x,-y,-z
x,y,-z
1/2-x,1/2+y,1/2+z
1/2+x,1/2-y,1/2+z
loop_
_atom_site_type_symbol
_atom_site_label
_atom_site_fract_x
_atom_site_fract_y
_atom_site_fract_z
Si Si1 0.366552 0.349571 0.831317
Si Si2 0.425753 0.774347 0.828699
Si Si3 0.093434 0.712188 0.332131
Si Si4 0.227660 0.321182 0.338374
Si Si5 0.121201 0.152879 0.825476
Si Si6 0.494453 0.571316 0.169934
Si Si7 0.767992 0.320134 0.164704
O O1 0.398512 0.283222 0.792784
O O2 0.284303 0.360777 0.759523
O O3 0.427179 0.398619 0.774726
O O4 0.351741 0.358544 0.000000
O O5 0.506562 0.805982 0.799578
O O6 0.360217 0.823208 0.785969
O O7 0.418686 0.713942 0.732234
O O8 0.417529 0.755392 0.000000
O O9 0.115278 0.700747 0.500000
O O10 0.148646 0.670663 0.234090
O O11 0.235099 0.348253 0.500000
O O12 0.249966 0.250815 0.333504
O O13 0.205847 0.145282 0.762015
O O14 0.073788 0.095426 0.768875
O O15 0.124331 0.153957 0.000000
O O16 0.500000 0.500000 0.194384
O O17 0.479818 0.588227 0.000000
O O18 0.767552 0.346273 0.000000
#
# Coordination Sequence:
#
# PCOD8236997 Si02
#       7
#     8   8   8   8   8   8   8
#     4   9  16  27  42  58  79 108 141 178 215 250
#     4   9  16  28  43  61  87 117 146 174 209 256
#     4   9  15  25  42  62  86 111 141 176 210 249
#     4   8  15  25  39  58  81 111 141 170 206 251
#     4  11  20  29  43  61  84 112 146 183 221 255
#     4  10  20  34  49  62  80 113 153 187 225 266
#     4   9  17  28  41  58  83 112 144 173 209 259
#
# _framework density 15.747975
#
# number of rings (size 3 to 8) (size 9 to 14) (size 15 to 20)
#    0.000    2.714    1.429    2.571    0.000    4.857 
#    0.000    0.000    0.000    0.000    0.000    0.000 
#    0.000    1.143    0.000   13.143    0.000    4.000 
#
# Total GULP energy -694140.850437 kJ/mol
# GULP energy per Si atom -12395.372329 kJ/mol
# Density = 1.571213 g / cm^3
# Si number density = 15.747975 Si / 1000 Ang^3
#
#
#
# Elastic Constant Matrix: (Units=GPa)
#
#
# Indices 1 2 3 4 5 6 
#
# 1 158.3976 36.2135 64.1966 0.0000 0.0000 0.0000
# 2 36.2135 36.0136 28.5571 0.0000 0.0000 0.0000
# 3 64.1966 28.5571 87.0018 0.0000 0.0000 0.0000
# 4 0.0000 0.0000 0.0000 12.2283 0.0000 0.0000
# 5 0.0000 0.0000 0.0000 0.0000 31.0200 0.0000
# 6 0.0000 0.0000 0.0000 0.0000 0.0000 13.9643
#
#
#
# Elastic Compliance Matrix: (Units=1/GPa)
#
#
# Indices 1 2 3 4 5 6 
#
# 1 0.009764 -0.005549 -0.005383 0.000000 0.000000 0.000000
# 2 -0.005549 0.040692 -0.009262 0.000000 0.000000 0.000000
# 3 -0.005383 -0.009262 0.018506 0.000000 0.000000 0.000000
# 4 0.000000 0.000000 0.000000 0.081778 0.000000 0.000000
# 5 0.000000 0.000000 0.000000 0.000000 0.032237 0.000000
# 6 0.000000 0.000000 0.000000 0.000000 0.000000 0.071611
#
#
# Mechanical properties :
#
#
# Convention : Reuss Voigt Hill
#
# Bulk Modulus (GPa) = 34.99774 59.92749 47.46261
# Shear Modulus (GPa) = 16.42042 21.60558 19.01300
#
# Velocity S-wave (km/s) = 3.23259 3.70802 3.47843
# Velocity P-wave (km/s) = 6.01704 7.51460 6.80713
#
# Compressibility (1/GPa) = 0.02857328
#
# Stress axis : x y z
#
# Youngs Moduli (GPa) = 102.42200 24.57511 54.03704
#
# Poissons Ratio (x) = 0.13638 0.29087
# Poissons Ratio (y) = 0.56839 0.50047
# Poissons Ratio (z) = 0.55131 0.22761
#
# Static dielectric constant tensor:
#      x y z
#    x 3.423720 0.000000 0.000000 
#    y 0.000000 2.450200 0.000000 
#    z 0.000000 0.000000 3.054960 
# 
# 
# High freq. dielectric constant tensor:
#      x y z
#    x 1.623020 0.000000 0.000000 
#    y 0.000000 1.528230 0.000000 
#    z 0.000000 0.000000 1.605610 
# 
# From -- ./inp_files/8117.got.cif
#   From: 2010.06.25/outbox.cif.g09.slc.cpg/sg58_5_cif.got.tgz:8117.got - 2010.06.26 21:38:00.
