data_PCOD8236612
_publ_section_title
;
Structure prediction by ZEFSAII (Michael W. Deem and Ramdas Pophale) SiO2 
 PCOD8236612
Probable space group: P N N M
;
_chemical_formula_sum "Si O2"
_cell_formula_units_Z 64
_cell_length_a 14.767937
_cell_length_b 24.357524
_cell_length_c 9.203445
_cell_angle_alpha 90.000000
_cell_angle_beta 90.000000
_cell_angle_gamma 90.000000
_cell_volume 3310.574697
_symmetry_space_group_name_H-M "P N N M"
_symmetry_group_IT_number 58
_symmetry_cell_setting 'orthorhombic'
loop_
_space_group_symop_operation_xyz
x,y,z
-x,-y,z
1/2+x,1/2-y,1/2-z
1/2-x,1/2+y,1/2-z
-x,-y,-z
x,y,-z
1/2-x,1/2+y,1/2+z
1/2+x,1/2-y,1/2+z
loop_
_atom_site_type_symbol
_atom_site_label
_atom_site_fract_x
_atom_site_fract_y
_atom_site_fract_z
Si Si1 0.054784 0.377509 0.664604
Si Si2 0.671059 0.730714 0.827371
Si Si3 0.353510 0.763152 0.165064
Si Si4 0.758570 0.451750 0.334194
Si Si5 0.052508 0.054420 0.170266
Si Si6 0.634786 0.849263 0.833029
Si Si7 0.097484 0.477947 0.171177
Si Si8 0.010027 0.167875 0.672603
O O1 0.063180 0.399594 0.500000
O O2 0.078943 0.313937 0.673937
O O3 0.114755 0.417020 0.765381
O O4 0.952508 0.381296 0.728854
O O5 0.768012 0.716630 0.758952
O O6 0.650333 0.790662 0.759162
O O7 0.589425 0.690324 0.780415
O O8 0.682811 0.730973 0.000000
O O9 0.409743 0.709842 0.223615
O O10 0.321957 0.752301 0.000000
O O11 0.779166 0.469646 0.500000
O O12 0.655284 0.460491 0.292038
O O13 0.777075 0.386867 0.312872
O O14 0.820629 0.485222 0.225670
O O15 0.020764 0.108407 0.255423
O O16 0.038217 0.066202 0.000000
O O17 0.000000 0.000000 0.221789
O O18 0.611579 0.837010 0.000000
O O19 0.000000 0.500000 0.226381
O O20 0.102125 0.475558 0.000000
O O21 0.014411 0.161620 0.500000
#
# Coordination Sequence:
#
# PCOD8236612 Si02
#       8
#     8   8   8   8   8   8   8   8
#     4  10  19  35  58  79 108 151 192 229 272 335
#     4  10  20  36  59  87 119 155 191 230 281 345
#     4  10  21  37  57  86 118 148 187 236 284 332
#     4  10  20  36  61  85 107 151 203 237 277 341
#     4  10  23  42  62  86 115 147 193 249 292 332
#     4   9  16  31  57  82 105 143 195 232 263 325
#     4  11  23  36  52  82 120 148 179 234 295 340
#     4  10  21  39  62  87 118 154 192 234 288 349
#
# _framework density 19.331990999999999
#
# number of rings (size 3 to 8) (size 9 to 14) (size 15 to 20)
#    0.000    2.000    2.500    1.125    0.000    4.750 
#    0.000    5.000    0.000    0.000    0.000    0.000 
#    0.000    0.000    0.000    0.000    0.000    0.000 
#
# Total GULP energy -793342.614811 kJ/mol
# GULP energy per Si atom -12395.978356 kJ/mol
# Density = 1.928799 g / cm^3
# Si number density = 19.331991 Si / 1000 Ang^3
#
#
#
# Elastic Constant Matrix: (Units=GPa)
#
#
# Indices 1 2 3 4 5 6 
#
# 1 125.1168 51.4283 43.7892 0.0000 0.0000 0.0000
# 2 51.4283 120.9800 42.5850 0.0000 0.0000 0.0000
# 3 43.7892 42.5850 54.2396 0.0000 0.0000 0.0000
# 4 0.0000 0.0000 0.0000 29.1031 0.0000 0.0000
# 5 0.0000 0.0000 0.0000 0.0000 27.5119 0.0000
# 6 0.0000 0.0000 0.0000 0.0000 0.0000 29.8456
#
#
#
# Elastic Compliance Matrix: (Units=1/GPa)
#
#
# Indices 1 2 3 4 5 6 
#
# 1 0.011568 -0.002253 -0.007571 0.000000 0.000000 0.000000
# 2 -0.002253 0.011861 -0.007494 0.000000 0.000000 0.000000
# 3 -0.007571 -0.007494 0.030432 0.000000 0.000000 0.000000
# 4 0.000000 0.000000 0.000000 0.034361 0.000000 0.000000
# 5 0.000000 0.000000 0.000000 0.000000 0.036348 0.000000
# 6 0.000000 0.000000 0.000000 0.000000 0.000000 0.033506
#
#
# Mechanical properties :
#
#
# Convention : Reuss Voigt Hill
#
# Bulk Modulus (GPa) = 52.00951 63.99350 58.00150
# Shear Modulus (GPa) = 25.11053 28.12772 26.61913
#
# Velocity S-wave (km/s) = 3.60795 3.81856 3.71475
# Velocity P-wave (km/s) = 6.65719 7.25370 6.96183
#
# Compressibility (1/GPa) = 0.01922725
#
# Stress axis : x y z
#
# Youngs Moduli (GPa) = 86.44459 84.30755 32.85977
#
# Poissons Ratio (x) = 0.18992 0.24877
# Poissons Ratio (y) = 0.19474 0.24625
# Poissons Ratio (z) = 0.65444 0.63180
#
# Static dielectric constant tensor:
#      x y z
#    x 3.593790 0.000000 0.000000 
#    y 0.000000 3.554610 0.000000 
#    z 0.000000 0.000000 3.273620 
# 
# 
# High freq. dielectric constant tensor:
#      x y z
#    x 1.757610 0.000000 0.000000 
#    y 0.000000 1.759440 0.000000 
#    z 0.000000 0.000000 1.726580 
# 
# From -- ./inp_files/6737.got.cif
#   From: 2010.06.25/outbox.cif.g09.slc.cpg/sg58_4_cif.got.tgz:6737.got - 2010.06.26 21:38:00.
