data_PCOD8236333
_publ_section_title
;
Structure prediction by ZEFSAII (Michael W. Deem and Ramdas Pophale) SiO2 
 PCOD8236333
Probable space group: P N N M
;
_chemical_formula_sum "Si O2"
_cell_formula_units_Z 64
_cell_length_a 11.315428
_cell_length_b 33.022503
_cell_length_c 9.125357
_cell_angle_alpha 90.000000
_cell_angle_beta 90.000000
_cell_angle_gamma 90.000000
_cell_volume 3409.815163
_symmetry_space_group_name_H-M "P N N M"
_symmetry_group_IT_number 58
_symmetry_cell_setting 'orthorhombic'
loop_
_space_group_symop_operation_xyz
x,y,z
-x,-y,z
1/2+x,1/2-y,1/2-z
1/2-x,1/2+y,1/2-z
-x,-y,-z
x,y,-z
1/2-x,1/2+y,1/2+z
1/2+x,1/2-y,1/2+z
loop_
_atom_site_type_symbol
_atom_site_label
_atom_site_fract_x
_atom_site_fract_y
_atom_site_fract_z
Si Si1 0.683743 0.664416 0.832647
Si Si2 0.801653 0.593529 0.670478
Si Si3 0.972624 0.357213 0.668623
Si Si4 0.170666 0.971109 0.330715
Si Si5 0.432308 0.700805 0.827107
Si Si6 0.413690 0.785393 0.669496
Si Si7 0.704037 0.367089 0.670411
Si Si8 0.589173 0.441597 0.829681
O O1 0.708788 0.625874 0.732623
O O2 0.558392 0.682064 0.785848
O O3 0.780277 0.699290 0.808750
O O4 0.683404 0.649267 0.000000
O O5 0.779773 0.589985 0.500000
O O6 0.776335 0.549666 0.740383
O O7 0.935183 0.607092 0.708637
O O8 0.989550 0.343540 0.500000
O O9 0.842751 0.374653 0.697434
O O10 0.994300 0.318563 0.771129
O O11 0.198468 0.964782 0.500000
O O12 0.046345 0.950386 0.290156
O O13 0.166783 0.018709 0.293002
O O14 0.427435 0.745422 0.763467
O O15 0.330976 0.673832 0.753761
O O16 0.411378 0.702573 0.000000
O O17 0.442519 0.776724 0.500000
O O18 0.674779 0.361712 0.500000
O O19 0.632565 0.405042 0.730943
O O20 0.601806 0.429719 0.000000
#
# Coordination Sequence:
#
# PCOD8236333 Si02
#       8
#     8   8   8   8   8   8   8   8
#     4   9  20  37  54  74 106 140 171 215 270 323
#     4  10  19  33  56  82 105 137 182 226 267 317
#     4   9  21  40  56  74 109 150 181 221 277 326
#     4   9  18  34  57  82 112 146 177 220 275 329
#     4  11  23  37  55  79 108 143 176 217 276 329
#     4  10  21  37  57  81 104 135 182 226 265 319
#     4  11  23  38  56  79 110 146 184 226 272 322
#     4   9  19  36  56  81 113 147 181 219 273 331
#
# _framework density 18.769345999999999
#
# number of rings (size 3 to 8) (size 9 to 14) (size 15 to 20)
#    0.000    2.250    0.000    3.000    1.750    7.000 
#    0.000    1.875    0.000    3.750    0.000    0.000 
#    0.000    0.000    0.000    0.000    0.000    0.000 
#
# Total GULP energy -793801.090692 kJ/mol
# GULP energy per Si atom -12403.142042 kJ/mol
# Density = 1.872663 g / cm^3
# Si number density = 18.769346 Si / 1000 Ang^3
#
#
#
# Elastic Constant Matrix: (Units=GPa)
#
#
# Indices 1 2 3 4 5 6 
#
# 1 55.1300 11.9682 25.1164 0.0000 0.0000 0.0000
# 2 11.9682 66.9819 35.7280 0.0000 0.0000 0.0000
# 3 25.1164 35.7280 79.0527 0.0000 0.0000 0.0000
# 4 0.0000 0.0000 0.0000 35.4168 0.0000 0.0000
# 5 0.0000 0.0000 0.0000 0.0000 13.9051 0.0000
# 6 0.0000 0.0000 0.0000 0.0000 0.0000 15.9232
#
#
#
# Elastic Compliance Matrix: (Units=1/GPa)
#
#
# Indices 1 2 3 4 5 6 
#
# 1 0.021212 -0.000257 -0.006623 0.000000 0.000000 0.000000
# 2 -0.000257 0.019675 -0.008810 0.000000 0.000000 0.000000
# 3 -0.006623 -0.008810 0.018736 0.000000 0.000000 0.000000
# 4 0.000000 0.000000 0.000000 0.028235 0.000000 0.000000
# 5 0.000000 0.000000 0.000000 0.000000 0.071916 0.000000
# 6 0.000000 0.000000 0.000000 0.000000 0.000000 0.062801
#
#
# Mechanical properties :
#
#
# Convention : Reuss Voigt Hill
#
# Bulk Modulus (GPa) = 35.40918 38.53220 36.97069
# Shear Modulus (GPa) = 18.98463 21.60583 20.29523
#
# Velocity S-wave (km/s) = 3.18381 3.39650 3.29187
# Velocity P-wave (km/s) = 5.69403 5.99629 5.84711
#
# Compressibility (1/GPa) = 0.02824126
#
# Stress axis : x y z
#
# Youngs Moduli (GPa) = 47.14264 50.82655 53.37352
#
# Poissons Ratio (x) = 0.01308 0.35350
# Poissons Ratio (y) = 0.01213 0.47023
# Poissons Ratio (z) = 0.31223 0.44780
#
# Static dielectric constant tensor:
#      x y z
#    x 3.473810 0.000000 0.000000 
#    y 0.000000 3.432680 0.000000 
#    z 0.000000 0.000000 3.476160 
# 
# 
# High freq. dielectric constant tensor:
#      x y z
#    x 1.724540 0.000000 0.000000 
#    y 0.000000 1.729710 0.000000 
#    z 0.000000 0.000000 1.734190 
# 
# From -- ./inp_files/4806.got.cif
#   From: 2010.06.25/outbox.cif.g09.slc.cpg/sg58_3_cif.got.tgz:4806.got - 2010.06.26 21:38:00.
