data_PCOD8236550
_publ_section_title
;
Structure prediction by ZEFSAII (Michael W. Deem and Ramdas Pophale) SiO2 
 PCOD8236550
Probable space group: P N N M
;
_chemical_formula_sum "Si O2"
_cell_formula_units_Z 56
_cell_length_a 14.287597
_cell_length_b 10.501469
_cell_length_c 18.659586
_cell_angle_alpha 90.000000
_cell_angle_beta 90.000000
_cell_angle_gamma 90.000000
_cell_volume 2799.698408
_symmetry_space_group_name_H-M "P N N M"
_symmetry_group_IT_number 58
_symmetry_cell_setting 'orthorhombic'
loop_
_space_group_symop_operation_xyz
x,y,z
-x,-y,z
1/2+x,1/2-y,1/2-z
1/2-x,1/2+y,1/2-z
-x,-y,-z
x,y,-z
1/2-x,1/2+y,1/2+z
1/2+x,1/2-y,1/2+z
loop_
_atom_site_type_symbol
_atom_site_label
_atom_site_fract_x
_atom_site_fract_y
_atom_site_fract_z
Si Si1 0.221588 0.977497 0.866694
Si Si2 0.047125 0.373531 0.915035
Si Si3 0.954169 0.122274 0.919987
Si Si4 0.077642 0.393493 0.415712
Si Si5 0.300602 0.759995 0.669909
Si Si6 0.369326 0.406314 0.781036
Si Si7 0.427843 0.680463 0.799821
O O1 0.200367 0.127042 0.872344
O O2 0.157359 0.896833 0.921547
O O3 0.327317 0.953624 0.886958
O O4 0.192479 0.927911 0.789159
O O5 0.149248 0.363038 0.880745
O O6 0.000000 0.500000 0.884088
O O7 0.984873 0.255440 0.885096
O O8 0.055193 0.380217 0.000000
O O9 0.994991 0.124870 0.000000
O O10 0.000000 0.000000 0.878185
O O11 0.082030 0.359817 0.500000
O O12 0.058729 0.263755 0.371746
O O13 0.000000 0.500000 0.399852
O O14 0.193974 0.808317 0.674288
O O15 0.357003 0.749906 0.745050
O O16 0.385122 0.541937 0.820917
O O17 0.469358 0.340296 0.764255
#
# Coordination Sequence:
#
# PCOD8236550 Si02
#       7
#     8   8   8   8   8   8   8
#     4  11  21  37  63  92 118 159 213 259 306 376
#     4  10  22  38  56  89 130 161 197 248 314 383
#     4  10  19  34  59  87 118 156 196 245 304 365
#     4  11  24  42  63  91 128 166 211 266 313 368
#     4  11  21  39  62  90 121 163 204 256 317 378
#     4  10  22  39  63  88 120 160 208 258 317 372
#     4  10  22  42  62  90 124 160 210 264 311 381
#
# _framework density 20.002154999999998
#
# number of rings (size 3 to 8) (size 9 to 14) (size 15 to 20)
#    0.000    1.571    2.857    2.143    2.000    2.286 
#    5.143    4.286    0.000    0.000    0.000    0.000 
#    0.000    0.000    0.000    0.000    0.000    0.000 
#
# Total GULP energy -694142.220976 kJ/mol
# GULP energy per Si atom -12395.396803 kJ/mol
# Density = 1.995663 g / cm^3
# Si number density = 20.002155 Si / 1000 Ang^3
#
#
#
# Elastic Constant Matrix: (Units=GPa)
#
#
# Indices 1 2 3 4 5 6 
#
# 1 138.0345 48.5989 24.4007 0.0000 0.0000 0.0000
# 2 48.5989 122.3399 36.5694 0.0000 0.0000 0.0000
# 3 24.4007 36.5694 58.2505 0.0000 0.0000 0.0000
# 4 0.0000 0.0000 0.0000 22.4093 0.0000 0.0000
# 5 0.0000 0.0000 0.0000 0.0000 27.2554 0.0000
# 6 0.0000 0.0000 0.0000 0.0000 0.0000 36.9387
#
#
#
# Elastic Compliance Matrix: (Units=1/GPa)
#
#
# Indices 1 2 3 4 5 6 
#
# 1 0.008571 -0.002870 -0.001788 0.000000 0.000000 0.000000
# 2 -0.002870 0.011023 -0.005718 0.000000 0.000000 0.000000
# 3 -0.001788 -0.005718 0.021506 0.000000 0.000000 0.000000
# 4 0.000000 0.000000 0.000000 0.044624 0.000000 0.000000
# 5 0.000000 0.000000 0.000000 0.000000 0.036690 0.000000
# 6 0.000000 0.000000 0.000000 0.000000 0.000000 0.027072
#
#
# Mechanical properties :
#
#
# Convention : Reuss Voigt Hill
#
# Bulk Modulus (GPa) = 49.14695 59.75145 54.44920
# Shear Modulus (GPa) = 28.24489 31.25775 29.75132
#
# Velocity S-wave (km/s) = 3.76186 3.95741 3.86087
# Velocity P-wave (km/s) = 6.59492 7.12873 6.86702
#
# Compressibility (1/GPa) = 0.02034714
#
# Stress axis : x y z
#
# Youngs Moduli (GPa) = 116.66862 90.71620 46.49816
#
# Poissons Ratio (x) = 0.26038 0.08316
# Poissons Ratio (y) = 0.33487 0.26588
# Poissons Ratio (z) = 0.20866 0.51872
#
# Static dielectric constant tensor:
#      x y z
#    x 3.719970 0.000000 0.000000 
#    y 0.000000 3.864060 0.000000 
#    z 0.000000 0.000000 3.431310 
# 
# 
# High freq. dielectric constant tensor:
#      x y z
#    x 1.788770 0.000000 0.000000 
#    y 0.000000 1.788020 0.000000 
#    z 0.000000 0.000000 1.759410 
# 
# From -- ./inp_files/30038.got.cif
#   From: 2010.06.25/outbox.cif.g09.slc.cpg/sg58_16_cif.got.tgz:30038.got - 2010.06.26 21:38:00.
