data_PCOD8236433
_publ_section_title
;
Structure prediction by ZEFSAII (Michael W. Deem and Ramdas Pophale) SiO2 
 PCOD8236433
Probable space group: P N N M
;
_chemical_formula_sum "Si O2"
_cell_formula_units_Z 64
_cell_length_a 18.625773
_cell_length_b 19.837407
_cell_length_c 9.160412
_cell_angle_alpha 90.000000
_cell_angle_beta 90.000000
_cell_angle_gamma 90.000000
_cell_volume 3384.653512
_symmetry_space_group_name_H-M "P N N M"
_symmetry_group_IT_number 58
_symmetry_cell_setting 'orthorhombic'
loop_
_space_group_symop_operation_xyz
x,y,z
-x,-y,z
1/2+x,1/2-y,1/2-z
1/2-x,1/2+y,1/2-z
-x,-y,-z
x,y,-z
1/2-x,1/2+y,1/2+z
1/2+x,1/2-y,1/2+z
loop_
_atom_site_type_symbol
_atom_site_label
_atom_site_fract_x
_atom_site_fract_y
_atom_site_fract_z
Si Si1 0.357577 0.277402 0.826905
Si Si2 0.437382 0.550424 0.172829
Si Si3 0.018123 0.196010 0.673145
Si Si4 0.479756 0.073344 0.825667
Si Si5 0.329338 0.127565 0.173257
Si Si6 0.901208 0.674962 0.326478
Si Si7 0.251434 0.373829 0.669744
Si Si8 0.709369 0.474660 0.669651
O O1 0.439514 0.282336 0.770711
O O2 0.324182 0.205588 0.776366
O O3 0.315552 0.339013 0.756056
O O4 0.353598 0.285234 0.000000
O O5 0.500000 0.500000 0.221143
O O6 0.458494 0.623709 0.235668
O O7 0.363912 0.525685 0.242199
O O8 0.427358 0.551195 0.000000
O O9 0.015699 0.193264 0.500000
O O10 0.077276 0.250123 0.726466
O O11 0.402238 0.094942 0.763323
O O12 0.539486 0.124037 0.763540
O O13 0.500000 0.000000 0.765933
O O14 0.478647 0.074830 0.000000
O O15 0.261323 0.084656 0.230457
O O16 0.332340 0.123235 0.000000
O O17 0.900671 0.669750 0.500000
O O18 0.823110 0.655246 0.265929
O O19 0.260275 0.356188 0.500000
O O20 0.251890 0.453905 0.695417
O O21 0.692080 0.463427 0.500000
#
# Coordination Sequence:
#
# PCOD8236433 Si02
#       8
#     8   8   8   8   8   8   8   8
#     4  10  19  34  56  77 102 137 174 213 259 309
#     4  10  21  36  55  78 102 134 180 225 260 299
#     4   9  17  31  51  74 100 130 169 216 256 297
#     4   9  14  23  44  72 101 131 163 200 246 298
#     4   9  17  30  48  75 107 135 165 208 258 307
#     4   9  16  28  46  73 102 131 166 206 253 301
#     4  10  21  34  51  76 107 138 169 212 263 313
#     4  10  21  36  52  77 111 140 170 211 265 322
#
# _framework density 18.908878000000001
#
# number of rings (size 3 to 8) (size 9 to 14) (size 15 to 20)
#    0.000    2.500    1.250    1.500    1.750    4.750 
#    0.000    0.625    0.000    0.750    0.000    0.000 
#    0.000    3.500    0.000    0.000    0.000    0.000 
#
# Total GULP energy -793544.276284 kJ/mol
# GULP energy per Si atom -12399.129317 kJ/mol
# Density = 1.886584 g / cm^3
# Si number density = 18.908878 Si / 1000 Ang^3
#
#
#
# Elastic Constant Matrix: (Units=GPa)
#
#
# Indices 1 2 3 4 5 6 
#
# 1 132.8416 49.8572 22.9966 0.0000 0.0000 0.0000
# 2 49.8572 129.8035 18.6144 0.0000 0.0000 0.0000
# 3 22.9966 18.6144 15.7820 0.0000 0.0000 0.0000
# 4 0.0000 0.0000 0.0000 15.4126 0.0000 0.0000
# 5 0.0000 0.0000 0.0000 0.0000 16.8620 0.0000
# 6 0.0000 0.0000 0.0000 0.0000 0.0000 42.8323
#
#
#
# Elastic Compliance Matrix: (Units=1/GPa)
#
#
# Indices 1 2 3 4 5 6 
#
# 1 0.010578 -0.002230 -0.012783 0.000000 0.000000 0.000000
# 2 -0.002230 0.009742 -0.008242 0.000000 0.000000 0.000000
# 3 -0.012783 -0.008242 0.091711 0.000000 0.000000 0.000000
# 4 0.000000 0.000000 0.000000 0.064882 0.000000 0.000000
# 5 0.000000 0.000000 0.000000 0.000000 0.059305 0.000000
# 6 0.000000 0.000000 0.000000 0.000000 0.000000 0.023347
#
#
# Mechanical properties :
#
#
# Convention : Reuss Voigt Hill
#
# Bulk Modulus (GPa) = 15.26206 51.26261 33.26234
# Shear Modulus (GPa) = 15.24786 27.48531 21.36659
#
# Velocity S-wave (km/s) = 2.84277 3.81670 3.36516
# Velocity P-wave (km/s) = 4.34328 6.82584 5.72085
#
# Compressibility (1/GPa) = 0.06552193
#
# Stress axis : x y z
#
# Youngs Moduli (GPa) = 94.54020 102.64552 10.90377
#
# Poissons Ratio (x) = 0.22886 0.13938
# Poissons Ratio (y) = 0.21079 0.08987
# Poissons Ratio (z) = 1.20852 0.84599
#
# Static dielectric constant tensor:
#      x y z
#    x 3.597600 0.000000 0.000000 
#    y 0.000000 3.752870 0.000000 
#    z 0.000000 0.000000 2.828610 
# 
# 
# High freq. dielectric constant tensor:
#      x y z
#    x 1.747230 0.000000 0.000000 
#    y 0.000000 1.755030 0.000000 
#    z 0.000000 0.000000 1.665660 
# 
# From -- ./inp_files/15926.got.cif
#   From: 2010.06.25/outbox.cif.g09.slc.cpg/sg58_8_cif.got.tgz:15926.got - 2010.06.26 21:38:00.
