data_PCOD8236993
_publ_section_title
;
Structure prediction by ZEFSAII (Michael W. Deem and Ramdas Pophale) SiO2 
 PCOD8236993
Probable space group: P N N M
;
_chemical_formula_sum "Si O2"
_cell_formula_units_Z 48
_cell_length_a 16.558868
_cell_length_b 19.066706
_cell_length_c 7.662004
_cell_angle_alpha 90.000000
_cell_angle_beta 90.000000
_cell_angle_gamma 90.000000
_cell_volume 2419.071409
_symmetry_space_group_name_H-M "P N N M"
_symmetry_group_IT_number 58
_symmetry_cell_setting 'orthorhombic'
loop_
_space_group_symop_operation_xyz
x,y,z
-x,-y,z
1/2+x,1/2-y,1/2-z
1/2-x,1/2+y,1/2-z
-x,-y,-z
x,y,-z
1/2-x,1/2+y,1/2+z
1/2+x,1/2-y,1/2+z
loop_
_atom_site_type_symbol
_atom_site_label
_atom_site_fract_x
_atom_site_fract_y
_atom_site_fract_z
Si Si1 0.843379 0.178657 0.796409
Si Si2 0.364075 0.160668 0.294339
Si Si3 0.808075 0.588589 0.297958
Si Si4 0.563929 0.601020 0.000000
Si Si5 0.231440 0.055643 0.802595
Si Si6 0.985862 0.576265 0.801177
Si Si7 0.611635 0.440411 0.000000
O O1 0.851349 0.259056 0.741148
O O2 0.751916 0.153047 0.757306
O O3 0.904879 0.135703 0.677796
O O4 0.865301 0.165909 0.000000
O O5 0.351599 0.150777 0.500000
O O6 0.298397 0.115575 0.192601
O O7 0.452241 0.134646 0.226403
O O8 0.825530 0.579485 0.500000
O O9 0.769402 0.516482 0.226484
O O10 0.894299 0.603676 0.210672
O O11 0.590607 0.521392 0.000000
O O12 0.467483 0.607888 0.000000
O O13 0.159844 0.079217 0.675386
O O14 0.198190 0.044564 0.000000
O O15 0.000000 0.500000 0.708691
O O16 0.010898 0.566858 0.000000
#
# Coordination Sequence:
#
# PCOD8236993 Si02
#       7
#     8   8   8   4   8   8   4
#     4  10  23  43  62  88 128 167 207 256 317 376
#     4  10  21  40  61  89 130 169 204 257 312 372
#     4  10  21  37  59  87 120 162 202 252 310 370
#     4  11  24  42  70  89 115 171 208 258 328 368
#     4  11  22  38  64  93 126 161 205 259 315 371
#     4  10  20  33  58  89 120 157 199 252 306 359
#     4  11  24  42  66  96 119 152 221 272 304 375
#
# _framework density 19.842324999999999
#
# number of rings (size 3 to 8) (size 9 to 14) (size 15 to 20)
#    0.000    1.667    4.167    0.000    3.500    1.667 
#    3.000    1.667    0.000    0.000    0.000    0.000 
#    0.000    0.000    0.000    0.000    0.000    0.000 
#
# Total GULP energy -595214.852548 kJ/mol
# GULP energy per Si atom -12400.309428 kJ/mol
# Density = 1.979716 g / cm^3
# Si number density = 19.842325 Si / 1000 Ang^3
#
#
#
# Elastic Constant Matrix: (Units=GPa)
#
#
# Indices 1 2 3 4 5 6 
#
# 1 163.3647 66.4757 42.7545 0.0000 0.0000 0.0000
# 2 66.4757 125.7144 23.5785 0.0000 0.0000 0.0000
# 3 42.7545 23.5785 68.3857 0.0000 0.0000 0.0000
# 4 0.0000 0.0000 0.0000 21.3135 0.0000 0.0000
# 5 0.0000 0.0000 0.0000 0.0000 9.5636 0.0000
# 6 0.0000 0.0000 0.0000 0.0000 0.0000 34.2854
#
#
#
# Elastic Compliance Matrix: (Units=1/GPa)
#
#
# Indices 1 2 3 4 5 6 
#
# 1 0.008782 -0.003864 -0.004158 0.000000 0.000000 0.000000
# 2 -0.003864 0.010204 -0.001103 0.000000 0.000000 0.000000
# 3 -0.004158 -0.001103 0.017603 0.000000 0.000000 0.000000
# 4 0.000000 0.000000 0.000000 0.046919 0.000000 0.000000
# 5 0.000000 0.000000 0.000000 0.000000 0.104563 0.000000
# 6 0.000000 0.000000 0.000000 0.000000 0.000000 0.029167
#
#
# Mechanical properties :
#
#
# Convention : Reuss Voigt Hill
#
# Bulk Modulus (GPa) = 54.52655 69.23136 61.87895
# Shear Modulus (GPa) = 20.69535 28.00958 24.35247
#
# Velocity S-wave (km/s) = 3.23304 3.76121 3.50708
# Velocity P-wave (km/s) = 6.44021 7.33681 6.90308
#
# Compressibility (1/GPa) = 0.01833969
#
# Stress axis : x y z
#
# Youngs Moduli (GPa) = 113.87280 97.99648 56.80914
#
# Poissons Ratio (x) = 0.37863 0.23622
# Poissons Ratio (y) = 0.43998 0.06265
# Poissons Ratio (z) = 0.47350 0.10807
#
# Static dielectric constant tensor:
#      x y z
#    x 3.666010 0.000000 0.000000 
#    y 0.000000 3.641290 0.000000 
#    z 0.000000 0.000000 3.519310 
# 
# 
# High freq. dielectric constant tensor:
#      x y z
#    x 1.771180 0.000000 0.000000 
#    y 0.000000 1.765380 0.000000 
#    z 0.000000 0.000000 1.774390 
# 
# From -- ./inp_files/5932.got.cif
#   From: 2010.06.25/outbox.cif.g09.slc.cpg/sg58_3_cif.got.tgz:5932.got - 2010.06.26 21:38:00.
