data_PCOD8236734
_publ_section_title
;
Structure prediction by ZEFSAII (Michael W. Deem and Ramdas Pophale) SiO2 
 PCOD8236734
Probable space group: P N N M
;
_chemical_formula_sum "Si O2"
_cell_formula_units_Z 64
_cell_length_a 24.698549
_cell_length_b 15.023165
_cell_length_c 8.600069
_cell_angle_alpha 90.000000
_cell_angle_beta 90.000000
_cell_angle_gamma 90.000000
_cell_volume 3191.058844
_symmetry_space_group_name_H-M "P N N M"
_symmetry_group_IT_number 58
_symmetry_cell_setting 'orthorhombic'
loop_
_space_group_symop_operation_xyz
x,y,z
-x,-y,z
1/2+x,1/2-y,1/2-z
1/2-x,1/2+y,1/2-z
-x,-y,-z
x,y,-z
1/2-x,1/2+y,1/2+z
1/2+x,1/2-y,1/2+z
loop_
_atom_site_type_symbol
_atom_site_label
_atom_site_fract_x
_atom_site_fract_y
_atom_site_fract_z
Si Si1 0.557544 0.183520 0.680785
Si Si2 0.443787 0.184095 0.180598
Si Si3 0.739700 0.767237 0.823634
Si Si4 0.602117 0.007498 0.185008
Si Si5 0.359597 0.314083 0.678337
Si Si6 0.146733 0.192437 0.681326
Si Si7 0.663868 0.490570 0.681894
Si Si8 0.781469 0.470116 0.323717
O O1 0.569406 0.197543 0.500000
O O2 0.495838 0.208695 0.717488
O O3 0.567098 0.081632 0.729416
O O4 0.595232 0.248175 0.779885
O O5 0.398393 0.258554 0.210040
O O6 0.422222 0.087736 0.231106
O O7 0.459439 0.185278 0.000000
O O8 0.703374 0.703275 0.717036
O O9 0.801271 0.766697 0.766543
O O10 0.713054 0.864141 0.811940
O O11 0.738679 0.732227 0.000000
O O12 0.664132 0.012484 0.250391
O O13 0.599633 0.021767 0.000000
O O14 0.371037 0.288783 0.500000
O O15 0.370005 0.419349 0.707293
O O16 0.158297 0.194597 0.500000
O O17 0.134116 0.091204 0.733964
O O18 0.669260 0.465739 0.500000
O O19 0.724916 0.501138 0.754257
O O20 0.780790 0.502671 0.500000
#
# Coordination Sequence:
#
# PCOD8236734 Si02
#       8
#     8   8   8   8   8   8   8   8
#     4  12  26  42  61  88 120 159 204 258 311 366
#     4  11  23  42  64  88 121 164 207 254 303 359
#     4  10  19  36  59  87 123 162 199 244 300 357
#     4  10  20  37  61  89 122 163 204 244 300 362
#     4  11  22  36  60  94 127 163 203 249 302 360
#     4  11  23  41  63  89 120 158 205 256 307 364
#     4   9  20  38  60  88 126 164 198 244 305 363
#     4   8  15  32  56  83 118 160 195 232 288 353
#
# _framework density 20.056038999999998
#
# number of rings (size 3 to 8) (size 9 to 14) (size 15 to 20)
#    0.000    1.750    1.250    4.500    1.750    3.500 
#    0.000    1.250    0.000    3.750    0.000    0.000 
#    0.000    0.000    0.000    0.000    0.000    0.000 
#
# Total GULP energy -793668.083131 kJ/mol
# GULP energy per Si atom -12401.063799 kJ/mol
# Density = 2.001039 g / cm^3
# Si number density = 20.056039 Si / 1000 Ang^3
#
#
#
# Elastic Constant Matrix: (Units=GPa)
#
#
# Indices 1 2 3 4 5 6 
#
# 1 85.2808 41.5163 15.7681 0.0000 0.0000 0.0000
# 2 41.5163 86.9411 21.0422 0.0000 0.0000 0.0000
# 3 15.7681 21.0422 60.7757 0.0000 0.0000 0.0000
# 4 0.0000 0.0000 0.0000 27.7623 0.0000 0.0000
# 5 0.0000 0.0000 0.0000 0.0000 31.1200 0.0000
# 6 0.0000 0.0000 0.0000 0.0000 0.0000 24.8571
#
#
#
# Elastic Compliance Matrix: (Units=1/GPa)
#
#
# Indices 1 2 3 4 5 6 
#
# 1 0.015416 -0.006978 -0.001584 0.000000 0.000000 0.000000
# 2 -0.006978 0.015713 -0.003630 0.000000 0.000000 0.000000
# 3 -0.001584 -0.003630 0.018122 0.000000 0.000000 0.000000
# 4 0.000000 0.000000 0.000000 0.036020 0.000000 0.000000
# 5 0.000000 0.000000 0.000000 0.000000 0.032134 0.000000
# 6 0.000000 0.000000 0.000000 0.000000 0.000000 0.040230
#
#
# Mechanical properties :
#
#
# Convention : Reuss Voigt Hill
#
# Bulk Modulus (GPa) = 40.21358 43.29454 41.75406
# Shear Modulus (GPa) = 26.27352 27.05929 26.66640
#
# Velocity S-wave (km/s) = 3.62333 3.67711 3.65032
# Velocity P-wave (km/s) = 6.13179 6.29776 6.21533
#
# Compressibility (1/GPa) = 0.02486722
#
# Stress axis : x y z
#
# Youngs Moduli (GPa) = 64.86824 63.64255 55.18304
#
# Poissons Ratio (x) = 0.44411 0.08739
# Poissons Ratio (y) = 0.45266 0.20030
# Poissons Ratio (z) = 0.10272 0.23100
#
# Static dielectric constant tensor:
#      x y z
#    x 3.609230 0.000000 0.000000 
#    y 0.000000 3.599780 0.000000 
#    z 0.000000 0.000000 3.483680 
# 
# 
# High freq. dielectric constant tensor:
#      x y z
#    x 1.779230 0.000000 0.000000 
#    y 0.000000 1.780560 0.000000 
#    z 0.000000 0.000000 1.771120 
# 
# From -- ./inp_files/10043.got.cif
#   From: 2010.06.25/outbox.cif.g09.slc.cpg/sg58_6_cif.got.tgz:10043.got - 2010.06.26 21:38:00.
