data_PCOD8236510
_publ_section_title
;
Structure prediction by ZEFSAII (Michael W. Deem and Ramdas Pophale) SiO2 
 PCOD8236510
Probable space group: P N N M
;
_chemical_formula_sum "Si O2"
_cell_formula_units_Z 64
_cell_length_a 14.766742
_cell_length_b 24.566930
_cell_length_c 8.918321
_cell_angle_alpha 90.000000
_cell_angle_beta 90.000000
_cell_angle_gamma 90.000000
_cell_volume 3235.330675
_symmetry_space_group_name_H-M "P N N M"
_symmetry_group_IT_number 58
_symmetry_cell_setting 'orthorhombic'
loop_
_space_group_symop_operation_xyz
x,y,z
-x,-y,z
1/2+x,1/2-y,1/2-z
1/2-x,1/2+y,1/2-z
-x,-y,-z
x,y,-z
1/2-x,1/2+y,1/2+z
1/2+x,1/2-y,1/2+z
loop_
_atom_site_type_symbol
_atom_site_label
_atom_site_fract_x
_atom_site_fract_y
_atom_site_fract_z
Si Si1 0.274070 0.649769 0.170536
Si Si2 0.047571 0.278110 0.827440
Si Si3 0.203411 0.447248 0.177195
Si Si4 0.517394 0.331389 0.173662
Si Si5 0.149456 0.873137 0.827662
Si Si6 0.162590 0.558898 0.324070
Si Si7 0.511867 0.100655 0.326213
Si Si8 0.229930 0.271833 0.669551
O O1 0.380889 0.648944 0.205315
O O2 0.223513 0.610860 0.285282
O O3 0.235387 0.710478 0.196993
O O4 0.254692 0.630807 0.000000
O O5 0.003556 0.230617 0.728825
O O6 0.995976 0.335039 0.799804
O O7 0.152232 0.287855 0.785996
O O8 0.041412 0.260423 0.000000
O O9 0.289659 0.415716 0.239640
O O10 0.206235 0.507467 0.242988
O O11 0.111816 0.416603 0.227900
O O12 0.211595 0.450169 0.000000
O O13 0.451522 0.372813 0.260459
O O14 0.492617 0.333059 0.000000
O O15 0.186533 0.811989 0.807246
O O16 0.146004 0.891055 0.000000
O O17 0.162643 0.549029 0.500000
O O18 0.059814 0.567056 0.270100
O O19 0.497952 0.085456 0.500000
O O20 0.190084 0.276002 0.500000
#
# Coordination Sequence:
#
# PCOD8236510 Si02
#       8
#     8   8   8   8   8   8   8   8
#     4   9  20  41  62  83 118 162 203 246 297 360
#     4  10  19  34  57  87 121 157 198 242 292 350
#     4  11  23  43  65  87 119 162 205 249 299 363
#     4  10  22  39  60  88 123 162 202 246 302 361
#     4  11  22  37  61  93 125 159 199 250 302 356
#     4  12  26  40  60  90 119 156 203 257 307 355
#     4  10  22  39  60  87 120 161 202 241 294 362
#     4   9  19  35  57  85 120 158 193 237 298 356
#
# _framework density 19.781593000000001
#
# number of rings (size 3 to 8) (size 9 to 14) (size 15 to 20)
#    0.000    1.750    1.250    3.750    1.750    6.500 
#    0.000    0.625    0.000    3.750    0.000    0.000 
#    0.000    0.000    0.000    0.000    0.000    0.000 
#
# Total GULP energy -793869.490388 kJ/mol
# GULP energy per Si atom -12404.210787 kJ/mol
# Density = 1.973657 g / cm^3
# Si number density = 19.781593 Si / 1000 Ang^3
#
#
#
# Elastic Constant Matrix: (Units=GPa)
#
#
# Indices 1 2 3 4 5 6 
#
# 1 37.1306 11.2421 18.1058 0.0000 0.0000 0.0000
# 2 11.2421 72.3285 28.5926 0.0000 0.0000 0.0000
# 3 18.1058 28.5926 87.8306 0.0000 0.0000 0.0000
# 4 0.0000 0.0000 0.0000 31.4899 0.0000 0.0000
# 5 0.0000 0.0000 0.0000 0.0000 30.3623 0.0000
# 6 0.0000 0.0000 0.0000 0.0000 0.0000 28.4603
#
#
#
# Elastic Compliance Matrix: (Units=1/GPa)
#
#
# Indices 1 2 3 4 5 6 
#
# 1 0.030354 -0.002576 -0.005419 0.000000 0.000000 0.000000
# 2 -0.002576 0.016086 -0.004706 0.000000 0.000000 0.000000
# 3 -0.005419 -0.004706 0.014035 0.000000 0.000000 0.000000
# 4 0.000000 0.000000 0.000000 0.031756 0.000000 0.000000
# 5 0.000000 0.000000 0.000000 0.000000 0.032936 0.000000
# 6 0.000000 0.000000 0.000000 0.000000 0.000000 0.035137
#
#
# Mechanical properties :
#
#
# Convention : Reuss Voigt Hill
#
# Bulk Modulus (GPa) = 28.51093 34.79675 31.65384
# Shear Modulus (GPa) = 25.32979 27.35245 26.34112
#
# Velocity S-wave (km/s) = 3.58225 3.72253 3.65306
# Velocity P-wave (km/s) = 5.61731 6.00874 5.81632
#
# Compressibility (1/GPa) = 0.03507426
#
# Stress axis : x y z
#
# Youngs Moduli (GPa) = 32.94437 62.16402 71.25272
#
# Poissons Ratio (x) = 0.16013 0.38610
# Poissons Ratio (y) = 0.08486 0.33530
# Poissons Ratio (z) = 0.17852 0.29253
#
# Static dielectric constant tensor:
#      x y z
#    x 3.495910 0.000000 0.000000 
#    y 0.000000 3.606150 0.000000 
#    z 0.000000 0.000000 3.616980 
# 
# 
# High freq. dielectric constant tensor:
#      x y z
#    x 1.766770 0.000000 0.000000 
#    y 0.000000 1.767600 0.000000 
#    z 0.000000 0.000000 1.774590 
# 
# From -- ./inp_files/6777.got.cif
#   From: 2010.06.25/outbox.cif.g09.slc.cpg/sg58_4_cif.got.tgz:6777.got - 2010.06.26 21:38:00.
