data_PCOD8236452
_publ_section_title
;
Structure prediction by ZEFSAII (Michael W. Deem and Ramdas Pophale) SiO2 
 PCOD8236452
Probable space group: P N N M
;
_chemical_formula_sum "Si O2"
_cell_formula_units_Z 64
_cell_length_a 21.763097
_cell_length_b 16.782488
_cell_length_c 8.803122
_cell_angle_alpha 90.000000
_cell_angle_beta 90.000000
_cell_angle_gamma 90.000000
_cell_volume 3215.242721
_symmetry_space_group_name_H-M "P N N M"
_symmetry_group_IT_number 58
_symmetry_cell_setting 'orthorhombic'
loop_
_space_group_symop_operation_xyz
x,y,z
-x,-y,z
1/2+x,1/2-y,1/2-z
1/2-x,1/2+y,1/2-z
-x,-y,-z
x,y,-z
1/2-x,1/2+y,1/2+z
1/2+x,1/2-y,1/2+z
loop_
_atom_site_type_symbol
_atom_site_label
_atom_site_fract_x
_atom_site_fract_y
_atom_site_fract_z
Si Si1 0.816612 0.090174 0.322028
Si Si2 0.388201 0.560609 0.819516
Si Si3 0.713110 0.320411 0.825747
Si Si4 0.881227 0.692019 0.675579
Si Si5 0.341935 0.130605 0.320817
Si Si6 0.319339 0.949135 0.320802
Si Si7 0.528003 0.318231 0.320623
Si Si8 0.903108 0.229838 0.322003
O O1 0.809671 0.076614 0.500000
O O2 0.748729 0.071811 0.252764
O O3 0.841564 0.178278 0.282488
O O4 0.869316 0.027939 0.265867
O O5 0.333602 0.616114 0.755490
O O6 0.449326 0.595310 0.740191
O O7 0.398077 0.568130 0.000000
O O8 0.685807 0.232537 0.803753
O O9 0.780024 0.328918 0.753057
O O10 0.721214 0.344953 0.000000
O O11 0.899692 0.684402 0.500000
O O12 0.872827 0.605556 0.749454
O O13 0.933473 0.743813 0.755477
O O14 0.351330 0.142622 0.500000
O O15 0.395404 0.178844 0.234085
O O16 0.340055 0.038068 0.276497
O O17 0.319394 0.936308 0.500000
O O18 0.532701 0.316042 0.500000
O O19 0.458401 0.310037 0.268068
O O20 0.917727 0.228211 0.500000
#
# Coordination Sequence:
#
# PCOD8236452 Si02
#       8
#     8   8   8   8   8   8   8   8
#     4   9  18  34  59  88 119 153 187 226 276 339
#     4   9  16  33  59  85 113 150 189 225 271 330
#     4   8  14  28  53  80 107 143 181 216 266 329
#     4  10  20  35  58  84 111 146 188 233 280 332
#     4  10  19  34  56  81 113 151 185 224 279 336
#     4  10  19  34  58  88 119 149 183 226 278 338
#     4  11  23  40  58  79 110 149 195 240 284 333
#     4  11  23  38  56  81 112 150 194 237 279 329
#
# _framework density 19.905186
#
# number of rings (size 3 to 8) (size 9 to 14) (size 15 to 20)
#    0.000    2.250    1.250    3.375    0.000    1.000 
#    0.000    8.125    0.000    3.750    0.000    0.000 
#    0.000    0.000    0.000    0.000    0.000    0.000 
#
# Total GULP energy -793243.834303 kJ/mol
# GULP energy per Si atom -12394.434911 kJ/mol
# Density = 1.985988 g / cm^3
# Si number density = 19.905186 Si / 1000 Ang^3
#
#
#
# Elastic Constant Matrix: (Units=GPa)
#
#
# Indices 1 2 3 4 5 6 
#
# 1 41.3586 20.2102 17.6415 0.0000 0.0000 0.0000
# 2 20.2102 110.4464 36.7517 0.0000 0.0000 0.0000
# 3 17.6415 36.7517 71.3759 0.0000 0.0000 0.0000
# 4 0.0000 0.0000 0.0000 29.4771 0.0000 0.0000
# 5 0.0000 0.0000 0.0000 0.0000 24.8014 0.0000
# 6 0.0000 0.0000 0.0000 0.0000 0.0000 24.0798
#
#
#
# Elastic Compliance Matrix: (Units=1/GPa)
#
#
# Indices 1 2 3 4 5 6 
#
# 1 0.028054 -0.003411 -0.005178 0.000000 0.000000 0.000000
# 2 -0.003411 0.011341 -0.004996 0.000000 0.000000 0.000000
# 3 -0.005178 -0.004996 0.017863 0.000000 0.000000 0.000000
# 4 0.000000 0.000000 0.000000 0.033925 0.000000 0.000000
# 5 0.000000 0.000000 0.000000 0.000000 0.040320 0.000000
# 6 0.000000 0.000000 0.000000 0.000000 0.000000 0.041529
#
#
# Mechanical properties :
#
#
# Convention : Reuss Voigt Hill
#
# Bulk Modulus (GPa) = 33.23590 41.37641 37.30615
# Shear Modulus (GPa) = 23.78345 25.57682 24.68014
#
# Velocity S-wave (km/s) = 3.46039 3.58848 3.52502
# Velocity P-wave (km/s) = 5.71831 6.16454 5.94561
#
# Compressibility (1/GPa) = 0.03008795
#
# Stress axis : x y z
#
# Youngs Moduli (GPa) = 35.64555 88.17673 55.98219
#
# Poissons Ratio (x) = 0.30073 0.28987
# Poissons Ratio (y) = 0.12157 0.27971
# Poissons Ratio (z) = 0.18457 0.44057
#
# Static dielectric constant tensor:
#      x y z
#    x 3.563760 0.000000 0.000000 
#    y 0.000000 3.647290 0.000000 
#    z 0.000000 0.000000 3.275470 
# 
# 
# High freq. dielectric constant tensor:
#      x y z
#    x 1.765750 0.000000 0.000000 
#    y 0.000000 1.781900 0.000000 
#    z 0.000000 0.000000 1.746090 
# 
# From -- ./inp_files/8348.got.cif
#   From: 2010.06.25/outbox.cif.g09.slc.cpg/sg58_5_cif.got.tgz:8348.got - 2010.06.26 21:38:00.
