data_PCOD8236892
_publ_section_title
;
Structure prediction by ZEFSAII (Michael W. Deem and Ramdas Pophale) SiO2 
 PCOD8236892
Probable space group: P N N M
;
_chemical_formula_sum "Si O2"
_cell_formula_units_Z 48
_cell_length_a 4.993395
_cell_length_b 16.126612
_cell_length_c 30.984224
_cell_angle_alpha 90.000000
_cell_angle_beta 90.000000
_cell_angle_gamma 90.000000
_cell_volume 2495.052469
_symmetry_space_group_name_H-M "P N N M"
_symmetry_group_IT_number 58
_symmetry_cell_setting 'orthorhombic'
loop_
_space_group_symop_operation_xyz
x,y,z
-x,-y,z
1/2+x,1/2-y,1/2-z
1/2-x,1/2+y,1/2-z
-x,-y,-z
x,y,-z
1/2-x,1/2+y,1/2+z
1/2+x,1/2-y,1/2+z
loop_
_atom_site_type_symbol
_atom_site_label
_atom_site_fract_x
_atom_site_fract_y
_atom_site_fract_z
Si Si1 0.873386 0.678353 0.337486
Si Si2 0.240240 0.944853 0.667649
Si Si3 0.873948 0.819550 0.951882
Si Si4 0.630230 0.088821 0.923756
Si Si5 0.741401 0.555647 0.735116
Si Si6 0.884329 0.728570 0.865933
O O1 0.834008 0.606121 0.372923
O O2 0.803938 0.638584 0.291517
O O3 0.672336 0.755887 0.343974
O O4 0.175709 0.711170 0.341395
O O5 0.167030 0.915504 0.716310
O O6 0.290217 0.865686 0.637669
O O7 0.500000 0.000000 0.668093
O O8 0.000000 0.000000 0.648081
O O9 0.567809 0.846728 0.946476
O O10 0.923725 0.747885 0.916703
O O11 0.076480 0.897776 0.944810
O O12 0.912765 0.783312 0.000000
O O13 0.500000 0.000000 0.931890
O O14 0.500000 0.500000 0.715498
O O15 0.000000 0.500000 0.734877
#
# Coordination Sequence:
#
# PCOD8236892 Si02
#       6
#     8   8   8   8   8   8
#     4  10  20  33  51  76 106 139 173 207 245 292
#     4  10  21  37  56  77 101 131 167 211 263 312
#     4  10  21  35  51  73 101 134 170 211 258 301
#     4  10  20  32  49  74 104 139 174 206 242 290
#     4  10  20  33  51  76 107 141 173 206 245 290
#     4  10  21  36  54  76 101 133 171 211 259 308
#
# _framework density 19.238071999999999
#
# number of rings (size 3 to 8) (size 9 to 14) (size 15 to 20)
#    0.000    2.000    0.000    3.500    0.000    6.000 
#    0.000    0.000    0.000    1.000    0.000    0.000 
#    0.000    0.000    0.000    0.000    0.000    0.000 
#
# Total GULP energy -595166.454859 kJ/mol
# GULP energy per Si atom -12399.301143 kJ/mol
# Density = 1.919429 g / cm^3
# Si number density = 19.238072 Si / 1000 Ang^3
#
#
#
# Elastic Constant Matrix: (Units=GPa)
#
#
# Indices 1 2 3 4 5 6 
#
# 1 94.3510 12.5802 19.2764 0.0000 0.0000 0.0000
# 2 12.5802 90.0387 53.5848 0.0000 0.0000 0.0000
# 3 19.2764 53.5848 83.9998 0.0000 0.0000 0.0000
# 4 0.0000 0.0000 0.0000 14.6493 0.0000 0.0000
# 5 0.0000 0.0000 0.0000 0.0000 20.8411 0.0000
# 6 0.0000 0.0000 0.0000 0.0000 0.0000 31.3935
#
#
#
# Elastic Compliance Matrix: (Units=1/GPa)
#
#
# Indices 1 2 3 4 5 6 
#
# 1 0.011120 -0.000056 -0.002516 0.000000 0.000000 0.000000
# 2 -0.000056 0.017903 -0.011408 0.000000 0.000000 0.000000
# 3 -0.002516 -0.011408 0.019759 0.000000 0.000000 0.000000
# 4 0.000000 0.000000 0.000000 0.068263 0.000000 0.000000
# 5 0.000000 0.000000 0.000000 0.000000 0.047982 0.000000
# 6 0.000000 0.000000 0.000000 0.000000 0.000000 0.031854
#
#
# Mechanical properties :
#
#
# Convention : Reuss Voigt Hill
#
# Bulk Modulus (GPa) = 48.02473 48.80804 48.41638
# Shear Modulus (GPa) = 21.57188 25.57331 23.57260
#
# Velocity S-wave (km/s) = 3.35223 3.64992 3.50424
# Velocity P-wave (km/s) = 6.32462 6.57177 6.44938
#
# Compressibility (1/GPa) = 0.02082261
#
# Stress axis : x y z
#
# Youngs Moduli (GPa) = 89.92601 55.85512 50.60862
#
# Poissons Ratio (x) = 0.00315 0.12733
# Poissons Ratio (y) = 0.00507 0.57734
# Poissons Ratio (z) = 0.22624 0.63719
#
# Static dielectric constant tensor:
#      x y z
#    x 3.800120 0.000000 0.000000 
#    y 0.000000 3.116070 0.000000 
#    z 0.000000 0.000000 3.541630 
# 
# 
# High freq. dielectric constant tensor:
#      x y z
#    x 1.775150 0.000000 0.000000 
#    y 0.000000 1.715640 0.000000 
#    z 0.000000 0.000000 1.731810 
# 
# From -- ./inp_files/34163.got.cif
#   From: 2010.06.25/outbox.cif.g09.slc.cpg/sg58_18_cif.got.tgz:34163.got - 2010.06.26 21:38:00.
