data_PCOD8236706
_publ_section_title
;
Structure prediction by ZEFSAII (Michael W. Deem and Ramdas Pophale) SiO2 
 PCOD8236706
Probable space group: P N N M
;
_chemical_formula_sum "Si O2"
_cell_formula_units_Z 48
_cell_length_a 17.364773
_cell_length_b 9.013465
_cell_length_c 16.125811
_cell_angle_alpha 90.000000
_cell_angle_beta 90.000000
_cell_angle_gamma 90.000000
_cell_volume 2523.959911
_symmetry_space_group_name_H-M "P N N M"
_symmetry_group_IT_number 58
_symmetry_cell_setting 'orthorhombic'
loop_
_space_group_symop_operation_xyz
x,y,z
-x,-y,z
1/2+x,1/2-y,1/2-z
1/2-x,1/2+y,1/2-z
-x,-y,-z
x,y,-z
1/2-x,1/2+y,1/2+z
1/2+x,1/2-y,1/2+z
loop_
_atom_site_type_symbol
_atom_site_label
_atom_site_fract_x
_atom_site_fract_y
_atom_site_fract_z
Si Si1 0.799657 0.583072 0.908440
Si Si2 0.170681 0.254562 0.748590
Si Si3 0.872977 0.196202 0.591766
Si Si4 0.164122 0.691976 0.185272
Si Si5 0.590487 0.982376 0.826073
Si Si6 0.916861 0.046928 0.755467
O O1 0.845990 0.676385 0.839631
O O2 0.710519 0.623532 0.902247
O O3 0.810760 0.404314 0.894531
O O4 0.831891 0.620724 0.000000
O O5 0.261863 0.240380 0.738369
O O6 0.133014 0.357132 0.676246
O O7 0.136807 0.092726 0.742772
O O8 0.907598 0.162494 0.500000
O O9 0.871926 0.375783 0.603564
O O10 0.924862 0.129386 0.666059
O O11 0.105619 0.590655 0.237134
O O12 0.118478 0.846871 0.171907
O O13 0.500000 0.000000 0.842753
O O14 0.000000 0.000000 0.787445
#
# Coordination Sequence:
#
# PCOD8236706 Si02
#       6
#     8   8   8   8   8   8
#     4  10  20  36  59  83 111 145 188 240 286 328
#     4  11  18  35  61  82 110 147 195 235 276 333
#     4  10  20  36  53  81 121 154 189 230 284 342
#     4  10  19  36  57  82 109 149 195 235 272 336
#     4  10  20  34  54  80 114 153 192 229 280 338
#     4  11  21  35  59  87 113 150 189 240 288 335
#
# _framework density 19.017734999999998
#
# number of rings (size 3 to 8) (size 9 to 14) (size 15 to 20)
#    0.000    1.667    5.000    3.000    0.000    0.667 
#    0.000    2.500    0.000   19.000    0.000    0.000 
#    0.000    0.000    0.000    0.000    0.000    0.000 
#
# Total GULP energy -594724.761934 kJ/mol
# GULP energy per Si atom -12390.099207 kJ/mol
# Density = 1.897445 g / cm^3
# Si number density = 19.017735 Si / 1000 Ang^3
#
#
#
# Elastic Constant Matrix: (Units=GPa)
#
#
# Indices 1 2 3 4 5 6 
#
# 1 76.1154 32.5385 12.8419 0.0000 0.0000 0.0000
# 2 32.5385 118.5247 22.6920 0.0000 0.0000 0.0000
# 3 12.8419 22.6920 80.1373 0.0000 0.0000 0.0000
# 4 0.0000 0.0000 0.0000 -20.5260 0.0000 0.0000
# 5 0.0000 0.0000 0.0000 0.0000 -20.1784 0.0000
# 6 0.0000 0.0000 0.0000 0.0000 0.0000 35.0532
#
#
#
# Elastic Compliance Matrix: (Units=1/GPa)
#
#
# Indices 1 2 3 4 5 6 
#
# 1 0.015014 -0.003871 -0.001310 0.000000 0.000000 0.000000
# 2 -0.003871 0.009919 -0.002188 0.000000 0.000000 0.000000
# 3 -0.001310 -0.002188 0.013308 0.000000 0.000000 0.000000
# 4 0.000000 0.000000 0.000000 -0.048719 0.000000 0.000000
# 5 0.000000 0.000000 0.000000 0.000000 -0.049558 0.000000
# 6 0.000000 0.000000 0.000000 0.000000 0.000000 0.028528
#
#
# Mechanical properties :
#
#
# Convention : Reuss Voigt Hill
#
# Bulk Modulus (GPa) = 42.54877 45.65800 44.10339
# Shear Modulus (GPa) = -559.55204 12.65009 -273.45098
#
# Velocity S-wave (km/s) = -17.17164 2.58189 -12.00415
# Velocity P-wave (km/s) = 19.25440 5.74008 12.99583
#
# Compressibility (1/GPa) = 0.02350244
#
# Stress axis : x y z
#
# Youngs Moduli (GPa) = 66.60579 100.81968 75.14203
#
# Poissons Ratio (x) = 0.39027 0.09842
# Poissons Ratio (y) = 0.25783 0.16443
# Poissons Ratio (z) = 0.08724 0.22062
#
# Static dielectric constant tensor:
#      x y z
#    x 4.465640 0.000000 0.000000 
#    y 0.000000 3.923480 0.000000 
#    z 0.000000 0.000000 3.435450 
# 
# 
# High freq. dielectric constant tensor:
#      x y z
#    x 1.726130 0.000000 0.000000 
#    y 0.000000 1.758960 0.000000 
#    z 0.000000 0.000000 1.700940 
# 
# From -- ./inp_files/22764.got.cif
#   From: 2010.06.25/outbox.cif.g09.slc.cpg/sg58_12_cif.got.tgz:22764.got - 2010.06.26 21:38:00.
