data_PCOD8236825
_publ_section_title
;
Structure prediction by ZEFSAII (Michael W. Deem and Ramdas Pophale) SiO2 
 PCOD8236825
Probable space group: P N N M
;
_chemical_formula_sum "Si O2"
_cell_formula_units_Z 64
_cell_length_a 24.152901
_cell_length_b 15.264866
_cell_length_c 8.706686
_cell_angle_alpha 90.000000
_cell_angle_beta 90.000000
_cell_angle_gamma 90.000000
_cell_volume 3210.075003
_symmetry_space_group_name_H-M "P N N M"
_symmetry_group_IT_number 58
_symmetry_cell_setting 'orthorhombic'
loop_
_space_group_symop_operation_xyz
x,y,z
-x,-y,z
1/2+x,1/2-y,1/2-z
1/2-x,1/2+y,1/2-z
-x,-y,-z
x,y,-z
1/2-x,1/2+y,1/2+z
1/2+x,1/2-y,1/2+z
loop_
_atom_site_type_symbol
_atom_site_label
_atom_site_fract_x
_atom_site_fract_y
_atom_site_fract_z
Si Si1 0.178394 0.251072 0.182152
Si Si2 0.864318 0.153589 0.328796
Si Si3 0.754140 0.103191 0.820408
Si Si4 0.623701 0.855458 0.828607
Si Si5 0.019552 0.907206 0.317070
Si Si6 0.744087 0.905112 0.182400
Si Si7 0.443230 0.750475 0.181113
Si Si8 0.986507 0.400960 0.176847
O O1 0.206425 0.341051 0.238481
O O2 0.211445 0.165578 0.246714
O O3 0.115943 0.246838 0.238787
O O4 0.179590 0.252059 0.000000
O O5 0.847443 0.120240 0.500000
O O6 0.813689 0.144476 0.213106
O O7 0.883706 0.252534 0.340392
O O8 0.917178 0.102422 0.260700
O O9 0.756126 0.003261 0.758069
O O10 0.741578 0.105380 0.000000
O O11 0.683354 0.879050 0.758000
O O12 0.578034 0.891485 0.713683
O O13 0.616485 0.896226 0.000000
O O14 0.018437 0.904452 0.500000
O O15 0.979671 0.830550 0.254456
O O16 0.000000 0.000000 0.250536
O O17 0.745743 0.900555 0.000000
O O18 0.474830 0.840056 0.219029
O O19 0.434299 0.744252 0.000000
O O20 0.000000 0.500000 0.216775
O O21 0.997666 0.377657 0.000000
#
# Coordination Sequence:
#
# PCOD8236825 Si02
#       8
#     8   8   8   8   8   8   8   8
#     4  11  23  43  63  85 122 163 197 243 302 356
#     4  10  19  37  63  87 115 157 199 244 301 351
#     4  11  23  39  60  91 121 155 202 249 294 355
#     4  10  19  39  65  86 111 155 205 246 296 358
#     4   9  19  36  59  88 122 156 197 244 293 352
#     4   9  21  40  61  85 120 160 197 240 300 360
#     4  11  23  41  63  90 121 160 202 243 294 356
#     4  11  25  42  60  89 123 157 199 249 301 352
#
# _framework density 19.937228000000001
#
# number of rings (size 3 to 8) (size 9 to 14) (size 15 to 20)
#    0.000    1.750    2.500    1.500    3.500    1.500 
#    0.000    2.500    0.000    1.875    0.000    0.000 
#    0.000    0.000    0.000    0.000    0.000    0.000 
#
# Total GULP energy -793668.573526 kJ/mol
# GULP energy per Si atom -12401.071461 kJ/mol
# Density = 1.989185 g / cm^3
# Si number density = 19.937228 Si / 1000 Ang^3
#
#
#
# Elastic Constant Matrix: (Units=GPa)
#
#
# Indices 1 2 3 4 5 6 
#
# 1 126.4320 36.2644 21.7877 0.0000 0.0000 0.0000
# 2 36.2644 102.6512 31.3111 0.0000 0.0000 0.0000
# 3 21.7877 31.3111 44.9467 0.0000 0.0000 0.0000
# 4 0.0000 0.0000 0.0000 19.6024 0.0000 0.0000
# 5 0.0000 0.0000 0.0000 0.0000 35.2661 0.0000
# 6 0.0000 0.0000 0.0000 0.0000 0.0000 34.7938
#
#
#
# Elastic Compliance Matrix: (Units=1/GPa)
#
#
# Indices 1 2 3 4 5 6 
#
# 1 0.009060 -0.002363 -0.002746 0.000000 0.000000 0.000000
# 2 -0.002363 0.012987 -0.007901 0.000000 0.000000 0.000000
# 3 -0.002746 -0.007901 0.029084 0.000000 0.000000 0.000000
# 4 0.000000 0.000000 0.000000 0.051014 0.000000 0.000000
# 5 0.000000 0.000000 0.000000 0.000000 0.028356 0.000000
# 6 0.000000 0.000000 0.000000 0.000000 0.000000 0.028741
#
#
# Mechanical properties :
#
#
# Convention : Reuss Voigt Hill
#
# Bulk Modulus (GPa) = 39.82416 50.30625 45.06521
# Shear Modulus (GPa) = 25.82212 30.24357 28.03284
#
# Velocity S-wave (km/s) = 3.60275 3.89902 3.75381
# Velocity P-wave (km/s) = 6.10938 6.74958 6.43745
#
# Compressibility (1/GPa) = 0.02511039
#
# Stress axis : x y z
#
# Youngs Moduli (GPa) = 110.37026 77.00156 34.38341
#
# Poissons Ratio (x) = 0.18198 0.09440
# Poissons Ratio (y) = 0.26084 0.27167
# Poissons Ratio (z) = 0.30303 0.60841
#
# Static dielectric constant tensor:
#      x y z
#    x 3.742920 0.000000 0.000000 
#    y 0.000000 3.881490 0.000000 
#    z 0.000000 0.000000 3.371630 
# 
# 
# High freq. dielectric constant tensor:
#      x y z
#    x 1.792010 0.000000 0.000000 
#    y 0.000000 1.786210 0.000000 
#    z 0.000000 0.000000 1.751920 
# 
# From -- ./inp_files/10072.got.cif
#   From: 2010.06.25/outbox.cif.g09.slc.cpg/sg58_6_cif.got.tgz:10072.got - 2010.06.26 21:38:00.
