data_PCOD8236841
_publ_section_title
;
Structure prediction by ZEFSAII (Michael W. Deem and Ramdas Pophale) SiO2 
 PCOD8236841
Probable space group: P N N M
;
_chemical_formula_sum "Si O2"
_cell_formula_units_Z 64
_cell_length_a 12.670928
_cell_length_b 14.922672
_cell_length_c 17.485663
_cell_angle_alpha 90.000000
_cell_angle_beta 90.000000
_cell_angle_gamma 90.000000
_cell_volume 3306.260895
_symmetry_space_group_name_H-M "P N N M"
_symmetry_group_IT_number 58
_symmetry_cell_setting 'orthorhombic'
loop_
_space_group_symop_operation_xyz
x,y,z
-x,-y,z
1/2+x,1/2-y,1/2-z
1/2-x,1/2+y,1/2-z
-x,-y,-z
x,y,-z
1/2-x,1/2+y,1/2+z
1/2+x,1/2-y,1/2+z
loop_
_atom_site_type_symbol
_atom_site_label
_atom_site_fract_x
_atom_site_fract_y
_atom_site_fract_z
Si Si1 0.243949 0.077417 0.085884
Si Si2 0.852839 0.386192 0.265038
Si Si3 0.697511 0.614691 0.370633
Si Si4 0.758646 0.566826 0.790164
Si Si5 0.189888 0.209871 0.660726
Si Si6 0.473941 0.669608 0.414122
Si Si7 0.061225 0.301772 0.783113
Si Si8 0.119632 0.027173 0.588083
O O1 0.321615 0.126799 0.145615
O O2 0.123731 0.105098 0.107100
O O3 0.256677 0.970250 0.092454
O O4 0.274481 0.107796 0.000000
O O5 0.829908 0.486353 0.239694
O O6 0.787835 0.318484 0.212751
O O7 0.975884 0.368313 0.253400
O O8 0.684409 0.601023 0.279059
O O9 0.768633 0.703676 0.387521
O O10 0.582922 0.615699 0.408983
O O11 0.837388 0.645382 0.814393
O O12 0.689952 0.540429 0.862819
O O13 0.092508 0.233823 0.715715
O O14 0.146996 0.130595 0.606682
O O15 0.460173 0.707175 0.500000
O O16 0.485287 0.751724 0.356215
O O17 0.146965 0.010271 0.500000
O O18 0.000000 0.000000 0.606386
#
# Coordination Sequence:
#
# PCOD8236841 Si02
#       8
#     8   8   8   8   8   8   8   8
#     4  10  21  37  57  86 122 153 189 243 305 355
#     4  10  19  38  59  84 115 150 202 241 285 353
#     4  10  20  36  59  87 114 154 197 238 289 360
#     4   9  22  37  62  84 111 156 200 242 291 347
#     4  10  21  37  60  86 112 159 199 242 288 349
#     4  11  22  34  55  90 123 149 185 240 301 354
#     4  11  21  37  60  85 118 153 200 243 289 350
#     4  10  23  41  60  87 121 154 198 250 296 349
#
# _framework density 19.357213999999999
#
# number of rings (size 3 to 8) (size 9 to 14) (size 15 to 20)
#    0.000    1.875    2.500    1.125    1.750    2.500 
#    0.000    0.625    0.000   12.750    0.000    0.000 
#    0.000    0.000    0.000    0.000    0.000    0.000 
#
# Total GULP energy -793587.875004 kJ/mol
# GULP energy per Si atom -12399.810547 kJ/mol
# Density = 1.931316 g / cm^3
# Si number density = 19.357214 Si / 1000 Ang^3
#
#
#
# Elastic Constant Matrix: (Units=GPa)
#
#
# Indices 1 2 3 4 5 6 
#
# 1 83.5296 29.4853 50.7989 0.0000 0.0000 0.0000
# 2 29.4853 72.3371 28.9290 0.0000 0.0000 0.0000
# 3 50.7989 28.9290 105.5351 0.0000 0.0000 0.0000
# 4 0.0000 0.0000 0.0000 23.0655 0.0000 0.0000
# 5 0.0000 0.0000 0.0000 0.0000 25.5230 0.0000
# 6 0.0000 0.0000 0.0000 0.0000 0.0000 29.1493
#
#
#
# Elastic Compliance Matrix: (Units=1/GPa)
#
#
# Indices 1 2 3 4 5 6 
#
# 1 0.018077 -0.004367 -0.007504 0.000000 0.000000 0.000000
# 2 -0.004367 0.016581 -0.002443 0.000000 0.000000 0.000000
# 3 -0.007504 -0.002443 0.013757 0.000000 0.000000 0.000000
# 4 0.000000 0.000000 0.000000 0.043355 0.000000 0.000000
# 5 0.000000 0.000000 0.000000 0.000000 0.039180 0.000000
# 6 0.000000 0.000000 0.000000 0.000000 0.000000 0.034306
#
#
# Mechanical properties :
#
#
# Convention : Reuss Voigt Hill
#
# Bulk Modulus (GPa) = 50.53912 53.31426 51.92669
# Shear Modulus (GPa) = 24.93992 25.69347 25.31670
#
# Velocity S-wave (km/s) = 3.59333 3.64721 3.62037
# Velocity P-wave (km/s) = 6.58645 6.73337 6.66032
#
# Compressibility (1/GPa) = 0.01978665
#
# Stress axis : x y z
#
# Youngs Moduli (GPa) = 55.31840 60.30873 72.68856
#
# Poissons Ratio (x) = 0.26339 0.54547
# Poissons Ratio (y) = 0.24160 0.17758
# Poissons Ratio (z) = 0.41512 0.14734
#
# Static dielectric constant tensor:
#      x y z
#    x 3.396370 0.000000 0.000000 
#    y 0.000000 3.615260 0.000000 
#    z 0.000000 0.000000 3.511720 
# 
# 
# High freq. dielectric constant tensor:
#      x y z
#    x 1.746460 0.000000 0.000000 
#    y 0.000000 1.758480 0.000000 
#    z 0.000000 0.000000 1.748850 
# 
# From -- ./inp_files/26344.got.cif
#   From: 2010.06.25/outbox.cif.g09.slc.cpg/sg58_14_cif.got.tgz:26344.got - 2010.06.26 21:38:00.
