data_PCOD8236674
_publ_section_title
;
Structure prediction by ZEFSAII (Michael W. Deem and Ramdas Pophale) SiO2 
 PCOD8236674
Probable space group: P N N M
;
_chemical_formula_sum "Si O2"
_cell_formula_units_Z 64
_cell_length_a 14.361870
_cell_length_b 25.122771
_cell_length_c 9.164332
_cell_angle_alpha 90.000000
_cell_angle_beta 90.000000
_cell_angle_gamma 90.000000
_cell_volume 3306.582364
_symmetry_space_group_name_H-M "P N N M"
_symmetry_group_IT_number 58
_symmetry_cell_setting 'orthorhombic'
loop_
_space_group_symop_operation_xyz
x,y,z
-x,-y,z
1/2+x,1/2-y,1/2-z
1/2-x,1/2+y,1/2-z
-x,-y,-z
x,y,-z
1/2-x,1/2+y,1/2+z
1/2+x,1/2-y,1/2+z
loop_
_atom_site_type_symbol
_atom_site_label
_atom_site_fract_x
_atom_site_fract_y
_atom_site_fract_z
Si Si1 0.257231 0.568894 0.672840
Si Si2 0.953111 0.447114 0.326444
Si Si3 0.397888 0.864342 0.830773
Si Si4 0.808282 0.112186 0.830035
Si Si5 0.393174 0.486976 0.172123
Si Si6 0.554477 0.237760 0.335147
Si Si7 0.220757 0.189570 0.164640
Si Si8 0.353703 0.268979 0.326962
O O1 0.268110 0.559587 0.500000
O O2 0.152729 0.556387 0.727394
O O3 0.328712 0.531455 0.755659
O O4 0.278335 0.629165 0.719806
O O5 0.957377 0.447801 0.500000
O O6 0.000000 0.500000 0.261389
O O7 0.014350 0.397492 0.268850
O O8 0.302257 0.897025 0.804857
O O9 0.392733 0.807862 0.752707
O O10 0.410138 0.851806 0.000000
O O11 0.867317 0.070524 0.736643
O O12 0.832937 0.171269 0.772993
O O13 0.834152 0.104777 0.000000
O O14 0.500000 0.500000 0.210083
O O15 0.375659 0.486435 0.000000
O O16 0.543468 0.217327 0.500000
O O17 0.614338 0.291567 0.328636
O O18 0.454524 0.251656 0.267344
O O19 0.281295 0.226870 0.266502
O O20 0.260749 0.192767 0.000000
O O21 0.347813 0.267617 0.500000
#
# Coordination Sequence:
#
# PCOD8236674 Si02
#       8
#     8   8   8   8   8   8   8   8
#     4  10  21  38  61  86 113 154 201 241 286 347
#     4   9  17  31  55  85 114 141 180 236 286 333
#     4  10  19  35  60  89 117 149 192 236 284 346
#     4  10  21  38  63  89 114 152 201 246 289 344
#     4  11  26  44  60  84 117 154 197 248 303 351
#     4  10  21  35  53  81 118 153 187 235 293 345
#     4  10  21  37  58  85 117 154 195 237 287 345
#     4  10  21  37  58  87 120 155 197 243 291 347
#
# _framework density 19.355332000000001
#
# number of rings (size 3 to 8) (size 9 to 14) (size 15 to 20)
#    0.000    2.000    1.250    1.875    1.750    6.000 
#    0.000    0.625    0.000    1.500    0.000    0.000 
#    0.000    0.000    0.000    0.000    0.000    0.000 
#
# Total GULP energy -793699.214809 kJ/mol
# GULP energy per Si atom -12401.550231 kJ/mol
# Density = 1.931128 g / cm^3
# Si number density = 19.355332 Si / 1000 Ang^3
#
#
#
# Elastic Constant Matrix: (Units=GPa)
#
#
# Indices 1 2 3 4 5 6 
#
# 1 111.9198 40.8510 36.9865 0.0000 0.0000 0.0000
# 2 40.8510 124.7849 38.9341 0.0000 0.0000 0.0000
# 3 36.9865 38.9341 48.3848 0.0000 0.0000 0.0000
# 4 0.0000 0.0000 0.0000 28.4949 0.0000 0.0000
# 5 0.0000 0.0000 0.0000 0.0000 26.1448 0.0000
# 6 0.0000 0.0000 0.0000 0.0000 0.0000 38.7283
#
#
#
# Elastic Compliance Matrix: (Units=1/GPa)
#
#
# Indices 1 2 3 4 5 6 
#
# 1 0.012146 -0.001441 -0.008125 0.000000 0.000000 0.000000
# 2 -0.001441 0.010871 -0.007646 0.000000 0.000000 0.000000
# 3 -0.008125 -0.007646 0.033031 0.000000 0.000000 0.000000
# 4 0.000000 0.000000 0.000000 0.035094 0.000000 0.000000
# 5 0.000000 0.000000 0.000000 0.000000 0.038249 0.000000
# 6 0.000000 0.000000 0.000000 0.000000 0.000000 0.025821
#
#
# Mechanical properties :
#
#
# Convention : Reuss Voigt Hill
#
# Bulk Modulus (GPa) = 46.24525 57.62585 51.93555
# Shear Modulus (GPa) = 25.40068 29.89480 27.64774
#
# Velocity S-wave (km/s) = 3.62655 3.93431 3.78356
# Velocity P-wave (km/s) = 6.44053 7.10462 6.78071
#
# Compressibility (1/GPa) = 0.02162384
#
# Stress axis : x y z
#
# Youngs Moduli (GPa) = 82.33067 91.98551 30.27420
#
# Poissons Ratio (x) = 0.13257 0.24598
# Poissons Ratio (y) = 0.11865 0.23148
# Poissons Ratio (z) = 0.66895 0.70334
#
# Static dielectric constant tensor:
#      x y z
#    x 3.733330 0.000000 0.000000 
#    y 0.000000 3.660610 0.000000 
#    z 0.000000 0.000000 3.275320 
# 
# 
# High freq. dielectric constant tensor:
#      x y z
#    x 1.768600 0.000000 0.000000 
#    y 0.000000 1.764020 0.000000 
#    z 0.000000 0.000000 1.725940 
# 
# From -- ./inp_files/6983.got.cif
#   From: 2010.06.25/outbox.cif.g09.slc.cpg/sg58_4_cif.got.tgz:6983.got - 2010.06.26 21:38:00.
