data_PCOD8236315
_publ_section_title
;
Structure prediction by ZEFSAII (Michael W. Deem and Ramdas Pophale) SiO2 
 PCOD8236315
Probable space group: P N N M
;
_chemical_formula_sum "Si O2"
_cell_formula_units_Z 64
_cell_length_a 14.470774
_cell_length_b 24.145538
_cell_length_c 8.830661
_cell_angle_alpha 90.000000
_cell_angle_beta 90.000000
_cell_angle_gamma 90.000000
_cell_volume 3085.473782
_symmetry_space_group_name_H-M "P N N M"
_symmetry_group_IT_number 58
_symmetry_cell_setting 'orthorhombic'
loop_
_space_group_symop_operation_xyz
x,y,z
-x,-y,z
1/2+x,1/2-y,1/2-z
1/2-x,1/2+y,1/2-z
-x,-y,-z
x,y,-z
1/2-x,1/2+y,1/2+z
1/2+x,1/2-y,1/2+z
loop_
_atom_site_type_symbol
_atom_site_label
_atom_site_fract_x
_atom_site_fract_y
_atom_site_fract_z
Si Si1 0.233268 0.979166 0.321812
Si Si2 0.443271 0.136072 0.829931
Si Si3 0.443132 0.446168 0.324736
Si Si4 0.677760 0.299108 0.822020
Si Si5 0.492906 0.323968 0.324167
Si Si6 0.753502 0.907020 0.171890
Si Si7 0.648766 0.750877 0.180140
Si Si8 0.062340 0.449802 0.178312
O O1 0.233673 0.990849 0.500000
O O2 0.150180 0.938548 0.274283
O O3 0.331626 0.954892 0.268173
O O4 0.210501 0.034788 0.230572
O O5 0.357307 0.093785 0.823456
O O6 0.411191 0.195721 0.766758
O O7 0.525513 0.109870 0.732309
O O8 0.480186 0.142813 0.000000
O O9 0.500000 0.500000 0.268472
O O10 0.415533 0.452757 0.500000
O O11 0.502773 0.390269 0.299358
O O12 0.575105 0.290493 0.757132
O O13 0.707328 0.361187 0.783760
O O14 0.747421 0.255565 0.744541
O O15 0.677291 0.288945 0.000000
O O16 0.492770 0.308670 0.500000
O O17 0.397246 0.303784 0.249199
O O18 0.789503 0.896127 0.000000
O O19 0.655143 0.747804 0.000000
O O20 0.000000 0.500000 0.246134
O O21 0.055381 0.451245 0.000000
#
# Coordination Sequence:
#
# PCOD8236315 Si02
#       8
#     8   8   8   8   8   8   8   8
#     4  11  22  35  55  86 120 160 204 247 305 366
#     4   9  19  34  55  82 112 155 204 249 295 352
#     4  10  23  43  65  89 121 160 201 254 316 379
#     4  11  22  38  64  94 121 156 201 254 311 368
#     4  11  23  42  67  95 125 164 209 255 317 382
#     4  10  19  33  55  84 119 157 202 251 298 356
#     4  10  22  42  64  91 124 159 206 259 308 367
#     4  10  20  34  52  81 123 162 199 247 303 365
#
# _framework density 20.742356999999998
#
# number of rings (size 3 to 8) (size 9 to 14) (size 15 to 20)
#    0.000    1.750    1.250    4.125    0.000    6.000 
#    2.250    0.000    0.000    0.000    0.000    0.000 
#    0.000    0.000    0.000    0.000    0.000    0.000 
#
# Total GULP energy -793732.311509 kJ/mol
# GULP energy per Si atom -12402.067367 kJ/mol
# Density = 2.069515 g / cm^3
# Si number density = 20.742357 Si / 1000 Ang^3
#
#
#
# Elastic Constant Matrix: (Units=GPa)
#
#
# Indices 1 2 3 4 5 6 
#
# 1 118.5816 29.1107 47.6084 0.0000 0.0000 0.0000
# 2 29.1107 65.2303 28.4953 0.0000 0.0000 0.0000
# 3 47.6084 28.4953 96.8337 0.0000 0.0000 0.0000
# 4 0.0000 0.0000 0.0000 30.6863 0.0000 0.0000
# 5 0.0000 0.0000 0.0000 0.0000 36.7253 0.0000
# 6 0.0000 0.0000 0.0000 0.0000 0.0000 32.7060
#
#
#
# Elastic Compliance Matrix: (Units=1/GPa)
#
#
# Indices 1 2 3 4 5 6 
#
# 1 0.010969 -0.002914 -0.004536 0.000000 0.000000 0.000000
# 2 -0.002914 0.018366 -0.003972 0.000000 0.000000 0.000000
# 3 -0.004536 -0.003972 0.013726 0.000000 0.000000 0.000000
# 4 0.000000 0.000000 0.000000 0.032588 0.000000 0.000000
# 5 0.000000 0.000000 0.000000 0.000000 0.027229 0.000000
# 6 0.000000 0.000000 0.000000 0.000000 0.000000 0.030575
#
#
# Mechanical properties :
#
#
# Convention : Reuss Voigt Hill
#
# Bulk Modulus (GPa) = 49.46091 54.56381 52.01236
# Shear Modulus (GPa) = 30.66817 31.71894 31.19355
#
# Velocity S-wave (km/s) = 3.84934 3.91472 3.88217
# Velocity P-wave (km/s) = 6.60709 6.84076 6.72494
#
# Compressibility (1/GPa) = 0.02021798
#
# Stress axis : x y z
#
# Youngs Moduli (GPa) = 91.16331 54.44901 72.85601
#
# Poissons Ratio (x) = 0.15867 0.33044
# Poissons Ratio (y) = 0.26565 0.28937
# Poissons Ratio (z) = 0.41348 0.21626
#
# Static dielectric constant tensor:
#      x y z
#    x 3.841640 0.000000 0.000000 
#    y 0.000000 3.581770 0.000000 
#    z 0.000000 0.000000 3.609450 
# 
# 
# High freq. dielectric constant tensor:
#      x y z
#    x 1.816240 0.000000 0.000000 
#    y 0.000000 1.794680 0.000000 
#    z 0.000000 0.000000 1.809160 
# 
# From -- ./inp_files/6991.got.cif
#   From: 2010.06.25/outbox.cif.g09.slc.cpg/sg58_4_cif.got.tgz:6991.got - 2010.06.26 21:38:00.
