data_PCOD8236877
_publ_section_title
;
Structure prediction by ZEFSAII (Michael W. Deem and Ramdas Pophale) SiO2 
 PCOD8236877
Probable space group: P N N M
;
_chemical_formula_sum "Si O2"
_cell_formula_units_Z 64
_cell_length_a 20.602248
_cell_length_b 18.614934
_cell_length_c 9.164295
_cell_angle_alpha 90.000000
_cell_angle_beta 90.000000
_cell_angle_gamma 90.000000
_cell_volume 3514.594072
_symmetry_space_group_name_H-M "P N N M"
_symmetry_group_IT_number 58
_symmetry_cell_setting 'orthorhombic'
loop_
_space_group_symop_operation_xyz
x,y,z
-x,-y,z
1/2+x,1/2-y,1/2-z
1/2-x,1/2+y,1/2-z
-x,-y,-z
x,y,-z
1/2-x,1/2+y,1/2+z
1/2+x,1/2-y,1/2+z
loop_
_atom_site_type_symbol
_atom_site_label
_atom_site_fract_x
_atom_site_fract_y
_atom_site_fract_z
Si Si1 0.060228 0.045562 0.326255
Si Si2 0.323975 0.293941 0.827866
Si Si3 0.677294 0.209708 0.671792
Si Si4 0.441707 0.199463 0.173062
Si Si5 0.677676 0.047374 0.673145
Si Si6 0.061697 0.549401 0.169895
Si Si7 0.565432 0.291925 0.172405
Si Si8 0.178862 0.953994 0.326026
O O1 0.059945 0.042703 0.500000
O O2 0.054452 0.127033 0.271269
O O3 0.126574 0.010373 0.264448
O O4 0.000000 0.000000 0.263735
O O5 0.251271 0.268710 0.787398
O O6 0.377096 0.238615 0.764544
O O7 0.337227 0.374093 0.766102
O O8 0.332394 0.297400 0.000000
O O9 0.665073 0.216933 0.500000
O O10 0.663065 0.128498 0.726076
O O11 0.630802 0.263331 0.755918
O O12 0.447818 0.122012 0.243043
O O13 0.503849 0.245514 0.222416
O O14 0.438952 0.191006 0.000000
O O15 0.674542 0.047736 0.500000
O O16 0.624318 0.992320 0.734779
O O17 0.749112 0.022799 0.727237
O O18 0.000000 0.500000 0.197600
O O19 0.070248 0.567686 0.000000
O O20 0.574698 0.289783 0.000000
O O21 0.177507 0.952186 0.500000
#
# Coordination Sequence:
#
# PCOD8236877 Si02
#       8
#     8   8   8   8   8   8   8   8
#     4   9  16  26  42  65  92 120 149 184 227 271
#     4   8  15  29  49  71  94 124 160 193 227 278
#     4   9  17  32  53  71  91 124 161 192 229 281
#     4  10  20  33  48  69  99 129 157 192 237 288
#     4   8  15  28  46  67  88 114 152 194 229 265
#     4  10  20  33  49  69  93 122 160 202 237 274
#     4  10  20  31  46  72 101 124 151 194 241 279
#     4   8  13  24  44  67  90 117 150 187 227 271
#
# _framework density 18.209785
#
# number of rings (size 3 to 8) (size 9 to 14) (size 15 to 20)
#    0.000    3.000    0.000    3.000    0.000    5.750 
#    0.000    2.500    0.000    0.375    0.000    4.375 
#    0.000    0.000    0.000    0.000    0.000    0.000 
#
# Total GULP energy -793356.699804 kJ/mol
# GULP energy per Si atom -12396.198434 kJ/mol
# Density = 1.816834 g / cm^3
# Si number density = 18.209785 Si / 1000 Ang^3
#
#
#
# Elastic Constant Matrix: (Units=GPa)
#
#
# Indices 1 2 3 4 5 6 
#
# 1 145.8933 83.6804 23.5850 0.0000 0.0000 0.0000
# 2 83.6804 138.3381 24.0514 0.0000 0.0000 0.0000
# 3 23.5850 24.0514 13.0749 0.0000 0.0000 0.0000
# 4 0.0000 0.0000 0.0000 18.7021 0.0000 0.0000
# 5 0.0000 0.0000 0.0000 0.0000 13.3525 0.0000
# 6 0.0000 0.0000 0.0000 0.0000 0.0000 39.4129
#
#
#
# Elastic Compliance Matrix: (Units=1/GPa)
#
#
# Indices 1 2 3 4 5 6 
#
# 1 0.011615 -0.004974 -0.011802 0.000000 0.000000 0.000000
# 2 -0.004974 0.012758 -0.014495 0.000000 0.000000 0.000000
# 3 -0.011802 -0.014495 0.124436 0.000000 0.000000 0.000000
# 4 0.000000 0.000000 0.000000 0.053470 0.000000 0.000000
# 5 0.000000 0.000000 0.000000 0.000000 0.074893 0.000000
# 6 0.000000 0.000000 0.000000 0.000000 0.000000 0.025372
#
#
# Mechanical properties :
#
#
# Convention : Reuss Voigt Hill
#
# Bulk Modulus (GPa) = 11.59207 62.21554 36.90381
# Shear Modulus (GPa) = 12.69543 25.35944 19.02744
#
# Velocity S-wave (km/s) = 2.64327 3.73584 3.23600
# Velocity P-wave (km/s) = 3.96176 7.26972 5.85425
#
# Compressibility (1/GPa) = 0.08626583
#
# Stress axis : x y z
#
# Youngs Moduli (GPa) = 86.09337 78.38438 8.03626
#
# Poissons Ratio (x) = 0.38990 0.09485
# Poissons Ratio (y) = 0.42824 0.11649
# Poissons Ratio (z) = 1.01609 1.13620
#
# Static dielectric constant tensor:
#      x y z
#    x 3.750340 0.000000 0.000000 
#    y 0.000000 3.492680 0.000000 
#    z 0.000000 0.000000 2.760330 
# 
# 
# High freq. dielectric constant tensor:
#      x y z
#    x 1.725430 0.000000 0.000000 
#    y 0.000000 1.710770 0.000000 
#    z 0.000000 0.000000 1.641270 
# 
# From -- ./inp_files/9285.got.cif
#   From: 2010.06.25/outbox.cif.g09.slc.cpg/sg58_5_cif.got.tgz:9285.got - 2010.06.26 21:38:00.
