data_PCOD8236656
_publ_section_title
;
Structure prediction by ZEFSAII (Michael W. Deem and Ramdas Pophale) SiO2 
 PCOD8236656
Probable space group: P N N M
;
_chemical_formula_sum "Si O2"
_cell_formula_units_Z 64
_cell_length_a 12.897528
_cell_length_b 14.485357
_cell_length_c 17.138311
_cell_angle_alpha 90.000000
_cell_angle_beta 90.000000
_cell_angle_gamma 90.000000
_cell_volume 3201.870051
_symmetry_space_group_name_H-M "P N N M"
_symmetry_group_IT_number 58
_symmetry_cell_setting 'orthorhombic'
loop_
_space_group_symop_operation_xyz
x,y,z
-x,-y,z
1/2+x,1/2-y,1/2-z
1/2-x,1/2+y,1/2-z
-x,-y,-z
x,y,-z
1/2-x,1/2+y,1/2+z
1/2+x,1/2-y,1/2+z
loop_
_atom_site_type_symbol
_atom_site_label
_atom_site_fract_x
_atom_site_fract_y
_atom_site_fract_z
Si Si1 0.791870 0.744517 0.092310
Si Si2 0.915436 0.632121 0.308544
Si Si3 0.256331 0.936365 0.085801
Si Si4 0.988778 0.754248 0.819318
Si Si5 0.400950 0.438611 0.711478
Si Si6 0.416723 0.081586 0.589330
Si Si7 0.787611 0.551115 0.822183
Si Si8 0.612200 0.880326 0.913054
O O1 0.788205 0.640280 0.122486
O O2 0.690184 0.801349 0.118911
O O3 0.895913 0.792758 0.126161
O O4 0.801225 0.744674 0.000000
O O5 0.819260 0.644768 0.368869
O O6 0.877202 0.556615 0.244495
O O7 0.936906 0.726761 0.263253
O O8 0.018704 0.602906 0.353866
O O9 0.153014 0.967398 0.130535
O O10 0.330619 0.023420 0.080911
O O11 0.225745 0.900593 0.000000
O O12 0.071841 0.831463 0.798567
O O13 0.046405 0.668963 0.860837
O O14 0.500000 0.500000 0.727350
O O15 0.325434 0.456080 0.784255
O O16 0.396918 0.112512 0.500000
O O17 0.500000 0.000000 0.592892
O O18 0.310835 0.040329 0.626736
O O19 0.571446 0.853131 0.000000
#
# Coordination Sequence:
#
# PCOD8236656 Si02
#       8
#     8   8   8   8   8   8   8   8
#     4  10  19  35  59  87 121 159 205 249 301 369
#     4  10  20  33  56  83 123 148 197 252 305 359
#     4  10  22  37  56  83 117 158 202 248 301 363
#     4  11  23  37  60  93 117 160 202 259 310 365
#     4  11  25  44  61  84 125 168 208 253 309 383
#     4  11  21  38  64  96 125 155 203 264 319 366
#     4  10  22  38  58  90 117 163 206 260 310 361
#     4  10  20  32  54  85 117 159 196 241 299 364
#
# _framework density 19.988319000000001
#
# number of rings (size 3 to 8) (size 9 to 14) (size 15 to 20)
#    0.000    1.625    2.500    3.000    5.250    2.250 
#    6.750    0.000    0.000    1.500    0.000    0.000 
#    0.000    0.000    0.000    0.000    0.000    0.000 
#
# Total GULP energy -793416.011463 kJ/mol
# GULP energy per Si atom -12397.125179 kJ/mol
# Density = 1.994282 g / cm^3
# Si number density = 19.988319 Si / 1000 Ang^3
#
#
#
# Elastic Constant Matrix: (Units=GPa)
#
#
# Indices 1 2 3 4 5 6 
#
# 1 121.4310 39.5811 48.7579 0.0000 0.0000 0.0000
# 2 39.5811 71.0244 28.7695 0.0000 0.0000 0.0000
# 3 48.7579 28.7695 92.8494 0.0000 0.0000 0.0000
# 4 0.0000 0.0000 0.0000 13.8777 0.0000 0.0000
# 5 0.0000 0.0000 0.0000 0.0000 22.2437 0.0000
# 6 0.0000 0.0000 0.0000 0.0000 0.0000 30.7157
#
#
#
# Elastic Compliance Matrix: (Units=1/GPa)
#
#
# Indices 1 2 3 4 5 6 
#
# 1 0.011603 -0.004572 -0.004676 0.000000 0.000000 0.000000
# 2 -0.004572 0.017902 -0.003146 0.000000 0.000000 0.000000
# 3 -0.004676 -0.003146 0.014201 0.000000 0.000000 0.000000
# 4 0.000000 0.000000 0.000000 0.072058 0.000000 0.000000
# 5 0.000000 0.000000 0.000000 0.000000 0.044957 0.000000
# 6 0.000000 0.000000 0.000000 0.000000 0.000000 0.032557
#
#
# Mechanical properties :
#
#
# Convention : Reuss Voigt Hill
#
# Bulk Modulus (GPa) = 52.86342 57.72464 55.29403
# Shear Modulus (GPa) = 22.28444 24.58050 23.43247
#
# Velocity S-wave (km/s) = 3.34259 3.51057 3.42761
# Velocity P-wave (km/s) = 6.43442 6.73603 6.58695
#
# Compressibility (1/GPa) = 0.01891667
#
# Stress axis : x y z
#
# Youngs Moduli (GPa) = 86.18357 55.85984 70.41911
#
# Poissons Ratio (x) = 0.25539 0.32931
# Poissons Ratio (y) = 0.39403 0.22154
# Poissons Ratio (z) = 0.40304 0.17574
#
# Static dielectric constant tensor:
#      x y z
#    x 3.766590 0.000000 0.000000 
#    y 0.000000 3.495640 0.000000 
#    z 0.000000 0.000000 4.233370 
# 
# 
# High freq. dielectric constant tensor:
#      x y z
#    x 1.778890 0.000000 0.000000 
#    y 0.000000 1.755580 0.000000 
#    z 0.000000 0.000000 1.794730 
# 
# From -- ./inp_files/26400.got.cif
#   From: 2010.06.25/outbox.cif.g09.slc.cpg/sg58_14_cif.got.tgz:26400.got - 2010.06.26 21:38:00.
