data_PCOD8236833
_publ_section_title
;
Structure prediction by ZEFSAII (Michael W. Deem and Ramdas Pophale) SiO2 
 PCOD8236833
Probable space group: P N N M
;
_chemical_formula_sum "Si O2"
_cell_formula_units_Z 48
_cell_length_a 9.312676
_cell_length_b 8.869842
_cell_length_c 28.406956
_cell_angle_alpha 90.000000
_cell_angle_beta 90.000000
_cell_angle_gamma 90.000000
_cell_volume 2346.470377
_symmetry_space_group_name_H-M "P N N M"
_symmetry_group_IT_number 58
_symmetry_cell_setting 'orthorhombic'
loop_
_space_group_symop_operation_xyz
x,y,z
-x,-y,z
1/2+x,1/2-y,1/2-z
1/2-x,1/2+y,1/2-z
-x,-y,-z
x,y,-z
1/2-x,1/2+y,1/2+z
1/2+x,1/2-y,1/2+z
loop_
_atom_site_type_symbol
_atom_site_label
_atom_site_fract_x
_atom_site_fract_y
_atom_site_fract_z
Si Si1 0.077662 0.152159 0.052230
Si Si2 0.245021 0.349560 0.649701
Si Si3 0.465680 0.666880 0.790476
Si Si4 0.742274 0.332048 0.297988
Si Si5 0.161850 0.463900 0.447330
Si Si6 0.025463 0.326155 0.859699
O O1 0.248406 0.120052 0.052303
O O2 0.040891 0.293432 0.084835
O O3 0.020519 0.190220 0.000000
O O4 0.000000 0.000000 0.071325
O O5 0.115408 0.247452 0.667167
O O6 0.235134 0.509520 0.675847
O O7 0.227925 0.357053 0.592990
O O8 0.396522 0.272537 0.662137
O O9 0.500000 0.500000 0.808497
O O10 0.366061 0.651532 0.745017
O O11 0.608408 0.763891 0.778924
O O12 0.674400 0.216250 0.335014
O O13 0.171446 0.389572 0.500000
O O14 0.000000 0.500000 0.433338
O O15 0.000000 0.500000 0.850635
#
# Coordination Sequence:
#
# PCOD8236833 Si02
#       6
#     8   8   8   8   8   8
#     4  10  19  37  64  92 124 168 216 260 311 384
#     4  12  24  43  67  94 127 174 219 263 320 391
#     4  12  26  42  65  95 128 162 210 271 324 379
#     4  12  24  44  66  90 124 170 216 256 317 393
#     4  10  20  37  66  98 126 163 217 265 309 380
#     4  12  24  39  61  91 130 165 208 273 327 372
#
# _framework density 20.456256
#
# number of rings (size 3 to 8) (size 9 to 14) (size 15 to 20)
#    0.000    0.667    3.333    6.000    0.000    1.667 
#    0.000    0.000    0.000    0.500    0.000    0.000 
#    0.000    0.000    0.000    0.000    0.000    0.000 
#
# Total GULP energy -595234.748730 kJ/mol
# GULP energy per Si atom -12400.723932 kJ/mol
# Density = 2.040970 g / cm^3
# Si number density = 20.456256 Si / 1000 Ang^3
#
#
#
# Elastic Constant Matrix: (Units=GPa)
#
#
# Indices 1 2 3 4 5 6 
#
# 1 121.1241 34.4155 25.7078 0.0000 0.0000 0.0000
# 2 34.4155 123.1048 47.1535 0.0000 0.0000 0.0000
# 3 25.7078 47.1535 114.8037 0.0000 0.0000 0.0000
# 4 0.0000 0.0000 0.0000 13.3852 0.0000 0.0000
# 5 0.0000 0.0000 0.0000 0.0000 32.8559 0.0000
# 6 0.0000 0.0000 0.0000 0.0000 0.0000 32.9659
#
#
#
# Elastic Compliance Matrix: (Units=1/GPa)
#
#
# Indices 1 2 3 4 5 6 
#
# 1 0.009101 -0.002093 -0.001178 0.000000 0.000000 0.000000
# 2 -0.002093 0.010121 -0.003688 0.000000 0.000000 0.000000
# 3 -0.001178 -0.003688 0.010489 0.000000 0.000000 0.000000
# 4 0.000000 0.000000 0.000000 0.074709 0.000000 0.000000
# 5 0.000000 0.000000 0.000000 0.000000 0.030436 0.000000
# 6 0.000000 0.000000 0.000000 0.000000 0.000000 0.030334
#
#
# Mechanical properties :
#
#
# Convention : Reuss Voigt Hill
#
# Bulk Modulus (GPa) = 63.32338 63.73180 63.52759
# Shear Modulus (GPa) = 27.11880 32.62510 29.87195
#
# Velocity S-wave (km/s) = 3.64496 3.99792 3.82551
# Velocity P-wave (km/s) = 6.98119 7.24803 7.11586
#
# Compressibility (1/GPa) = 0.01579196
#
# Stress axis : x y z
#
# Youngs Moduli (GPa) = 109.88110 98.80411 95.33517
#
# Poissons Ratio (x) = 0.20679 0.11233
# Poissons Ratio (y) = 0.22997 0.35163
# Poissons Ratio (z) = 0.12947 0.36443
#
# Static dielectric constant tensor:
#      x y z
#    x 4.103730 0.000000 0.000000 
#    y 0.000000 3.525240 0.000000 
#    z 0.000000 0.000000 3.848840 
# 
# 
# High freq. dielectric constant tensor:
#      x y z
#    x 1.823170 0.000000 0.000000 
#    y 0.000000 1.768080 0.000000 
#    z 0.000000 0.000000 1.812670 
# 
# From -- ./inp_files/34560.got.cif
#   From: 2010.06.25/outbox.cif.g09.slc.cpg/sg58_18_cif.got.tgz:34560.got - 2010.06.26 21:38:00.
