data_PCOD8237807
_publ_section_title
;
Structure prediction by ZEFSAII (Michael W. Deem and Ramdas Pophale) SiO2 
 PCOD8237807
Probable space group: P N N M
;
_chemical_formula_sum "Si O2"
_cell_formula_units_Z 36
_cell_length_a 22.249277
_cell_length_b 10.039669
_cell_length_c 7.642728
_cell_angle_alpha 90.000000
_cell_angle_beta 90.000000
_cell_angle_gamma 90.000000
_cell_volume 1707.197245
_symmetry_space_group_name_H-M "P N N M"
_symmetry_group_IT_number 58
_symmetry_cell_setting 'orthorhombic'
loop_
_space_group_symop_operation_xyz
x,y,z
-x,-y,z
1/2+x,1/2-y,1/2-z
1/2-x,1/2+y,1/2-z
-x,-y,-z
x,y,-z
1/2-x,1/2+y,1/2+z
1/2+x,1/2-y,1/2+z
loop_
_atom_site_type_symbol
_atom_site_label
_atom_site_fract_x
_atom_site_fract_y
_atom_site_fract_z
Si Si1 0.145581 0.666982 0.193463
Si Si2 0.833917 0.581564 0.000000
Si Si3 0.233704 0.728553 0.500000
Si Si4 0.511963 0.850907 0.707864
Si Si5 0.554459 0.405351 0.197155
Si Si6 0.139673 0.130584 0.000000
O O1 0.194446 0.720316 0.326692
O O2 0.078872 0.696490 0.264064
O O3 0.156378 0.732954 0.000000
O O4 0.151973 0.506067 0.172828
O O5 0.877040 0.710912 0.000000
O O6 0.764013 0.625554 0.000000
O O7 0.287443 0.616479 0.500000
O O8 0.506255 0.847644 0.500000
O O9 0.465794 0.748370 0.794666
O O10 0.500000 0.000000 0.778781
O O11 0.500000 0.500000 0.257498
O O12 0.610571 0.434166 0.326194
O O13 0.575329 0.439154 0.000000
#
# Coordination Sequence:
#
# PCOD8237807 Si02
#       6
#     8   4   4   8   8   4
#     4   9  20  41  58  92 123 154 214 263 307 375
#     4   8  20  42  60  87 122 157 211 263 299 382
#     4  10  22  41  60  85 121 169 206 254 321 374
#     4  10  20  38  68  93 125 166 205 264 323 377
#     4  11  24  41  61  98 132 165 214 262 320 385
#     4  10  21  43  61  85 124 175 207 254 313 381
#
# _framework density 21.087194
#
# number of rings (size 3 to 8) (size 9 to 14) (size 15 to 20)
#    1.333    0.889    1.111    1.667    1.556    1.333 
#   12.000    0.000    0.000    0.000    0.000    0.000 
#    0.000    0.000    0.000    0.000    0.000    0.000 
#
# Total GULP energy -446133.507450 kJ/mol
# GULP energy per Si atom -12392.597429 kJ/mol
# Density = 2.103920 g / cm^3
# Si number density = 21.087194 Si / 1000 Ang^3
#
#
#
# Elastic Constant Matrix: (Units=GPa)
#
#
# Indices 1 2 3 4 5 6 
#
# 1 109.1411 -21.2355 51.8433 0.0000 0.0000 0.0000
# 2 -21.2355 23.5438 -8.9791 0.0000 0.0000 0.0000
# 3 51.8433 -8.9791 96.4545 0.0000 0.0000 0.0000
# 4 0.0000 0.0000 0.0000 14.7040 0.0000 0.0000
# 5 0.0000 0.0000 0.0000 0.0000 1.3235 0.0000
# 6 0.0000 0.0000 0.0000 0.0000 0.0000 36.1394
#
#
#
# Elastic Compliance Matrix: (Units=1/GPa)
#
#
# Indices 1 2 3 4 5 6 
#
# 1 0.014405 0.010410 -0.006774 0.000000 0.000000 0.000000
# 2 0.010410 0.051560 -0.000795 0.000000 0.000000 0.000000
# 3 -0.006774 -0.000795 0.013934 0.000000 0.000000 0.000000
# 4 0.000000 0.000000 0.000000 0.068009 0.000000 0.000000
# 5 0.000000 0.000000 0.000000 0.000000 0.755596 0.000000
# 6 0.000000 0.000000 0.000000 0.000000 0.000000 0.027671
#
#
# Mechanical properties :
#
#
# Convention : Reuss Voigt Hill
#
# Bulk Modulus (GPa) = 11.68484 30.26631 20.97558
# Shear Modulus (GPa) = 5.24098 24.26741 14.75420
#
# Velocity S-wave (km/s) = 1.57822 3.39604 2.64801
# Velocity P-wave (km/s) = 2.97897 5.45542 4.39522
#
# Compressibility (1/GPa) = 0.08558097
#
# Stress axis : x y z
#
# Youngs Moduli (GPa) = 69.41803 19.39495 71.76508
#
# Poissons Ratio (x) = -0.20190 0.48612
# Poissons Ratio (y) = -0.72263 0.05708
# Poissons Ratio (z) = 0.47022 0.01543
#
# Static dielectric constant tensor:
#      x y z
#    x 3.751550 0.000000 0.000000 
#    y 0.000000 3.653580 0.000000 
#    z 0.000000 0.000000 3.541750 
# 
# 
# High freq. dielectric constant tensor:
#      x y z
#    x 1.823180 0.000000 0.000000 
#    y 0.000000 1.810990 0.000000 
#    z 0.000000 0.000000 1.810760 
# 
# From -- ./inp_files/8768.got.cif
#   From: 2010.06.25/outbox.cif.g09.slc.cpg/sg58_5_cif.got.tgz:8768.got - 2010.06.26 21:38:00.
