data_PCOD8237373
_publ_section_title
;
Structure prediction by ZEFSAII (Michael W. Deem and Ramdas Pophale) SiO2 
 PCOD8237373
Probable space group: P N N M
;
_chemical_formula_sum "Si O2"
_cell_formula_units_Z 64
_cell_length_a 29.508441
_cell_length_b 10.147293
_cell_length_c 12.967271
_cell_angle_alpha 90.000000
_cell_angle_beta 90.000000
_cell_angle_gamma 90.000000
_cell_volume 3882.800288
_symmetry_space_group_name_H-M "P N N M"
_symmetry_group_IT_number 58
_symmetry_cell_setting 'orthorhombic'
loop_
_space_group_symop_operation_xyz
x,y,z
-x,-y,z
1/2+x,1/2-y,1/2-z
1/2-x,1/2+y,1/2-z
-x,-y,-z
x,y,-z
1/2-x,1/2+y,1/2+z
1/2+x,1/2-y,1/2+z
loop_
_atom_site_type_symbol
_atom_site_label
_atom_site_fract_x
_atom_site_fract_y
_atom_site_fract_z
Si Si1 0.325344 0.357922 0.186418
Si Si2 0.269601 0.957269 0.383257
Si Si3 0.631636 0.908912 0.881013
Si Si4 0.220854 0.762498 0.117316
Si Si5 0.125293 0.106773 0.623055
Si Si6 0.469427 0.119020 0.876909
Si Si7 0.978058 0.869064 0.377837
Si Si8 0.185417 0.341862 0.695561
O O1 0.282526 0.416580 0.126491
O O2 0.338815 0.220854 0.134756
O O3 0.314935 0.334748 0.307605
O O4 0.365841 0.461677 0.169453
O O5 0.285896 0.938541 0.500000
O O6 0.300201 0.859958 0.314638
O O7 0.274685 0.109698 0.349109
O O8 0.581484 0.891903 0.832088
O O9 0.655504 0.033527 0.831996
O O10 0.626222 0.941006 0.000000
O O11 0.269457 0.834145 0.126023
O O12 0.203501 0.776422 0.000000
O O13 0.133754 0.110287 0.500000
O O14 0.074304 0.145058 0.652583
O O15 0.157590 0.208558 0.681398
O O16 0.493114 0.249085 0.831610
O O17 0.500000 0.000000 0.836067
O O18 0.468233 0.122748 0.000000
O O19 0.982690 0.871755 0.500000
O O20 0.000000 0.000000 0.329647
#
# Coordination Sequence:
#
# PCOD8237373 Si02
#       8
#     8   8   8   8   8   8   8   8
#     4  11  21  33  50  75  96 130 170 205 240 290
#     4  10  20  36  53  69  99 134 164 208 256 284
#     4  11  20  30  47  74 103 128 167 209 236 282
#     4  10  20  36  53  69  99 134 165 207 252 290
#     4  11  20  32  51  72 105 138 164 200 242 291
#     4   9  17  29  43  63  97 132 158 193 241 287
#     4   9  17  29  45  67  95 134 167 188 232 294
#     4  11  21  33  50  75  96 132 173 203 240 296
#
# _framework density 16.482949999999999
#
# number of rings (size 3 to 8) (size 9 to 14) (size 15 to 20)
#    0.000    1.750    2.500    3.750    0.000    4.000 
#    0.000    1.875    0.000    0.000    0.000    0.000 
#    0.000   20.000    0.000    0.000    0.000    0.000 
#
# Total GULP energy -793603.971163 kJ/mol
# GULP energy per Si atom -12400.062049 kJ/mol
# Density = 1.644543 g / cm^3
# Si number density = 16.482950 Si / 1000 Ang^3
#
#
#
# Elastic Constant Matrix: (Units=GPa)
#
#
# Indices 1 2 3 4 5 6 
#
# 1 65.1827 18.2906 22.0905 0.0000 0.0000 0.0000
# 2 18.2906 81.8215 21.1276 0.0000 0.0000 0.0000
# 3 22.0905 21.1276 56.4915 0.0000 0.0000 0.0000
# 4 0.0000 0.0000 0.0000 21.9804 0.0000 0.0000
# 5 0.0000 0.0000 0.0000 0.0000 12.6195 0.0000
# 6 0.0000 0.0000 0.0000 0.0000 0.0000 31.9905
#
#
#
# Elastic Compliance Matrix: (Units=1/GPa)
#
#
# Indices 1 2 3 4 5 6 
#
# 1 0.018121 -0.002459 -0.006167 0.000000 0.000000 0.000000
# 2 -0.002459 0.013862 -0.004223 0.000000 0.000000 0.000000
# 3 -0.006167 -0.004223 0.021693 0.000000 0.000000 0.000000
# 4 0.000000 0.000000 0.000000 0.045495 0.000000 0.000000
# 5 0.000000 0.000000 0.000000 0.000000 0.079243 0.000000
# 6 0.000000 0.000000 0.000000 0.000000 0.000000 0.031259
#
#
# Mechanical properties :
#
#
# Convention : Reuss Voigt Hill
#
# Bulk Modulus (GPa) = 35.74058 36.27924 36.00991
# Shear Modulus (GPa) = 20.43359 22.78388 21.60874
#
# Velocity S-wave (km/s) = 3.52473 3.72192 3.62467
# Velocity P-wave (km/s) = 6.18833 6.36618 6.27788
#
# Compressibility (1/GPa) = 0.02797940
#
# Stress axis : x y z
#
# Youngs Moduli (GPa) = 55.18378 72.14117 46.09883
#
# Poissons Ratio (x) = 0.17736 0.28428
# Poissons Ratio (y) = 0.13567 0.19467
# Poissons Ratio (z) = 0.34030 0.30464
#
# Static dielectric constant tensor:
#      x y z
#    x 3.258170 0.000000 0.000000 
#    y 0.000000 3.411490 0.000000 
#    z 0.000000 0.000000 2.790280 
# 
# 
# High freq. dielectric constant tensor:
#      x y z
#    x 1.636660 0.000000 0.000000 
#    y 0.000000 1.653680 0.000000 
#    z 0.000000 0.000000 1.587080 
# 
# From -- ./inp_files/13439.got.cif
#   From: 2010.06.25/outbox.cif.g09.slc.cpg/sg58_7_cif.got.tgz:13439.got - 2010.06.26 21:38:00.
