data_PCOD8237010
_publ_section_title
;
Structure prediction by ZEFSAII (Michael W. Deem and Ramdas Pophale) SiO2 
 PCOD8237010
Probable space group: P N N M
;
_chemical_formula_sum "Si O2"
_cell_formula_units_Z 56
_cell_length_a 18.726024
_cell_length_b 18.371859
_cell_length_c 9.087305
_cell_angle_alpha 90.000000
_cell_angle_beta 90.000000
_cell_angle_gamma 90.000000
_cell_volume 3126.322556
_symmetry_space_group_name_H-M "P N N M"
_symmetry_group_IT_number 58
_symmetry_cell_setting 'orthorhombic'
loop_
_space_group_symop_operation_xyz
x,y,z
-x,-y,z
1/2+x,1/2-y,1/2-z
1/2-x,1/2+y,1/2-z
-x,-y,-z
x,y,-z
1/2-x,1/2+y,1/2+z
1/2+x,1/2-y,1/2+z
loop_
_atom_site_type_symbol
_atom_site_label
_atom_site_fract_x
_atom_site_fract_y
_atom_site_fract_z
Si Si1 0.930146 0.458774 0.827389
Si Si2 0.455877 0.341825 0.826082
Si Si3 0.747695 0.361155 0.334493
Si Si4 0.854767 0.044790 0.169270
Si Si5 0.896541 0.310080 0.331729
Si Si6 0.222434 0.497682 0.830063
Si Si7 0.594830 0.379803 0.335364
O O1 0.925195 0.380399 0.752131
O O2 0.861898 0.511077 0.792407
O O3 0.000000 0.500000 0.767514
O O4 0.935398 0.443623 0.000000
O O5 0.408400 0.403497 0.753793
O O6 0.431193 0.263038 0.766431
O O7 0.538065 0.353339 0.783061
O O8 0.447385 0.347560 0.000000
O O9 0.752897 0.397014 0.500000
O O10 0.809957 0.301000 0.318062
O O11 0.759915 0.419061 0.206457
O O12 0.666894 0.330295 0.317009
O O13 0.774375 0.053977 0.234215
O O14 0.883037 0.963187 0.192754
O O15 0.852994 0.067646 0.000000
O O16 0.919713 0.319928 0.500000
O O17 0.238351 0.481753 0.000000
O O18 0.562864 0.371330 0.500000
#
# Coordination Sequence:
#
# PCOD8237010 Si02
#       7
#     8   8   8   8   8   8   8
#     4   9  18  33  54  79 103 129 165 208 251 296
#     4  11  22  33  48  73 105 135 164 205 253 297
#     4   8  15  31  52  69  90 123 161 198 238 291
#     4  10  20  34  51  71  98 133 172 208 246 299
#     4   9  19  35  52  72  99 132 168 204 249 301
#     4   9  16  28  49  75  99 122 155 200 245 288
#     4   9  18  32  51  73  95 126 168 207 245 295
#
# _framework density 17.912419
#
# number of rings (size 3 to 8) (size 9 to 14) (size 15 to 20)
#    0.000    2.714    0.000    2.571    0.000    6.571 
#    0.000    1.429    0.000    6.857    0.000    0.000 
#    0.000    0.000    0.000    0.000    0.000    0.000 
#
# Total GULP energy -693977.714368 kJ/mol
# GULP energy per Si atom -12392.459185 kJ/mol
# Density = 1.787165 g / cm^3
# Si number density = 17.912419 Si / 1000 Ang^3
#
#
#
# Elastic Constant Matrix: (Units=GPa)
#
#
# Indices 1 2 3 4 5 6 
#
# 1 152.0616 52.6964 52.9423 0.0000 0.0000 0.0000
# 2 52.6964 60.3336 30.1790 0.0000 0.0000 0.0000
# 3 52.9423 30.1790 69.1206 0.0000 0.0000 0.0000
# 4 0.0000 0.0000 0.0000 19.7063 0.0000 0.0000
# 5 0.0000 0.0000 0.0000 0.0000 30.1732 0.0000
# 6 0.0000 0.0000 0.0000 0.0000 0.0000 16.2578
#
#
#
# Elastic Compliance Matrix: (Units=1/GPa)
#
#
# Indices 1 2 3 4 5 6 
#
# 1 0.010758 -0.006748 -0.005294 0.000000 0.000000 0.000000
# 2 -0.006748 0.025439 -0.005938 0.000000 0.000000 0.000000
# 3 -0.005294 -0.005938 0.021115 0.000000 0.000000 0.000000
# 4 0.000000 0.000000 0.000000 0.050745 0.000000 0.000000
# 5 0.000000 0.000000 0.000000 0.000000 0.033142 0.000000
# 6 0.000000 0.000000 0.000000 0.000000 0.000000 0.061509
#
#
# Mechanical properties :
#
#
# Convention : Reuss Voigt Hill
#
# Bulk Modulus (GPa) = 46.83515 61.46126 54.14820
# Shear Modulus (GPa) = 20.34301 22.94067 21.64184
#
# Velocity S-wave (km/s) = 3.37366 3.58259 3.47969
# Velocity P-wave (km/s) = 6.43265 7.17634 6.81465
#
# Compressibility (1/GPa) = 0.02135149
#
# Stress axis : x y z
#
# Youngs Moduli (GPa) = 92.95495 39.30995 47.36047
#
# Poissons Ratio (x) = 0.26528 0.25070
# Poissons Ratio (y) = 0.62729 0.28123
# Poissons Ratio (z) = 0.49206 0.23343
#
# Static dielectric constant tensor:
#      x y z
#    x 3.750070 0.000000 0.000000 
#    y 0.000000 2.993890 0.000000 
#    z 0.000000 0.000000 3.346210 
# 
# 
# High freq. dielectric constant tensor:
#      x y z
#    x 1.711210 0.000000 0.000000 
#    y 0.000000 1.647690 0.000000 
#    z 0.000000 0.000000 1.697890 
# 
# From -- ./inp_files/8163.got.cif
#   From: 2010.06.25/outbox.cif.g09.slc.cpg/sg58_5_cif.got.tgz:8163.got - 2010.06.26 21:38:00.
