data_PCOD8237445
_publ_section_title
;
Structure prediction by ZEFSAII (Michael W. Deem and Ramdas Pophale) SiO2 
 PCOD8237445
Probable space group: P N N M
;
_chemical_formula_sum "Si O2"
_cell_formula_units_Z 48
_cell_length_a 14.323359
_cell_length_b 7.778602
_cell_length_c 21.764998
_cell_angle_alpha 90.000000
_cell_angle_beta 90.000000
_cell_angle_gamma 90.000000
_cell_volume 2424.962683
_symmetry_space_group_name_H-M "P N N M"
_symmetry_group_IT_number 58
_symmetry_cell_setting 'orthorhombic'
loop_
_space_group_symop_operation_xyz
x,y,z
-x,-y,z
1/2+x,1/2-y,1/2-z
1/2-x,1/2+y,1/2-z
-x,-y,-z
x,y,-z
1/2-x,1/2+y,1/2+z
1/2+x,1/2-y,1/2+z
loop_
_atom_site_type_symbol
_atom_site_label
_atom_site_fract_x
_atom_site_fract_y
_atom_site_fract_z
Si Si1 0.608275 0.962252 0.431165
Si Si2 0.693360 0.843904 0.239271
Si Si3 0.490057 0.799003 0.251536
Si Si4 0.152746 0.224479 0.146318
Si Si5 0.827903 0.692738 0.675125
Si Si6 0.198897 0.896254 0.927892
O O1 0.642854 0.997361 0.500000
O O2 0.630872 0.764696 0.414113
O O3 0.500000 0.000000 0.423575
O O4 0.661055 0.095088 0.388214
O O5 0.597017 0.733167 0.245414
O O6 0.749917 0.774953 0.181455
O O7 0.751861 0.831923 0.302624
O O8 0.676524 0.044505 0.227624
O O9 0.436515 0.708682 0.308323
O O10 0.436236 0.752270 0.186269
O O11 0.500000 0.000000 0.265913
O O12 0.147692 0.064449 0.098816
O O13 0.799790 0.634354 0.606352
O O14 0.219406 0.920435 0.000000
#
# Coordination Sequence:
#
# PCOD8237445 Si02
#       6
#     8   8   8   8   8   8
#     4  10  22  37  55  79 109 150 189 224 271 325
#     4   9  19  34  53  81 108 138 180 227 279 326
#     4   9  18  34  58  82 110 145 179 232 278 328
#     4  10  20  36  59  82 109 148 183 227 276 333
#     4   9  19  33  55  79 108 142 184 222 278 329
#     4  10  22  38  57  80 114 149 185 230 270 328
#
# _framework density 19.794118999999998
#
# number of rings (size 3 to 8) (size 9 to 14) (size 15 to 20)
#    0.000    2.500    0.000    1.000    9.333    0.667 
#    3.000    5.000    0.000   13.500    0.000    2.333 
#    0.000    0.000    0.000    0.000    0.000    0.000 
#
# Total GULP energy -594698.868453 kJ/mol
# GULP energy per Si atom -12389.559759 kJ/mol
# Density = 1.974907 g / cm^3
# Si number density = 19.794119 Si / 1000 Ang^3
#
#
#
# Elastic Constant Matrix: (Units=GPa)
#
#
# Indices 1 2 3 4 5 6 
#
# 1 87.2570 25.1126 19.8926 0.0000 0.0000 0.0000
# 2 25.1126 77.5778 41.3692 0.0000 0.0000 0.0000
# 3 19.8926 41.3692 92.4364 0.0000 0.0000 0.0000
# 4 0.0000 0.0000 0.0000 24.8639 0.0000 0.0000
# 5 0.0000 0.0000 0.0000 0.0000 18.9514 0.0000
# 6 0.0000 0.0000 0.0000 0.0000 0.0000 19.5671
#
#
#
# Elastic Compliance Matrix: (Units=1/GPa)
#
#
# Indices 1 2 3 4 5 6 
#
# 1 0.012734 -0.003495 -0.001176 0.000000 0.000000 0.000000
# 2 -0.003495 0.017890 -0.007254 0.000000 0.000000 0.000000
# 3 -0.001176 -0.007254 0.014318 0.000000 0.000000 0.000000
# 4 0.000000 0.000000 0.000000 0.040219 0.000000 0.000000
# 5 0.000000 0.000000 0.000000 0.000000 0.052767 0.000000
# 6 0.000000 0.000000 0.000000 0.000000 0.000000 0.051106
#
#
# Mechanical properties :
#
#
# Convention : Reuss Voigt Hill
#
# Bulk Modulus (GPa) = 47.41329 47.77998 47.59664
# Shear Modulus (GPa) = 22.73594 24.06961 23.40278
#
# Velocity S-wave (km/s) = 3.39281 3.49090 3.44220
# Velocity P-wave (km/s) = 6.27323 6.35920 6.31636
#
# Compressibility (1/GPa) = 0.02109113
#
# Stress axis : x y z
#
# Youngs Moduli (GPa) = 78.52726 55.89670 69.84174
#
# Poissons Ratio (x) = 0.19536 0.08216
# Poissons Ratio (y) = 0.27445 0.50666
# Poissons Ratio (z) = 0.09238 0.40550
#
# Static dielectric constant tensor:
#      x y z
#    x 3.994380 0.000000 0.000000 
#    y 0.000000 3.791060 0.000000 
#    z 0.000000 0.000000 3.624790 
# 
# 
# High freq. dielectric constant tensor:
#      x y z
#    x 1.763340 0.000000 0.000000 
#    y 0.000000 1.771130 0.000000 
#    z 0.000000 0.000000 1.761790 
# 
# From -- ./inp_files/29917.got.cif
#   From: 2010.06.25/outbox.cif.g09.slc.cpg/sg58_15_cif.got.tgz:29917.got - 2010.06.26 21:38:00.
