data_PCOD8237490
_publ_section_title
;
Structure prediction by ZEFSAII (Michael W. Deem and Ramdas Pophale) SiO2 
 PCOD8237490
Probable space group: P N N M
;
_chemical_formula_sum "Si O2"
_cell_formula_units_Z 32
_cell_length_a 20.659534
_cell_length_b 8.944559
_cell_length_c 8.937047
_cell_angle_alpha 90.000000
_cell_angle_beta 90.000000
_cell_angle_gamma 90.000000
_cell_volume 1651.480676
_symmetry_space_group_name_H-M "P N N M"
_symmetry_group_IT_number 58
_symmetry_cell_setting 'orthorhombic'
loop_
_space_group_symop_operation_xyz
x,y,z
-x,-y,z
1/2+x,1/2-y,1/2-z
1/2-x,1/2+y,1/2-z
-x,-y,-z
x,y,-z
1/2-x,1/2+y,1/2+z
1/2+x,1/2-y,1/2+z
loop_
_atom_site_type_symbol
_atom_site_label
_atom_site_fract_x
_atom_site_fract_y
_atom_site_fract_z
Si Si1 0.936602 0.917043 0.322247
Si Si2 0.311767 0.400756 0.174142
Si Si3 0.816731 0.413972 0.173544
Si Si4 0.934910 0.579940 0.322348
O O1 0.939815 0.911011 0.500000
O O2 0.934177 0.748641 0.258573
O O3 0.873373 0.005498 0.268464
O O4 0.000000 0.000000 0.257689
O O5 0.248894 0.498269 0.205774
O O6 0.306401 0.253266 0.271415
O O7 0.319073 0.358401 0.000000
O O8 0.874061 0.490779 0.262472
O O9 0.834472 0.412890 0.000000
O O10 0.931117 0.578768 0.500000
O O11 0.000000 0.500000 0.265551
#
# Coordination Sequence:
#
# PCOD8237490 Si02
#       4
#     8   8   8   8
#     4   9  17  32  56  83 107 137 185 235 272 319
#     4  10  21  37  56  79 110 147 185 227 278 335
#     4  11  23  37  56  83 114 147 185 234 283 328
#     4  10  20  36  60  85 111 148 189 229 277 334
#
# _framework density 19.376550999999999
#
# number of rings (size 3 to 8) (size 9 to 14) (size 15 to 20)
#    0.000    2.000    0.000    3.750    0.000    8.500 
#    0.000    1.250    0.000    3.000    0.000    0.000 
#    0.000    0.000    0.000    0.000    0.000    0.000 
#
# Total GULP energy -396917.552659 kJ/mol
# GULP energy per Si atom -12403.673521 kJ/mol
# Density = 1.933245 g / cm^3
# Si number density = 19.376551 Si / 1000 Ang^3
#
#
#
# Elastic Constant Matrix: (Units=GPa)
#
#
# Indices 1 2 3 4 5 6 
#
# 1 130.0619 39.3416 11.9025 0.0000 0.0000 0.0000
# 2 39.3416 136.8696 10.9394 0.0000 0.0000 0.0000
# 3 11.9025 10.9394 3.9737 0.0000 0.0000 0.0000
# 4 0.0000 0.0000 0.0000 56.2229 0.0000 0.0000
# 5 0.0000 0.0000 0.0000 0.0000 15.6117 0.0000
# 6 0.0000 0.0000 0.0000 0.0000 0.0000 38.5025
#
#
#
# Elastic Compliance Matrix: (Units=1/GPa)
#
#
# Indices 1 2 3 4 5 6 
#
# 1 0.010638 -0.000655 -0.030059 0.000000 0.000000 0.000000
# 2 -0.000655 0.009408 -0.023936 0.000000 0.000000 0.000000
# 3 -0.030059 -0.023936 0.407586 0.000000 0.000000 0.000000
# 4 0.000000 0.000000 0.000000 0.017786 0.000000 0.000000
# 5 0.000000 0.000000 0.000000 0.000000 0.064055 0.000000
# 6 0.000000 0.000000 0.000000 0.000000 0.000000 0.025972
#
#
# Mechanical properties :
#
#
# Convention : Reuss Voigt Hill
#
# Bulk Modulus (GPa) = 3.14140 43.91912 23.53026
# Shear Modulus (GPa) = 6.65907 35.98218 21.32063
#
# Velocity S-wave (km/s) = 1.85584 4.31396 3.32072
# Velocity P-wave (km/s) = 2.49338 6.89413 5.18392
#
# Compressibility (1/GPa) = 0.31832917
#
# Stress axis : x y z
#
# Youngs Moduli (GPa) = 94.00557 106.29626 2.45347
#
# Poissons Ratio (x) = 0.06964 0.07375
# Poissons Ratio (y) = 0.06159 0.05873
# Poissons Ratio (z) = 2.82575 2.54434
#
# Static dielectric constant tensor:
#      x y z
#    x 3.734630 0.000000 0.000000 
#    y 0.000000 3.716820 0.000000 
#    z 0.000000 0.000000 3.252300 
# 
# 
# High freq. dielectric constant tensor:
#      x y z
#    x 1.775220 0.000000 0.000000 
#    y 0.000000 1.775060 0.000000 
#    z 0.000000 0.000000 1.719780 
# 
# From -- ./inp_files/2138.got.cif
#   From: 2010.06.25/outbox.cif.g09.slc.cpg/sg58_2_cif.got.tgz:2138.got - 2010.06.26 21:38:00.
