data_PCOD8237400
_publ_section_title
;
Structure prediction by ZEFSAII (Michael W. Deem and Ramdas Pophale) SiO2 
 PCOD8237400
Probable space group: P N N M
;
_chemical_formula_sum "Si O2"
_cell_formula_units_Z 64
_cell_length_a 23.008079
_cell_length_b 15.548447
_cell_length_c 9.310748
_cell_angle_alpha 90.000000
_cell_angle_beta 90.000000
_cell_angle_gamma 90.000000
_cell_volume 3330.826030
_symmetry_space_group_name_H-M "P N N M"
_symmetry_group_IT_number 58
_symmetry_cell_setting 'orthorhombic'
loop_
_space_group_symop_operation_xyz
x,y,z
-x,-y,z
1/2+x,1/2-y,1/2-z
1/2-x,1/2+y,1/2-z
-x,-y,-z
x,y,-z
1/2-x,1/2+y,1/2+z
1/2+x,1/2-y,1/2+z
loop_
_atom_site_type_symbol
_atom_site_label
_atom_site_fract_x
_atom_site_fract_y
_atom_site_fract_z
Si Si1 0.548686 0.570747 0.830152
Si Si2 0.302098 0.693041 0.666500
Si Si3 0.856527 0.628138 0.831630
Si Si4 0.743598 0.078748 0.840347
Si Si5 0.435847 0.253649 0.671039
Si Si6 0.145317 0.021862 0.161574
Si Si7 0.802606 0.255895 0.166885
Si Si8 0.984775 0.594696 0.170706
O O1 0.500000 0.500000 0.789293
O O2 0.538106 0.661575 0.749784
O O3 0.609410 0.530958 0.777730
O O4 0.551048 0.587339 0.000000
O O5 0.285565 0.695151 0.500000
O O6 0.333771 0.779283 0.717352
O O7 0.352405 0.622771 0.698431
O O8 0.241211 0.679348 0.751017
O O9 0.811451 0.560581 0.762211
O O10 0.920886 0.616208 0.769796
O O11 0.856033 0.613176 0.000000
O O12 0.782848 0.159852 0.794113
O O13 0.786270 0.998497 0.830978
O O14 0.718904 0.092426 0.000000
O O15 0.440901 0.269272 0.500000
O O16 0.369381 0.235853 0.718087
O O17 0.471478 0.169567 0.722938
O O18 0.121090 0.002963 0.000000
O O19 0.798215 0.277723 0.000000
O O20 0.000000 0.500000 0.231917
O O21 0.985917 0.592786 0.000000
#
# Coordination Sequence:
#
# PCOD8237400 Si02
#       8
#     8   8   8   8   8   8   8   8
#     4  11  25  40  55  83 119 150 186 236 294 349
#     4   9  19  32  51  81 111 142 179 225 272 327
#     4   9  18  33  53  79 107 141 182 221 274 326
#     4   9  17  32  52  76 105 139 176 220 270 322
#     4  10  20  37  62  84 110 154 198 237 280 335
#     4  10  20  36  57  82 113 145 188 231 271 336
#     4   9  17  32  52  78 107 140 182 221 272 332
#     4   9  19  35  56  84 113 142 187 242 281 322
#
# _framework density 19.214452999999999
#
# number of rings (size 3 to 8) (size 9 to 14) (size 15 to 20)
#    0.000    2.500    1.250    0.375    1.750    3.500 
#    0.000    1.875    0.000    1.500    0.000    0.000 
#    0.000    0.000    0.000    0.000    0.000    0.000 
#
# Total GULP energy -793302.412685 kJ/mol
# GULP energy per Si atom -12395.350198 kJ/mol
# Density = 1.917072 g / cm^3
# Si number density = 19.214453 Si / 1000 Ang^3
#
#
#
# Elastic Constant Matrix: (Units=GPa)
#
#
# Indices 1 2 3 4 5 6 
#
# 1 136.9401 52.5341 41.4519 0.0000 0.0000 0.0000
# 2 52.5341 102.5332 36.8702 0.0000 0.0000 0.0000
# 3 41.4519 36.8702 47.2258 0.0000 0.0000 0.0000
# 4 0.0000 0.0000 0.0000 20.5521 0.0000 0.0000
# 5 0.0000 0.0000 0.0000 0.0000 26.7660 0.0000
# 6 0.0000 0.0000 0.0000 0.0000 0.0000 23.1114
#
#
#
# Elastic Compliance Matrix: (Units=1/GPa)
#
#
# Indices 1 2 3 4 5 6 
#
# 1 0.010522 -0.002878 -0.006989 0.000000 0.000000 0.000000
# 2 -0.002878 0.014347 -0.008675 0.000000 0.000000 0.000000
# 3 -0.006989 -0.008675 0.034082 0.000000 0.000000 0.000000
# 4 0.000000 0.000000 0.000000 0.048657 0.000000 0.000000
# 5 0.000000 0.000000 0.000000 0.000000 0.037361 0.000000
# 6 0.000000 0.000000 0.000000 0.000000 0.000000 0.043269
#
#
# Mechanical properties :
#
#
# Convention : Reuss Voigt Hill
#
# Bulk Modulus (GPa) = 45.72959 60.93461 53.33210
# Shear Modulus (GPa) = 21.49528 24.47543 22.98535
#
# Velocity S-wave (km/s) = 3.34833 3.57291 3.46244
# Velocity P-wave (km/s) = 6.22894 6.98589 6.61825
#
# Compressibility (1/GPa) = 0.02186768
#
# Stress axis : x y z
#
# Youngs Moduli (GPa) = 95.03877 69.70146 29.34128
#
# Poissons Ratio (x) = 0.20060 0.20506
# Poissons Ratio (y) = 0.27352 0.25453
# Poissons Ratio (z) = 0.66419 0.60465
#
# Static dielectric constant tensor:
#      x y z
#    x 3.625810 0.000000 0.000000 
#    y 0.000000 3.618850 0.000000 
#    z 0.000000 0.000000 3.281500 
# 
# 
# High freq. dielectric constant tensor:
#      x y z
#    x 1.749870 0.000000 0.000000 
#    y 0.000000 1.746720 0.000000 
#    z 0.000000 0.000000 1.721030 
# 
# From -- ./inp_files/9937.got.cif
#   From: 2010.06.25/outbox.cif.g09.slc.cpg/sg58_5_cif.got.tgz:9937.got - 2010.06.26 21:38:00.
