data_PCOD8237901
_publ_section_title
;
Structure prediction by ZEFSAII (Michael W. Deem and Ramdas Pophale) SiO2 
 PCOD8237901
Probable space group: P N N M
;
_chemical_formula_sum "Si O2"
_cell_formula_units_Z 48
_cell_length_a 9.250539
_cell_length_b 15.755791
_cell_length_c 17.664816
_cell_angle_alpha 90.000000
_cell_angle_beta 90.000000
_cell_angle_gamma 90.000000
_cell_volume 2574.639144
_symmetry_space_group_name_H-M "P N N M"
_symmetry_group_IT_number 58
_symmetry_cell_setting 'orthorhombic'
loop_
_space_group_symop_operation_xyz
x,y,z
-x,-y,z
1/2+x,1/2-y,1/2-z
1/2-x,1/2+y,1/2-z
-x,-y,-z
x,y,-z
1/2-x,1/2+y,1/2+z
1/2+x,1/2-y,1/2+z
loop_
_atom_site_type_symbol
_atom_site_label
_atom_site_fract_x
_atom_site_fract_y
_atom_site_fract_z
Si Si1 0.504079 0.767276 0.320879
Si Si2 0.785155 0.054361 0.085236
Si Si3 0.726532 0.151315 0.221575
Si Si4 0.396241 0.598350 0.355427
Si Si5 0.345195 0.510447 0.803126
Si Si6 0.391296 0.077308 0.587144
O O1 0.423138 0.809038 0.249739
O O2 0.649063 0.721949 0.290310
O O3 0.389934 0.700339 0.358404
O O4 0.536719 0.835425 0.385533
O O5 0.681082 0.106054 0.141784
O O6 0.944974 0.075309 0.114437
O O7 0.775489 0.950826 0.093377
O O8 0.753552 0.083434 0.000000
O O9 0.778680 0.080601 0.281286
O O10 0.373117 0.569013 0.269617
O O11 0.500000 0.500000 0.843893
O O12 0.247673 0.560547 0.862064
O O13 0.344994 0.087756 0.500000
O O14 0.500000 0.000000 0.597958
#
# Coordination Sequence:
#
# PCOD8237901 Si02
#       6
#     8   8   8   8   8   8
#     4  11  20  36  57  86 115 147 193 248 279 337
#     4   9  16  30  53  84 115 140 178 231 289 343
#     4  10  21  34  58  86 114 151 190 245 283 340
#     4   9  16  29  53  84 110 138 184 229 282 330
#     4  11  18  39  61  84 116 150 198 240 284 357
#     4  11  25  40  57  83 117 159 197 235 295 349
#
# _framework density 18.643388999999999
#
# number of rings (size 3 to 8) (size 9 to 14) (size 15 to 20)
#    0.000    1.833    6.667    2.000    0.000    3.667 
#    0.000    0.000    0.000    1.000    0.000   16.333 
#    0.000    0.000    0.000    0.000    0.000    0.000 
#
# Total GULP energy -594696.389740 kJ/mol
# GULP energy per Si atom -12389.508120 kJ/mol
# Density = 1.860096 g / cm^3
# Si number density = 18.643389 Si / 1000 Ang^3
#
#
#
# Elastic Constant Matrix: (Units=GPa)
#
#
# Indices 1 2 3 4 5 6 
#
# 1 47.1986 28.1090 39.1589 0.0000 0.0000 0.0000
# 2 28.1090 127.8888 52.7417 0.0000 0.0000 0.0000
# 3 39.1589 52.7417 118.5558 0.0000 0.0000 0.0000
# 4 0.0000 0.0000 0.0000 22.7224 0.0000 0.0000
# 5 0.0000 0.0000 0.0000 0.0000 24.4221 0.0000
# 6 0.0000 0.0000 0.0000 0.0000 0.0000 19.8775
#
#
#
# Elastic Compliance Matrix: (Units=1/GPa)
#
#
# Indices 1 2 3 4 5 6 
#
# 1 0.030147 -0.003086 -0.008585 0.000000 0.000000 0.000000
# 2 -0.003086 0.009892 -0.003381 0.000000 0.000000 0.000000
# 3 -0.008585 -0.003381 0.012775 0.000000 0.000000 0.000000
# 4 0.000000 0.000000 0.000000 0.044009 0.000000 0.000000
# 5 0.000000 0.000000 0.000000 0.000000 0.040947 0.000000
# 6 0.000000 0.000000 0.000000 0.000000 0.000000 0.050308
#
#
# Mechanical properties :
#
#
# Convention : Reuss Voigt Hill
#
# Bulk Modulus (GPa) = 44.03353 59.29582 51.66468
# Shear Modulus (GPa) = 22.14816 24.97996 23.56406
#
# Velocity S-wave (km/s) = 3.45046 3.66441 3.55905
# Velocity P-wave (km/s) = 6.28843 7.05537 6.68291
#
# Compressibility (1/GPa) = 0.02270997
#
# Stress axis : x y z
#
# Youngs Moduli (GPa) = 33.17043 101.09148 78.27960
#
# Poissons Ratio (x) = 0.31194 0.67202
# Poissons Ratio (y) = 0.10235 0.26470
# Poissons Ratio (z) = 0.28476 0.34183
#
# Static dielectric constant tensor:
#      x y z
#    x 3.198780 0.000000 0.000000 
#    y 0.000000 4.144620 0.000000 
#    z 0.000000 0.000000 3.429290 
# 
# 
# High freq. dielectric constant tensor:
#      x y z
#    x 1.690280 0.000000 0.000000 
#    y 0.000000 1.741530 0.000000 
#    z 0.000000 0.000000 1.709890 
# 
# From -- ./inp_files/25279.got.cif
#   From: 2010.06.25/outbox.cif.g09.slc.cpg/sg58_13_cif.got.tgz:25279.got - 2010.06.26 21:38:00.
