data_PCOD8237256
_publ_section_title
;
Structure prediction by ZEFSAII (Michael W. Deem and Ramdas Pophale) SiO2 
 PCOD8237256
Probable space group: P N N M
;
_chemical_formula_sum "Si O2"
_cell_formula_units_Z 56
_cell_length_a 22.343224
_cell_length_b 8.834873
_cell_length_c 14.706847
_cell_angle_alpha 90.000000
_cell_angle_beta 90.000000
_cell_angle_gamma 90.000000
_cell_volume 2903.124928
_symmetry_space_group_name_H-M "P N N M"
_symmetry_group_IT_number 58
_symmetry_cell_setting 'orthorhombic'
loop_
_space_group_symop_operation_xyz
x,y,z
-x,-y,z
1/2+x,1/2-y,1/2-z
1/2-x,1/2+y,1/2-z
-x,-y,-z
x,y,-z
1/2-x,1/2+y,1/2+z
1/2+x,1/2-y,1/2+z
loop_
_atom_site_type_symbol
_atom_site_label
_atom_site_fract_x
_atom_site_fract_y
_atom_site_fract_z
Si Si1 0.205429 0.986906 0.102344
Si Si2 0.933322 0.499562 0.106628
Si Si3 0.932678 0.565263 0.500000
Si Si4 0.863580 0.762670 0.798314
Si Si5 0.864119 0.261304 0.786350
Si Si6 0.163379 0.477070 0.653385
Si Si7 0.429792 0.492793 0.809099
Si Si8 0.064060 0.077696 0.500000
O O1 0.187334 0.149121 0.144981
O O2 0.183071 0.849842 0.165819
O O3 0.276983 0.977852 0.093560
O O4 0.179164 0.972674 0.000000
O O5 0.897462 0.646651 0.137043
O O6 0.901055 0.346056 0.136037
O O7 0.000000 0.500000 0.149221
O O8 0.936852 0.501155 0.000000
O O9 0.895718 0.513588 0.589743
O O10 0.941653 0.743096 0.500000
O O11 0.000000 0.500000 0.500000
O O12 0.835944 0.676965 0.711905
O O13 0.911394 0.884651 0.765068
O O14 0.831698 0.381826 0.721872
O O15 0.909907 0.171811 0.722393
O O16 0.500000 0.500000 0.819168
O O17 0.400662 0.526266 0.908762
O O18 0.000000 0.000000 0.500000
#
# Coordination Sequence:
#
# PCOD8237256 Si02
#       8
#     8   8   4   8   8   8   8   4
#     4  11  22  41  62  85 118 160 210 263 307 358
#     4  10  20  36  58  87 121 152 194 253 311 362
#     4  12  26  40  66  98 128 166 201 255 317 380
#     4  10  21  37  60  85 117 159 205 247 309 366
#     4  10  23  37  60  86 116 159 205 250 303 371
#     4  11  23  41  61  87 123 158 205 254 312 371
#     4  10  20  35  56  83 118 155 195 241 303 366
#     4  10  22  38  58  86 126 162 194 249 299 370
#
# _framework density 19.289559000000001
#
# number of rings (size 3 to 8) (size 9 to 14) (size 15 to 20)
#    0.000    1.571    2.143    2.571    4.000    2.286 
#    0.000    0.000    0.000    6.857    0.000    0.000 
#    0.000    0.000    0.000    0.000    0.000    0.000 
#
# Total GULP energy -694352.576438 kJ/mol
# GULP energy per Si atom -12399.153151 kJ/mol
# Density = 1.924565 g / cm^3
# Si number density = 19.289559 Si / 1000 Ang^3
#
#
#
# Elastic Constant Matrix: (Units=GPa)
#
#
# Indices 1 2 3 4 5 6 
#
# 1 104.9248 34.2904 35.6492 0.0000 0.0000 0.0000
# 2 34.2904 105.2063 33.9429 0.0000 0.0000 0.0000
# 3 35.6492 33.9429 105.5354 0.0000 0.0000 0.0000
# 4 0.0000 0.0000 0.0000 2.5487 0.0000 0.0000
# 5 0.0000 0.0000 0.0000 0.0000 29.7624 0.0000
# 6 0.0000 0.0000 0.0000 0.0000 0.0000 13.3983
#
#
#
# Elastic Compliance Matrix: (Units=1/GPa)
#
#
# Indices 1 2 3 4 5 6 
#
# 1 0.011447 -0.002771 -0.002976 0.000000 0.000000 0.000000
# 2 -0.002771 0.011276 -0.002691 0.000000 0.000000 0.000000
# 3 -0.002976 -0.002691 0.011346 0.000000 0.000000 0.000000
# 4 0.000000 0.000000 0.000000 0.392364 0.000000 0.000000
# 5 0.000000 0.000000 0.000000 0.000000 0.033599 0.000000
# 6 0.000000 0.000000 0.000000 0.000000 0.000000 0.074636
#
#
# Mechanical properties :
#
#
# Convention : Reuss Voigt Hill
#
# Bulk Modulus (GPa) = 58.15651 58.15907 58.15779
# Shear Modulus (GPa) = 8.97222 23.26080 16.11651
#
# Velocity S-wave (km/s) = 2.15903 3.47634 2.89364
# Velocity P-wave (km/s) = 6.03572 6.80656 6.43270
#
# Compressibility (1/GPa) = 0.01719498
#
# Stress axis : x y z
#
# Youngs Moduli (GPa) = 87.35753 88.68055 88.13648
#
# Poissons Ratio (x) = 0.24574 0.26226
# Poissons Ratio (y) = 0.24207 0.23715
# Poissons Ratio (z) = 0.25994 0.23862
#
# Static dielectric constant tensor:
#      x y z
#    x 3.389730 0.000000 0.000000 
#    y 0.000000 3.647160 0.000000 
#    z 0.000000 0.000000 3.768570 
# 
# 
# High freq. dielectric constant tensor:
#      x y z
#    x 1.739120 0.000000 0.000000 
#    y 0.000000 1.762420 0.000000 
#    z 0.000000 0.000000 1.765900 
# 
# From -- ./inp_files/23279.got.cif
#   From: 2010.06.25/outbox.cif.g09.slc.cpg/sg58_12_cif.got.tgz:23279.got - 2010.06.26 21:38:00.
