data_PCOD8237833
_publ_section_title
;
Structure prediction by ZEFSAII (Michael W. Deem and Ramdas Pophale) SiO2 
 PCOD8237833
Probable space group: P N N M
;
_chemical_formula_sum "Si O2"
_cell_formula_units_Z 64
_cell_length_a 14.407375
_cell_length_b 25.003436
_cell_length_c 8.925119
_cell_angle_alpha 90.000000
_cell_angle_beta 90.000000
_cell_angle_gamma 90.000000
_cell_volume 3215.130236
_symmetry_space_group_name_H-M "P N N M"
_symmetry_group_IT_number 58
_symmetry_cell_setting 'orthorhombic'
loop_
_space_group_symop_operation_xyz
x,y,z
-x,-y,z
1/2+x,1/2-y,1/2-z
1/2-x,1/2+y,1/2-z
-x,-y,-z
x,y,-z
1/2-x,1/2+y,1/2+z
1/2+x,1/2-y,1/2+z
loop_
_atom_site_type_symbol
_atom_site_label
_atom_site_fract_x
_atom_site_fract_y
_atom_site_fract_z
Si Si1 0.750177 0.574071 0.323381
Si Si2 0.549598 0.260913 0.672863
Si Si3 0.636456 0.768541 0.172833
Si Si4 0.103081 0.132789 0.677154
Si Si5 0.897469 0.489571 0.322423
Si Si6 0.206889 0.317709 0.169119
Si Si7 0.542014 0.556869 0.323317
Si Si8 0.707941 0.884274 0.824202
O O1 0.751248 0.568946 0.500000
O O2 0.825474 0.532968 0.254549
O O3 0.776315 0.634176 0.281532
O O4 0.647829 0.558932 0.264773
O O5 0.552596 0.279020 0.500000
O O6 0.444791 0.252719 0.722975
O O7 0.599943 0.306065 0.770066
O O8 0.603960 0.205254 0.696188
O O9 0.723093 0.730461 0.201326
O O10 0.663543 0.828082 0.223734
O O11 0.604268 0.767905 0.000000
O O12 0.102882 0.130107 0.500000
O O13 0.195930 0.104959 0.738915
O O14 0.012624 0.103210 0.738877
O O15 0.901077 0.495718 0.500000
O O16 0.864215 0.430350 0.276986
O O17 0.000000 0.500000 0.254385
O O18 0.218971 0.338971 0.000000
O O19 0.500000 0.500000 0.277908
O O20 0.534614 0.567305 0.500000
O O21 0.730534 0.885870 0.000000
#
# Coordination Sequence:
#
# PCOD8237833 Si02
#       8
#     8   8   8   8   8   8   8   8
#     4  10  21  36  59  90 118 152 200 248 294 351
#     4  11  23  40  60  84 117 159 202 244 302 366
#     4  10  21  38  61  90 118 152 199 249 304 360
#     4  12  24  38  60  91 123 157 201 252 305 361
#     4   9  19  36  61  91 119 153 201 249 292 350
#     4  10  22  40  58  82 120 159 193 236 298 361
#     4  10  21  39  63  90 120 158 201 246 303 368
#     4  10  20  39  64  87 120 161 199 247 305 361
#
# _framework density 19.90588
#
# number of rings (size 3 to 8) (size 9 to 14) (size 15 to 20)
#    0.000    1.750    1.250    3.000    1.750    6.750 
#    0.000    1.875    0.000    0.750    0.000    0.000 
#    0.000    0.000    0.000    0.000    0.000    0.000 
#
# Total GULP energy -793885.990015 kJ/mol
# GULP energy per Si atom -12404.468594 kJ/mol
# Density = 1.986057 g / cm^3
# Si number density = 19.905880 Si / 1000 Ang^3
#
#
#
# Elastic Constant Matrix: (Units=GPa)
#
#
# Indices 1 2 3 4 5 6 
#
# 1 123.8516 37.4618 29.9811 0.0000 0.0000 0.0000
# 2 37.4618 110.4251 17.2395 0.0000 0.0000 0.0000
# 3 29.9811 17.2395 42.7041 0.0000 0.0000 0.0000
# 4 0.0000 0.0000 0.0000 25.4253 0.0000 0.0000
# 5 0.0000 0.0000 0.0000 0.0000 16.1723 0.0000
# 6 0.0000 0.0000 0.0000 0.0000 0.0000 34.3277
#
#
#
# Elastic Compliance Matrix: (Units=1/GPa)
#
#
# Indices 1 2 3 4 5 6 
#
# 1 0.010353 -0.002537 -0.006244 0.000000 0.000000 0.000000
# 2 -0.002537 0.010287 -0.002371 0.000000 0.000000 0.000000
# 3 -0.006244 -0.002371 0.028758 0.000000 0.000000 0.000000
# 4 0.000000 0.000000 0.000000 0.039331 0.000000 0.000000
# 5 0.000000 0.000000 0.000000 0.000000 0.061834 0.000000
# 6 0.000000 0.000000 0.000000 0.000000 0.000000 0.029131
#
#
# Mechanical properties :
#
#
# Convention : Reuss Voigt Hill
#
# Bulk Modulus (GPa) = 36.91109 49.59397 43.25253
# Shear Modulus (GPa) = 23.69316 28.00496 25.84906
#
# Velocity S-wave (km/s) = 3.45376 3.75489 3.60747
# Velocity P-wave (km/s) = 5.87262 6.61569 6.25519
#
# Compressibility (1/GPa) = 0.02709213
#
# Stress axis : x y z
#
# Youngs Moduli (GPa) = 96.58773 97.21032 34.77275
#
# Poissons Ratio (x) = 0.24667 0.21713
# Poissons Ratio (y) = 0.24509 0.08246
# Poissons Ratio (z) = 0.60312 0.23052
#
# Static dielectric constant tensor:
#      x y z
#    x 3.848330 0.000000 0.000000 
#    y 0.000000 3.661100 0.000000 
#    z 0.000000 0.000000 3.343690 
# 
# 
# High freq. dielectric constant tensor:
#      x y z
#    x 1.791320 0.000000 0.000000 
#    y 0.000000 1.785000 0.000000 
#    z 0.000000 0.000000 1.749430 
# 
# From -- ./inp_files/6844.got.cif
#   From: 2010.06.25/outbox.cif.g09.slc.cpg/sg58_4_cif.got.tgz:6844.got - 2010.06.26 21:38:00.
