data_PCOD8237894
_publ_section_title
;
Structure prediction by ZEFSAII (Michael W. Deem and Ramdas Pophale) SiO2 
 PCOD8237894
Probable space group: P N N M
;
_chemical_formula_sum "Si O2"
_cell_formula_units_Z 56
_cell_length_a 5.231221
_cell_length_b 16.687554
_cell_length_c 29.977531
_cell_angle_alpha 90.000000
_cell_angle_beta 90.000000
_cell_angle_gamma 90.000000
_cell_volume 2616.927028
_symmetry_space_group_name_H-M "P N N M"
_symmetry_group_IT_number 58
_symmetry_cell_setting 'orthorhombic'
loop_
_space_group_symop_operation_xyz
x,y,z
-x,-y,z
1/2+x,1/2-y,1/2-z
1/2-x,1/2+y,1/2-z
-x,-y,-z
x,y,-z
1/2-x,1/2+y,1/2+z
1/2+x,1/2-y,1/2+z
loop_
_atom_site_type_symbol
_atom_site_label
_atom_site_fract_x
_atom_site_fract_y
_atom_site_fract_z
Si Si1 0.240820 0.682903 0.552594
Si Si2 0.759632 0.282025 0.947921
Si Si3 0.249955 0.534911 0.172765
Si Si4 0.750097 0.445873 0.627536
Si Si5 0.250187 0.036363 0.427356
Si Si6 0.781223 0.791896 0.698802
Si Si7 0.218854 0.193314 0.802182
O O1 0.244382 0.661298 0.500000
O O2 0.486121 0.735051 0.566808
O O3 0.245012 0.601510 0.580756
O O4 0.987528 0.731267 0.566399
O O5 0.751096 0.367969 0.924994
O O6 0.760151 0.297905 0.000000
O O7 0.500000 0.500000 0.198134
O O8 0.249794 0.500263 0.122624
O O9 0.248990 0.630141 0.169054
O O10 0.000000 0.500000 0.198096
O O11 0.500000 0.500000 0.628603
O O12 0.746525 0.388062 0.670399
O O13 0.000000 0.500000 0.630854
O O14 0.500000 0.000000 0.452179
O O15 0.000000 0.000000 0.452094
O O16 0.769260 0.823191 0.749548
O O17 0.552535 0.732499 0.685916
O O18 0.048607 0.751953 0.685382
#
# Coordination Sequence:
#
# PCOD8237894 Si02
#       7
#     8   8   8   8   8   8   8
#     4  10  23  41  62  89 118 157 205 249 303 368
#     4  10  21  38  60  85 114 158 205 243 296 358
#     4  10  21  34  53  83 114 151 191 227 279 334
#     4  12  26  42  64  95 122 156 200 251 316 363
#     4  10  21  34  51  84 119 151 192 240 287 339
#     4  10  21  40  61  86 121 159 197 236 292 345
#     4  10  23  39  61  90 116 154 200 242 289 357
#
# _framework density 21.399145999999998
#
# number of rings (size 3 to 8) (size 9 to 14) (size 15 to 20)
#    0.000    1.714    0.000    3.429    4.000    2.286 
#    0.000    0.000    0.000    0.000    0.000    0.000 
#    0.000    0.000    0.000    0.000    0.000    0.000 
#
# Total GULP energy -694420.644698 kJ/mol
# GULP energy per Si atom -12400.368655 kJ/mol
# Density = 2.135044 g / cm^3
# Si number density = 21.399146 Si / 1000 Ang^3
#
#
#
# Elastic Constant Matrix: (Units=GPa)
#
#
# Indices 1 2 3 4 5 6 
#
# 1 188.6720 62.7815 26.1085 0.0000 0.0000 0.0000
# 2 62.7815 135.4341 39.2745 0.0000 0.0000 0.0000
# 3 26.1085 39.2745 58.7882 0.0000 0.0000 0.0000
# 4 0.0000 0.0000 0.0000 9.8691 0.0000 0.0000
# 5 0.0000 0.0000 0.0000 0.0000 8.5349 0.0000
# 6 0.0000 0.0000 0.0000 0.0000 0.0000 45.4804
#
#
#
# Elastic Compliance Matrix: (Units=1/GPa)
#
#
# Indices 1 2 3 4 5 6 
#
# 1 0.006319 -0.002624 -0.001054 0.000000 0.000000 0.000000
# 2 -0.002624 0.010247 -0.005681 0.000000 0.000000 0.000000
# 3 -0.001054 -0.005681 0.021273 0.000000 0.000000 0.000000
# 4 0.000000 0.000000 0.000000 0.101326 0.000000 0.000000
# 5 0.000000 0.000000 0.000000 0.000000 0.117165 0.000000
# 6 0.000000 0.000000 0.000000 0.000000 0.000000 0.021988
#
#
# Mechanical properties :
#
#
# Convention : Reuss Voigt Hill
#
# Bulk Modulus (GPa) = 52.29124 71.02482 61.65803
# Shear Modulus (GPa) = 16.47940 29.75887 23.11913
#
# Velocity S-wave (km/s) = 2.77807 3.73320 3.29047
# Velocity P-wave (km/s) = 5.89741 7.20034 6.58120
#
# Compressibility (1/GPa) = 0.01912366
#
# Stress axis : x y z
#
# Youngs Moduli (GPa) = 158.25163 97.58726 47.00764
#
# Poissons Ratio (x) = 0.25604 0.04952
# Poissons Ratio (y) = 0.41521 0.26703
# Poissons Ratio (z) = 0.16672 0.55436
#
# Static dielectric constant tensor:
#      x y z
#    x 4.560450 0.000000 0.000000 
#    y 0.000000 3.656270 0.000000 
#    z 0.000000 0.000000 3.697290 
# 
# 
# High freq. dielectric constant tensor:
#      x y z
#    x 1.869680 0.000000 0.000000 
#    y 0.000000 1.835910 0.000000 
#    z 0.000000 0.000000 1.828020 
# 
# From -- ./inp_files/34192.got.cif
#   From: 2010.06.25/outbox.cif.g09.slc.cpg/sg58_18_cif.got.tgz:34192.got - 2010.06.26 21:38:00.
