data_PCOD8237676
_publ_section_title
;
Structure prediction by ZEFSAII (Michael W. Deem and Ramdas Pophale) SiO2 
 PCOD8237676
Probable space group: P N N M
;
_chemical_formula_sum "Si O2"
_cell_formula_units_Z 64
_cell_length_a 11.034987
_cell_length_b 32.854469
_cell_length_c 8.780870
_cell_angle_alpha 90.000000
_cell_angle_beta 90.000000
_cell_angle_gamma 90.000000
_cell_volume 3183.492462
_symmetry_space_group_name_H-M "P N N M"
_symmetry_group_IT_number 58
_symmetry_cell_setting 'orthorhombic'
loop_
_space_group_symop_operation_xyz
x,y,z
-x,-y,z
1/2+x,1/2-y,1/2-z
1/2-x,1/2+y,1/2-z
-x,-y,-z
x,y,-z
1/2-x,1/2+y,1/2+z
1/2+x,1/2-y,1/2+z
loop_
_atom_site_type_symbol
_atom_site_label
_atom_site_fract_x
_atom_site_fract_y
_atom_site_fract_z
Si Si1 0.887097 0.148962 0.321702
Si Si2 0.496657 0.185464 0.832929
Si Si3 0.534952 0.275327 0.181780
Si Si4 0.381088 0.597575 0.823062
Si Si5 0.720710 0.328969 0.332467
Si Si6 0.137076 0.383320 0.179595
Si Si7 0.379417 0.975364 0.680976
Si Si8 0.134956 0.012798 0.821129
O O1 0.868563 0.153041 0.500000
O O2 0.762210 0.133625 0.246292
O O3 0.929197 0.193412 0.259893
O O4 0.985773 0.114447 0.284695
O O5 0.521459 0.229450 0.756764
O O6 0.355945 0.183713 0.856681
O O7 0.534361 0.148448 0.725419
O O8 0.559484 0.181827 0.000000
O O9 0.659764 0.290607 0.251571
O O10 0.540260 0.276453 0.000000
O O11 0.285550 0.632153 0.778031
O O12 0.350849 0.559874 0.716865
O O13 0.366071 0.585874 0.000000
O O14 0.662677 0.337861 0.500000
O O15 0.105196 0.428706 0.237938
O O16 0.148251 0.385219 0.000000
O O17 0.371471 0.979026 0.500000
O O18 0.500000 0.000000 0.739021
O O19 0.249550 0.990319 0.744522
O O20 0.143423 0.004828 0.000000
O O21 0.000000 0.000000 0.759810
#
# Coordination Sequence:
#
# PCOD8237676 Si02
#       8
#     8   8   8   8   8   8   8   8
#     4   8  16  33  58  84 111 148 191 238 286 337
#     4  10  23  38  55  81 117 154 189 234 290 352
#     4   9  19  37  57  80 112 151 193 237 290 348
#     4  10  20  37  63  88 117 156 196 240 293 351
#     4  10  21  37  57  84 117 151 192 241 292 347
#     4  10  21  37  60  85 112 151 200 243 287 349
#     4  10  23  42  62  90 125 162 209 258 307 371
#     4  11  24  40  62  94 127 159 201 255 310 367
#
# _framework density 20.103707
#
# number of rings (size 3 to 8) (size 9 to 14) (size 15 to 20)
#    0.000    2.250    0.000    2.625    3.500    4.250 
#    0.000    3.125    0.000    0.000    0.000    0.000 
#    0.000    0.000    0.000    0.000    0.000    0.000 
#
# Total GULP energy -793169.535948 kJ/mol
# GULP energy per Si atom -12393.273999 kJ/mol
# Density = 2.005795 g / cm^3
# Si number density = 20.103707 Si / 1000 Ang^3
#
#
#
# Elastic Constant Matrix: (Units=GPa)
#
#
# Indices 1 2 3 4 5 6 
#
# 1 108.3057 71.3848 25.0981 0.0000 0.0000 0.0000
# 2 71.3848 154.7421 25.9641 0.0000 0.0000 0.0000
# 3 25.0981 25.9641 28.8693 0.0000 0.0000 0.0000
# 4 0.0000 0.0000 0.0000 23.6732 0.0000 0.0000
# 5 0.0000 0.0000 0.0000 0.0000 19.6969 0.0000
# 6 0.0000 0.0000 0.0000 0.0000 0.0000 18.7433
#
#
#
# Elastic Compliance Matrix: (Units=1/GPa)
#
#
# Indices 1 2 3 4 5 6 
#
# 1 0.014630 -0.005435 -0.007831 0.000000 0.000000 0.000000
# 2 -0.005435 0.009630 -0.003936 0.000000 0.000000 0.000000
# 3 -0.007831 -0.003936 0.044986 0.000000 0.000000 0.000000
# 4 0.000000 0.000000 0.000000 0.042242 0.000000 0.000000
# 5 0.000000 0.000000 0.000000 0.000000 0.050769 0.000000
# 6 0.000000 0.000000 0.000000 0.000000 0.000000 0.053353
#
#
# Mechanical properties :
#
#
# Convention : Reuss Voigt Hill
#
# Bulk Modulus (GPa) = 28.70002 59.64567 44.17285
# Shear Modulus (GPa) = 19.11108 23.72069 21.41588
#
# Velocity S-wave (km/s) = 3.08657 3.43872 3.26739
# Velocity P-wave (km/s) = 5.19707 6.74535 6.02118
#
# Compressibility (1/GPa) = 0.03484318
#
# Stress axis : x y z
#
# Youngs Moduli (GPa) = 68.35213 103.84137 22.22889
#
# Poissons Ratio (x) = 0.56439 0.17407
# Poissons Ratio (y) = 0.37151 0.08749
# Poissons Ratio (z) = 0.53525 0.40870
#
# Static dielectric constant tensor:
#      x y z
#    x 3.765870 0.000000 0.000000 
#    y 0.000000 3.988490 0.000000 
#    z 0.000000 0.000000 3.542320 
# 
# 
# High freq. dielectric constant tensor:
#      x y z
#    x 1.784270 0.000000 0.000000 
#    y 0.000000 1.796910 0.000000 
#    z 0.000000 0.000000 1.765230 
# 
# From -- ./inp_files/4841.got.cif
#   From: 2010.06.25/outbox.cif.g09.slc.cpg/sg58_3_cif.got.tgz:4841.got - 2010.06.26 21:38:00.
