data_PCOD8237025
_publ_section_title
;
Structure prediction by ZEFSAII (Michael W. Deem and Ramdas Pophale) SiO2 
 PCOD8237025
Probable space group: P N N M
;
_chemical_formula_sum "Si O2"
_cell_formula_units_Z 56
_cell_length_a 20.774671
_cell_length_b 14.660975
_cell_length_c 9.290201
_cell_angle_alpha 90.000000
_cell_angle_beta 90.000000
_cell_angle_gamma 90.000000
_cell_volume 2829.580920
_symmetry_space_group_name_H-M "P N N M"
_symmetry_group_IT_number 58
_symmetry_cell_setting 'orthorhombic'
loop_
_space_group_symop_operation_xyz
x,y,z
-x,-y,z
1/2+x,1/2-y,1/2-z
1/2-x,1/2+y,1/2-z
-x,-y,-z
x,y,-z
1/2-x,1/2+y,1/2+z
1/2+x,1/2-y,1/2+z
loop_
_atom_site_type_symbol
_atom_site_label
_atom_site_fract_x
_atom_site_fract_y
_atom_site_fract_z
Si Si1 0.256932 0.004310 0.834973
Si Si2 0.956945 0.257972 0.834062
Si Si3 0.733392 0.184260 0.331126
Si Si4 0.902021 0.772022 0.165479
Si Si5 0.644832 0.428421 0.160734
Si Si6 0.658143 0.829539 0.164290
Si Si7 0.451959 0.422442 0.839171
O O1 0.205042 0.072950 0.767107
O O2 0.321673 0.064410 0.822887
O O3 0.258592 0.910441 0.750404
O O4 0.239437 0.983831 0.000000
O O5 0.908141 0.324519 0.752489
O O6 0.947220 0.156505 0.776032
O O7 0.032142 0.286666 0.811922
O O8 0.937586 0.259502 0.000000
O O9 0.739621 0.165516 0.500000
O O10 0.661371 0.216204 0.291019
O O11 0.786705 0.258500 0.280112
O O12 0.907644 0.858945 0.271608
O O13 0.897667 0.805183 0.000000
O O14 0.618093 0.531098 0.153375
O O15 0.663990 0.395678 0.000000
O O16 0.642989 0.803641 0.000000
O O17 0.500000 0.500000 0.783947
O O18 0.471817 0.387710 0.000000
#
# Coordination Sequence:
#
# PCOD8237025 Si02
#       7
#     8   8   8   8   8   8   8
#     4  11  23  40  61  88 118 152 196 250 300 348
#     4  11  23  36  57  87 118 154 197 248 295 345
#     4  10  21  41  64  86 115 158 200 241 296 357
#     4  10  21  39  59  83 119 156 192 240 298 347
#     4  11  21  34  57  85 114 153 195 237 289 352
#     4  10  22  41  62  83 119 162 193 236 302 359
#     4  10  20  34  51  78 117 156 189 227 286 358
#
# _framework density 19.790915999999999
#
# number of rings (size 3 to 8) (size 9 to 14) (size 15 to 20)
#    0.000    1.571    2.857    2.143    0.000    7.714 
#    0.000    0.714    0.000    4.286    0.000    0.000 
#    0.000    0.000    0.000    0.000    0.000    0.000 
#
# Total GULP energy -694249.060193 kJ/mol
# GULP energy per Si atom -12397.304646 kJ/mol
# Density = 1.974587 g / cm^3
# Si number density = 19.790916 Si / 1000 Ang^3
#
#
#
# Elastic Constant Matrix: (Units=GPa)
#
#
# Indices 1 2 3 4 5 6 
#
# 1 96.8594 10.8888 37.9682 0.0000 0.0000 0.0000
# 2 10.8888 57.5439 25.2879 0.0000 0.0000 0.0000
# 3 37.9682 25.2879 74.6392 0.0000 0.0000 0.0000
# 4 0.0000 0.0000 0.0000 24.2940 0.0000 0.0000
# 5 0.0000 0.0000 0.0000 0.0000 32.0711 0.0000
# 6 0.0000 0.0000 0.0000 0.0000 0.0000 27.7631
#
#
#
# Elastic Compliance Matrix: (Units=1/GPa)
#
#
# Indices 1 2 3 4 5 6 
#
# 1 0.012909 0.000521 -0.006743 0.000000 0.000000 0.000000
# 2 0.000521 0.020439 -0.007190 0.000000 0.000000 0.000000
# 3 -0.006743 -0.007190 0.019264 0.000000 0.000000 0.000000
# 4 0.000000 0.000000 0.000000 0.041162 0.000000 0.000000
# 5 0.000000 0.000000 0.000000 0.000000 0.031181 0.000000
# 6 0.000000 0.000000 0.000000 0.000000 0.000000 0.036019
#
#
# Mechanical properties :
#
#
# Convention : Reuss Voigt Hill
#
# Bulk Modulus (GPa) = 38.77833 41.92583 40.35208
# Shear Modulus (GPa) = 25.45904 27.15214 26.30559
#
# Velocity S-wave (km/s) = 3.59053 3.70800 3.64974
# Velocity P-wave (km/s) = 6.06842 6.28989 6.18015
#
# Compressibility (1/GPa) = 0.02578760
#
# Stress axis : x y z
#
# Youngs Moduli (GPa) = 77.46568 48.92598 51.91101
#
# Poissons Ratio (x) = -0.02547 0.35004
# Poissons Ratio (y) = -0.04032 0.37322
# Poissons Ratio (z) = 0.52235 0.35176
#
# Static dielectric constant tensor:
#      x y z
#    x 3.862840 0.000000 0.000000 
#    y 0.000000 3.313030 0.000000 
#    z 0.000000 0.000000 3.610040 
# 
# 
# High freq. dielectric constant tensor:
#      x y z
#    x 1.779730 0.000000 0.000000 
#    y 0.000000 1.745900 0.000000 
#    z 0.000000 0.000000 1.775310 
# 
# From -- ./inp_files/6318.got.cif
#   From: 2010.06.25/outbox.cif.g09.slc.cpg/sg58_4_cif.got.tgz:6318.got - 2010.06.26 21:38:00.
