data_PCOD8237750
_publ_section_title
;
Structure prediction by ZEFSAII (Michael W. Deem and Ramdas Pophale) SiO2 
 PCOD8237750
Probable space group: P N N M
;
_chemical_formula_sum "Si O2"
_cell_formula_units_Z 40
_cell_length_a 21.213758
_cell_length_b 10.345250
_cell_length_c 8.688210
_cell_angle_alpha 90.000000
_cell_angle_beta 90.000000
_cell_angle_gamma 90.000000
_cell_volume 1906.728728
_symmetry_space_group_name_H-M "P N N M"
_symmetry_group_IT_number 58
_symmetry_cell_setting 'orthorhombic'
loop_
_space_group_symop_operation_xyz
x,y,z
-x,-y,z
1/2+x,1/2-y,1/2-z
1/2-x,1/2+y,1/2-z
-x,-y,-z
x,y,-z
1/2-x,1/2+y,1/2+z
1/2+x,1/2-y,1/2+z
loop_
_atom_site_type_symbol
_atom_site_label
_atom_site_fract_x
_atom_site_fract_y
_atom_site_fract_z
Si Si1 0.062696 0.071581 0.676745
Si Si2 0.042334 0.332283 0.179661
Si Si3 0.584453 0.909365 0.818002
Si Si4 0.282980 0.197960 0.817980
Si Si5 0.800896 0.017103 0.676794
O O1 0.053873 0.115177 0.500000
O O2 0.074363 0.196261 0.782353
O O3 0.123319 0.979437 0.695879
O O4 0.000000 0.000000 0.735793
O O5 0.079923 0.440416 0.274462
O O6 0.969600 0.328311 0.232122
O O7 0.047404 0.363655 0.000000
O O8 0.651058 0.857819 0.756296
O O9 0.576295 0.891157 0.000000
O O10 0.274353 0.346011 0.757821
O O11 0.226567 0.106064 0.765379
O O12 0.284488 0.201230 0.000000
O O13 0.781614 0.999999 0.500000
#
# Coordination Sequence:
#
# PCOD8237750 Si02
#       5
#     8   8   8   8   8
#     4  10  21  40  64  86 117 161 209 252 300 368
#     4  11  22  35  57  92 126 154 196 254 313 361
#     4  10  20  38  62  85 118 162 208 247 295 369
#     4  10  23  42  63  89 121 160 206 253 302 364
#     4  10  23  41  63  91 122 160 206 253 306 364
#
# _framework density 20.978338000000001
#
# number of rings (size 3 to 8) (size 9 to 14) (size 15 to 20)
#    0.000    1.800    0.000    4.800    2.800    6.800 
#    0.000    2.000    0.000    0.000    0.000    0.000 
#    0.000    0.000    0.000    0.000    0.000    0.000 
#
# Total GULP energy -496097.602273 kJ/mol
# GULP energy per Si atom -12402.440057 kJ/mol
# Density = 2.093059 g / cm^3
# Si number density = 20.978338 Si / 1000 Ang^3
#
#
#
# Elastic Constant Matrix: (Units=GPa)
#
#
# Indices 1 2 3 4 5 6 
#
# 1 83.2690 45.0832 12.2713 0.0000 0.0000 0.0000
# 2 45.0832 132.8457 12.7591 0.0000 0.0000 0.0000
# 3 12.2713 12.7591 41.2014 0.0000 0.0000 0.0000
# 4 0.0000 0.0000 0.0000 30.5201 0.0000 0.0000
# 5 0.0000 0.0000 0.0000 0.0000 25.0627 0.0000
# 6 0.0000 0.0000 0.0000 0.0000 0.0000 31.5443
#
#
#
# Elastic Compliance Matrix: (Units=1/GPa)
#
#
# Indices 1 2 3 4 5 6 
#
# 1 0.015062 -0.004824 -0.002992 0.000000 0.000000 0.000000
# 2 -0.004824 0.009303 -0.001444 0.000000 0.000000 0.000000
# 3 -0.002992 -0.001444 0.025609 0.000000 0.000000 0.000000
# 4 0.000000 0.000000 0.000000 0.032765 0.000000 0.000000
# 5 0.000000 0.000000 0.000000 0.000000 0.039900 0.000000
# 6 0.000000 0.000000 0.000000 0.000000 0.000000 0.031701
#
#
# Mechanical properties :
#
#
# Convention : Reuss Voigt Hill
#
# Bulk Modulus (GPa) = 31.79257 44.17148 37.98203
# Shear Modulus (GPa) = 27.27064 29.90558 28.58811
#
# Velocity S-wave (km/s) = 3.60938 3.77974 3.69554
# Velocity P-wave (km/s) = 5.70597 6.33640 6.02943
#
# Compressibility (1/GPa) = 0.03145389
#
# Stress axis : x y z
#
# Youngs Moduli (GPa) = 66.39178 107.48763 39.04809
#
# Poissons Ratio (x) = 0.51854 0.11684
# Poissons Ratio (y) = 0.32029 0.05639
# Poissons Ratio (z) = 0.19865 0.15524
#
# Static dielectric constant tensor:
#      x y z
#    x 3.791160 0.000000 0.000000 
#    y 0.000000 3.887150 0.000000 
#    z 0.000000 0.000000 3.610210 
# 
# 
# High freq. dielectric constant tensor:
#      x y z
#    x 1.821780 0.000000 0.000000 
#    y 0.000000 1.831880 0.000000 
#    z 0.000000 0.000000 1.805560 
# 
# From -- ./inp_files/4018.got.cif
#   From: 2010.06.25/outbox.cif.g09.slc.cpg/sg58_3_cif.got.tgz:4018.got - 2010.06.26 21:38:00.
