data_PCOD8237916
_publ_section_title
;
Structure prediction by ZEFSAII (Michael W. Deem and Ramdas Pophale) SiO2 
 PCOD8237916
Probable space group: P N N M
;
_chemical_formula_sum "Si O2"
_cell_formula_units_Z 40
_cell_length_a 9.257492
_cell_length_b 29.117197
_cell_length_c 7.597969
_cell_angle_alpha 90.000000
_cell_angle_beta 90.000000
_cell_angle_gamma 90.000000
_cell_volume 2048.049398
_symmetry_space_group_name_H-M "P N N M"
_symmetry_group_IT_number 58
_symmetry_cell_setting 'orthorhombic'
loop_
_space_group_symop_operation_xyz
x,y,z
-x,-y,z
1/2+x,1/2-y,1/2-z
1/2-x,1/2+y,1/2-z
-x,-y,-z
x,y,-z
1/2-x,1/2+y,1/2+z
1/2+x,1/2-y,1/2+z
loop_
_atom_site_type_symbol
_atom_site_label
_atom_site_fract_x
_atom_site_fract_y
_atom_site_fract_z
Si Si1 0.417930 0.118389 0.295606
Si Si2 0.418306 0.047467 0.000000
Si Si3 0.081846 0.047423 0.000000
Si Si4 0.402859 0.795812 0.699241
Si Si5 0.916677 0.882688 0.298888
Si Si6 0.583086 0.709141 0.206831
O O1 0.451636 0.106947 0.500000
O O2 0.461931 0.075074 0.176420
O O3 0.506158 0.162046 0.219747
O O4 0.249996 0.130725 0.269854
O O5 0.250058 0.036439 0.000000
O O6 0.500000 0.000000 0.000000
O O7 0.037052 0.075436 0.174424
O O8 0.000000 0.000000 0.000000
O O9 0.372377 0.809734 0.500000
O O10 0.492149 0.749160 0.704063
O O11 0.245193 0.790208 0.788534
O O12 0.946592 0.897538 0.500000
O O13 0.011298 0.839079 0.244219
O O14 0.581086 0.718605 0.000000
#
# Coordination Sequence:
#
# PCOD8237916 Si02
#       6
#     8   4   4   8   8   8
#     4   9  19  37  57  78 110 147 183 229 280 329
#     4  10  22  38  58  84 110 142 186 232 283 338
#     4  10  22  38  58  84 110 142 186 232 283 338
#     4  10  21  35  53  80 112 147 186 227 276 333
#     4   9  19  37  57  78 110 147 183 229 280 329
#     4  10  21  35  53  80 112 147 186 227 276 333
#
# _framework density 19.53078
#
# number of rings (size 3 to 8) (size 9 to 14) (size 15 to 20)
#    0.000    2.400    0.000    1.200    2.800    4.800 
#    0.000    0.000    0.000    0.000    0.000    0.000 
#    0.000    0.000    0.000    0.000    0.000    0.000 
#
# Total GULP energy -496003.298605 kJ/mol
# GULP energy per Si atom -12400.082465 kJ/mol
# Density = 1.948633 g / cm^3
# Si number density = 19.530780 Si / 1000 Ang^3
#
#
#
# Elastic Constant Matrix: (Units=GPa)
#
#
# Indices 1 2 3 4 5 6 
#
# 1 121.4193 90.3204 39.5908 0.0000 0.0000 0.0000
# 2 90.3204 169.9876 60.9093 0.0000 0.0000 0.0000
# 3 39.5908 60.9093 82.5846 0.0000 0.0000 0.0000
# 4 0.0000 0.0000 0.0000 31.6574 0.0000 0.0000
# 5 0.0000 0.0000 0.0000 0.0000 17.3454 0.0000
# 6 0.0000 0.0000 0.0000 0.0000 0.0000 44.6856
#
#
#
# Elastic Compliance Matrix: (Units=1/GPa)
#
#
# Indices 1 2 3 4 5 6 
#
# 1 0.013780 -0.006734 -0.001639 0.000000 0.000000 0.000000
# 2 -0.006734 0.011287 -0.005096 0.000000 0.000000 0.000000
# 3 -0.001639 -0.005096 0.016653 0.000000 0.000000 0.000000
# 4 0.000000 0.000000 0.000000 0.031588 0.000000 0.000000
# 5 0.000000 0.000000 0.000000 0.000000 0.057652 0.000000
# 6 0.000000 0.000000 0.000000 0.000000 0.000000 0.022379
#
#
# Mechanical properties :
#
#
# Convention : Reuss Voigt Hill
#
# Bulk Modulus (GPa) = 67.65581 83.95919 75.80750
# Shear Modulus (GPa) = 26.99701 30.94907 28.97304
#
# Velocity S-wave (km/s) = 3.72194 3.98506 3.85574
# Velocity P-wave (km/s) = 7.29289 8.01597 7.66296
#
# Compressibility (1/GPa) = 0.01478070
#
# Stress axis : x y z
#
# Youngs Moduli (GPa) = 72.56915 88.59697 60.04843
#
# Poissons Ratio (x) = 0.59665 0.09843
# Poissons Ratio (y) = 0.48871 0.30602
# Poissons Ratio (z) = 0.11895 0.45151
#
# Static dielectric constant tensor:
#      x y z
#    x 3.152550 0.000000 0.000000 
#    y 0.000000 3.373500 0.000000 
#    z 0.000000 0.000000 3.791880 
# 
# 
# High freq. dielectric constant tensor:
#      x y z
#    x 1.764010 0.000000 0.000000 
#    y 0.000000 1.751840 0.000000 
#    z 0.000000 0.000000 1.763040 
# 
# From -- ./inp_files/2469.got.cif
#   From: 2010.06.25/outbox.cif.g09.slc.cpg/sg58_2_cif.got.tgz:2469.got - 2010.06.26 21:38:00.
