data_PCOD8237947
_publ_section_title
;
Structure prediction by ZEFSAII (Michael W. Deem and Ramdas Pophale) SiO2 
 PCOD8237947
Probable space group: P N N M
;
_chemical_formula_sum "Si O2"
_cell_formula_units_Z 48
_cell_length_a 30.977450
_cell_length_b 9.439023
_cell_length_c 8.810863
_cell_angle_alpha 90.000000
_cell_angle_beta 90.000000
_cell_angle_gamma 90.000000
_cell_volume 2576.268702
_symmetry_space_group_name_H-M "P N N M"
_symmetry_group_IT_number 58
_symmetry_cell_setting 'orthorhombic'
loop_
_space_group_symop_operation_xyz
x,y,z
-x,-y,z
1/2+x,1/2-y,1/2-z
1/2-x,1/2+y,1/2-z
-x,-y,-z
x,y,-z
1/2-x,1/2+y,1/2+z
1/2+x,1/2-y,1/2+z
loop_
_atom_site_type_symbol
_atom_site_label
_atom_site_fract_x
_atom_site_fract_y
_atom_site_fract_z
Si Si1 0.708266 0.594970 0.321348
Si Si2 0.037650 0.094749 0.321209
Si Si3 0.865376 0.916452 0.678063
Si Si4 0.133971 0.406062 0.680095
Si Si5 0.961183 0.591902 0.681051
Si Si6 0.211748 0.596783 0.320050
O O1 0.708467 0.614716 0.500000
O O2 0.663692 0.525676 0.269653
O O3 0.746818 0.492720 0.267508
O O4 0.714609 0.748241 0.249156
O O5 0.030700 0.102829 0.500000
O O6 0.085454 0.036065 0.286312
O O7 0.032416 0.251187 0.253379
O O8 0.000000 0.000000 0.245860
O O9 0.855051 0.929388 0.500000
O O10 0.857473 0.755252 0.736068
O O11 0.136006 0.401570 0.500000
O O12 0.086524 0.461118 0.732531
O O13 0.169747 0.513704 0.744606
O O14 0.963522 0.590157 0.500000
O O15 0.000000 0.500000 0.752016
O O16 0.209311 0.611305 0.500000
#
# Coordination Sequence:
#
# PCOD8237947 Si02
#       6
#     8   8   8   8   8   8
#     4  11  23  36  52  76 102 127 163 208 249 298
#     4   8  14  24  41  69 100 129 164 203 242 286
#     4   9  17  32  53  74 102 137 168 204 250 297
#     4   8  15  29  48  70  96 128 165 200 240 293
#     4   8  13  21  36  62  96 126 151 191 244 288
#     4  10  21  36  53  72  96 129 165 201 245 295
#
# _framework density 18.631595999999998
#
# number of rings (size 3 to 8) (size 9 to 14) (size 15 to 20)
#    0.000    3.000    0.000    3.500    0.000    4.000 
#    0.000    5.833    0.000    0.500    0.000    0.000 
#    0.000    6.000    0.000    0.000    0.000    0.000 
#
# Total GULP energy -594908.620839 kJ/mol
# GULP energy per Si atom -12393.929601 kJ/mol
# Density = 1.858919 g / cm^3
# Si number density = 18.631596 Si / 1000 Ang^3
#
#
#
# Elastic Constant Matrix: (Units=GPa)
#
#
# Indices 1 2 3 4 5 6 
#
# 1 160.6286 90.2466 23.3877 0.0000 0.0000 0.0000
# 2 90.2466 131.8655 24.1076 0.0000 0.0000 0.0000
# 3 23.3877 24.1076 16.7938 0.0000 0.0000 0.0000
# 4 0.0000 0.0000 0.0000 20.2658 0.0000 0.0000
# 5 0.0000 0.0000 0.0000 0.0000 16.9242 0.0000
# 6 0.0000 0.0000 0.0000 0.0000 0.0000 42.9508
#
#
#
# Elastic Compliance Matrix: (Units=1/GPa)
#
#
# Indices 1 2 3 4 5 6 
#
# 1 0.010523 -0.006132 -0.005852 0.000000 0.000000 0.000000
# 2 -0.006132 0.013855 -0.011349 0.000000 0.000000 0.000000
# 3 -0.005852 -0.011349 0.083988 0.000000 0.000000 0.000000
# 4 0.000000 0.000000 0.000000 0.049344 0.000000 0.000000
# 5 0.000000 0.000000 0.000000 0.000000 0.059087 0.000000
# 6 0.000000 0.000000 0.000000 0.000000 0.000000 0.023282
#
#
# Mechanical properties :
#
#
# Convention : Reuss Voigt Hill
#
# Bulk Modulus (GPa) = 16.20778 64.97465 40.59122
# Shear Modulus (GPa) = 16.27012 27.46456 21.86734
#
# Velocity S-wave (km/s) = 2.95829 3.84355 3.42960
# Velocity P-wave (km/s) = 4.51516 7.39231 6.12507
#
# Compressibility (1/GPa) = 0.06169875
#
# Stress axis : x y z
#
# Youngs Moduli (GPa) = 95.03398 72.17745 11.90646
#
# Poissons Ratio (x) = 0.44256 0.06968
# Poissons Ratio (y) = 0.58271 0.13513
# Poissons Ratio (z) = 0.55616 0.81918
#
# Static dielectric constant tensor:
#      x y z
#    x 3.865530 0.000000 0.000000 
#    y 0.000000 3.610470 0.000000 
#    z 0.000000 0.000000 2.832140 
# 
# 
# High freq. dielectric constant tensor:
#      x y z
#    x 1.742850 0.000000 0.000000 
#    y 0.000000 1.724540 0.000000 
#    z 0.000000 0.000000 1.662380 
# 
# From -- ./inp_files/2990.got.cif
#   From: 2010.06.25/outbox.cif.g09.slc.cpg/sg58_2_cif.got.tgz:2990.got - 2010.06.26 21:38:00.
