data_PCOD8237905
_publ_section_title
;
Structure prediction by ZEFSAII (Michael W. Deem and Ramdas Pophale) SiO2 
 PCOD8237905
Probable space group: P N N M
;
_chemical_formula_sum "Si O2"
_cell_formula_units_Z 64
_cell_length_a 20.633352
_cell_length_b 19.657313
_cell_length_c 9.109018
_cell_angle_alpha 90.000000
_cell_angle_beta 90.000000
_cell_angle_gamma 90.000000
_cell_volume 3694.583619
_symmetry_space_group_name_H-M "P N N M"
_symmetry_group_IT_number 58
_symmetry_cell_setting 'orthorhombic'
loop_
_space_group_symop_operation_xyz
x,y,z
-x,-y,z
1/2+x,1/2-y,1/2-z
1/2-x,1/2+y,1/2-z
-x,-y,-z
x,y,-z
1/2-x,1/2+y,1/2+z
1/2+x,1/2-y,1/2+z
loop_
_atom_site_type_symbol
_atom_site_label
_atom_site_fract_x
_atom_site_fract_y
_atom_site_fract_z
Si Si1 0.432122 0.701505 0.169626
Si Si2 0.731595 0.069056 0.825956
Si Si3 0.815399 0.709765 0.674464
Si Si4 0.771017 0.419553 0.327409
Si Si5 0.122022 0.924004 0.828694
Si Si6 0.077868 0.796386 0.670593
Si Si7 0.620599 0.422072 0.668374
Si Si8 0.187322 0.711170 0.174402
O O1 0.380137 0.754807 0.238329
O O2 0.504363 0.730069 0.193759
O O3 0.424844 0.627502 0.240083
O O4 0.416158 0.691747 0.000000
O O5 0.686898 0.131309 0.768494
O O6 0.804392 0.083063 0.771587
O O7 0.705848 0.995038 0.774273
O O8 0.735029 0.066335 0.000000
O O9 0.816190 0.709198 0.500000
O O10 0.751874 0.750081 0.729411
O O11 0.783477 0.408504 0.500000
O O12 0.695462 0.412013 0.288064
O O13 0.812142 0.365397 0.235702
O O14 0.079653 0.873286 0.730950
O O15 0.097687 0.000791 0.801679
O O16 0.116063 0.904087 0.000000
O O17 0.097475 0.794970 0.500000
O O18 0.124531 0.748146 0.762604
O O19 0.610574 0.403277 0.500000
O O20 0.182355 0.709900 0.000000
#
# Coordination Sequence:
#
# PCOD8237905 Si02
#       8
#     8   8   8   8   8   8   8   8
#     4  10  21  35  50  72 104 138 173 213 257 306
#     4   8  14  28  52  77  99 126 162 208 253 295
#     4   9  16  30  54  77  95 126 171 212 249 294
#     4   9  17  30  51  79 106 126 156 208 262 300
#     4   9  17  32  51  73 101 136 176 208 246 304
#     4  11  23  35  48  72 106 138 170 215 261 299
#     4   9  18  31  50  75 104 136 170 210 250 299
#     4  11  20  33  56  77  99 134 173 210 249 303
#
# _framework density 17.322655000000001
#
# number of rings (size 3 to 8) (size 9 to 14) (size 15 to 20)
#    0.000    2.500    2.500    2.250    0.000    2.000 
#    0.000    4.375    0.000    0.750    0.000    5.250 
#    0.000    0.000    0.000    0.000    0.000    0.000 
#
# Total GULP energy -793368.634419 kJ/mol
# GULP energy per Si atom -12396.384913 kJ/mol
# Density = 1.728323 g / cm^3
# Si number density = 17.322655 Si / 1000 Ang^3
#
#
#
# Elastic Constant Matrix: (Units=GPa)
#
#
# Indices 1 2 3 4 5 6 
#
# 1 87.8877 57.1208 35.6300 0.0000 0.0000 0.0000
# 2 57.1208 130.2521 39.1940 0.0000 0.0000 0.0000
# 3 35.6300 39.1940 51.3460 0.0000 0.0000 0.0000
# 4 0.0000 0.0000 0.0000 27.5182 0.0000 0.0000
# 5 0.0000 0.0000 0.0000 0.0000 20.4021 0.0000
# 6 0.0000 0.0000 0.0000 0.0000 0.0000 24.1299
#
#
#
# Elastic Compliance Matrix: (Units=1/GPa)
#
#
# Indices 1 2 3 4 5 6 
#
# 1 0.018437 -0.005499 -0.008596 0.000000 0.000000 0.000000
# 2 -0.005499 0.011607 -0.005044 0.000000 0.000000 0.000000
# 3 -0.008596 -0.005044 0.029291 0.000000 0.000000 0.000000
# 4 0.000000 0.000000 0.000000 0.036340 0.000000 0.000000
# 5 0.000000 0.000000 0.000000 0.000000 0.049015 0.000000
# 6 0.000000 0.000000 0.000000 0.000000 0.000000 0.041442
#
#
# Mechanical properties :
#
#
# Convention : Reuss Voigt Hill
#
# Bulk Modulus (GPa) = 47.49135 59.26393 53.37764
# Shear Modulus (GPa) = 21.60495 23.57944 22.59219
#
# Velocity S-wave (km/s) = 3.53541 3.69343 3.61529
# Velocity P-wave (km/s) = 6.64385 7.24394 6.95038
#
# Compressibility (1/GPa) = 0.02105647
#
# Stress axis : x y z
#
# Youngs Moduli (GPa) = 54.23906 86.15807 34.13981
#
# Poissons Ratio (x) = 0.47375 0.29348
# Poissons Ratio (y) = 0.29824 0.17220
# Poissons Ratio (z) = 0.46627 0.43459
#
# Static dielectric constant tensor:
#      x y z
#    x 3.098620 0.000000 0.000000 
#    y 0.000000 3.494230 0.000000 
#    z 0.000000 0.000000 2.968070 
# 
# 
# High freq. dielectric constant tensor:
#      x y z
#    x 1.645140 0.000000 0.000000 
#    y 0.000000 1.676460 0.000000 
#    z 0.000000 0.000000 1.645230 
# 
# From -- ./inp_files/8366.got.cif
#   From: 2010.06.25/outbox.cif.g09.slc.cpg/sg58_5_cif.got.tgz:8366.got - 2010.06.26 21:38:00.
