data_PCOD8237539
_publ_section_title
;
Structure prediction by ZEFSAII (Michael W. Deem and Ramdas Pophale) SiO2 
 PCOD8237539
Probable space group: P N N M
;
_chemical_formula_sum "Si O2"
_cell_formula_units_Z 48
_cell_length_a 11.824387
_cell_length_b 12.444259
_cell_length_c 15.726591
_cell_angle_alpha 90.000000
_cell_angle_beta 90.000000
_cell_angle_gamma 90.000000
_cell_volume 2314.100781
_symmetry_space_group_name_H-M "P N N M"
_symmetry_group_IT_number 58
_symmetry_cell_setting 'orthorhombic'
loop_
_space_group_symop_operation_xyz
x,y,z
-x,-y,z
1/2+x,1/2-y,1/2-z
1/2-x,1/2+y,1/2-z
-x,-y,-z
x,y,-z
1/2-x,1/2+y,1/2+z
1/2+x,1/2-y,1/2+z
loop_
_atom_site_type_symbol
_atom_site_label
_atom_site_fract_x
_atom_site_fract_y
_atom_site_fract_z
Si Si1 0.497082 0.118018 0.097109
Si Si2 0.220563 0.308722 0.336520
Si Si3 0.127835 0.996533 0.101045
Si Si4 0.126794 0.619063 0.896980
Si Si5 0.267253 0.193106 0.095245
Si Si6 0.871389 0.624620 0.846254
O O1 0.614504 0.181561 0.100482
O O2 0.392798 0.186712 0.138399
O O3 0.500000 0.000000 0.143265
O O4 0.468293 0.097189 0.000000
O O5 0.314993 0.396124 0.354255
O O6 0.279484 0.193519 0.351417
O O7 0.164117 0.328812 0.245151
O O8 0.185052 0.104791 0.137651
O O9 0.135733 0.981529 0.000000
O O10 0.000000 0.000000 0.132384
O O11 0.151669 0.500396 0.861580
O O12 0.001120 0.654390 0.868028
O O13 0.134895 0.623881 0.000000
O O14 0.213626 0.311116 0.092776
O O15 0.281789 0.153411 0.000000
#
# Coordination Sequence:
#
# PCOD8237539 Si02
#       6
#     8   8   8   8   8   8
#     4  10  20  36  62  91 128 172 214 266 340 421
#     4  12  25  38  68  98 139 166 228 287 345 390
#     4  10  20  36  62  94 129 170 220 275 338 411
#     4  11  25  49  73  97 136 191 236 276 345 431
#     4  10  20  37  62  88 124 168 217 268 330 408
#     4  11  26  41  70  98 134 174 232 288 337 399
#
# _framework density 20.7424
#
# number of rings (size 3 to 8) (size 9 to 14) (size 15 to 20)
#    0.000    1.333    1.667    4.500    7.000    1.333 
#    0.000    0.833    0.000    3.000    0.000    0.000 
#    0.000    0.000    0.000    0.000    0.000    0.000 
#
# Total GULP energy -594777.751562 kJ/mol
# GULP energy per Si atom -12391.203158 kJ/mol
# Density = 2.069519 g / cm^3
# Si number density = 20.742400 Si / 1000 Ang^3
#
#
#
# Elastic Constant Matrix: (Units=GPa)
#
#
# Indices 1 2 3 4 5 6 
#
# 1 180.9448 85.7556 27.8458 0.0000 0.0000 0.0000
# 2 85.7556 132.8301 26.1149 0.0000 0.0000 0.0000
# 3 27.8458 26.1149 77.2531 0.0000 0.0000 0.0000
# 4 0.0000 0.0000 0.0000 23.0094 0.0000 0.0000
# 5 0.0000 0.0000 0.0000 0.0000 28.7220 0.0000
# 6 0.0000 0.0000 0.0000 0.0000 0.0000 42.9768
#
#
#
# Elastic Compliance Matrix: (Units=1/GPa)
#
#
# Indices 1 2 3 4 5 6 
#
# 1 0.008071 -0.004969 -0.001229 0.000000 0.000000 0.000000
# 2 -0.004969 0.011123 -0.001969 0.000000 0.000000 0.000000
# 3 -0.001229 -0.001969 0.014053 0.000000 0.000000 0.000000
# 4 0.000000 0.000000 0.000000 0.043461 0.000000 0.000000
# 5 0.000000 0.000000 0.000000 0.000000 0.034817 0.000000
# 6 0.000000 0.000000 0.000000 0.000000 0.000000 0.023268
#
#
# Mechanical properties :
#
#
# Convention : Reuss Voigt Hill
#
# Bulk Modulus (GPa) = 59.12749 74.49563 66.81156
# Shear Modulus (GPa) = 31.89491 35.69574 33.79532
#
# Velocity S-wave (km/s) = 3.92556 4.15288 4.04082
# Velocity P-wave (km/s) = 7.00816 7.68036 7.35194
#
# Compressibility (1/GPa) = 0.01691261
#
# Stress axis : x y z
#
# Youngs Moduli (GPa) = 123.90723 89.90083 71.15775
#
# Poissons Ratio (x) = 0.44669 0.08748
# Poissons Ratio (y) = 0.61565 0.14013
# Poissons Ratio (z) = 0.15233 0.17704
#
# Static dielectric constant tensor:
#      x y z
#    x 4.292590 0.000000 0.000000 
#    y 0.000000 3.828750 0.000000 
#    z 0.000000 0.000000 3.810600 
# 
# 
# High freq. dielectric constant tensor:
#      x y z
#    x 1.830980 0.000000 0.000000 
#    y 0.000000 1.808620 0.000000 
#    z 0.000000 0.000000 1.798040 
# 
# From -- ./inp_files/26138.got.cif
#   From: 2010.06.25/outbox.cif.g09.slc.cpg/sg58_14_cif.got.tgz:26138.got - 2010.06.26 21:38:00.
