data_PCOD8237146
_publ_section_title
;
Structure prediction by ZEFSAII (Michael W. Deem and Ramdas Pophale) SiO2 
 PCOD8237146
Probable space group: P N N M
;
_chemical_formula_sum "Si O2"
_cell_formula_units_Z 64
_cell_length_a 20.437709
_cell_length_b 19.021523
_cell_length_c 8.634352
_cell_angle_alpha 90.000000
_cell_angle_beta 90.000000
_cell_angle_gamma 90.000000
_cell_volume 3356.659184
_symmetry_space_group_name_H-M "P N N M"
_symmetry_group_IT_number 58
_symmetry_cell_setting 'orthorhombic'
loop_
_space_group_symop_operation_xyz
x,y,z
-x,-y,z
1/2+x,1/2-y,1/2-z
1/2-x,1/2+y,1/2-z
-x,-y,-z
x,y,-z
1/2-x,1/2+y,1/2+z
1/2+x,1/2-y,1/2+z
loop_
_atom_site_type_symbol
_atom_site_label
_atom_site_fract_x
_atom_site_fract_y
_atom_site_fract_z
Si Si1 0.317613 0.532994 0.320042
Si Si2 0.692543 0.035580 0.320216
Si Si3 0.939042 0.453962 0.819283
Si Si4 0.360773 0.829380 0.819998
Si Si5 0.862171 0.830056 0.319138
Si Si6 0.438182 0.453578 0.819616
Si Si7 0.497196 0.324883 0.320270
Si Si8 0.989333 0.319416 0.319988
O O1 0.333529 0.525031 0.500000
O O2 0.248304 0.498436 0.283815
O O3 0.316631 0.615461 0.273956
O O4 0.372274 0.493873 0.220835
O O5 0.710718 0.028377 0.500000
O O6 0.683558 0.117791 0.279692
O O7 0.626612 0.994695 0.277317
O O8 0.000000 0.500000 0.762064
O O9 0.939754 0.381286 0.725052
O O10 0.944771 0.436684 0.000000
O O11 0.340325 0.749443 0.777616
O O12 0.436627 0.841250 0.776142
O O13 0.348759 0.844812 0.000000
O O14 0.853892 0.845076 0.500000
O O15 0.937903 0.841874 0.277639
O O16 0.500000 0.500000 0.770158
O O17 0.441632 0.381299 0.723251
O O18 0.438652 0.435550 0.000000
O O19 0.514862 0.328591 0.500000
O O20 0.468566 0.248771 0.277450
O O21 0.983954 0.300786 0.500000
#
# Coordination Sequence:
#
# PCOD8237146 Si02
#       8
#     8   8   8   8   8   8   8   8
#     4  12  25  40  60  87 120 156 199 244 289 349
#     4  11  23  39  60  85 120 159 196 242 296 351
#     4  10  20  36  58  87 117 150 195 247 295 344
#     4   9  19  35  57  85 116 150 193 242 289 347
#     4  10  20  37  59  86 118 153 194 240 292 347
#     4  11  22  38  62  87 117 152 190 240 293 347
#     4  11  21  34  57  88 121 153 193 243 293 347
#     4  10  20  34  56  86 120 156 195 243 296 349
#
# _framework density 19.066575
#
# number of rings (size 3 to 8) (size 9 to 14) (size 15 to 20)
#    0.000    1.500    2.500    4.500    0.000    4.250 
#    0.000    1.250    0.000    4.500    0.000    0.000 
#    0.000    0.000    0.000    0.000    0.000    0.000 
#
# Total GULP energy -793938.948147 kJ/mol
# GULP energy per Si atom -12405.296065 kJ/mol
# Density = 1.902318 g / cm^3
# Si number density = 19.066575 Si / 1000 Ang^3
#
#
#
# Elastic Constant Matrix: (Units=GPa)
#
#
# Indices 1 2 3 4 5 6 
#
# 1 72.8789 42.1543 18.6195 0.0000 0.0000 0.0000
# 2 42.1543 132.5862 36.4861 0.0000 0.0000 0.0000
# 3 18.6195 36.4861 64.6880 0.0000 0.0000 0.0000
# 4 0.0000 0.0000 0.0000 37.3531 0.0000 0.0000
# 5 0.0000 0.0000 0.0000 0.0000 23.7405 0.0000
# 6 0.0000 0.0000 0.0000 0.0000 0.0000 28.6145
#
#
#
# Elastic Compliance Matrix: (Units=1/GPa)
#
#
# Indices 1 2 3 4 5 6 
#
# 1 0.017072 -0.004824 -0.002193 0.000000 0.000000 0.000000
# 2 -0.004824 0.010291 -0.004416 0.000000 0.000000 0.000000
# 3 -0.002193 -0.004416 0.018581 0.000000 0.000000 0.000000
# 4 0.000000 0.000000 0.000000 0.026772 0.000000 0.000000
# 5 0.000000 0.000000 0.000000 0.000000 0.042122 0.000000
# 6 0.000000 0.000000 0.000000 0.000000 0.000000 0.034947
#
#
# Mechanical properties :
#
#
# Convention : Reuss Voigt Hill
#
# Bulk Modulus (GPa) = 43.33185 51.63033 47.48109
# Shear Modulus (GPa) = 27.72471 29.46782 28.59626
#
# Velocity S-wave (km/s) = 3.81740 3.93558 3.87694
# Velocity P-wave (km/s) = 6.49662 6.91299 6.70804
#
# Compressibility (1/GPa) = 0.02307771
#
# Stress axis : x y z
#
# Youngs Moduli (GPa) = 58.57488 97.16869 53.81909
#
# Poissons Ratio (x) = 0.46879 0.11802
# Poissons Ratio (y) = 0.28259 0.23767
# Poissons Ratio (z) = 0.12844 0.42910
#
# Static dielectric constant tensor:
#      x y z
#    x 3.230710 0.000000 0.000000 
#    y 0.000000 3.715370 0.000000 
#    z 0.000000 0.000000 3.430680 
# 
# 
# High freq. dielectric constant tensor:
#      x y z
#    x 1.706870 0.000000 0.000000 
#    y 0.000000 1.756980 0.000000 
#    z 0.000000 0.000000 1.749100 
# 
# From -- ./inp_files/9312.got.cif
#   From: 2010.06.25/outbox.cif.g09.slc.cpg/sg58_5_cif.got.tgz:9312.got - 2010.06.26 21:38:00.
