data_PCOD8237713
_publ_section_title
;
Structure prediction by ZEFSAII (Michael W. Deem and Ramdas Pophale) SiO2 
 PCOD8237713
Probable space group: P N N M
;
_chemical_formula_sum "Si O2"
_cell_formula_units_Z 64
_cell_length_a 15.333764
_cell_length_b 24.165421
_cell_length_c 8.862731
_cell_angle_alpha 90.000000
_cell_angle_beta 90.000000
_cell_angle_gamma 90.000000
_cell_volume 3284.057166
_symmetry_space_group_name_H-M "P N N M"
_symmetry_group_IT_number 58
_symmetry_cell_setting 'orthorhombic'
loop_
_space_group_symop_operation_xyz
x,y,z
-x,-y,z
1/2+x,1/2-y,1/2-z
1/2-x,1/2+y,1/2-z
-x,-y,-z
x,y,-z
1/2-x,1/2+y,1/2+z
1/2+x,1/2-y,1/2+z
loop_
_atom_site_type_symbol
_atom_site_label
_atom_site_fract_x
_atom_site_fract_y
_atom_site_fract_z
Si Si1 0.752498 0.554487 0.320576
Si Si2 0.594919 0.256659 0.821159
Si Si3 0.602630 0.755869 0.178602
Si Si4 0.151268 0.124058 0.670202
Si Si5 0.904954 0.475390 0.328284
Si Si6 0.251441 0.319606 0.319997
Si Si7 0.592797 0.482866 0.321879
Si Si8 0.647392 0.868307 0.670166
O O1 0.752029 0.556007 0.500000
O O2 0.837154 0.520743 0.263164
O O3 0.753720 0.617376 0.260031
O O4 0.667204 0.523341 0.255372
O O5 0.496908 0.247851 0.760409
O O6 0.628998 0.315771 0.763709
O O7 0.663192 0.210561 0.760909
O O8 0.595479 0.254009 0.000000
O O9 0.661876 0.708692 0.253864
O O10 0.636923 0.815947 0.222516
O O11 0.606927 0.748157 0.000000
O O12 0.115094 0.117863 0.500000
O O13 0.106275 0.080358 0.778241
O O14 0.253309 0.112920 0.673808
O O15 0.879326 0.459998 0.500000
O O16 0.907954 0.419732 0.230772
O O17 0.000000 0.500000 0.318986
O O18 0.258349 0.316166 0.500000
O O19 0.500000 0.500000 0.253059
O O20 0.593092 0.487916 0.500000
O O21 0.617901 0.853368 0.500000
#
# Coordination Sequence:
#
# PCOD8237713 Si02
#       8
#     8   8   8   8   8   8   8   8
#     4   9  19  35  56  82 114 151 188 227 274 335
#     4   9  20  38  59  82 112 149 190 234 285 346
#     4  11  23  38  60  88 115 148 194 245 290 343
#     4  10  20  38  60  82 109 150 194 234 284 340
#     4  10  21  37  61  89 115 151 196 237 284 343
#     4  10  20  39  61  81 115 156 191 231 286 347
#     4  10  21  36  55  85 117 147 186 234 283 332
#     4  11  22  39  62  85 115 154 194 241 293 343
#
# _framework density 19.488088999999999
#
# number of rings (size 3 to 8) (size 9 to 14) (size 15 to 20)
#    0.000    2.000    2.500    0.750    3.500    1.000 
#    0.000    3.125    0.000    0.000    0.000    0.000 
#    0.000    0.000    0.000    0.000    0.000    0.000 
#
# Total GULP energy -793626.138522 kJ/mol
# GULP energy per Si atom -12400.408414 kJ/mol
# Density = 1.944373 g / cm^3
# Si number density = 19.488089 Si / 1000 Ang^3
#
#
#
# Elastic Constant Matrix: (Units=GPa)
#
#
# Indices 1 2 3 4 5 6 
#
# 1 122.7675 47.6806 22.1448 0.0000 0.0000 0.0000
# 2 47.6806 139.6609 15.8767 0.0000 0.0000 0.0000
# 3 22.1448 15.8767 29.2448 0.0000 0.0000 0.0000
# 4 0.0000 0.0000 0.0000 28.8735 0.0000 0.0000
# 5 0.0000 0.0000 0.0000 0.0000 17.5017 0.0000
# 6 0.0000 0.0000 0.0000 0.0000 0.0000 28.9987
#
#
#
# Elastic Compliance Matrix: (Units=1/GPa)
#
#
# Indices 1 2 3 4 5 6 
#
# 1 0.010385 -0.002826 -0.006329 0.000000 0.000000 0.000000
# 2 -0.002826 0.008400 -0.002421 0.000000 0.000000 0.000000
# 3 -0.006329 -0.002421 0.040301 0.000000 0.000000 0.000000
# 4 0.000000 0.000000 0.000000 0.034634 0.000000 0.000000
# 5 0.000000 0.000000 0.000000 0.000000 0.057137 0.000000
# 6 0.000000 0.000000 0.000000 0.000000 0.000000 0.034484
#
#
# Mechanical properties :
#
#
# Convention : Reuss Voigt Hill
#
# Bulk Modulus (GPa) = 27.82863 51.45304 39.64084
# Shear Modulus (GPa) = 22.67875 28.80619 25.74247
#
# Velocity S-wave (km/s) = 3.41504 3.84883 3.63841
# Velocity P-wave (km/s) = 5.46450 6.79787 6.16733
#
# Compressibility (1/GPa) = 0.03593422
#
# Stress axis : x y z
#
# Youngs Moduli (GPa) = 96.29587 119.04597 24.81329
#
# Poissons Ratio (x) = 0.33640 0.15705
# Poissons Ratio (y) = 0.27212 0.06006
# Poissons Ratio (z) = 0.60949 0.28816
#
# Static dielectric constant tensor:
#      x y z
#    x 3.785530 0.000000 0.000000 
#    y 0.000000 3.670210 0.000000 
#    z 0.000000 0.000000 3.280850 
# 
# 
# High freq. dielectric constant tensor:
#      x y z
#    x 1.769140 0.000000 0.000000 
#    y 0.000000 1.770880 0.000000 
#    z 0.000000 0.000000 1.724770 
# 
# From -- ./inp_files/6847.got.cif
#   From: 2010.06.25/outbox.cif.g09.slc.cpg/sg58_4_cif.got.tgz:6847.got - 2010.06.26 21:38:00.
