data_PCOD8237736
_publ_section_title
;
Structure prediction by ZEFSAII (Michael W. Deem and Ramdas Pophale) SiO2 
 PCOD8237736
Probable space group: P N N M
;
_chemical_formula_sum "Si O2"
_cell_formula_units_Z 56
_cell_length_a 16.473511
_cell_length_b 19.646810
_cell_length_c 8.590474
_cell_angle_alpha 90.000000
_cell_angle_beta 90.000000
_cell_angle_gamma 90.000000
_cell_volume 2780.323581
_symmetry_space_group_name_H-M "P N N M"
_symmetry_group_IT_number 58
_symmetry_cell_setting 'orthorhombic'
loop_
_space_group_symop_operation_xyz
x,y,z
-x,-y,z
1/2+x,1/2-y,1/2-z
1/2-x,1/2+y,1/2-z
-x,-y,-z
x,y,-z
1/2-x,1/2+y,1/2+z
1/2+x,1/2-y,1/2+z
loop_
_atom_site_type_symbol
_atom_site_label
_atom_site_fract_x
_atom_site_fract_y
_atom_site_fract_z
Si Si1 0.563709 0.556210 0.317837
Si Si2 0.734201 0.519943 0.819161
Si Si3 0.243540 0.751289 0.819637
Si Si4 0.084305 0.804058 0.319258
Si Si5 0.648122 0.140886 0.680362
Si Si6 0.804658 0.386620 0.680738
Si Si7 0.982748 0.339491 0.679330
O O1 0.500000 0.500000 0.258918
O O2 0.554311 0.569334 0.500000
O O3 0.654017 0.531395 0.281124
O O4 0.540861 0.625955 0.228711
O O5 0.802005 0.574398 0.768371
O O6 0.769372 0.445718 0.786931
O O7 0.711814 0.527092 0.000000
O O8 0.167012 0.798823 0.778619
O O9 0.324045 0.793655 0.779274
O O10 0.242934 0.682696 0.718652
O O11 0.242759 0.731698 0.000000
O O12 0.108897 0.804493 0.500000
O O13 0.025349 0.740906 0.282845
O O14 0.661151 0.156537 0.500000
O O15 0.553431 0.128126 0.716260
O O16 0.792218 0.404170 0.500000
O O17 0.899311 0.377318 0.722386
O O18 0.004739 0.351134 0.500000
#
# Coordination Sequence:
#
# PCOD8237736 Si02
#       7
#     8   8   8   8   8   8   8
#     4  11  24  40  61  90 122 161 206 253 309 368
#     4  11  24  41  62  89 124 165 206 252 310 369
#     4  11  21  36  62  88 116 157 203 251 306 366
#     4  10  20  38  61  86 117 153 198 248 305 361
#     4  11  23  38  60  90 124 162 206 255 304 363
#     4  10  22  41  63  88 124 162 204 257 309 365
#     4   9  21  39  60  88 120 159 203 254 308 360
#
# _framework density 20.141539999999999
#
# number of rings (size 3 to 8) (size 9 to 14) (size 15 to 20)
#    0.000    1.571    1.429    4.286    0.000    8.000 
#    0.000    5.714    0.000    0.000    0.000    0.000 
#    0.000    0.000    0.000    0.000    0.000    0.000 
#
# Total GULP energy -694730.853985 kJ/mol
# GULP energy per Si atom -12405.908107 kJ/mol
# Density = 2.009570 g / cm^3
# Si number density = 20.141540 Si / 1000 Ang^3
#
#
#
# Elastic Constant Matrix: (Units=GPa)
#
#
# Indices 1 2 3 4 5 6 
#
# 1 57.2542 29.5425 14.7579 0.0000 0.0000 0.0000
# 2 29.5425 95.6465 8.8358 0.0000 0.0000 0.0000
# 3 14.7579 8.8358 54.7401 0.0000 0.0000 0.0000
# 4 0.0000 0.0000 0.0000 32.2400 0.0000 0.0000
# 5 0.0000 0.0000 0.0000 0.0000 30.0354 0.0000
# 6 0.0000 0.0000 0.0000 0.0000 0.0000 29.9169
#
#
#
# Elastic Compliance Matrix: (Units=1/GPa)
#
#
# Indices 1 2 3 4 5 6 
#
# 1 0.022004 -0.006343 -0.004908 0.000000 0.000000 0.000000
# 2 -0.006343 0.012442 -0.000298 0.000000 0.000000 0.000000
# 3 -0.004908 -0.000298 0.019640 0.000000 0.000000 0.000000
# 4 0.000000 0.000000 0.000000 0.031017 0.000000 0.000000
# 5 0.000000 0.000000 0.000000 0.000000 0.033294 0.000000
# 6 0.000000 0.000000 0.000000 0.000000 0.000000 0.033426
#
#
# Mechanical properties :
#
#
# Convention : Reuss Voigt Hill
#
# Bulk Modulus (GPa) = 32.27239 34.87925 33.57582
# Shear Modulus (GPa) = 26.99043 28.73879 27.86461
#
# Velocity S-wave (km/s) = 3.66462 3.78145 3.72350
# Velocity P-wave (km/s) = 5.82783 6.03494 5.93229
#
# Compressibility (1/GPa) = 0.03098624
#
# Stress axis : x y z
#
# Youngs Moduli (GPa) = 45.44614 80.37370 50.91750
#
# Poissons Ratio (x) = 0.50981 0.24993
# Poissons Ratio (y) = 0.28826 0.01518
# Poissons Ratio (z) = 0.22307 0.02397
#
# Static dielectric constant tensor:
#      x y z
#    x 3.540740 0.000000 0.000000 
#    y 0.000000 3.704260 0.000000 
#    z 0.000000 0.000000 3.571940 
# 
# 
# High freq. dielectric constant tensor:
#      x y z
#    x 1.779320 0.000000 0.000000 
#    y 0.000000 1.791590 0.000000 
#    z 0.000000 0.000000 1.791490 
# 
# From -- ./inp_files/6345.got.cif
#   From: 2010.06.25/outbox.cif.g09.slc.cpg/sg58_4_cif.got.tgz:6345.got - 2010.06.26 21:38:00.
