data_PCOD8237879
_publ_section_title
;
Structure prediction by ZEFSAII (Michael W. Deem and Ramdas Pophale) SiO2 
 PCOD8237879
Probable space group: P N N M
;
_chemical_formula_sum "Si O2"
_cell_formula_units_Z 32
_cell_length_a 10.094986
_cell_length_b 11.439003
_cell_length_c 13.065322
_cell_angle_alpha 90.000000
_cell_angle_beta 90.000000
_cell_angle_gamma 90.000000
_cell_volume 1508.738638
_symmetry_space_group_name_H-M "P N N M"
_symmetry_group_IT_number 58
_symmetry_cell_setting 'orthorhombic'
loop_
_space_group_symop_operation_xyz
x,y,z
-x,-y,z
1/2+x,1/2-y,1/2-z
1/2-x,1/2+y,1/2-z
-x,-y,-z
x,y,-z
1/2-x,1/2+y,1/2+z
1/2+x,1/2-y,1/2+z
loop_
_atom_site_type_symbol
_atom_site_label
_atom_site_fract_x
_atom_site_fract_y
_atom_site_fract_z
Si Si1 0.369038 0.075367 0.888738
Si Si2 0.866940 0.072282 0.194159
Si Si3 0.572660 0.828936 0.680150
Si Si4 0.803208 0.563169 0.883380
O O1 0.383908 0.170441 0.799669
O O2 0.500000 0.000000 0.886096
O O3 0.245774 0.990071 0.871115
O O4 0.351986 0.136578 0.000000
O O5 0.891789 0.199216 0.142782
O O6 0.825984 0.081082 0.313769
O O7 0.000000 0.000000 0.186281
O O8 0.417139 0.853887 0.664319
O O9 0.653288 0.927050 0.618080
O O10 0.772331 0.599241 0.000000
#
# Coordination Sequence:
#
# PCOD8237879 Si02
#       4
#     8   8   8   8
#     4  10  21  40  63  91 123 167 213 251 313 382
#     4  11  25  40  63  97 133 163 207 272 322 371
#     4  10  20  41  65  90 128 171 207 262 313 379
#     4  10  22  42  67  92 123 172 216 254 318 384
#
# _framework density 21.209769999999999
#
# number of rings (size 3 to 8) (size 9 to 14) (size 15 to 20)
#    0.000    1.750    5.000    1.500    7.000    4.000 
#    0.000    2.500    0.000    0.000    0.000    0.000 
#    0.000    0.000    0.000    0.000    0.000    0.000 
#
# Total GULP energy -396694.725505 kJ/mol
# GULP energy per Si atom -12396.710172 kJ/mol
# Density = 2.116150 g / cm^3
# Si number density = 21.209770 Si / 1000 Ang^3
#
#
#
# Elastic Constant Matrix: (Units=GPa)
#
#
# Indices 1 2 3 4 5 6 
#
# 1 128.0881 44.5301 13.3532 0.0000 0.0000 0.0000
# 2 44.5301 90.2983 -9.1795 0.0000 0.0000 0.0000
# 3 13.3532 -9.1795 105.6050 0.0000 0.0000 0.0000
# 4 0.0000 0.0000 0.0000 5.5318 0.0000 0.0000
# 5 0.0000 0.0000 0.0000 0.0000 22.2578 0.0000
# 6 0.0000 0.0000 0.0000 0.0000 0.0000 12.6091
#
#
#
# Elastic Compliance Matrix: (Units=1/GPa)
#
#
# Indices 1 2 3 4 5 6 
#
# 1 0.009702 -0.004953 -0.001657 0.000000 0.000000 0.000000
# 2 -0.004953 0.013702 0.001817 0.000000 0.000000 0.000000
# 3 -0.001657 0.001817 0.009837 0.000000 0.000000 0.000000
# 4 0.000000 0.000000 0.000000 0.180772 0.000000 0.000000
# 5 0.000000 0.000000 0.000000 0.000000 0.044928 0.000000
# 6 0.000000 0.000000 0.000000 0.000000 0.000000 0.079308
#
#
# Mechanical properties :
#
#
# Convention : Reuss Voigt Hill
#
# Bulk Modulus (GPa) = 42.27540 46.82213 44.54877
# Shear Modulus (GPa) = 14.05609 26.43227 20.24418
#
# Velocity S-wave (km/s) = 2.57712 3.53403 3.09281
# Velocity P-wave (km/s) = 5.36943 6.22705 5.81407
#
# Compressibility (1/GPa) = 0.02365442
#
# Stress axis : x y z
#
# Youngs Moduli (GPa) = 103.07407 72.98416 101.65951
#
# Poissons Ratio (x) = 0.36148 0.16848
# Poissons Ratio (y) = 0.51051 -0.18474
# Poissons Ratio (z) = 0.17082 -0.13263
#
# Static dielectric constant tensor:
#      x y z
#    x 3.085570 0.000000 0.000000 
#    y 0.000000 3.562560 0.000000 
#    z 0.000000 0.000000 4.248840 
# 
# 
# High freq. dielectric constant tensor:
#      x y z
#    x 1.829280 0.000000 0.000000 
#    y 0.000000 1.819730 0.000000 
#    z 0.000000 0.000000 1.833100 
# 
# From -- ./inp_files/19178.got.cif
#   From: 2010.06.25/outbox.cif.g09.slc.cpg/sg58_10_cif.got.tgz:19178.got - 2010.06.26 21:38:00.
