data_PCOD8237002
_publ_section_title
;
Structure prediction by ZEFSAII (Michael W. Deem and Ramdas Pophale) SiO2 
 PCOD8237002
Probable space group: P N N M
;
_chemical_formula_sum "Si O2"
_cell_formula_units_Z 48
_cell_length_a 13.636893
_cell_length_b 23.667351
_cell_length_c 8.811033
_cell_angle_alpha 90.000000
_cell_angle_beta 90.000000
_cell_angle_gamma 90.000000
_cell_volume 2843.753263
_symmetry_space_group_name_H-M "P N N M"
_symmetry_group_IT_number 58
_symmetry_cell_setting 'orthorhombic'
loop_
_space_group_symop_operation_xyz
x,y,z
-x,-y,z
1/2+x,1/2-y,1/2-z
1/2-x,1/2+y,1/2-z
-x,-y,-z
x,y,-z
1/2-x,1/2+y,1/2+z
1/2+x,1/2-y,1/2+z
loop_
_atom_site_type_symbol
_atom_site_label
_atom_site_fract_x
_atom_site_fract_y
_atom_site_fract_z
Si Si1 0.394191 0.222550 0.679612
Si Si2 0.287148 0.667846 0.320663
Si Si3 0.112478 0.064847 0.679798
Si Si4 0.608483 0.562251 0.178060
Si Si5 0.208330 0.836070 0.174027
Si Si6 0.599188 0.230641 0.177007
O O1 0.383121 0.214208 0.500000
O O2 0.322910 0.178539 0.762806
O O3 0.363810 0.285972 0.728292
O O4 0.503727 0.210194 0.733540
O O5 0.292909 0.676019 0.500000
O O6 0.315031 0.604554 0.273801
O O7 0.363630 0.709995 0.241488
O O8 0.125148 0.074748 0.500000
O O9 0.001107 0.077202 0.734366
O O10 0.139685 0.000781 0.727319
O O11 0.687613 0.606761 0.236696
O O12 0.606911 0.564906 0.000000
O O13 0.320118 0.817782 0.203618
O O14 0.188808 0.849362 0.000000
O O15 0.575637 0.238940 0.000000
#
# Coordination Sequence:
#
# PCOD8237002 Si02
#       6
#     8   8   8   8   8   8
#     4  10  20  34  51  73  99 129 163 202 244 290
#     4  11  21  32  49  74 100 131 165 198 241 291
#     4   9  18  33  49  70  99 129 161 201 243 286
#     4   9  18  31  50  72  96 128 163 197 241 289
#     4   9  19  32  47  70 100 127 155 194 241 286
#     4  10  20  34  50  71 100 132 162 200 244 288
#
# _framework density 16.879100000000001
#
# number of rings (size 3 to 8) (size 9 to 14) (size 15 to 20)
#    0.000    2.333    0.000    5.500    0.000    8.000 
#    0.000    1.667    0.000    1.000    0.000    7.000 
#    0.000    0.000    0.000    0.000    0.000    0.000 
#
# Total GULP energy -595256.419793 kJ/mol
# GULP energy per Si atom -12401.175412 kJ/mol
# Density = 1.684068 g / cm^3
# Si number density = 16.879100 Si / 1000 Ang^3
#
#
#
# Elastic Constant Matrix: (Units=GPa)
#
#
# Indices 1 2 3 4 5 6 
#
# 1 81.9336 41.8280 12.5521 0.0000 0.0000 0.0000
# 2 41.8280 104.1335 25.8154 0.0000 0.0000 0.0000
# 3 12.5521 25.8154 39.8039 0.0000 0.0000 0.0000
# 4 0.0000 0.0000 0.0000 29.7915 0.0000 0.0000
# 5 0.0000 0.0000 0.0000 0.0000 30.6453 0.0000
# 6 0.0000 0.0000 0.0000 0.0000 0.0000 24.3413
#
#
#
# Elastic Compliance Matrix: (Units=1/GPa)
#
#
# Indices 1 2 3 4 5 6 
#
# 1 0.015387 -0.005931 -0.001005 0.000000 0.000000 0.000000
# 2 -0.005931 0.013729 -0.007034 0.000000 0.000000 0.000000
# 3 -0.001005 -0.007034 0.030002 0.000000 0.000000 0.000000
# 4 0.000000 0.000000 0.000000 0.033567 0.000000 0.000000
# 5 0.000000 0.000000 0.000000 0.000000 0.032631 0.000000
# 6 0.000000 0.000000 0.000000 0.000000 0.000000 0.041082
#
#
# Mechanical properties :
#
#
# Convention : Reuss Voigt Hill
#
# Bulk Modulus (GPa) = 32.07473 42.91800 37.49637
# Shear Modulus (GPa) = 24.42207 26.66731 25.54469
#
# Velocity S-wave (km/s) = 3.80792 3.97911 3.89445
# Velocity P-wave (km/s) = 6.19496 6.82591 6.51807
#
# Compressibility (1/GPa) = 0.03117719
#
# Stress axis : x y z
#
# Youngs Moduli (GPa) = 64.98958 72.83687 33.33090
#
# Poissons Ratio (x) = 0.43202 0.03351
# Poissons Ratio (y) = 0.38548 0.23445
# Poissons Ratio (z) = 0.06534 0.51233
#
# Static dielectric constant tensor:
#      x y z
#    x 3.230040 0.000000 0.000000 
#    y 0.000000 3.316230 0.000000 
#    z 0.000000 0.000000 3.113040 
# 
# 
# High freq. dielectric constant tensor:
#      x y z
#    x 1.642110 0.000000 0.000000 
#    y 0.000000 1.640840 0.000000 
#    z 0.000000 0.000000 1.655810 
# 
# From -- ./inp_files/4228.got.cif
#   From: 2010.06.25/outbox.cif.g09.slc.cpg/sg58_3_cif.got.tgz:4228.got - 2010.06.26 21:38:00.
