data_PCOD8237360
_publ_section_title
;
Structure prediction by ZEFSAII (Michael W. Deem and Ramdas Pophale) SiO2 
 PCOD8237360
Probable space group: P N N M
;
_chemical_formula_sum "Si O2"
_cell_formula_units_Z 56
_cell_length_a 14.575451
_cell_length_b 21.934256
_cell_length_c 8.913779
_cell_angle_alpha 90.000000
_cell_angle_beta 90.000000
_cell_angle_gamma 90.000000
_cell_volume 2849.750064
_symmetry_space_group_name_H-M "P N N M"
_symmetry_group_IT_number 58
_symmetry_cell_setting 'orthorhombic'
loop_
_space_group_symop_operation_xyz
x,y,z
-x,-y,z
1/2+x,1/2-y,1/2-z
1/2-x,1/2+y,1/2-z
-x,-y,-z
x,y,-z
1/2-x,1/2+y,1/2+z
1/2+x,1/2-y,1/2+z
loop_
_atom_site_type_symbol
_atom_site_label
_atom_site_fract_x
_atom_site_fract_y
_atom_site_fract_z
Si Si1 0.081154 0.885274 0.821858
Si Si2 0.526789 0.175638 0.822988
Si Si3 0.078082 0.451524 0.823557
Si Si4 0.378950 0.250783 0.326908
Si Si5 0.121041 0.098298 0.177284
Si Si6 0.229705 0.980766 0.821093
Si Si7 0.169972 0.221999 0.328354
O O1 0.090100 0.816299 0.762492
O O2 0.164106 0.926637 0.760725
O O3 0.983459 0.911463 0.765269
O O4 0.086672 0.885426 0.000000
O O5 0.550628 0.112898 0.744148
O O6 0.426737 0.197884 0.769979
O O7 0.600478 0.226150 0.771587
O O8 0.527899 0.165017 0.000000
O O9 0.171767 0.475384 0.752766
O O10 0.000000 0.500000 0.782302
O O11 0.090905 0.444516 0.000000
O O12 0.407820 0.242339 0.500000
O O13 0.270765 0.248180 0.306382
O O14 0.161192 0.161902 0.230906
O O15 0.184794 0.043781 0.236045
O O16 0.120687 0.098747 0.000000
O O17 0.240135 0.978739 0.000000
O O18 0.149356 0.205044 0.500000
#
# Coordination Sequence:
#
# PCOD8237360 Si02
#       7
#     8   8   8   8   8   8   8
#     4   9  17  35  61  89 122 158 196 239 296 356
#     4  11  23  41  64  90 119 154 199 251 298 347
#     4  11  26  45  63  85 118 161 203 246 302 364
#     4  10  20  36  60  86 118 160 197 238 296 358
#     4  10  20  35  60  91 121 157 201 246 293 354
#     4  10  21  38  62  91 121 157 202 250 296 348
#     4  10  22  38  58  87 124 161 196 244 304 356
#
# _framework density 19.650848
#
# number of rings (size 3 to 8) (size 9 to 14) (size 15 to 20)
#    0.000    1.857    1.429    2.143    2.000    6.857 
#    0.000    2.857    0.000    1.714    0.000    0.000 
#    0.000    0.000    0.000    0.000    0.000    0.000 
#
# Total GULP energy -694551.571476 kJ/mol
# GULP energy per Si atom -12402.706634 kJ/mol
# Density = 1.960612 g / cm^3
# Si number density = 19.650848 Si / 1000 Ang^3
#
#
#
# Elastic Constant Matrix: (Units=GPa)
#
#
# Indices 1 2 3 4 5 6 
#
# 1 101.8326 63.0868 36.4974 0.0000 0.0000 0.0000
# 2 63.0868 139.4718 37.9325 0.0000 0.0000 0.0000
# 3 36.4974 37.9325 35.5997 0.0000 0.0000 0.0000
# 4 0.0000 0.0000 0.0000 28.6588 0.0000 0.0000
# 5 0.0000 0.0000 0.0000 0.0000 29.2812 0.0000
# 6 0.0000 0.0000 0.0000 0.0000 0.0000 35.3675
#
#
#
# Elastic Compliance Matrix: (Units=1/GPa)
#
#
# Indices 1 2 3 4 5 6 
#
# 1 0.017093 -0.004176 -0.013075 0.000000 0.000000 0.000000
# 2 -0.004176 0.011116 -0.007563 0.000000 0.000000 0.000000
# 3 -0.013075 -0.007563 0.049553 0.000000 0.000000 0.000000
# 4 0.000000 0.000000 0.000000 0.034893 0.000000 0.000000
# 5 0.000000 0.000000 0.000000 0.000000 0.034152 0.000000
# 6 0.000000 0.000000 0.000000 0.000000 0.000000 0.028275
#
#
# Mechanical properties :
#
#
# Convention : Reuss Voigt Hill
#
# Bulk Modulus (GPa) = 35.54300 61.32639 48.43469
# Shear Modulus (GPa) = 21.35962 27.95398 24.65680
#
# Velocity S-wave (km/s) = 3.30048 3.77574 3.54608
# Velocity P-wave (km/s) = 5.71408 7.09112 6.43952
#
# Compressibility (1/GPa) = 0.02813494
#
# Stress axis : x y z
#
# Youngs Moduli (GPa) = 58.50359 89.96367 20.18030
#
# Poissons Ratio (x) = 0.37565 0.26385
# Poissons Ratio (y) = 0.24429 0.15262
# Poissons Ratio (z) = 0.76492 0.68040
#
# Static dielectric constant tensor:
#      x y z
#    x 3.775910 0.000000 0.000000 
#    y 0.000000 3.763340 0.000000 
#    z 0.000000 0.000000 3.396140 
# 
# 
# High freq. dielectric constant tensor:
#      x y z
#    x 1.782550 0.000000 0.000000 
#    y 0.000000 1.778800 0.000000 
#    z 0.000000 0.000000 1.742020 
# 
# From -- ./inp_files/6379.got.cif
#   From: 2010.06.25/outbox.cif.g09.slc.cpg/sg58_4_cif.got.tgz:6379.got - 2010.06.26 21:38:00.
