data_PCOD8238944
_publ_section_title
;
Structure prediction by ZEFSAII (Michael W. Deem and Ramdas Pophale) SiO2 
 PCOD8238944
Probable space group: P N N M
;
_chemical_formula_sum "Si O2"
_cell_formula_units_Z 32
_cell_length_a 7.863657
_cell_length_b 12.228211
_cell_length_c 14.037292
_cell_angle_alpha 90.000000
_cell_angle_beta 90.000000
_cell_angle_gamma 90.000000
_cell_volume 1349.804340
_symmetry_space_group_name_H-M "P N N M"
_symmetry_group_IT_number 58
_symmetry_cell_setting 'orthorhombic'
loop_
_space_group_symop_operation_xyz
x,y,z
-x,-y,z
1/2+x,1/2-y,1/2-z
1/2-x,1/2+y,1/2-z
-x,-y,-z
x,y,-z
1/2-x,1/2+y,1/2+z
1/2+x,1/2-y,1/2+z
loop_
_atom_site_type_symbol
_atom_site_label
_atom_site_fract_x
_atom_site_fract_y
_atom_site_fract_z
Si Si1 0.883535 0.282999 0.000000
Si Si2 0.503223 0.874943 0.689032
Si Si3 0.000000 0.000000 0.161508
Si Si4 0.494346 0.740337 0.000000
Si Si5 0.315291 0.607441 0.500000
Si Si6 0.880150 0.182405 0.306906
O O1 0.891517 0.361699 0.091613
O O2 0.701789 0.219323 0.000000
O O3 0.034076 0.196269 0.000000
O O4 0.316262 0.830010 0.670866
O O5 0.593206 0.806701 0.772377
O O6 0.500000 0.000000 0.721834
O O7 0.055384 0.899539 0.226677
O O8 0.840498 0.965632 0.095022
O O9 0.626918 0.841594 0.000000
O O10 0.521502 0.665262 0.906444
#
# Coordination Sequence:
#
# PCOD8238944 Si02
#       6
#     4   8   4   4   4   8
#     4  12  24  50  70 114 156 207 255 325 382 465
#     4  12  28  48  77 110 157 202 259 319 389 461
#     4  11  26  47  86 106 160 197 266 323 394 452
#     4  12  27  46  79 105 166 193 260 311 390 458
#     4  11  24  53  75 115 150 211 250 335 379 460
#     4  12  26  49  75 114 152 203 256 320 385 468
#
# _framework density 23.707139000000002
#
# number of rings (size 3 to 8) (size 9 to 14) (size 15 to 20)
#    0.000    0.250    5.000    1.875   10.500    0.500 
#    0.000    3.125    0.000    0.000    0.000    0.000 
#    0.000    0.000    0.000    0.000    0.000    0.000 
#
# Total GULP energy -396935.380074 kJ/mol
# GULP energy per Si atom -12404.230627 kJ/mol
# Density = 2.365318 g / cm^3
# Si number density = 23.707139 Si / 1000 Ang^3
#
#
#
# Elastic Constant Matrix: (Units=GPa)
#
#
# Indices 1 2 3 4 5 6 
#
# 1 133.8406 52.5593 43.4482 0.0000 0.0000 0.0000
# 2 52.5593 150.8427 63.4393 0.0000 0.0000 0.0000
# 3 43.4482 63.4393 183.0210 0.0000 0.0000 0.0000
# 4 0.0000 0.0000 0.0000 -23.1641 0.0000 0.0000
# 5 0.0000 0.0000 0.0000 0.0000 37.1662 0.0000
# 6 0.0000 0.0000 0.0000 0.0000 0.0000 33.4477
#
#
#
# Elastic Compliance Matrix: (Units=1/GPa)
#
#
# Indices 1 2 3 4 5 6 
#
# 1 0.008880 -0.002584 -0.001212 0.000000 0.000000 0.000000
# 2 -0.002584 0.008513 -0.002337 0.000000 0.000000 0.000000
# 3 -0.001212 -0.002337 0.006562 0.000000 0.000000 0.000000
# 4 0.000000 0.000000 0.000000 -0.043170 0.000000 0.000000
# 5 0.000000 0.000000 0.000000 0.000000 0.026906 0.000000
# 6 0.000000 0.000000 0.000000 0.000000 0.000000 0.029897
#
#
# Mechanical properties :
#
#
# Convention : Reuss Voigt Hill
#
# Bulk Modulus (GPa) = 85.56534 87.39976 86.48255
# Shear Modulus (GPa) = 93.02136 30.04049 61.53092
#
# Velocity S-wave (km/s) = 6.27080 3.56357 5.10009
# Velocity P-wave (km/s) = 9.41284 7.34020 8.44038
#
# Compressibility (1/GPa) = 0.01168697
#
# Stress axis : x y z
#
# Youngs Moduli (GPa) = 112.61319 117.46954 152.39742
#
# Poissons Ratio (x) = 0.30357 0.18475
# Poissons Ratio (y) = 0.29102 0.35619
# Poissons Ratio (z) = 0.13652 0.27456
#
# Static dielectric constant tensor:
#      x y z
#    x 4.302920 0.000000 0.000000 
#    y 0.000000 3.627800 0.000000 
#    z 0.000000 0.000000 4.624220 
# 
# 
# High freq. dielectric constant tensor:
#      x y z
#    x 1.942660 0.000000 0.000000 
#    y 0.000000 1.927770 0.000000 
#    z 0.000000 0.000000 1.964700 
# 
# From -- ./inp_files/19163.got.cif
#   From: 2010.06.25/outbox.cif.g09.slc.cpg/sg58_10_cif.got.tgz:19163.got - 2010.06.26 21:38:00.
