data_PCOD8238044
_publ_section_title
;
Structure prediction by ZEFSAII (Michael W. Deem and Ramdas Pophale) SiO2 
 PCOD8238044
Probable space group: P N N M
;
_chemical_formula_sum "Si O2"
_cell_formula_units_Z 40
_cell_length_a 9.456153
_cell_length_b 24.851829
_cell_length_c 8.969710
_cell_angle_alpha 90.000000
_cell_angle_beta 90.000000
_cell_angle_gamma 90.000000
_cell_volume 2107.906044
_symmetry_space_group_name_H-M "P N N M"
_symmetry_group_IT_number 58
_symmetry_cell_setting 'orthorhombic'
loop_
_space_group_symop_operation_xyz
x,y,z
-x,-y,z
1/2+x,1/2-y,1/2-z
1/2-x,1/2+y,1/2-z
-x,-y,-z
x,y,-z
1/2-x,1/2+y,1/2+z
1/2+x,1/2-y,1/2+z
loop_
_atom_site_type_symbol
_atom_site_label
_atom_site_fract_x
_atom_site_fract_y
_atom_site_fract_z
Si Si1 0.658845 0.900735 0.323708
Si Si2 0.811122 0.702868 0.668659
Si Si3 0.159752 0.012605 0.825143
Si Si4 0.863752 0.289695 0.670013
Si Si5 0.368061 0.917161 0.826057
O O1 0.655260 0.902107 0.500000
O O2 0.790372 0.935289 0.264768
O O3 0.682624 0.839745 0.270970
O O4 0.513458 0.926078 0.262174
O O5 0.757423 0.711911 0.500000
O O6 0.715319 0.735946 0.781278
O O7 0.799008 0.640263 0.713335
O O8 0.971205 0.722549 0.686801
O O9 0.256627 0.962192 0.779002
O O10 0.170928 0.024813 0.000000
O O11 0.000000 0.000000 0.777425
O O12 0.825145 0.303762 0.500000
O O13 0.407926 0.919458 0.000000
#
# Coordination Sequence:
#
# PCOD8238044 Si02
#       5
#     8   8   8   8   8
#     4  11  22  36  56  81 109 143 184 227 269 317
#     4   9  19  35  54  80 110 141 182 227 269 315
#     4  10  21  37  57  82 111 144 181 221 271 327
#     4  10  21  37  57  81 110 145 182 220 268 324
#     4   9  19  37  58  79 108 145 183 222 265 321
#
# _framework density 18.976178000000001
#
# number of rings (size 3 to 8) (size 9 to 14) (size 15 to 20)
#    0.000    2.200    0.000    4.200    0.000    9.200 
#    0.000    2.000    0.000    0.000    0.000    0.000 
#    0.000    0.000    0.000    0.000    0.000    0.000 
#
# Total GULP energy -496175.746043 kJ/mol
# GULP energy per Si atom -12404.393651 kJ/mol
# Density = 1.893299 g / cm^3
# Si number density = 18.976178 Si / 1000 Ang^3
#
#
#
# Elastic Constant Matrix: (Units=GPa)
#
#
# Indices 1 2 3 4 5 6 
#
# 1 42.7604 15.6389 18.0601 0.0000 0.0000 0.0000
# 2 15.6389 51.4011 13.1174 0.0000 0.0000 0.0000
# 3 18.0601 13.1174 68.6422 0.0000 0.0000 0.0000
# 4 0.0000 0.0000 0.0000 33.3644 0.0000 0.0000
# 5 0.0000 0.0000 0.0000 0.0000 26.6884 0.0000
# 6 0.0000 0.0000 0.0000 0.0000 0.0000 35.3870
#
#
#
# Elastic Compliance Matrix: (Units=1/GPa)
#
#
# Indices 1 2 3 4 5 6 
#
# 1 0.028595 -0.007128 -0.006161 0.000000 0.000000 0.000000
# 2 -0.007128 0.022229 -0.002373 0.000000 0.000000 0.000000
# 3 -0.006161 -0.002373 0.016643 0.000000 0.000000 0.000000
# 4 0.000000 0.000000 0.000000 0.029972 0.000000 0.000000
# 5 0.000000 0.000000 0.000000 0.000000 0.037469 0.000000
# 6 0.000000 0.000000 0.000000 0.000000 0.000000 0.028259
#
#
# Mechanical properties :
#
#
# Convention : Reuss Voigt Hill
#
# Bulk Modulus (GPa) = 27.66756 28.49296 28.08026
# Shear Modulus (GPa) = 24.20850 26.82046 25.51448
#
# Velocity S-wave (km/s) = 3.57561 3.76357 3.67079
# Velocity P-wave (km/s) = 5.62659 5.82526 5.72678
#
# Compressibility (1/GPa) = 0.03614341
#
# Stress axis : x y z
#
# Youngs Moduli (GPa) = 34.97074 44.98637 60.08603
#
# Poissons Ratio (x) = 0.32066 0.37022
# Poissons Ratio (y) = 0.24927 0.14256
# Poissons Ratio (z) = 0.21547 0.10673
#
# Static dielectric constant tensor:
#      x y z
#    x 3.406540 0.000000 0.000000 
#    y 0.000000 3.518160 0.000000 
#    z 0.000000 0.000000 3.377470 
# 
# 
# High freq. dielectric constant tensor:
#      x y z
#    x 1.732010 0.000000 0.000000 
#    y 0.000000 1.746280 0.000000 
#    z 0.000000 0.000000 1.732820 
# 
# From -- ./inp_files/2396.got.cif
#   From: 2010.06.25/outbox.cif.g09.slc.cpg/sg58_2_cif.got.tgz:2396.got - 2010.06.26 21:38:00.
