data_PCOD8238951
_publ_section_title
;
Structure prediction by ZEFSAII (Michael W. Deem and Ramdas Pophale) SiO2 
 PCOD8238951
Probable space group: P N N M
;
_chemical_formula_sum "Si O2"
_cell_formula_units_Z 32
_cell_length_a 5.050365
_cell_length_b 8.817036
_cell_length_c 29.951999
_cell_angle_alpha 90.000000
_cell_angle_beta 90.000000
_cell_angle_gamma 90.000000
_cell_volume 1333.740052
_symmetry_space_group_name_H-M "P N N M"
_symmetry_group_IT_number 58
_symmetry_cell_setting 'orthorhombic'
loop_
_space_group_symop_operation_xyz
x,y,z
-x,-y,z
1/2+x,1/2-y,1/2-z
1/2-x,1/2+y,1/2-z
-x,-y,-z
x,y,-z
1/2-x,1/2+y,1/2+z
1/2+x,1/2-y,1/2+z
loop_
_atom_site_type_symbol
_atom_site_label
_atom_site_fract_x
_atom_site_fract_y
_atom_site_fract_z
Si Si1 0.404489 0.168837 0.232546
Si Si2 0.919523 0.828440 0.049015
Si Si3 0.430948 0.170389 0.868132
Si Si4 0.251180 0.099903 0.589921
O O1 0.649503 0.284170 0.238755
O O2 0.305010 0.174342 0.181094
O O3 0.500000 0.000000 0.245911
O O4 0.748719 0.769883 0.090973
O O5 0.169108 0.712425 0.048909
O O6 0.781657 0.817257 0.000000
O O7 0.000000 0.000000 0.058465
O O8 0.678102 0.287502 0.868555
O O9 0.500000 0.000000 0.881026
O O10 0.500000 0.000000 0.605868
O O11 0.000000 0.000000 0.574670
#
# Coordination Sequence:
#
# PCOD8238951 Si02
#       4
#     8   8   8   8
#     4  11  27  48  76 110 145 189 241 306 367 438
#     4  11  25  46  76 109 147 199 253 294 351 442
#     4  11  25  47  77 103 150 195 247 295 363 438
#     4  12  26  45  69 109 147 192 236 302 366 418
#
# _framework density 23.992681000000001
#
# number of rings (size 3 to 8) (size 9 to 14) (size 15 to 20)
#    0.000    0.750    5.000    0.750    3.500    5.500 
#    0.000    0.000    0.000    0.000    0.000    0.000 
#    0.000    0.000    0.000    0.000    0.000    0.000 
#
# Total GULP energy -396470.463997 kJ/mol
# GULP energy per Si atom -12389.702000 kJ/mol
# Density = 2.393807 g / cm^3
# Si number density = 23.992681 Si / 1000 Ang^3
#
#
#
# Elastic Constant Matrix: (Units=GPa)
#
#
# Indices 1 2 3 4 5 6 
#
# 1 120.2656 55.5834 44.4723 0.0000 0.0000 0.0000
# 2 55.5834 167.9982 36.8752 0.0000 0.0000 0.0000
# 3 44.4723 36.8752 125.2651 0.0000 0.0000 0.0000
# 4 0.0000 0.0000 0.0000 -3.9383 0.0000 0.0000
# 5 0.0000 0.0000 0.0000 0.0000 35.6203 0.0000
# 6 0.0000 0.0000 0.0000 0.0000 0.0000 42.0629
#
#
#
# Elastic Compliance Matrix: (Units=1/GPa)
#
#
# Indices 1 2 3 4 5 6 
#
# 1 0.010754 -0.002908 -0.002962 0.000000 0.000000 0.000000
# 2 -0.002908 0.007150 -0.001072 0.000000 0.000000 0.000000
# 3 -0.002962 -0.001072 0.009350 0.000000 0.000000 0.000000
# 4 0.000000 0.000000 0.000000 -0.253914 0.000000 0.000000
# 5 0.000000 0.000000 0.000000 0.000000 0.028074 0.000000
# 6 0.000000 0.000000 0.000000 0.000000 0.000000 0.023774
#
#
# Mechanical properties :
#
#
# Convention : Reuss Voigt Hill
#
# Bulk Modulus (GPa) = 74.79520 76.37675 75.58597
# Shear Modulus (GPa) = -31.95500 33.18884 0.61692
#
# Velocity S-wave (km/s) = -3.65343 3.72330 0.50763
# Velocity P-wave (km/s) = 3.66676 7.09834 5.64940
#
# Compressibility (1/GPa) = 0.01336984
#
# Stress axis : x y z
#
# Youngs Moduli (GPa) = 92.98693 139.86113 106.94814
#
# Poissons Ratio (x) = 0.40671 0.31678
# Poissons Ratio (y) = 0.27040 0.11469
# Poissons Ratio (z) = 0.27542 0.14999
#
# Static dielectric constant tensor:
#      x y z
#    x 4.349750 0.000000 0.000000 
#    y 0.000000 4.781230 0.000000 
#    z 0.000000 0.000000 4.093930 
# 
# 
# High freq. dielectric constant tensor:
#      x y z
#    x 1.939560 0.000000 0.000000 
#    y 0.000000 1.988670 0.000000 
#    z 0.000000 0.000000 1.930880 
# 
# From -- ./inp_files/33953.got.cif
#   From: 2010.06.25/outbox.cif.g09.slc.cpg/sg58_17_cif.got.tgz:33953.got - 2010.06.26 21:38:00.
