data_PCOD8238837
_publ_section_title
;
Structure prediction by ZEFSAII (Michael W. Deem and Ramdas Pophale) SiO2 
 PCOD8238837
Probable space group: P N N M
;
_chemical_formula_sum "Si O2"
_cell_formula_units_Z 40
_cell_length_a 4.903471
_cell_length_b 11.833978
_cell_length_c 32.068566
_cell_angle_alpha 90.000000
_cell_angle_beta 90.000000
_cell_angle_gamma 90.000000
_cell_volume 1860.860892
_symmetry_space_group_name_H-M "P N N M"
_symmetry_group_IT_number 58
_symmetry_cell_setting 'orthorhombic'
loop_
_space_group_symop_operation_xyz
x,y,z
-x,-y,z
1/2+x,1/2-y,1/2-z
1/2-x,1/2+y,1/2-z
-x,-y,-z
x,y,-z
1/2-x,1/2+y,1/2+z
1/2+x,1/2-y,1/2+z
loop_
_atom_site_type_symbol
_atom_site_label
_atom_site_fract_x
_atom_site_fract_y
_atom_site_fract_z
Si Si1 0.253083 0.076823 0.149818
Si Si2 0.083661 0.249160 0.222071
Si Si3 0.568886 0.728158 0.909004
Si Si4 0.251441 0.932618 0.662700
Si Si5 0.549489 0.869096 0.547673
O O1 0.150293 0.150858 0.188935
O O2 0.373944 0.147442 0.110177
O O3 0.500000 0.000000 0.166456
O O4 0.000000 0.000000 0.134137
O O5 0.272173 0.252623 0.263035
O O6 0.110832 0.368723 0.200507
O O7 0.620122 0.643084 0.872107
O O8 0.262436 0.701407 0.923892
O O9 0.768808 0.700141 0.947415
O O10 0.500000 0.000000 0.641277
O O11 0.000000 0.000000 0.682535
O O12 0.648275 0.864742 0.500000
O O13 0.500000 0.000000 0.560968
#
# Coordination Sequence:
#
# PCOD8238837 Si02
#       5
#     8   8   8   8   8
#     4  11  24  42  64  86 115 164 213 252 297 350
#     4  11  24  39  57  86 117 148 194 247 299 354
#     4  11  22  39  61  87 121 155 199 246 285 356
#     4  11  22  36  57  83 112 149 186 229 291 350
#     4  11  22  37  62  95 127 157 187 234 307 373
#
# _framework density 21.495428
#
# number of rings (size 3 to 8) (size 9 to 14) (size 15 to 20)
#    0.000    1.000    0.000    7.800    0.000   12.800 
#    0.000    0.000    0.000   12.000    0.000    0.000 
#    0.000    0.000    0.000    0.000    0.000    0.000 
#
# Total GULP energy -495840.025936 kJ/mol
# GULP energy per Si atom -12396.000648 kJ/mol
# Density = 2.144650 g / cm^3
# Si number density = 21.495428 Si / 1000 Ang^3
#
#
#
# Elastic Constant Matrix: (Units=GPa)
#
#
# Indices 1 2 3 4 5 6 
#
# 1 100.4322 31.2552 5.2511 0.0000 0.0000 0.0000
# 2 31.2552 100.9072 26.6495 0.0000 0.0000 0.0000
# 3 5.2511 26.6495 76.6329 0.0000 0.0000 0.0000
# 4 0.0000 0.0000 0.0000 0.3687 0.0000 0.0000
# 5 0.0000 0.0000 0.0000 0.0000 44.5285 0.0000
# 6 0.0000 0.0000 0.0000 0.0000 0.0000 38.6464
#
#
#
# Elastic Compliance Matrix: (Units=1/GPa)
#
#
# Indices 1 2 3 4 5 6 
#
# 1 0.011035 -0.003544 0.000476 0.000000 0.000000 0.000000
# 2 -0.003544 0.012050 -0.003948 0.000000 0.000000 0.000000
# 3 0.000476 -0.003948 0.014389 0.000000 0.000000 0.000000
# 4 0.000000 0.000000 0.000000 2.711926 0.000000 0.000000
# 5 0.000000 0.000000 0.000000 0.000000 0.022458 0.000000
# 6 0.000000 0.000000 0.000000 0.000000 0.000000 0.025876
#
#
# Mechanical properties :
#
#
# Convention : Reuss Voigt Hill
#
# Bulk Modulus (GPa) = 42.65460 44.92045 43.78752
# Shear Modulus (GPa) = 1.77331 31.02983 16.40157
#
# Velocity S-wave (km/s) = 0.90927 3.80354 2.76529
# Velocity P-wave (km/s) = 4.58138 6.34289 5.53269
#
# Compressibility (1/GPa) = 0.02344413
#
# Stress axis : x y z
#
# Youngs Moduli (GPa) = 90.62154 82.98527 69.49543
#
# Poissons Ratio (x) = 0.29408 -0.03309
# Poissons Ratio (y) = 0.32114 0.27435
# Poissons Ratio (z) = -0.04315 0.32760
#
# Static dielectric constant tensor:
#      x y z
#    x 3.926680 0.000000 0.000000 
#    y 0.000000 4.448680 0.000000 
#    z 0.000000 0.000000 3.750390 
# 
# 
# High freq. dielectric constant tensor:
#      x y z
#    x 1.864660 0.000000 0.000000 
#    y 0.000000 1.838210 0.000000 
#    z 0.000000 0.000000 1.837420 
# 
# From -- ./inp_files/34101.got.cif
#   From: 2010.06.25/outbox.cif.g09.slc.cpg/sg58_18_cif.got.tgz:34101.got - 2010.06.26 21:38:00.
