data_PCOD8238982
_publ_section_title
;
Structure prediction by ZEFSAII (Michael W. Deem and Ramdas Pophale) SiO2 
 PCOD8238982
Probable space group: P N N M
;
_chemical_formula_sum "Si O2"
_cell_formula_units_Z 48
_cell_length_a 23.864400
_cell_length_b 13.591766
_cell_length_c 9.542863
_cell_angle_alpha 90.000000
_cell_angle_beta 90.000000
_cell_angle_gamma 90.000000
_cell_volume 3095.316749
_symmetry_space_group_name_H-M "P N N M"
_symmetry_group_IT_number 58
_symmetry_cell_setting 'orthorhombic'
loop_
_space_group_symop_operation_xyz
x,y,z
-x,-y,z
1/2+x,1/2-y,1/2-z
1/2-x,1/2+y,1/2-z
-x,-y,-z
x,y,-z
1/2-x,1/2+y,1/2+z
1/2+x,1/2-y,1/2+z
loop_
_atom_site_type_symbol
_atom_site_label
_atom_site_fract_x
_atom_site_fract_y
_atom_site_fract_z
Si Si1 0.275860 0.916342 0.664493
Si Si2 0.836612 0.195690 0.659815
Si Si3 0.834875 0.776392 0.166691
Si Si4 0.271841 0.107422 0.161640
Si Si5 0.058769 0.112719 0.833998
Si Si6 0.433953 0.390634 0.665807
O O1 0.281924 0.936975 0.500000
O O2 0.290368 0.014509 0.747716
O O3 0.213729 0.877768 0.700801
O O4 0.320684 0.834135 0.716132
O O5 0.854598 0.176932 0.500000
O O6 0.818137 0.308164 0.680595
O O7 0.889356 0.178277 0.759019
O O8 0.787676 0.852809 0.219341
O O9 0.895335 0.810528 0.226408
O O10 0.832761 0.777764 0.000000
O O11 0.267090 0.075239 0.000000
O O12 0.996336 0.144662 0.788154
O O13 0.073711 0.002922 0.782271
O O14 0.061377 0.111067 0.000000
O O15 0.425439 0.381019 0.500000
#
# Coordination Sequence:
#
# PCOD8238982 Si02
#       6
#     8   8   8   8   8   8
#     4   9  17  28  43  63  84 108 139 171 203 244
#     4   9  18  30  42  61  90 116 135 163 209 257
#     4   8  14  26  43  61  84 112 135 163 211 255
#     4   9  17  29  45  63  84 112 140 167 207 252
#     4   8  14  25  42  65  88 107 135 176 212 242
#     4   9  16  26  44  67  85 107 142 176 203 240
#
# _framework density 15.507298
#
# number of rings (size 3 to 8) (size 9 to 14) (size 15 to 20)
#    0.000    3.333    0.000    4.000    0.000    2.667 
#    0.000    4.167    0.000    4.000    0.000    7.000 
#    0.000    0.000    0.000    0.000    0.000    0.000 
#
# Total GULP energy -594932.759740 kJ/mol
# GULP energy per Si atom -12394.432495 kJ/mol
# Density = 1.547200 g / cm^3
# Si number density = 15.507298 Si / 1000 Ang^3
#
#
#
# Elastic Constant Matrix: (Units=GPa)
#
#
# Indices 1 2 3 4 5 6 
#
# 1 114.4401 52.5866 37.9142 0.0000 0.0000 0.0000
# 2 52.5866 95.6898 38.7672 0.0000 0.0000 0.0000
# 3 37.9142 38.7672 40.3969 0.0000 0.0000 0.0000
# 4 0.0000 0.0000 0.0000 26.6833 0.0000 0.0000
# 5 0.0000 0.0000 0.0000 0.0000 22.2401 0.0000
# 6 0.0000 0.0000 0.0000 0.0000 0.0000 24.0632
#
#
#
# Elastic Compliance Matrix: (Units=1/GPa)
#
#
# Indices 1 2 3 4 5 6 
#
# 1 0.013447 -0.003725 -0.009046 0.000000 0.000000 0.000000
# 2 -0.003725 0.018130 -0.013902 0.000000 0.000000 0.000000
# 3 -0.009046 -0.013902 0.046586 0.000000 0.000000 0.000000
# 4 0.000000 0.000000 0.000000 0.037477 0.000000 0.000000
# 5 0.000000 0.000000 0.000000 0.000000 0.044964 0.000000
# 6 0.000000 0.000000 0.000000 0.000000 0.000000 0.041557
#
#
# Mechanical properties :
#
#
# Convention : Reuss Voigt Hill
#
# Bulk Modulus (GPa) = 40.29622 56.56254 48.42938
# Shear Modulus (GPa) = 18.95534 22.68124 20.81829
#
# Velocity S-wave (km/s) = 3.50000 3.82857 3.66797
# Velocity P-wave (km/s) = 6.50962 7.48985 7.01687
#
# Compressibility (1/GPa) = 0.02481622
#
# Stress axis : x y z
#
# Youngs Moduli (GPa) = 74.36767 55.15769 21.46584
#
# Poissons Ratio (x) = 0.20546 0.19417
# Poissons Ratio (y) = 0.27702 0.29843
# Poissons Ratio (z) = 0.67270 0.76682
#
# Static dielectric constant tensor:
#      x y z
#    x 3.139900 0.000000 0.000000 
#    y 0.000000 2.918890 0.000000 
#    z 0.000000 0.000000 2.615050 
# 
# 
# High freq. dielectric constant tensor:
#      x y z
#    x 1.590810 0.000000 0.000000 
#    y 0.000000 1.586410 0.000000 
#    z 0.000000 0.000000 1.563380 
# 
# From -- ./inp_files/4230.got.cif
#   From: 2010.06.25/outbox.cif.g09.slc.cpg/sg58_3_cif.got.tgz:4230.got - 2010.06.26 21:38:00.
