data_PCOD8238059
_publ_section_title
;
Structure prediction by ZEFSAII (Michael W. Deem and Ramdas Pophale) SiO2 
 PCOD8238059
Probable space group: P N N M
;
_chemical_formula_sum "Si O2"
_cell_formula_units_Z 64
_cell_length_a 15.104889
_cell_length_b 24.275081
_cell_length_c 9.093073
_cell_angle_alpha 90.000000
_cell_angle_beta 90.000000
_cell_angle_gamma 90.000000
_cell_volume 3334.178936
_symmetry_space_group_name_H-M "P N N M"
_symmetry_group_IT_number 58
_symmetry_cell_setting 'orthorhombic'
loop_
_space_group_symop_operation_xyz
x,y,z
-x,-y,z
1/2+x,1/2-y,1/2-z
1/2-x,1/2+y,1/2-z
-x,-y,-z
x,y,-z
1/2-x,1/2+y,1/2+z
1/2+x,1/2-y,1/2+z
loop_
_atom_site_type_symbol
_atom_site_label
_atom_site_fract_x
_atom_site_fract_y
_atom_site_fract_z
Si Si1 0.902469 0.755849 0.671975
Si Si2 0.239472 0.446269 0.825762
Si Si3 0.733498 0.180435 0.672986
Si Si4 0.598573 0.978928 0.834915
Si Si5 0.636797 0.872314 0.664923
Si Si6 0.341522 0.629630 0.835442
Si Si7 0.606665 0.759750 0.170459
Si Si8 0.404993 0.516705 0.175828
O O1 0.880995 0.749323 0.500000
O O2 0.854288 0.705354 0.752262
O O3 0.861883 0.812120 0.742321
O O4 0.006877 0.759342 0.702473
O O5 0.241484 0.382736 0.774901
O O6 0.157850 0.477947 0.753732
O O7 0.331119 0.473503 0.770729
O O8 0.228591 0.451586 0.000000
O O9 0.719313 0.183936 0.500000
O O10 0.823609 0.212481 0.719115
O O11 0.591012 0.919355 0.759912
O O12 0.500000 0.000000 0.839307
O O13 0.636715 0.972610 0.000000
O O14 0.597239 0.872778 0.500000
O O15 0.739601 0.885747 0.661431
O O16 0.622857 0.813068 0.733652
O O17 0.387764 0.577601 0.757183
O O18 0.380031 0.635847 0.000000
O O19 0.619842 0.774700 0.000000
O O20 0.500000 0.500000 0.238563
O O21 0.403855 0.519343 0.000000
#
# Coordination Sequence:
#
# PCOD8238059 Si02
#       8
#     8   8   8   8   8   8   8   8
#     4  10  21  37  58  82 113 153 196 236 282 343
#     4  10  21  38  58  86 118 151 192 239 288 340
#     4  10  22  38  56  83 119 153 191 240 290 337
#     4  11  25  42  60  84 115 154 195 237 293 352
#     4  11  21  38  63  87 113 147 195 247 288 341
#     4   9  17  32  55  84 110 141 186 234 280 330
#     4  10  22  38  57  85 121 157 192 238 292 344
#     4   9  17  30  55  87 114 140 180 233 284 334
#
# _framework density 19.195129999999999
#
# number of rings (size 3 to 8) (size 9 to 14) (size 15 to 20)
#    0.000    2.000    2.500    0.750    3.500    2.000 
#    0.000    0.000    0.000    0.375    0.000    0.000 
#    0.000    0.000    0.000    0.000    0.000    0.000 
#
# Total GULP energy -793516.437604 kJ/mol
# GULP energy per Si atom -12398.694338 kJ/mol
# Density = 1.915144 g / cm^3
# Si number density = 19.195130 Si / 1000 Ang^3
#
#
#
# Elastic Constant Matrix: (Units=GPa)
#
#
# Indices 1 2 3 4 5 6 
#
# 1 84.7306 30.2692 23.2069 0.0000 0.0000 0.0000
# 2 30.2692 142.7984 39.0285 0.0000 0.0000 0.0000
# 3 23.2069 39.0285 50.9828 0.0000 0.0000 0.0000
# 4 0.0000 0.0000 0.0000 26.7356 0.0000 0.0000
# 5 0.0000 0.0000 0.0000 0.0000 5.1572 0.0000
# 6 0.0000 0.0000 0.0000 0.0000 0.0000 33.9393
#
#
#
# Elastic Compliance Matrix: (Units=1/GPa)
#
#
# Indices 1 2 3 4 5 6 
#
# 1 0.013740 -0.001521 -0.005089 0.000000 0.000000 0.000000
# 2 -0.001521 0.009024 -0.006216 0.000000 0.000000 0.000000
# 3 -0.005089 -0.006216 0.026689 0.000000 0.000000 0.000000
# 4 0.000000 0.000000 0.000000 0.037403 0.000000 0.000000
# 5 0.000000 0.000000 0.000000 0.000000 0.193903 0.000000
# 6 0.000000 0.000000 0.000000 0.000000 0.000000 0.029464
#
#
# Mechanical properties :
#
#
# Convention : Reuss Voigt Hill
#
# Bulk Modulus (GPa) = 42.01673 51.50233 46.75953
# Shear Modulus (GPa) = 14.54290 25.56690 20.05490
#
# Velocity S-wave (km/s) = 2.75550 3.65354 3.23583
# Velocity P-wave (km/s) = 5.66220 6.68484 6.19466
#
# Compressibility (1/GPa) = 0.02380004
#
# Stress axis : x y z
#
# Youngs Moduli (GPa) = 72.78248 110.81317 37.46807
#
# Poissons Ratio (x) = 0.16859 0.19069
# Poissons Ratio (y) = 0.11073 0.23289
# Poissons Ratio (z) = 0.37042 0.68878
#
# Static dielectric constant tensor:
#      x y z
#    x 3.609080 0.000000 0.000000 
#    y 0.000000 3.781900 0.000000 
#    z 0.000000 0.000000 3.360520 
# 
# 
# High freq. dielectric constant tensor:
#      x y z
#    x 1.752280 0.000000 0.000000 
#    y 0.000000 1.764940 0.000000 
#    z 0.000000 0.000000 1.714440 
# 
# From -- ./inp_files/6791.got.cif
#   From: 2010.06.25/outbox.cif.g09.slc.cpg/sg58_4_cif.got.tgz:6791.got - 2010.06.26 21:38:00.
