data_PCOD8238742
_publ_section_title
;
Structure prediction by ZEFSAII (Michael W. Deem and Ramdas Pophale) SiO2 
 PCOD8238742
Probable space group: P N N M
;
_chemical_formula_sum "Si O2"
_cell_formula_units_Z 32
_cell_length_a 10.228002
_cell_length_b 5.709445
_cell_length_c 21.537742
_cell_angle_alpha 90.000000
_cell_angle_beta 90.000000
_cell_angle_gamma 90.000000
_cell_volume 1257.722610
_symmetry_space_group_name_H-M "P N N M"
_symmetry_group_IT_number 58
_symmetry_cell_setting 'orthorhombic'
loop_
_space_group_symop_operation_xyz
x,y,z
-x,-y,z
1/2+x,1/2-y,1/2-z
1/2-x,1/2+y,1/2-z
-x,-y,-z
x,y,-z
1/2-x,1/2+y,1/2+z
1/2+x,1/2-y,1/2+z
loop_
_atom_site_type_symbol
_atom_site_label
_atom_site_fract_x
_atom_site_fract_y
_atom_site_fract_z
Si Si1 0.103425 0.201168 0.929306
Si Si2 0.609124 0.687053 0.774742
Si Si3 0.639533 0.022132 0.114674
Si Si4 0.315075 0.082015 0.659602
O O1 0.252881 0.119461 0.923975
O O2 0.093739 0.437193 0.888053
O O3 0.071087 0.268017 0.000000
O O4 0.000000 0.000000 0.906747
O O5 0.500000 0.500000 0.793814
O O6 0.603611 0.913496 0.818356
O O7 0.593841 0.745584 0.701112
O O8 0.752241 0.580278 0.787307
O O9 0.500000 0.000000 0.077797
O O10 0.699162 0.282710 0.122660
#
# Coordination Sequence:
#
# PCOD8238742 Si02
#       4
#     8   8   8   8
#     4  10  26  52  73 100 145 201 265 320 374 449
#     4  11  22  41  66 104 157 186 237 302 387 473
#     4  11  23  43  70 110 147 187 243 314 389 464
#     4  11  23  43  72 109 146 201 244 312 388 463
#
# _framework density 25.442810999999999
#
# number of rings (size 3 to 8) (size 9 to 14) (size 15 to 20)
#    0.000    1.250    5.000    0.000    0.000    3.500 
#    9.000    3.750    0.000    0.750    0.000    0.000 
#    0.000    0.000    0.000    0.000    0.000    0.000 
#
# Total GULP energy -396523.707227 kJ/mol
# GULP energy per Si atom -12391.365851 kJ/mol
# Density = 2.538490 g / cm^3
# Si number density = 25.442811 Si / 1000 Ang^3
#
#
#
# Elastic Constant Matrix: (Units=GPa)
#
#
# Indices 1 2 3 4 5 6 
#
# 1 156.5724 42.1639 38.6259 0.0000 0.0000 0.0000
# 2 42.1639 130.8413 53.1702 0.0000 0.0000 0.0000
# 3 38.6259 53.1702 120.0924 0.0000 0.0000 0.0000
# 4 0.0000 0.0000 0.0000 -0.2958 0.0000 0.0000
# 5 0.0000 0.0000 0.0000 0.0000 18.9775 0.0000
# 6 0.0000 0.0000 0.0000 0.0000 0.0000 56.2971
#
#
#
# Elastic Compliance Matrix: (Units=1/GPa)
#
#
# Indices 1 2 3 4 5 6 
#
# 1 0.007231 -0.001689 -0.001578 0.000000 0.000000 0.000000
# 2 -0.001689 0.009714 -0.003758 0.000000 0.000000 0.000000
# 3 -0.001578 -0.003758 0.010498 0.000000 0.000000 0.000000
# 4 0.000000 0.000000 0.000000 -3.380896 0.000000 0.000000
# 5 0.000000 0.000000 0.000000 0.000000 0.052694 0.000000
# 6 0.000000 0.000000 0.000000 0.000000 0.000000 0.017763
#
#
# Mechanical properties :
#
#
# Convention : Reuss Voigt Hill
#
# Bulk Modulus (GPa) = 74.65985 75.04735 74.85360
# Shear Modulus (GPa) = -1.53164 33.23216 15.85026
#
# Velocity S-wave (km/s) = -0.77672 3.61799 2.49866
# Velocity P-wave (km/s) = 5.34822 6.85665 6.14887
#
# Compressibility (1/GPa) = 0.01339408
#
# Stress axis : x y z
#
# Youngs Moduli (GPa) = 138.29503 102.94300 95.25521
#
# Poissons Ratio (x) = 0.17387 0.15031
# Poissons Ratio (y) = 0.23357 0.35793
# Poissons Ratio (z) = 0.21822 0.38682
#
# Static dielectric constant tensor:
#      x y z
#    x 5.248210 0.000000 0.000000 
#    y 0.000000 4.825230 0.000000 
#    z 0.000000 0.000000 4.099390 
# 
# 
# High freq. dielectric constant tensor:
#      x y z
#    x 2.044750 0.000000 0.000000 
#    y 0.000000 2.020140 0.000000 
#    z 0.000000 0.000000 1.980750 
# 
# From -- ./inp_files/29294.got.cif
#   From: 2010.06.25/outbox.cif.g09.slc.cpg/sg58_15_cif.got.tgz:29294.got - 2010.06.26 21:38:00.
