data_PCOD8238585
_publ_section_title
;
Structure prediction by ZEFSAII (Michael W. Deem and Ramdas Pophale) SiO2 
 PCOD8238585
Probable space group: P N N M
;
_chemical_formula_sum "Si O2"
_cell_formula_units_Z 48
_cell_length_a 13.974752
_cell_length_b 18.625398
_cell_length_c 8.704123
_cell_angle_alpha 90.000000
_cell_angle_beta 90.000000
_cell_angle_gamma 90.000000
_cell_volume 2265.555423
_symmetry_space_group_name_H-M "P N N M"
_symmetry_group_IT_number 58
_symmetry_cell_setting 'orthorhombic'
loop_
_space_group_symop_operation_xyz
x,y,z
-x,-y,z
1/2+x,1/2-y,1/2-z
1/2-x,1/2+y,1/2-z
-x,-y,-z
x,y,-z
1/2-x,1/2+y,1/2+z
1/2+x,1/2-y,1/2+z
loop_
_atom_site_type_symbol
_atom_site_label
_atom_site_fract_x
_atom_site_fract_y
_atom_site_fract_z
Si Si1 0.675875 0.016627 0.821927
Si Si2 0.953096 0.901914 0.178571
Si Si3 0.167221 0.215578 0.676703
Si Si4 0.141862 0.636968 0.821737
Si Si5 0.630603 0.541935 0.820850
Si Si6 0.947831 0.648360 0.324847
O O1 0.759977 0.053291 0.724529
O O2 0.583408 0.066394 0.791256
O O3 0.656364 0.935405 0.773995
O O4 0.704978 0.017489 0.000000
O O5 0.906612 0.825857 0.214430
O O6 0.064478 0.901845 0.227733
O O7 0.897401 0.960785 0.278308
O O8 0.943415 0.920650 0.000000
O O9 0.148425 0.194273 0.500000
O O10 0.276714 0.195817 0.721193
O O11 0.143164 0.299298 0.706086
O O12 0.038211 0.669588 0.780736
O O13 0.146486 0.617050 0.000000
O O14 0.615876 0.555162 0.000000
O O15 0.982267 0.656051 0.500000
#
# Coordination Sequence:
#
# PCOD8238585 Si02
#       6
#     8   8   8   8   8   8
#     4  11  22  39  63  92 125 165 211 259 309 370
#     4  11  21  35  58  89 122 160 205 252 301 369
#     4  10  22  42  63  87 123 166 205 253 316 373
#     4  11  23  40  65  92 122 162 208 258 312 373
#     4  11  21  35  58  89 124 161 201 254 308 362
#     4  10  24  43  63  89 125 164 206 257 312 370
#
# _framework density 21.186857
#
# number of rings (size 3 to 8) (size 9 to 14) (size 15 to 20)
#    0.000    1.333    1.667    5.500    0.000    6.000 
#    0.000    1.667    0.000    0.000    0.000    0.000 
#    0.000    0.000    0.000    0.000    0.000    0.000 
#
# Total GULP energy -595294.008897 kJ/mol
# GULP energy per Si atom -12401.958519 kJ/mol
# Density = 2.113863 g / cm^3
# Si number density = 21.186857 Si / 1000 Ang^3
#
#
#
# Elastic Constant Matrix: (Units=GPa)
#
#
# Indices 1 2 3 4 5 6 
#
# 1 124.6835 44.5597 33.8281 0.0000 0.0000 0.0000
# 2 44.5597 81.8611 26.7782 0.0000 0.0000 0.0000
# 3 33.8281 26.7782 87.6176 0.0000 0.0000 0.0000
# 4 0.0000 0.0000 0.0000 25.3456 0.0000 0.0000
# 5 0.0000 0.0000 0.0000 0.0000 38.8386 0.0000
# 6 0.0000 0.0000 0.0000 0.0000 0.0000 29.8389
#
#
#
# Elastic Compliance Matrix: (Units=1/GPa)
#
#
# Indices 1 2 3 4 5 6 
#
# 1 0.010446 -0.004852 -0.002550 0.000000 0.000000 0.000000
# 2 -0.004852 0.015826 -0.002964 0.000000 0.000000 0.000000
# 3 -0.002550 -0.002964 0.013304 0.000000 0.000000 0.000000
# 4 0.000000 0.000000 0.000000 0.039455 0.000000 0.000000
# 5 0.000000 0.000000 0.000000 0.000000 0.025748 0.000000
# 6 0.000000 0.000000 0.000000 0.000000 0.000000 0.033513
#
#
# Mechanical properties :
#
#
# Convention : Reuss Voigt Hill
#
# Bulk Modulus (GPa) = 53.06613 56.05491 54.56052
# Shear Modulus (GPa) = 30.24710 31.40436 30.82573
#
# Velocity S-wave (km/s) = 3.78250 3.85419 3.81851
# Velocity P-wave (km/s) = 6.64662 6.80596 6.72676
#
# Compressibility (1/GPa) = 0.01884441
#
# Stress axis : x y z
#
# Youngs Moduli (GPa) = 95.72821 63.18562 75.16742
#
# Poissons Ratio (x) = 0.30658 0.19170
# Poissons Ratio (y) = 0.46447 0.22277
# Poissons Ratio (z) = 0.24413 0.18726
#
# Static dielectric constant tensor:
#      x y z
#    x 4.036410 0.000000 0.000000 
#    y 0.000000 3.660010 0.000000 
#    z 0.000000 0.000000 3.789900 
# 
# 
# High freq. dielectric constant tensor:
#      x y z
#    x 1.838740 0.000000 0.000000 
#    y 0.000000 1.813700 0.000000 
#    z 0.000000 0.000000 1.832000 
# 
# From -- ./inp_files/5824.got.cif
#   From: 2010.06.25/outbox.cif.g09.slc.cpg/sg58_3_cif.got.tgz:5824.got - 2010.06.26 21:38:00.
