data_PCOD8238738
_publ_section_title
;
Structure prediction by ZEFSAII (Michael W. Deem and Ramdas Pophale) SiO2 
 PCOD8238738
Probable space group: P N N M
;
_chemical_formula_sum "Si O2"
_cell_formula_units_Z 40
_cell_length_a 5.442887
_cell_length_b 11.609336
_cell_length_c 28.806617
_cell_angle_alpha 90.000000
_cell_angle_beta 90.000000
_cell_angle_gamma 90.000000
_cell_volume 1820.241272
_symmetry_space_group_name_H-M "P N N M"
_symmetry_group_IT_number 58
_symmetry_cell_setting 'orthorhombic'
loop_
_space_group_symop_operation_xyz
x,y,z
-x,-y,z
1/2+x,1/2-y,1/2-z
1/2-x,1/2+y,1/2-z
-x,-y,-z
x,y,-z
1/2-x,1/2+y,1/2+z
1/2+x,1/2-y,1/2+z
loop_
_atom_site_type_symbol
_atom_site_label
_atom_site_fract_x
_atom_site_fract_y
_atom_site_fract_z
Si Si1 0.000000 0.000000 0.325491
Si Si2 0.418615 0.721868 0.223382
Si Si3 0.105435 0.384256 0.107429
Si Si4 0.500000 0.500000 0.595963
Si Si5 0.272855 0.796871 0.868714
Si Si6 0.660763 0.814515 0.053516
O O1 0.820503 0.078895 0.357172
O O2 0.132930 0.089307 0.290901
O O3 0.677277 0.734877 0.249527
O O4 0.447477 0.798356 0.176250
O O5 0.182631 0.298600 0.066322
O O6 0.000000 0.500000 0.083830
O O7 0.888129 0.320175 0.135504
O O8 0.607821 0.590251 0.632424
O O9 0.696667 0.433932 0.563489
O O10 0.413518 0.805390 0.917290
O O11 0.587212 0.810721 0.000000
#
# Coordination Sequence:
#
# PCOD8238738 Si02
#       6
#     4   8   8   4   8   8
#     4  12  24  49  73 101 148 195 229 309 378 440
#     4  12  28  47  75 111 144 194 253 303 369 444
#     4  11  21  42  75  99 139 194 231 294 378 432
#     4  10  25  43  70  99 146 189 240 301 377 424
#     4  11  24  45  69 101 147 185 240 305 364 439
#     4  11  24  44  71 104 141 189 245 297 367 448
#
# _framework density 21.975107000000001
#
# number of rings (size 3 to 8) (size 9 to 14) (size 15 to 20)
#    0.000    0.800    4.000    2.100    2.800    6.000 
#    3.600    3.500    0.000    0.000    0.000    0.000 
#    0.000    0.000    0.000    0.000    0.000    0.000 
#
# Total GULP energy -495826.078338 kJ/mol
# GULP energy per Si atom -12395.651958 kJ/mol
# Density = 2.192509 g / cm^3
# Si number density = 21.975107 Si / 1000 Ang^3
#
#
#
# Elastic Constant Matrix: (Units=GPa)
#
#
# Indices 1 2 3 4 5 6 
#
# 1 114.3932 38.6937 42.2820 0.0000 0.0000 0.0000
# 2 38.6937 138.4499 47.3324 0.0000 0.0000 0.0000
# 3 42.2820 47.3324 132.4546 0.0000 0.0000 0.0000
# 4 0.0000 0.0000 0.0000 13.6583 0.0000 0.0000
# 5 0.0000 0.0000 0.0000 0.0000 33.7078 0.0000
# 6 0.0000 0.0000 0.0000 0.0000 0.0000 35.8233
#
#
#
# Elastic Compliance Matrix: (Units=1/GPa)
#
#
# Indices 1 2 3 4 5 6 
#
# 1 0.010382 -0.002015 -0.002594 0.000000 0.000000 0.000000
# 2 -0.002015 0.008619 -0.002437 0.000000 0.000000 0.000000
# 3 -0.002594 -0.002437 0.009249 0.000000 0.000000 0.000000
# 4 0.000000 0.000000 0.000000 0.073216 0.000000 0.000000
# 5 0.000000 0.000000 0.000000 0.000000 0.029667 0.000000
# 6 0.000000 0.000000 0.000000 0.000000 0.000000 0.027915
#
#
# Mechanical properties :
#
#
# Convention : Reuss Voigt Hill
#
# Bulk Modulus (GPa) = 70.63005 71.32375 70.97690
# Shear Modulus (GPa) = 28.11232 33.77052 30.94142
#
# Velocity S-wave (km/s) = 3.58058 3.92441 3.75643
# Velocity P-wave (km/s) = 7.02174 7.28435 7.15425
#
# Compressibility (1/GPa) = 0.01415828
#
# Stress axis : x y z
#
# Youngs Moduli (GPa) = 96.31939 116.02292 108.12343
#
# Poissons Ratio (x) = 0.23375 0.28050
# Poissons Ratio (y) = 0.19405 0.26348
# Poissons Ratio (z) = 0.24987 0.28273
#
# Static dielectric constant tensor:
#      x y z
#    x 4.086060 0.000000 0.000000 
#    y 0.000000 4.354090 0.000000 
#    z 0.000000 0.000000 3.711920 
# 
# 
# High freq. dielectric constant tensor:
#      x y z
#    x 1.872080 0.000000 0.000000 
#    y 0.000000 1.887360 0.000000 
#    z 0.000000 0.000000 1.847070 
# 
# From -- ./inp_files/32695.got.cif
#   From: 2010.06.25/outbox.cif.g09.slc.cpg/sg58_17_cif.got.tgz:32695.got - 2010.06.26 21:38:00.
