data_PCOD8238233
_publ_section_title
;
Structure prediction by ZEFSAII (Michael W. Deem and Ramdas Pophale) SiO2 
 PCOD8238233
Probable space group: P N N M
;
_chemical_formula_sum "Si O2"
_cell_formula_units_Z 48
_cell_length_a 9.218892
_cell_length_b 15.781650
_cell_length_c 15.572996
_cell_angle_alpha 90.000000
_cell_angle_beta 90.000000
_cell_angle_gamma 90.000000
_cell_volume 2265.704706
_symmetry_space_group_name_H-M "P N N M"
_symmetry_group_IT_number 58
_symmetry_cell_setting 'orthorhombic'
loop_
_space_group_symop_operation_xyz
x,y,z
-x,-y,z
1/2+x,1/2-y,1/2-z
1/2-x,1/2+y,1/2-z
-x,-y,-z
x,y,-z
1/2-x,1/2+y,1/2+z
1/2+x,1/2-y,1/2+z
loop_
_atom_site_type_symbol
_atom_site_label
_atom_site_fract_x
_atom_site_fract_y
_atom_site_fract_z
Si Si1 0.495953 0.254071 0.350906
Si Si2 0.275819 0.330606 0.224288
Si Si3 0.383178 0.570812 0.403197
Si Si4 0.506105 0.594709 0.902732
Si Si5 0.338205 0.007849 0.229705
Si Si6 0.816528 0.395270 0.094425
O O1 0.367170 0.270708 0.285130
O O2 0.633190 0.219177 0.300685
O O3 0.539830 0.337836 0.402489
O O4 0.430407 0.181710 0.412073
O O5 0.373622 0.348482 0.141587
O O6 0.236831 0.416884 0.272854
O O7 0.500000 0.500000 0.377350
O O8 0.324261 0.554716 0.500000
O O9 0.252812 0.569155 0.333745
O O10 0.500000 0.500000 0.861371
O O11 0.348439 0.638143 0.892613
O O12 0.558217 0.587162 0.000000
O O13 0.352286 0.041541 0.327581
O O14 0.500000 0.000000 0.191870
O O15 0.824782 0.441338 0.000000
#
# Coordination Sequence:
#
# PCOD8238233 Si02
#       6
#     8   8   8   8   8   8
#     4  12  25  43  67  99 137 176 225 286 336 398
#     4  12  24  40  69  98 136 179 226 277 338 401
#     4  11  25  47  73  94 126 183 235 275 333 400
#     4  10  21  38  63  96 136 179 219 266 332 402
#     4  12  24  44  69 102 135 179 222 279 339 404
#     4  11  24  43  67 102 142 176 220 274 341 412
#
# _framework density 21.185462000000001
#
# number of rings (size 3 to 8) (size 9 to 14) (size 15 to 20)
#    0.000    0.667    5.000    3.500    0.000    2.000 
#    0.000    0.000    0.000    0.000    0.000    0.000 
#    0.000    0.000    0.000    0.000    0.000    0.000 
#
# Total GULP energy -595215.402227 kJ/mol
# GULP energy per Si atom -12400.320880 kJ/mol
# Density = 2.113724 g / cm^3
# Si number density = 21.185462 Si / 1000 Ang^3
#
#
#
# Elastic Constant Matrix: (Units=GPa)
#
#
# Indices 1 2 3 4 5 6 
#
# 1 131.8421 28.9521 47.3510 0.0000 0.0000 0.0000
# 2 28.9521 70.4901 19.9460 0.0000 0.0000 0.0000
# 3 47.3510 19.9460 106.4360 0.0000 0.0000 0.0000
# 4 0.0000 0.0000 0.0000 13.9840 0.0000 0.0000
# 5 0.0000 0.0000 0.0000 0.0000 31.6575 0.0000
# 6 0.0000 0.0000 0.0000 0.0000 0.0000 46.9873
#
#
#
# Elastic Compliance Matrix: (Units=1/GPa)
#
#
# Indices 1 2 3 4 5 6 
#
# 1 0.009548 -0.002872 -0.003709 0.000000 0.000000 0.000000
# 2 -0.002872 0.015845 -0.001692 0.000000 0.000000 0.000000
# 3 -0.003709 -0.001692 0.011363 0.000000 0.000000 0.000000
# 4 0.000000 0.000000 0.000000 0.071510 0.000000 0.000000
# 5 0.000000 0.000000 0.000000 0.000000 0.031588 0.000000
# 6 0.000000 0.000000 0.000000 0.000000 0.000000 0.021282
#
#
# Mechanical properties :
#
#
# Convention : Reuss Voigt Hill
#
# Bulk Modulus (GPa) = 49.48267 55.69627 52.58947
# Shear Modulus (GPa) = 27.11239 32.69370 29.90304
#
# Velocity S-wave (km/s) = 3.58126 3.93264 3.76105
# Velocity P-wave (km/s) = 6.36460 6.85330 6.61347
#
# Compressibility (1/GPa) = 0.02020910
#
# Stress axis : x y z
#
# Youngs Moduli (GPa) = 104.73726 63.11296 88.00841
#
# Poissons Ratio (x) = 0.18125 0.32646
# Poissons Ratio (y) = 0.30079 0.14888
# Poissons Ratio (z) = 0.38851 0.10676
#
# Static dielectric constant tensor:
#      x y z
#    x 4.012880 0.000000 0.000000 
#    y 0.000000 4.081560 0.000000 
#    z 0.000000 0.000000 3.730820 
# 
# 
# High freq. dielectric constant tensor:
#      x y z
#    x 1.845650 0.000000 0.000000 
#    y 0.000000 1.823380 0.000000 
#    z 0.000000 0.000000 1.827290 
# 
# From -- ./inp_files/19805.got.cif
#   From: 2010.06.25/outbox.cif.g09.slc.cpg/sg58_10_cif.got.tgz:19805.got - 2010.06.26 21:38:00.
