data_PCOD8238729
_publ_section_title
;
Structure prediction by ZEFSAII (Michael W. Deem and Ramdas Pophale) SiO2 
 PCOD8238729
Probable space group: P N N M
;
_chemical_formula_sum "Si O2"
_cell_formula_units_Z 24
_cell_length_a 8.791095
_cell_length_b 5.105550
_cell_length_c 22.808821
_cell_angle_alpha 90.000000
_cell_angle_beta 90.000000
_cell_angle_gamma 90.000000
_cell_volume 1023.736868
_symmetry_space_group_name_H-M "P N N M"
_symmetry_group_IT_number 58
_symmetry_cell_setting 'orthorhombic'
loop_
_space_group_symop_operation_xyz
x,y,z
-x,-y,z
1/2+x,1/2-y,1/2-z
1/2-x,1/2+y,1/2-z
-x,-y,-z
x,y,-z
1/2-x,1/2+y,1/2+z
1/2+x,1/2-y,1/2+z
loop_
_atom_site_type_symbol
_atom_site_label
_atom_site_fract_x
_atom_site_fract_y
_atom_site_fract_z
Si Si1 0.331179 0.564624 0.157201
Si Si2 0.602483 0.252750 0.283054
Si Si3 0.898998 0.243702 0.066678
O O1 0.500000 0.500000 0.134885
O O2 0.333915 0.734804 0.217000
O O3 0.244803 0.290351 0.172660
O O4 0.249990 0.732358 0.106842
O O5 0.500000 0.500000 0.300805
O O6 0.500000 0.000000 0.291538
O O7 0.000000 0.500000 0.073272
O O8 0.843527 0.202078 0.000000
O O9 0.000000 0.000000 0.088037
#
# Coordination Sequence:
#
# PCOD8238729 Si02
#       3
#     8   8   8
#     4  11  24  41  68 102 135 170 221 279 329 382
#     4  11  25  43  63  96 143 184 215 258 331 410
#     4  10  24  46  69  93 127 176 225 268 327 399
#
# _framework density 23.443525000000001
#
# number of rings (size 3 to 8) (size 9 to 14) (size 15 to 20)
#    0.000    1.333    0.000    5.000    0.000   18.000 
#    0.000    0.000    0.000    7.000    0.000    0.000 
#    0.000    0.000    0.000    0.000    0.000    0.000 
#
# Total GULP energy -297644.311320 kJ/mol
# GULP energy per Si atom -12401.846305 kJ/mol
# Density = 2.339017 g / cm^3
# Si number density = 23.443525 Si / 1000 Ang^3
#
#
#
# Elastic Constant Matrix: (Units=GPa)
#
#
# Indices 1 2 3 4 5 6 
#
# 1 205.3995 82.6200 95.1680 0.0000 0.0000 0.0000
# 2 82.6200 161.6026 32.9350 0.0000 0.0000 0.0000
# 3 95.1680 32.9350 141.5726 0.0000 0.0000 0.0000
# 4 0.0000 0.0000 0.0000 47.2524 0.0000 0.0000
# 5 0.0000 0.0000 0.0000 0.0000 70.8047 0.0000
# 6 0.0000 0.0000 0.0000 0.0000 0.0000 22.0617
#
#
#
# Elastic Compliance Matrix: (Units=1/GPa)
#
#
# Indices 1 2 3 4 5 6 
#
# 1 0.008499 -0.003339 -0.004936 0.000000 0.000000 0.000000
# 2 -0.003339 0.007808 0.000428 0.000000 0.000000 0.000000
# 3 -0.004936 0.000428 0.010282 0.000000 0.000000 0.000000
# 4 0.000000 0.000000 0.000000 0.021163 0.000000 0.000000
# 5 0.000000 0.000000 0.000000 0.000000 0.014123 0.000000
# 6 0.000000 0.000000 0.000000 0.000000 0.000000 0.045328
#
#
# Mechanical properties :
#
#
# Convention : Reuss Voigt Hill
#
# Bulk Modulus (GPa) = 91.78909 103.33563 97.56236
# Shear Modulus (GPa) = 39.51682 47.88052 43.69867
#
# Velocity S-wave (km/s) = 4.11008 4.52417 4.32209
# Velocity P-wave (km/s) = 7.85888 8.45370 8.16171
#
# Compressibility (1/GPa) = 0.01089454
#
# Stress axis : x y z
#
# Youngs Moduli (GPa) = 117.66394 128.07633 97.25567
#
# Poissons Ratio (x) = 0.42765 0.48008
# Poissons Ratio (y) = 0.39288 -0.04164
# Poissons Ratio (z) = 0.58082 -0.05484
#
# Static dielectric constant tensor:
#      x y z
#    x 6.114120 0.000000 0.000000 
#    y 0.000000 3.802780 0.000000 
#    z 0.000000 0.000000 4.504820 
# 
# 
# High freq. dielectric constant tensor:
#      x y z
#    x 1.933410 0.000000 0.000000 
#    y 0.000000 1.935450 0.000000 
#    z 0.000000 0.000000 1.926040 
# 
# From -- ./inp_files/31155.got.cif
#   From: 2010.06.25/outbox.cif.g09.slc.cpg/sg58_16_cif.got.tgz:31155.got - 2010.06.26 21:38:00.
