data_PCOD8238443
_publ_section_title
;
Structure prediction by ZEFSAII (Michael W. Deem and Ramdas Pophale) SiO2 
 PCOD8238443
Probable space group: P N N M
;
_chemical_formula_sum "Si O2"
_cell_formula_units_Z 48
_cell_length_a 22.207797
_cell_length_b 11.600298
_cell_length_c 9.775701
_cell_angle_alpha 90.000000
_cell_angle_beta 90.000000
_cell_angle_gamma 90.000000
_cell_volume 2518.387382
_symmetry_space_group_name_H-M "P N N M"
_symmetry_group_IT_number 58
_symmetry_cell_setting 'orthorhombic'
loop_
_space_group_symop_operation_xyz
x,y,z
-x,-y,z
1/2+x,1/2-y,1/2-z
1/2-x,1/2+y,1/2-z
-x,-y,-z
x,y,-z
1/2-x,1/2+y,1/2+z
1/2+x,1/2-y,1/2+z
loop_
_atom_site_type_symbol
_atom_site_label
_atom_site_fract_x
_atom_site_fract_y
_atom_site_fract_z
Si Si1 0.452135 0.910382 0.848013
Si Si2 0.430001 0.488410 0.658147
Si Si3 0.645158 0.680893 0.158980
Si Si4 0.892906 0.757712 0.157219
Si Si5 0.721172 0.105585 0.342509
Si Si6 0.663834 0.937005 0.150476
O O1 0.445166 0.801634 0.747993
O O2 0.500000 0.000000 0.785243
O O3 0.388900 0.972118 0.859590
O O4 0.473161 0.869190 0.000000
O O5 0.500000 0.500000 0.696654
O O6 0.422781 0.452864 0.500000
O O7 0.401627 0.389582 0.750891
O O8 0.394207 0.606663 0.689461
O O9 0.713545 0.651119 0.196819
O O10 0.637004 0.814849 0.198167
O O11 0.631176 0.656660 0.000000
O O12 0.826957 0.706618 0.192237
O O13 0.910085 0.734345 0.000000
O O14 0.716051 0.069984 0.500000
O O15 0.711769 0.988228 0.256862
O O16 0.694465 0.921924 0.000000
#
# Coordination Sequence:
#
# PCOD8238443 Si02
#       6
#     8   8   8   8   8   8
#     4   9  18  32  53  80 107 137 177 224 270 322
#     4  10  23  40  57  82 114 151 193 229 274 336
#     4  10  22  37  57  83 110 144 184 228 278 335
#     4   9  19  36  56  77 107 145 180 225 276 325
#     4   9  19  36  56  81 108 138 181 227 276 332
#     4   9  19  35  54  79 109 141 179 223 276 328
#
# _framework density 19.059816000000001
#
# number of rings (size 3 to 8) (size 9 to 14) (size 15 to 20)
#    0.000    2.667    0.000    0.000    4.667    2.667 
#    0.000    0.000    0.000    0.000    0.000    0.000 
#    0.000    0.000    0.000    0.000    0.000    0.000 
#
# Total GULP energy -595145.412223 kJ/mol
# GULP energy per Si atom -12398.862755 kJ/mol
# Density = 1.901643 g / cm^3
# Si number density = 19.059816 Si / 1000 Ang^3
#
#
#
# Elastic Constant Matrix: (Units=GPa)
#
#
# Indices 1 2 3 4 5 6 
#
# 1 62.0258 23.1203 32.7965 0.0000 0.0000 0.0000
# 2 23.1203 108.1589 54.6595 0.0000 0.0000 0.0000
# 3 32.7965 54.6595 71.0706 0.0000 0.0000 0.0000
# 4 0.0000 0.0000 0.0000 31.6608 0.0000 0.0000
# 5 0.0000 0.0000 0.0000 0.0000 27.2886 0.0000
# 6 0.0000 0.0000 0.0000 0.0000 0.0000 16.1471
#
#
#
# Elastic Compliance Matrix: (Units=1/GPa)
#
#
# Indices 1 2 3 4 5 6 
#
# 1 0.021356 0.000679 -0.010378 0.000000 0.000000 0.000000
# 2 0.000679 0.015145 -0.011962 0.000000 0.000000 0.000000
# 3 -0.010378 -0.011962 0.028059 0.000000 0.000000 0.000000
# 4 0.000000 0.000000 0.000000 0.031585 0.000000 0.000000
# 5 0.000000 0.000000 0.000000 0.000000 0.036645 0.000000
# 6 0.000000 0.000000 0.000000 0.000000 0.000000 0.061931
#
#
# Mechanical properties :
#
#
# Convention : Reuss Voigt Hill
#
# Bulk Modulus (GPa) = 47.07920 51.37868 49.22894
# Shear Modulus (GPa) = 20.39805 23.73124 22.06464
#
# Velocity S-wave (km/s) = 3.27496 3.53242 3.40612
# Velocity P-wave (km/s) = 6.24939 6.60699 6.43068
#
# Compressibility (1/GPa) = 0.02124080
#
# Stress axis : x y z
#
# Youngs Moduli (GPa) = 46.82450 66.02664 35.63926
#
# Poissons Ratio (x) = -0.04485 0.36985
# Poissons Ratio (y) = -0.03181 0.42630
# Poissons Ratio (z) = 0.48593 0.78978
#
# Static dielectric constant tensor:
#      x y z
#    x 3.409190 0.000000 0.000000 
#    y 0.000000 3.522640 0.000000 
#    z 0.000000 0.000000 3.741330 
# 
# 
# High freq. dielectric constant tensor:
#      x y z
#    x 1.736420 0.000000 0.000000 
#    y 0.000000 1.740780 0.000000 
#    z 0.000000 0.000000 1.736980 
# 
# From -- ./inp_files/4223.got.cif
#   From: 2010.06.25/outbox.cif.g09.slc.cpg/sg58_3_cif.got.tgz:4223.got - 2010.06.26 21:38:00.
