data_PCOD8238617
_publ_section_title
;
Structure prediction by ZEFSAII (Michael W. Deem and Ramdas Pophale) SiO2 
 PCOD8238617
Probable space group: P N N M
;
_chemical_formula_sum "Si O2"
_cell_formula_units_Z 64
_cell_length_a 13.844750
_cell_length_b 12.076685
_cell_length_c 17.666288
_cell_angle_alpha 90.000000
_cell_angle_beta 90.000000
_cell_angle_gamma 90.000000
_cell_volume 2953.780116
_symmetry_space_group_name_H-M "P N N M"
_symmetry_group_IT_number 58
_symmetry_cell_setting 'orthorhombic'
loop_
_space_group_symop_operation_xyz
x,y,z
-x,-y,z
1/2+x,1/2-y,1/2-z
1/2-x,1/2+y,1/2-z
-x,-y,-z
x,y,-z
1/2-x,1/2+y,1/2+z
1/2+x,1/2-y,1/2+z
loop_
_atom_site_type_symbol
_atom_site_label
_atom_site_fract_x
_atom_site_fract_y
_atom_site_fract_z
Si Si1 0.366818 0.801401 0.178333
Si Si2 0.332186 0.372788 0.291587
Si Si3 0.016656 0.250912 0.182014
Si Si4 0.411563 0.075860 0.417458
Si Si5 0.800400 0.787767 0.086868
Si Si6 0.739601 0.552583 0.861119
Si Si7 0.422518 0.586919 0.085004
Si Si8 0.273366 0.978573 0.087000
O O1 0.254555 0.778379 0.204950
O O2 0.433343 0.823908 0.251904
O O3 0.411529 0.697254 0.134643
O O4 0.364280 0.914308 0.126916
O O5 0.441918 0.334295 0.279119
O O6 0.305201 0.455070 0.222722
O O7 0.325322 0.439658 0.370991
O O8 0.945855 0.316807 0.126879
O O9 0.102143 0.191788 0.135267
O O10 0.365475 0.108716 0.500000
O O11 0.500000 0.000000 0.437046
O O12 0.344324 0.002764 0.362977
O O13 0.742670 0.679309 0.112029
O O14 0.723603 0.888402 0.096030
O O15 0.833599 0.775959 0.000000
O O16 0.677207 0.479632 0.918537
O O17 0.500000 0.500000 0.119619
O O18 0.452193 0.622588 0.000000
O O19 0.269585 0.941920 0.000000
#
# Coordination Sequence:
#
# PCOD8238617 Si02
#       8
#     8   8   8   8   8   8   8   8
#     4  10  22  44  63  94 134 172 219 274 327 403
#     4  10  24  40  65  93 129 177 214 270 333 400
#     4  12  23  41  65 103 133 171 219 277 338 399
#     4  11  22  38  64  99 136 170 212 273 345 405
#     4  11  22  40  66  95 134 171 218 275 337 404
#     4  12  23  43  64 100 135 172 219 277 343 399
#     4  11  24  41  68  96 126 172 226 285 340 396
#     4   9  22  42  65  92 129 180 222 263 324 402
#
# _framework density 21.667149999999999
#
# number of rings (size 3 to 8) (size 9 to 14) (size 15 to 20)
#    0.750    0.500    2.500    3.375    1.750    2.500 
#    0.000    1.250    0.000    0.000    0.000    7.000 
#    0.000    0.000    0.000    0.000    0.000    0.000 
#
# Total GULP energy -792938.556358 kJ/mol
# GULP energy per Si atom -12389.664943 kJ/mol
# Density = 2.161783 g / cm^3
# Si number density = 21.667150 Si / 1000 Ang^3
#
#
#
# Elastic Constant Matrix: (Units=GPa)
#
#
# Indices 1 2 3 4 5 6 
#
# 1 52.8265 30.7876 39.6332 0.0000 0.0000 0.0000
# 2 30.7876 102.7593 45.1994 0.0000 0.0000 0.0000
# 3 39.6332 45.1994 145.0949 0.0000 0.0000 0.0000
# 4 0.0000 0.0000 0.0000 31.2634 0.0000 0.0000
# 5 0.0000 0.0000 0.0000 0.0000 28.4100 0.0000
# 6 0.0000 0.0000 0.0000 0.0000 0.0000 34.6399
#
#
#
# Elastic Compliance Matrix: (Units=1/GPa)
#
#
# Indices 1 2 3 4 5 6 
#
# 1 0.026202 -0.005449 -0.005460 0.000000 0.000000 0.000000
# 2 -0.005449 0.012410 -0.002377 0.000000 0.000000 0.000000
# 3 -0.005460 -0.002377 0.009124 0.000000 0.000000 0.000000
# 4 0.000000 0.000000 0.000000 0.031986 0.000000 0.000000
# 5 0.000000 0.000000 0.000000 0.000000 0.035199 0.000000
# 6 0.000000 0.000000 0.000000 0.000000 0.000000 0.028868
#
#
# Mechanical properties :
#
#
# Convention : Reuss Voigt Hill
#
# Bulk Modulus (GPa) = 47.25123 59.10236 53.17680
# Shear Modulus (GPa) = 28.18245 31.20000 29.69123
#
# Velocity S-wave (km/s) = 3.61043 3.79881 3.70582
# Velocity P-wave (km/s) = 6.26382 6.82480 6.55032
#
# Compressibility (1/GPa) = 0.02116347
#
# Stress axis : x y z
#
# Youngs Moduli (GPa) = 38.16562 80.58189 109.60098
#
# Poissons Ratio (x) = 0.43907 0.59839
# Poissons Ratio (y) = 0.20796 0.26058
# Poissons Ratio (z) = 0.20837 0.19158
#
# Static dielectric constant tensor:
#      x y z
#    x 3.856370 0.000000 0.000000 
#    y 0.000000 3.723870 0.000000 
#    z 0.000000 0.000000 4.033820 
# 
# 
# High freq. dielectric constant tensor:
#      x y z
#    x 1.835350 0.000000 0.000000 
#    y 0.000000 1.834640 0.000000 
#    z 0.000000 0.000000 1.868980 
# 
# From -- ./inp_files/27002.got.cif
#   From: 2010.06.25/outbox.cif.g09.slc.cpg/sg58_14_cif.got.tgz:27002.got - 2010.06.26 21:38:00.
