data_PCOD8238903
_publ_section_title
;
Structure prediction by ZEFSAII (Michael W. Deem and Ramdas Pophale) SiO2 
 PCOD8238903
Probable space group: P N N M
;
_chemical_formula_sum "Si O2"
_cell_formula_units_Z 32
_cell_length_a 8.187438
_cell_length_b 4.913370
_cell_length_c 36.176974
_cell_angle_alpha 90.000000
_cell_angle_beta 90.000000
_cell_angle_gamma 90.000000
_cell_volume 1455.324135
_symmetry_space_group_name_H-M "P N N M"
_symmetry_group_IT_number 58
_symmetry_cell_setting 'orthorhombic'
loop_
_space_group_symop_operation_xyz
x,y,z
-x,-y,z
1/2+x,1/2-y,1/2-z
1/2-x,1/2+y,1/2-z
-x,-y,-z
x,y,-z
1/2-x,1/2+y,1/2+z
1/2+x,1/2-y,1/2+z
loop_
_atom_site_type_symbol
_atom_site_label
_atom_site_fract_x
_atom_site_fract_y
_atom_site_fract_z
Si Si1 0.315904 0.903709 0.042367
Si Si2 0.316515 0.897417 0.582499
Si Si3 0.888952 0.257437 0.651193
Si Si4 0.674147 0.879684 0.232861
O O1 0.298331 0.631080 0.066039
O O2 0.500000 0.000000 0.047647
O O3 0.190759 0.135159 0.056004
O O4 0.275117 0.835789 0.000000
O O5 0.253677 0.817247 0.622922
O O6 0.500000 0.000000 0.585587
O O7 0.804412 0.359116 0.688740
O O8 0.000000 0.500000 0.634165
O O9 0.000000 0.000000 0.660748
O O10 0.689222 0.584996 0.251686
O O11 0.500000 0.000000 0.244165
#
# Coordination Sequence:
#
# PCOD8238903 Si02
#       4
#     8   8   8   8
#     4  11  24  43  67  93 126 172 217 256 311 386
#     4  12  25  41  65  97 130 164 210 270 324 365
#     4  11  23  43  67  91 126 173 216 253 309 385
#     4  11  23  42  67  96 128 166 211 261 316 375
#
# _framework density 21.988226999999998
#
# number of rings (size 3 to 8) (size 9 to 14) (size 15 to 20)
#    0.000    0.750    0.000    9.750    0.000    6.000 
#    0.000    7.500    0.000    0.000    0.000    0.000 
#    0.000    0.000    0.000    0.000    0.000    0.000 
#
# Total GULP energy -397077.191496 kJ/mol
# GULP energy per Si atom -12408.662234 kJ/mol
# Density = 2.193818 g / cm^3
# Si number density = 21.988227 Si / 1000 Ang^3
#
#
#
# Elastic Constant Matrix: (Units=GPa)
#
#
# Indices 1 2 3 4 5 6 
#
# 1 83.3776 15.2252 57.2277 0.0000 0.0000 0.0000
# 2 15.2252 118.4144 38.5092 0.0000 0.0000 0.0000
# 3 57.2277 38.5092 131.2180 0.0000 0.0000 0.0000
# 4 0.0000 0.0000 0.0000 62.9808 0.0000 0.0000
# 5 0.0000 0.0000 0.0000 0.0000 22.6886 0.0000
# 6 0.0000 0.0000 0.0000 0.0000 0.0000 48.3543
#
#
#
# Elastic Compliance Matrix: (Units=1/GPa)
#
#
# Indices 1 2 3 4 5 6 
#
# 1 0.017124 0.000251 -0.007542 0.000000 0.000000 0.000000
# 2 0.000251 0.009340 -0.002850 0.000000 0.000000 0.000000
# 3 -0.007542 -0.002850 0.011747 0.000000 0.000000 0.000000
# 4 0.000000 0.000000 0.000000 0.015878 0.000000 0.000000
# 5 0.000000 0.000000 0.000000 0.000000 0.044075 0.000000
# 6 0.000000 0.000000 0.000000 0.000000 0.000000 0.020681
#
#
# Mechanical properties :
#
#
# Convention : Reuss Voigt Hill
#
# Bulk Modulus (GPa) = 55.77943 61.65935 58.71939
# Shear Modulus (GPa) = 34.45824 41.60793 38.03309
#
# Velocity S-wave (km/s) = 3.96298 4.35476 4.16348
# Velocity P-wave (km/s) = 6.80906 7.30671 7.06227
#
# Compressibility (1/GPa) = 0.01792776
#
# Stress axis : x y z
#
# Youngs Moduli (GPa) = 58.39609 107.07076 85.13010
#
# Poissons Ratio (x) = -0.02687 0.64206
# Poissons Ratio (y) = -0.01465 0.24265
# Poissons Ratio (z) = 0.44043 0.30519
#
# Static dielectric constant tensor:
#      x y z
#    x 3.756000 0.000000 0.000000 
#    y 0.000000 4.364220 0.000000 
#    z 0.000000 0.000000 4.002240 
# 
# 
# High freq. dielectric constant tensor:
#      x y z
#    x 1.855130 0.000000 0.000000 
#    y 0.000000 1.890550 0.000000 
#    z 0.000000 0.000000 1.874870 
# 
# From -- ./inp_files/34332.got.cif
#   From: 2010.06.25/outbox.cif.g09.slc.cpg/sg58_18_cif.got.tgz:34332.got - 2010.06.26 21:38:00.
