data_PCOD8238656
_publ_section_title
;
Structure prediction by ZEFSAII (Michael W. Deem and Ramdas Pophale) SiO2 
 PCOD8238656
Probable space group: P N N M
;
_chemical_formula_sum "Si O2"
_cell_formula_units_Z 28
_cell_length_a 8.052736
_cell_length_b 7.986547
_cell_length_c 21.614024
_cell_angle_alpha 90.000000
_cell_angle_beta 90.000000
_cell_angle_gamma 90.000000
_cell_volume 1390.074711
_symmetry_space_group_name_H-M "P N N M"
_symmetry_group_IT_number 58
_symmetry_cell_setting 'orthorhombic'
loop_
_space_group_symop_operation_xyz
x,y,z
-x,-y,z
1/2+x,1/2-y,1/2-z
1/2-x,1/2+y,1/2-z
-x,-y,-z
x,y,-z
1/2-x,1/2+y,1/2+z
1/2+x,1/2-y,1/2+z
loop_
_atom_site_type_symbol
_atom_site_label
_atom_site_fract_x
_atom_site_fract_y
_atom_site_fract_z
Si Si1 0.915858 0.171569 0.169013
Si Si2 0.000000 0.000000 0.357417
Si Si3 0.423887 0.826122 0.222984
Si Si4 0.819999 0.417087 0.071034
O O1 0.772211 0.145785 0.219584
O O2 0.836149 0.241039 0.106182
O O3 0.042165 0.297839 0.203757
O O4 0.000000 0.000000 0.150068
O O5 0.013490 0.166377 0.315974
O O6 0.166511 0.978883 0.399401
O O7 0.500000 0.000000 0.198406
O O8 0.000000 0.500000 0.078200
O O9 0.776041 0.382776 0.000000
#
# Coordination Sequence:
#
# PCOD8238656 Si02
#       4
#     8   4   8   8
#     4  11  23  38  61  90 128 162 205 263 314 379
#     4  10  23  42  64  92 127 162 212 258 316 372
#     4  11  23  37  61  95 125 162 202 258 327 371
#     4  10  23  41  65  89 121 171 212 255 309 370
#
# _framework density 20.142802
#
# number of rings (size 3 to 8) (size 9 to 14) (size 15 to 20)
#    0.000    1.429    1.429    3.000   12.000    0.571 
#    0.000    0.000    0.000    4.286    0.000    0.000 
#    0.000    0.000    0.000    0.000    0.000    0.000 
#
# Total GULP energy -347081.523860 kJ/mol
# GULP energy per Si atom -12395.768709 kJ/mol
# Density = 2.009696 g / cm^3
# Si number density = 20.142802 Si / 1000 Ang^3
#
#
#
# Elastic Constant Matrix: (Units=GPa)
#
#
# Indices 1 2 3 4 5 6 
#
# 1 93.3731 29.2787 22.1898 0.0000 0.0000 0.0000
# 2 29.2787 125.3488 31.4572 0.0000 0.0000 0.0000
# 3 22.1898 31.4572 97.9072 0.0000 0.0000 0.0000
# 4 0.0000 0.0000 0.0000 33.4433 0.0000 0.0000
# 5 0.0000 0.0000 0.0000 0.0000 20.0408 0.0000
# 6 0.0000 0.0000 0.0000 0.0000 0.0000 33.8463
#
#
#
# Elastic Compliance Matrix: (Units=1/GPa)
#
#
# Indices 1 2 3 4 5 6 
#
# 1 0.011892 -0.002286 -0.001961 0.000000 0.000000 0.000000
# 2 -0.002286 0.009117 -0.002411 0.000000 0.000000 0.000000
# 3 -0.001961 -0.002411 0.011433 0.000000 0.000000 0.000000
# 4 0.000000 0.000000 0.000000 0.029901 0.000000 0.000000
# 5 0.000000 0.000000 0.000000 0.000000 0.049898 0.000000
# 6 0.000000 0.000000 0.000000 0.000000 0.000000 0.029545
#
#
# Mechanical properties :
#
#
# Convention : Reuss Voigt Hill
#
# Bulk Modulus (GPa) = 52.28349 53.60897 52.94623
# Shear Modulus (GPa) = 30.96397 33.04630 32.00514
#
# Velocity S-wave (km/s) = 3.92500 4.05483 3.99044
# Velocity P-wave (km/s) = 6.82302 6.97097 6.89739
#
# Compressibility (1/GPa) = 0.01912650
#
# Stress axis : x y z
#
# Youngs Moduli (GPa) = 84.08696 109.68851 87.46705
#
# Poissons Ratio (x) = 0.25072 0.17152
# Poissons Ratio (y) = 0.19220 0.21090
# Poissons Ratio (z) = 0.16489 0.26447
#
# Static dielectric constant tensor:
#      x y z
#    x 4.018120 0.000000 0.000000 
#    y 0.000000 3.491110 0.000000 
#    z 0.000000 0.000000 3.651410 
# 
# 
# High freq. dielectric constant tensor:
#      x y z
#    x 1.812260 0.000000 0.000000 
#    y 0.000000 1.777890 0.000000 
#    z 0.000000 0.000000 1.776650 
# 
# From -- ./inp_files/24698.got.cif
#   From: 2010.06.25/outbox.cif.g09.slc.cpg/sg58_13_cif.got.tgz:24698.got - 2010.06.26 21:38:00.
