data_PCOD8238035
_publ_section_title
;
Structure prediction by ZEFSAII (Michael W. Deem and Ramdas Pophale) SiO2 
 PCOD8238035
Probable space group: P N N M
;
_chemical_formula_sum "Si O2"
_cell_formula_units_Z 64
_cell_length_a 9.760098
_cell_length_b 16.028892
_cell_length_c 22.081257
_cell_angle_alpha 90.000000
_cell_angle_beta 90.000000
_cell_angle_gamma 90.000000
_cell_volume 3454.470383
_symmetry_space_group_name_H-M "P N N M"
_symmetry_group_IT_number 58
_symmetry_cell_setting 'orthorhombic'
loop_
_space_group_symop_operation_xyz
x,y,z
-x,-y,z
1/2+x,1/2-y,1/2-z
1/2-x,1/2+y,1/2-z
-x,-y,-z
x,y,-z
1/2-x,1/2+y,1/2+z
1/2+x,1/2-y,1/2+z
loop_
_atom_site_type_symbol
_atom_site_label
_atom_site_fract_x
_atom_site_fract_y
_atom_site_fract_z
Si Si1 0.012383 0.905028 0.219164
Si Si2 0.274006 0.806987 0.224024
Si Si3 0.323106 0.151139 0.344816
Si Si4 0.773995 0.808835 0.836476
Si Si5 0.459099 0.593149 0.858833
Si Si6 0.464766 0.907350 0.569204
Si Si7 0.450120 0.093387 0.777437
Si Si8 0.691841 0.683353 0.929897
O O1 0.925311 0.847151 0.173416
O O2 0.959336 0.888476 0.287042
O O3 0.172582 0.884705 0.216365
O O4 0.000000 0.000000 0.198841
O O5 0.236156 0.741498 0.171891
O O6 0.249662 0.766381 0.289399
O O7 0.427670 0.839832 0.217939
O O8 0.199013 0.103019 0.378319
O O9 0.448341 0.159149 0.391774
O O10 0.376821 0.098869 0.287383
O O11 0.661542 0.881726 0.827888
O O12 0.754505 0.769371 0.902985
O O13 0.500000 0.500000 0.875575
O O14 0.554514 0.657516 0.894823
O O15 0.509762 0.896607 0.500000
O O16 0.303976 0.889870 0.577951
O O17 0.500000 0.000000 0.592992
O O18 0.500000 0.000000 0.789838
O O19 0.656802 0.699078 0.000000
#
# Coordination Sequence:
#
# PCOD8238035 Si02
#       8
#     8   8   8   8   8   8   8   8
#     4  11  21  34  54  81 113 147 177 231 291 337
#     4  11  20  32  53  77 110 143 178 227 279 330
#     4  11  22  34  54  81 111 152 181 229 281 330
#     4  11  20  38  54  80 114 142 185 233 278 336
#     4  11  22  34  53  82 118 151 186 227 277 341
#     4  10  21  37  56  80 112 151 193 228 263 320
#     4  11  22  34  54  82 110 143 183 231 287 345
#     4  11  23  39  60  81 112 159 197 231 274 332
#
# _framework density 18.526717999999999
#
# number of rings (size 3 to 8) (size 9 to 14) (size 15 to 20)
#    0.000    1.125    3.750    5.625    1.750    0.750 
#    0.000    0.000    0.000    0.750    0.000    1.750 
#    0.000    0.000    0.000    0.000    0.000    0.000 
#
# Total GULP energy -793786.693714 kJ/mol
# GULP energy per Si atom -12402.917089 kJ/mol
# Density = 1.848455 g / cm^3
# Si number density = 18.526718 Si / 1000 Ang^3
#
#
#
# Elastic Constant Matrix: (Units=GPa)
#
#
# Indices 1 2 3 4 5 6 
#
# 1 94.8075 16.7622 20.0039 0.0000 0.0000 0.0000
# 2 16.7622 80.3375 26.9945 0.0000 0.0000 0.0000
# 3 20.0039 26.9945 64.8678 0.0000 0.0000 0.0000
# 4 0.0000 0.0000 0.0000 21.0549 0.0000 0.0000
# 5 0.0000 0.0000 0.0000 0.0000 22.7921 0.0000
# 6 0.0000 0.0000 0.0000 0.0000 0.0000 38.7156
#
#
#
# Elastic Compliance Matrix: (Units=1/GPa)
#
#
# Indices 1 2 3 4 5 6 
#
# 1 0.011414 -0.001394 -0.002940 0.000000 0.000000 0.000000
# 2 -0.001394 0.014641 -0.005663 0.000000 0.000000 0.000000
# 3 -0.002940 -0.005663 0.018679 0.000000 0.000000 0.000000
# 4 0.000000 0.000000 0.000000 0.047495 0.000000 0.000000
# 5 0.000000 0.000000 0.000000 0.000000 0.043875 0.000000
# 6 0.000000 0.000000 0.000000 0.000000 0.000000 0.025829
#
#
# Mechanical properties :
#
#
# Convention : Reuss Voigt Hill
#
# Bulk Modulus (GPa) = 40.41824 40.83710 40.62767
# Shear Modulus (GPa) = 26.29164 28.26267 27.27715
#
# Velocity S-wave (km/s) = 3.77121 3.91001 3.84124
# Velocity P-wave (km/s) = 6.38954 6.51724 6.45371
#
# Compressibility (1/GPa) = 0.02474131
#
# Stress axis : x y z
#
# Youngs Moduli (GPa) = 87.60845 68.30069 53.53538
#
# Poissons Ratio (x) = 0.09519 0.15739
# Poissons Ratio (y) = 0.12210 0.30317
# Poissons Ratio (z) = 0.25757 0.38679
#
# Static dielectric constant tensor:
#      x y z
#    x 3.656770 0.000000 0.000000 
#    y 0.000000 3.373430 0.000000 
#    z 0.000000 0.000000 3.159040 
# 
# 
# High freq. dielectric constant tensor:
#      x y z
#    x 1.742610 0.000000 0.000000 
#    y 0.000000 1.714260 0.000000 
#    z 0.000000 0.000000 1.676890 
# 
# From -- ./inp_files/31686.got.cif
#   From: 2010.06.25/outbox.cif.g09.slc.cpg/sg58_16_cif.got.tgz:31686.got - 2010.06.26 21:38:00.
