data_PCOD8238516
_publ_section_title
;
Structure prediction by ZEFSAII (Michael W. Deem and Ramdas Pophale) SiO2 
 PCOD8238516
Probable space group: P N N M
;
_chemical_formula_sum "Si O2"
_cell_formula_units_Z 48
_cell_length_a 5.529280
_cell_length_b 20.005711
_cell_length_c 19.019448
_cell_angle_alpha 90.000000
_cell_angle_beta 90.000000
_cell_angle_gamma 90.000000
_cell_volume 2103.877660
_symmetry_space_group_name_H-M "P N N M"
_symmetry_group_IT_number 58
_symmetry_cell_setting 'orthorhombic'
loop_
_space_group_symop_operation_xyz
x,y,z
-x,-y,z
1/2+x,1/2-y,1/2-z
1/2-x,1/2+y,1/2-z
-x,-y,-z
x,y,-z
1/2-x,1/2+y,1/2+z
1/2+x,1/2-y,1/2+z
loop_
_atom_site_type_symbol
_atom_site_label
_atom_site_fract_x
_atom_site_fract_y
_atom_site_fract_z
Si Si1 0.256338 0.774872 0.577796
Si Si2 0.996741 0.860219 0.923161
Si Si3 0.131150 0.302241 0.664664
Si Si4 0.422368 0.173272 0.690959
Si Si5 0.748630 0.467431 0.810417
Si Si6 0.752406 0.469346 0.354922
O O1 0.200168 0.806298 0.500000
O O2 0.459078 0.718662 0.567748
O O3 0.361005 0.828938 0.633133
O O4 0.023081 0.739044 0.608789
O O5 0.766026 0.892474 0.882205
O O6 0.235141 0.864338 0.874223
O O7 0.035924 0.893055 0.000000
O O8 0.307590 0.246366 0.697499
O O9 0.011348 0.341116 0.729769
O O10 0.243717 0.111944 0.671200
O O11 0.500000 0.500000 0.842072
O O12 0.747430 0.478475 0.727683
O O13 0.000000 0.500000 0.840524
O O14 0.500000 0.500000 0.387031
O O15 0.000000 0.500000 0.386727
#
# Coordination Sequence:
#
# PCOD8238516 Si02
#       6
#     8   8   8   8   8   8
#     4  10  22  40  62  93 131 167 208 275 350 408
#     4  10  23  39  59  87 129 176 221 271 336 399
#     4  11  22  37  64  99 126 169 216 284 337 406
#     4  11  23  37  66  97 128 164 224 272 338 402
#     4  10  24  40  64  94 128 171 218 279 335 392
#     4  10  23  39  59  89 126 176 230 280 322 378
#
# _framework density 22.815014000000001
#
# number of rings (size 3 to 8) (size 9 to 14) (size 15 to 20)
#    0.000    1.667    1.667    1.500   14.000    1.333 
#    0.000    0.000    0.000    1.000    0.000    0.000 
#    0.000    0.000    0.000    0.000    0.000    0.000 
#
# Total GULP energy -594811.490876 kJ/mol
# GULP energy per Si atom -12391.906060 kJ/mol
# Density = 2.276309 g / cm^3
# Si number density = 22.815014 Si / 1000 Ang^3
#
#
#
# Elastic Constant Matrix: (Units=GPa)
#
#
# Indices 1 2 3 4 5 6 
#
# 1 139.4774 34.6932 38.1672 0.0000 0.0000 0.0000
# 2 34.6932 64.5282 -4.9728 0.0000 0.0000 0.0000
# 3 38.1672 -4.9728 105.7480 0.0000 0.0000 0.0000
# 4 0.0000 0.0000 0.0000 13.7181 0.0000 0.0000
# 5 0.0000 0.0000 0.0000 0.0000 19.2096 0.0000
# 6 0.0000 0.0000 0.0000 0.0000 0.0000 47.2922
#
#
#
# Elastic Compliance Matrix: (Units=1/GPa)
#
#
# Indices 1 2 3 4 5 6 
#
# 1 0.009524 -0.005405 -0.003692 0.000000 0.000000 0.000000
# 2 -0.005405 0.018621 0.002827 0.000000 0.000000 0.000000
# 3 -0.003692 0.002827 0.010922 0.000000 0.000000 0.000000
# 4 0.000000 0.000000 0.000000 0.072896 0.000000 0.000000
# 5 0.000000 0.000000 0.000000 0.000000 0.052057 0.000000
# 6 0.000000 0.000000 0.000000 0.000000 0.000000 0.021145
#
#
# Mechanical properties :
#
#
# Convention : Reuss Voigt Hill
#
# Bulk Modulus (GPa) = 37.69844 49.50318 43.60081
# Shear Modulus (GPa) = 24.20732 32.16837 28.18785
#
# Velocity S-wave (km/s) = 3.26087 3.75902 3.51877
# Velocity P-wave (km/s) = 5.54411 6.37064 5.97169
#
# Compressibility (1/GPa) = 0.02652630
#
# Stress axis : x y z
#
# Youngs Moduli (GPa) = 104.99435 53.70281 91.55989
#
# Poissons Ratio (x) = 0.29027 0.33802
# Poissons Ratio (y) = 0.56751 -0.25880
# Poissons Ratio (z) = 0.38761 -0.15179
#
# Static dielectric constant tensor:
#      x y z
#    x 4.418140 0.000000 0.000000 
#    y 0.000000 4.097640 0.000000 
#    z 0.000000 0.000000 4.061290 
# 
# 
# High freq. dielectric constant tensor:
#      x y z
#    x 1.906580 0.000000 0.000000 
#    y 0.000000 1.886420 0.000000 
#    z 0.000000 0.000000 1.874390 
# 
# From -- ./inp_files/28144.got.cif
#   From: 2010.06.25/outbox.cif.g09.slc.cpg/sg58_15_cif.got.tgz:28144.got - 2010.06.26 21:38:00.
