data_PCOD8238387
_publ_section_title
;
Structure prediction by ZEFSAII (Michael W. Deem and Ramdas Pophale) SiO2 
 PCOD8238387
Probable space group: P N N M
;
_chemical_formula_sum "Si O2"
_cell_formula_units_Z 56
_cell_length_a 11.645064
_cell_length_b 14.694840
_cell_length_c 14.524982
_cell_angle_alpha 90.000000
_cell_angle_beta 90.000000
_cell_angle_gamma 90.000000
_cell_volume 2485.549087
_symmetry_space_group_name_H-M "P N N M"
_symmetry_group_IT_number 58
_symmetry_cell_setting 'orthorhombic'
loop_
_space_group_symop_operation_xyz
x,y,z
-x,-y,z
1/2+x,1/2-y,1/2-z
1/2-x,1/2+y,1/2-z
-x,-y,-z
x,y,-z
1/2-x,1/2+y,1/2+z
1/2+x,1/2-y,1/2+z
loop_
_atom_site_type_symbol
_atom_site_label
_atom_site_fract_x
_atom_site_fract_y
_atom_site_fract_z
Si Si1 0.336818 0.959518 0.896566
Si Si2 0.141995 0.824131 0.893336
Si Si3 0.941002 0.364906 0.342108
Si Si4 0.273989 0.289632 0.104483
Si Si5 0.123574 0.974775 0.605983
Si Si6 0.317532 0.670170 0.895353
Si Si7 0.944196 0.762133 0.777441
O O1 0.226947 0.904244 0.859584
O O2 0.446816 0.893070 0.900611
O O3 0.357983 0.046950 0.831136
O O4 0.314199 0.994901 0.000000
O O5 0.202011 0.726488 0.875762
O O6 0.025566 0.830526 0.834646
O O7 0.110542 0.836511 0.000000
O O8 0.874222 0.284621 0.393627
O O9 0.984768 0.331216 0.241679
O O10 0.318744 0.384540 0.149760
O O11 0.169738 0.255570 0.166018
O O12 0.230490 0.303176 0.000000
O O13 0.101448 0.948773 0.500000
O O14 0.207608 0.062238 0.616421
O O15 0.000000 0.000000 0.651171
O O16 0.416851 0.697173 0.823361
O O17 0.361451 0.690023 0.000000
#
# Coordination Sequence:
#
# PCOD8238387 Si02
#       7
#     8   8   8   8   8   8   8
#     4  10  21  41  70  97 121 168 223 277 335 394
#     4  10  22  43  67  92 134 179 219 266 333 407
#     4  11  22  39  66  97 130 165 221 279 328 393
#     4  11  24  44  68  96 134 175 224 278 337 404
#     4   9  19  37  63  91 120 162 214 268 322 379
#     4  10  21  41  64  90 124 172 221 268 322 390
#     4  12  24  42  64 102 139 174 216 280 344 402
#
# _framework density 22.530234
#
# number of rings (size 3 to 8) (size 9 to 14) (size 15 to 20)
#    0.000    1.571    1.429    3.857    0.000    2.286 
#   10.286    2.143    0.000    6.000    0.000    1.000 
#    0.000    0.571    0.000    0.000    0.000    0.000 
#
# Total GULP energy -694204.227968 kJ/mol
# GULP energy per Si atom -12396.504071 kJ/mol
# Density = 2.247895 g / cm^3
# Si number density = 22.530234 Si / 1000 Ang^3
#
#
#
# Elastic Constant Matrix: (Units=GPa)
#
#
# Indices 1 2 3 4 5 6 
#
# 1 116.1460 57.3260 53.6041 0.0000 0.0000 0.0000
# 2 57.3260 136.0876 36.6684 0.0000 0.0000 0.0000
# 3 53.6041 36.6684 86.5997 0.0000 0.0000 0.0000
# 4 0.0000 0.0000 0.0000 16.1085 0.0000 0.0000
# 5 0.0000 0.0000 0.0000 0.0000 34.5529 0.0000
# 6 0.0000 0.0000 0.0000 0.0000 0.0000 32.0185
#
#
#
# Elastic Compliance Matrix: (Units=1/GPa)
#
#
# Indices 1 2 3 4 5 6 
#
# 1 0.013695 -0.003934 -0.006811 0.000000 0.000000 0.000000
# 2 -0.003934 0.009424 -0.001556 0.000000 0.000000 0.000000
# 3 -0.006811 -0.001556 0.016422 0.000000 0.000000 0.000000
# 4 0.000000 0.000000 0.000000 0.062079 0.000000 0.000000
# 5 0.000000 0.000000 0.000000 0.000000 0.028941 0.000000
# 6 0.000000 0.000000 0.000000 0.000000 0.000000 0.031232
#
#
# Mechanical properties :
#
#
# Convention : Reuss Voigt Hill
#
# Bulk Modulus (GPa) = 66.93331 70.44782 68.69056
# Shear Modulus (GPa) = 26.12668 29.28498 27.70583
#
# Velocity S-wave (km/s) = 3.40902 3.60920 3.51054
# Velocity P-wave (km/s) = 6.72815 6.97885 6.85465
#
# Compressibility (1/GPa) = 0.01494024
#
# Stress axis : x y z
#
# Youngs Moduli (GPa) = 73.01935 106.10782 60.89283
#
# Poissons Ratio (x) = 0.41739 0.41477
# Poissons Ratio (y) = 0.28723 0.09473
# Poissons Ratio (z) = 0.49737 0.16507
#
# Static dielectric constant tensor:
#      x y z
#    x 3.834020 0.000000 0.000000 
#    y 0.000000 4.295760 0.000000 
#    z 0.000000 0.000000 3.868650 
# 
# 
# High freq. dielectric constant tensor:
#      x y z
#    x 1.873830 0.000000 0.000000 
#    y 0.000000 1.893150 0.000000 
#    z 0.000000 0.000000 1.874270 
# 
# From -- ./inp_files/21290.got.cif
#   From: 2010.06.25/outbox.cif.g09.slc.cpg/sg58_11_cif.got.tgz:21290.got - 2010.06.26 21:38:00.
