data_PCOD8238447
_publ_section_title
;
Structure prediction by ZEFSAII (Michael W. Deem and Ramdas Pophale) SiO2 
 PCOD8238447
Probable space group: P N N M
;
_chemical_formula_sum "Si O2"
_cell_formula_units_Z 64
_cell_length_a 8.830062
_cell_length_b 22.551797
_cell_length_c 15.712096
_cell_angle_alpha 90.000000
_cell_angle_beta 90.000000
_cell_angle_gamma 90.000000
_cell_volume 3128.808844
_symmetry_space_group_name_H-M "P N N M"
_symmetry_group_IT_number 58
_symmetry_cell_setting 'orthorhombic'
loop_
_space_group_symop_operation_xyz
x,y,z
-x,-y,z
1/2+x,1/2-y,1/2-z
1/2-x,1/2+y,1/2-z
-x,-y,-z
x,y,-z
1/2-x,1/2+y,1/2+z
1/2+x,1/2-y,1/2+z
loop_
_atom_site_type_symbol
_atom_site_label
_atom_site_fract_x
_atom_site_fract_y
_atom_site_fract_z
Si Si1 0.789019 0.178324 0.276543
Si Si2 0.905566 0.089397 0.591388
Si Si3 0.458101 0.633680 0.339867
Si Si4 0.453449 0.866886 0.155234
Si Si5 0.211503 0.714994 0.406380
Si Si6 0.718232 0.458929 0.092709
Si Si7 0.207322 0.949776 0.094874
Si Si8 0.293714 0.053682 0.775024
O O1 0.812076 0.122217 0.336700
O O2 0.628255 0.170744 0.229765
O O3 0.786513 0.238296 0.330056
O O4 0.927681 0.177538 0.209797
O O5 0.868748 0.119259 0.500000
O O6 0.087019 0.090638 0.605662
O O7 0.857503 0.022179 0.590540
O O8 0.361363 0.674201 0.403979
O O9 0.544527 0.580559 0.388784
O O10 0.339168 0.602477 0.276703
O O11 0.559563 0.823714 0.101379
O O12 0.328771 0.896585 0.094768
O O13 0.548708 0.921562 0.191953
O O14 0.208291 0.745086 0.500000
O O15 0.826904 0.459063 0.175072
O O16 0.800334 0.447491 0.000000
O O17 0.243972 0.997009 0.168704
O O18 0.207174 0.978831 0.000000
#
# Coordination Sequence:
#
# PCOD8238447 Si02
#       8
#     8   8   8   8   8   8   8   8
#     4  11  20  39  61  83 110 152 198 242 293 356
#     4   9  17  29  53  84 111 142 188 239 283 342
#     4  10  22  37  59  85 117 150 200 251 292 344
#     4  10  24  39  57  84 121 153 192 244 305 359
#     4  11  23  40  61  83 112 152 201 252 300 348
#     4   9  17  31  53  83 118 148 183 236 297 345
#     4  11  23  38  60  88 122 161 200 241 294 360
#     4  11  21  36  58  87 120 159 193 238 296 363
#
# _framework density 20.455068000000001
#
# number of rings (size 3 to 8) (size 9 to 14) (size 15 to 20)
#    0.000    1.750    1.250    4.875    1.750    4.000 
#    0.000    1.250    0.000    3.000    0.000    0.000 
#    0.000    0.000    0.000    0.000    0.000    0.000 
#
# Total GULP energy -793123.360193 kJ/mol
# GULP energy per Si atom -12392.552503 kJ/mol
# Density = 2.040851 g / cm^3
# Si number density = 20.455068 Si / 1000 Ang^3
#
#
#
# Elastic Constant Matrix: (Units=GPa)
#
#
# Indices 1 2 3 4 5 6 
#
# 1 84.6506 19.1306 22.2726 0.0000 0.0000 0.0000
# 2 19.1306 62.5663 21.8845 0.0000 0.0000 0.0000
# 3 22.2726 21.8845 136.9684 0.0000 0.0000 0.0000
# 4 0.0000 0.0000 0.0000 -2.6122 0.0000 0.0000
# 5 0.0000 0.0000 0.0000 0.0000 9.1216 0.0000
# 6 0.0000 0.0000 0.0000 0.0000 0.0000 27.3948
#
#
#
# Elastic Compliance Matrix: (Units=1/GPa)
#
#
# Indices 1 2 3 4 5 6 
#
# 1 0.013000 -0.003427 -0.001566 0.000000 0.000000 0.000000
# 2 -0.003427 0.017833 -0.002292 0.000000 0.000000 0.000000
# 3 -0.001566 -0.002292 0.007922 0.000000 0.000000 0.000000
# 4 0.000000 0.000000 0.000000 -0.382822 0.000000 0.000000
# 5 0.000000 0.000000 0.000000 0.000000 0.109630 0.000000
# 6 0.000000 0.000000 0.000000 0.000000 0.000000 0.036503
#
#
# Mechanical properties :
#
#
# Convention : Reuss Voigt Hill
#
# Bulk Modulus (GPa) = 41.35033 45.64009 43.49521
# Shear Modulus (GPa) = -28.52211 21.50735 -3.50738
#
# Velocity S-wave (km/s) = -3.73819 3.24611 -1.31088
# Velocity P-wave (km/s) = 1.27554 6.03411 4.36105
#
# Compressibility (1/GPa) = 0.02418360
#
# Stress axis : x y z
#
# Youngs Moduli (GPa) = 76.92371 56.07705 126.23285
#
# Poissons Ratio (x) = 0.19218 0.19773
# Poissons Ratio (y) = 0.26362 0.28932
# Poissons Ratio (z) = 0.12049 0.12853
#
# Static dielectric constant tensor:
#      x y z
#    x 3.734320 0.000000 0.000000 
#    y 0.000000 3.494220 0.000000 
#    z 0.000000 0.000000 3.972050 
# 
# 
# High freq. dielectric constant tensor:
#      x y z
#    x 1.793270 0.000000 0.000000 
#    y 0.000000 1.780890 0.000000 
#    z 0.000000 0.000000 1.810900 
# 
# From -- ./inp_files/20315.got.cif
#   From: 2010.06.25/outbox.cif.g09.slc.cpg/sg58_11_cif.got.tgz:20315.got - 2010.06.26 21:38:00.
