data_PCOD8238167
_publ_section_title
;
Structure prediction by ZEFSAII (Michael W. Deem and Ramdas Pophale) SiO2 
 PCOD8238167
Probable space group: P N N M
;
_chemical_formula_sum "Si O2"
_cell_formula_units_Z 56
_cell_length_a 8.672954
_cell_length_b 14.484316
_cell_length_c 22.677468
_cell_angle_alpha 90.000000
_cell_angle_beta 90.000000
_cell_angle_gamma 90.000000
_cell_volume 2848.784494
_symmetry_space_group_name_H-M "P N N M"
_symmetry_group_IT_number 58
_symmetry_cell_setting 'orthorhombic'
loop_
_space_group_symop_operation_xyz
x,y,z
-x,-y,z
1/2+x,1/2-y,1/2-z
1/2-x,1/2+y,1/2-z
-x,-y,-z
x,y,-z
1/2-x,1/2+y,1/2+z
1/2+x,1/2-y,1/2+z
loop_
_atom_site_type_symbol
_atom_site_label
_atom_site_fract_x
_atom_site_fract_y
_atom_site_fract_z
Si Si1 0.649811 0.191212 0.871261
Si Si2 0.591355 0.686087 0.933390
Si Si3 0.561978 0.224958 0.564688
Si Si4 0.573179 0.096438 0.752456
Si Si5 0.138976 0.635179 0.849802
Si Si6 0.092276 0.911248 0.069579
Si Si7 0.841141 0.039307 0.667652
O O1 0.518242 0.229509 0.914419
O O2 0.583618 0.160115 0.809080
O O3 0.757472 0.277204 0.859178
O O4 0.739595 0.104313 0.900733
O O5 0.756698 0.731939 0.935918
O O6 0.598287 0.603350 0.885945
O O7 0.545046 0.651379 0.000000
O O8 0.492007 0.209263 0.500000
O O9 0.500225 0.138596 0.602753
O O10 0.507932 0.323568 0.588939
O O11 0.442345 0.143650 0.712987
O O12 0.738692 0.089711 0.718157
O O13 0.500000 0.000000 0.772275
O O14 0.235228 0.541885 0.859142
O O15 0.116412 0.921607 0.000000
O O16 0.000000 0.000000 0.094742
O O17 0.000000 0.000000 0.696843
#
# Coordination Sequence:
#
# PCOD8238167 Si02
#       7
#     8   8   8   8   8   8   8
#     4  11  23  38  61  90 118 162 203 259 306 359
#     4  11  23  39  61  93 128 162 202 252 310 366
#     4   9  19  36  59  86 120 160 199 243 297 371
#     4  10  24  41  60  85 121 160 207 252 301 364
#     4  10  21  38  60  85 120 160 204 249 300 366
#     4   9  19  38  61  86 118 157 203 252 306 365
#     4  11  22  41  60  88 125 158 201 255 304 364
#
# _framework density 19.657506000000001
#
# number of rings (size 3 to 8) (size 9 to 14) (size 15 to 20)
#    0.000    1.857    2.857    0.429    2.000    3.143 
#    0.000    7.143    0.000    4.286    0.000    0.000 
#    0.000    0.000    0.000    0.000    0.000    0.000 
#
# Total GULP energy -694021.297599 kJ/mol
# GULP energy per Si atom -12393.237457 kJ/mol
# Density = 1.961276 g / cm^3
# Si number density = 19.657506 Si / 1000 Ang^3
#
#
#
# Elastic Constant Matrix: (Units=GPa)
#
#
# Indices 1 2 3 4 5 6 
#
# 1 97.8087 28.6976 37.7034 0.0000 0.0000 0.0000
# 2 28.6976 68.2812 38.5467 0.0000 0.0000 0.0000
# 3 37.7034 38.5467 87.0726 0.0000 0.0000 0.0000
# 4 0.0000 0.0000 0.0000 11.5138 0.0000 0.0000
# 5 0.0000 0.0000 0.0000 0.0000 20.6499 0.0000
# 6 0.0000 0.0000 0.0000 0.0000 0.0000 4.7314
#
#
#
# Elastic Compliance Matrix: (Units=1/GPa)
#
#
# Indices 1 2 3 4 5 6 
#
# 1 0.012712 -0.002980 -0.004185 0.000000 0.000000 0.000000
# 2 -0.002980 0.020223 -0.007663 0.000000 0.000000 0.000000
# 3 -0.004185 -0.007663 0.016689 0.000000 0.000000 0.000000
# 4 0.000000 0.000000 0.000000 0.086852 0.000000 0.000000
# 5 0.000000 0.000000 0.000000 0.000000 0.048426 0.000000
# 6 0.000000 0.000000 0.000000 0.000000 0.000000 0.211355
#
#
# Mechanical properties :
#
#
# Convention : Reuss Voigt Hill
#
# Bulk Modulus (GPa) = 50.07737 51.45086 50.76411
# Shear Modulus (GPa) = 11.55883 17.26000 14.40941
#
# Velocity S-wave (km/s) = 2.42752 2.96638 2.71038
# Velocity P-wave (km/s) = 5.77818 6.16141 5.97287
#
# Compressibility (1/GPa) = 0.01996910
#
# Stress axis : x y z
#
# Youngs Moduli (GPa) = 78.66817 49.44754 59.91965
#
# Poissons Ratio (x) = 0.14735 0.25077
# Poissons Ratio (y) = 0.23442 0.45913
# Poissons Ratio (z) = 0.32923 0.37889
#
# Static dielectric constant tensor:
#      x y z
#    x 5.461690 0.000000 0.000000 
#    y 0.000000 3.655180 0.000000 
#    z 0.000000 0.000000 3.668990 
# 
# 
# High freq. dielectric constant tensor:
#      x y z
#    x 1.781860 0.000000 0.000000 
#    y 0.000000 1.759430 0.000000 
#    z 0.000000 0.000000 1.759280 
# 
# From -- ./inp_files/28963.got.cif
#   From: 2010.06.25/outbox.cif.g09.slc.cpg/sg58_15_cif.got.tgz:28963.got - 2010.06.26 21:38:00.
