data_PCOD8238574
_publ_section_title
;
Structure prediction by ZEFSAII (Michael W. Deem and Ramdas Pophale) SiO2 
 PCOD8238574
Probable space group: P N N M
;
_chemical_formula_sum "Si O2"
_cell_formula_units_Z 56
_cell_length_a 9.463315
_cell_length_b 13.904463
_cell_length_c 18.671887
_cell_angle_alpha 90.000000
_cell_angle_beta 90.000000
_cell_angle_gamma 90.000000
_cell_volume 2456.890085
_symmetry_space_group_name_H-M "P N N M"
_symmetry_group_IT_number 58
_symmetry_cell_setting 'orthorhombic'
loop_
_space_group_symop_operation_xyz
x,y,z
-x,-y,z
1/2+x,1/2-y,1/2-z
1/2-x,1/2+y,1/2-z
-x,-y,-z
x,y,-z
1/2-x,1/2+y,1/2+z
1/2+x,1/2-y,1/2+z
loop_
_atom_site_type_symbol
_atom_site_label
_atom_site_fract_x
_atom_site_fract_y
_atom_site_fract_z
Si Si1 0.473911 0.761812 0.847368
Si Si2 0.871198 0.430070 0.421558
Si Si3 0.350236 0.525545 0.310315
Si Si4 0.828057 0.251373 0.918171
Si Si5 0.317483 0.394507 0.828068
Si Si6 0.648985 0.975727 0.578999
Si Si7 0.581456 0.260583 0.691370
O O1 0.585434 0.829213 0.887167
O O2 0.319590 0.778581 0.881410
O O3 0.531511 0.651365 0.850554
O O4 0.479662 0.789006 0.763058
O O5 0.805304 0.408450 0.500000
O O6 0.761899 0.488665 0.372999
O O7 0.000000 0.500000 0.430435
O O8 0.500000 0.500000 0.345017
O O9 0.321155 0.446575 0.248857
O O10 0.348897 0.637303 0.285243
O O11 0.825822 0.364322 0.923112
O O12 0.960585 0.219887 0.868628
O O13 0.839488 0.209119 0.000000
O O14 0.282805 0.478046 0.883157
O O15 0.201451 0.310672 0.836571
O O16 0.640645 0.021158 0.500000
O O17 0.500000 0.000000 0.619071
#
# Coordination Sequence:
#
# PCOD8238574 Si02
#       7
#     8   8   8   8   8   8   8
#     4  12  25  46  72 106 144 187 245 310 370 443
#     4  11  27  49  73 105 144 195 249 302 373 447
#     4  12  27  47  72 108 148 188 245 312 364 443
#     4  11  26  46  71 107 150 193 242 307 379 452
#     4  12  25  44  72 102 145 186 243 305 363 438
#     4  10  22  41  66 100 140 184 234 288 361 441
#     4  12  25  45  74 105 140 194 248 294 373 442
#
# _framework density 22.793040999999999
#
# number of rings (size 3 to 8) (size 9 to 14) (size 15 to 20)
#    0.000    0.571    4.286    3.000    4.000    2.571 
#    0.000    1.429    0.000    0.000    0.000    0.000 
#    0.000    0.000    0.000    0.000    0.000    0.000 
#
# Total GULP energy -694165.664138 kJ/mol
# GULP energy per Si atom -12395.815431 kJ/mol
# Density = 2.274116 g / cm^3
# Si number density = 22.793041 Si / 1000 Ang^3
#
#
#
# Elastic Constant Matrix: (Units=GPa)
#
#
# Indices 1 2 3 4 5 6 
#
# 1 111.2435 18.5105 51.3739 0.0000 0.0000 0.0000
# 2 18.5105 71.6217 25.7729 0.0000 0.0000 0.0000
# 3 51.3739 25.7729 143.5979 0.0000 0.0000 0.0000
# 4 0.0000 0.0000 0.0000 16.0566 0.0000 0.0000
# 5 0.0000 0.0000 0.0000 0.0000 27.4803 0.0000
# 6 0.0000 0.0000 0.0000 0.0000 0.0000 40.6486
#
#
#
# Elastic Compliance Matrix: (Units=1/GPa)
#
#
# Indices 1 2 3 4 5 6 
#
# 1 0.010920 -0.001514 -0.003635 0.000000 0.000000 0.000000
# 2 -0.001514 0.015136 -0.002175 0.000000 0.000000 0.000000
# 3 -0.003635 -0.002175 0.008655 0.000000 0.000000 0.000000
# 4 0.000000 0.000000 0.000000 0.062280 0.000000 0.000000
# 5 0.000000 0.000000 0.000000 0.000000 0.036390 0.000000
# 6 0.000000 0.000000 0.000000 0.000000 0.000000 0.024601
#
#
# Mechanical properties :
#
#
# Convention : Reuss Voigt Hill
#
# Bulk Modulus (GPa) = 49.84379 57.53084 53.68731
# Shear Modulus (GPa) = 27.88360 32.22418 30.05389
#
# Velocity S-wave (km/s) = 3.50142 3.76410 3.63513
# Velocity P-wave (km/s) = 6.18563 6.64730 6.42062
#
# Compressibility (1/GPa) = 0.02006268
#
# Stress axis : x y z
#
# Youngs Moduli (GPa) = 91.57574 66.06669 115.54417
#
# Poissons Ratio (x) = 0.10004 0.42000
# Poissons Ratio (y) = 0.13866 0.25130
# Poissons Ratio (z) = 0.33287 0.14369
#
# Static dielectric constant tensor:
#      x y z
#    x 4.395920 0.000000 0.000000 
#    y 0.000000 4.191490 0.000000 
#    z 0.000000 0.000000 4.430150 
# 
# 
# High freq. dielectric constant tensor:
#      x y z
#    x 1.904950 0.000000 0.000000 
#    y 0.000000 1.908140 0.000000 
#    z 0.000000 0.000000 1.896560 
# 
# From -- ./inp_files/28943.got.cif
#   From: 2010.06.25/outbox.cif.g09.slc.cpg/sg58_15_cif.got.tgz:28943.got - 2010.06.26 21:38:00.
