data_PCOD8238928
_publ_section_title
;
Structure prediction by ZEFSAII (Michael W. Deem and Ramdas Pophale) SiO2 
 PCOD8238928
Probable space group: P N N M
;
_chemical_formula_sum "Si O2"
_cell_formula_units_Z 56
_cell_length_a 21.444767
_cell_length_b 14.453415
_cell_length_c 8.866667
_cell_angle_alpha 90.000000
_cell_angle_beta 90.000000
_cell_angle_gamma 90.000000
_cell_volume 2748.224474
_symmetry_space_group_name_H-M "P N N M"
_symmetry_group_IT_number 58
_symmetry_cell_setting 'orthorhombic'
loop_
_space_group_symop_operation_xyz
x,y,z
-x,-y,z
1/2+x,1/2-y,1/2-z
1/2-x,1/2+y,1/2-z
-x,-y,-z
x,y,-z
1/2-x,1/2+y,1/2+z
1/2+x,1/2-y,1/2+z
loop_
_atom_site_type_symbol
_atom_site_label
_atom_site_fract_x
_atom_site_fract_y
_atom_site_fract_z
Si Si1 0.471968 0.364505 0.168953
Si Si2 0.642879 0.505907 0.171686
Si Si3 0.358997 0.839127 0.177617
Si Si4 0.094069 0.161431 0.825683
Si Si5 0.071463 0.509057 0.822317
Si Si6 0.115836 0.692785 0.326923
Si Si7 0.226657 0.825289 0.677547
O O1 0.425343 0.449856 0.185686
O O2 0.525415 0.378086 0.292865
O O3 0.437011 0.268722 0.198540
O O4 0.500734 0.365050 0.000000
O O5 0.645619 0.414056 0.274313
O O6 0.693984 0.579148 0.228603
O O7 0.656759 0.477244 0.000000
O O8 0.401999 0.755125 0.230641
O O9 0.289445 0.815906 0.229960
O O10 0.384798 0.933027 0.247245
O O11 0.361248 0.848693 0.000000
O O12 0.104130 0.183634 0.000000
O O13 0.100545 0.607948 0.781583
O O14 0.000000 0.500000 0.764055
O O15 0.074072 0.494866 0.000000
O O16 0.116471 0.658893 0.500000
O O17 0.182557 0.737811 0.284006
O O18 0.240691 0.827624 0.500000
#
# Coordination Sequence:
#
# PCOD8238928 Si02
#       7
#     8   8   8   8   8   8   8
#     4   9  18  35  59  87 119 152 188 229 276 337
#     4   9  19  37  61  86 115 153 190 228 280 340
#     4  12  26  42  61  83 112 153 197 242 292 347
#     4  12  24  36  54  83 118 152 188 234 284 333
#     4  11  24  41  62  90 122 156 196 246 301 352
#     4   9  19  37  63  90 116 153 194 235 288 348
#     4   9  20  41  64  87 116 148 191 243 289 340
#
# _framework density 20.376791999999998
#
# number of rings (size 3 to 8) (size 9 to 14) (size 15 to 20)
#    0.000    1.857    0.000    6.000    0.000    8.571 
#    0.000    2.857    0.000    0.000    0.000    0.000 
#    0.000    0.000    0.000    0.000    0.000    0.000 
#
# Total GULP energy -694536.563714 kJ/mol
# GULP energy per Si atom -12402.438638 kJ/mol
# Density = 2.033041 g / cm^3
# Si number density = 20.376792 Si / 1000 Ang^3
#
#
#
# Elastic Constant Matrix: (Units=GPa)
#
#
# Indices 1 2 3 4 5 6 
#
# 1 80.1069 18.3328 36.1772 0.0000 0.0000 0.0000
# 2 18.3328 106.6090 42.4167 0.0000 0.0000 0.0000
# 3 36.1772 42.4167 91.6967 0.0000 0.0000 0.0000
# 4 0.0000 0.0000 0.0000 25.6290 0.0000 0.0000
# 5 0.0000 0.0000 0.0000 0.0000 26.7269 0.0000
# 6 0.0000 0.0000 0.0000 0.0000 0.0000 17.4216
#
#
#
# Elastic Compliance Matrix: (Units=1/GPa)
#
#
# Indices 1 2 3 4 5 6 
#
# 1 0.015197 -0.000279 -0.005866 0.000000 0.000000 0.000000
# 2 -0.000279 0.011501 -0.005210 0.000000 0.000000 0.000000
# 3 -0.005866 -0.005210 0.015630 0.000000 0.000000 0.000000
# 4 0.000000 0.000000 0.000000 0.039018 0.000000 0.000000
# 5 0.000000 0.000000 0.000000 0.000000 0.037415 0.000000
# 6 0.000000 0.000000 0.000000 0.000000 0.000000 0.057400
#
#
# Mechanical properties :
#
#
# Convention : Reuss Voigt Hill
#
# Bulk Modulus (GPa) = 50.97745 52.47402 51.72574
# Shear Modulus (GPa) = 24.34146 26.05458 25.19802
#
# Velocity S-wave (km/s) = 3.46000 3.57969 3.52035
# Velocity P-wave (km/s) = 6.40577 6.54930 6.47793
#
# Compressibility (1/GPa) = 0.01961652
#
# Stress axis : x y z
#
# Youngs Moduli (GPa) = 65.80449 86.94924 63.97958
#
# Poissons Ratio (x) = 0.02427 0.37533
# Poissons Ratio (y) = 0.01837 0.33333
# Poissons Ratio (z) = 0.38603 0.45300
#
# Static dielectric constant tensor:
#      x y z
#    x 3.681450 0.000000 0.000000 
#    y 0.000000 3.788600 0.000000 
#    z 0.000000 0.000000 3.528690 
# 
# 
# High freq. dielectric constant tensor:
#      x y z
#    x 1.794950 0.000000 0.000000 
#    y 0.000000 1.808580 0.000000 
#    z 0.000000 0.000000 1.785490 
# 
# From -- ./inp_files/9004.got.cif
#   From: 2010.06.25/outbox.cif.g09.slc.cpg/sg58_5_cif.got.tgz:9004.got - 2010.06.26 21:38:00.
