data_PCOD8238008
_publ_section_title
;
Structure prediction by ZEFSAII (Michael W. Deem and Ramdas Pophale) SiO2 
 PCOD8238008
Probable space group: P N N M
;
_chemical_formula_sum "Si O2"
_cell_formula_units_Z 56
_cell_length_a 14.418292
_cell_length_b 21.472337
_cell_length_c 8.969110
_cell_angle_alpha 90.000000
_cell_angle_beta 90.000000
_cell_angle_gamma 90.000000
_cell_volume 2776.786451
_symmetry_space_group_name_H-M "P N N M"
_symmetry_group_IT_number 58
_symmetry_cell_setting 'orthorhombic'
loop_
_space_group_symop_operation_xyz
x,y,z
-x,-y,z
1/2+x,1/2-y,1/2-z
1/2-x,1/2+y,1/2-z
-x,-y,-z
x,y,-z
1/2-x,1/2+y,1/2+z
1/2+x,1/2-y,1/2+z
loop_
_atom_site_type_symbol
_atom_site_label
_atom_site_fract_x
_atom_site_fract_y
_atom_site_fract_z
Si Si1 0.393579 0.092011 0.327407
Si Si2 0.895253 0.747894 0.329110
Si Si3 0.719444 0.015502 0.176407
Si Si4 0.073770 0.822680 0.675288
Si Si5 0.310735 0.221408 0.329644
Si Si6 0.896057 0.617963 0.828201
Si Si7 0.591991 0.536625 0.176323
O O1 0.364883 0.082663 0.500000
O O2 0.358438 0.158871 0.267320
O O3 0.503660 0.086671 0.306793
O O4 0.347864 0.039269 0.228099
O O5 0.910289 0.726273 0.500000
O O6 0.799427 0.785058 0.311269
O O7 0.898877 0.688866 0.222674
O O8 0.974718 0.795154 0.275738
O O9 0.679825 0.081374 0.232559
O O10 0.821215 0.004188 0.243467
O O11 0.725096 0.016426 0.000000
O O12 0.084691 0.822303 0.500000
O O13 0.156677 0.781748 0.740486
O O14 0.081993 0.892794 0.735328
O O15 0.340753 0.231007 0.500000
O O16 0.865299 0.615432 0.000000
O O17 0.500000 0.500000 0.223899
O O18 0.607894 0.533195 0.000000
#
# Coordination Sequence:
#
# PCOD8238008 Si02
#       7
#     8   8   8   8   8   8   8
#     4  10  22  40  63  89 119 158 208 257 304 368
#     4  10  21  36  60  91 124 156 196 248 307 363
#     4  12  26  41  61  90 125 163 202 255 314 364
#     4  10  21  38  61  91 122 156 198 248 300 357
#     4  10  21  38  61  89 121 161 202 249 303 361
#     4  11  22  40  64  91 122 161 207 251 305 370
#     4  10  23  43  68  92 122 166 213 254 298 363
#
# _framework density 20.167196000000001
#
# number of rings (size 3 to 8) (size 9 to 14) (size 15 to 20)
#    0.000    1.571    1.429    3.000    2.000    7.143 
#    0.000    0.000    0.000    0.000    0.000    0.000 
#    0.000    0.000    0.000    0.000    0.000    0.000 
#
# Total GULP energy -694753.151094 kJ/mol
# GULP energy per Si atom -12406.306270 kJ/mol
# Density = 2.012129 g / cm^3
# Si number density = 20.167196 Si / 1000 Ang^3
#
#
#
# Elastic Constant Matrix: (Units=GPa)
#
#
# Indices 1 2 3 4 5 6 
#
# 1 97.7996 11.2347 33.1623 0.0000 0.0000 0.0000
# 2 11.2347 71.4717 23.5130 0.0000 0.0000 0.0000
# 3 33.1623 23.5130 62.7338 0.0000 0.0000 0.0000
# 4 0.0000 0.0000 0.0000 25.6756 0.0000 0.0000
# 5 0.0000 0.0000 0.0000 0.0000 26.5014 0.0000
# 6 0.0000 0.0000 0.0000 0.0000 0.0000 34.1114
#
#
#
# Elastic Compliance Matrix: (Units=1/GPa)
#
#
# Indices 1 2 3 4 5 6 
#
# 1 0.012462 0.000238 -0.006677 0.000000 0.000000 0.000000
# 2 0.000238 0.015964 -0.006109 0.000000 0.000000 0.000000
# 3 -0.006677 -0.006109 0.021759 0.000000 0.000000 0.000000
# 4 0.000000 0.000000 0.000000 0.038948 0.000000 0.000000
# 5 0.000000 0.000000 0.000000 0.000000 0.037734 0.000000
# 6 0.000000 0.000000 0.000000 0.000000 0.000000 0.029316
#
#
# Mechanical properties :
#
#
# Convention : Reuss Voigt Hill
#
# Bulk Modulus (GPa) = 39.85784 40.86947 40.36365
# Shear Modulus (GPa) = 26.36563 28.19735 27.28149
#
# Velocity S-wave (km/s) = 3.61965 3.74328 3.68199
# Velocity P-wave (km/s) = 6.10539 6.24437 6.17527
#
# Compressibility (1/GPa) = 0.02508917
#
# Stress axis : x y z
#
# Youngs Moduli (GPa) = 80.24658 62.64106 45.95714
#
# Poissons Ratio (x) = -0.01488 0.30683
# Poissons Ratio (y) = -0.01907 0.28075
# Poissons Ratio (z) = 0.53577 0.38267
#
# Static dielectric constant tensor:
#      x y z
#    x 3.856650 0.000000 0.000000 
#    y 0.000000 3.741220 0.000000 
#    z 0.000000 0.000000 3.532710 
# 
# 
# High freq. dielectric constant tensor:
#      x y z
#    x 1.803470 0.000000 0.000000 
#    y 0.000000 1.792360 0.000000 
#    z 0.000000 0.000000 1.774450 
# 
# From -- ./inp_files/6417.got.cif
#   From: 2010.06.25/outbox.cif.g09.slc.cpg/sg58_4_cif.got.tgz:6417.got - 2010.06.26 21:38:00.
