data_PCOD8238435
_publ_section_title
;
Structure prediction by ZEFSAII (Michael W. Deem and Ramdas Pophale) SiO2 
 PCOD8238435
Probable space group: P N N M
;
_chemical_formula_sum "Si O2"
_cell_formula_units_Z 64
_cell_length_a 14.184091
_cell_length_b 30.269555
_cell_length_c 8.916134
_cell_angle_alpha 90.000000
_cell_angle_beta 90.000000
_cell_angle_gamma 90.000000
_cell_volume 3828.107562
_symmetry_space_group_name_H-M "P N N M"
_symmetry_group_IT_number 58
_symmetry_cell_setting 'orthorhombic'
loop_
_space_group_symop_operation_xyz
x,y,z
-x,-y,z
1/2+x,1/2-y,1/2-z
1/2-x,1/2+y,1/2-z
-x,-y,-z
x,y,-z
1/2-x,1/2+y,1/2+z
1/2+x,1/2-y,1/2+z
loop_
_atom_site_type_symbol
_atom_site_label
_atom_site_fract_x
_atom_site_fract_y
_atom_site_fract_z
Si Si1 0.332586 0.634664 0.829797
Si Si2 0.274213 0.214261 0.177025
Si Si3 0.193447 0.864425 0.822931
Si Si4 0.671243 0.196209 0.326999
Si Si5 0.105056 0.953576 0.176593
Si Si6 0.977502 0.183019 0.329357
Si Si7 0.970203 0.270707 0.827340
Si Si8 0.892485 0.948957 0.177570
O O1 0.271243 0.670629 0.745078
O O2 0.442594 0.646302 0.819966
O O3 0.323111 0.586399 0.755055
O O4 0.296499 0.632440 0.000000
O O5 0.220242 0.258478 0.232884
O O6 0.382667 0.214520 0.227117
O O7 0.267620 0.210417 0.000000
O O8 0.294470 0.845959 0.770179
O O9 0.179157 0.915653 0.774032
O O10 0.119005 0.834779 0.736273
O O11 0.180235 0.858791 0.000000
O O12 0.698866 0.189274 0.500000
O O13 0.558413 0.196401 0.306897
O O14 0.000050 0.942563 0.236164
O O15 0.140628 0.001877 0.229889
O O16 0.095149 0.955600 0.000000
O O17 0.959981 0.198695 0.500000
O O18 0.009825 0.223795 0.227690
O O19 0.938425 0.267794 0.000000
O O20 0.884658 0.942320 0.000000
#
# Coordination Sequence:
#
# PCOD8238435 Si02
#       8
#     8   8   8   8   8   8   8   8
#     4  11  22  33  48  74 104 136 175 210 247 297
#     4  11  22  36  53  74 101 133 170 208 251 300
#     4  11  20  31  51  75 100 134 175 208 246 295
#     4  10  22  36  50  72 102 133 167 206 251 299
#     4   8  16  29  48  74 100 132 169 207 249 303
#     4  11  21  31  46  70 103 136 168 207 247 291
#     4  11  22  37  53  70  97 133 172 211 247 290
#     4   9  16  31  51  70 100 135 169 206 251 301
#
# _framework density 16.718444000000002
#
# number of rings (size 3 to 8) (size 9 to 14) (size 15 to 20)
#    0.000    1.750    3.750    2.625    0.000    2.500 
#    0.000    2.500    0.000    0.000    0.000    0.875 
#    0.000    7.000    0.000    0.000    0.000    0.000 
#
# Total GULP energy -793458.167947 kJ/mol
# GULP energy per Si atom -12397.783874 kJ/mol
# Density = 1.668039 g / cm^3
# Si number density = 16.718444 Si / 1000 Ang^3
#
#
#
# Elastic Constant Matrix: (Units=GPa)
#
#
# Indices 1 2 3 4 5 6 
#
# 1 58.1633 31.2117 23.7020 0.0000 0.0000 0.0000
# 2 31.2117 118.8746 36.7928 0.0000 0.0000 0.0000
# 3 23.7020 36.7928 57.9645 0.0000 0.0000 0.0000
# 4 0.0000 0.0000 0.0000 23.1978 0.0000 0.0000
# 5 0.0000 0.0000 0.0000 0.0000 25.5865 0.0000
# 6 0.0000 0.0000 0.0000 0.0000 0.0000 27.0791
#
#
#
# Elastic Compliance Matrix: (Units=1/GPa)
#
#
# Indices 1 2 3 4 5 6 
#
# 1 0.021865 -0.003701 -0.006592 0.000000 0.000000 0.000000
# 2 -0.003701 0.011095 -0.005529 0.000000 0.000000 0.000000
# 3 -0.006592 -0.005529 0.023457 0.000000 0.000000 0.000000
# 4 0.000000 0.000000 0.000000 0.043107 0.000000 0.000000
# 5 0.000000 0.000000 0.000000 0.000000 0.039083 0.000000
# 6 0.000000 0.000000 0.000000 0.000000 0.000000 0.036929
#
#
# Mechanical properties :
#
#
# Convention : Reuss Voigt Hill
#
# Bulk Modulus (GPa) = 40.36539 46.49059 43.42799
# Shear Modulus (GPa) = 23.20848 24.72575 23.96711
#
# Velocity S-wave (km/s) = 3.72989 3.84988 3.79036
# Velocity P-wave (km/s) = 6.53805 6.90148 6.72222
#
# Compressibility (1/GPa) = 0.02477370
#
# Stress axis : x y z
#
# Youngs Moduli (GPa) = 45.73514 90.12831 42.63094
#
# Poissons Ratio (x) = 0.33353 0.28101
# Poissons Ratio (y) = 0.16925 0.23573
# Poissons Ratio (z) = 0.30147 0.49836
#
# Static dielectric constant tensor:
#      x y z
#    x 2.928520 0.000000 0.000000 
#    y 0.000000 3.424420 0.000000 
#    z 0.000000 0.000000 3.136120 
# 
# 
# High freq. dielectric constant tensor:
#      x y z
#    x 1.615730 0.000000 0.000000 
#    y 0.000000 1.637700 0.000000 
#    z 0.000000 0.000000 1.645250 
# 
# From -- ./inp_files/7156.got.cif
#   From: 2010.06.25/outbox.cif.g09.slc.cpg/sg58_4_cif.got.tgz:7156.got - 2010.06.26 21:38:00.
