data_PCOD8238403
_publ_section_title
;
Structure prediction by ZEFSAII (Michael W. Deem and Ramdas Pophale) SiO2 
 PCOD8238403
Probable space group: P N N M
;
_chemical_formula_sum "Si O2"
_cell_formula_units_Z 40
_cell_length_a 18.570079
_cell_length_b 12.230441
_cell_length_c 8.426999
_cell_angle_alpha 90.000000
_cell_angle_beta 90.000000
_cell_angle_gamma 90.000000
_cell_volume 1913.942167
_symmetry_space_group_name_H-M "P N N M"
_symmetry_group_IT_number 58
_symmetry_cell_setting 'orthorhombic'
loop_
_space_group_symop_operation_xyz
x,y,z
-x,-y,z
1/2+x,1/2-y,1/2-z
1/2-x,1/2+y,1/2-z
-x,-y,-z
x,y,-z
1/2-x,1/2+y,1/2+z
1/2+x,1/2-y,1/2+z
loop_
_atom_site_type_symbol
_atom_site_label
_atom_site_fract_x
_atom_site_fract_y
_atom_site_fract_z
Si Si1 0.161654 0.968730 0.684226
Si Si2 0.069918 0.560115 0.687990
Si Si3 0.961583 0.197762 0.312696
Si Si4 0.691857 0.099486 0.815185
Si Si5 0.881607 0.808884 0.817346
O O1 0.154774 0.997456 0.500000
O O2 0.095168 0.893760 0.738694
O O3 0.234731 0.902535 0.716216
O O4 0.161860 0.079990 0.784142
O O5 0.066944 0.550301 0.500000
O O6 0.070312 0.685683 0.743324
O O7 0.141657 0.499480 0.748714
O O8 0.000000 0.500000 0.761379
O O9 0.976382 0.197485 0.500000
O O10 0.035290 0.171716 0.223947
O O11 0.650958 0.213271 0.789785
O O12 0.709564 0.086220 0.000000
O O13 0.872476 0.776579 0.000000
#
# Coordination Sequence:
#
# PCOD8238403 Si02
#       5
#     8   8   8   8   8
#     4  11  25  42  64  94 130 169 212 265 325 385
#     4   9  17  35  64  92 120 160 205 252 314 383
#     4  10  21  41  67  93 124 164 211 262 324 387
#     4  11  23  41  66  94 128 168 211 263 324 385
#     4  12  25  42  64  91 128 169 216 265 315 377
#
# _framework density 20.899273999999998
#
# number of rings (size 3 to 8) (size 9 to 14) (size 15 to 20)
#    0.000    1.400    2.000    3.600    2.800    4.000 
#    0.000    3.000    0.000    0.000    0.000    0.000 
#    0.000    0.000    0.000    0.000    0.000    0.000 
#
# Total GULP energy -496238.229968 kJ/mol
# GULP energy per Si atom -12405.955749 kJ/mol
# Density = 2.085171 g / cm^3
# Si number density = 20.899274 Si / 1000 Ang^3
#
#
#
# Elastic Constant Matrix: (Units=GPa)
#
#
# Indices 1 2 3 4 5 6 
#
# 1 121.9046 29.7173 18.8504 0.0000 0.0000 0.0000
# 2 29.7173 104.2063 18.5580 0.0000 0.0000 0.0000
# 3 18.8504 18.5580 43.6138 0.0000 0.0000 0.0000
# 4 0.0000 0.0000 0.0000 22.5253 0.0000 0.0000
# 5 0.0000 0.0000 0.0000 0.0000 28.0155 0.0000
# 6 0.0000 0.0000 0.0000 0.0000 0.0000 37.0514
#
#
#
# Elastic Compliance Matrix: (Units=1/GPa)
#
#
# Indices 1 2 3 4 5 6 
#
# 1 0.009185 -0.002069 -0.003090 0.000000 0.000000 0.000000
# 2 -0.002069 0.010849 -0.003722 0.000000 0.000000 0.000000
# 3 -0.003090 -0.003722 0.025848 0.000000 0.000000 0.000000
# 4 0.000000 0.000000 0.000000 0.044394 0.000000 0.000000
# 5 0.000000 0.000000 0.000000 0.000000 0.035695 0.000000
# 6 0.000000 0.000000 0.000000 0.000000 0.000000 0.026990
#
#
# Mechanical properties :
#
#
# Convention : Reuss Voigt Hill
#
# Bulk Modulus (GPa) = 35.56124 44.88623 40.22373
# Shear Modulus (GPa) = 27.76297 31.02505 29.39401
#
# Velocity S-wave (km/s) = 3.64870 3.85711 3.75435
# Velocity P-wave (km/s) = 5.89942 6.43120 6.17104
#
# Compressibility (1/GPa) = 0.02812050
#
# Stress axis : x y z
#
# Youngs Moduli (GPa) = 108.86960 92.17165 38.68829
#
# Poissons Ratio (x) = 0.19072 0.11953
# Poissons Ratio (y) = 0.22528 0.14400
# Poissons Ratio (z) = 0.33635 0.34307
#
# Static dielectric constant tensor:
#      x y z
#    x 3.844130 0.000000 0.000000 
#    y 0.000000 3.901950 0.000000 
#    z 0.000000 0.000000 3.451610 
# 
# 
# High freq. dielectric constant tensor:
#      x y z
#    x 1.826900 0.000000 0.000000 
#    y 0.000000 1.831000 0.000000 
#    z 0.000000 0.000000 1.795400 
# 
# From -- ./inp_files/3792.got.cif
#   From: 2010.06.25/outbox.cif.g09.slc.cpg/sg58_2_cif.got.tgz:3792.got - 2010.06.26 21:38:00.
