data_PCOD8238533
_publ_section_title
;
Structure prediction by ZEFSAII (Michael W. Deem and Ramdas Pophale) SiO2 
 PCOD8238533
Probable space group: P N N M
;
_chemical_formula_sum "Si O2"
_cell_formula_units_Z 64
_cell_length_a 15.258661
_cell_length_b 23.541101
_cell_length_c 8.927518
_cell_angle_alpha 90.000000
_cell_angle_beta 90.000000
_cell_angle_gamma 90.000000
_cell_volume 3206.815171
_symmetry_space_group_name_H-M "P N N M"
_symmetry_group_IT_number 58
_symmetry_cell_setting 'orthorhombic'
loop_
_space_group_symop_operation_xyz
x,y,z
-x,-y,z
1/2+x,1/2-y,1/2-z
1/2-x,1/2+y,1/2-z
-x,-y,-z
x,y,-z
1/2-x,1/2+y,1/2+z
1/2+x,1/2-y,1/2+z
loop_
_atom_site_type_symbol
_atom_site_label
_atom_site_fract_x
_atom_site_fract_y
_atom_site_fract_z
Si Si1 0.247306 0.557759 0.175058
Si Si2 0.577852 0.636539 0.670985
Si Si3 0.404523 0.641879 0.825294
Si Si4 0.602459 0.870746 0.171889
Si Si5 0.657352 0.756280 0.327232
Si Si6 0.257112 0.439000 0.674948
Si Si7 0.595308 0.136862 0.828824
Si Si8 0.341655 0.754563 0.676608
O O1 0.328943 0.597601 0.215897
O O2 0.160422 0.580028 0.255987
O O3 0.270645 0.495339 0.230031
O O4 0.228587 0.557021 0.000000
O O5 0.554249 0.621892 0.500000
O O6 0.498142 0.616035 0.775993
O O7 0.591146 0.703969 0.690840
O O8 0.665436 0.603868 0.720040
O O9 0.390118 0.698410 0.730959
O O10 0.405223 0.656425 0.000000
O O11 0.615092 0.810909 0.252424
O O12 0.501430 0.889735 0.187080
O O13 0.630498 0.863342 0.000000
O O14 0.676908 0.770303 0.500000
O O15 0.747415 0.739182 0.250563
O O16 0.258878 0.454214 0.500000
O O17 0.165018 0.410595 0.721037
O O18 0.600611 0.191448 0.722639
O O19 0.614483 0.155820 0.000000
O O20 0.331559 0.752111 0.500000
#
# Coordination Sequence:
#
# PCOD8238533 Si02
#       8
#     8   8   8   8   8   8   8   8
#     4  11  25  43  62  86 121 165 207 257 309 355
#     4  10  22  40  65  93 123 160 202 250 305 365
#     4  11  24  41  62  88 125 165 201 251 309 361
#     4  11  23  39  64  94 122 160 205 249 301 366
#     4  11  21  38  62  90 128 163 195 245 307 363
#     4  10  22  43  66  88 120 161 205 256 307 361
#     4  10  22  42  65  92 126 161 199 247 310 367
#     4  12  23  36  62  95 125 161 204 247 299 366
#
# _framework density 19.957495999999999
#
# number of rings (size 3 to 8) (size 9 to 14) (size 15 to 20)
#    0.000    1.250    2.500    3.375    0.000    7.500 
#    0.000    5.000    0.000    0.000    0.000    0.000 
#    0.000    0.000    0.000    0.000    0.000    0.000 
#
# Total GULP energy -794002.517676 kJ/mol
# GULP energy per Si atom -12406.289339 kJ/mol
# Density = 1.991207 g / cm^3
# Si number density = 19.957496 Si / 1000 Ang^3
#
#
#
# Elastic Constant Matrix: (Units=GPa)
#
#
# Indices 1 2 3 4 5 6 
#
# 1 100.9450 38.1306 56.8105 0.0000 0.0000 0.0000
# 2 38.1306 88.0064 43.2524 0.0000 0.0000 0.0000
# 3 56.8105 43.2524 105.8664 0.0000 0.0000 0.0000
# 4 0.0000 0.0000 0.0000 36.0656 0.0000 0.0000
# 5 0.0000 0.0000 0.0000 0.0000 34.6295 0.0000
# 6 0.0000 0.0000 0.0000 0.0000 0.0000 7.5345
#
#
#
# Elastic Compliance Matrix: (Units=1/GPa)
#
#
# Indices 1 2 3 4 5 6 
#
# 1 0.014860 -0.003152 -0.006686 0.000000 0.000000 0.000000
# 2 -0.003152 0.014886 -0.004390 0.000000 0.000000 0.000000
# 3 -0.006686 -0.004390 0.014828 0.000000 0.000000 0.000000
# 4 0.000000 0.000000 0.000000 0.027727 0.000000 0.000000
# 5 0.000000 0.000000 0.000000 0.000000 0.028877 0.000000
# 6 0.000000 0.000000 0.000000 0.000000 0.000000 0.132722
#
#
# Mechanical properties :
#
#
# Convention : Reuss Voigt Hill
#
# Bulk Modulus (GPa) = 62.04991 63.46721 62.75856
# Shear Modulus (GPa) = 18.67549 26.08754 22.38151
#
# Velocity S-wave (km/s) = 3.06234 3.61938 3.35245
# Velocity P-wave (km/s) = 6.60776 7.02402 6.81906
#
# Compressibility (1/GPa) = 0.01611606
#
# Stress axis : x y z
#
# Youngs Moduli (GPa) = 67.29407 67.17584 67.44161
#
# Poissons Ratio (x) = 0.21176 0.45094
# Poissons Ratio (y) = 0.21213 0.29609
# Poissons Ratio (z) = 0.44996 0.29492
#
# Static dielectric constant tensor:
#      x y z
#    x 3.786990 0.000000 0.000000 
#    y 0.000000 3.508090 0.000000 
#    z 0.000000 0.000000 3.677940 
# 
# 
# High freq. dielectric constant tensor:
#      x y z
#    x 1.794050 0.000000 0.000000 
#    y 0.000000 1.771510 0.000000 
#    z 0.000000 0.000000 1.783020 
# 
# From -- ./inp_files/6864.got.cif
#   From: 2010.06.25/outbox.cif.g09.slc.cpg/sg58_4_cif.got.tgz:6864.got - 2010.06.26 21:38:00.
