data_PCOD8238136
_publ_section_title
;
Structure prediction by ZEFSAII (Michael W. Deem and Ramdas Pophale) SiO2 
 PCOD8238136
Probable space group: P N N M
;
_chemical_formula_sum "Si O2"
_cell_formula_units_Z 40
_cell_length_a 8.375438
_cell_length_b 8.823908
_cell_length_c 22.476569
_cell_angle_alpha 90.000000
_cell_angle_beta 90.000000
_cell_angle_gamma 90.000000
_cell_volume 1661.110477
_symmetry_space_group_name_H-M "P N N M"
_symmetry_group_IT_number 58
_symmetry_cell_setting 'orthorhombic'
loop_
_space_group_symop_operation_xyz
x,y,z
-x,-y,z
1/2+x,1/2-y,1/2-z
1/2-x,1/2+y,1/2-z
-x,-y,-z
x,y,-z
1/2-x,1/2+y,1/2+z
1/2+x,1/2-y,1/2+z
loop_
_atom_site_type_symbol
_atom_site_label
_atom_site_fract_x
_atom_site_fract_y
_atom_site_fract_z
Si Si1 0.165769 0.045861 0.435189
Si Si2 0.698306 0.161603 0.777164
Si Si3 0.304760 0.725404 0.433983
Si Si4 0.848069 0.328352 0.682051
Si Si5 0.076002 0.666298 0.141682
O O1 0.126813 0.119234 0.500000
O O2 0.276622 0.901362 0.444825
O O3 0.259864 0.162368 0.395289
O O4 0.000000 0.000000 0.403139
O O5 0.718763 0.200698 0.705992
O O6 0.530634 0.218738 0.804289
O O7 0.859450 0.248794 0.799550
O O8 0.706837 0.982891 0.786267
O O9 0.310040 0.645709 0.500000
O O10 0.169576 0.655469 0.389867
O O11 0.470455 0.718092 0.397737
O O12 0.000000 0.500000 0.156778
#
# Coordination Sequence:
#
# PCOD8238136 Si02
#       5
#     8   8   8   8   8
#     4   9  17  31  56  89 127 173 221 270 328 396
#     4  11  26  45  71 100 136 177 229 285 344 408
#     4  10  21  39  63  94 136 179 223 275 337 408
#     4  11  26  46  69 102 134 180 227 281 347 407
#     4  10  21  37  63  94 133 171 224 272 339 399
#
# _framework density 24.080278
#
# number of rings (size 3 to 8) (size 9 to 14) (size 15 to 20)
#    0.000    1.800    0.000    3.000    8.400    5.600 
#    0.000    6.000    0.000    0.000    0.000    0.000 
#    0.000    0.000    0.000    0.000    0.000    0.000 
#
# Total GULP energy -495599.924357 kJ/mol
# GULP energy per Si atom -12389.998109 kJ/mol
# Density = 2.402547 g / cm^3
# Si number density = 24.080278 Si / 1000 Ang^3
#
#
#
# Elastic Constant Matrix: (Units=GPa)
#
#
# Indices 1 2 3 4 5 6 
#
# 1 128.7745 14.2465 44.3181 0.0000 0.0000 0.0000
# 2 14.2465 53.3464 29.5525 0.0000 0.0000 0.0000
# 3 44.3181 29.5525 148.3655 0.0000 0.0000 0.0000
# 4 0.0000 0.0000 0.0000 14.2865 0.0000 0.0000
# 5 0.0000 0.0000 0.0000 0.0000 33.0412 0.0000
# 6 0.0000 0.0000 0.0000 0.0000 0.0000 33.5289
#
#
#
# Elastic Compliance Matrix: (Units=1/GPa)
#
#
# Indices 1 2 3 4 5 6 
#
# 1 0.008702 -0.000994 -0.002401 0.000000 0.000000 0.000000
# 2 -0.000994 0.021184 -0.003923 0.000000 0.000000 0.000000
# 3 -0.002401 -0.003923 0.008239 0.000000 0.000000 0.000000
# 4 0.000000 0.000000 0.000000 0.069996 0.000000 0.000000
# 5 0.000000 0.000000 0.000000 0.000000 0.030265 0.000000
# 6 0.000000 0.000000 0.000000 0.000000 0.000000 0.029825
#
#
# Mechanical properties :
#
#
# Convention : Reuss Voigt Hill
#
# Bulk Modulus (GPa) = 42.57306 56.30227 49.43767
# Shear Modulus (GPa) = 26.22244 32.32925 29.27584
#
# Velocity S-wave (km/s) = 3.30352 3.66807 3.49056
# Velocity P-wave (km/s) = 5.68058 6.43207 6.06797
#
# Compressibility (1/GPa) = 0.02348903
#
# Stress axis : x y z
#
# Youngs Moduli (GPa) = 114.91754 47.20580 121.37688
#
# Poissons Ratio (x) = 0.04690 0.29148
# Poissons Ratio (y) = 0.11418 0.47613
# Poissons Ratio (z) = 0.27597 0.18518
#
# Static dielectric constant tensor:
#      x y z
#    x 4.424240 0.000000 0.000000 
#    y 0.000000 3.713030 0.000000 
#    z 0.000000 0.000000 4.859600 
# 
# 
# High freq. dielectric constant tensor:
#      x y z
#    x 1.971810 0.000000 0.000000 
#    y 0.000000 1.901400 0.000000 
#    z 0.000000 0.000000 1.976440 
# 
# From -- ./inp_files/31248.got.cif
#   From: 2010.06.25/outbox.cif.g09.slc.cpg/sg58_16_cif.got.tgz:31248.got - 2010.06.26 21:38:00.
