data_PCOD8238882
_publ_section_title
;
Structure prediction by ZEFSAII (Michael W. Deem and Ramdas Pophale) SiO2 
 PCOD8238882
Probable space group: P N N M
;
_chemical_formula_sum "Si O2"
_cell_formula_units_Z 24
_cell_length_a 11.228465
_cell_length_b 4.747179
_cell_length_c 19.944702
_cell_angle_alpha 90.000000
_cell_angle_beta 90.000000
_cell_angle_gamma 90.000000
_cell_volume 1063.123086
_symmetry_space_group_name_H-M "P N N M"
_symmetry_group_IT_number 58
_symmetry_cell_setting 'orthorhombic'
loop_
_space_group_symop_operation_xyz
x,y,z
-x,-y,z
1/2+x,1/2-y,1/2-z
1/2-x,1/2+y,1/2-z
-x,-y,-z
x,y,-z
1/2-x,1/2+y,1/2+z
1/2+x,1/2-y,1/2+z
loop_
_atom_site_type_symbol
_atom_site_label
_atom_site_fract_x
_atom_site_fract_y
_atom_site_fract_z
Si Si1 0.278766 0.918836 0.654254
Si Si2 0.863976 0.083087 0.923368
Si Si3 0.920968 0.754849 0.718880
O O1 0.273385 0.610472 0.620547
O O2 0.335609 0.896096 0.727864
O O3 0.359483 0.101063 0.604365
O O4 0.151463 0.075472 0.661314
O O5 0.821359 0.073229 0.000000
O O6 0.000000 0.000000 0.915210
O O7 0.000000 0.500000 0.687396
O O8 0.000000 0.000000 0.754627
#
# Coordination Sequence:
#
# PCOD8238882 Si02
#       3
#     8   8   8
#     4  12  23  39  62  89 123 158 197 248 306 363
#     4  11  23  39  62  90 121 158 200 250 304 360
#     4  12  24  39  62  92 125 160 200 251 309 366
#
# _framework density 22.574995000000001
#
# number of rings (size 3 to 8) (size 9 to 14) (size 15 to 20)
#    0.000    0.333    0.000   13.000    0.000    2.667 
#    0.000    0.000    0.000   20.000    0.000    0.000 
#    0.000    0.000    0.000    0.000    0.000    0.000 
#
# Total GULP energy -297612.314234 kJ/mol
# GULP energy per Si atom -12400.513093 kJ/mol
# Density = 2.252361 g / cm^3
# Si number density = 22.574995 Si / 1000 Ang^3
#
#
#
# Elastic Constant Matrix: (Units=GPa)
#
#
# Indices 1 2 3 4 5 6 
#
# 1 75.9367 35.8392 20.5245 0.0000 0.0000 0.0000
# 2 35.8392 120.5099 12.7412 0.0000 0.0000 0.0000
# 3 20.5245 12.7412 80.7218 0.0000 0.0000 0.0000
# 4 0.0000 0.0000 0.0000 14.2981 0.0000 0.0000
# 5 0.0000 0.0000 0.0000 0.0000 12.6766 0.0000
# 6 0.0000 0.0000 0.0000 0.0000 0.0000 58.3103
#
#
#
# Elastic Compliance Matrix: (Units=1/GPa)
#
#
# Indices 1 2 3 4 5 6 
#
# 1 0.016194 -0.004455 -0.003414 0.000000 0.000000 0.000000
# 2 -0.004455 0.009665 -0.000393 0.000000 0.000000 0.000000
# 3 -0.003414 -0.000393 0.013318 0.000000 0.000000 0.000000
# 4 0.000000 0.000000 0.000000 0.069940 0.000000 0.000000
# 5 0.000000 0.000000 0.000000 0.000000 0.078886 0.000000
# 6 0.000000 0.000000 0.000000 0.000000 0.000000 0.017150
#
#
# Mechanical properties :
#
#
# Convention : Reuss Voigt Hill
#
# Bulk Modulus (GPa) = 44.14469 46.15313 45.14891
# Shear Modulus (GPa) = 21.81237 30.92788 26.37013
#
# Velocity S-wave (km/s) = 3.11178 3.70537 3.42147
# Velocity P-wave (km/s) = 5.70158 6.22857 5.97089
#
# Compressibility (1/GPa) = 0.02265278
#
# Stress axis : x y z
#
# Youngs Moduli (GPa) = 61.74983 103.47108 75.08432
#
# Poissons Ratio (x) = 0.46098 0.25637
# Poissons Ratio (y) = 0.27510 0.02948
# Poissons Ratio (z) = 0.21084 0.04063
#
# Static dielectric constant tensor:
#      x y z
#    x 4.056880 0.000000 0.000000 
#    y 0.000000 4.520810 0.000000 
#    z 0.000000 0.000000 3.804820 
# 
# 
# High freq. dielectric constant tensor:
#      x y z
#    x 1.876790 0.000000 0.000000 
#    y 0.000000 1.928620 0.000000 
#    z 0.000000 0.000000 1.855110 
# 
# From -- ./inp_files/23956.got.cif
#   From: 2010.06.25/outbox.cif.g09.slc.cpg/sg58_12_cif.got.tgz:23956.got - 2010.06.26 21:38:00.
