data_PCOD8238858
_publ_section_title
;
Structure prediction by ZEFSAII (Michael W. Deem and Ramdas Pophale) SiO2 
 PCOD8238858
Probable space group: P N N M
;
_chemical_formula_sum "Si O2"
_cell_formula_units_Z 64
_cell_length_a 15.393204
_cell_length_b 23.683327
_cell_length_c 8.365626
_cell_angle_alpha 90.000000
_cell_angle_beta 90.000000
_cell_angle_gamma 90.000000
_cell_volume 3049.791721
_symmetry_space_group_name_H-M "P N N M"
_symmetry_group_IT_number 58
_symmetry_cell_setting 'orthorhombic'
loop_
_space_group_symop_operation_xyz
x,y,z
-x,-y,z
1/2+x,1/2-y,1/2-z
1/2-x,1/2+y,1/2-z
-x,-y,-z
x,y,-z
1/2-x,1/2+y,1/2+z
1/2+x,1/2-y,1/2+z
loop_
_atom_site_type_symbol
_atom_site_label
_atom_site_fract_x
_atom_site_fract_y
_atom_site_fract_z
Si Si1 0.101228 0.871119 0.183194
Si Si2 0.588185 0.862492 0.310353
Si Si3 0.348822 0.253198 0.186804
Si Si4 0.742493 0.061873 0.685643
Si Si5 0.092990 0.362889 0.685685
Si Si6 0.582244 0.367256 0.813853
Si Si7 0.248894 0.065953 0.689638
Si Si8 0.349937 0.744958 0.314665
O O1 0.112027 0.804867 0.214952
O O2 0.166258 0.906667 0.293117
O O3 0.003010 0.889107 0.222888
O O4 0.122180 0.884630 0.000000
O O5 0.591039 0.856734 0.500000
O O6 0.595284 0.801304 0.230080
O O7 0.497271 0.888898 0.251040
O O8 0.665126 0.902640 0.246196
O O9 0.249929 0.243207 0.240777
O O10 0.355470 0.267310 0.000000
O O11 0.716290 0.063449 0.500000
O O12 0.667901 0.091571 0.787547
O O13 0.750943 0.998201 0.750699
O O14 0.086958 0.348009 0.500000
O O15 0.112205 0.306597 0.784797
O O16 0.663834 0.402199 0.743237
O O17 0.597159 0.300713 0.787136
O O18 0.568557 0.378750 0.000000
O O19 0.246942 0.068209 0.500000
O O20 0.359583 0.729523 0.500000
#
# Coordination Sequence:
#
# PCOD8238858 Si02
#       8
#     8   8   8   8   8   8   8   8
#     4  12  25  41  62  93 128 165 205 252 310 370
#     4  11  22  41  66  94 126 163 206 254 307 368
#     4  11  22  38  63  94 127 164 203 250 309 370
#     4  11  23  44  67  90 119 160 212 261 306 361
#     4  12  25  41  62  93 128 165 205 252 310 370
#     4  11  22  41  66  94 126 163 206 254 307 368
#     4   9  22  42  67  92 119 160 210 257 306 363
#     4  11  22  38  63  94 127 164 203 250 309 370
#
# _framework density 20.985040999999999
#
# number of rings (size 3 to 8) (size 9 to 14) (size 15 to 20)
#    0.000    1.000    2.500    4.875    0.000    2.000 
#    0.000   10.000    0.000    0.000    0.000    0.000 
#    0.000    0.000    0.000    0.000    0.000    0.000 
#
# Total GULP energy -794100.639448 kJ/mol
# GULP energy per Si atom -12407.822491 kJ/mol
# Density = 2.093728 g / cm^3
# Si number density = 20.985041 Si / 1000 Ang^3
#
#
#
# Elastic Constant Matrix: (Units=GPa)
#
#
# Indices 1 2 3 4 5 6 
#
# 1 149.5814 44.7058 19.8083 0.0000 0.0000 0.0000
# 2 44.7058 125.0930 5.6365 0.0000 0.0000 0.0000
# 3 19.8083 5.6365 57.3488 0.0000 0.0000 0.0000
# 4 0.0000 0.0000 0.0000 26.2852 0.0000 0.0000
# 5 0.0000 0.0000 0.0000 0.0000 30.3122 0.0000
# 6 0.0000 0.0000 0.0000 0.0000 0.0000 8.2400
#
#
#
# Elastic Compliance Matrix: (Units=1/GPa)
#
#
# Indices 1 2 3 4 5 6 
#
# 1 0.007809 -0.002681 -0.002434 0.000000 0.000000 0.000000
# 2 -0.002681 0.008950 0.000046 0.000000 0.000000 0.000000
# 3 -0.002434 0.000046 0.018273 0.000000 0.000000 0.000000
# 4 0.000000 0.000000 0.000000 0.038044 0.000000 0.000000
# 5 0.000000 0.000000 0.000000 0.000000 0.032990 0.000000
# 6 0.000000 0.000000 0.000000 0.000000 0.000000 0.121360
#
#
# Mechanical properties :
#
#
# Convention : Reuss Voigt Hill
#
# Bulk Modulus (GPa) = 40.16800 52.48051 46.32425
# Shear Modulus (GPa) = 20.33664 30.42563 25.38113
#
# Velocity S-wave (km/s) = 3.11642 3.81185 3.48154
# Velocity P-wave (km/s) = 5.66853 6.66606 6.18743
#
# Compressibility (1/GPa) = 0.02489544
#
# Stress axis : x y z
#
# Youngs Moduli (GPa) = 128.05887 111.73017 54.72500
#
# Poissons Ratio (x) = 0.29956 0.13318
# Poissons Ratio (y) = 0.34334 -0.00254
# Poissons Ratio (z) = 0.31166 -0.00518
#
# Static dielectric constant tensor:
#      x y z
#    x 4.082870 0.000000 0.000000 
#    y 0.000000 3.748880 0.000000 
#    z 0.000000 0.000000 3.610780 
# 
# 
# High freq. dielectric constant tensor:
#      x y z
#    x 1.840840 0.000000 0.000000 
#    y 0.000000 1.812710 0.000000 
#    z 0.000000 0.000000 1.816530 
# 
# From -- ./inp_files/6938.got.cif
#   From: 2010.06.25/outbox.cif.g09.slc.cpg/sg58_4_cif.got.tgz:6938.got - 2010.06.26 21:38:00.
