data_PCOD8238408
_publ_section_title
;
Structure prediction by ZEFSAII (Michael W. Deem and Ramdas Pophale) SiO2 
 PCOD8238408
Probable space group: P N N M
;
_chemical_formula_sum "Si O2"
_cell_formula_units_Z 40
_cell_length_a 8.007324
_cell_length_b 9.197830
_cell_length_c 22.296700
_cell_angle_alpha 90.000000
_cell_angle_beta 90.000000
_cell_angle_gamma 90.000000
_cell_volume 1642.152064
_symmetry_space_group_name_H-M "P N N M"
_symmetry_group_IT_number 58
_symmetry_cell_setting 'orthorhombic'
loop_
_space_group_symop_operation_xyz
x,y,z
-x,-y,z
1/2+x,1/2-y,1/2-z
1/2-x,1/2+y,1/2-z
-x,-y,-z
x,y,-z
1/2-x,1/2+y,1/2+z
1/2+x,1/2-y,1/2+z
loop_
_atom_site_type_symbol
_atom_site_label
_atom_site_fract_x
_atom_site_fract_y
_atom_site_fract_z
Si Si1 0.986714 0.662961 0.567858
Si Si2 0.665664 0.170331 0.433297
Si Si3 0.173953 0.081384 0.628918
Si Si4 0.066144 0.158302 0.174549
Si Si5 0.868249 0.375704 0.752635
O O1 0.916852 0.657958 0.500000
O O2 0.852962 0.752246 0.607944
O O3 0.000000 0.500000 0.594178
O O4 0.165764 0.737557 0.568695
O O5 0.587051 0.175839 0.500000
O O6 0.540372 0.241289 0.384432
O O7 0.699568 0.001931 0.416221
O O8 0.244896 0.070800 0.695547
O O9 0.000000 0.000000 0.627742
O O10 0.261538 0.156091 0.192872
O O11 0.960644 0.226983 0.229067
O O12 0.000000 0.000000 0.159099
O O13 0.000000 0.500000 0.736998
#
# Coordination Sequence:
#
# PCOD8238408 Si02
#       5
#     8   8   8   8   8
#     4   9  19  35  63 100 138 183 233 287 348 420
#     4  10  22  43  68 100 144 191 239 288 356 437
#     4  10  21  41  71  99 139 186 240 291 346 427
#     4  12  28  45  71 106 141 191 234 304 370 424
#     4  12  26  48  71 104 139 183 241 296 363 438
#
# _framework density 24.358281000000002
#
# number of rings (size 3 to 8) (size 9 to 14) (size 15 to 20)
#    0.000    1.400    2.000    2.400    8.400    3.600 
#    0.000    3.000    0.000    0.000    0.000    0.000 
#    0.000    0.000    0.000    0.000    0.000    0.000 
#
# Total GULP energy -496243.448937 kJ/mol
# GULP energy per Si atom -12406.086223 kJ/mol
# Density = 2.430284 g / cm^3
# Si number density = 24.358281 Si / 1000 Ang^3
#
#
#
# Elastic Constant Matrix: (Units=GPa)
#
#
# Indices 1 2 3 4 5 6 
#
# 1 43.2358 25.8532 24.4589 0.0000 0.0000 0.0000
# 2 25.8532 175.7801 36.1431 0.0000 0.0000 0.0000
# 3 24.4589 36.1431 117.7045 0.0000 0.0000 0.0000
# 4 0.0000 0.0000 0.0000 16.3542 0.0000 0.0000
# 5 0.0000 0.0000 0.0000 0.0000 19.1820 0.0000
# 6 0.0000 0.0000 0.0000 0.0000 0.0000 38.4597
#
#
#
# Elastic Compliance Matrix: (Units=1/GPa)
#
#
# Indices 1 2 3 4 5 6 
#
# 1 0.027693 -0.003085 -0.004807 0.000000 0.000000 0.000000
# 2 -0.003085 0.006416 -0.001329 0.000000 0.000000 0.000000
# 3 -0.004807 -0.001329 0.009903 0.000000 0.000000 0.000000
# 4 0.000000 0.000000 0.000000 0.061146 0.000000 0.000000
# 5 0.000000 0.000000 0.000000 0.000000 0.052132 0.000000
# 6 0.000000 0.000000 0.000000 0.000000 0.000000 0.026001
#
#
# Mechanical properties :
#
#
# Convention : Reuss Voigt Hill
#
# Bulk Modulus (GPa) = 39.10882 56.62564 47.86723
# Shear Modulus (GPa) = 23.78041 31.48352 27.63197
#
# Velocity S-wave (km/s) = 3.12793 3.59906 3.37174
# Velocity P-wave (km/s) = 5.39776 6.36934 5.90357
#
# Compressibility (1/GPa) = 0.02556968
#
# Stress axis : x y z
#
# Youngs Moduli (GPa) = 36.11019 155.86321 100.97991
#
# Poissons Ratio (x) = 0.48077 0.48545
# Poissons Ratio (y) = 0.11138 0.13422
# Poissons Ratio (z) = 0.17360 0.20716
#
# Static dielectric constant tensor:
#      x y z
#    x 4.311100 0.000000 0.000000 
#    y 0.000000 4.524890 0.000000 
#    z 0.000000 0.000000 4.458810 
# 
# 
# High freq. dielectric constant tensor:
#      x y z
#    x 1.960180 0.000000 0.000000 
#    y 0.000000 1.977800 0.000000 
#    z 0.000000 0.000000 1.969780 
# 
# From -- ./inp_files/31247.got.cif
#   From: 2010.06.25/outbox.cif.g09.slc.cpg/sg58_16_cif.got.tgz:31247.got - 2010.06.26 21:38:00.
