data_PCOD8238243
_publ_section_title
;
Structure prediction by ZEFSAII (Michael W. Deem and Ramdas Pophale) SiO2 
 PCOD8238243
Probable space group: P N N M
;
_chemical_formula_sum "Si O2"
_cell_formula_units_Z 32
_cell_length_a 28.329602
_cell_length_b 9.840558
_cell_length_c 5.287102
_cell_angle_alpha 90.000000
_cell_angle_beta 90.000000
_cell_angle_gamma 90.000000
_cell_volume 1473.933493
_symmetry_space_group_name_H-M "P N N M"
_symmetry_group_IT_number 58
_symmetry_cell_setting 'orthorhombic'
loop_
_space_group_symop_operation_xyz
x,y,z
-x,-y,z
1/2+x,1/2-y,1/2-z
1/2-x,1/2+y,1/2-z
-x,-y,-z
x,y,-z
1/2-x,1/2+y,1/2+z
1/2+x,1/2-y,1/2+z
loop_
_atom_site_type_symbol
_atom_site_label
_atom_site_fract_x
_atom_site_fract_y
_atom_site_fract_z
Si Si1 0.685018 0.800334 0.500000
Si Si2 0.315709 0.896831 0.500000
Si Si3 0.034807 0.369719 0.500000
Si Si4 0.503523 0.836438 0.500000
Si Si5 0.910144 0.146981 0.000000
Si Si6 0.788323 0.174856 0.500000
Si Si7 0.886285 0.013454 0.500000
Si Si8 0.863766 0.701028 0.500000
O O1 0.664053 0.951476 0.500000
O O2 0.642681 0.696714 0.500000
O O3 0.714471 0.772813 0.244845
O O4 0.259137 0.913863 0.500000
O O5 0.332812 0.819434 0.250054
O O6 0.090982 0.402355 0.500000
O O7 0.000000 0.500000 0.500000
O O8 0.023317 0.281915 0.249321
O O9 0.556248 0.778702 0.500000
O O10 0.500000 0.000000 0.500000
O O11 0.916526 0.058584 0.745710
O O12 0.833546 0.076507 0.500000
O O13 0.883588 0.852328 0.500000
#
# Coordination Sequence:
#
# PCOD8238243 Si02
#       8
#     4   4   4   4   4   4   4   4
#     4  10  23  41  63  97 126 164 220 265 312 390
#     4  12  26  39  70  95 132 171 219 279 309 398
#     4  10  23  39  63  93 130 164 210 276 332 386
#     4  10  21  38  65  95 123 162 210 272 324 383
#     4  10  21  41  69  93 129 172 214 260 334 378
#     4  10  23  42  63  92 127 173 210 261 331 367
#     4  10  23  44  64  90 136 175 211 265 314 417
#     4  12  26  44  64  99 131 175 220 265 336 381
#
# _framework density 21.710612999999999
#
# number of rings (size 3 to 8) (size 9 to 14) (size 15 to 20)
#    0.000    1.500    0.000    3.750   10.500    0.000 
#    0.000    3.750    0.000    0.000    0.000    0.000 
#    0.000    0.000    0.000    0.000    0.000    0.000 
#
# Total GULP energy -396676.790155 kJ/mol
# GULP energy per Si atom -12396.149692 kJ/mol
# Density = 2.166120 g / cm^3
# Si number density = 21.710613 Si / 1000 Ang^3
#
#
#
# Elastic Constant Matrix: (Units=GPa)
#
#
# Indices 1 2 3 4 5 6 
#
# 1 88.8853 0.8305 33.4569 0.0000 0.0000 0.0000
# 2 0.8305 90.5107 25.8512 0.0000 0.0000 0.0000
# 3 33.4569 25.8512 221.9536 0.0000 0.0000 0.0000
# 4 0.0000 0.0000 0.0000 19.3315 0.0000 0.0000
# 5 0.0000 0.0000 0.0000 0.0000 20.2642 0.0000
# 6 0.0000 0.0000 0.0000 0.0000 0.0000 29.6362
#
#
#
# Elastic Compliance Matrix: (Units=1/GPa)
#
#
# Indices 1 2 3 4 5 6 
#
# 1 0.011942 0.000418 -0.001849 0.000000 0.000000 0.000000
# 2 0.000418 0.011443 -0.001396 0.000000 0.000000 0.000000
# 3 -0.001849 -0.001396 0.004947 0.000000 0.000000 0.000000
# 4 0.000000 0.000000 0.000000 0.051729 0.000000 0.000000
# 5 0.000000 0.000000 0.000000 0.000000 0.049348 0.000000
# 6 0.000000 0.000000 0.000000 0.000000 0.000000 0.033743
#
#
# Mechanical properties :
#
#
# Convention : Reuss Voigt Hill
#
# Bulk Modulus (GPa) = 44.09203 57.95854 51.02528
# Shear Modulus (GPa) = 28.35035 36.59378 32.47207
#
# Velocity S-wave (km/s) = 3.61755 4.10997 3.87159
# Velocity P-wave (km/s) = 6.14833 7.01971 6.59842
#
# Compressibility (1/GPa) = 0.02267983
#
# Stress axis : x y z
#
# Youngs Moduli (GPa) = 83.73461 87.38765 202.15369
#
# Poissons Ratio (x) = -0.03657 0.37377
# Poissons Ratio (y) = -0.03504 0.28219
# Poissons Ratio (z) = 0.15482 0.12198
#
# Static dielectric constant tensor:
#      x y z
#    x 3.753640 0.000000 0.000000 
#    y 0.000000 3.518590 0.000000 
#    z 0.000000 0.000000 5.631170 
# 
# 
# High freq. dielectric constant tensor:
#      x y z
#    x 1.844790 0.000000 0.000000 
#    y 0.000000 1.827640 0.000000 
#    z 0.000000 0.000000 1.889670 
# 
# From -- ./inp_files/997.got.cif
#   From: 2010.06.25/outbox.cif.g09.slc.cpg/sg58_1_cif.got.tgz:997.got - 2010.06.26 21:38:00.
