data_PCOD8238033
_publ_section_title
;
Structure prediction by ZEFSAII (Michael W. Deem and Ramdas Pophale) SiO2 
 PCOD8238033
Probable space group: P N N M
;
_chemical_formula_sum "Si O2"
_cell_formula_units_Z 48
_cell_length_a 21.017888
_cell_length_b 9.074956
_cell_length_c 12.539678
_cell_angle_alpha 90.000000
_cell_angle_beta 90.000000
_cell_angle_gamma 90.000000
_cell_volume 2391.773149
_symmetry_space_group_name_H-M "P N N M"
_symmetry_group_IT_number 58
_symmetry_cell_setting 'orthorhombic'
loop_
_space_group_symop_operation_xyz
x,y,z
-x,-y,z
1/2+x,1/2-y,1/2-z
1/2-x,1/2+y,1/2-z
-x,-y,-z
x,y,-z
1/2-x,1/2+y,1/2+z
1/2+x,1/2-y,1/2+z
loop_
_atom_site_type_symbol
_atom_site_label
_atom_site_fract_x
_atom_site_fract_y
_atom_site_fract_z
Si Si1 0.392085 0.693048 0.880760
Si Si2 0.770134 0.629287 0.620502
Si Si3 0.490335 0.337960 0.254165
Si Si4 0.191808 0.631499 0.236568
Si Si5 0.562186 0.912112 0.376033
Si Si6 0.871262 0.133129 0.378861
O O1 0.343947 0.827966 0.877559
O O2 0.444253 0.729741 0.790706
O O3 0.356232 0.538613 0.854342
O O4 0.422199 0.679554 0.000000
O O5 0.750491 0.579615 0.500000
O O6 0.764704 0.493185 0.704654
O O7 0.730291 0.777400 0.647044
O O8 0.500000 0.500000 0.300240
O O9 0.458724 0.255326 0.354063
O O10 0.443836 0.336474 0.153069
O O11 0.128230 0.555163 0.186393
O O12 0.176619 0.759547 0.319713
O O13 0.574267 0.942566 0.500000
O O14 0.500000 0.000000 0.333270
O O15 0.861968 0.174841 0.500000
#
# Coordination Sequence:
#
# PCOD8238033 Si02
#       6
#     8   8   8   8   8   8
#     4   9  17  31  52  79 110 141 176 222 277 333
#     4  11  23  38  57  81 110 145 187 233 283 343
#     4   9  17  30  52  80 108 138 176 224 276 329
#     4  11  22  38  58  80 112 148 189 238 290 343
#     4  10  21  37  56  78 108 147 189 233 283 341
#     4   9  17  31  53  80 109 142 179 223 278 336
#
# _framework density 20.068792999999999
#
# number of rings (size 3 to 8) (size 9 to 14) (size 15 to 20)
#    0.000    2.167    0.000    3.500    0.000    2.333 
#    0.000    2.500    0.000   16.000    0.000    0.000 
#    0.000    0.000    0.000    0.000    0.000    0.000 
#
# Total GULP energy -594763.375639 kJ/mol
# GULP energy per Si atom -12390.903659 kJ/mol
# Density = 2.002312 g / cm^3
# Si number density = 20.068793 Si / 1000 Ang^3
#
#
#
# Elastic Constant Matrix: (Units=GPa)
#
#
# Indices 1 2 3 4 5 6 
#
# 1 57.6138 19.2125 21.2844 0.0000 0.0000 0.0000
# 2 19.2125 63.9732 28.1787 0.0000 0.0000 0.0000
# 3 21.2844 28.1787 78.6705 0.0000 0.0000 0.0000
# 4 0.0000 0.0000 0.0000 28.3994 0.0000 0.0000
# 5 0.0000 0.0000 0.0000 0.0000 22.7248 0.0000
# 6 0.0000 0.0000 0.0000 0.0000 0.0000 35.9106
#
#
#
# Elastic Compliance Matrix: (Units=1/GPa)
#
#
# Indices 1 2 3 4 5 6 
#
# 1 0.020258 -0.004357 -0.003920 0.000000 0.000000 0.000000
# 2 -0.004357 0.019497 -0.005805 0.000000 0.000000 0.000000
# 3 -0.003920 -0.005805 0.015851 0.000000 0.000000 0.000000
# 4 0.000000 0.000000 0.000000 0.035212 0.000000 0.000000
# 5 0.000000 0.000000 0.000000 0.000000 0.044005 0.000000
# 6 0.000000 0.000000 0.000000 0.000000 0.000000 0.027847
#
#
# Mechanical properties :
#
#
# Convention : Reuss Voigt Hill
#
# Bulk Modulus (GPa) = 36.44051 37.51207 36.97629
# Shear Modulus (GPa) = 25.00233 26.17909 25.59071
#
# Velocity S-wave (km/s) = 3.53346 3.61566 3.57480
# Velocity P-wave (km/s) = 5.90291 6.01357 5.95850
#
# Compressibility (1/GPa) = 0.02744199
#
# Stress axis : x y z
#
# Youngs Moduli (GPa) = 49.36272 51.29010 63.08745
#
# Poissons Ratio (x) = 0.22348 0.24731
# Poissons Ratio (y) = 0.21508 0.36620
# Poissons Ratio (z) = 0.19351 0.29772
#
# Static dielectric constant tensor:
#      x y z
#    x 3.580350 0.000000 0.000000 
#    y 0.000000 3.749990 0.000000 
#    z 0.000000 0.000000 3.484720 
# 
# 
# High freq. dielectric constant tensor:
#      x y z
#    x 1.777000 0.000000 0.000000 
#    y 0.000000 1.779950 0.000000 
#    z 0.000000 0.000000 1.774530 
# 
# From -- ./inp_files/13072.got.cif
#   From: 2010.06.25/outbox.cif.g09.slc.cpg/sg58_7_cif.got.tgz:13072.got - 2010.06.26 21:38:00.
