data_PCOD8238368
_publ_section_title
;
Structure prediction by ZEFSAII (Michael W. Deem and Ramdas Pophale) SiO2 
 PCOD8238368
Probable space group: P N N M
;
_chemical_formula_sum "Si O2"
_cell_formula_units_Z 48
_cell_length_a 12.050125
_cell_length_b 13.453747
_cell_length_c 14.312169
_cell_angle_alpha 90.000000
_cell_angle_beta 90.000000
_cell_angle_gamma 90.000000
_cell_volume 2320.279293
_symmetry_space_group_name_H-M "P N N M"
_symmetry_group_IT_number 58
_symmetry_cell_setting 'orthorhombic'
loop_
_space_group_symop_operation_xyz
x,y,z
-x,-y,z
1/2+x,1/2-y,1/2-z
1/2-x,1/2+y,1/2-z
-x,-y,-z
x,y,-z
1/2-x,1/2+y,1/2+z
1/2+x,1/2-y,1/2+z
loop_
_atom_site_type_symbol
_atom_site_label
_atom_site_fract_x
_atom_site_fract_y
_atom_site_fract_z
Si Si1 0.602043 0.300667 0.896409
Si Si2 0.323519 0.104169 0.605641
Si Si3 0.598192 0.076039 0.104871
Si Si4 0.023217 0.889363 0.768814
Si Si5 0.453737 0.791549 0.611903
Si Si6 0.230391 0.412220 0.781987
O O1 0.736763 0.303926 0.886094
O O2 0.557061 0.189241 0.880013
O O3 0.551444 0.374948 0.822261
O O4 0.568106 0.337430 0.000000
O O5 0.337643 0.068522 0.500000
O O6 0.444997 0.135927 0.641706
O O7 0.271568 0.011571 0.658471
O O8 0.692940 0.054293 0.178985
O O9 0.500000 0.000000 0.124165
O O10 0.645931 0.062594 0.000000
O O11 0.147380 0.868809 0.732306
O O12 0.986572 0.817935 0.853352
O O13 0.000000 0.000000 0.806132
O O14 0.433846 0.789559 0.500000
O O15 0.345134 0.828445 0.667704
#
# Coordination Sequence:
#
# PCOD8238368 Si02
#       6
#     8   8   8   8   8   8
#     4  10  21  41  66  94 128 167 217 269 326 390
#     4  10  21  40  69  98 128 170 218 277 337 389
#     4  10  21  40  66  98 130 167 215 268 323 385
#     4  12  26  43  65  95 134 177 220 266 340 408
#     4  11  25  44  67  98 134 172 220 279 339 397
#     4  12  23  40  70  96 132 169 223 275 329 399
#
# _framework density 20.687163999999999
#
# number of rings (size 3 to 8) (size 9 to 14) (size 15 to 20)
#    0.000    1.167    3.333    3.000    0.000    5.333 
#    0.000    0.000    0.000    0.000    0.000    0.000 
#    0.000    0.000    0.000    0.000    0.000    0.000 
#
# Total GULP energy -595147.137639 kJ/mol
# GULP energy per Si atom -12398.898701 kJ/mol
# Density = 2.064008 g / cm^3
# Si number density = 20.687164 Si / 1000 Ang^3
#
#
#
# Elastic Constant Matrix: (Units=GPa)
#
#
# Indices 1 2 3 4 5 6 
#
# 1 116.0084 35.4573 45.4316 0.0000 0.0000 0.0000
# 2 35.4573 109.1085 27.3480 0.0000 0.0000 0.0000
# 3 45.4316 27.3480 98.1457 0.0000 0.0000 0.0000
# 4 0.0000 0.0000 0.0000 30.4607 0.0000 0.0000
# 5 0.0000 0.0000 0.0000 0.0000 -2.8847 0.0000
# 6 0.0000 0.0000 0.0000 0.0000 0.0000 29.5605
#
#
#
# Elastic Compliance Matrix: (Units=1/GPa)
#
#
# Indices 1 2 3 4 5 6 
#
# 1 0.011129 -0.002500 -0.004455 0.000000 0.000000 0.000000
# 2 -0.002500 0.010415 -0.001745 0.000000 0.000000 0.000000
# 3 -0.004455 -0.001745 0.012737 0.000000 0.000000 0.000000
# 4 0.000000 0.000000 0.000000 0.032829 0.000000 0.000000
# 5 0.000000 0.000000 0.000000 0.000000 -0.346651 0.000000
# 6 0.000000 0.000000 0.000000 0.000000 0.000000 0.033829
#
#
# Mechanical properties :
#
#
# Convention : Reuss Voigt Hill
#
# Bulk Modulus (GPa) = 59.23602 59.97069 59.60336
# Shear Modulus (GPa) = -22.45323 25.76232 1.65455
#
# Velocity S-wave (km/s) = -3.29807 3.53275 0.89528
# Velocity P-wave (km/s) = 3.76740 6.75964 5.47202
#
# Compressibility (1/GPa) = 0.01688162
#
# Stress axis : x y z
#
# Youngs Moduli (GPa) = 89.85686 96.01576 78.50944
#
# Poissons Ratio (x) = 0.24003 0.34975
# Poissons Ratio (y) = 0.22464 0.13699
# Poissons Ratio (z) = 0.40031 0.16754
#
# Static dielectric constant tensor:
#      x y z
#    x 3.821550 0.000000 0.000000 
#    y 0.000000 3.654050 0.000000 
#    z 0.000000 0.000000 3.957570 
# 
# 
# High freq. dielectric constant tensor:
#      x y z
#    x 1.803440 0.000000 0.000000 
#    y 0.000000 1.809100 0.000000 
#    z 0.000000 0.000000 1.824050 
# 
# From -- ./inp_files/21136.got.cif
#   From: 2010.06.25/outbox.cif.g09.slc.cpg/sg58_11_cif.got.tgz:21136.got - 2010.06.26 21:38:00.
