data_PCOD8238184
_publ_section_title
;
Structure prediction by ZEFSAII (Michael W. Deem and Ramdas Pophale) SiO2 
 PCOD8238184
Probable space group: P N N M
;
_chemical_formula_sum "Si O2"
_cell_formula_units_Z 52
_cell_length_a 14.489471
_cell_length_b 6.309114
_cell_length_c 28.997683
_cell_angle_alpha 90.000000
_cell_angle_beta 90.000000
_cell_angle_gamma 90.000000
_cell_volume 2650.844196
_symmetry_space_group_name_H-M "P N N M"
_symmetry_group_IT_number 58
_symmetry_cell_setting 'orthorhombic'
loop_
_space_group_symop_operation_xyz
x,y,z
-x,-y,z
1/2+x,1/2-y,1/2-z
1/2-x,1/2+y,1/2-z
-x,-y,-z
x,y,-z
1/2-x,1/2+y,1/2+z
1/2+x,1/2-y,1/2+z
loop_
_atom_site_type_symbol
_atom_site_label
_atom_site_fract_x
_atom_site_fract_y
_atom_site_fract_z
Si Si1 0.099001 0.897751 0.626461
Si Si2 0.772414 0.723340 0.384224
Si Si3 0.858546 0.677035 0.778455
Si Si4 0.105970 0.558519 0.553608
Si Si5 0.000000 0.000000 0.808080
Si Si6 0.414479 0.123545 0.637760
Si Si7 0.318677 0.090367 0.806099
O O1 0.125462 0.780859 0.578623
O O2 0.103439 0.728965 0.668070
O O3 0.171924 0.079972 0.636005
O O4 0.000000 0.000000 0.622929
O O5 0.824505 0.624478 0.428394
O O6 0.669823 0.813837 0.396681
O O7 0.764259 0.552318 0.343313
O O8 0.879284 0.531459 0.822201
O O9 0.754104 0.759000 0.780587
O O10 0.872626 0.546519 0.731619
O O11 0.929002 0.873743 0.775536
O O12 0.125283 0.589504 0.500000
O O13 0.000000 0.500000 0.564099
O O14 0.945760 0.156543 0.841173
O O15 0.500000 0.000000 0.612294
#
# Coordination Sequence:
#
# PCOD8238184 Si02
#       7
#     8   8   8   8   4   8   8
#     4  11  23  41  58  87 123 161 198 245 304 363
#     4  11  21  41  61  84 121 155 195 250 303 356
#     4  11  22  40  55  82 113 160 204 259 298 346
#     4  10  22  39  63  95 123 155 198 239 296 379
#     4  10  22  40  56  80 115 150 217 258 294 348
#     4  10  21  38  61  86 111 154 207 253 299 351
#     4  11  24  37  58  80 118 158 207 247 305 356
#
# _framework density 19.616391
#
# number of rings (size 3 to 8) (size 9 to 14) (size 15 to 20)
#    0.000    1.385    4.615    0.923    0.000    0.923 
#   11.077    0.000    0.000    0.462    0.000    1.615 
#    0.000    0.000    0.000    0.000    0.000    0.000 
#
# Total GULP energy -644805.179518 kJ/mol
# GULP energy per Si atom -12400.099606 kJ/mol
# Density = 1.957174 g / cm^3
# Si number density = 19.616391 Si / 1000 Ang^3
#
#
#
# Elastic Constant Matrix: (Units=GPa)
#
#
# Indices 1 2 3 4 5 6 
#
# 1 129.3627 52.8709 38.8243 0.0000 0.0000 0.0000
# 2 52.8709 117.7299 38.6756 0.0000 0.0000 0.0000
# 3 38.8243 38.6756 87.0127 0.0000 0.0000 0.0000
# 4 0.0000 0.0000 0.0000 1.4082 0.0000 0.0000
# 5 0.0000 0.0000 0.0000 0.0000 59.5654 0.0000
# 6 0.0000 0.0000 0.0000 0.0000 0.0000 40.1380
#
#
#
# Elastic Compliance Matrix: (Units=1/GPa)
#
#
# Indices 1 2 3 4 5 6 
#
# 1 0.010058 -0.003563 -0.002904 0.000000 0.000000 0.000000
# 2 -0.003563 0.011208 -0.003392 0.000000 0.000000 0.000000
# 3 -0.002904 -0.003392 0.014296 0.000000 0.000000 0.000000
# 4 0.000000 0.000000 0.000000 0.710134 0.000000 0.000000
# 5 0.000000 0.000000 0.000000 0.000000 0.016788 0.000000
# 6 0.000000 0.000000 0.000000 0.000000 0.000000 0.024914
#
#
# Mechanical properties :
#
#
# Convention : Reuss Voigt Hill
#
# Bulk Modulus (GPa) = 63.11502 66.09409 64.60456
# Shear Modulus (GPa) = 6.15461 33.80462 19.97962
#
# Velocity S-wave (km/s) = 1.77322 4.15575 3.19488
# Velocity P-wave (km/s) = 6.03630 7.53614 6.82753
#
# Compressibility (1/GPa) = 0.01584409
#
# Stress axis : x y z
#
# Youngs Moduli (GPa) = 99.42399 89.21850 69.94882
#
# Poissons Ratio (x) = 0.31787 0.20314
# Poissons Ratio (y) = 0.35423 0.23728
# Poissons Ratio (z) = 0.28874 0.30265
#
# Static dielectric constant tensor:
#      x y z
#    x 3.895970 0.000000 0.000000 
#    y 0.000000 3.935840 0.000000 
#    z 0.000000 0.000000 3.166140 
# 
# 
# High freq. dielectric constant tensor:
#      x y z
#    x 1.772160 0.000000 0.000000 
#    y 0.000000 1.790950 0.000000 
#    z 0.000000 0.000000 1.716280 
# 
# From -- ./inp_files/35031.got.cif
#   From: 2010.06.25/outbox.cif.g09.slc.cpg/sg58_18_cif.got.tgz:35031.got - 2010.06.26 21:38:00.
