data_PCOD8238414
_publ_section_title
;
Structure prediction by ZEFSAII (Michael W. Deem and Ramdas Pophale) SiO2 
 PCOD8238414
Probable space group: P N N M
;
_chemical_formula_sum "Si O2"
_cell_formula_units_Z 48
_cell_length_a 8.515567
_cell_length_b 15.222190
_cell_length_c 17.199815
_cell_angle_alpha 90.000000
_cell_angle_beta 90.000000
_cell_angle_gamma 90.000000
_cell_volume 2229.535975
_symmetry_space_group_name_H-M "P N N M"
_symmetry_group_IT_number 58
_symmetry_cell_setting 'orthorhombic'
loop_
_space_group_symop_operation_xyz
x,y,z
-x,-y,z
1/2+x,1/2-y,1/2-z
1/2-x,1/2+y,1/2-z
-x,-y,-z
x,y,-z
1/2-x,1/2+y,1/2+z
1/2+x,1/2-y,1/2+z
loop_
_atom_site_type_symbol
_atom_site_label
_atom_site_fract_x
_atom_site_fract_y
_atom_site_fract_z
Si Si1 0.179407 0.988487 0.228443
Si Si2 0.115228 0.873122 0.500000
Si Si3 0.359617 0.809787 0.257843
Si Si4 0.155930 0.545907 0.412952
Si Si5 0.889482 0.263872 0.362391
Si Si6 0.269444 0.560195 0.000000
Si Si7 0.603718 0.917759 0.346677
O O1 0.242606 0.889959 0.238115
O O2 0.196504 0.016451 0.138546
O O3 0.277979 0.057496 0.278136
O O4 0.000000 0.000000 0.254659
O O5 0.130617 0.818032 0.420485
O O6 0.949362 0.917788 0.500000
O O7 0.244520 0.952506 0.500000
O O8 0.250871 0.737514 0.299072
O O9 0.440533 0.767087 0.181187
O O10 0.497394 0.837618 0.317145
O O11 0.186721 0.512231 0.500000
O O12 0.130190 0.649679 0.413677
O O13 0.000000 0.500000 0.377292
O O14 0.194151 0.607301 0.925155
O O15 0.500000 0.000000 0.369964
#
# Coordination Sequence:
#
# PCOD8238414 Si02
#       7
#     8   4   8   8   8   4   8
#     4  11  23  41  70  98 129 180 234 279 339 417
#     4  11  26  42  67 106 139 183 224 288 354 411
#     4  11  26  41  70  99 138 179 228 287 344 408
#     4  11  22  45  73  95 132 182 230 280 343 414
#     4  12  25  45  66 103 138 181 230 283 350 405
#     4  11  25  42  70 100 141 182 233 275 345 421
#     4  10  21  42  66  96 130 177 227 278 335 411
#
# _framework density 21.529143999999999
#
# number of rings (size 3 to 8) (size 9 to 14) (size 15 to 20)
#    0.000    1.000    4.167    2.750    9.333    1.000 
#    0.000    0.000    0.000    0.000    0.000    0.000 
#    0.000    0.000    0.000    0.000    0.000    0.000 
#
# Total GULP energy -595264.424597 kJ/mol
# GULP energy per Si atom -12401.342179 kJ/mol
# Density = 2.148014 g / cm^3
# Si number density = 21.529144 Si / 1000 Ang^3
#
#
#
# Elastic Constant Matrix: (Units=GPa)
#
#
# Indices 1 2 3 4 5 6 
#
# 1 107.9993 21.4672 33.2163 0.0000 0.0000 0.0000
# 2 21.4672 72.4282 18.6146 0.0000 0.0000 0.0000
# 3 33.2163 18.6146 109.2799 0.0000 0.0000 0.0000
# 4 0.0000 0.0000 0.0000 8.0331 0.0000 0.0000
# 5 0.0000 0.0000 0.0000 0.0000 26.0351 0.0000
# 6 0.0000 0.0000 0.0000 0.0000 0.0000 33.3145
#
#
#
# Elastic Compliance Matrix: (Units=1/GPa)
#
#
# Indices 1 2 3 4 5 6 
#
# 1 0.010605 -0.002421 -0.002811 0.000000 0.000000 0.000000
# 2 -0.002421 0.014991 -0.001818 0.000000 0.000000 0.000000
# 3 -0.002811 -0.001818 0.010315 0.000000 0.000000 0.000000
# 4 0.000000 0.000000 0.000000 0.124485 0.000000 0.000000
# 5 0.000000 0.000000 0.000000 0.000000 0.038410 0.000000
# 6 0.000000 0.000000 0.000000 0.000000 0.000000 0.030017
#
#
# Mechanical properties :
#
#
# Convention : Reuss Voigt Hill
#
# Bulk Modulus (GPa) = 45.84631 48.47819 47.16225
# Shear Modulus (GPa) = 19.98452 27.90382 23.94417
#
# Velocity S-wave (km/s) = 3.05003 3.60404 3.33855
# Velocity P-wave (km/s) = 5.80903 6.31547 6.06753
#
# Compressibility (1/GPa) = 0.02181201
#
# Stress axis : x y z
#
# Youngs Moduli (GPa) = 94.29425 66.70460 96.94696
#
# Poissons Ratio (x) = 0.16148 0.27253
# Poissons Ratio (y) = 0.22827 0.17623
# Poissons Ratio (z) = 0.26507 0.12126
#
# Static dielectric constant tensor:
#      x y z
#    x 3.946600 0.000000 0.000000 
#    y 0.000000 3.812330 0.000000 
#    z 0.000000 0.000000 3.876570 
# 
# 
# High freq. dielectric constant tensor:
#      x y z
#    x 1.842550 0.000000 0.000000 
#    y 0.000000 1.838380 0.000000 
#    z 0.000000 0.000000 1.853690 
# 
# From -- ./inp_files/25327.got.cif
#   From: 2010.06.25/outbox.cif.g09.slc.cpg/sg58_13_cif.got.tgz:25327.got - 2010.06.26 21:38:00.
