data_PCOD8238658
_publ_section_title
;
Structure prediction by ZEFSAII (Michael W. Deem and Ramdas Pophale) SiO2 
 PCOD8238658
Probable space group: P N N M
;
_chemical_formula_sum "Si O2"
_cell_formula_units_Z 44
_cell_length_a 8.983173
_cell_length_b 10.584562
_cell_length_c 22.791884
_cell_angle_alpha 90.000000
_cell_angle_beta 90.000000
_cell_angle_gamma 90.000000
_cell_volume 2167.119603
_symmetry_space_group_name_H-M "P N N M"
_symmetry_group_IT_number 58
_symmetry_cell_setting 'orthorhombic'
loop_
_space_group_symop_operation_xyz
x,y,z
-x,-y,z
1/2+x,1/2-y,1/2-z
1/2-x,1/2+y,1/2-z
-x,-y,-z
x,y,-z
1/2-x,1/2+y,1/2+z
1/2+x,1/2-y,1/2+z
loop_
_atom_site_type_symbol
_atom_site_label
_atom_site_fract_x
_atom_site_fract_y
_atom_site_fract_z
Si Si1 0.267869 0.598905 0.500000
Si Si2 0.979091 0.856771 0.800490
Si Si3 0.007470 0.299560 0.000000
Si Si4 0.965844 0.355261 0.593621
Si Si5 0.179961 0.769432 0.696219
Si Si6 0.072136 0.372071 0.873766
Si Si7 0.801491 0.691220 0.500000
O O1 0.433681 0.654675 0.500000
O O2 0.187722 0.655657 0.557639
O O3 0.267483 0.448678 0.500000
O O4 0.097277 0.840147 0.748448
O O5 0.806718 0.830292 0.780665
O O6 0.017472 0.754100 0.851471
O O7 0.000000 0.000000 0.824432
O O8 0.828402 0.294812 0.000000
O O9 0.070025 0.374988 0.055871
O O10 0.947966 0.298000 0.658117
O O11 0.000000 0.500000 0.602020
O O12 0.098897 0.287678 0.558054
O O13 0.261127 0.870773 0.653341
O O14 0.000000 0.500000 0.848852
#
# Coordination Sequence:
#
# PCOD8238658 Si02
#       7
#     4   8   4   8   8   8   4
#     4   9  15  34  56  86 130 167 215 257 322 376
#     4  10  25  43  68 100 125 169 230 267 328 389
#     4  12  20  38  63  95 128 167 225 267 321 403
#     4   9  18  36  56  88 130 176 209 258 336 384
#     4  10  23  41  66  93 133 171 211 282 323 392
#     4  10  25  42  67  91 133 178 212 267 337 390
#     4   9  21  30  57  93 128 170 219 272 318 392
#
# _framework density 20.303446999999998
#
# number of rings (size 3 to 8) (size 9 to 14) (size 15 to 20)
#    1.091    1.091    1.818    1.636    2.545    8.000 
#    0.000    0.000    0.000    1.091    0.000    0.000 
#    0.000    0.000    0.000    0.000    0.000    0.000 
#
# Total GULP energy -545253.392289 kJ/mol
# GULP energy per Si atom -12392.122552 kJ/mol
# Density = 2.025724 g / cm^3
# Si number density = 20.303447 Si / 1000 Ang^3
#
#
#
# Elastic Constant Matrix: (Units=GPa)
#
#
# Indices 1 2 3 4 5 6 
#
# 1 96.7823 27.8315 31.0148 0.0000 0.0000 0.0000
# 2 27.8315 96.7688 36.0091 0.0000 0.0000 0.0000
# 3 31.0148 36.0091 102.6469 0.0000 0.0000 0.0000
# 4 0.0000 0.0000 0.0000 18.7958 0.0000 0.0000
# 5 0.0000 0.0000 0.0000 0.0000 31.7364 0.0000
# 6 0.0000 0.0000 0.0000 0.0000 0.0000 20.6935
#
#
#
# Elastic Compliance Matrix: (Units=1/GPa)
#
#
# Indices 1 2 3 4 5 6 
#
# 1 0.011905 -0.002399 -0.002756 0.000000 0.000000 0.000000
# 2 -0.002399 0.012369 -0.003614 0.000000 0.000000 0.000000
# 3 -0.002756 -0.003614 0.011843 0.000000 0.000000 0.000000
# 4 0.000000 0.000000 0.000000 0.053203 0.000000 0.000000
# 5 0.000000 0.000000 0.000000 0.000000 0.031510 0.000000
# 6 0.000000 0.000000 0.000000 0.000000 0.000000 0.048324
#
#
# Mechanical properties :
#
#
# Convention : Reuss Voigt Hill
#
# Bulk Modulus (GPa) = 53.82289 53.98987 53.90638
# Shear Modulus (GPa) = 25.92228 27.66799 26.79513
#
# Velocity S-wave (km/s) = 3.57703 3.69551 3.63675
# Velocity P-wave (km/s) = 6.60507 6.69763 6.65151
#
# Compressibility (1/GPa) = 0.01857945
#
# Stress axis : x y z
#
# Youngs Moduli (GPa) = 83.99591 80.84924 84.44026
#
# Poissons Ratio (x) = 0.19393 0.23270
# Poissons Ratio (y) = 0.20147 0.30519
# Poissons Ratio (z) = 0.23147 0.29221
#
# Static dielectric constant tensor:
#      x y z
#    x 3.595320 0.000000 0.000000 
#    y 0.000000 3.381470 0.000000 
#    z 0.000000 0.000000 3.656290 
# 
# 
# High freq. dielectric constant tensor:
#      x y z
#    x 1.787340 0.000000 0.000000 
#    y 0.000000 1.771490 0.000000 
#    z 0.000000 0.000000 1.788670 
# 
# From -- ./inp_files/31414.got.cif
#   From: 2010.06.25/outbox.cif.g09.slc.cpg/sg58_16_cif.got.tgz:31414.got - 2010.06.26 21:38:00.
