data_PCOD8238099
_publ_section_title
;
Structure prediction by ZEFSAII (Michael W. Deem and Ramdas Pophale) SiO2 
 PCOD8238099
Probable space group: P N N M
;
_chemical_formula_sum "Si O2"
_cell_formula_units_Z 64
_cell_length_a 24.622187
_cell_length_b 14.676861
_cell_length_c 8.674500
_cell_angle_alpha 90.000000
_cell_angle_beta 90.000000
_cell_angle_gamma 90.000000
_cell_volume 3134.759722
_symmetry_space_group_name_H-M "P N N M"
_symmetry_group_IT_number 58
_symmetry_cell_setting 'orthorhombic'
loop_
_space_group_symop_operation_xyz
x,y,z
-x,-y,z
1/2+x,1/2-y,1/2-z
1/2-x,1/2+y,1/2-z
-x,-y,-z
x,y,-z
1/2-x,1/2+y,1/2+z
1/2+x,1/2-y,1/2+z
loop_
_atom_site_type_symbol
_atom_site_label
_atom_site_fract_x
_atom_site_fract_y
_atom_site_fract_z
Si Si1 0.235135 0.176071 0.674837
Si Si2 0.126623 0.438746 0.321376
Si Si3 0.937306 0.257834 0.680291
Si Si4 0.052223 0.947274 0.317079
Si Si5 0.830215 0.996456 0.316984
Si Si6 0.643958 0.877665 0.326751
Si Si7 0.981256 0.601734 0.821107
Si Si8 0.236268 0.368878 0.180486
O O1 0.221669 0.208280 0.500000
O O2 0.190542 0.103610 0.736848
O O3 0.291513 0.122199 0.677328
O O4 0.240468 0.261511 0.787390
O O5 0.116533 0.420714 0.500000
O O6 0.120464 0.545411 0.285300
O O7 0.081404 0.383712 0.225591
O O8 0.185644 0.406082 0.274033
O O9 0.925115 0.259458 0.500000
O O10 0.954077 0.157162 0.734077
O O11 0.881410 0.282851 0.768144
O O12 0.984767 0.327110 0.721983
O O13 0.052911 0.957773 0.500000
O O14 0.109136 0.987496 0.250464
O O15 0.000000 0.000000 0.247470
O O16 0.830776 0.999119 0.500000
O O17 0.789947 0.077492 0.260412
O O18 0.623315 0.898305 0.500000
O O19 0.000000 0.500000 0.778445
O O20 0.989484 0.623400 0.000000
O O21 0.226784 0.385591 0.000000
#
# Coordination Sequence:
#
# PCOD8238099 Si02
#       8
#     8   8   8   8   8   8   8   8
#     4  10  21  37  59  87 119 161 210 253 300 362
#     4  12  24  38  60  88 120 156 200 254 304 362
#     4  11  22  36  60  93 121 156 209 261 305 364
#     4   9  19  36  59  88 120 157 203 254 304 352
#     4   9  18  36  59  82 119 163 203 249 304 364
#     4  11  21  37  59  86 122 163 203 250 310 368
#     4  11  23  39  60  85 121 165 199 241 306 371
#     4  11  22  39  60  87 124 164 202 248 311 374
#
# _framework density 20.416236999999999
#
# number of rings (size 3 to 8) (size 9 to 14) (size 15 to 20)
#    0.000    1.500    2.500    3.375    0.000    3.500 
#    0.000    2.500    0.000    3.000    0.000    0.000 
#    0.000    0.000    0.000    0.000    0.000    0.000 
#
# Total GULP energy -793696.632614 kJ/mol
# GULP energy per Si atom -12401.509885 kJ/mol
# Density = 2.036977 g / cm^3
# Si number density = 20.416237 Si / 1000 Ang^3
#
#
#
# Elastic Constant Matrix: (Units=GPa)
#
#
# Indices 1 2 3 4 5 6 
#
# 1 142.7252 51.3898 16.3719 0.0000 0.0000 0.0000
# 2 51.3898 105.3490 13.3104 0.0000 0.0000 0.0000
# 3 16.3719 13.3104 46.1217 0.0000 0.0000 0.0000
# 4 0.0000 0.0000 0.0000 26.6262 0.0000 0.0000
# 5 0.0000 0.0000 0.0000 0.0000 24.6297 0.0000
# 6 0.0000 0.0000 0.0000 0.0000 0.0000 34.2044
#
#
#
# Elastic Compliance Matrix: (Units=1/GPa)
#
#
# Indices 1 2 3 4 5 6 
#
# 1 0.008661 -0.003982 -0.001925 0.000000 0.000000 0.000000
# 2 -0.003982 0.011682 -0.001958 0.000000 0.000000 0.000000
# 3 -0.001925 -0.001958 0.022930 0.000000 0.000000 0.000000
# 4 0.000000 0.000000 0.000000 0.037557 0.000000 0.000000
# 5 0.000000 0.000000 0.000000 0.000000 0.040601 0.000000
# 6 0.000000 0.000000 0.000000 0.000000 0.000000 0.029236
#
#
# Mechanical properties :
#
#
# Convention : Reuss Voigt Hill
#
# Bulk Modulus (GPa) = 36.30645 50.70447 43.50546
# Shear Modulus (GPa) = 28.47731 31.30031 29.88881
#
# Velocity S-wave (km/s) = 3.73880 3.91974 3.83034
# Velocity P-wave (km/s) = 6.03821 6.73610 6.39668
#
# Compressibility (1/GPa) = 0.02754332
#
# Stress axis : x y z
#
# Youngs Moduli (GPa) = 115.46086 85.60265 43.61050
#
# Poissons Ratio (x) = 0.34084 0.08396
# Poissons Ratio (y) = 0.45972 0.08539
# Poissons Ratio (z) = 0.22230 0.16761
#
# Static dielectric constant tensor:
#      x y z
#    x 3.984810 0.000000 0.000000 
#    y 0.000000 3.769390 0.000000 
#    z 0.000000 0.000000 3.465730 
# 
# 
# High freq. dielectric constant tensor:
#      x y z
#    x 1.810660 0.000000 0.000000 
#    y 0.000000 1.796950 0.000000 
#    z 0.000000 0.000000 1.772840 
# 
# From -- ./inp_files/9980.got.cif
#   From: 2010.06.25/outbox.cif.g09.slc.cpg/sg58_5_cif.got.tgz:9980.got - 2010.06.26 21:38:00.
