data_PCOD8239335
_publ_section_title
;
Structure prediction by ZEFSAII (Michael W. Deem and Ramdas Pophale) SiO2 
 PCOD8239335
Probable space group: P M M N
;
_chemical_formula_sum "Si O2"
_cell_formula_units_Z 56
_cell_length_a 9.422581
_cell_length_b 26.496953
_cell_length_c 14.454149
_cell_angle_alpha 90.000000
_cell_angle_beta 90.000000
_cell_angle_gamma 90.000000
_cell_volume 3608.762841
_symmetry_space_group_name_H-M "P M M N"
_symmetry_group_IT_number 59
_space_group.IT_coordinate_system_code '2'
_symmetry_cell_setting 'orthorhombic'
loop_
_space_group_symop_operation_xyz
x,y,z
1/2-x,1/2-y,z
1/2+x,-y,-z
-x,1/2+y,-z
-x,-y,-z
1/2+x,1/2+y,-z
1/2-x,y,z
x,1/2-y,z
loop_
_atom_site_type_symbol
_atom_site_label
_atom_site_fract_x
_atom_site_fract_y
_atom_site_fract_z
Si Si1 0.587197 0.939510 0.574193
Si Si2 0.915427 0.379363 0.973207
Si Si3 0.085987 0.430321 0.824499
Si Si4 0.415142 0.037162 0.624891
Si Si5 0.916790 0.692043 0.895136
Si Si6 0.089968 0.957246 0.870613
Si Si7 0.587198 0.613049 0.749229
O O1 0.750000 0.956998 0.583166
O O2 0.552886 0.928244 0.466096
O O3 0.559987 0.889375 0.637752
O O4 0.493759 0.984479 0.614067
O O5 0.750000 0.366222 0.960148
O O6 0.988319 0.388361 0.873698
O O7 0.939126 0.430532 0.031513
O O8 0.993025 0.332568 0.022507
O O9 0.250000 0.413505 0.831539
O O10 0.035607 0.433792 0.717395
O O11 0.061461 0.483283 0.877278
O O12 0.250000 0.024051 0.635216
O O13 0.750000 0.685888 0.917020
O O14 0.961007 0.750000 0.885887
O O15 0.959725 0.665652 0.797015
O O16 0.250000 0.946770 0.838137
O O17 0.991265 0.934569 0.792194
O O18 0.750000 0.604109 0.772784
#
# Coordination Sequence:
#
# PCOD8239335 Si02
#       7
#     8   8   8   8   8   8   8
#     4   9  16  26  40  61  86 114 147 181 215 248
#     4  10  20  30  43  63  86 111 143 183 222 256
#     4  10  18  28  41  58  85 121 154 179 209 253
#     4   9  17  27  40  58  85 120 152 179 209 248
#     4   9  18  33  50  66  85 110 139 173 218 272
#     4   9  17  28  40  58  85 117 148 177 210 253
#     4   9  16  26  43  65  87 111 142 179 218 259
#
# _framework density 15.517783
#
# number of rings (size 3 to 8) (size 9 to 14) (size 15 to 20)
#    0.000    2.714    1.429    0.857    0.000    2.000 
#    0.000    0.000    0.000    0.000    0.000    1.000 
#    0.000    5.714    0.000    0.143    0.000    0.429 
#
# Total GULP energy -693951.470070 kJ/mol
# GULP energy per Si atom -12391.990537 kJ/mol
# Density = 1.548246 g / cm^3
# Si number density = 15.517783 Si / 1000 Ang^3
#
#
#
# Elastic Constant Matrix: (Units=GPa)
#
#
# Indices 1 2 3 4 5 6 
#
# 1 49.0945 33.0530 43.0631 0.0000 0.0000 0.0000
# 2 33.0530 67.8879 53.8114 0.0000 0.0000 0.0000
# 3 43.0631 53.8114 127.3293 0.0000 0.0000 0.0000
# 4 0.0000 0.0000 0.0000 14.6149 0.0000 0.0000
# 5 0.0000 0.0000 0.0000 0.0000 18.6013 0.0000
# 6 0.0000 0.0000 0.0000 0.0000 0.0000 17.7540
#
#
#
# Elastic Compliance Matrix: (Units=1/GPa)
#
#
# Indices 1 2 3 4 5 6 
#
# 1 0.033734 -0.011099 -0.006718 0.000000 0.000000 0.000000
# 2 -0.011099 0.025802 -0.007151 0.000000 0.000000 0.000000
# 3 -0.006718 -0.007151 0.013148 0.000000 0.000000 0.000000
# 4 0.000000 0.000000 0.000000 0.068423 0.000000 0.000000
# 5 0.000000 0.000000 0.000000 0.000000 0.053760 0.000000
# 6 0.000000 0.000000 0.000000 0.000000 0.000000 0.056325
#
#
# Mechanical properties :
#
#
# Convention : Reuss Voigt Hill
#
# Bulk Modulus (GPa) = 43.95996 56.01852 49.98924
# Shear Modulus (GPa) = 16.19636 17.81965 17.00800
#
# Velocity S-wave (km/s) = 3.23418 3.39239 3.31423
# Velocity P-wave (km/s) = 6.50668 7.17791 6.85052
#
# Compressibility (1/GPa) = 0.02274797
#
# Stress axis : x y z
#
# Youngs Moduli (GPa) = 29.64333 38.75667 76.05838
#
# Poissons Ratio (x) = 0.43016 0.51099
# Poissons Ratio (y) = 0.32901 0.54386
# Poissons Ratio (z) = 0.19916 0.27713
#
# Static dielectric constant tensor:
#      x y z
#    x 3.027240 0.000000 0.000000 
#    y 0.000000 2.665920 0.000000 
#    z 0.000000 0.000000 3.220180 
# 
# 
# High freq. dielectric constant tensor:
#      x y z
#    x 1.600930 0.000000 0.000000 
#    y 0.000000 1.545430 0.000000 
#    z 0.000000 0.000000 1.600270 
# 
# From -- ./inp_files/21764.got.cif
#   From: 2010.03.12/outbox.cif.g09.slc.cpg/sg59_11_cif.got.tgz:21764.got - 2010.04.16 16:29:54.
