data_PCOD8239548
_publ_section_title
;
Structure prediction by ZEFSAII (Michael W. Deem and Ramdas Pophale) SiO2 
 PCOD8239548
Probable space group: P M M N
;
_chemical_formula_sum "Si O2"
_cell_formula_units_Z 64
_cell_length_a 9.510873
_cell_length_b 24.696100
_cell_length_c 14.892414
_cell_angle_alpha 90.000000
_cell_angle_beta 90.000000
_cell_angle_gamma 90.000000
_cell_volume 3497.952103
_symmetry_space_group_name_H-M "P M M N"
_symmetry_group_IT_number 59
_space_group.IT_coordinate_system_code '2'
_symmetry_cell_setting 'orthorhombic'
loop_
_space_group_symop_operation_xyz
x,y,z
1/2-x,1/2-y,z
1/2+x,-y,-z
-x,1/2+y,-z
-x,-y,-z
1/2+x,1/2+y,-z
1/2-x,y,z
x,1/2-y,z
loop_
_atom_site_type_symbol
_atom_site_label
_atom_site_fract_x
_atom_site_fract_y
_atom_site_fract_z
Si Si1 0.909876 0.187810 0.588705
Si Si2 0.911847 0.691636 0.909687
Si Si3 0.594364 0.492385 0.746919
Si Si4 0.082399 0.115485 0.247157
Si Si5 0.092376 0.365977 0.915197
Si Si6 0.914104 0.611475 0.286378
Si Si7 0.901877 0.460518 0.949445
Si Si8 0.089842 0.812099 0.621119
O O1 0.750000 0.174340 0.618316
O O2 0.944779 0.250000 0.611802
O O3 0.929054 0.176835 0.483932
O O4 0.018491 0.149861 0.639872
O O5 0.750000 0.695220 0.883223
O O6 0.983503 0.750000 0.886667
O O7 0.972215 0.642587 0.847325
O O8 0.924939 0.685039 0.018364
O O9 0.750000 0.488038 0.700355
O O10 0.530921 0.553255 0.740596
O O11 0.486897 0.447761 0.707490
O O12 0.616597 0.480950 0.850029
O O13 0.250000 0.116433 0.253525
O O14 0.017886 0.149360 0.328299
O O15 0.250000 0.390773 0.926232
O O16 0.064236 0.357404 0.809215
O O17 0.972875 0.403020 0.955403
O O18 0.750000 0.603096 0.307332
O O19 0.750000 0.457117 0.996907
O O20 0.000000 0.500000 0.000000
O O21 0.250000 0.824888 0.650041
O O22 0.052838 0.750000 0.643659
#
# Coordination Sequence:
#
# PCOD8239548 Si02
#       8
#     8   8   8   8   8   8   8   8
#     4   9  19  37  59  79 102 136 171 202 250 318
#     4   9  17  30  49  73 103 139 174 207 251 309
#     4   9  19  34  50  70 101 140 176 210 256 316
#     4  10  19  32  53  78 101 132 176 219 255 297
#     4   9  18  32  48  69 100 135 168 202 245 298
#     4  10  20  33  53  81 108 134 171 221 263 296
#     4  10  18  29  47  68  92 126 168 212 252 291
#     4   9  19  36  56  78 104 134 168 208 259 315
#
# _framework density 18.296420000000001
#
# number of rings (size 3 to 8) (size 9 to 14) (size 15 to 20)
#    0.000    2.625    0.000    2.625    0.000    5.500 
#    0.000    5.000    0.000    1.125    0.000    0.000 
#    0.000    0.000    0.000    0.000    0.000    0.000 
#
# Total GULP energy -792866.300341 kJ/mol
# GULP energy per Si atom -12388.535943 kJ/mol
# Density = 1.825478 g / cm^3
# Si number density = 18.296420 Si / 1000 Ang^3
#
#
#
# Elastic Constant Matrix: (Units=GPa)
#
#
# Indices 1 2 3 4 5 6 
#
# 1 73.2148 45.4550 22.6531 0.0000 0.0000 0.0000
# 2 45.4550 122.9579 49.0577 0.0000 0.0000 0.0000
# 3 22.6531 49.0577 55.5195 0.0000 0.0000 0.0000
# 4 0.0000 0.0000 0.0000 24.8068 0.0000 0.0000
# 5 0.0000 0.0000 0.0000 0.0000 28.3062 0.0000
# 6 0.0000 0.0000 0.0000 0.0000 0.0000 40.6451
#
#
#
# Elastic Compliance Matrix: (Units=1/GPa)
#
#
# Indices 1 2 3 4 5 6 
#
# 1 0.017907 -0.005722 -0.002250 0.000000 0.000000 0.000000
# 2 -0.005722 0.014390 -0.010380 0.000000 0.000000 0.000000
# 3 -0.002250 -0.010380 0.028102 0.000000 0.000000 0.000000
# 4 0.000000 0.000000 0.000000 0.040312 0.000000 0.000000
# 5 0.000000 0.000000 0.000000 0.000000 0.035328 0.000000
# 6 0.000000 0.000000 0.000000 0.000000 0.000000 0.024603
#
#
# Mechanical properties :
#
#
# Convention : Reuss Voigt Hill
#
# Bulk Modulus (GPa) = 42.20565 54.00264 48.10415
# Shear Modulus (GPa) = 24.36116 27.72004 26.04060
#
# Velocity S-wave (km/s) = 3.65289 3.89659 3.77671
# Velocity P-wave (km/s) = 6.39604 7.05861 6.73548
#
# Compressibility (1/GPa) = 0.02369351
#
# Stress axis : x y z
#
# Youngs Moduli (GPa) = 55.84330 69.49438 35.58477
#
# Poissons Ratio (x) = 0.39765 0.08008
# Poissons Ratio (y) = 0.31954 0.36937
# Poissons Ratio (z) = 0.12567 0.72136
#
# Static dielectric constant tensor:
#      x y z
#    x 3.574910 0.000000 0.000000 
#    y 0.000000 3.348470 0.000000 
#    z 0.000000 0.000000 3.072960 
# 
# 
# High freq. dielectric constant tensor:
#      x y z
#    x 1.702210 0.000000 0.000000 
#    y 0.000000 1.707600 0.000000 
#    z 0.000000 0.000000 1.696240 
# 
# From -- ./inp_files/21493.got.cif
#   From: 2010.03.12/outbox.cif.g09.slc.cpg/sg59_11_cif.got.tgz:21493.got - 2010.04.16 16:29:54.
