data_PCOD8239874
_publ_section_title
;
Structure prediction by ZEFSAII (Michael W. Deem and Ramdas Pophale) SiO2 
 PCOD8239874
Probable space group: P M M N
;
_chemical_formula_sum "Si O2"
_cell_formula_units_Z 48
_cell_length_a 15.536346
_cell_length_b 8.715690
_cell_length_c 18.696110
_cell_angle_alpha 90.000000
_cell_angle_beta 90.000000
_cell_angle_gamma 90.000000
_cell_volume 2531.639796
_symmetry_space_group_name_H-M "P M M N"
_symmetry_group_IT_number 59
_space_group.IT_coordinate_system_code '2'
_symmetry_cell_setting 'orthorhombic'
loop_
_space_group_symop_operation_xyz
x,y,z
1/2-x,1/2-y,z
1/2+x,-y,-z
-x,1/2+y,-z
-x,-y,-z
1/2+x,1/2+y,-z
1/2-x,y,z
x,1/2-y,z
loop_
_atom_site_type_symbol
_atom_site_label
_atom_site_fract_x
_atom_site_fract_y
_atom_site_fract_z
Si Si1 0.154446 0.925456 0.089966
Si Si2 0.003904 0.568551 0.671338
Si Si3 0.848162 0.070464 0.590226
Si Si4 0.083653 0.432048 0.962087
Si Si5 0.654598 0.432586 0.428805
Si Si6 0.004187 0.568697 0.833268
O O1 0.250000 0.934812 0.123201
O O2 0.121964 0.750000 0.085513
O O3 0.090501 0.019290 0.140697
O O4 0.160492 0.997079 0.009517
O O5 0.006224 0.750000 0.667640
O O6 0.911441 0.515405 0.643706
O O7 0.016921 0.511596 0.752316
O O8 0.081940 0.498589 0.623864
O O9 0.750000 0.032371 0.612302
O O10 0.866076 0.250000 0.596167
O O11 0.865714 0.012297 0.509418
O O12 0.087531 0.250000 0.964332
O O13 0.080441 0.490268 0.880062
O O14 0.000000 0.500000 0.000000
O O15 0.750000 0.491118 0.405675
O O16 0.654110 0.250000 0.426762
O O17 0.012387 0.750000 0.840548
#
# Coordination Sequence:
#
# PCOD8239874 Si02
#       6
#     8   8   8   8   8   8
#     4  10  20  34  53  75  97 125 164 205 244 292
#     4  10  20  32  50  76 103 135 172 210 255 303
#     4   9  18  32  51  74 100 133 171 211 257 308
#     4  10  18  31  52  72  93 123 158 195 237 285
#     4   8  15  31  53  74  97 128 170 216 258 304
#     4  10  20  33  48  70 102 133 163 200 245 298
#
# _framework density 18.960042999999999
#
# number of rings (size 3 to 8) (size 9 to 14) (size 15 to 20)
#    0.000    2.500    0.000    6.000    0.000    3.667 
#    0.000    4.167    0.000    4.500    0.000    0.000 
#    0.000    0.000    0.000    0.000    0.000    0.000 
#
# Total GULP energy -594950.603745 kJ/mol
# GULP energy per Si atom -12394.804245 kJ/mol
# Density = 1.891689 g / cm^3
# Si number density = 18.960043 Si / 1000 Ang^3
#
#
#
# Elastic Constant Matrix: (Units=GPa)
#
#
# Indices 1 2 3 4 5 6 
#
# 1 60.1980 10.3335 31.7250 0.0000 0.0000 0.0000
# 2 10.3335 53.2484 28.4804 0.0000 0.0000 0.0000
# 3 31.7250 28.4804 119.5347 0.0000 0.0000 0.0000
# 4 0.0000 0.0000 0.0000 22.7792 0.0000 0.0000
# 5 0.0000 0.0000 0.0000 0.0000 20.7139 0.0000
# 6 0.0000 0.0000 0.0000 0.0000 0.0000 23.5094
#
#
#
# Elastic Compliance Matrix: (Units=1/GPa)
#
#
# Indices 1 2 3 4 5 6 
#
# 1 0.019375 -0.001157 -0.004867 0.000000 0.000000 0.000000
# 2 -0.001157 0.021592 -0.004837 0.000000 0.000000 0.000000
# 3 -0.004867 -0.004837 0.010810 0.000000 0.000000 0.000000
# 4 0.000000 0.000000 0.000000 0.043900 0.000000 0.000000
# 5 0.000000 0.000000 0.000000 0.000000 0.048277 0.000000
# 6 0.000000 0.000000 0.000000 0.000000 0.000000 0.042536
#
#
# Mechanical properties :
#
#
# Convention : Reuss Voigt Hill
#
# Bulk Modulus (GPa) = 33.27248 41.56211 37.41729
# Shear Modulus (GPa) = 22.91160 24.22996 23.57078
#
# Velocity S-wave (km/s) = 3.48000 3.57872 3.52970
# Velocity P-wave (km/s) = 5.80810 6.24858 6.03236
#
# Compressibility (1/GPa) = 0.03005487
#
# Stress axis : x y z
#
# Youngs Moduli (GPa) = 51.61235 46.31396 92.50742
#
# Poissons Ratio (x) = 0.05359 0.45019
# Poissons Ratio (y) = 0.05972 0.44749
# Poissons Ratio (z) = 0.25118 0.22404
#
# Static dielectric constant tensor:
#      x y z
#    x 3.638500 0.000000 0.000000 
#    y 0.000000 3.281260 0.000000 
#    z 0.000000 0.000000 3.790230 
# 
# 
# High freq. dielectric constant tensor:
#      x y z
#    x 1.728630 0.000000 0.000000 
#    y 0.000000 1.723410 0.000000 
#    z 0.000000 0.000000 1.734500 
# 
# From -- ./inp_files/27397.got.cif
#   From: 2010.03.12/outbox.cif.g09.slc.cpg/sg59_14_cif.got.tgz:27397.got - 2010.04.16 16:29:54.
