data_PCOD8239371
_publ_section_title
;
Structure prediction by ZEFSAII (Michael W. Deem and Ramdas Pophale) SiO2 
 PCOD8239371
Probable space group: P M M N
;
_chemical_formula_sum "Si O2"
_cell_formula_units_Z 64
_cell_length_a 9.194385
_cell_length_b 29.516506
_cell_length_c 13.991375
_cell_angle_alpha 90.000000
_cell_angle_beta 90.000000
_cell_angle_gamma 90.000000
_cell_volume 3797.064975
_symmetry_space_group_name_H-M "P M M N"
_symmetry_group_IT_number 59
_space_group.IT_coordinate_system_code '2'
_symmetry_cell_setting 'orthorhombic'
loop_
_space_group_symop_operation_xyz
x,y,z
1/2-x,1/2-y,z
1/2+x,-y,-z
-x,1/2+y,-z
-x,-y,-z
1/2+x,1/2+y,-z
1/2-x,y,z
x,1/2-y,z
loop_
_atom_site_type_symbol
_atom_site_label
_atom_site_fract_x
_atom_site_fract_y
_atom_site_fract_z
Si Si1 0.913618 0.418750 0.221495
Si Si2 0.579592 0.699430 0.481143
Si Si3 0.586335 0.984335 0.311623
Si Si4 0.915011 0.061164 0.533718
Si Si5 0.581872 0.082063 0.819760
Si Si6 0.580986 0.453394 0.020473
Si Si7 0.089573 0.648036 0.331937
Si Si8 0.577646 0.618158 0.614972
O O1 0.750000 0.399001 0.213957
O O2 0.913937 0.463737 0.284106
O O3 0.978325 0.428867 0.116054
O O4 0.015844 0.382395 0.276525
O O5 0.750000 0.697889 0.467739
O O6 0.525490 0.750000 0.507094
O O7 0.516355 0.684886 0.378110
O O8 0.530818 0.665745 0.566003
O O9 0.750000 0.965933 0.326448
O O10 0.499154 0.979638 0.412059
O O11 0.514914 0.957374 0.224662
O O12 0.750000 0.046600 0.504635
O O13 0.911106 0.102203 0.607634
O O14 0.003896 0.076544 0.440967
O O15 0.750000 0.071236 0.794928
O O16 0.541111 0.131619 0.774878
O O17 0.556423 0.081892 0.933617
O O18 0.750000 0.465552 0.035246
O O19 0.500000 0.500000 0.000000
O O20 0.250000 0.669865 0.330061
O O21 0.750000 0.611749 0.615522
#
# Coordination Sequence:
#
# PCOD8239371 Si02
#       8
#     8   8   8   8   8   8   8   8
#     4  10  21  33  44  63  93 126 160 201 239 271
#     4   9  18  33  52  74  97 118 143 181 231 285
#     4  10  18  28  43  64  89 121 162 199 232 272
#     4   9  17  30  46  63  89 123 156 192 232 273
#     4   9  17  29  46  66  93 125 158 198 239 273
#     4  10  19  32  48  67  91 125 167 207 243 271
#     4   8  15  27  44  70  96 119 148 182 224 276
#     4  10  20  33  49  68  90 120 155 191 232 283
#
# _framework density 16.855124
#
# number of rings (size 3 to 8) (size 9 to 14) (size 15 to 20)
#    0.000    2.625    1.250    1.875    0.000    5.750 
#    0.000    0.000    0.000    0.000    0.000    0.875 
#    0.000    5.000    0.000    0.000    0.000    0.000 
#
# Total GULP energy -793308.781687 kJ/mol
# GULP energy per Si atom -12395.449714 kJ/mol
# Density = 1.681676 g / cm^3
# Si number density = 16.855124 Si / 1000 Ang^3
#
#
#
# Elastic Constant Matrix: (Units=GPa)
#
#
# Indices 1 2 3 4 5 6 
#
# 1 68.7637 27.9109 41.8768 0.0000 0.0000 0.0000
# 2 27.9109 56.2444 46.3078 0.0000 0.0000 0.0000
# 3 41.8768 46.3078 130.5389 0.0000 0.0000 0.0000
# 4 0.0000 0.0000 0.0000 16.8638 0.0000 0.0000
# 5 0.0000 0.0000 0.0000 0.0000 24.3140 0.0000
# 6 0.0000 0.0000 0.0000 0.0000 0.0000 17.7740
#
#
#
# Elastic Compliance Matrix: (Units=1/GPa)
#
#
# Indices 1 2 3 4 5 6 
#
# 1 0.019589 -0.006423 -0.004006 0.000000 0.000000 0.000000
# 2 -0.006423 0.027221 -0.007596 0.000000 0.000000 0.000000
# 3 -0.004006 -0.007596 0.011640 0.000000 0.000000 0.000000
# 4 0.000000 0.000000 0.000000 0.059299 0.000000 0.000000
# 5 0.000000 0.000000 0.000000 0.000000 0.041129 0.000000
# 6 0.000000 0.000000 0.000000 0.000000 0.000000 0.056262
#
#
# Mechanical properties :
#
#
# Convention : Reuss Voigt Hill
#
# Bulk Modulus (GPa) = 44.64088 54.19310 49.41699
# Shear Modulus (GPa) = 19.33076 21.08714 20.20895
#
# Velocity S-wave (km/s) = 3.39023 3.54090 3.46639
# Velocity P-wave (km/s) = 6.47051 6.99567 6.73821
#
# Compressibility (1/GPa) = 0.02240099
#
# Stress axis : x y z
#
# Youngs Moduli (GPa) = 51.04897 36.73654 85.90945
#
# Poissons Ratio (x) = 0.23596 0.34412
# Poissons Ratio (y) = 0.32789 0.65256
# Poissons Ratio (z) = 0.20448 0.27905
#
# Static dielectric constant tensor:
#      x y z
#    x 3.293350 0.000000 0.000000 
#    y 0.000000 2.963060 0.000000 
#    z 0.000000 0.000000 3.446350 
# 
# 
# High freq. dielectric constant tensor:
#      x y z
#    x 1.654630 0.000000 0.000000 
#    y 0.000000 1.604160 0.000000 
#    z 0.000000 0.000000 1.651610 
# 
# From -- ./inp_files/21834.got.cif
#   From: 2010.03.12/outbox.cif.g09.slc.cpg/sg59_11_cif.got.tgz:21834.got - 2010.04.16 16:29:54.
