data_PCOD8239954
_publ_section_title
;
Structure prediction by ZEFSAII (Michael W. Deem and Ramdas Pophale) SiO2 
 PCOD8239954
Probable space group: P M M N
;
_chemical_formula_sum "Si O2"
_cell_formula_units_Z 64
_cell_length_a 16.999592
_cell_length_b 16.173647
_cell_length_c 11.636452
_cell_angle_alpha 90.000000
_cell_angle_beta 90.000000
_cell_angle_gamma 90.000000
_cell_volume 3199.388951
_symmetry_space_group_name_H-M "P M M N"
_symmetry_group_IT_number 59
_space_group.IT_coordinate_system_code '2'
_symmetry_cell_setting 'orthorhombic'
loop_
_space_group_symop_operation_xyz
x,y,z
1/2-x,1/2-y,z
1/2+x,-y,-z
-x,1/2+y,-z
-x,-y,-z
1/2+x,1/2+y,-z
1/2-x,y,z
x,1/2-y,z
loop_
_atom_site_type_symbol
_atom_site_label
_atom_site_fract_x
_atom_site_fract_y
_atom_site_fract_z
Si Si1 0.001325 0.864900 0.848339
Si Si2 0.973430 0.838626 0.099168
Si Si3 0.840575 0.005956 0.634864
Si Si4 0.338125 0.460127 0.892337
Si Si5 0.088591 0.977633 0.124610
Si Si6 0.572010 0.659341 0.609215
Si Si7 0.598356 0.345053 0.490074
Si Si8 0.836516 0.117500 0.246239
O O1 0.092333 0.840080 0.824345
O O2 0.947471 0.835250 0.744079
O O3 0.971303 0.821126 0.962624
O O4 0.988925 0.963570 0.866856
O O5 0.975438 0.750000 0.162486
O O6 0.053486 0.885878 0.131723
O O7 0.893966 0.883722 0.138085
O O8 0.750000 0.011546 0.602398
O O9 0.872228 0.918986 0.582144
O O10 0.851552 0.005602 0.771944
O O11 0.883684 0.087913 0.588190
O O12 0.250000 0.426451 0.913869
O O13 0.338794 0.520238 0.782177
O O14 0.365776 0.509582 0.005843
O O15 0.609235 0.750000 0.576769
O O16 0.493137 0.645128 0.537393
O O17 0.617257 0.250000 0.528129
O O18 0.651402 0.368596 0.380929
O O19 0.750000 0.153635 0.211818
#
# Coordination Sequence:
#
# PCOD8239954 Si02
#       8
#     8   8   8   8   8   8   8   8
#     4   9  16  33  54  77 107 142 184 226 270 326
#     4  11  20  32  52  79 111 148 183 221 273 334
#     4  11  23  37  59  84 115 155 187 225 277 335
#     4  10  19  35  57  80 107 139 181 232 282 330
#     4  10  19  36  53  76 109 150 188 217 261 332
#     4   9  19  36  60  88 113 141 185 239 285 330
#     4  10  22  40  60  83 110 145 190 234 276 331
#     4  10  18  31  56  81 103 134 175 232 286 321
#
# _framework density 20.003820999999999
#
# number of rings (size 3 to 8) (size 9 to 14) (size 15 to 20)
#    0.000    2.000    2.500    2.250    0.000    2.500 
#    0.000    0.000    0.000    6.375    0.000    1.750 
#    0.000    0.000    0.000    0.000    0.000    0.000 
#
# Total GULP energy -793167.521538 kJ/mol
# GULP energy per Si atom -12393.242524 kJ/mol
# Density = 1.995829 g / cm^3
# Si number density = 20.003821 Si / 1000 Ang^3
#
#
#
# Elastic Constant Matrix: (Units=GPa)
#
#
# Indices 1 2 3 4 5 6 
#
# 1 73.2598 34.4946 0.7248 0.0000 0.0000 0.0000
# 2 34.4946 158.5978 21.9453 0.0000 0.0000 0.0000
# 3 0.7248 21.9453 36.5836 0.0000 0.0000 0.0000
# 4 0.0000 0.0000 0.0000 0.1251 0.0000 0.0000
# 5 0.0000 0.0000 0.0000 0.0000 17.7796 0.0000
# 6 0.0000 0.0000 0.0000 0.0000 0.0000 15.1249
#
#
#
# Elastic Compliance Matrix: (Units=1/GPa)
#
#
# Indices 1 2 3 4 5 6 
#
# 1 0.015321 -0.003588 0.001849 0.000000 0.000000 0.000000
# 2 -0.003588 0.007716 -0.004558 0.000000 0.000000 0.000000
# 3 0.001849 -0.004558 0.030032 0.000000 0.000000 0.000000
# 4 0.000000 0.000000 0.000000 7.996155 0.000000 0.000000
# 5 0.000000 0.000000 0.000000 0.000000 0.056244 0.000000
# 6 0.000000 0.000000 0.000000 0.000000 0.000000 0.066116
#
#
# Mechanical properties :
#
#
# Convention : Reuss Voigt Hill
#
# Bulk Modulus (GPa) = 24.70620 42.53006 33.61813
# Shear Modulus (GPa) = 0.60993 20.69099 10.65046
#
# Velocity S-wave (km/s) = 0.55278 3.21962 2.30993
# Velocity P-wave (km/s) = 3.57561 5.92692 4.89456
#
# Compressibility (1/GPa) = 0.04047568
#
# Stress axis : x y z
#
# Youngs Moduli (GPa) = 65.26874 129.59536 33.29780
#
# Poissons Ratio (x) = 0.46501 -0.06156
# Poissons Ratio (y) = 0.23420 0.15176
# Poissons Ratio (z) = -0.12067 0.59065
#
# Static dielectric constant tensor:
#      x y z
#    x 3.592070 0.000000 0.000000 
#    y 0.000000 3.752990 0.000000 
#    z 0.000000 0.000000 3.441000 
# 
# 
# High freq. dielectric constant tensor:
#      x y z
#    x 1.773050 0.000000 0.000000 
#    y 0.000000 1.784150 0.000000 
#    z 0.000000 0.000000 1.758050 
# 
# From -- ./inp_files/17878.got.cif
#   From: 2010.03.12/outbox.cif.g09.slc.cpg/sg59_9_cif.got.tgz:17878.got - 2010.04.16 16:29:54.
