data_PCOD8239861
_publ_section_title
;
Structure prediction by ZEFSAII (Michael W. Deem and Ramdas Pophale) SiO2 
 PCOD8239861
Probable space group: P M M N
;
_chemical_formula_sum "Si O2"
_cell_formula_units_Z 56
_cell_length_a 19.799429
_cell_length_b 18.615072
_cell_length_c 9.261195
_cell_angle_alpha 90.000000
_cell_angle_beta 90.000000
_cell_angle_gamma 90.000000
_cell_volume 3413.378233
_symmetry_space_group_name_H-M "P M M N"
_symmetry_group_IT_number 59
_space_group.IT_coordinate_system_code '2'
_symmetry_cell_setting 'orthorhombic'
loop_
_space_group_symop_operation_xyz
x,y,z
1/2-x,1/2-y,z
1/2+x,-y,-z
-x,1/2+y,-z
-x,-y,-z
1/2+x,1/2+y,-z
1/2-x,y,z
x,1/2-y,z
loop_
_atom_site_type_symbol
_atom_site_label
_atom_site_fract_x
_atom_site_fract_y
_atom_site_fract_z
Si Si1 0.373417 0.669817 0.611643
Si Si2 0.671359 0.462455 0.859854
Si Si3 0.673679 0.327697 0.693258
Si Si4 0.671614 0.040036 0.198962
Si Si5 0.434057 0.036732 0.323442
Si Si6 0.472356 0.331308 0.470854
Si Si7 0.565086 0.958395 0.355632
O O1 0.358421 0.750000 0.672989
O O2 0.325814 0.651681 0.475768
O O3 0.359900 0.613472 0.738714
O O4 0.447902 0.666668 0.546320
O O5 0.750000 0.474740 0.819659
O O6 0.640476 0.389258 0.791528
O O7 0.627256 0.525281 0.787239
O O8 0.660115 0.459764 0.029023
O O9 0.750000 0.320823 0.746579
O O10 0.636946 0.250000 0.716422
O O11 0.750000 0.033619 0.239676
O O12 0.632807 0.970577 0.262556
O O13 0.441748 0.123716 0.335290
O O14 0.421342 0.004981 0.486107
O O15 0.503656 0.998606 0.272103
O O16 0.443937 0.250000 0.474092
O O17 0.451366 0.373385 0.619717
#
# Coordination Sequence:
#
# PCOD8239861 Si02
#       7
#     8   8   8   8   8   8   8
#     4  10  18  31  51  75 102 132 165 204 249 298
#     4  10  21  32  47  71 101 138 172 205 251 300
#     4   9  17  29  45  66  95 133 170 200 236 287
#     4  11  21  32  46  73 107 138 170 205 247 300
#     4   9  17  33  53  73  99 125 165 208 249 297
#     4   9  17  31  54  76  98 122 158 211 258 298
#     4   9  17  32  52  76  98 128 167 208 253 296
#
# _framework density 16.406033999999998
#
# number of rings (size 3 to 8) (size 9 to 14) (size 15 to 20)
#    0.857    1.571    1.429    2.143    0.000    3.714 
#    0.000    1.429    0.000    2.571    0.000    2.000 
#    0.000    0.000    0.000    0.000    0.000    0.000 
#
# Total GULP energy -693783.986281 kJ/mol
# GULP energy per Si atom -12388.999755 kJ/mol
# Density = 1.636869 g / cm^3
# Si number density = 16.406034 Si / 1000 Ang^3
#
#
#
# Elastic Constant Matrix: (Units=GPa)
#
#
# Indices 1 2 3 4 5 6 
#
# 1 73.4355 46.6975 38.4793 0.0000 0.0000 0.0000
# 2 46.6975 127.9149 36.6326 0.0000 0.0000 0.0000
# 3 38.4793 36.6326 59.4128 0.0000 0.0000 0.0000
# 4 0.0000 0.0000 0.0000 15.6219 0.0000 0.0000
# 5 0.0000 0.0000 0.0000 0.0000 23.2253 0.0000
# 6 0.0000 0.0000 0.0000 0.0000 0.0000 20.7526
#
#
#
# Elastic Compliance Matrix: (Units=1/GPa)
#
#
# Indices 1 2 3 4 5 6 
#
# 1 0.022986 -0.005013 -0.011796 0.000000 0.000000 0.000000
# 2 -0.005013 0.010588 -0.003281 0.000000 0.000000 0.000000
# 3 -0.011796 -0.003281 0.026494 0.000000 0.000000 0.000000
# 4 0.000000 0.000000 0.000000 0.064013 0.000000 0.000000
# 5 0.000000 0.000000 0.000000 0.000000 0.043057 0.000000
# 6 0.000000 0.000000 0.000000 0.000000 0.000000 0.048187
#
#
# Mechanical properties :
#
#
# Convention : Reuss Voigt Hill
#
# Bulk Modulus (GPa) = 50.28423 56.04245 53.16334
# Shear Modulus (GPa) = 19.07415 21.18354 20.12885
#
# Velocity S-wave (km/s) = 3.41344 3.59723 3.50654
# Velocity P-wave (km/s) = 6.80086 7.17546 6.99067
#
# Compressibility (1/GPa) = 0.01988695
#
# Stress axis : x y z
#
# Youngs Moduli (GPa) = 43.50385 94.45048 37.74377
#
# Poissons Ratio (x) = 0.47351 0.44524
# Poissons Ratio (y) = 0.21810 0.12384
# Poissons Ratio (z) = 0.51318 0.30990
#
# Static dielectric constant tensor:
#      x y z
#    x 2.989640 0.000000 0.000000 
#    y 0.000000 3.249130 0.000000 
#    z 0.000000 0.000000 2.830310 
# 
# 
# High freq. dielectric constant tensor:
#      x y z
#    x 1.621190 0.000000 0.000000 
#    y 0.000000 1.622190 0.000000 
#    z 0.000000 0.000000 1.604900 
# 
# From -- ./inp_files/11705.got.cif
#   From: 2010.03.12/outbox.cif.g09.slc.cpg/sg59_6_cif.got.tgz:11705.got - 2010.04.16 16:29:54.
