data_PCOD8239368
_publ_section_title
;
Structure prediction by ZEFSAII (Michael W. Deem and Ramdas Pophale) SiO2 
 PCOD8239368
Probable space group: P M M N
;
_chemical_formula_sum "Si O2"
_cell_formula_units_Z 64
_cell_length_a 13.624088
_cell_length_b 17.632810
_cell_length_c 17.165161
_cell_angle_alpha 90.000000
_cell_angle_beta 90.000000
_cell_angle_gamma 90.000000
_cell_volume 4123.603022
_symmetry_space_group_name_H-M "P M M N"
_symmetry_group_IT_number 59
_space_group.IT_coordinate_system_code '2'
_symmetry_cell_setting 'orthorhombic'
loop_
_space_group_symop_operation_xyz
x,y,z
1/2-x,1/2-y,z
1/2+x,-y,-z
-x,1/2+y,-z
-x,-y,-z
1/2+x,1/2+y,-z
1/2-x,y,z
x,1/2-y,z
loop_
_atom_site_type_symbol
_atom_site_label
_atom_site_fract_x
_atom_site_fract_y
_atom_site_fract_z
Si Si1 0.514809 0.443346 0.257134
Si Si2 0.862086 0.941898 0.349343
Si Si3 0.364375 0.559659 0.983998
Si Si4 0.364869 0.337123 0.339973
Si Si5 0.639938 0.663813 0.201502
Si Si6 0.488464 0.052083 0.884670
Si Si7 0.633683 0.833791 0.482863
Si Si8 0.135687 0.833979 0.845634
O O1 0.568314 0.487305 0.327979
O O2 0.420652 0.397332 0.286277
O O3 0.481507 0.501215 0.189571
O O4 0.591533 0.384103 0.222709
O O5 0.750000 0.970629 0.362165
O O6 0.864866 0.880163 0.282003
O O7 0.905884 0.900107 0.426102
O O8 0.250000 0.544725 0.996584
O O9 0.409538 0.487546 0.940524
O O10 0.385510 0.633355 0.931484
O O11 0.413048 0.571773 0.068274
O O12 0.250000 0.351654 0.327914
O O13 0.390770 0.250000 0.317489
O O14 0.396651 0.353023 0.428893
O O15 0.750000 0.657442 0.166572
O O16 0.610412 0.750000 0.218007
O O17 0.562108 0.630050 0.141070
O O18 0.750000 0.830470 0.474881
O O19 0.591919 0.750000 0.460320
O O20 0.250000 0.832363 0.828607
O O21 0.089806 0.750000 0.842831
#
# Coordination Sequence:
#
# PCOD8239368 Si02
#       8
#     8   8   8   8   8   8   8   8
#     4  10  18  28  43  63  88 112 135 168 212 254
#     4   9  16  26  42  65  90 113 138 169 208 253
#     4   9  17  30  45  59  79 108 139 170 208 251
#     4   9  18  31  45  61  83 113 147 179 208 241
#     4   9  16  26  42  63  86 111 136 167 210 254
#     4   9  18  29  42  63  85 107 136 173 211 251
#     4   8  14  26  43  62  86 115 145 176 206 238
#     4   9  17  29  45  63  81 104 135 169 206 249
#
# _framework density 15.520408
#
# number of rings (size 3 to 8) (size 9 to 14) (size 15 to 20)
#    0.000    3.000    0.000    2.250    0.000    6.000 
#    0.000    0.000    0.000    0.000    0.000   12.250 
#    0.000    2.500    0.000    0.500    0.000    0.000 
#
# Total GULP energy -793350.756721 kJ/mol
# GULP energy per Si atom -12396.105574 kJ/mol
# Density = 1.548508 g / cm^3
# Si number density = 15.520408 Si / 1000 Ang^3
#
#
#
# Elastic Constant Matrix: (Units=GPa)
#
#
# Indices 1 2 3 4 5 6 
#
# 1 63.6091 40.9766 38.1963 0.0000 0.0000 0.0000
# 2 40.9766 95.5109 37.2921 0.0000 0.0000 0.0000
# 3 38.1963 37.2921 71.5612 0.0000 0.0000 0.0000
# 4 0.0000 0.0000 0.0000 18.5393 0.0000 0.0000
# 5 0.0000 0.0000 0.0000 0.0000 21.5998 0.0000
# 6 0.0000 0.0000 0.0000 0.0000 0.0000 24.1188
#
#
#
# Elastic Compliance Matrix: (Units=1/GPa)
#
#
# Indices 1 2 3 4 5 6 
#
# 1 0.026749 -0.007409 -0.010416 0.000000 0.000000 0.000000
# 2 -0.007409 0.015197 -0.003965 0.000000 0.000000 0.000000
# 3 -0.010416 -0.003965 0.021600 0.000000 0.000000 0.000000
# 4 0.000000 0.000000 0.000000 0.053940 0.000000 0.000000
# 5 0.000000 0.000000 0.000000 0.000000 0.046297 0.000000
# 6 0.000000 0.000000 0.000000 0.000000 0.000000 0.041461
#
#
# Mechanical properties :
#
#
# Convention : Reuss Voigt Hill
#
# Bulk Modulus (GPa) = 50.08685 51.51234 50.79960
# Shear Modulus (GPa) = 19.57117 20.46600 20.01859
#
# Velocity S-wave (km/s) = 3.55490 3.63526 3.59531
# Velocity P-wave (km/s) = 7.01366 7.13318 7.07367
#
# Compressibility (1/GPa) = 0.01996532
#
# Stress axis : x y z
#
# Youngs Moduli (GPa) = 37.38514 65.80419 46.29628
#
# Poissons Ratio (x) = 0.48753 0.48224
# Poissons Ratio (y) = 0.27698 0.18356
# Poissons Ratio (z) = 0.38942 0.26090
#
# Static dielectric constant tensor:
#      x y z
#    x 2.775250 0.000000 0.000000 
#    y 0.000000 3.096000 0.000000 
#    z 0.000000 0.000000 3.013900 
# 
# 
# High freq. dielectric constant tensor:
#      x y z
#    x 1.570050 0.000000 0.000000 
#    y 0.000000 1.597750 0.000000 
#    z 0.000000 0.000000 1.591680 
# 
# From -- ./inp_files/23464.got.cif
#   From: 2010.03.12/outbox.cif.g09.slc.cpg/sg59_12_cif.got.tgz:23464.got - 2010.04.16 16:29:54.
