data_PCOD8239464
_publ_section_title
;
Structure prediction by ZEFSAII (Michael W. Deem and Ramdas Pophale) SiO2 
 PCOD8239464
Probable space group: P M M N
;
_chemical_formula_sum "Si O2"
_cell_formula_units_Z 64
_cell_length_a 17.158100
_cell_length_b 13.710209
_cell_length_c 14.967156
_cell_angle_alpha 90.000000
_cell_angle_beta 90.000000
_cell_angle_gamma 90.000000
_cell_volume 3520.890796
_symmetry_space_group_name_H-M "P M M N"
_symmetry_group_IT_number 59
_space_group.IT_coordinate_system_code '2'
_symmetry_cell_setting 'orthorhombic'
loop_
_space_group_symop_operation_xyz
x,y,z
1/2-x,1/2-y,z
1/2+x,-y,-z
-x,1/2+y,-z
-x,-y,-z
1/2+x,1/2+y,-z
1/2-x,y,z
x,1/2-y,z
loop_
_atom_site_type_symbol
_atom_site_label
_atom_site_fract_x
_atom_site_fract_y
_atom_site_fract_z
Si Si1 0.070132 0.858649 0.918649
Si Si2 0.334871 0.857408 0.747282
Si Si3 0.840824 0.864028 0.195005
Si Si4 0.340586 0.138273 0.499379
Si Si5 0.663591 0.524533 0.015279
Si Si6 0.897927 0.858902 0.863793
Si Si7 0.446249 0.135525 0.331463
Si Si8 0.090723 0.489272 0.651907
O O1 0.099781 0.750000 0.942093
O O2 0.100909 0.888011 0.820056
O O3 0.977829 0.863959 0.919621
O O4 0.104645 0.933533 0.990019
O O5 0.250000 0.866590 0.792226
O O6 0.350305 0.750000 0.710005
O O7 0.341445 0.930061 0.663768
O O8 0.750000 0.884103 0.221614
O O9 0.859095 0.750000 0.196945
O O10 0.900692 0.915546 0.263842
O O11 0.858815 0.901644 0.095146
O O12 0.250000 0.105651 0.498960
O O13 0.347138 0.250000 0.533054
O O14 0.375713 0.127609 0.400941
O O15 0.393795 0.070493 0.562118
O O16 0.750000 0.483690 0.031027
O O17 0.662485 0.575967 0.918714
O O18 0.864402 0.750000 0.861458
O O19 0.909905 0.895786 0.763228
O O20 0.477469 0.250000 0.327907
O O21 0.511304 0.053518 0.353971
#
# Coordination Sequence:
#
# PCOD8239464 Si02
#       8
#     8   8   8   8   8   8   8   8
#     4  10  19  33  52  75 106 140 176 220 267 316
#     4  10  18  28  47  76 106 136 169 205 254 315
#     4  10  20  32  47  73 112 149 177 213 267 326
#     4  10  22  38  56  80 110 143 179 216 259 317
#     4  11  21  33  51  78 108 141 182 225 266 314
#     4  10  20  35  54  74 102 141 183 225 268 312
#     4  10  21  38  58  80 106 138 178 225 270 311
#     4  12  19  32  54  81 107 138 171 212 269 319
#
# _framework density 18.177218
#
# number of rings (size 3 to 8) (size 9 to 14) (size 15 to 20)
#    0.000    1.625    2.500    3.375    0.000    3.000 
#    0.000    1.250    0.000    0.750    0.000    0.000 
#    0.000    0.000    0.000    0.000    0.000    0.000 
#
# Total GULP energy -793165.163405 kJ/mol
# GULP energy per Si atom -12393.205678 kJ/mol
# Density = 1.813585 g / cm^3
# Si number density = 18.177218 Si / 1000 Ang^3
#
#
#
# Elastic Constant Matrix: (Units=GPa)
#
#
# Indices 1 2 3 4 5 6 
#
# 1 47.0444 26.6128 26.2031 0.0000 0.0000 0.0000
# 2 26.6128 102.9765 44.9159 0.0000 0.0000 0.0000
# 3 26.2031 44.9159 92.0508 0.0000 0.0000 0.0000
# 4 0.0000 0.0000 0.0000 28.5173 0.0000 0.0000
# 5 0.0000 0.0000 0.0000 0.0000 25.7612 0.0000
# 6 0.0000 0.0000 0.0000 0.0000 0.0000 17.2567
#
#
#
# Elastic Compliance Matrix: (Units=1/GPa)
#
#
# Indices 1 2 3 4 5 6 
#
# 1 0.026862 -0.004582 -0.005411 0.000000 0.000000 0.000000
# 2 -0.004582 0.013118 -0.005097 0.000000 0.000000 0.000000
# 3 -0.005411 -0.005097 0.014891 0.000000 0.000000 0.000000
# 4 0.000000 0.000000 0.000000 0.035066 0.000000 0.000000
# 5 0.000000 0.000000 0.000000 0.000000 0.038818 0.000000
# 6 0.000000 0.000000 0.000000 0.000000 0.000000 0.057948
#
#
# Mechanical properties :
#
#
# Convention : Reuss Voigt Hill
#
# Bulk Modulus (GPa) = 40.49876 48.61503 44.55690
# Shear Modulus (GPa) = 22.21100 23.92972 23.07036
#
# Velocity S-wave (km/s) = 3.49938 3.63225 3.56644
# Velocity P-wave (km/s) = 6.21739 6.66289 6.44399
#
# Compressibility (1/GPa) = 0.02469211
#
# Stress axis : x y z
#
# Youngs Moduli (GPa) = 37.22691 76.23024 67.15616
#
# Poissons Ratio (x) = 0.34930 0.36337
# Poissons Ratio (y) = 0.17058 0.34227
# Poissons Ratio (z) = 0.20143 0.38852
#
# Static dielectric constant tensor:
#      x y z
#    x 3.288900 0.000000 0.000000 
#    y 0.000000 3.575490 0.000000 
#    z 0.000000 0.000000 3.198370 
# 
# 
# High freq. dielectric constant tensor:
#      x y z
#    x 1.694870 0.000000 0.000000 
#    y 0.000000 1.713490 0.000000 
#    z 0.000000 0.000000 1.684520 
# 
# From -- ./inp_files/24015.got.cif
#   From: 2010.03.12/outbox.cif.g09.slc.cpg/sg59_13_cif.got.tgz:24015.got - 2010.04.16 16:29:54.
