data_PCOD8239424
_publ_section_title
;
Structure prediction by ZEFSAII (Michael W. Deem and Ramdas Pophale) SiO2 
 PCOD8239424
Probable space group: P M M N
;
_chemical_formula_sum "Si O2"
_cell_formula_units_Z 64
_cell_length_a 13.255577
_cell_length_b 18.995935
_cell_length_c 14.604234
_cell_angle_alpha 90.000000
_cell_angle_beta 90.000000
_cell_angle_gamma 90.000000
_cell_volume 3677.376485
_symmetry_space_group_name_H-M "P M M N"
_symmetry_group_IT_number 59
_space_group.IT_coordinate_system_code '2'
_symmetry_cell_setting 'orthorhombic'
loop_
_space_group_symop_operation_xyz
x,y,z
1/2-x,1/2-y,z
1/2+x,-y,-z
-x,1/2+y,-z
-x,-y,-z
1/2+x,1/2+y,-z
1/2-x,y,z
x,1/2-y,z
loop_
_atom_site_type_symbol
_atom_site_label
_atom_site_fract_x
_atom_site_fract_y
_atom_site_fract_z
Si Si1 0.636511 0.168116 0.582470
Si Si2 0.634642 0.567322 0.419619
Si Si3 0.043237 0.167915 0.713775
Si Si4 0.364000 0.333819 0.099726
Si Si5 0.631370 0.673683 0.562780
Si Si6 0.993461 0.669762 0.735141
Si Si7 0.137991 0.332777 0.897650
Si Si8 0.130874 0.588198 0.602598
O O1 0.750000 0.144985 0.609728
O O2 0.631689 0.250000 0.559453
O O3 0.565912 0.149161 0.669847
O O4 0.601021 0.129215 0.490114
O O5 0.750000 0.552852 0.443322
O O6 0.626490 0.618048 0.332146
O O7 0.582381 0.610498 0.503321
O O8 0.584815 0.490853 0.404897
O O9 0.070193 0.250000 0.697929
O O10 0.052351 0.148617 0.821818
O O11 0.250000 0.360181 0.122789
O O12 0.365854 0.250000 0.107003
O O13 0.448981 0.362845 0.170351
O O14 0.394582 0.361299 0.997966
O O15 0.750000 0.670138 0.554530
O O16 0.593110 0.750000 0.524718
O O17 0.601557 0.665662 0.667457
O O18 0.031936 0.750000 0.747823
O O19 0.084217 0.624211 0.693028
O O20 0.250000 0.362181 0.871021
O O21 0.147774 0.250000 0.906857
O O22 0.250000 0.588518 0.618544
#
# Coordination Sequence:
#
# PCOD8239424 Si02
#       8
#     8   8   8   8   8   8   8   8
#     4   9  18  32  47  63  87 121 159 194 223 254
#     4  10  20  31  43  63  92 122 147 178 226 276
#     4  10  18  28  47  72  93 116 149 184 219 264
#     4   8  14  26  45  70  97 119 141 176 225 278
#     4   9  17  28  42  64  93 118 140 172 219 274
#     4  10  18  28  46  67  86 114 152 191 227 261
#     4   8  14  25  43  69  98 121 141 173 219 271
#     4  10  21  34  45  60  86 122 161 194 224 261
#
# _framework density 17.403711999999999
#
# number of rings (size 3 to 8) (size 9 to 14) (size 15 to 20)
#    0.000    2.750    0.000    3.000    0.000    7.500 
#    0.000    0.000    0.000    2.250    0.000    3.500 
#    0.000    0.000    0.000    0.000    0.000    0.000 
#
# Total GULP energy -792888.683359 kJ/mol
# GULP energy per Si atom -12388.885677 kJ/mol
# Density = 1.736410 g / cm^3
# Si number density = 17.403712 Si / 1000 Ang^3
#
#
#
# Elastic Constant Matrix: (Units=GPa)
#
#
# Indices 1 2 3 4 5 6 
#
# 1 66.6763 25.3739 53.2574 0.0000 0.0000 0.0000
# 2 25.3739 70.5130 39.1945 0.0000 0.0000 0.0000
# 3 53.2574 39.1945 133.7745 0.0000 0.0000 0.0000
# 4 0.0000 0.0000 0.0000 0.9642 0.0000 0.0000
# 5 0.0000 0.0000 0.0000 0.0000 32.4980 0.0000
# 6 0.0000 0.0000 0.0000 0.0000 0.0000 15.6074
#
#
#
# Elastic Compliance Matrix: (Units=1/GPa)
#
#
# Indices 1 2 3 4 5 6 
#
# 1 0.022802 -0.003774 -0.007972 0.000000 0.000000 0.000000
# 2 -0.003774 0.017565 -0.003644 0.000000 0.000000 0.000000
# 3 -0.007972 -0.003644 0.011717 0.000000 0.000000 0.000000
# 4 0.000000 0.000000 0.000000 1.037092 0.000000 0.000000
# 5 0.000000 0.000000 0.000000 0.000000 0.030771 0.000000
# 6 0.000000 0.000000 0.000000 0.000000 0.000000 0.064072
#
#
# Mechanical properties :
#
#
# Convention : Reuss Voigt Hill
#
# Bulk Modulus (GPa) = 46.93979 56.29062 51.61521
# Shear Modulus (GPa) = 4.09199 20.02310 12.05755
#
# Velocity S-wave (km/s) = 1.53503 3.39559 2.63499
# Velocity P-wave (km/s) = 5.49285 6.91286 6.24336
#
# Compressibility (1/GPa) = 0.02130389
#
# Stress axis : x y z
#
# Youngs Moduli (GPa) = 43.85670 56.93027 85.34874
#
# Poissons Ratio (x) = 0.21485 0.68039
# Poissons Ratio (y) = 0.16551 0.31101
# Poissons Ratio (z) = 0.34962 0.20745
#
# Static dielectric constant tensor:
#      x y z
#    x 3.166320 0.000000 0.000000 
#    y 0.000000 3.192010 0.000000 
#    z 0.000000 0.000000 3.432140 
# 
# 
# High freq. dielectric constant tensor:
#      x y z
#    x 1.664440 0.000000 0.000000 
#    y 0.000000 1.642450 0.000000 
#    z 0.000000 0.000000 1.661440 
# 
# From -- ./inp_files/23497.got.cif
#   From: 2010.03.12/outbox.cif.g09.slc.cpg/sg59_12_cif.got.tgz:23497.got - 2010.04.16 16:29:54.
