data_PCOD8239208
_publ_section_title
;
Structure prediction by ZEFSAII (Michael W. Deem and Ramdas Pophale) SiO2 
 PCOD8239208
Probable space group: P M M N
;
_chemical_formula_sum "Si O2"
_cell_formula_units_Z 48
_cell_length_a 14.445428
_cell_length_b 17.095151
_cell_length_c 9.717405
_cell_angle_alpha 90.000000
_cell_angle_beta 90.000000
_cell_angle_gamma 90.000000
_cell_volume 2399.681806
_symmetry_space_group_name_H-M "P M M N"
_symmetry_group_IT_number 59
_space_group.IT_coordinate_system_code '2'
_symmetry_cell_setting 'orthorhombic'
loop_
_space_group_symop_operation_xyz
x,y,z
1/2-x,1/2-y,z
1/2+x,-y,-z
-x,1/2+y,-z
-x,-y,-z
1/2+x,1/2+y,-z
1/2-x,y,z
x,1/2-y,z
loop_
_atom_site_type_symbol
_atom_site_label
_atom_site_fract_x
_atom_site_fract_y
_atom_site_fract_z
Si Si1 0.648395 0.080647 0.710534
Si Si2 0.352492 0.118834 0.937246
Si Si3 0.988373 0.841781 0.823158
Si Si4 0.097133 0.543426 0.985045
Si Si5 0.957789 0.838808 0.333043
Si Si6 0.929115 0.940882 0.567768
O O1 0.750000 0.117268 0.678051
O O2 0.565381 0.134750 0.655853
O O3 0.647918 0.993826 0.642208
O O4 0.639524 0.072506 0.873472
O O5 0.250000 0.156558 0.926953
O O6 0.419724 0.151703 0.820087
O O7 0.338993 0.024718 0.920798
O O8 0.397941 0.143382 0.082361
O O9 0.006456 0.750000 0.803763
O O10 0.975367 0.882151 0.676257
O O11 0.081091 0.880977 0.888585
O O12 0.000000 0.500000 0.000000
O O13 0.953011 0.750000 0.379210
O O14 0.893524 0.887539 0.440264
O O15 0.000000 0.000000 0.500000
#
# Coordination Sequence:
#
# PCOD8239208 Si02
#       6
#     8   8   8   8   8   8
#     4  11  21  37  62  90 120 157 209 254 297 365
#     4  11  22  38  62  89 123 165 209 256 307 364
#     4  11  21  36  61  91 123 157 201 257 317 369
#     4  10  17  35  59  88 115 155 203 253 298 358
#     4  11  23  40  60  90 128 162 199 250 315 370
#     4  10  21  39  60  85 116 161 209 247 295 362
#
# _framework density 20.002651
#
# number of rings (size 3 to 8) (size 9 to 14) (size 15 to 20)
#    0.000    1.333    6.667    2.500    0.000    2.333 
#    0.000    0.000    0.000    5.500    0.000    0.000 
#    0.000    0.000    0.000    0.000    0.000    0.000 
#
# Total GULP energy -594768.539341 kJ/mol
# GULP energy per Si atom -12391.011236 kJ/mol
# Density = 1.995712 g / cm^3
# Si number density = 20.002651 Si / 1000 Ang^3
#
#
#
# Elastic Constant Matrix: (Units=GPa)
#
#
# Indices 1 2 3 4 5 6 
#
# 1 70.5506 13.2497 17.1652 0.0000 0.0000 0.0000
# 2 13.2497 125.8092 35.3722 0.0000 0.0000 0.0000
# 3 17.1652 35.3722 97.5051 0.0000 0.0000 0.0000
# 4 0.0000 0.0000 0.0000 26.0808 0.0000 0.0000
# 5 0.0000 0.0000 0.0000 0.0000 7.9120 0.0000
# 6 0.0000 0.0000 0.0000 0.0000 0.0000 10.6770
#
#
#
# Elastic Compliance Matrix: (Units=1/GPa)
#
#
# Indices 1 2 3 4 5 6 
#
# 1 0.014905 -0.000926 -0.002288 0.000000 0.000000 0.000000
# 2 -0.000926 0.008909 -0.003069 0.000000 0.000000 0.000000
# 3 -0.002288 -0.003069 0.011772 0.000000 0.000000 0.000000
# 4 0.000000 0.000000 0.000000 0.038342 0.000000 0.000000
# 5 0.000000 0.000000 0.000000 0.000000 0.126390 0.000000
# 6 0.000000 0.000000 0.000000 0.000000 0.000000 0.093659
#
#
# Mechanical properties :
#
#
# Convention : Reuss Voigt Hill
#
# Bulk Modulus (GPa) = 43.44147 47.27102 45.35625
# Shear Modulus (GPa) = 15.91259 24.13915 20.02587
#
# Velocity S-wave (km/s) = 2.82356 3.47767 3.16755
# Velocity P-wave (km/s) = 5.69166 6.30946 6.00850
#
# Compressibility (1/GPa) = 0.02301948
#
# Stress axis : x y z
#
# Youngs Moduli (GPa) = 67.09225 112.24680 84.94795
#
# Poissons Ratio (x) = 0.10400 0.19434
# Poissons Ratio (y) = 0.06216 0.26069
# Poissons Ratio (z) = 0.15349 0.34447
#
# Static dielectric constant tensor:
#      x y z
#    x 3.543590 0.000000 0.000000 
#    y 0.000000 4.074950 0.000000 
#    z 0.000000 0.000000 3.806070 
# 
# 
# High freq. dielectric constant tensor:
#      x y z
#    x 1.750200 0.000000 0.000000 
#    y 0.000000 1.783900 0.000000 
#    z 0.000000 0.000000 1.784330 
# 
# From -- ./inp_files/9020.got.cif
#   From: 2010.03.12/outbox.cif.g09.slc.cpg/sg59_5_cif.got.tgz:9020.got - 2010.04.16 16:29:54.
