data_PCOD8239686
_publ_section_title
;
Structure prediction by ZEFSAII (Michael W. Deem and Ramdas Pophale) SiO2 
 PCOD8239686
Probable space group: P M M N
;
_chemical_formula_sum "Si O2"
_cell_formula_units_Z 40
_cell_length_a 8.904289
_cell_length_b 20.076192
_cell_length_c 12.821846
_cell_angle_alpha 90.000000
_cell_angle_beta 90.000000
_cell_angle_gamma 90.000000
_cell_volume 2292.087243
_symmetry_space_group_name_H-M "P M M N"
_symmetry_group_IT_number 59
_space_group.IT_coordinate_system_code '2'
_symmetry_cell_setting 'orthorhombic'
loop_
_space_group_symop_operation_xyz
x,y,z
1/2-x,1/2-y,z
1/2+x,-y,-z
-x,1/2+y,-z
-x,-y,-z
1/2+x,1/2+y,-z
1/2-x,y,z
x,1/2-y,z
loop_
_atom_site_type_symbol
_atom_site_label
_atom_site_fract_x
_atom_site_fract_y
_atom_site_fract_z
Si Si1 0.427864 0.432703 0.039797
Si Si2 0.924551 0.673968 0.126761
Si Si3 0.427097 0.071619 0.488022
Si Si4 0.574048 0.544841 0.733952
Si Si5 0.572218 0.396963 0.687395
O O1 0.250000 0.440282 0.034334
O O2 0.484248 0.420978 0.159327
O O3 0.500000 0.500000 0.000000
O O4 0.482595 0.370916 0.969680
O O5 0.750000 0.660873 0.149583
O O6 0.955389 0.750000 0.095302
O O7 0.016507 0.657554 0.230754
O O8 0.250000 0.068388 0.508231
O O9 0.463068 0.091527 0.366844
O O10 0.503338 0.120612 0.572685
O O11 0.500000 0.000000 0.500000
O O12 0.750000 0.534457 0.742052
O O13 0.508972 0.469626 0.722145
O O14 0.750000 0.393938 0.678789
#
# Coordination Sequence:
#
# PCOD8239686 Si02
#       5
#     8   8   8   8   8
#     4  10  18  31  50  72  99 130 166 209 251 301
#     4  10  21  34  49  72 101 133 167 206 255 309
#     4   9  16  27  44  69 100 130 159 199 247 296
#     4   8  15  27  45  70  98 125 158 200 247 292
#     4  10  18  30  48  70  97 129 166 207 252 301
#
# _framework density 17.451343000000001
#
# number of rings (size 3 to 8) (size 9 to 14) (size 15 to 20)
#    0.000    2.600    2.000    2.400    0.000    0.400 
#    0.000    1.000    0.000    1.200    0.000    5.600 
#    0.000    0.000    0.000    0.000    0.000    0.000 
#
# Total GULP energy -495632.315918 kJ/mol
# GULP energy per Si atom -12390.807898 kJ/mol
# Density = 1.741162 g / cm^3
# Si number density = 17.451343 Si / 1000 Ang^3
#
#
#
# Elastic Constant Matrix: (Units=GPa)
#
#
# Indices 1 2 3 4 5 6 
#
# 1 55.7540 26.9798 46.5049 0.0000 0.0000 0.0000
# 2 26.9798 75.1975 59.4165 0.0000 0.0000 0.0000
# 3 46.5049 59.4165 184.0525 0.0000 0.0000 0.0000
# 4 0.0000 0.0000 0.0000 21.7895 0.0000 0.0000
# 5 0.0000 0.0000 0.0000 0.0000 22.8490 0.0000
# 6 0.0000 0.0000 0.0000 0.0000 0.0000 17.5519
#
#
#
# Elastic Compliance Matrix: (Units=1/GPa)
#
#
# Indices 1 2 3 4 5 6 
#
# 1 0.024127 -0.005154 -0.004432 0.000000 0.000000 0.000000
# 2 -0.005154 0.018953 -0.004816 0.000000 0.000000 0.000000
# 3 -0.004432 -0.004816 0.008108 0.000000 0.000000 0.000000
# 4 0.000000 0.000000 0.000000 0.045894 0.000000 0.000000
# 5 0.000000 0.000000 0.000000 0.000000 0.043766 0.000000
# 6 0.000000 0.000000 0.000000 0.000000 0.000000 0.056974
#
#
# Mechanical properties :
#
#
# Convention : Reuss Voigt Hill
#
# Bulk Modulus (GPa) = 44.67766 64.53404 54.60585
# Shear Modulus (GPa) = 21.35952 24.57827 22.96889
#
# Velocity S-wave (km/s) = 3.50229 3.75692 3.63184
# Velocity P-wave (km/s) = 6.48163 7.47522 6.99609
#
# Compressibility (1/GPa) = 0.02238255
#
# Stress axis : x y z
#
# Youngs Moduli (GPa) = 41.44703 52.76194 123.33620
#
# Poissons Ratio (x) = 0.27195 0.54666
# Poissons Ratio (y) = 0.21363 0.59400
# Poissons Ratio (z) = 0.18371 0.25411
#
# Static dielectric constant tensor:
#      x y z
#    x 3.158690 0.000000 0.000000 
#    y 0.000000 2.879120 0.000000 
#    z 0.000000 0.000000 4.344510 
# 
# 
# High freq. dielectric constant tensor:
#      x y z
#    x 1.662780 0.000000 0.000000 
#    y 0.000000 1.618000 0.000000 
#    z 0.000000 0.000000 1.699430 
# 
# From -- ./inp_files/14054.got.cif
#   From: 2010.03.12/outbox.cif.g09.slc.cpg/sg59_8_cif.got.tgz:14054.got - 2010.04.16 16:29:54.
