data_PCOD8239969
_publ_section_title
;
Structure prediction by ZEFSAII (Michael W. Deem and Ramdas Pophale) SiO2 
 PCOD8239969
Probable space group: P M M N
;
_chemical_formula_sum "Si O2"
_cell_formula_units_Z 64
_cell_length_a 23.080308
_cell_length_b 9.081510
_cell_length_c 19.124107
_cell_angle_alpha 90.000000
_cell_angle_beta 90.000000
_cell_angle_gamma 90.000000
_cell_volume 4008.490240
_symmetry_space_group_name_H-M "P M M N"
_symmetry_group_IT_number 59
_space_group.IT_coordinate_system_code '2'
_symmetry_cell_setting 'orthorhombic'
loop_
_space_group_symop_operation_xyz
x,y,z
1/2-x,1/2-y,z
1/2+x,-y,-z
-x,1/2+y,-z
-x,-y,-z
1/2+x,1/2+y,-z
1/2-x,y,z
x,1/2-y,z
loop_
_atom_site_type_symbol
_atom_site_label
_atom_site_fract_x
_atom_site_fract_y
_atom_site_fract_z
Si Si1 0.815974 0.077494 0.102800
Si Si2 0.135377 0.924785 0.747299
Si Si3 0.495391 0.576884 0.744848
Si Si4 0.909643 0.420529 0.477913
Si Si5 0.985480 0.920678 0.897424
Si Si6 0.816924 0.920589 0.386331
Si Si7 0.912063 0.921030 0.026324
Si Si8 0.969841 0.579503 0.597668
O O1 0.750000 0.028277 0.094371
O O2 0.824316 0.250000 0.092971
O O3 0.838167 0.027638 0.178597
O O4 0.851132 0.997903 0.041136
O O5 0.139131 0.750000 0.735842
O O6 0.069823 0.986183 0.744932
O O7 0.172670 0.001888 0.687669
O O8 0.489189 0.750000 0.736362
O O9 0.528319 0.535174 0.817031
O O10 0.531852 0.520433 0.677915
O O11 0.893567 0.250000 0.484859
O O12 0.854903 0.505390 0.446923
O O13 0.924012 0.483697 0.554582
O O14 0.964600 0.445381 0.428042
O O15 0.004565 0.750000 0.902093
O O16 0.929363 0.951379 0.945346
O O17 0.039376 0.015546 0.922592
O O18 0.750000 0.940278 0.407259
O O19 0.834118 0.750000 0.380244
O O20 0.906307 0.750000 0.042057
O O21 0.952027 0.750000 0.590496
#
# Coordination Sequence:
#
# PCOD8239969 Si02
#       8
#     8   8   8   8   8   8   8   8
#     4  10  20  33  49  66  90 130 170 199 232 278
#     4  10  18  32  50  68  91 125 168 199 224 271
#     4   9  15  28  50  71  92 123 158 192 229 278
#     4  10  19  32  49  70  93 123 160 193 229 277
#     4   9  17  31  49  67  93 126 160 195 236 285
#     4  11  23  35  47  67  97 130 161 197 238 273
#     4  10  19  29  45  70  95 123 157 200 245 277
#     4   9  17  30  48  70  94 120 152 192 240 280
#
# _framework density 15.966112000000001
#
# number of rings (size 3 to 8) (size 9 to 14) (size 15 to 20)
#    0.000    2.250    2.500    1.500    0.000    3.250 
#    0.000    0.625    0.000    0.000    0.000    0.875 
#    0.000    3.000    0.000    0.000    0.000    0.000 
#
# Total GULP energy -793545.866435 kJ/mol
# GULP energy per Si atom -12399.154163 kJ/mol
# Density = 1.592977 g / cm^3
# Si number density = 15.966112 Si / 1000 Ang^3
#
#
#
# Elastic Constant Matrix: (Units=GPa)
#
#
# Indices 1 2 3 4 5 6 
#
# 1 83.9197 40.6025 58.0439 0.0000 0.0000 0.0000
# 2 40.6025 56.7204 41.2970 0.0000 0.0000 0.0000
# 3 58.0439 41.2970 130.8170 0.0000 0.0000 0.0000
# 4 0.0000 0.0000 0.0000 23.5714 0.0000 0.0000
# 5 0.0000 0.0000 0.0000 0.0000 24.6068 0.0000
# 6 0.0000 0.0000 0.0000 0.0000 0.0000 24.4208
#
#
#
# Elastic Compliance Matrix: (Units=1/GPa)
#
#
# Indices 1 2 3 4 5 6 
#
# 1 0.021366 -0.010897 -0.006040 0.000000 0.000000 0.000000
# 2 -0.010897 0.028449 -0.004146 0.000000 0.000000 0.000000
# 3 -0.006040 -0.004146 0.011633 0.000000 0.000000 0.000000
# 4 0.000000 0.000000 0.000000 0.042424 0.000000 0.000000
# 5 0.000000 0.000000 0.000000 0.000000 0.040639 0.000000
# 6 0.000000 0.000000 0.000000 0.000000 0.000000 0.040949
#
#
# Mechanical properties :
#
#
# Convention : Reuss Voigt Hill
#
# Bulk Modulus (GPa) = 51.86090 61.26043 56.56066
# Shear Modulus (GPa) = 21.36254 23.28739 22.32497
#
# Velocity S-wave (km/s) = 3.66183 3.82324 3.74340
# Velocity P-wave (km/s) = 7.10148 7.61196 7.36114
#
# Compressibility (1/GPa) = 0.01928235
#
# Stress axis : x y z
#
# Youngs Moduli (GPa) = 46.80312 35.15016 85.96097
#
# Poissons Ratio (x) = 0.38303 0.51922
# Poissons Ratio (y) = 0.51001 0.35640
# Poissons Ratio (z) = 0.28270 0.14574
#
# Static dielectric constant tensor:
#      x y z
#    x 2.885020 0.000000 0.000000 
#    y 0.000000 2.986930 0.000000 
#    z 0.000000 0.000000 3.230960 
# 
# 
# High freq. dielectric constant tensor:
#      x y z
#    x 1.585890 0.000000 0.000000 
#    y 0.000000 1.608670 0.000000 
#    z 0.000000 0.000000 1.613790 
# 
# From -- ./inp_files/28458.got.cif
#   From: 2010.03.12/outbox.cif.g09.slc.cpg/sg59_15_cif.got.tgz:28458.got - 2010.04.16 16:29:54.
