data_PCOD8239248
_publ_section_title
;
Structure prediction by ZEFSAII (Michael W. Deem and Ramdas Pophale) SiO2 
 PCOD8239248
Probable space group: P M M N
;
_chemical_formula_sum "Si O2"
_cell_formula_units_Z 64
_cell_length_a 25.017288
_cell_length_b 9.153338
_cell_length_c 18.455460
_cell_angle_alpha 90.000000
_cell_angle_beta 90.000000
_cell_angle_gamma 90.000000
_cell_volume 4226.147029
_symmetry_space_group_name_H-M "P M M N"
_symmetry_group_IT_number 59
_space_group.IT_coordinate_system_code '2'
_symmetry_cell_setting 'orthorhombic'
loop_
_space_group_symop_operation_xyz
x,y,z
1/2-x,1/2-y,z
1/2+x,-y,-z
-x,1/2+y,-z
-x,-y,-z
1/2+x,1/2+y,-z
1/2-x,y,z
x,1/2-y,z
loop_
_atom_site_type_symbol
_atom_site_label
_atom_site_fract_x
_atom_site_fract_y
_atom_site_fract_z
Si Si1 0.424645 0.587949 0.029658
Si Si2 0.996336 0.419837 0.391389
Si Si3 0.079543 0.580328 0.482786
Si Si4 0.809569 0.081494 0.575168
Si Si5 0.458231 0.086224 0.901975
Si Si6 0.501403 0.578260 0.773045
Si Si7 0.311659 0.085360 0.277690
Si Si8 0.608357 0.077471 0.817841
O O1 0.411617 0.750000 0.001231
O O2 0.483637 0.583448 0.063022
O O3 0.386031 0.543224 0.096103
O O4 0.417424 0.480681 0.961297
O O5 0.008160 0.250000 0.401359
O O6 0.050330 0.500720 0.416036
O O7 0.981827 0.455600 0.308429
O O8 0.945872 0.470785 0.440662
O O9 0.069103 0.750000 0.470370
O O10 0.143447 0.546537 0.482907
O O11 0.750000 0.049145 0.542635
O O12 0.812950 0.250000 0.600310
O O13 0.821125 0.979479 0.643154
O O14 0.439634 0.250000 0.883472
O O15 0.458380 0.991822 0.828257
O O16 0.505559 0.750000 0.789080
O O17 0.558942 0.506017 0.782245
O O18 0.250000 0.087189 0.257264
O O19 0.335317 0.250000 0.275800
O O20 0.338381 0.981605 0.218552
O O21 0.600627 0.250000 0.804848
#
# Coordination Sequence:
#
# PCOD8239248 Si02
#       8
#     8   8   8   8   8   8   8   8
#     4   8  15  26  38  54  76 102 130 158 192 229
#     4   9  18  29  40  57  80 108 138 165 200 245
#     4   9  17  29  43  58  79 105 134 169 204 241
#     4   9  17  29  45  62  79 103 135 170 207 243
#     4   9  16  25  38  56  78 103 131 162 192 226
#     4  10  18  27  40  57  80 108 136 166 200 241
#     4  10  20  31  42  58  81 107 134 166 202 238
#     4  10  19  29  42  59  79 105 137 169 199 236
#
# _framework density 15.143817
#
# number of rings (size 3 to 8) (size 9 to 14) (size 15 to 20)
#    0.000    2.750    0.000    3.000    0.000    7.750 
#    0.000    0.000    0.000    0.000    0.000    0.000 
#    0.000    1.000    0.000    7.500    0.000    2.125 
#
# Total GULP energy -793278.702107 kJ/mol
# GULP energy per Si atom -12394.979720 kJ/mol
# Density = 1.510935 g / cm^3
# Si number density = 15.143817 Si / 1000 Ang^3
#
#
#
# Elastic Constant Matrix: (Units=GPa)
#
#
# Indices 1 2 3 4 5 6 
#
# 1 66.9001 29.9479 42.4988 0.0000 0.0000 0.0000
# 2 29.9479 83.9928 52.0170 0.0000 0.0000 0.0000
# 3 42.4988 52.0170 97.7960 0.0000 0.0000 0.0000
# 4 0.0000 0.0000 0.0000 23.4160 0.0000 0.0000
# 5 0.0000 0.0000 0.0000 0.0000 21.3739 0.0000
# 6 0.0000 0.0000 0.0000 0.0000 0.0000 17.1894
#
#
#
# Elastic Compliance Matrix: (Units=1/GPa)
#
#
# Indices 1 2 3 4 5 6 
#
# 1 0.021064 -0.002746 -0.007693 0.000000 0.000000 0.000000
# 2 -0.002746 0.018112 -0.008440 0.000000 0.000000 0.000000
# 3 -0.007693 -0.008440 0.018058 0.000000 0.000000 0.000000
# 4 0.000000 0.000000 0.000000 0.042706 0.000000 0.000000
# 5 0.000000 0.000000 0.000000 0.000000 0.046786 0.000000
# 6 0.000000 0.000000 0.000000 0.000000 0.000000 0.058175
#
#
# Mechanical properties :
#
#
# Convention : Reuss Voigt Hill
#
# Bulk Modulus (GPa) = 51.34800 55.29071 53.31935
# Shear Modulus (GPa) = 20.06810 20.67755 20.37282
#
# Velocity S-wave (km/s) = 3.64423 3.69916 3.67180
# Velocity P-wave (km/s) = 7.18942 7.40505 7.29803
#
# Compressibility (1/GPa) = 0.01947496
#
# Stress axis : x y z
#
# Youngs Moduli (GPa) = 47.47430 55.21205 55.37760
#
# Poissons Ratio (x) = 0.15162 0.42602
# Poissons Ratio (y) = 0.13037 0.46740
# Poissons Ratio (z) = 0.36522 0.46601
#
# Static dielectric constant tensor:
#      x y z
#    x 2.775580 0.000000 0.000000 
#    y 0.000000 3.094470 0.000000 
#    z 0.000000 0.000000 3.027430 
# 
# 
# High freq. dielectric constant tensor:
#      x y z
#    x 1.538220 0.000000 0.000000 
#    y 0.000000 1.594170 0.000000 
#    z 0.000000 0.000000 1.570720 
# 
# From -- ./inp_files/28528.got.cif
#   From: 2010.03.12/outbox.cif.g09.slc.cpg/sg59_15_cif.got.tgz:28528.got - 2010.04.16 16:29:54.
