data_PCOD8239784
_publ_section_title
;
Structure prediction by ZEFSAII (Michael W. Deem and Ramdas Pophale) SiO2 
 PCOD8239784
Probable space group: P M M N
;
_chemical_formula_sum "Si O2"
_cell_formula_units_Z 40
_cell_length_a 25.664125
_cell_length_b 8.929853
_cell_length_c 9.496366
_cell_angle_alpha 90.000000
_cell_angle_beta 90.000000
_cell_angle_gamma 90.000000
_cell_volume 2176.347376
_symmetry_space_group_name_H-M "P M M N"
_symmetry_group_IT_number 59
_space_group.IT_coordinate_system_code '2'
_symmetry_cell_setting 'orthorhombic'
loop_
_space_group_symop_operation_xyz
x,y,z
1/2-x,1/2-y,z
1/2+x,-y,-z
-x,1/2+y,-z
-x,-y,-z
1/2+x,1/2+y,-z
1/2-x,y,z
x,1/2-y,z
loop_
_atom_site_type_symbol
_atom_site_label
_atom_site_fract_x
_atom_site_fract_y
_atom_site_fract_z
Si Si1 0.554526 0.075669 0.166599
Si Si2 0.854774 0.923595 0.337990
Si Si3 0.551729 0.423368 0.842030
Si Si4 0.750000 0.580285 0.635334
Si Si5 0.137331 0.418586 0.330802
Si Si6 0.750000 0.425064 0.348000
O O1 0.558523 0.250000 0.200945
O O2 0.596141 0.988555 0.257676
O O3 0.497311 0.019311 0.210566
O O4 0.565117 0.039484 0.003339
O O5 0.849678 0.750000 0.302792
O O6 0.863225 0.952369 0.503328
O O7 0.802302 0.003618 0.281632
O O8 0.537993 0.250000 0.822146
O O9 0.601453 0.463519 0.748319
O O10 0.750000 0.750000 0.567854
O O11 0.697052 0.560983 0.725968
O O12 0.750000 0.456889 0.513979
O O13 0.117637 0.250000 0.299720
O O14 0.750000 0.250000 0.316884
#
# Coordination Sequence:
#
# PCOD8239784 Si02
#       6
#     8   8   8   4   8   4
#     4  10  21  37  55  75 101 136 176 216 259 308
#     4  10  20  35  55  79 106 137 173 212 255 304
#     4  10  21  36  54  76 103 136 172 212 261 313
#     4   8  16  32  51  74 105 138 172 208 250 302
#     4   9  18  33  54  78 104 135 172 213 253 301
#     4  10  18  30  51  78 107 138 170 208 256 304
#
# _framework density 18.379417
#
# number of rings (size 3 to 8) (size 9 to 14) (size 15 to 20)
#    0.000    2.400    0.000    3.900    0.000    7.200 
#    0.000    1.000    0.000    4.800    0.000    0.000 
#    0.000    0.000    0.000    0.000    0.000    0.000 
#
# Total GULP energy -495972.685566 kJ/mol
# GULP energy per Si atom -12399.317139 kJ/mol
# Density = 1.833758 g / cm^3
# Si number density = 18.379417 Si / 1000 Ang^3
#
#
#
# Elastic Constant Matrix: (Units=GPa)
#
#
# Indices 1 2 3 4 5 6 
#
# 1 144.4833 62.5836 52.6877 0.0000 0.0000 0.0000
# 2 62.5836 106.9990 37.6814 0.0000 0.0000 0.0000
# 3 52.6877 37.6814 44.2241 0.0000 0.0000 0.0000
# 4 0.0000 0.0000 0.0000 25.9936 0.0000 0.0000
# 5 0.0000 0.0000 0.0000 0.0000 -111.4716 0.0000
# 6 0.0000 0.0000 0.0000 0.0000 0.0000 39.7918
#
#
#
# Elastic Compliance Matrix: (Units=1/GPa)
#
#
# Indices 1 2 3 4 5 6 
#
# 1 0.012898 -0.003047 -0.012770 0.000000 0.000000 0.000000
# 2 -0.003047 0.014072 -0.008361 0.000000 0.000000 0.000000
# 3 -0.012770 -0.008361 0.044950 0.000000 0.000000 0.000000
# 4 0.000000 0.000000 0.000000 0.038471 0.000000 0.000000
# 5 0.000000 0.000000 0.000000 0.000000 -0.008971 0.000000
# 6 0.000000 0.000000 0.000000 0.000000 0.000000 0.025131
#
#
# Mechanical properties :
#
#
# Convention : Reuss Voigt Hill
#
# Bulk Modulus (GPa) = 42.43581 66.84576 54.64079
# Shear Modulus (GPa) = 27.35826 0.37967 13.86897
#
# Velocity S-wave (km/s) = 3.86233 0.45500 2.74996
# Velocity P-wave (km/s) = 6.55965 6.06011 6.31482
#
# Compressibility (1/GPa) = 0.02356500
#
# Stress axis : x y z
#
# Youngs Moduli (GPa) = 77.53346 71.06222 22.24704
#
# Poissons Ratio (x) = 0.21650 0.28410
# Poissons Ratio (y) = 0.23622 0.18600
# Poissons Ratio (z) = 0.99011 0.59412
#
# Static dielectric constant tensor:
#      x y z
#    x 3.630580 0.000000 0.000000 
#    y 0.000000 3.398370 0.000000 
#    z 0.000000 0.000000 3.051230 
# 
# 
# High freq. dielectric constant tensor:
#      x y z
#    x 1.731330 0.000000 0.000000 
#    y 0.000000 1.722840 0.000000 
#    z 0.000000 0.000000 1.674480 
# 
# From -- ./inp_files/12415.got.cif
#   From: 2010.03.12/outbox.cif.g09.slc.cpg/sg59_7_cif.got.tgz:12415.got - 2010.04.16 16:29:54.
