data_PCOD8239469
_publ_section_title
;
Structure prediction by ZEFSAII (Michael W. Deem and Ramdas Pophale) SiO2 
 PCOD8239469
Probable space group: P M M N
;
_chemical_formula_sum "Si O2"
_cell_formula_units_Z 56
_cell_length_a 9.389392
_cell_length_b 20.938309
_cell_length_c 14.658845
_cell_angle_alpha 90.000000
_cell_angle_beta 90.000000
_cell_angle_gamma 90.000000
_cell_volume 2881.899478
_symmetry_space_group_name_H-M "P M M N"
_symmetry_group_IT_number 59
_space_group.IT_coordinate_system_code '2'
_symmetry_cell_setting 'orthorhombic'
loop_
_space_group_symop_operation_xyz
x,y,z
1/2-x,1/2-y,z
1/2+x,-y,-z
-x,1/2+y,-z
-x,-y,-z
1/2+x,1/2+y,-z
1/2-x,y,z
x,1/2-y,z
loop_
_atom_site_type_symbol
_atom_site_label
_atom_site_fract_x
_atom_site_fract_y
_atom_site_fract_z
Si Si1 0.080952 0.750000 0.591270
Si Si2 0.082338 0.677826 0.897295
Si Si3 0.088849 0.389321 0.605948
Si Si4 0.919221 0.179340 0.896235
Si Si5 0.917159 0.067180 0.768143
Si Si6 0.412462 0.370364 0.399545
Si Si7 0.409347 0.250000 0.587220
Si Si8 0.588795 0.573694 0.787512
O O1 0.250000 0.750000 0.603657
O O2 0.013811 0.686783 0.636319
O O3 0.034880 0.750000 0.486232
O O4 0.250000 0.667524 0.890920
O O5 0.043195 0.750000 0.864893
O O6 0.011227 0.624888 0.834629
O O7 0.027809 0.667630 0.000669
O O8 0.250000 0.413999 0.616749
O O9 0.039841 0.395228 0.499833
O O10 0.074094 0.315788 0.643017
O O11 0.988661 0.432055 0.668659
O O12 0.750000 0.176695 0.894790
O O13 0.969990 0.250000 0.862943
O O14 0.981362 0.123433 0.831820
O O15 0.750000 0.075876 0.752839
O O16 0.950886 0.998915 0.815559
O O17 0.250000 0.345474 0.407502
O O18 0.426565 0.424623 0.322826
O O19 0.250000 0.250000 0.541910
O O20 0.750000 0.589872 0.816660
#
# Coordination Sequence:
#
# PCOD8239469 Si02
#       8
#     4   8   8   8   8   8   4   8
#     4  10  18  28  48  78 101 122 173 236 271 300
#     4   9  19  37  60  83 106 135 176 223 270 328
#     4   9  18  33  52  73 102 145 188 220 261 319
#     4   8  16  34  58  81 108 142 172 210 277 338
#     4  10  21  35  53  81 112 142 184 227 264 317
#     4   9  19  36  52  68 104 153 184 210 270 335
#     4   8  16  32  50  70 103 142 175 212 271 332
#     4  10  22  37  53  78 111 146 182 222 270 324
#
# _framework density 19.431629000000001
#
# number of rings (size 3 to 8) (size 9 to 14) (size 15 to 20)
#    0.000    2.857    0.000    2.357    2.000    4.857 
#    0.000    0.714    0.000    0.857    0.000    0.000 
#    0.000    0.000    0.000    0.000    0.000    0.000 
#
# Total GULP energy -693925.059483 kJ/mol
# GULP energy per Si atom -12391.518919 kJ/mol
# Density = 1.938740 g / cm^3
# Si number density = 19.431629 Si / 1000 Ang^3
#
#
#
# Elastic Constant Matrix: (Units=GPa)
#
#
# Indices 1 2 3 4 5 6 
#
# 1 55.0681 41.7426 28.8145 0.0000 0.0000 0.0000
# 2 41.7426 124.0659 60.9900 0.0000 0.0000 0.0000
# 3 28.8145 60.9900 85.8056 0.0000 0.0000 0.0000
# 4 0.0000 0.0000 0.0000 26.1898 0.0000 0.0000
# 5 0.0000 0.0000 0.0000 0.0000 19.4188 0.0000
# 6 0.0000 0.0000 0.0000 0.0000 0.0000 24.2874
#
#
#
# Elastic Compliance Matrix: (Units=1/GPa)
#
#
# Indices 1 2 3 4 5 6 
#
# 1 0.025131 -0.006620 -0.003734 0.000000 0.000000 0.000000
# 2 -0.006620 0.014133 -0.007823 0.000000 0.000000 0.000000
# 3 -0.003734 -0.007823 0.018468 0.000000 0.000000 0.000000
# 4 0.000000 0.000000 0.000000 0.038183 0.000000 0.000000
# 5 0.000000 0.000000 0.000000 0.000000 0.051497 0.000000
# 6 0.000000 0.000000 0.000000 0.000000 0.000000 0.041174
#
#
# Mechanical properties :
#
#
# Convention : Reuss Voigt Hill
#
# Bulk Modulus (GPa) = 46.77346 58.67044 52.72195
# Shear Modulus (GPa) = 21.54567 22.87203 22.20885
#
# Velocity S-wave (km/s) = 3.33347 3.43454 3.38438
# Velocity P-wave (km/s) = 6.24012 6.78136 6.51636
#
# Compressibility (1/GPa) = 0.02137965
#
# Stress axis : x y z
#
# Youngs Moduli (GPa) = 39.79126 70.75577 54.14646
#
# Poissons Ratio (x) = 0.46840 0.20218
# Poissons Ratio (y) = 0.26342 0.42357
# Poissons Ratio (z) = 0.14858 0.55350
#
# Static dielectric constant tensor:
#      x y z
#    x 3.243790 0.000000 0.000000 
#    y 0.000000 3.700140 0.000000 
#    z 0.000000 0.000000 3.435560 
# 
# 
# High freq. dielectric constant tensor:
#      x y z
#    x 1.730360 0.000000 0.000000 
#    y 0.000000 1.759590 0.000000 
#    z 0.000000 0.000000 1.742130 
# 
# From -- ./inp_files/21097.got.cif
#   From: 2010.03.12/outbox.cif.g09.slc.cpg/sg59_11_cif.got.tgz:21097.got - 2010.04.16 16:29:54.
