data_PCOD8239840
_publ_section_title
;
Structure prediction by ZEFSAII (Michael W. Deem and Ramdas Pophale) SiO2 
 PCOD8239840
Probable space group: P M M N
;
_chemical_formula_sum "Si O2"
_cell_formula_units_Z 48
_cell_length_a 12.236801
_cell_length_b 14.192630
_cell_length_c 15.806172
_cell_angle_alpha 90.000000
_cell_angle_beta 90.000000
_cell_angle_gamma 90.000000
_cell_volume 2745.095652
_symmetry_space_group_name_H-M "P M M N"
_symmetry_group_IT_number 59
_space_group.IT_coordinate_system_code '2'
_symmetry_cell_setting 'orthorhombic'
loop_
_space_group_symop_operation_xyz
x,y,z
1/2-x,1/2-y,z
1/2+x,-y,-z
-x,1/2+y,-z
-x,-y,-z
1/2+x,1/2+y,-z
1/2-x,y,z
x,1/2-y,z
loop_
_atom_site_type_symbol
_atom_site_label
_atom_site_fract_x
_atom_site_fract_y
_atom_site_fract_z
Si Si1 0.619364 0.484281 0.392536
Si Si2 0.123578 0.976055 0.800933
Si Si3 0.542542 0.861943 0.510158
Si Si4 0.123755 0.356111 0.917386
Si Si5 0.250000 0.137275 0.193127
Si Si6 0.959279 0.638811 0.904466
Si Si7 0.250000 0.139063 0.381108
O O1 0.750000 0.485255 0.402706
O O2 0.583046 0.469722 0.295482
O O3 0.570168 0.398025 0.447707
O O4 0.566757 0.583786 0.422348
O O5 0.250000 0.951256 0.805603
O O6 0.067806 0.900752 0.862081
O O7 0.098522 0.080417 0.835994
O O8 0.536387 0.750000 0.493847
O O9 0.641287 0.893620 0.571091
O O10 0.250000 0.363028 0.946062
O O11 0.094137 0.250000 0.890620
O O12 0.050274 0.389659 0.996849
O O13 0.250000 0.250000 0.192521
O O14 0.143886 0.097053 0.146078
O O15 0.250000 0.095018 0.287677
O O16 0.962098 0.750000 0.895663
O O17 0.250000 0.250000 0.374165
#
# Coordination Sequence:
#
# PCOD8239840 Si02
#       7
#     8   8   8   8   4   8   4
#     4  10  21  36  52  76 107 137 171 210 256 314
#     4  10  21  33  49  76 107 136 167 202 250 309
#     4  10  20  35  55  76 101 134 171 214 260 305
#     4   9  17  32  52  74 100 133 172 213 251 289
#     4   9  16  26  46  73  96 122 161 207 248 286
#     4  10  18  31  50  73 103 134 168 209 251 295
#     4   9  16  28  48  73  96 122 161 207 254 296
#
# _framework density 17.485728999999999
#
# number of rings (size 3 to 8) (size 9 to 14) (size 15 to 20)
#    0.000    2.333    1.667    1.500    0.000    3.333 
#    0.000    3.333    0.000    0.000    0.000    0.000 
#    0.000    0.000    0.000    0.000    0.000    0.000 
#
# Total GULP energy -595126.998690 kJ/mol
# GULP energy per Si atom -12398.479139 kJ/mol
# Density = 1.744593 g / cm^3
# Si number density = 17.485729 Si / 1000 Ang^3
#
#
#
# Elastic Constant Matrix: (Units=GPa)
#
#
# Indices 1 2 3 4 5 6 
#
# 1 62.8186 25.4605 33.8506 0.0000 0.0000 0.0000
# 2 25.4605 53.3823 16.7080 0.0000 0.0000 0.0000
# 3 33.8506 16.7080 67.4569 0.0000 0.0000 0.0000
# 4 0.0000 0.0000 0.0000 23.1451 0.0000 0.0000
# 5 0.0000 0.0000 0.0000 0.0000 27.2890 0.0000
# 6 0.0000 0.0000 0.0000 0.0000 0.0000 23.3871
#
#
#
# Elastic Compliance Matrix: (Units=1/GPa)
#
#
# Indices 1 2 3 4 5 6 
#
# 1 0.025056 -0.008689 -0.010421 0.000000 0.000000 0.000000
# 2 -0.008689 0.023320 -0.001416 0.000000 0.000000 0.000000
# 3 -0.010421 -0.001416 0.020405 0.000000 0.000000 0.000000
# 4 0.000000 0.000000 0.000000 0.043206 0.000000 0.000000
# 5 0.000000 0.000000 0.000000 0.000000 0.036645 0.000000
# 6 0.000000 0.000000 0.000000 0.000000 0.000000 0.042759
#
#
# Mechanical properties :
#
#
# Convention : Reuss Voigt Hill
#
# Bulk Modulus (GPa) = 36.06372 37.29957 36.68165
# Shear Modulus (GPa) = 20.68811 21.94014 21.31413
#
# Velocity S-wave (km/s) = 3.44342 3.54608 3.49513
# Velocity P-wave (km/s) = 6.03978 6.17608 6.10831
#
# Compressibility (1/GPa) = 0.02772870
#
# Stress axis : x y z
#
# Youngs Moduli (GPa) = 39.91044 42.88166 49.00870
#
# Poissons Ratio (x) = 0.37258 0.51074
# Poissons Ratio (y) = 0.34677 0.06939
# Poissons Ratio (z) = 0.41592 0.06072
#
# Static dielectric constant tensor:
#      x y z
#    x 3.245500 0.000000 0.000000 
#    y 0.000000 3.062320 0.000000 
#    z 0.000000 0.000000 3.404240 
# 
# 
# High freq. dielectric constant tensor:
#      x y z
#    x 1.670530 0.000000 0.000000 
#    y 0.000000 1.655980 0.000000 
#    z 0.000000 0.000000 1.683000 
# 
# From -- ./inp_files/22415.got.cif
#   From: 2010.03.12/outbox.cif.g09.slc.cpg/sg59_12_cif.got.tgz:22415.got - 2010.04.16 16:29:54.
