data_PCOD8239190
_publ_section_title
;
Structure prediction by ZEFSAII (Michael W. Deem and Ramdas Pophale) SiO2 
 PCOD8239190
Probable space group: P M M N
;
_chemical_formula_sum "Si O2"
_cell_formula_units_Z 64
_cell_length_a 8.966012
_cell_length_b 23.987853
_cell_length_c 15.532293
_cell_angle_alpha 90.000000
_cell_angle_beta 90.000000
_cell_angle_gamma 90.000000
_cell_volume 3340.613786
_symmetry_space_group_name_H-M "P M M N"
_symmetry_group_IT_number 59
_space_group.IT_coordinate_system_code '2'
_symmetry_cell_setting 'orthorhombic'
loop_
_space_group_symop_operation_xyz
x,y,z
1/2-x,1/2-y,z
1/2+x,-y,-z
-x,1/2+y,-z
-x,-y,-z
1/2+x,1/2+y,-z
1/2-x,y,z
x,1/2-y,z
loop_
_atom_site_type_symbol
_atom_site_label
_atom_site_fract_x
_atom_site_fract_y
_atom_site_fract_z
Si Si1 0.426695 0.497419 0.346932
Si Si2 0.425448 0.617480 0.092872
Si Si3 0.073053 0.884759 0.412966
Si Si4 0.572992 0.621391 0.588466
Si Si5 0.572383 0.187628 0.749237
Si Si6 0.575226 0.388045 0.097556
Si Si7 0.424120 0.814691 0.741878
Si Si8 0.072850 0.498702 0.152792
O O1 0.250000 0.498696 0.343336
O O2 0.483610 0.551823 0.398050
O O3 0.484727 0.441333 0.392516
O O4 0.489096 0.498338 0.250169
O O5 0.250000 0.615630 0.108177
O O6 0.493396 0.659832 0.163487
O O7 0.486640 0.555008 0.108049
O O8 0.464639 0.637930 0.996221
O O9 0.250000 0.881726 0.424703
O O10 0.018745 0.847700 0.332827
O O11 0.995227 0.859906 0.497577
O O12 0.750000 0.624669 0.585099
O O13 0.516489 0.663234 0.661248
O O14 0.750000 0.188799 0.752202
O O15 0.507587 0.250000 0.742073
O O16 0.750000 0.399219 0.105198
O O17 0.520909 0.345906 0.171662
O O18 0.493664 0.446773 0.102445
O O19 0.250000 0.825279 0.724694
O O20 0.459545 0.750000 0.755041
O O21 0.250000 0.493906 0.150593
#
# Coordination Sequence:
#
# PCOD8239190 Si02
#       8
#     8   8   8   8   8   8   8   8
#     4   9  17  31  53  77 104 138 175 211 256 313
#     4   9  17  30  51  78 108 139 171 209 258 310
#     4  10  19  34  55  79 108 141 174 215 263 314
#     4  11  22  36  55  80 105 135 176 221 266 316
#     4   9  17  30  51  78 104 134 175 215 251 301
#     4  10  20  33  52  81 109 134 170 218 263 305
#     4  10  22  39  55  73 103 142 179 217 264 314
#     4  10  17  31  54  77 106 143 174 207 257 317
#
# _framework density 19.158156000000002
#
# number of rings (size 3 to 8) (size 9 to 14) (size 15 to 20)
#    0.000    2.250    2.500    1.125    0.000    1.250 
#    0.000    5.000    0.000    0.750    0.000    0.000 
#    0.000    0.000    0.000    0.000    0.000    0.000 
#
# Total GULP energy -793566.289893 kJ/mol
# GULP energy per Si atom -12399.473280 kJ/mol
# Density = 1.911455 g / cm^3
# Si number density = 19.158156 Si / 1000 Ang^3
#
#
#
# Elastic Constant Matrix: (Units=GPa)
#
#
# Indices 1 2 3 4 5 6 
#
# 1 25.1146 21.1483 28.9171 0.0000 0.0000 0.0000
# 2 21.1483 125.7054 58.5374 0.0000 0.0000 0.0000
# 3 28.9171 58.5374 160.7308 0.0000 0.0000 0.0000
# 4 0.0000 0.0000 0.0000 15.8457 0.0000 0.0000
# 5 0.0000 0.0000 0.0000 0.0000 16.2723 0.0000
# 6 0.0000 0.0000 0.0000 0.0000 0.0000 21.0784
#
#
#
# Elastic Compliance Matrix: (Units=1/GPa)
#
#
# Indices 1 2 3 4 5 6 
#
# 1 0.053100 -0.005401 -0.007586 0.000000 0.000000 0.000000
# 2 -0.005401 0.010129 -0.002717 0.000000 0.000000 0.000000
# 3 -0.007586 -0.002717 0.008576 0.000000 0.000000 0.000000
# 4 0.000000 0.000000 0.000000 0.063109 0.000000 0.000000
# 5 0.000000 0.000000 0.000000 0.000000 0.061454 0.000000
# 6 0.000000 0.000000 0.000000 0.000000 0.000000 0.047442
#
#
# Mechanical properties :
#
#
# Convention : Reuss Voigt Hill
#
# Bulk Modulus (GPa) = 24.75455 58.75071 41.75263
# Shear Modulus (GPa) = 17.31996 24.16914 20.74455
#
# Velocity S-wave (km/s) = 3.01001 3.55570 3.29417
# Velocity P-wave (km/s) = 5.00294 6.89855 6.02575
#
# Compressibility (1/GPa) = 0.04039662
#
# Stress axis : x y z
#
# Youngs Moduli (GPa) = 18.83235 98.72562 116.60326
#
# Poissons Ratio (x) = 0.53318 0.88459
# Poissons Ratio (y) = 0.10171 0.31685
# Poissons Ratio (z) = 0.14287 0.26827
#
# Static dielectric constant tensor:
#      x y z
#    x 3.010350 0.000000 0.000000 
#    y 0.000000 3.635760 0.000000 
#    z 0.000000 0.000000 3.689940 
# 
# 
# High freq. dielectric constant tensor:
#      x y z
#    x 1.695660 0.000000 0.000000 
#    y 0.000000 1.745180 0.000000 
#    z 0.000000 0.000000 1.763060 
# 
# From -- ./inp_files/21550.got.cif
#   From: 2010.03.12/outbox.cif.g09.slc.cpg/sg59_11_cif.got.tgz:21550.got - 2010.04.16 16:29:54.
