data_PCOD8239675
_publ_section_title
;
Structure prediction by ZEFSAII (Michael W. Deem and Ramdas Pophale) SiO2 
 PCOD8239675
Probable space group: P M M N
;
_chemical_formula_sum "Si O2"
_cell_formula_units_Z 64
_cell_length_a 30.314425
_cell_length_b 8.701454
_cell_length_c 14.527433
_cell_angle_alpha 90.000000
_cell_angle_beta 90.000000
_cell_angle_gamma 90.000000
_cell_volume 3832.040098
_symmetry_space_group_name_H-M "P M M N"
_symmetry_group_IT_number 59
_space_group.IT_coordinate_system_code '2'
_symmetry_cell_setting 'orthorhombic'
loop_
_space_group_symop_operation_xyz
x,y,z
1/2-x,1/2-y,z
1/2+x,-y,-z
-x,1/2+y,-z
-x,-y,-z
1/2+x,1/2+y,-z
1/2-x,y,z
x,1/2-y,z
loop_
_atom_site_type_symbol
_atom_site_label
_atom_site_fract_x
_atom_site_fract_y
_atom_site_fract_z
Si Si1 0.201532 0.432130 0.850457
Si Si2 0.799257 0.428208 0.344454
Si Si3 0.424449 0.077469 0.739483
Si Si4 0.039315 0.067604 0.060884
Si Si5 0.527502 0.076979 0.742599
Si Si6 0.386714 0.925967 0.568782
Si Si7 0.386280 0.068896 0.931301
Si Si8 0.958154 0.929923 0.553157
O O1 0.250000 0.500037 0.876448
O O2 0.202859 0.250000 0.855191
O O3 0.188321 0.476478 0.746638
O O4 0.163937 0.496654 0.920915
O O5 0.750000 0.471438 0.379298
O O6 0.802208 0.250000 0.317044
O O7 0.834126 0.464244 0.426679
O O8 0.405550 0.250000 0.721551
O O9 0.476097 0.078924 0.723691
O O10 0.414362 0.021126 0.842064
O O11 0.404080 0.952712 0.671657
O O12 0.035380 0.250000 0.054819
O O13 0.038757 0.015555 0.165695
O O14 0.086397 0.008061 0.019312
O O15 0.000000 0.000000 0.000000
O O16 0.545900 0.250000 0.752195
O O17 0.549404 0.995847 0.654947
O O18 0.395413 0.750000 0.539952
O O19 0.412359 0.036839 0.499339
O O20 0.382902 0.250000 0.938111
O O21 0.966393 0.750000 0.558499
O O22 0.000000 0.000000 0.500000
#
# Coordination Sequence:
#
# PCOD8239675 Si02
#       8
#     8   8   8   8   8   8   8   8
#     4   9  16  27  46  70  95 127 166 203 242 292
#     4   9  18  31  46  69 102 134 164 202 248 295
#     4  10  18  30  48  68  99 135 164 203 247 288
#     4  11  21  34  50  70  98 133 170 208 249 297
#     4  11  22  37  52  71  99 132 168 211 252 294
#     4  11  21  32  49  74 101 135 173 206 244 296
#     4   9  17  30  46  68  98 131 164 200 245 287
#     4  12  24  37  53  74 100 133 169 208 250 298
#
# _framework density 16.701287000000001
#
# number of rings (size 3 to 8) (size 9 to 14) (size 15 to 20)
#    0.000    1.750    3.750    2.250    0.000    1.000 
#    0.000    1.250    0.000    0.000    0.000    0.875 
#    0.000    3.000    0.000    0.000    0.000    0.000 
#
# Total GULP energy -793237.200190 kJ/mol
# GULP energy per Si atom -12394.331253 kJ/mol
# Density = 1.666327 g / cm^3
# Si number density = 16.701287 Si / 1000 Ang^3
#
#
#
# Elastic Constant Matrix: (Units=GPa)
#
#
# Indices 1 2 3 4 5 6 
#
# 1 107.9905 26.4391 44.8045 0.0000 0.0000 0.0000
# 2 26.4391 57.2531 21.5269 0.0000 0.0000 0.0000
# 3 44.8045 21.5269 84.9298 0.0000 0.0000 0.0000
# 4 0.0000 0.0000 0.0000 25.0061 0.0000 0.0000
# 5 0.0000 0.0000 0.0000 0.0000 25.1411 0.0000
# 6 0.0000 0.0000 0.0000 0.0000 0.0000 17.3538
#
#
#
# Elastic Compliance Matrix: (Units=1/GPa)
#
#
# Indices 1 2 3 4 5 6 
#
# 1 0.012506 -0.003642 -0.005674 0.000000 0.000000 0.000000
# 2 -0.003642 0.020367 -0.003241 0.000000 0.000000 0.000000
# 3 -0.005674 -0.003241 0.015589 0.000000 0.000000 0.000000
# 4 0.000000 0.000000 0.000000 0.039990 0.000000 0.000000
# 5 0.000000 0.000000 0.000000 0.000000 0.039775 0.000000
# 6 0.000000 0.000000 0.000000 0.000000 0.000000 0.057624
#
#
# Mechanical properties :
#
#
# Convention : Reuss Voigt Hill
#
# Bulk Modulus (GPa) = 42.83085 48.41271 45.62178
# Shear Modulus (GPa) = 22.85726 23.99375 23.42551
#
# Velocity S-wave (km/s) = 3.70346 3.79442 3.74922
# Velocity P-wave (km/s) = 6.63238 6.94602 6.79101
#
# Compressibility (1/GPa) = 0.02334766
#
# Stress axis : x y z
#
# Youngs Moduli (GPa) = 79.96218 49.09995 64.14579
#
# Poissons Ratio (x) = 0.17880 0.36399
# Poissons Ratio (y) = 0.29119 0.20791
# Poissons Ratio (z) = 0.45374 0.15914
#
# Static dielectric constant tensor:
#      x y z
#    x 3.636560 0.000000 0.000000 
#    y 0.000000 3.128810 0.000000 
#    z 0.000000 0.000000 3.072800 
# 
# 
# High freq. dielectric constant tensor:
#      x y z
#    x 1.643210 0.000000 0.000000 
#    y 0.000000 1.641000 0.000000 
#    z 0.000000 0.000000 1.614860 
# 
# From -- ./inp_files/25026.got.cif
#   From: 2010.03.12/outbox.cif.g09.slc.cpg/sg59_13_cif.got.tgz:25026.got - 2010.04.16 16:29:54.
