data_PCOD8239677
_publ_section_title
;
Structure prediction by ZEFSAII (Michael W. Deem and Ramdas Pophale) SiO2 
 PCOD8239677
Probable space group: P M M N
;
_chemical_formula_sum "Si O2"
_cell_formula_units_Z 56
_cell_length_a 28.237927
_cell_length_b 8.844051
_cell_length_c 13.797328
_cell_angle_alpha 90.000000
_cell_angle_beta 90.000000
_cell_angle_gamma 90.000000
_cell_volume 3445.712499
_symmetry_space_group_name_H-M "P M M N"
_symmetry_group_IT_number 59
_space_group.IT_coordinate_system_code '2'
_symmetry_cell_setting 'orthorhombic'
loop_
_space_group_symop_operation_xyz
x,y,z
1/2-x,1/2-y,z
1/2+x,-y,-z
-x,1/2+y,-z
-x,-y,-z
1/2+x,1/2+y,-z
1/2-x,y,z
x,1/2-y,z
loop_
_atom_site_type_symbol
_atom_site_label
_atom_site_fract_x
_atom_site_fract_y
_atom_site_fract_z
Si Si1 0.107050 0.423467 0.308355
Si Si2 0.980529 0.069887 0.597546
Si Si3 0.051494 0.423401 0.112777
Si Si4 0.303820 0.927144 0.235521
Si Si5 0.197236 0.073743 0.029125
Si Si6 0.531589 0.571985 0.213219
Si Si7 0.606839 0.570893 0.073027
O O1 0.108989 0.250000 0.342301
O O2 0.072741 0.512835 0.382196
O O3 0.088634 0.441580 0.199601
O O4 0.160098 0.492374 0.310244
O O5 0.980132 0.250000 0.590892
O O6 0.016068 0.007451 0.682079
O O7 0.000000 0.000000 0.500000
O O8 0.035612 0.250000 0.101983
O O9 0.005504 0.523959 0.131161
O O10 0.076044 0.489427 0.017043
O O11 0.250000 0.966275 0.267569
O O12 0.313542 0.750000 0.238880
O O13 0.312614 0.982075 0.126319
O O14 0.250000 0.043924 0.989377
O O15 0.189086 0.250000 0.054367
O O16 0.161251 0.019028 0.943801
O O17 0.531005 0.750000 0.221390
O O18 0.583458 0.513812 0.174981
O O19 0.604436 0.750000 0.072004
#
# Coordination Sequence:
#
# PCOD8239677 Si02
#       7
#     8   8   8   8   8   8   8
#     4  10  18  30  48  69  92 122 154 189 230 273
#     4  10  20  34  50  69  90 117 151 192 240 290
#     4   9  16  26  40  60  89 119 147 176 213 258
#     4  10  19  29  42  64  95 127 158 191 222 258
#     4   9  16  27  43  61  85 121 159 187 216 257
#     4   9  18  29  43  62  86 113 146 184 224 270
#     4   9  15  26  41  61  88 117 148 183 217 256
#
# _framework density 16.252081
#
# number of rings (size 3 to 8) (size 9 to 14) (size 15 to 20)
#    0.000    2.571    1.429    1.714    0.000    2.000 
#    0.000    0.714    0.000    0.000    0.000    1.000 
#    0.000    3.429    0.000    0.000    0.000    0.000 
#
# Total GULP energy -693971.166563 kJ/mol
# GULP energy per Si atom -12392.342260 kJ/mol
# Density = 1.621509 g / cm^3
# Si number density = 16.252081 Si / 1000 Ang^3
#
#
#
# Elastic Constant Matrix: (Units=GPa)
#
#
# Indices 1 2 3 4 5 6 
#
# 1 131.1594 34.0420 62.9603 0.0000 0.0000 0.0000
# 2 34.0420 46.6713 24.1567 0.0000 0.0000 0.0000
# 3 62.9603 24.1567 74.2784 0.0000 0.0000 0.0000
# 4 0.0000 0.0000 0.0000 14.0987 0.0000 0.0000
# 5 0.0000 0.0000 0.0000 0.0000 22.2021 0.0000
# 6 0.0000 0.0000 0.0000 0.0000 0.0000 22.7822
#
#
#
# Elastic Compliance Matrix: (Units=1/GPa)
#
#
# Indices 1 2 3 4 5 6 
#
# 1 0.013689 -0.004784 -0.010047 0.000000 0.000000 0.000000
# 2 -0.004784 0.027435 -0.004867 0.000000 0.000000 0.000000
# 3 -0.010047 -0.004867 0.023562 0.000000 0.000000 0.000000
# 4 0.000000 0.000000 0.000000 0.070929 0.000000 0.000000
# 5 0.000000 0.000000 0.000000 0.000000 0.045041 0.000000
# 6 0.000000 0.000000 0.000000 0.000000 0.000000 0.043894
#
#
# Mechanical properties :
#
#
# Convention : Reuss Voigt Hill
#
# Bulk Modulus (GPa) = 39.54293 54.93635 47.23964
# Shear Modulus (GPa) = 18.35692 20.54660 19.45176
#
# Velocity S-wave (km/s) = 3.36447 3.55948 3.46335
# Velocity P-wave (km/s) = 6.28305 7.12525 6.71736
#
# Compressibility (1/GPa) = 0.02528897
#
# Stress axis : x y z
#
# Youngs Moduli (GPa) = 73.05116 36.44932 42.44117
#
# Poissons Ratio (x) = 0.17439 0.42642
# Poissons Ratio (y) = 0.34951 0.20657
# Poissons Ratio (z) = 0.73396 0.17740
#
# Static dielectric constant tensor:
#      x y z
#    x 3.438920 0.000000 0.000000 
#    y 0.000000 2.999340 0.000000 
#    z 0.000000 0.000000 2.920510 
# 
# 
# High freq. dielectric constant tensor:
#      x y z
#    x 1.629670 0.000000 0.000000 
#    y 0.000000 1.617940 0.000000 
#    z 0.000000 0.000000 1.582180 
# 
# From -- ./inp_files/21718.got.cif
#   From: 2010.03.12/outbox.cif.g09.slc.cpg/sg59_11_cif.got.tgz:21718.got - 2010.04.16 16:29:54.
