data_PCOD8239480
_publ_section_title
;
Structure prediction by ZEFSAII (Michael W. Deem and Ramdas Pophale) SiO2 
 PCOD8239480
Probable space group: P M M N
;
_chemical_formula_sum "Si O2"
_cell_formula_units_Z 64
_cell_length_a 9.007372
_cell_length_b 26.626628
_cell_length_c 17.346619
_cell_angle_alpha 90.000000
_cell_angle_beta 90.000000
_cell_angle_gamma 90.000000
_cell_volume 4160.342734
_symmetry_space_group_name_H-M "P M M N"
_symmetry_group_IT_number 59
_space_group.IT_coordinate_system_code '2'
_symmetry_cell_setting 'orthorhombic'
loop_
_space_group_symop_operation_xyz
x,y,z
1/2-x,1/2-y,z
1/2+x,-y,-z
-x,1/2+y,-z
-x,-y,-z
1/2+x,1/2+y,-z
1/2-x,y,z
x,1/2-y,z
loop_
_atom_site_type_symbol
_atom_site_label
_atom_site_fract_x
_atom_site_fract_y
_atom_site_fract_z
Si Si1 0.426428 0.606727 0.475812
Si Si2 0.074906 0.440119 0.656158
Si Si3 0.077843 0.448127 0.987144
Si Si4 0.925224 0.927837 0.850038
Si Si5 0.579830 0.538813 0.594363
Si Si6 0.082686 0.131352 0.291447
Si Si7 0.922861 0.966197 0.176552
Si Si8 0.075064 0.693808 0.588163
O O1 0.250000 0.602179 0.473684
O O2 0.494403 0.605682 0.389378
O O3 0.495940 0.558205 0.518057
O O4 0.478338 0.657862 0.518351
O O5 0.250000 0.437981 0.641038
O O6 0.035689 0.434743 0.747004
O O7 0.009665 0.492243 0.626809
O O8 0.250000 0.459044 0.993805
O O9 0.039072 0.430974 0.899179
O O10 0.033216 0.412752 0.060438
O O11 0.000000 0.500000 0.000000
O O12 0.750000 0.933084 0.837367
O O13 0.981940 0.883440 0.793281
O O14 0.991892 0.981298 0.826204
O O15 0.750000 0.524137 0.574356
O O16 0.574773 0.581436 0.658320
O O17 0.250000 0.151846 0.285758
O O18 0.985972 0.175202 0.329588
O O19 0.750000 0.980268 0.178084
O O20 0.250000 0.692598 0.594839
O O21 0.016756 0.750000 0.571138
#
# Coordination Sequence:
#
# PCOD8239480 Si02
#       8
#     8   8   8   8   8   8   8   8
#     4  10  20  32  45  60  78 102 134 169 209 252
#     4  11  20  28  39  57  84 113 143 174 203 237
#     4   8  14  24  37  53  76 108 142 172 199 227
#     4   9  15  25  40  58  82 109 140 173 201 234
#     4  10  18  29  42  57  82 111 141 171 203 240
#     4   9  17  27  42  65  86 108 137 169 205 245
#     4   9  17  26  37  55  80 113 147 174 201 231
#     4   9  19  35  51  64  79 101 130 167 211 257
#
# _framework density 15.383349000000001
#
# number of rings (size 3 to 8) (size 9 to 14) (size 15 to 20)
#    0.000    2.625    1.250    1.500    0.000    2.250 
#    0.000    0.000    0.000    0.000    0.000    0.000 
#    0.000    1.000    0.000   10.250    0.000    0.750 
#
# Total GULP energy -792848.638059 kJ/mol
# GULP energy per Si atom -12388.259970 kJ/mol
# Density = 1.534834 g / cm^3
# Si number density = 15.383349 Si / 1000 Ang^3
#
#
#
# Elastic Constant Matrix: (Units=GPa)
#
#
# Indices 1 2 3 4 5 6 
#
# 1 37.5861 17.3935 34.4960 0.0000 0.0000 0.0000
# 2 17.3935 51.7477 40.7611 0.0000 0.0000 0.0000
# 3 34.4960 40.7611 143.6702 0.0000 0.0000 0.0000
# 4 0.0000 0.0000 0.0000 12.4309 0.0000 0.0000
# 5 0.0000 0.0000 0.0000 0.0000 18.5166 0.0000
# 6 0.0000 0.0000 0.0000 0.0000 0.0000 14.9659
#
#
#
# Elastic Compliance Matrix: (Units=1/GPa)
#
#
# Indices 1 2 3 4 5 6 
#
# 1 0.035889 -0.006794 -0.006690 0.000000 0.000000 0.000000
# 2 -0.006794 0.026172 -0.005794 0.000000 0.000000 0.000000
# 3 -0.006690 -0.005794 0.010210 0.000000 0.000000 0.000000
# 4 0.000000 0.000000 0.000000 0.080445 0.000000 0.000000
# 5 0.000000 0.000000 0.000000 0.000000 0.054005 0.000000
# 6 0.000000 0.000000 0.000000 0.000000 0.000000 0.066818
#
#
# Mechanical properties :
#
#
# Convention : Reuss Voigt Hill
#
# Bulk Modulus (GPa) = 29.65900 46.47835 38.06868
# Shear Modulus (GPa) = 15.46389 18.53961 17.00175
#
# Velocity S-wave (km/s) = 3.17398 3.47533 3.32807
# Velocity P-wave (km/s) = 5.72311 6.81050 6.29035
#
# Compressibility (1/GPa) = 0.03371657
#
# Stress axis : x y z
#
# Youngs Moduli (GPa) = 27.86359 38.20882 97.93846
#
# Poissons Ratio (x) = 0.25958 0.65518
# Poissons Ratio (y) = 0.18930 0.56747
# Poissons Ratio (z) = 0.18640 0.22139
#
# Static dielectric constant tensor:
#      x y z
#    x 2.307130 0.000000 0.000000 
#    y 0.000000 2.653890 0.000000 
#    z 0.000000 0.000000 3.738520 
# 
# 
# High freq. dielectric constant tensor:
#      x y z
#    x 1.596570 0.000000 0.000000 
#    y 0.000000 1.526550 0.000000 
#    z 0.000000 0.000000 1.606610 
# 
# From -- ./inp_files/26613.got.cif
#   From: 2010.03.12/outbox.cif.g09.slc.cpg/sg59_14_cif.got.tgz:26613.got - 2010.04.16 16:29:54.
