data_PCOD8239998
_publ_section_title
;
Structure prediction by ZEFSAII (Michael W. Deem and Ramdas Pophale) SiO2 
 PCOD8239998
Probable space group: P M M N
;
_chemical_formula_sum "Si O2"
_cell_formula_units_Z 64
_cell_length_a 8.666072
_cell_length_b 28.898677
_cell_length_c 12.732694
_cell_angle_alpha 90.000000
_cell_angle_beta 90.000000
_cell_angle_gamma 90.000000
_cell_volume 3188.750618
_symmetry_space_group_name_H-M "P M M N"
_symmetry_group_IT_number 59
_space_group.IT_coordinate_system_code '2'
_symmetry_cell_setting 'orthorhombic'
loop_
_space_group_symop_operation_xyz
x,y,z
1/2-x,1/2-y,z
1/2+x,-y,-z
-x,1/2+y,-z
-x,-y,-z
1/2+x,1/2+y,-z
1/2-x,y,z
x,1/2-y,z
loop_
_atom_site_type_symbol
_atom_site_label
_atom_site_fract_x
_atom_site_fract_y
_atom_site_fract_z
Si Si1 0.932689 0.549003 0.022409
Si Si2 0.933257 0.633312 0.889576
Si Si3 0.429121 0.696985 0.501382
Si Si4 0.067718 0.122429 0.344985
Si Si5 0.067811 0.159721 0.703737
Si Si6 0.432080 0.059240 0.747071
Si Si7 0.933494 0.477608 0.396203
Si Si8 0.433655 0.301792 0.927709
O O1 0.750000 0.546984 0.022904
O O2 0.996929 0.564877 0.135452
O O3 0.992015 0.584169 0.933725
O O4 0.000000 0.500000 0.000000
O O5 0.750000 0.635865 0.890729
O O6 0.993902 0.638085 0.770253
O O7 0.999375 0.672610 0.968148
O O8 0.250000 0.685048 0.514072
O O9 0.463296 0.750000 0.533757
O O10 0.526189 0.663033 0.575016
O O11 0.478446 0.690413 0.380786
O O12 0.250000 0.115198 0.344714
O O13 0.993391 0.074023 0.378486
O O14 0.250000 0.168328 0.690841
O O15 0.022981 0.105834 0.683602
O O16 0.011478 0.173891 0.820242
O O17 0.250000 0.055720 0.751413
O O18 0.495549 0.012126 0.695003
O O19 0.750000 0.476345 0.402367
O O20 0.000000 0.500000 0.500000
O O21 0.250000 0.302583 0.930808
O O22 0.499367 0.250000 0.930184
#
# Coordination Sequence:
#
# PCOD8239998 Si02
#       8
#     8   8   8   8   8   8   8   8
#     4  10  18  32  52  77 110 147 185 227 276 330
#     4   9  18  33  53  80 116 151 187 236 290 342
#     4  11  25  43  61  83 114 152 193 245 308 365
#     4  11  23  39  60  86 117 155 200 250 297 350
#     4  10  18  34  61  91 118 147 191 245 295 351
#     4   9  18  32  54  81 114 152 189 229 281 344
#     4  11  22  37  57  84 118 160 204 248 297 352
#     4   9  16  28  52  86 118 148 186 237 297 351
#
# _framework density 20.070557000000001
#
# number of rings (size 3 to 8) (size 9 to 14) (size 15 to 20)
#    0.000    2.000    1.250    3.000    0.000    3.000 
#    0.000    3.750    0.000    1.500    0.000    1.750 
#    0.000    0.000    0.000    0.000    0.000    0.000 
#
# Total GULP energy -793395.396607 kJ/mol
# GULP energy per Si atom -12396.803072 kJ/mol
# Density = 2.002488 g / cm^3
# Si number density = 20.070557 Si / 1000 Ang^3
#
#
#
# Elastic Constant Matrix: (Units=GPa)
#
#
# Indices 1 2 3 4 5 6 
#
# 1 39.9997 24.7979 25.1473 0.0000 0.0000 0.0000
# 2 24.7979 147.7388 60.0089 0.0000 0.0000 0.0000
# 3 25.1473 60.0089 141.1487 0.0000 0.0000 0.0000
# 4 0.0000 0.0000 0.0000 38.8776 0.0000 0.0000
# 5 0.0000 0.0000 0.0000 0.0000 16.2489 0.0000
# 6 0.0000 0.0000 0.0000 0.0000 0.0000 25.2230
#
#
#
# Elastic Compliance Matrix: (Units=1/GPa)
#
#
# Indices 1 2 3 4 5 6 
#
# 1 0.029506 -0.003405 -0.003809 0.000000 0.000000 0.000000
# 2 -0.003405 0.008575 -0.003039 0.000000 0.000000 0.000000
# 3 -0.003809 -0.003039 0.009055 0.000000 0.000000 0.000000
# 4 0.000000 0.000000 0.000000 0.025722 0.000000 0.000000
# 5 0.000000 0.000000 0.000000 0.000000 0.061542 0.000000
# 6 0.000000 0.000000 0.000000 0.000000 0.000000 0.039646
#
#
# Mechanical properties :
#
#
# Convention : Reuss Voigt Hill
#
# Bulk Modulus (GPa) = 37.55230 60.97726 49.26478
# Shear Modulus (GPa) = 24.57853 30.66544 27.62199
#
# Velocity S-wave (km/s) = 3.50323 3.91305 3.71380
# Velocity P-wave (km/s) = 5.92573 7.13186 6.55659
#
# Compressibility (1/GPa) = 0.02662953
#
# Stress axis : x y z
#
# Youngs Moduli (GPa) = 33.89128 116.62371 110.43291
#
# Poissons Ratio (x) = 0.39715 0.42065
# Poissons Ratio (y) = 0.11541 0.33558
# Poissons Ratio (z) = 0.12909 0.35439
#
# Static dielectric constant tensor:
#      x y z
#    x 3.293750 0.000000 0.000000 
#    y 0.000000 3.916970 0.000000 
#    z 0.000000 0.000000 4.038060 
# 
# 
# High freq. dielectric constant tensor:
#      x y z
#    x 1.740620 0.000000 0.000000 
#    y 0.000000 1.798630 0.000000 
#    z 0.000000 0.000000 1.796370 
# 
# From -- ./inp_files/15035.got.cif
#   From: 2010.03.12/outbox.cif.g09.slc.cpg/sg59_8_cif.got.tgz:15035.got - 2010.04.16 16:29:54.
