data_PCOD8239638
_publ_section_title
;
Structure prediction by ZEFSAII (Michael W. Deem and Ramdas Pophale) SiO2 
 PCOD8239638
Probable space group: P M M N
;
_chemical_formula_sum "Si O2"
_cell_formula_units_Z 56
_cell_length_a 21.372638
_cell_length_b 8.994469
_cell_length_c 17.965419
_cell_angle_alpha 90.000000
_cell_angle_beta 90.000000
_cell_angle_gamma 90.000000
_cell_volume 3453.591842
_symmetry_space_group_name_H-M "P M M N"
_symmetry_group_IT_number 59
_space_group.IT_coordinate_system_code '2'
_symmetry_cell_setting 'orthorhombic'
loop_
_space_group_symop_operation_xyz
x,y,z
1/2-x,1/2-y,z
1/2+x,-y,-z
-x,1/2+y,-z
-x,-y,-z
1/2+x,1/2+y,-z
1/2-x,y,z
x,1/2-y,z
loop_
_atom_site_type_symbol
_atom_site_label
_atom_site_fract_x
_atom_site_fract_y
_atom_site_fract_z
Si Si1 0.450654 0.579356 0.096258
Si Si2 0.916581 0.420377 0.433099
Si Si3 0.044787 0.578582 0.413998
Si Si4 0.591594 0.920010 0.042946
Si Si5 0.677393 0.079121 0.160303
Si Si6 0.887149 0.574364 0.292566
Si Si7 0.526248 0.422106 0.745018
O O1 0.428867 0.750000 0.088687
O O2 0.523602 0.562093 0.078297
O O3 0.441958 0.511855 0.180219
O O4 0.408253 0.482666 0.041067
O O5 0.906414 0.250000 0.410271
O O6 0.901753 0.445140 0.522182
O O7 0.874220 0.519516 0.377727
O O8 0.989262 0.462674 0.426583
O O9 0.019511 0.750000 0.418462
O O10 0.069194 0.550961 0.328901
O O11 0.613337 0.750000 0.041024
O O12 0.640334 0.010942 0.091518
O O13 0.750000 0.060439 0.142338
O O14 0.657934 0.250000 0.169375
O O15 0.663122 0.995586 0.237364
O O16 0.880445 0.750000 0.289816
O O17 0.956211 0.515873 0.269445
O O18 0.517474 0.250000 0.763586
#
# Coordination Sequence:
#
# PCOD8239638 Si02
#       7
#     8   8   8   8   8   8   8
#     4   9  16  28  45  65  90 119 150 185 223 266
#     4   9  15  23  36  57  83 113 147 181 216 251
#     4   8  14  23  36  55  83 117 149 179 211 252
#     4  10  19  31  46  66  88 116 151 184 226 272
#     4  11  23  36  49  66  88 114 148 191 234 273
#     4  10  18  30  45  61  83 115 152 184 220 266
#     4   8  13  24  41  61  85 115 149 181 214 257
#
# _framework density 16.215002999999999
#
# number of rings (size 3 to 8) (size 9 to 14) (size 15 to 20)
#    0.000    2.714    1.429    2.571    0.000    2.286 
#    0.000    0.714    0.000    0.000    0.000    0.000 
#    0.000    1.143    0.000   13.143    0.000    4.000 
#
# Total GULP energy -693782.958929 kJ/mol
# GULP energy per Si atom -12388.981409 kJ/mol
# Density = 1.617810 g / cm^3
# Si number density = 16.215003 Si / 1000 Ang^3
#
#
#
# Elastic Constant Matrix: (Units=GPa)
#
#
# Indices 1 2 3 4 5 6 
#
# 1 30.3093 27.6512 28.2988 0.0000 0.0000 0.0000
# 2 27.6512 85.4436 51.3712 0.0000 0.0000 0.0000
# 3 28.2988 51.3712 159.8232 0.0000 0.0000 0.0000
# 4 0.0000 0.0000 0.0000 25.1276 0.0000 0.0000
# 5 0.0000 0.0000 0.0000 0.0000 11.6944 0.0000
# 6 0.0000 0.0000 0.0000 0.0000 0.0000 14.9719
#
#
#
# Elastic Compliance Matrix: (Units=1/GPa)
#
#
# Indices 1 2 3 4 5 6 
#
# 1 0.049252 -0.013258 -0.004459 0.000000 0.000000 0.000000
# 2 -0.013258 0.018076 -0.003463 0.000000 0.000000 0.000000
# 3 -0.004459 -0.003463 0.008159 0.000000 0.000000 0.000000
# 4 0.000000 0.000000 0.000000 0.039797 0.000000 0.000000
# 5 0.000000 0.000000 0.000000 0.000000 0.085511 0.000000
# 6 0.000000 0.000000 0.000000 0.000000 0.000000 0.066792
#
#
# Mechanical properties :
#
#
# Convention : Reuss Voigt Hill
#
# Bulk Modulus (GPa) = 30.18608 54.46871 42.32739
# Shear Modulus (GPa) = 15.57685 21.57577 18.57631
#
# Velocity S-wave (km/s) = 3.10279 3.65170 3.38838
# Velocity P-wave (km/s) = 5.61186 7.17247 6.43962
#
# Compressibility (1/GPa) = 0.03312785
#
# Stress axis : x y z
#
# Youngs Moduli (GPa) = 20.30380 55.32220 122.55728
#
# Poissons Ratio (x) = 0.73345 0.54652
# Poissons Ratio (y) = 0.26918 0.42436
# Poissons Ratio (z) = 0.09054 0.19156
#
# Static dielectric constant tensor:
#      x y z
#    x 2.478840 0.000000 0.000000 
#    y 0.000000 3.090250 0.000000 
#    z 0.000000 0.000000 3.687740 
# 
# 
# High freq. dielectric constant tensor:
#      x y z
#    x 1.539480 0.000000 0.000000 
#    y 0.000000 1.624890 0.000000 
#    z 0.000000 0.000000 1.651670 
# 
# From -- ./inp_files/28052.got.cif
#   From: 2010.03.12/outbox.cif.g09.slc.cpg/sg59_15_cif.got.tgz:28052.got - 2010.04.16 16:29:54.
