data_PCOD8239223
_publ_section_title
;
Structure prediction by ZEFSAII (Michael W. Deem and Ramdas Pophale) SiO2 
 PCOD8239223
Probable space group: P M M N
;
_chemical_formula_sum "Si O2"
_cell_formula_units_Z 56
_cell_length_a 26.598563
_cell_length_b 9.346686
_cell_length_c 14.390951
_cell_angle_alpha 90.000000
_cell_angle_beta 90.000000
_cell_angle_gamma 90.000000
_cell_volume 3577.711539
_symmetry_space_group_name_H-M "P M M N"
_symmetry_group_IT_number 59
_space_group.IT_coordinate_system_code '2'
_symmetry_cell_setting 'orthorhombic'
loop_
_space_group_symop_operation_xyz
x,y,z
1/2-x,1/2-y,z
1/2+x,-y,-z
-x,1/2+y,-z
-x,-y,-z
1/2+x,1/2+y,-z
1/2-x,y,z
x,1/2-y,z
loop_
_atom_site_type_symbol
_atom_site_label
_atom_site_fract_x
_atom_site_fract_y
_atom_site_fract_z
Si Si1 0.386684 0.414935 0.259204
Si Si2 0.936886 0.588736 0.200545
Si Si3 0.045259 0.583463 0.618507
Si Si4 0.694828 0.582554 0.882701
Si Si5 0.107643 0.417261 0.985448
Si Si6 0.953980 0.085824 0.874520
Si Si7 0.433862 0.086890 0.444555
O O1 0.400481 0.250000 0.235849
O O2 0.332139 0.453550 0.216021
O O3 0.428267 0.516343 0.215141
O O4 0.388694 0.438343 0.370653
O O5 0.932503 0.750000 0.240100
O O6 0.933815 0.480709 0.285905
O O7 0.986810 0.571388 0.139515
O O8 0.892298 0.555728 0.125938
O O9 0.057131 0.750000 0.619480
O O10 0.075495 0.514422 0.532431
O O11 0.986277 0.549430 0.607128
O O12 0.750000 0.507870 0.885681
O O13 0.702538 0.750000 0.892295
O O14 0.660195 0.528980 0.968734
O O15 0.099137 0.250000 0.007419
O O16 0.061968 0.503188 0.032455
O O17 0.936981 0.250000 0.882679
O O18 0.435189 0.250000 0.480102
#
# Coordination Sequence:
#
# PCOD8239223 Si02
#       7
#     8   8   8   8   8   8   8
#     4   9  16  28  45  63  86 115 143 172 213 258
#     4  10  19  29  40  58  85 118 148 177 209 248
#     4  10  19  28  42  61  84 115 147 179 208 242
#     4   8  14  26  46  69  87 105 136 177 216 257
#     4   9  18  30  43  59  84 115 144 174 215 257
#     4  10  18  26  39  60  85 113 146 178 206 242
#     4   9  17  29  42  59  84 115 145 173 209 250
#
# _framework density 15.652464
#
# number of rings (size 3 to 8) (size 9 to 14) (size 15 to 20)
#    0.000    2.714    1.429    2.143    0.000    2.286 
#    0.000    0.000    0.000    6.857    0.000    1.000 
#    0.000    8.000    0.000    0.000    0.000    0.000 
#
# Total GULP energy -694070.724335 kJ/mol
# GULP energy per Si atom -12394.120077 kJ/mol
# Density = 1.561684 g / cm^3
# Si number density = 15.652464 Si / 1000 Ang^3
#
#
#
# Elastic Constant Matrix: (Units=GPa)
#
#
# Indices 1 2 3 4 5 6 
#
# 1 65.8424 23.4764 45.3913 0.0000 0.0000 0.0000
# 2 23.4764 70.9550 55.7745 0.0000 0.0000 0.0000
# 3 45.3913 55.7745 129.0739 0.0000 0.0000 0.0000
# 4 0.0000 0.0000 0.0000 28.0766 0.0000 0.0000
# 5 0.0000 0.0000 0.0000 0.0000 14.1765 0.0000
# 6 0.0000 0.0000 0.0000 0.0000 0.0000 9.1169
#
#
#
# Elastic Compliance Matrix: (Units=1/GPa)
#
#
# Indices 1 2 3 4 5 6 
#
# 1 0.020177 -0.001663 -0.006377 0.000000 0.000000 0.000000
# 2 -0.001663 0.021480 -0.008697 0.000000 0.000000 0.000000
# 3 -0.006377 -0.008697 0.013748 0.000000 0.000000 0.000000
# 4 0.000000 0.000000 0.000000 0.035617 0.000000 0.000000
# 5 0.000000 0.000000 0.000000 0.000000 0.070539 0.000000
# 6 0.000000 0.000000 0.000000 0.000000 0.000000 0.109686
#
#
# Mechanical properties :
#
#
# Convention : Reuss Voigt Hill
#
# Bulk Modulus (GPa) = 45.59748 57.23951 51.41850
# Shear Modulus (GPa) = 16.02403 19.68930 17.85666
#
# Velocity S-wave (km/s) = 3.20306 3.55054 3.38127
# Velocity P-wave (km/s) = 6.54782 7.31142 6.94013
#
# Compressibility (1/GPa) = 0.02193104
#
# Stress axis : x y z
#
# Youngs Moduli (GPa) = 49.56137 46.55503 72.73735
#
# Poissons Ratio (x) = 0.07743 0.46384
# Poissons Ratio (y) = 0.08243 0.63259
# Poissons Ratio (z) = 0.31605 0.40488
#
# Static dielectric constant tensor:
#      x y z
#    x 2.884370 0.000000 0.000000 
#    y 0.000000 2.928050 0.000000 
#    z 0.000000 0.000000 3.033680 
# 
# 
# High freq. dielectric constant tensor:
#      x y z
#    x 1.553540 0.000000 0.000000 
#    y 0.000000 1.593820 0.000000 
#    z 0.000000 0.000000 1.602560 
# 
# From -- ./inp_files/24971.got.cif
#   From: 2010.03.12/outbox.cif.g09.slc.cpg/sg59_13_cif.got.tgz:24971.got - 2010.04.16 16:29:54.
