data_PCOD8239352
_publ_section_title
;
Structure prediction by ZEFSAII (Michael W. Deem and Ramdas Pophale) SiO2 
 PCOD8239352
Probable space group: P M M N
;
_chemical_formula_sum "Si O2"
_cell_formula_units_Z 64
_cell_length_a 29.022318
_cell_length_b 8.921289
_cell_length_c 15.662131
_cell_angle_alpha 90.000000
_cell_angle_beta 90.000000
_cell_angle_gamma 90.000000
_cell_volume 4055.183927
_symmetry_space_group_name_H-M "P M M N"
_symmetry_group_IT_number 59
_space_group.IT_coordinate_system_code '2'
_symmetry_cell_setting 'orthorhombic'
loop_
_space_group_symop_operation_xyz
x,y,z
1/2-x,1/2-y,z
1/2+x,-y,-z
-x,1/2+y,-z
-x,-y,-z
1/2+x,1/2+y,-z
1/2-x,y,z
x,1/2-y,z
loop_
_atom_site_type_symbol
_atom_site_label
_atom_site_fract_x
_atom_site_fract_y
_atom_site_fract_z
Si Si1 0.895265 0.571314 0.161661
Si Si2 0.950693 0.925508 0.505336
Si Si3 0.452310 0.074901 0.681461
Si Si4 0.800437 0.572445 0.907439
Si Si5 0.394014 0.073023 0.170487
Si Si6 0.699841 0.571612 0.099291
Si Si7 0.549363 0.926295 0.996858
Si Si8 0.556899 0.427658 0.672431
O O1 0.895686 0.750000 0.165588
O O2 0.920319 0.501414 0.245145
O O3 0.842234 0.512349 0.158102
O O4 0.921302 0.514491 0.077148
O O5 0.955250 0.750000 0.524098
O O6 0.928519 0.954341 0.411300
O O7 0.923286 0.003997 0.583110
O O8 0.000000 0.000000 0.500000
O O9 0.456260 0.250000 0.699337
O O10 0.504618 0.011534 0.686803
O O11 0.750000 0.522770 0.871499
O O12 0.803578 0.750000 0.912896
O O13 0.841692 0.516395 0.846757
O O14 0.806964 0.509051 0.003229
O O15 0.396519 0.250000 0.188192
O O16 0.410897 0.983485 0.252221
O O17 0.425078 0.027276 0.089852
O O18 0.750000 0.518376 0.135045
O O19 0.698365 0.750000 0.096003
O O20 0.543015 0.750000 0.002672
O O21 0.500000 0.000000 0.000000
O O22 0.558730 0.250000 0.666041
#
# Coordination Sequence:
#
# PCOD8239352 Si02
#       8
#     8   8   8   8   8   8   8   8
#     4   9  14  23  37  56  83 112 138 166 202 247
#     4   9  16  28  44  63  85 112 145 182 219 258
#     4   8  15  25  39  57  79 109 142 171 208 251
#     4   8  13  23  39  59  83 109 139 177 216 252
#     4  10  18  28  42  63  86 113 146 178 213 256
#     4   8  12  19  34  56  81 108 137 170 206 244
#     4  10  19  28  39  57  85 120 149 170 198 241
#     4  10  19  30  43  61  84 114 147 182 220 258
#
# _framework density 15.782268
#
# number of rings (size 3 to 8) (size 9 to 14) (size 15 to 20)
#    0.000    3.000    1.250    3.000    0.000    1.500 
#    0.000    0.000    0.000    1.125    0.000    0.875 
#    0.000    5.500    0.000    0.000    0.000    0.000 
#
# Total GULP energy -792921.460632 kJ/mol
# GULP energy per Si atom -12389.397822 kJ/mol
# Density = 1.574635 g / cm^3
# Si number density = 15.782268 Si / 1000 Ang^3
#
#
#
# Elastic Constant Matrix: (Units=GPa)
#
#
# Indices 1 2 3 4 5 6 
#
# 1 120.2301 18.9646 58.3910 0.0000 0.0000 0.0000
# 2 18.9646 29.1689 27.5065 0.0000 0.0000 0.0000
# 3 58.3910 27.5065 118.4667 0.0000 0.0000 0.0000
# 4 0.0000 0.0000 0.0000 16.5460 0.0000 0.0000
# 5 0.0000 0.0000 0.0000 0.0000 12.8506 0.0000
# 6 0.0000 0.0000 0.0000 0.0000 0.0000 13.0549
#
#
#
# Elastic Compliance Matrix: (Units=1/GPa)
#
#
# Indices 1 2 3 4 5 6 
#
# 1 0.011091 -0.002632 -0.004855 0.000000 0.000000 0.000000
# 2 -0.002632 0.044519 -0.009039 0.000000 0.000000 0.000000
# 3 -0.004855 -0.009039 0.012933 0.000000 0.000000 0.000000
# 4 0.000000 0.000000 0.000000 0.060438 0.000000 0.000000
# 5 0.000000 0.000000 0.000000 0.000000 0.077817 0.000000
# 6 0.000000 0.000000 0.000000 0.000000 0.000000 0.076600
#
#
# Mechanical properties :
#
#
# Convention : Reuss Voigt Hill
#
# Bulk Modulus (GPa) = 28.17794 53.06557 40.62175
# Shear Modulus (GPa) = 15.23090 19.35720 17.29405
#
# Velocity S-wave (km/s) = 3.10992 3.50596 3.31386
# Velocity P-wave (km/s) = 5.54873 7.07712 6.35901
#
# Compressibility (1/GPa) = 0.03548876
#
# Stress axis : x y z
#
# Youngs Moduli (GPa) = 90.16649 22.46256 77.32082
#
# Poissons Ratio (x) = 0.05912 0.37541
# Poissons Ratio (y) = 0.23733 0.69893
# Poissons Ratio (z) = 0.43778 0.20305
#
# Static dielectric constant tensor:
#      x y z
#    x 2.968080 0.000000 0.000000 
#    y 0.000000 2.665220 0.000000 
#    z 0.000000 0.000000 3.317650 
# 
# 
# High freq. dielectric constant tensor:
#      x y z
#    x 1.591140 0.000000 0.000000 
#    y 0.000000 1.566010 0.000000 
#    z 0.000000 0.000000 1.601080 
# 
# From -- ./inp_files/21974.got.cif
#   From: 2010.03.12/outbox.cif.g09.slc.cpg/sg59_11_cif.got.tgz:21974.got - 2010.04.16 16:29:54.
