data_PCOD8239314
_publ_section_title
;
Structure prediction by ZEFSAII (Michael W. Deem and Ramdas Pophale) SiO2 
 PCOD8239314
Probable space group: P M M N
;
_chemical_formula_sum "Si O2"
_cell_formula_units_Z 56
_cell_length_a 20.415506
_cell_length_b 9.027191
_cell_length_c 15.417277
_cell_angle_alpha 90.000000
_cell_angle_beta 90.000000
_cell_angle_gamma 90.000000
_cell_volume 2841.322008
_symmetry_space_group_name_H-M "P M M N"
_symmetry_group_IT_number 59
_space_group.IT_coordinate_system_code '2'
_symmetry_cell_setting 'orthorhombic'
loop_
_space_group_symop_operation_xyz
x,y,z
1/2-x,1/2-y,z
1/2+x,-y,-z
-x,1/2+y,-z
-x,-y,-z
1/2+x,1/2+y,-z
1/2-x,y,z
x,1/2-y,z
loop_
_atom_site_type_symbol
_atom_site_label
_atom_site_fract_x
_atom_site_fract_y
_atom_site_fract_z
Si Si1 0.102722 0.924565 0.743133
Si Si2 0.423851 0.577410 0.085245
Si Si3 0.501194 0.584720 0.357027
Si Si4 0.629887 0.574937 0.602730
Si Si5 0.322806 0.920205 0.232245
Si Si6 0.575856 0.922806 0.090450
Si Si7 0.361538 0.087285 0.584912
O O1 0.104746 0.750000 0.749692
O O2 0.119778 0.995721 0.836187
O O3 0.153479 0.977760 0.666426
O O4 0.029425 0.984576 0.721816
O O5 0.413294 0.750000 0.064799
O O6 0.378023 0.525276 0.164898
O O7 0.499222 0.541852 0.106193
O O8 0.400922 0.484858 0.001884
O O9 0.483294 0.750000 0.321612
O O10 0.438780 0.508770 0.397526
O O11 0.559218 0.597352 0.428101
O O12 0.619209 0.750000 0.611094
O O13 0.674520 0.517562 0.680717
O O14 0.664983 0.536487 0.509696
O O15 0.250000 0.940506 0.192139
O O16 0.335620 0.750000 0.257402
O O17 0.590979 0.750000 0.094790
O O18 0.333262 0.250000 0.608639
#
# Coordination Sequence:
#
# PCOD8239314 Si02
#       7
#     8   8   8   8   8   8   8
#     4  10  18  27  43  68 100 133 165 199 241 303
#     4   9  19  34  51  71  98 132 173 217 259 313
#     4   9  17  29  43  64 101 138 168 203 246 298
#     4  11  20  31  49  71  96 131 175 218 258 300
#     4  10  22  39  56  74 100 139 182 221 262 307
#     4  10  18  30  50  76 105 135 165 206 267 326
#     4   8  18  31  43  66 101 137 169 205 251 302
#
# _framework density 19.709136000000001
#
# number of rings (size 3 to 8) (size 9 to 14) (size 15 to 20)
#    0.857    1.571    0.000    3.429    0.000    3.714 
#    0.000    0.000    0.000    0.000    0.000    1.000 
#    0.000    5.714    0.000    0.000    0.000    0.000 
#
# Total GULP energy -693786.879723 kJ/mol
# GULP energy per Si atom -12389.051424 kJ/mol
# Density = 1.966428 g / cm^3
# Si number density = 19.709136 Si / 1000 Ang^3
#
#
#
# Elastic Constant Matrix: (Units=GPa)
#
#
# Indices 1 2 3 4 5 6 
#
# 1 36.9834 5.9710 16.5391 0.0000 0.0000 0.0000
# 2 5.9710 119.9531 70.9001 0.0000 0.0000 0.0000
# 3 16.5391 70.9001 153.0040 0.0000 0.0000 0.0000
# 4 0.0000 0.0000 0.0000 36.4155 0.0000 0.0000
# 5 0.0000 0.0000 0.0000 0.0000 7.4099 0.0000
# 6 0.0000 0.0000 0.0000 0.0000 0.0000 11.3315
#
#
#
# Elastic Compliance Matrix: (Units=1/GPa)
#
#
# Indices 1 2 3 4 5 6 
#
# 1 0.028439 0.000553 -0.003330 0.000000 0.000000 0.000000
# 2 0.000553 0.011492 -0.005385 0.000000 0.000000 0.000000
# 3 -0.003330 -0.005385 0.009391 0.000000 0.000000 0.000000
# 4 0.000000 0.000000 0.000000 0.027461 0.000000 0.000000
# 5 0.000000 0.000000 0.000000 0.000000 0.134954 0.000000
# 6 0.000000 0.000000 0.000000 0.000000 0.000000 0.088249
#
#
# Mechanical properties :
#
#
# Convention : Reuss Voigt Hill
#
# Bulk Modulus (GPa) = 30.30557 55.19567 42.75062
# Shear Modulus (GPa) = 15.27601 25.46675 20.37138
#
# Velocity S-wave (km/s) = 2.78703 3.59852 3.21845
# Velocity P-wave (km/s) = 5.07607 6.73288 5.96231
#
# Compressibility (1/GPa) = 0.03299724
#
# Stress axis : x y z
#
# Youngs Moduli (GPa) = 35.16272 87.01747 106.48385
#
# Poissons Ratio (x) = -0.04810 0.35462
# Poissons Ratio (y) = -0.01944 0.57341
# Poissons Ratio (z) = 0.11710 0.46859
#
# Static dielectric constant tensor:
#      x y z
#    x 3.115250 0.000000 0.000000 
#    y 0.000000 3.517800 0.000000 
#    z 0.000000 0.000000 3.680810 
# 
# 
# High freq. dielectric constant tensor:
#      x y z
#    x 1.713570 0.000000 0.000000 
#    y 0.000000 1.768500 0.000000 
#    z 0.000000 0.000000 1.775400 
# 
# From -- ./inp_files/28358.got.cif
#   From: 2010.03.12/outbox.cif.g09.slc.cpg/sg59_15_cif.got.tgz:28358.got - 2010.04.16 16:29:54.
