data_PCOD8240443
_publ_section_title
;
Structure prediction by ZEFSAII (Michael W. Deem and Ramdas Pophale) SiO2 
 PCOD8240443
Probable space group: P M M N
;
_chemical_formula_sum "Si O2"
_cell_formula_units_Z 64
_cell_length_a 8.850329
_cell_length_b 31.603045
_cell_length_c 12.243140
_cell_angle_alpha 90.000000
_cell_angle_beta 90.000000
_cell_angle_gamma 90.000000
_cell_volume 3424.373760
_symmetry_space_group_name_H-M "P M M N"
_symmetry_group_IT_number 59
_space_group.IT_coordinate_system_code '2'
_symmetry_cell_setting 'orthorhombic'
loop_
_space_group_symop_operation_xyz
x,y,z
1/2-x,1/2-y,z
1/2+x,-y,-z
-x,1/2+y,-z
-x,-y,-z
1/2+x,1/2+y,-z
1/2-x,y,z
x,1/2-y,z
loop_
_atom_site_type_symbol
_atom_site_label
_atom_site_fract_x
_atom_site_fract_y
_atom_site_fract_z
Si Si1 0.926258 0.644641 0.876515
Si Si2 0.573358 0.574581 0.703479
Si Si3 0.914646 0.961376 0.047831
Si Si4 0.914354 0.513840 0.291807
Si Si5 0.427441 0.878665 0.086513
Si Si6 0.925202 0.132678 0.470313
Si Si7 0.575891 0.201447 0.296720
Si Si8 0.929112 0.606066 0.316829
O O1 0.750000 0.646706 0.900849
O O2 0.968294 0.599995 0.814990
O O3 0.971854 0.683337 0.798995
O O4 0.011203 0.652866 0.992366
O O5 0.750000 0.578228 0.678634
O O6 0.530126 0.525032 0.708965
O O7 0.483670 0.593963 0.602505
O O8 0.750000 0.953023 0.990389
O O9 0.881503 0.969885 0.172036
O O10 0.027723 0.922863 0.031256
O O11 0.000000 0.000000 0.000000
O O12 0.750000 0.500623 0.342600
O O13 0.980205 0.557226 0.346160
O O14 0.250000 0.873508 0.101125
O O15 0.503377 0.874304 0.205105
O O16 0.750000 0.125367 0.494374
O O17 0.956553 0.176904 0.409421
O O18 0.012995 0.135112 0.584727
O O19 0.750000 0.195473 0.261817
O O20 0.533434 0.250000 0.316912
O O21 0.750000 0.608444 0.306559
#
# Coordination Sequence:
#
# PCOD8240443 Si02
#       8
#     8   8   8   8   8   8   8   8
#     4  10  20  34  53  80 111 140 173 214 262 316
#     4  10  20  32  49  73 102 137 177 223 271 314
#     4  10  19  30  44  65  95 133 178 225 269 311
#     4   9  19  32  45  64  94 134 178 223 268 310
#     4  11  21  33  51  74 102 139 179 217 263 315
#     4  10  20  35  56  79 104 136 174 215 262 318
#     4   9  19  37  61  88 114 137 164 204 257 317
#     4  10  21  37  53  72 103 141 183 228 267 309
#
# _framework density 18.689547000000001
#
# number of rings (size 3 to 8) (size 9 to 14) (size 15 to 20)
#    0.000    2.125    0.000    4.500    0.000    7.750 
#    0.000    0.000    0.000    0.750    0.000    1.750 
#    0.000    0.000    0.000    0.000    0.000    0.000 
#
# Total GULP energy -793176.303791 kJ/mol
# GULP energy per Si atom -12393.379747 kJ/mol
# Density = 1.864701 g / cm^3
# Si number density = 18.689547 Si / 1000 Ang^3
#
#
#
# Elastic Constant Matrix: (Units=GPa)
#
#
# Indices 1 2 3 4 5 6 
#
# 1 109.4143 35.7594 55.9917 0.0000 0.0000 0.0000
# 2 35.7594 83.8016 36.3429 0.0000 0.0000 0.0000
# 3 55.9917 36.3429 104.1588 0.0000 0.0000 0.0000
# 4 0.0000 0.0000 0.0000 12.7318 0.0000 0.0000
# 5 0.0000 0.0000 0.0000 0.0000 33.8098 0.0000
# 6 0.0000 0.0000 0.0000 0.0000 0.0000 22.1657
#
#
#
# Elastic Compliance Matrix: (Units=1/GPa)
#
#
# Indices 1 2 3 4 5 6 
#
# 1 0.013225 -0.003017 -0.006057 0.000000 0.000000 0.000000
# 2 -0.003017 0.014749 -0.003524 0.000000 0.000000 0.000000
# 3 -0.006057 -0.003524 0.014086 0.000000 0.000000 0.000000
# 4 0.000000 0.000000 0.000000 0.078543 0.000000 0.000000
# 5 0.000000 0.000000 0.000000 0.000000 0.029577 0.000000
# 6 0.000000 0.000000 0.000000 0.000000 0.000000 0.045115
#
#
# Mechanical properties :
#
#
# Convention : Reuss Voigt Hill
#
# Bulk Modulus (GPa) = 59.29646 61.50695 60.40171
# Shear Modulus (GPa) = 22.11294 25.02685 23.56989
#
# Velocity S-wave (km/s) = 3.44346 3.66332 3.55509
# Velocity P-wave (km/s) = 6.89970 7.13263 7.01713
#
# Compressibility (1/GPa) = 0.01686441
#
# Stress axis : x y z
#
# Youngs Moduli (GPa) = 75.61486 67.80273 70.99102
#
# Poissons Ratio (x) = 0.20454 0.42997
# Poissons Ratio (y) = 0.22810 0.25020
# Poissons Ratio (z) = 0.45797 0.23897
#
# Static dielectric constant tensor:
#      x y z
#    x 3.500160 0.000000 0.000000 
#    y 0.000000 3.186010 0.000000 
#    z 0.000000 0.000000 3.297140 
# 
# 
# High freq. dielectric constant tensor:
#      x y z
#    x 1.736700 0.000000 0.000000 
#    y 0.000000 1.691170 0.000000 
#    z 0.000000 0.000000 1.725920 
# 
# From -- ./inp_files/15077.got.cif
#   From: 2010.03.12/outbox.cif.g09.slc.cpg/sg59_8_cif.got.tgz:15077.got - 2010.04.16 16:29:54.
