data_PCOD8240645
_publ_section_title
;
Structure prediction by ZEFSAII (Michael W. Deem and Ramdas Pophale) SiO2 
 PCOD8240645
Probable space group: P M M N
;
_chemical_formula_sum "Si O2"
_cell_formula_units_Z 64
_cell_length_a 9.155123
_cell_length_b 29.018408
_cell_length_c 12.485949
_cell_angle_alpha 90.000000
_cell_angle_beta 90.000000
_cell_angle_gamma 90.000000
_cell_volume 3317.105793
_symmetry_space_group_name_H-M "P M M N"
_symmetry_group_IT_number 59
_space_group.IT_coordinate_system_code '2'
_symmetry_cell_setting 'orthorhombic'
loop_
_space_group_symop_operation_xyz
x,y,z
1/2-x,1/2-y,z
1/2+x,-y,-z
-x,1/2+y,-z
-x,-y,-z
1/2+x,1/2+y,-z
1/2-x,y,z
x,1/2-y,z
loop_
_atom_site_type_symbol
_atom_site_label
_atom_site_fract_x
_atom_site_fract_y
_atom_site_fract_z
Si Si1 0.418556 0.564985 0.827237
Si Si2 0.581707 0.075656 0.589472
Si Si3 0.083318 0.678435 0.340198
Si Si4 0.915531 0.699006 0.128545
Si Si5 0.583434 0.961377 0.220332
Si Si6 0.077081 0.102307 0.379118
Si Si7 0.583105 0.700326 0.545526
Si Si8 0.419371 0.104765 0.971903
O O1 0.250000 0.578733 0.810267
O O2 0.437535 0.510205 0.837691
O O3 0.513125 0.583369 0.729694
O O4 0.476363 0.587590 0.935064
O O5 0.750000 0.063579 0.565310
O O6 0.562251 0.124071 0.648245
O O7 0.515398 0.038852 0.672668
O O8 0.493942 0.074749 0.478142
O O9 0.250000 0.693323 0.343533
O O10 0.019961 0.695431 0.229152
O O11 0.005932 0.704309 0.436714
O O12 0.750000 0.691865 0.169328
O O13 0.935324 0.750000 0.076025
O O14 0.951350 0.659294 0.042203
O O15 0.750000 0.953725 0.257081
O O16 0.536804 0.921789 0.136854
O O17 0.250000 0.094562 0.381625
O O18 0.033178 0.156741 0.383182
O O19 0.750000 0.692385 0.512399
O O20 0.563038 0.750000 0.606122
O O21 0.250000 0.095249 0.001178
#
# Coordination Sequence:
#
# PCOD8240645 Si02
#       8
#     8   8   8   8   8   8   8   8
#     4  11  24  40  59  83 111 144 189 238 285 336
#     4  10  20  34  56  86 119 150 182 225 278 333
#     4  10  19  30  48  80 118 150 178 218 274 333
#     4  10  20  34  55  82 112 148 187 226 270 326
#     4  10  21  38  61  87 112 145 186 231 283 339
#     4  10  21  38  59  81 112 152 190 230 281 335
#     4   9  18  33  54  79 106 142 189 233 272 323
#     4  10  21  39  61  83 112 147 188 232 277 330
#
# _framework density 19.293927
#
# number of rings (size 3 to 8) (size 9 to 14) (size 15 to 20)
#    0.000    2.000    1.250    2.250    0.000    6.000 
#    0.000    0.625    0.000    3.750    0.000    0.000 
#    0.000    0.000    0.000    0.000    0.000    0.000 
#
# Total GULP energy -793594.999175 kJ/mol
# GULP energy per Si atom -12399.921862 kJ/mol
# Density = 1.925001 g / cm^3
# Si number density = 19.293927 Si / 1000 Ang^3
#
#
#
# Elastic Constant Matrix: (Units=GPa)
#
#
# Indices 1 2 3 4 5 6 
#
# 1 89.0181 30.6225 44.4019 0.0000 0.0000 0.0000
# 2 30.6225 80.6696 27.4034 0.0000 0.0000 0.0000
# 3 44.4019 27.4034 73.9035 0.0000 0.0000 0.0000
# 4 0.0000 0.0000 0.0000 18.3176 0.0000 0.0000
# 5 0.0000 0.0000 0.0000 0.0000 34.7164 0.0000
# 6 0.0000 0.0000 0.0000 0.0000 0.0000 24.0270
#
#
#
# Elastic Compliance Matrix: (Units=1/GPa)
#
#
# Indices 1 2 3 4 5 6 
#
# 1 0.016807 -0.003375 -0.008847 0.000000 0.000000 0.000000
# 2 -0.003375 0.014860 -0.003483 0.000000 0.000000 0.000000
# 3 -0.008847 -0.003483 0.020138 0.000000 0.000000 0.000000
# 4 0.000000 0.000000 0.000000 0.054592 0.000000 0.000000
# 5 0.000000 0.000000 0.000000 0.000000 0.028805 0.000000
# 6 0.000000 0.000000 0.000000 0.000000 0.000000 0.041620
#
#
# Mechanical properties :
#
#
# Convention : Reuss Voigt Hill
#
# Bulk Modulus (GPa) = 49.02630 49.82740 49.42685
# Shear Modulus (GPa) = 23.25264 24.82311 24.03787
#
# Velocity S-wave (km/s) = 3.47534 3.59078 3.53353
# Velocity P-wave (km/s) = 6.44743 6.56301 6.50548
#
# Compressibility (1/GPa) = 0.02039721
#
# Stress axis : x y z
#
# Youngs Moduli (GPa) = 59.49809 67.29298 49.65848
#
# Poissons Ratio (x) = 0.22711 0.43930
# Poissons Ratio (y) = 0.20080 0.17294
# Poissons Ratio (z) = 0.52635 0.23435
#
# Static dielectric constant tensor:
#      x y z
#    x 3.572920 0.000000 0.000000 
#    y 0.000000 3.815210 0.000000 
#    z 0.000000 0.000000 3.260400 
# 
# 
# High freq. dielectric constant tensor:
#      x y z
#    x 1.755590 0.000000 0.000000 
#    y 0.000000 1.763730 0.000000 
#    z 0.000000 0.000000 1.724830 
# 
# From -- ./inp_files/14871.got.cif
#   From: 2010.03.12/outbox.cif.g09.slc.cpg/sg59_8_cif.got.tgz:14871.got - 2010.04.16 16:29:54.
