data_PCOD8240375
_publ_section_title
;
Structure prediction by ZEFSAII (Michael W. Deem and Ramdas Pophale) SiO2 
 PCOD8240375
Probable space group: P M M N
;
_chemical_formula_sum "Si O2"
_cell_formula_units_Z 40
_cell_length_a 18.148022
_cell_length_b 9.465222
_cell_length_c 13.694306
_cell_angle_alpha 90.000000
_cell_angle_beta 90.000000
_cell_angle_gamma 90.000000
_cell_volume 2352.340195
_symmetry_space_group_name_H-M "P M M N"
_symmetry_group_IT_number 59
_space_group.IT_coordinate_system_code '2'
_symmetry_cell_setting 'orthorhombic'
loop_
_space_group_symop_operation_xyz
x,y,z
1/2-x,1/2-y,z
1/2+x,-y,-z
-x,1/2+y,-z
-x,-y,-z
1/2+x,1/2+y,-z
1/2-x,y,z
x,1/2-y,z
loop_
_atom_site_type_symbol
_atom_site_label
_atom_site_fract_x
_atom_site_fract_y
_atom_site_fract_z
Si Si1 0.164323 0.416750 0.092991
Si Si2 0.948514 0.085865 0.795131
Si Si3 0.169184 0.081830 0.696352
Si Si4 0.025590 0.414392 0.592576
Si Si5 0.401891 0.082696 0.890999
O O1 0.250000 0.457063 0.094933
O O2 0.152779 0.250000 0.103672
O O3 0.123814 0.493685 0.182720
O O4 0.127942 0.477263 0.993322
O O5 0.929629 0.250000 0.809153
O O6 0.972552 0.055257 0.684206
O O7 0.013587 0.039055 0.869783
O O8 0.250000 0.025558 0.665375
O O9 0.167523 0.250000 0.701736
O O10 0.149164 0.022237 0.803761
O O11 0.108333 0.032642 0.618081
O O12 0.025008 0.250000 0.565896
O O13 0.000000 0.500000 0.500000
O O14 0.395044 0.250000 0.891917
#
# Coordination Sequence:
#
# PCOD8240375 Si02
#       5
#     8   8   8   8   8
#     4  10  19  29  44  69  97 123 153 188 223 259
#     4   9  18  32  48  66  90 122 156 185 222 277
#     4   8  13  24  45  71  93 112 141 185 231 270
#     4   9  18  32  50  70  90 116 151 188 228 273
#     4   8  14  26  45  68  93 119 148 184 225 269
#
# _framework density 17.004342000000001
#
# number of rings (size 3 to 8) (size 9 to 14) (size 15 to 20)
#    0.000    3.200    0.000    3.600    0.000    3.600 
#    0.000    1.000    0.000    5.400    0.000    0.000 
#    0.000    0.000    0.000    0.000    0.000    0.000 
#
# Total GULP energy -495777.108285 kJ/mol
# GULP energy per Si atom -12394.427707 kJ/mol
# Density = 1.696564 g / cm^3
# Si number density = 17.004342 Si / 1000 Ang^3
#
#
#
# Elastic Constant Matrix: (Units=GPa)
#
#
# Indices 1 2 3 4 5 6 
#
# 1 132.4490 45.6437 75.0522 0.0000 0.0000 0.0000
# 2 45.6437 35.4003 42.6077 0.0000 0.0000 0.0000
# 3 75.0522 42.6077 105.1047 0.0000 0.0000 0.0000
# 4 0.0000 0.0000 0.0000 27.4181 0.0000 0.0000
# 5 0.0000 0.0000 0.0000 0.0000 21.0158 0.0000
# 6 0.0000 0.0000 0.0000 0.0000 0.0000 23.8150
#
#
#
# Elastic Compliance Matrix: (Units=1/GPa)
#
#
# Indices 1 2 3 4 5 6 
#
# 1 0.015133 -0.012705 -0.005656 0.000000 0.000000 0.000000
# 2 -0.012705 0.065830 -0.017614 0.000000 0.000000 0.000000
# 3 -0.005656 -0.017614 0.020694 0.000000 0.000000 0.000000
# 4 0.000000 0.000000 0.000000 0.036472 0.000000 0.000000
# 5 0.000000 0.000000 0.000000 0.000000 0.047583 0.000000
# 6 0.000000 0.000000 0.000000 0.000000 0.000000 0.041990
#
#
# Mechanical properties :
#
#
# Convention : Reuss Voigt Hill
#
# Bulk Modulus (GPa) = 33.66225 66.61791 50.14008
# Shear Modulus (GPa) = 16.15224 21.75981 18.95603
#
# Velocity S-wave (km/s) = 3.08537 3.58112 3.34245
# Velocity P-wave (km/s) = 5.70368 7.50741 6.66683
#
# Compressibility (1/GPa) = 0.02970686
#
# Stress axis : x y z
#
# Youngs Moduli (GPa) = 66.07995 15.19067 48.32414
#
# Poissons Ratio (x) = 0.19299 0.27332
# Poissons Ratio (y) = 0.83953 0.85120
# Poissons Ratio (z) = 0.37374 0.26757
#
# Static dielectric constant tensor:
#      x y z
#    x 3.377160 0.000000 0.000000 
#    y 0.000000 2.721550 0.000000 
#    z 0.000000 0.000000 3.116470 
# 
# 
# High freq. dielectric constant tensor:
#      x y z
#    x 1.662900 0.000000 0.000000 
#    y 0.000000 1.611110 0.000000 
#    z 0.000000 0.000000 1.647440 
# 
# From -- ./inp_files/14071.got.cif
#   From: 2010.03.12/outbox.cif.g09.slc.cpg/sg59_8_cif.got.tgz:14071.got - 2010.04.16 16:29:54.
