data_PCOD8240680
_publ_section_title
;
Structure prediction by ZEFSAII (Michael W. Deem and Ramdas Pophale) SiO2 
 PCOD8240680
Probable space group: P M M N
;
_chemical_formula_sum "Si O2"
_cell_formula_units_Z 64
_cell_length_a 15.873991
_cell_length_b 9.280132
_cell_length_c 23.600184
_cell_angle_alpha 90.000000
_cell_angle_beta 90.000000
_cell_angle_gamma 90.000000
_cell_volume 3476.607577
_symmetry_space_group_name_H-M "P M M N"
_symmetry_group_IT_number 59
_space_group.IT_coordinate_system_code '2'
_symmetry_cell_setting 'orthorhombic'
loop_
_space_group_symop_operation_xyz
x,y,z
1/2-x,1/2-y,z
1/2+x,-y,-z
-x,1/2+y,-z
-x,-y,-z
1/2+x,1/2+y,-z
1/2-x,y,z
x,1/2-y,z
loop_
_atom_site_type_symbol
_atom_site_label
_atom_site_fract_x
_atom_site_fract_y
_atom_site_fract_z
Si Si1 0.091555 0.916533 0.437065
Si Si2 0.844028 0.083344 0.080799
Si Si3 0.158078 0.919122 0.679078
Si Si4 0.927988 0.087299 0.971585
Si Si5 0.995183 0.580591 0.139588
Si Si6 0.420829 0.915306 0.563356
Si Si7 0.156581 0.084789 0.336973
Si Si8 0.993888 0.921439 0.744531
O O1 0.088754 0.750000 0.420566
O O2 0.122301 0.938795 0.502025
O O3 0.155553 0.995676 0.395248
O O4 0.999158 0.980380 0.428767
O O5 0.750000 0.043603 0.100727
O O6 0.864981 0.250000 0.095714
O O7 0.846302 0.061643 0.011498
O O8 0.907946 0.980584 0.114075
O O9 0.250000 0.984004 0.696840
O O10 0.159886 0.750000 0.688965
O O11 0.145176 0.953782 0.612601
O O12 0.081048 0.980435 0.716730
O O13 0.958453 0.250000 0.975584
O O14 0.926355 0.049128 0.904343
O O15 0.000000 0.000000 0.000000
O O16 0.983824 0.750000 0.151885
O O17 0.019672 0.497999 0.196021
O O18 0.452447 0.750000 0.569623
O O19 0.250000 0.065668 0.309970
O O20 0.138589 0.250000 0.352423
O O21 0.084958 0.029610 0.293969
O O22 0.995232 0.750000 0.752891
#
# Coordination Sequence:
#
# PCOD8240680 Si02
#       8
#     8   8   8   8   8   8   8   8
#     4  10  19  30  52  81 107 133 166 215 271 326
#     4   9  17  31  53  79 105 135 173 211 246 299
#     4   9  17  31  53  76  97 129 175 220 259 306
#     4   8  15  29  48  71  98 128 161 198 242 293
#     4  10  20  33  51  75 105 138 171 211 264 312
#     4   9  17  32  52  76 106 138 171 209 262 324
#     4  10  21  38  58  76  99 136 180 224 271 322
#     4  10  20  36  55  74 100 138 184 226 261 307
#
# _framework density 18.408749
#
# number of rings (size 3 to 8) (size 9 to 14) (size 15 to 20)
#    0.000    2.625    1.250    0.750    0.000    3.000 
#    0.000    3.125    0.000    1.875    0.000    0.000 
#    0.000    0.000    0.000    0.000    0.000    0.000 
#
# Total GULP energy -792896.867674 kJ/mol
# GULP energy per Si atom -12389.013557 kJ/mol
# Density = 1.836685 g / cm^3
# Si number density = 18.408749 Si / 1000 Ang^3
#
#
#
# Elastic Constant Matrix: (Units=GPa)
#
#
# Indices 1 2 3 4 5 6 
#
# 1 81.8134 21.1823 37.1854 0.0000 0.0000 0.0000
# 2 21.1823 51.4320 39.3379 0.0000 0.0000 0.0000
# 3 37.1854 39.3379 115.2410 0.0000 0.0000 0.0000
# 4 0.0000 0.0000 0.0000 31.6779 0.0000 0.0000
# 5 0.0000 0.0000 0.0000 0.0000 17.0725 0.0000
# 6 0.0000 0.0000 0.0000 0.0000 0.0000 15.6279
#
#
#
# Elastic Compliance Matrix: (Units=1/GPa)
#
#
# Indices 1 2 3 4 5 6 
#
# 1 0.014724 -0.003289 -0.003628 0.000000 0.000000 0.000000
# 2 -0.003289 0.027048 -0.008172 0.000000 0.000000 0.000000
# 3 -0.003628 -0.008172 0.012638 0.000000 0.000000 0.000000
# 4 0.000000 0.000000 0.000000 0.031568 0.000000 0.000000
# 5 0.000000 0.000000 0.000000 0.000000 0.058574 0.000000
# 6 0.000000 0.000000 0.000000 0.000000 0.000000 0.063988
#
#
# Mechanical properties :
#
#
# Convention : Reuss Voigt Hill
#
# Bulk Modulus (GPa) = 41.26860 49.32198 45.29529
# Shear Modulus (GPa) = 20.25986 22.92769 21.59378
#
# Velocity S-wave (km/s) = 3.32106 3.53296 3.42865
# Velocity P-wave (km/s) = 6.09693 6.59494 6.35082
#
# Compressibility (1/GPa) = 0.02423150
#
# Stress axis : x y z
#
# Youngs Moduli (GPa) = 67.91841 36.97165 79.12871
#
# Poissons Ratio (x) = 0.12159 0.28710
# Poissons Ratio (y) = 0.22337 0.64661
# Poissons Ratio (z) = 0.24643 0.30212
#
# Static dielectric constant tensor:
#      x y z
#    x 3.733250 0.000000 0.000000 
#    y 0.000000 3.282740 0.000000 
#    z 0.000000 0.000000 3.684850 
# 
# 
# High freq. dielectric constant tensor:
#      x y z
#    x 1.696250 0.000000 0.000000 
#    y 0.000000 1.698810 0.000000 
#    z 0.000000 0.000000 1.717160 
# 
# From -- ./inp_files/32213.got.cif
#   From: 2010.03.12/outbox.cif.g09.slc.cpg/sg59_17_cif.got.tgz:32213.got - 2010.04.16 16:29:54.
