data_PCOD8240698
_publ_section_title
;
Structure prediction by ZEFSAII (Michael W. Deem and Ramdas Pophale) SiO2 
 PCOD8240698
Probable space group: P M M N
;
_chemical_formula_sum "Si O2"
_cell_formula_units_Z 64
_cell_length_a 24.877880
_cell_length_b 9.136854
_cell_length_c 17.922693
_cell_angle_alpha 90.000000
_cell_angle_beta 90.000000
_cell_angle_gamma 90.000000
_cell_volume 4073.927722
_symmetry_space_group_name_H-M "P M M N"
_symmetry_group_IT_number 59
_space_group.IT_coordinate_system_code '2'
_symmetry_cell_setting 'orthorhombic'
loop_
_space_group_symop_operation_xyz
x,y,z
1/2-x,1/2-y,z
1/2+x,-y,-z
-x,1/2+y,-z
-x,-y,-z
1/2+x,1/2+y,-z
1/2-x,y,z
x,1/2-y,z
loop_
_atom_site_type_symbol
_atom_site_label
_atom_site_fract_x
_atom_site_fract_y
_atom_site_fract_z
Si Si1 0.813929 0.085359 0.498767
Si Si2 0.611553 0.075484 0.081633
Si Si3 0.492059 0.078841 0.922194
Si Si4 0.311719 0.577168 0.212996
Si Si5 0.186152 0.585784 0.665543
Si Si6 0.813961 0.913608 0.639565
Si Si7 0.313755 0.416890 0.808704
Si Si8 0.889979 0.419239 0.912264
O O1 0.750000 0.081580 0.502167
O O2 0.834357 0.250000 0.512861
O O3 0.833365 0.031895 0.416537
O O4 0.838219 0.983053 0.563637
O O5 0.607153 0.250000 0.087190
O O6 0.557823 0.002193 0.118342
O O7 0.662992 0.017629 0.125819
O O8 0.616953 0.017980 0.996156
O O9 0.479042 0.250000 0.933155
O O10 0.549325 0.058026 0.880042
O O11 0.500000 0.000000 0.000000
O O12 0.250000 0.534880 0.196671
O O13 0.318988 0.750000 0.221853
O O14 0.333139 0.505660 0.289152
O O15 0.347391 0.510576 0.145350
O O16 0.250000 0.588304 0.666718
O O17 0.164573 0.750000 0.681476
O O18 0.164611 0.476154 0.729004
O O19 0.750000 0.914517 0.635546
O O20 0.836662 0.750000 0.646726
O O21 0.250000 0.429553 0.813992
O O22 0.333155 0.250000 0.817583
O O23 0.875893 0.250000 0.918433
#
# Coordination Sequence:
#
# PCOD8240698 Si02
#       8
#     8   8   8   8   8   8   8   8
#     4   8  13  22  37  55  74 101 138 173 204 241
#     4  10  19  31  47  65  84 109 144 182 220 259
#     4   9  16  29  47  65  85 106 135 178 224 264
#     4   9  16  27  42  58  80 111 144 174 204 243
#     4   8  14  25  40  57  78 106 140 175 208 243
#     4   9  16  24  34  52  79 108 137 169 206 245
#     4  10  20  31  42  60  88 119 147 174 210 256
#     4   8  16  29  45  64  82 106 142 180 215 251
#
# _framework density 15.709656000000001
#
# number of rings (size 3 to 8) (size 9 to 14) (size 15 to 20)
#    0.000    3.125    0.000    3.000    0.000    3.250 
#    0.000    7.500    0.000    1.500    0.000    0.000 
#    0.000    1.000    0.000    3.000    0.000    4.375 
#
# Total GULP energy -793031.178036 kJ/mol
# GULP energy per Si atom -12391.112157 kJ/mol
# Density = 1.567390 g / cm^3
# Si number density = 15.709656 Si / 1000 Ang^3
#
#
#
# Elastic Constant Matrix: (Units=GPa)
#
#
# Indices 1 2 3 4 5 6 
#
# 1 41.1943 29.0479 36.5618 0.0000 0.0000 0.0000
# 2 29.0479 83.0393 46.9552 0.0000 0.0000 0.0000
# 3 36.5618 46.9552 108.7720 0.0000 0.0000 0.0000
# 4 0.0000 0.0000 0.0000 19.0247 0.0000 0.0000
# 5 0.0000 0.0000 0.0000 0.0000 2.2682 0.0000
# 6 0.0000 0.0000 0.0000 0.0000 0.0000 18.0676
#
#
#
# Elastic Compliance Matrix: (Units=1/GPa)
#
#
# Indices 1 2 3 4 5 6 
#
# 1 0.038312 -0.008096 -0.009383 0.000000 0.000000 0.000000
# 2 -0.008096 0.017642 -0.004894 0.000000 0.000000 0.000000
# 3 -0.009383 -0.004894 0.014460 0.000000 0.000000 0.000000
# 4 0.000000 0.000000 0.000000 0.052563 0.000000 0.000000
# 5 0.000000 0.000000 0.000000 0.000000 0.440878 0.000000
# 6 0.000000 0.000000 0.000000 0.000000 0.000000 0.055348
#
#
# Mechanical properties :
#
#
# Convention : Reuss Voigt Hill
#
# Bulk Modulus (GPa) = 38.96006 50.90392 44.93199
# Shear Modulus (GPa) = 7.43487 15.90149 11.66818
#
# Velocity S-wave (km/s) = 2.17783 3.18498 2.72828
# Velocity P-wave (km/s) = 5.58371 6.78224 6.21195
#
# Compressibility (1/GPa) = 0.02566731
#
# Stress axis : x y z
#
# Youngs Moduli (GPa) = 26.10150 56.68205 69.15491
#
# Poissons Ratio (x) = 0.45891 0.64887
# Poissons Ratio (y) = 0.21133 0.33848
# Poissons Ratio (z) = 0.24491 0.27743
#
# Static dielectric constant tensor:
#      x y z
#    x -0.634440 0.000000 0.000000 
#    y 0.000000 3.087870 0.000000 
#    z 0.000000 0.000000 3.409470 
# 
# 
# High freq. dielectric constant tensor:
#      x y z
#    x 1.553470 0.000000 0.000000 
#    y 0.000000 1.602960 0.000000 
#    z 0.000000 0.000000 1.597990 
# 
# From -- ./inp_files/28530.got.cif
#   From: 2010.03.12/outbox.cif.g09.slc.cpg/sg59_15_cif.got.tgz:28530.got - 2010.04.16 16:29:54.
