data_PCOD8240200
_publ_section_title
;
Structure prediction by ZEFSAII (Michael W. Deem and Ramdas Pophale) SiO2 
 PCOD8240200
Probable space group: P M M N
;
_chemical_formula_sum "Si O2"
_cell_formula_units_Z 40
_cell_length_a 17.542934
_cell_length_b 12.660962
_cell_length_c 8.967751
_cell_angle_alpha 90.000000
_cell_angle_beta 90.000000
_cell_angle_gamma 90.000000
_cell_volume 1991.830948
_symmetry_space_group_name_H-M "P M M N"
_symmetry_group_IT_number 59
_space_group.IT_coordinate_system_code '2'
_symmetry_cell_setting 'orthorhombic'
loop_
_space_group_symop_operation_xyz
x,y,z
1/2-x,1/2-y,z
1/2+x,-y,-z
-x,1/2+y,-z
-x,-y,-z
1/2+x,1/2+y,-z
1/2-x,y,z
x,1/2-y,z
loop_
_atom_site_type_symbol
_atom_site_label
_atom_site_fract_x
_atom_site_fract_y
_atom_site_fract_z
Si Si1 0.467329 0.135590 0.912789
Si Si2 0.375369 0.868847 0.940335
Si Si3 0.163981 0.062549 0.114955
Si Si4 0.431598 0.977112 0.675533
Si Si5 0.081448 0.374760 0.414754
O O1 0.470035 0.250000 0.835855
O O2 0.481625 0.050807 0.785076
O O3 0.533496 0.125640 0.035348
O O4 0.386159 0.123869 0.993530
O O5 0.342746 0.750000 0.948786
O O6 0.366156 0.916075 0.772050
O O7 0.334366 0.938256 0.067695
O O8 0.250000 0.106356 0.111023
O O9 0.130527 0.082267 0.277731
O O10 0.490531 0.893724 0.603711
O O11 0.391100 0.053623 0.554862
O O12 0.096173 0.250000 0.440590
#
# Coordination Sequence:
#
# PCOD8240200 Si02
#       5
#     8   8   8   8   8
#     4  10  18  34  59  86 111 145 192 239 284 333
#     4  10  19  37  62  85 112 147 192 243 284 329
#     4  11  22  37  56  83 118 152 188 233 288 350
#     4  10  19  34  55  82 114 145 189 238 281 325
#     4  11  21  34  53  83 120 151 185 229 283 342
#
# _framework density 20.082027
#
# number of rings (size 3 to 8) (size 9 to 14) (size 15 to 20)
#    0.000    1.600    4.000    3.000    0.000    2.000 
#    0.000    5.000    0.000    4.800    0.000    0.000 
#    0.000    0.000    0.000    0.000    0.000    0.000 
#
# Total GULP energy -495780.798150 kJ/mol
# GULP energy per Si atom -12394.519954 kJ/mol
# Density = 2.003632 g / cm^3
# Si number density = 20.082027 Si / 1000 Ang^3
#
#
#
# Elastic Constant Matrix: (Units=GPa)
#
#
# Indices 1 2 3 4 5 6 
#
# 1 71.2128 4.8494 10.4850 0.0000 0.0000 0.0000
# 2 4.8494 114.3776 39.6115 0.0000 0.0000 0.0000
# 3 10.4850 39.6115 90.5493 0.0000 0.0000 0.0000
# 4 0.0000 0.0000 0.0000 19.5433 0.0000 0.0000
# 5 0.0000 0.0000 0.0000 0.0000 11.8626 0.0000
# 6 0.0000 0.0000 0.0000 0.0000 0.0000 4.3463
#
#
#
# Elastic Compliance Matrix: (Units=1/GPa)
#
#
# Indices 1 2 3 4 5 6 
#
# 1 0.014286 -0.000039 -0.001637 0.000000 0.000000 0.000000
# 2 -0.000039 0.010304 -0.004503 0.000000 0.000000 0.000000
# 3 -0.001637 -0.004503 0.013203 0.000000 0.000000 0.000000
# 4 0.000000 0.000000 0.000000 0.051168 0.000000 0.000000
# 5 0.000000 0.000000 0.000000 0.000000 0.084299 0.000000
# 6 0.000000 0.000000 0.000000 0.000000 0.000000 0.230080
#
#
# Mechanical properties :
#
#
# Convention : Reuss Voigt Hill
#
# Bulk Modulus (GPa) = 39.31554 42.89237 41.10395
# Shear Modulus (GPa) = 11.78753 21.89669 16.84211
#
# Velocity S-wave (km/s) = 2.42537 3.30565 2.89911
# Velocity P-wave (km/s) = 5.24054 5.99789 5.63196
#
# Compressibility (1/GPa) = 0.02543524
#
# Stress axis : x y z
#
# Youngs Moduli (GPa) = 69.99801 97.04821 75.73894
#
# Poissons Ratio (x) = 0.00375 0.12401
# Poissons Ratio (y) = 0.00271 0.34106
# Poissons Ratio (z) = 0.11461 0.43702
#
# Static dielectric constant tensor:
#      x y z
#    x 3.210710 0.000000 0.000000 
#    y 0.000000 3.985110 0.000000 
#    z 0.000000 0.000000 3.752430 
# 
# 
# High freq. dielectric constant tensor:
#      x y z
#    x 1.737140 0.000000 0.000000 
#    y 0.000000 1.801310 0.000000 
#    z 0.000000 0.000000 1.780020 
# 
# From -- ./inp_files/9135.got.cif
#   From: 2010.03.12/outbox.cif.g09.slc.cpg/sg59_5_cif.got.tgz:9135.got - 2010.04.16 16:29:54.
