data_PCOD8240105
_publ_section_title
;
Structure prediction by ZEFSAII (Michael W. Deem and Ramdas Pophale) SiO2 
 PCOD8240105
Probable space group: P M M N
;
_chemical_formula_sum "Si O2"
_cell_formula_units_Z 64
_cell_length_a 22.870148
_cell_length_b 17.131084
_cell_length_c 9.173791
_cell_angle_alpha 90.000000
_cell_angle_beta 90.000000
_cell_angle_gamma 90.000000
_cell_volume 3594.203488
_symmetry_space_group_name_H-M "P M M N"
_symmetry_group_IT_number 59
_space_group.IT_coordinate_system_code '2'
_symmetry_cell_setting 'orthorhombic'
loop_
_space_group_symop_operation_xyz
x,y,z
1/2-x,1/2-y,z
1/2+x,-y,-z
-x,1/2+y,-z
-x,-y,-z
1/2+x,1/2+y,-z
1/2-x,y,z
x,1/2-y,z
loop_
_atom_site_type_symbol
_atom_site_label
_atom_site_fract_x
_atom_site_fract_y
_atom_site_fract_z
Si Si1 0.585093 0.552314 0.254235
Si Si2 0.611678 0.434308 0.707845
Si Si3 0.021847 0.888288 0.721403
Si Si4 0.499050 0.841582 0.408695
Si Si5 0.317934 0.523841 0.570410
Si Si6 0.315110 0.842158 0.072937
Si Si7 0.445400 0.453552 0.060759
Si Si8 0.647041 0.162703 0.238648
O O1 0.543812 0.478074 0.291191
O O2 0.555428 0.629599 0.319651
O O3 0.648880 0.538020 0.324833
O O4 0.593473 0.568347 0.080430
O O5 0.557822 0.390358 0.635170
O O6 0.651423 0.476739 0.587222
O O7 0.647964 0.368734 0.790194
O O8 0.592653 0.498421 0.824536
O O9 0.988703 0.859883 0.577349
O O10 0.077082 0.832928 0.748431
O O11 0.974137 0.880294 0.852104
O O12 0.489601 0.750000 0.379204
O O13 0.250000 0.499867 0.556379
O O14 0.323164 0.610745 0.637023
O O15 0.250000 0.874085 0.094319
O O16 0.317731 0.750000 0.067060
O O17 0.339016 0.874855 0.918990
O O18 0.500000 0.500000 0.000000
O O19 0.672548 0.250000 0.255619
#
# Coordination Sequence:
#
# PCOD8240105 Si02
#       8
#     8   8   8   8   8   8   8   8
#     4  10  20  38  57  79 109 142 192 232 278 326
#     4  12  20  34  52  78 112 140 186 229 277 328
#     4  10  18  33  51  77 107 142 178 221 279 333
#     4  12  22  33  54  83 115 147 176 225 287 340
#     4  11  23  36  57  80 108 149 192 232 271 323
#     4  10  21  34  45  63 101 150 190 225 263 311
#     4  10  19  32  58  79 102 150 179 229 281 327
#     4  10  20  33  51  74 107 148 188 228 269 321
#
# _framework density 17.806449000000001
#
# number of rings (size 3 to 8) (size 9 to 14) (size 15 to 20)
#    0.000    1.375    5.000    4.875    0.000    1.250 
#    0.000    1.250    0.000    0.375    0.000    0.000 
#    0.000    2.000    0.000    0.000    0.000    0.000 
#
# Total GULP energy -793442.356074 kJ/mol
# GULP energy per Si atom -12397.536814 kJ/mol
# Density = 1.776592 g / cm^3
# Si number density = 17.806449 Si / 1000 Ang^3
#
#
#
# Elastic Constant Matrix: (Units=GPa)
#
#
# Indices 1 2 3 4 5 6 
#
# 1 104.0623 31.2662 64.0462 0.0000 0.0000 0.0000
# 2 31.2662 28.1664 15.4385 0.0000 0.0000 0.0000
# 3 64.0462 15.4385 129.7863 0.0000 0.0000 0.0000
# 4 0.0000 0.0000 0.0000 16.5160 0.0000 0.0000
# 5 0.0000 0.0000 0.0000 0.0000 16.2867 0.0000
# 6 0.0000 0.0000 0.0000 0.0000 0.0000 15.0327
#
#
#
# Elastic Compliance Matrix: (Units=1/GPa)
#
#
# Indices 1 2 3 4 5 6 
#
# 1 0.019524 -0.017535 -0.007549 0.000000 0.000000 0.000000
# 2 -0.017535 0.053729 0.002262 0.000000 0.000000 0.000000
# 3 -0.007549 0.002262 0.011161 0.000000 0.000000 0.000000
# 4 0.000000 0.000000 0.000000 0.060547 0.000000 0.000000
# 5 0.000000 0.000000 0.000000 0.000000 0.061400 0.000000
# 6 0.000000 0.000000 0.000000 0.000000 0.000000 0.066522
#
#
# Mechanical properties :
#
#
# Convention : Reuss Voigt Hill
#
# Bulk Modulus (GPa) = 25.79336 53.72411 39.75874
# Shear Modulus (GPa) = 15.08523 19.65135 17.36829
#
# Velocity S-wave (km/s) = 2.91379 3.32566 3.12652
# Velocity P-wave (km/s) = 5.08302 6.70696 5.95065
#
# Compressibility (1/GPa) = 0.03876966
#
# Stress axis : x y z
#
# Youngs Moduli (GPa) = 51.21835 18.61205 89.59730
#
# Poissons Ratio (x) = 0.32637 0.67635
# Poissons Ratio (y) = 0.89813 -0.20267
# Poissons Ratio (z) = 0.38664 -0.04210
#
# Static dielectric constant tensor:
#      x y z
#    x 3.319670 0.000000 0.000000 
#    y 0.000000 3.060240 0.000000 
#    z 0.000000 0.000000 3.697410 
# 
# 
# High freq. dielectric constant tensor:
#      x y z
#    x 1.672410 0.000000 0.000000 
#    y 0.000000 1.645850 0.000000 
#    z 0.000000 0.000000 1.713340 
# 
# From -- ./inp_files/11637.got.cif
#   From: 2010.03.12/outbox.cif.g09.slc.cpg/sg59_6_cif.got.tgz:11637.got - 2010.04.16 16:29:54.
