data_PCOD8240818
_publ_section_title
;
Structure prediction by ZEFSAII (Michael W. Deem and Ramdas Pophale) SiO2 
 PCOD8240818
Probable space group: P M M N
;
_chemical_formula_sum "Si O2"
_cell_formula_units_Z 64
_cell_length_a 19.548810
_cell_length_b 9.033482
_cell_length_c 21.618763
_cell_angle_alpha 90.000000
_cell_angle_beta 90.000000
_cell_angle_gamma 90.000000
_cell_volume 3817.740012
_symmetry_space_group_name_H-M "P M M N"
_symmetry_group_IT_number 59
_space_group.IT_coordinate_system_code '2'
_symmetry_cell_setting 'orthorhombic'
loop_
_space_group_symop_operation_xyz
x,y,z
1/2-x,1/2-y,z
1/2+x,-y,-z
-x,1/2+y,-z
-x,-y,-z
1/2+x,1/2+y,-z
1/2-x,y,z
x,1/2-y,z
loop_
_atom_site_type_symbol
_atom_site_label
_atom_site_fract_x
_atom_site_fract_y
_atom_site_fract_z
Si Si1 0.947615 0.924647 0.821867
Si Si2 0.895280 0.915604 0.510909
Si Si3 0.672835 0.078615 0.617872
Si Si4 0.032714 0.583797 0.588994
Si Si5 0.828139 0.081082 0.881316
Si Si6 0.458072 0.924739 0.305653
Si Si7 0.676312 0.425055 0.020572
Si Si8 0.467525 0.575264 0.940535
O O1 0.949511 0.750000 0.812794
O O2 0.996683 0.978074 0.877743
O O3 0.870859 0.977087 0.835840
O O4 0.973321 0.001285 0.759831
O O5 0.871138 0.750000 0.494017
O O6 0.966999 0.910846 0.545692
O O7 0.838349 0.989525 0.554494
O O8 0.904181 0.009504 0.447908
O O9 0.750000 0.048006 0.642210
O O10 0.661561 0.250000 0.601760
O O11 0.618068 0.030330 0.670233
O O12 0.053665 0.750000 0.609011
O O13 0.016362 0.485076 0.648727
O O14 0.750000 0.071465 0.859600
O O15 0.854715 0.250000 0.876052
O O16 0.836918 0.018345 0.950794
O O17 0.465687 0.750000 0.299775
O O18 0.750000 0.487824 0.045101
O O19 0.682153 0.250000 0.016608
O O20 0.612807 0.472612 0.063731
O O21 0.475255 0.750000 0.949440
O O22 0.500000 0.500000 0.000000
#
# Coordination Sequence:
#
# PCOD8240818 Si02
#       8
#     8   8   8   8   8   8   8   8
#     4  11  22  32  44  68  98 127 158 200 253 305
#     4   9  16  26  44  70  95 120 151 186 230 280
#     4   9  18  32  48  67  93 126 165 203 234 267
#     4   9  16  28  46  67  92 119 150 194 239 275
#     4   9  17  30  48  66  86 119 161 197 230 280
#     4  10  20  33  48  65  90 128 169 205 237 284
#     4   8  14  27  48  70  89 113 149 190 232 283
#     4  10  19  31  49  71  95 121 153 197 250 299
#
# _framework density 16.763843999999999
#
# number of rings (size 3 to 8) (size 9 to 14) (size 15 to 20)
#    0.000    2.625    1.250    2.250    0.000    5.000 
#    0.000    1.250    0.000    0.375    0.000    0.875 
#    0.000    5.000    0.000    0.000    0.000    0.000 
#
# Total GULP energy -793368.247275 kJ/mol
# GULP energy per Si atom -12396.378864 kJ/mol
# Density = 1.672569 g / cm^3
# Si number density = 16.763844 Si / 1000 Ang^3
#
#
#
# Elastic Constant Matrix: (Units=GPa)
#
#
# Indices 1 2 3 4 5 6 
#
# 1 60.6017 24.6642 43.6950 0.0000 0.0000 0.0000
# 2 24.6642 73.5366 46.1660 0.0000 0.0000 0.0000
# 3 43.6950 46.1660 108.8603 0.0000 0.0000 0.0000
# 4 0.0000 0.0000 0.0000 27.4471 0.0000 0.0000
# 5 0.0000 0.0000 0.0000 0.0000 19.1773 0.0000
# 6 0.0000 0.0000 0.0000 0.0000 0.0000 19.5256
#
#
#
# Elastic Compliance Matrix: (Units=1/GPa)
#
#
# Indices 1 2 3 4 5 6 
#
# 1 0.023604 -0.002683 -0.008336 0.000000 0.000000 0.000000
# 2 -0.002683 0.018838 -0.006912 0.000000 0.000000 0.000000
# 3 -0.008336 -0.006912 0.015463 0.000000 0.000000 0.000000
# 4 0.000000 0.000000 0.000000 0.036434 0.000000 0.000000
# 5 0.000000 0.000000 0.000000 0.000000 0.052145 0.000000
# 6 0.000000 0.000000 0.000000 0.000000 0.000000 0.051215
#
#
# Mechanical properties :
#
#
# Convention : Reuss Voigt Hill
#
# Bulk Modulus (GPa) = 45.36730 52.44989 48.90859
# Shear Modulus (GPa) = 20.75472 21.79489 21.27480
#
# Velocity S-wave (km/s) = 3.52243 3.60962 3.56629
# Velocity P-wave (km/s) = 6.60793 6.98054 6.79679
#
# Compressibility (1/GPa) = 0.02204231
#
# Stress axis : x y z
#
# Youngs Moduli (GPa) = 42.36593 53.08455 64.66881
#
# Poissons Ratio (x) = 0.14244 0.53910
# Poissons Ratio (y) = 0.11368 0.44698
# Poissons Ratio (z) = 0.35318 0.36691
#
# Static dielectric constant tensor:
#      x y z
#    x 3.346780 0.000000 0.000000 
#    y 0.000000 3.136700 0.000000 
#    z 0.000000 0.000000 3.035970 
# 
# 
# High freq. dielectric constant tensor:
#      x y z
#    x 1.625590 0.000000 0.000000 
#    y 0.000000 1.643580 0.000000 
#    z 0.000000 0.000000 1.624240 
# 
# From -- ./inp_files/30998.got.cif
#   From: 2010.03.12/outbox.cif.g09.slc.cpg/sg59_16_cif.got.tgz:30998.got - 2010.04.16 16:29:54.
