data_PCOD8240096
_publ_section_title
;
Structure prediction by ZEFSAII (Michael W. Deem and Ramdas Pophale) SiO2 
 PCOD8240096
Probable space group: P M M N
;
_chemical_formula_sum "Si O2"
_cell_formula_units_Z 56
_cell_length_a 21.594015
_cell_length_b 8.896456
_cell_length_c 14.730616
_cell_angle_alpha 90.000000
_cell_angle_beta 90.000000
_cell_angle_gamma 90.000000
_cell_volume 2829.901649
_symmetry_space_group_name_H-M "P M M N"
_symmetry_group_IT_number 59
_space_group.IT_coordinate_system_code '2'
_symmetry_cell_setting 'orthorhombic'
loop_
_space_group_symop_operation_xyz
x,y,z
1/2-x,1/2-y,z
1/2+x,-y,-z
-x,1/2+y,-z
-x,-y,-z
1/2+x,1/2+y,-z
1/2-x,y,z
x,1/2-y,z
loop_
_atom_site_type_symbol
_atom_site_label
_atom_site_fract_x
_atom_site_fract_y
_atom_site_fract_z
Si Si1 0.322031 0.575985 0.734638
Si Si2 0.250000 0.072916 0.265434
Si Si3 0.250000 0.427298 0.056977
Si Si4 0.377602 0.928357 0.035526
Si Si5 0.821352 0.922537 0.450764
Si Si6 0.948851 0.073858 0.785478
Si Si7 0.419598 0.073134 0.861281
Si Si8 0.871536 0.573216 0.640838
O O1 0.250000 0.543626 0.752828
O O2 0.338673 0.750000 0.747940
O O3 0.339586 0.528811 0.632420
O O4 0.359700 0.476898 0.805360
O O5 0.250000 0.250000 0.281660
O O6 0.250000 0.027229 0.161518
O O7 0.189065 0.003203 0.311052
O O8 0.250000 0.250000 0.039755
O O9 0.189050 0.499563 0.013446
O O10 0.372929 0.750000 0.030586
O O11 0.423210 0.987650 0.957287
O O12 0.404384 0.982639 0.132609
O O13 0.750000 0.946268 0.481453
O O14 0.831602 0.750000 0.421250
O O15 0.866866 0.965524 0.534009
O O16 0.942118 0.250000 0.774292
O O17 0.019201 0.027443 0.805871
O O18 0.931029 0.999327 0.689255
O O19 0.416899 0.250000 0.879926
O O20 0.875247 0.750000 0.656027
#
# Coordination Sequence:
#
# PCOD8240096 Si02
#       8
#     8   4   4   8   8   8   8   8
#     4  10  22  40  61  86 115 144 184 240 297 344
#     4   9  16  29  51  82 117 150 187 231 272 326
#     4  11  21  35  57  86 119 154 191 231 280 338
#     4  11  23  39  59  85 119 152 189 238 291 336
#     4   9  17  32  57  87 118 150 187 232 284 341
#     4  10  23  40  57  83 118 154 191 237 284 337
#     4  11  24  42  62  82 109 150 200 240 283 343
#     4  10  18  32  57  87 118 153 192 231 277 339
#
# _framework density 19.788671999999998
#
# number of rings (size 3 to 8) (size 9 to 14) (size 15 to 20)
#    0.000    1.857    2.143    1.929    1.000    3.143 
#    0.000    1.071    0.000    0.000    0.000    0.000 
#    0.000    0.000    0.000    0.000    0.000    0.000 
#
# Total GULP energy -694531.770304 kJ/mol
# GULP energy per Si atom -12402.353041 kJ/mol
# Density = 1.974363 g / cm^3
# Si number density = 19.788672 Si / 1000 Ang^3
#
#
#
# Elastic Constant Matrix: (Units=GPa)
#
#
# Indices 1 2 3 4 5 6 
#
# 1 72.0697 27.1133 25.1156 0.0000 0.0000 0.0000
# 2 27.1133 55.1372 24.0513 0.0000 0.0000 0.0000
# 3 25.1156 24.0513 72.5264 0.0000 0.0000 0.0000
# 4 0.0000 0.0000 0.0000 33.4495 0.0000 0.0000
# 5 0.0000 0.0000 0.0000 0.0000 26.7182 0.0000
# 6 0.0000 0.0000 0.0000 0.0000 0.0000 28.4949
#
#
#
# Elastic Compliance Matrix: (Units=1/GPa)
#
#
# Indices 1 2 3 4 5 6 
#
# 1 0.017892 -0.007126 -0.003833 0.000000 0.000000 0.000000
# 2 -0.007126 0.024042 -0.005505 0.000000 0.000000 0.000000
# 3 -0.003833 -0.005505 0.016941 0.000000 0.000000 0.000000
# 4 0.000000 0.000000 0.000000 0.029896 0.000000 0.000000
# 5 0.000000 0.000000 0.000000 0.000000 0.037428 0.000000
# 6 0.000000 0.000000 0.000000 0.000000 0.000000 0.035094
#
#
# Mechanical properties :
#
#
# Convention : Reuss Voigt Hill
#
# Bulk Modulus (GPa) = 38.54024 39.14376 38.84200
# Shear Modulus (GPa) = 24.64628 25.96273 25.30451
#
# Velocity S-wave (km/s) = 3.53296 3.62608 3.57982
# Velocity P-wave (km/s) = 6.01337 6.11189 6.06283
#
# Compressibility (1/GPa) = 0.02594691
#
# Stress axis : x y z
#
# Youngs Moduli (GPa) = 55.89042 41.59331 59.02860
#
# Poissons Ratio (x) = 0.29641 0.22624
# Poissons Ratio (y) = 0.39830 0.32496
# Poissons Ratio (z) = 0.21421 0.22898
#
# Static dielectric constant tensor:
#      x y z
#    x 3.569300 0.000000 0.000000 
#    y 0.000000 3.412620 0.000000 
#    z 0.000000 0.000000 3.628240 
# 
# 
# High freq. dielectric constant tensor:
#      x y z
#    x 1.762550 0.000000 0.000000 
#    y 0.000000 1.762030 0.000000 
#    z 0.000000 0.000000 1.775820 
# 
# From -- ./inp_files/24377.got.cif
#   From: 2010.03.12/outbox.cif.g09.slc.cpg/sg59_13_cif.got.tgz:24377.got - 2010.04.16 16:29:54.
