data_PCOD8240075
_publ_section_title
;
Structure prediction by ZEFSAII (Michael W. Deem and Ramdas Pophale) SiO2 
 PCOD8240075
Probable space group: P M M N
;
_chemical_formula_sum "Si O2"
_cell_formula_units_Z 48
_cell_length_a 8.824474
_cell_length_b 17.991484
_cell_length_c 15.890827
_cell_angle_alpha 90.000000
_cell_angle_beta 90.000000
_cell_angle_gamma 90.000000
_cell_volume 2522.913231
_symmetry_space_group_name_H-M "P M M N"
_symmetry_group_IT_number 59
_space_group.IT_coordinate_system_code '2'
_symmetry_cell_setting 'orthorhombic'
loop_
_space_group_symop_operation_xyz
x,y,z
1/2-x,1/2-y,z
1/2+x,-y,-z
-x,1/2+y,-z
-x,-y,-z
1/2+x,1/2+y,-z
1/2-x,y,z
x,1/2-y,z
loop_
_atom_site_type_symbol
_atom_site_label
_atom_site_fract_x
_atom_site_fract_y
_atom_site_fract_z
Si Si1 0.575937 0.250000 0.113926
Si Si2 0.569922 0.889964 0.606710
Si Si3 0.575357 0.396475 0.015820
Si Si4 0.573912 0.532959 0.132596
Si Si5 0.929262 0.457266 0.687385
Si Si6 0.070302 0.335649 0.574231
Si Si7 0.071351 0.250000 0.290757
O O1 0.750000 0.250000 0.144354
O O2 0.535927 0.318661 0.055983
O O3 0.468518 0.250000 0.193676
O O4 0.750000 0.889630 0.610931
O O5 0.513399 0.873446 0.512315
O O6 0.503989 0.824300 0.665883
O O7 0.507664 0.969863 0.637940
O O8 0.750000 0.404666 0.989255
O O9 0.532197 0.456402 0.086518
O O10 0.473883 0.402202 0.931993
O O11 0.750000 0.539820 0.155919
O O12 0.475296 0.537261 0.216011
O O13 0.750000 0.452688 0.680080
O O14 0.999198 0.381988 0.650244
O O15 0.250000 0.338998 0.581170
O O16 0.014991 0.250000 0.578687
O O17 0.250000 0.250000 0.302893
#
# Coordination Sequence:
#
# PCOD8240075 Si02
#       7
#     4   8   8   8   8   8   4
#     4  10  20  34  52  81 114 141 170 215 278 331
#     4   9  18  34  57  83 110 145 185 226 272 325
#     4   9  19  36  57  79 109 144 178 223 278 329
#     4  10  20  36  57  80 107 143 186 225 268 324
#     4  11  22  35  55  84 114 144 184 228 275 330
#     4  10  20  38  60  79 107 147 189 231 275 322
#     4  10  18  32  56  83 112 145 184 225 268 323
#
# _framework density 19.025625000000002
#
# number of rings (size 3 to 8) (size 9 to 14) (size 15 to 20)
#    0.000    2.167    0.833    2.500    0.000    1.667 
#    1.500    2.500    0.000    0.000    0.000    0.000 
#    0.000    0.000    0.000    0.000    0.000    0.000 
#
# Total GULP energy -595273.258292 kJ/mol
# GULP energy per Si atom -12401.526214 kJ/mol
# Density = 1.898232 g / cm^3
# Si number density = 19.025625 Si / 1000 Ang^3
#
#
#
# Elastic Constant Matrix: (Units=GPa)
#
#
# Indices 1 2 3 4 5 6 
#
# 1 26.7863 28.1286 22.5026 0.0000 0.0000 0.0000
# 2 28.1286 122.0311 72.2763 0.0000 0.0000 0.0000
# 3 22.5026 72.2763 113.7621 0.0000 0.0000 0.0000
# 4 0.0000 0.0000 0.0000 19.3987 0.0000 0.0000
# 5 0.0000 0.0000 0.0000 0.0000 25.9798 0.0000
# 6 0.0000 0.0000 0.0000 0.0000 0.0000 24.9655
#
#
#
# Elastic Compliance Matrix: (Units=1/GPa)
#
#
# Indices 1 2 3 4 5 6 
#
# 1 0.050450 -0.009169 -0.004154 0.000000 0.000000 0.000000
# 2 -0.009169 0.014805 -0.007592 0.000000 0.000000 0.000000
# 3 -0.004154 -0.007592 0.014436 0.000000 0.000000 0.000000
# 4 0.000000 0.000000 0.000000 0.051550 0.000000 0.000000
# 5 0.000000 0.000000 0.000000 0.000000 0.038491 0.000000
# 6 0.000000 0.000000 0.000000 0.000000 0.000000 0.040055
#
#
# Mechanical properties :
#
#
# Convention : Reuss Voigt Hill
#
# Bulk Modulus (GPa) = 26.41269 56.48828 41.45049
# Shear Modulus (GPa) = 18.92233 23.38025 21.15129
#
# Velocity S-wave (km/s) = 3.15710 3.50934 3.33787
# Velocity P-wave (km/s) = 5.21561 6.79527 6.05716
#
# Compressibility (1/GPa) = 0.03786059
#
# Stress axis : x y z
#
# Youngs Moduli (GPa) = 19.82142 67.54577 69.27314
#
# Poissons Ratio (x) = 0.61930 0.28778
# Poissons Ratio (y) = 0.18173 0.52594
# Poissons Ratio (z) = 0.08234 0.51283
#
# Static dielectric constant tensor:
#      x y z
#    x 3.230390 0.000000 0.000000 
#    y 0.000000 3.678330 0.000000 
#    z 0.000000 0.000000 3.457620 
# 
# 
# High freq. dielectric constant tensor:
#      x y z
#    x 1.718610 0.000000 0.000000 
#    y 0.000000 1.747400 0.000000 
#    z 0.000000 0.000000 1.745770 
# 
# From -- ./inp_files/20550.got.cif
#   From: 2010.03.12/outbox.cif.g09.slc.cpg/sg59_11_cif.got.tgz:20550.got - 2010.04.16 16:29:54.
