data_PCOD8240046
_publ_section_title
;
Structure prediction by ZEFSAII (Michael W. Deem and Ramdas Pophale) SiO2 
 PCOD8240046
Probable space group: P M M N
;
_chemical_formula_sum "Si O2"
_cell_formula_units_Z 64
_cell_length_a 16.766038
_cell_length_b 18.995192
_cell_length_c 10.794875
_cell_angle_alpha 90.000000
_cell_angle_beta 90.000000
_cell_angle_gamma 90.000000
_cell_volume 3437.888218
_symmetry_space_group_name_H-M "P M M N"
_symmetry_group_IT_number 59
_space_group.IT_coordinate_system_code '2'
_symmetry_cell_setting 'orthorhombic'
loop_
_space_group_symop_operation_xyz
x,y,z
1/2-x,1/2-y,z
1/2+x,-y,-z
-x,1/2+y,-z
-x,-y,-z
1/2+x,1/2+y,-z
1/2-x,y,z
x,1/2-y,z
loop_
_atom_site_type_symbol
_atom_site_label
_atom_site_fract_x
_atom_site_fract_y
_atom_site_fract_z
Si Si1 0.160800 0.827651 0.356107
Si Si2 0.400377 0.168594 0.337736
Si Si3 0.658434 0.036243 0.284330
Si Si4 0.899085 0.043285 0.762171
Si Si5 0.052151 0.039694 0.901003
Si Si6 0.342225 0.461685 0.464333
Si Si7 0.842916 0.909986 0.901687
Si Si8 0.415198 0.670497 0.612204
O O1 0.250000 0.835014 0.411573
O O2 0.147786 0.750000 0.299213
O O3 0.149285 0.883815 0.246461
O O4 0.097966 0.841866 0.465958
O O5 0.376948 0.250000 0.358182
O O6 0.355448 0.121819 0.441863
O O7 0.374004 0.144879 0.200487
O O8 0.493905 0.155690 0.352736
O O9 0.750000 0.027740 0.251519
O O10 0.640294 0.117363 0.312895
O O11 0.611108 0.015213 0.162625
O O12 0.634623 0.984131 0.397178
O O13 0.989048 0.067039 0.798786
O O14 0.899254 0.004746 0.628744
O O15 0.856229 0.990839 0.858686
O O16 0.105277 0.099774 0.971181
O O17 0.000000 0.000000 0.000000
O O18 0.250000 0.480809 0.435858
O O19 0.750000 0.895971 0.928339
O O20 0.390393 0.750000 0.648397
#
# Coordination Sequence:
#
# PCOD8240046 Si02
#       8
#     8   8   8   8   8   8   8   8
#     4  10  19  31  49  76 111 148 180 209 256 327
#     4  10  21  36  57  84 111 140 182 231 286 339
#     4  11  21  34  56  83 116 150 182 226 281 334
#     4  10  18  32  55  78 108 140 180 225 275 324
#     4  10  22  36  53  80 103 140 189 235 275 315
#     4  10  20  32  53  85 113 142 180 223 279 346
#     4  10  20  37  58  77 104 140 187 237 278 326
#     4  10  20  32  50  80 117 150 177 212 260 326
#
# _framework density 18.616078999999999
#
# number of rings (size 3 to 8) (size 9 to 14) (size 15 to 20)
#    0.000    1.875    1.250    5.250    1.750    2.750 
#    0.000    0.625    0.000    3.750    0.000    1.750 
#    0.000    0.000    0.000    0.000    0.000    0.000 
#
# Total GULP energy -793349.071040 kJ/mol
# GULP energy per Si atom -12396.079235 kJ/mol
# Density = 1.857371 g / cm^3
# Si number density = 18.616079 Si / 1000 Ang^3
#
#
#
# Elastic Constant Matrix: (Units=GPa)
#
#
# Indices 1 2 3 4 5 6 
#
# 1 111.5697 33.3958 52.2533 0.0000 0.0000 0.0000
# 2 33.3958 109.5436 38.5460 0.0000 0.0000 0.0000
# 3 52.2533 38.5460 77.4259 0.0000 0.0000 0.0000
# 4 0.0000 0.0000 0.0000 23.6398 0.0000 0.0000
# 5 0.0000 0.0000 0.0000 0.0000 36.3284 0.0000
# 6 0.0000 0.0000 0.0000 0.0000 0.0000 26.9195
#
#
#
# Elastic Compliance Matrix: (Units=1/GPa)
#
#
# Indices 1 2 3 4 5 6 
#
# 1 0.013210 -0.001079 -0.008378 0.000000 0.000000 0.000000
# 2 -0.001079 0.011156 -0.004826 0.000000 0.000000 0.000000
# 3 -0.008378 -0.004826 0.020972 0.000000 0.000000 0.000000
# 4 0.000000 0.000000 0.000000 0.042301 0.000000 0.000000
# 5 0.000000 0.000000 0.000000 0.000000 0.027527 0.000000
# 6 0.000000 0.000000 0.000000 0.000000 0.000000 0.037148
#
#
# Mechanical properties :
#
#
# Convention : Reuss Voigt Hill
#
# Bulk Modulus (GPa) = 59.62130 60.76995 60.19563
# Shear Modulus (GPa) = 26.81409 29.00048 27.90729
#
# Velocity S-wave (km/s) = 3.79934 3.95120 3.87602
# Velocity P-wave (km/s) = 7.16540 7.31647 7.24133
#
# Compressibility (1/GPa) = 0.01677253
#
# Stress axis : x y z
#
# Youngs Moduli (GPa) = 75.70176 89.63954 47.68282
#
# Poissons Ratio (x) = 0.09674 0.39947
# Poissons Ratio (y) = 0.08170 0.23009
# Poissons Ratio (z) = 0.63421 0.43256
#
# Static dielectric constant tensor:
#      x y z
#    x 3.719610 0.000000 0.000000 
#    y 0.000000 3.461940 0.000000 
#    z 0.000000 0.000000 3.479610 
# 
# 
# High freq. dielectric constant tensor:
#      x y z
#    x 1.736230 0.000000 0.000000 
#    y 0.000000 1.709060 0.000000 
#    z 0.000000 0.000000 1.702490 
# 
# From -- ./inp_files/17992.got.cif
#   From: 2010.03.12/outbox.cif.g09.slc.cpg/sg59_9_cif.got.tgz:17992.got - 2010.04.16 16:29:54.
