data_PCOD8240614
_publ_section_title
;
Structure prediction by ZEFSAII (Michael W. Deem and Ramdas Pophale) SiO2 
 PCOD8240614
Probable space group: P M M N
;
_chemical_formula_sum "Si O2"
_cell_formula_units_Z 56
_cell_length_a 9.469114
_cell_length_b 15.099245
_cell_length_c 21.785958
_cell_angle_alpha 90.000000
_cell_angle_beta 90.000000
_cell_angle_gamma 90.000000
_cell_volume 3114.879419
_symmetry_space_group_name_H-M "P M M N"
_symmetry_group_IT_number 59
_space_group.IT_coordinate_system_code '2'
_symmetry_cell_setting 'orthorhombic'
loop_
_space_group_symop_operation_xyz
x,y,z
1/2-x,1/2-y,z
1/2+x,-y,-z
-x,1/2+y,-z
-x,-y,-z
1/2+x,1/2+y,-z
1/2-x,y,z
x,1/2-y,z
loop_
_atom_site_type_symbol
_atom_site_label
_atom_site_fract_x
_atom_site_fract_y
_atom_site_fract_z
Si Si1 0.084714 0.851645 0.881575
Si Si2 0.917401 0.495036 0.213914
Si Si3 0.406386 0.355123 0.004437
Si Si4 0.081475 0.151549 0.869370
Si Si5 0.087853 0.853124 0.422410
Si Si6 0.918501 0.503986 0.352502
Si Si7 0.082502 0.847638 0.561003
O O1 0.250000 0.863227 0.893011
O O2 0.043873 0.750000 0.868236
O O3 0.009918 0.889987 0.942476
O O4 0.032788 0.908006 0.823017
O O5 0.750000 0.500108 0.214227
O O6 0.978494 0.583312 0.181136
O O7 0.973070 0.489027 0.283281
O O8 0.250000 0.395024 0.015555
O O9 0.398346 0.250000 0.006481
O O10 0.465739 0.382107 0.937178
O O11 0.250000 0.154652 0.868660
O O12 0.021514 0.250000 0.854863
O O13 0.250000 0.883196 0.413686
O O14 0.071309 0.750000 0.406797
O O15 0.036427 0.872354 0.491919
O O16 0.987015 0.906150 0.376866
O O17 0.750000 0.513066 0.356485
O O18 0.975952 0.420915 0.392062
O O19 0.250000 0.843948 0.564010
O O20 0.022856 0.750000 0.578851
#
# Coordination Sequence:
#
# PCOD8240614 Si02
#       7
#     8   8   8   8   8   8   8
#     4   9  17  29  44  63  90 119 143 175 222 269
#     4   9  18  29  41  64  94 120 147 177 217 268
#     4   8  14  26  45  65  81 105 147 190 222 256
#     4   8  14  26  43  61  84 114 145 180 223 267
#     4   9  18  33  51  69  93 126 156 184 230 286
#     4  10  19  30  48  73  96 120 156 199 230 259
#     4   8  15  29  49  72  96 123 155 189 229 277
#
# _framework density 17.978224000000001
#
# number of rings (size 3 to 8) (size 9 to 14) (size 15 to 20)
#    0.000    3.286    0.000    2.143    0.000    2.000 
#    0.000    5.000    0.000    2.143    0.000    2.000 
#    0.000    0.000    0.000    0.000    0.000    0.000 
#
# Total GULP energy -694103.813326 kJ/mol
# GULP energy per Si atom -12394.710952 kJ/mol
# Density = 1.793731 g / cm^3
# Si number density = 17.978224 Si / 1000 Ang^3
#
#
#
# Elastic Constant Matrix: (Units=GPa)
#
#
# Indices 1 2 3 4 5 6 
#
# 1 25.9288 22.9185 28.5520 0.0000 0.0000 0.0000
# 2 22.9185 92.4213 65.0112 0.0000 0.0000 0.0000
# 3 28.5520 65.0112 139.5973 0.0000 0.0000 0.0000
# 4 0.0000 0.0000 0.0000 27.7554 0.0000 0.0000
# 5 0.0000 0.0000 0.0000 0.0000 15.2766 0.0000
# 6 0.0000 0.0000 0.0000 0.0000 0.0000 17.2227
#
#
#
# Elastic Compliance Matrix: (Units=1/GPa)
#
#
# Indices 1 2 3 4 5 6 
#
# 1 0.053765 -0.008324 -0.007120 0.000000 0.000000 0.000000
# 2 -0.008324 0.017380 -0.006391 0.000000 0.000000 0.000000
# 3 -0.007120 -0.006391 0.011596 0.000000 0.000000 0.000000
# 4 0.000000 0.000000 0.000000 0.036029 0.000000 0.000000
# 5 0.000000 0.000000 0.000000 0.000000 0.065459 0.000000
# 6 0.000000 0.000000 0.000000 0.000000 0.000000 0.058063
#
#
# Mechanical properties :
#
#
# Convention : Reuss Voigt Hill
#
# Bulk Modulus (GPa) = 25.59496 54.54565 40.07031
# Shear Modulus (GPa) = 16.72308 21.48198 19.10253
#
# Velocity S-wave (km/s) = 3.05320 3.46047 3.26319
# Velocity P-wave (km/s) = 5.16691 6.80971 6.04438
#
# Compressibility (1/GPa) = 0.03907019
#
# Stress axis : x y z
#
# Youngs Moduli (GPa) = 18.59938 57.53689 86.23463
#
# Poissons Ratio (x) = 0.47895 0.61399
# Poissons Ratio (y) = 0.15483 0.55117
# Poissons Ratio (z) = 0.13243 0.36774
#
# Static dielectric constant tensor:
#      x y z
#    x 2.917280 0.000000 0.000000 
#    y 0.000000 3.480200 0.000000 
#    z 0.000000 0.000000 3.588610 
# 
# 
# High freq. dielectric constant tensor:
#      x y z
#    x 1.641790 0.000000 0.000000 
#    y 0.000000 1.699230 0.000000 
#    z 0.000000 0.000000 1.698420 
# 
# From -- ./inp_files/29182.got.cif
#   From: 2010.03.12/outbox.cif.g09.slc.cpg/sg59_15_cif.got.tgz:29182.got - 2010.04.16 16:29:54.
