data_PCOD8240459
_publ_section_title
;
Structure prediction by ZEFSAII (Michael W. Deem and Ramdas Pophale) SiO2 
 PCOD8240459
Probable space group: P M M N
;
_chemical_formula_sum "Si O2"
_cell_formula_units_Z 56
_cell_length_a 9.129123
_cell_length_b 17.273741
_cell_length_c 20.750836
_cell_angle_alpha 90.000000
_cell_angle_beta 90.000000
_cell_angle_gamma 90.000000
_cell_volume 3272.284537
_symmetry_space_group_name_H-M "P M M N"
_symmetry_group_IT_number 59
_space_group.IT_coordinate_system_code '2'
_symmetry_cell_setting 'orthorhombic'
loop_
_space_group_symop_operation_xyz
x,y,z
1/2-x,1/2-y,z
1/2+x,-y,-z
-x,1/2+y,-z
-x,-y,-z
1/2+x,1/2+y,-z
1/2-x,y,z
x,1/2-y,z
loop_
_atom_site_type_symbol
_atom_site_label
_atom_site_fract_x
_atom_site_fract_y
_atom_site_fract_z
Si Si1 0.588797 0.053876 0.412539
Si Si2 0.916216 0.337307 0.639703
Si Si3 0.578153 0.837773 0.077367
Si Si4 0.922478 0.474091 0.844870
Si Si5 0.412260 0.388061 0.521827
Si Si6 0.423873 0.468529 0.712147
Si Si7 0.083466 0.064595 0.036786
O O1 0.750000 0.092259 0.411113
O O2 0.478051 0.111440 0.449205
O O3 0.597617 0.974077 0.451063
O O4 0.535614 0.035322 0.339802
O O5 0.750000 0.369439 0.636368
O O6 0.918069 0.250000 0.665753
O O7 0.984150 0.338046 0.568071
O O8 0.010902 0.386665 0.689690
O O9 0.750000 0.847710 0.093603
O O10 0.526451 0.750000 0.091022
O O11 0.486801 0.896495 0.121960
O O12 0.549619 0.854355 0.000090
O O13 0.750000 0.460685 0.832868
O O14 0.953072 0.552699 0.887339
O O15 0.004480 0.492698 0.778990
O O16 0.250000 0.351018 0.518859
O O17 0.250000 0.458840 0.718748
O O18 0.250000 0.042555 0.026762
O O19 0.000000 0.000000 0.000000
#
# Coordination Sequence:
#
# PCOD8240459 Si02
#       7
#     8   8   8   8   8   8   8
#     4   8  15  27  42  61  83 106 137 178 218 254
#     4  10  20  32  45  62  87 119 151 182 218 261
#     4   9  17  30  48  68  90 117 150 186 222 264
#     4  10  19  30  45  65  92 122 150 184 224 270
#     4   9  16  26  43  64  84 109 140 177 218 256
#     4  10  20  32  46  64  87 117 151 184 218 260
#     4   8  15  28  45  65  87 113 146 183 223 263
#
# _framework density 17.113426
#
# number of rings (size 3 to 8) (size 9 to 14) (size 15 to 20)
#    0.000    2.857    0.000    2.571    0.000    6.571 
#    0.000    0.000    0.000    0.000    0.000    1.000 
#    0.000    3.429    0.000    0.000    0.000    0.000 
#
# Total GULP energy -693733.307210 kJ/mol
# GULP energy per Si atom -12388.094772 kJ/mol
# Density = 1.707448 g / cm^3
# Si number density = 17.113426 Si / 1000 Ang^3
#
#
#
# Elastic Constant Matrix: (Units=GPa)
#
#
# Indices 1 2 3 4 5 6 
#
# 1 87.8509 7.0144 49.0433 0.0000 0.0000 0.0000
# 2 7.0144 9.1546 14.8607 0.0000 0.0000 0.0000
# 3 49.0433 14.8607 125.7005 0.0000 0.0000 0.0000
# 4 0.0000 0.0000 0.0000 15.3356 0.0000 0.0000
# 5 0.0000 0.0000 0.0000 0.0000 29.8067 0.0000
# 6 0.0000 0.0000 0.0000 0.0000 0.0000 16.5097
#
#
#
# Elastic Compliance Matrix: (Units=1/GPa)
#
#
# Indices 1 2 3 4 5 6 
#
# 1 0.014595 -0.002400 -0.005411 0.000000 0.000000 0.000000
# 2 -0.002400 0.135572 -0.015091 0.000000 0.000000 0.000000
# 3 -0.005411 -0.015091 0.011851 0.000000 0.000000 0.000000
# 4 0.000000 0.000000 0.000000 0.065208 0.000000 0.000000
# 5 0.000000 0.000000 0.000000 0.000000 0.033550 0.000000
# 6 0.000000 0.000000 0.000000 0.000000 0.000000 0.060571
#
#
# Mechanical properties :
#
#
# Convention : Reuss Voigt Hill
#
# Bulk Modulus (GPa) = 8.60482 40.50475 24.55479
# Shear Modulus (GPa) = 12.31867 22.44954 17.38411
#
# Velocity S-wave (km/s) = 2.68587 3.62582 3.19065
# Velocity P-wave (km/s) = 3.82852 6.42250 5.28706
#
# Compressibility (1/GPa) = 0.11621391
#
# Stress axis : x y z
#
# Youngs Moduli (GPa) = 68.51612 7.37615 84.38369
#
# Poissons Ratio (x) = 0.01770 0.45658
# Poissons Ratio (y) = 0.16442 1.27348
# Poissons Ratio (z) = 0.37072 0.11132
#
# Static dielectric constant tensor:
#      x y z
#    x 3.409690 0.000000 0.000000 
#    y 0.000000 0.924060 0.000000 
#    z 0.000000 0.000000 3.657800 
# 
# 
# High freq. dielectric constant tensor:
#      x y z
#    x 1.675290 0.000000 0.000000 
#    y 0.000000 1.611400 0.000000 
#    z 0.000000 0.000000 1.657000 
# 
# From -- ./inp_files/29281.got.cif
#   From: 2010.03.12/outbox.cif.g09.slc.cpg/sg59_15_cif.got.tgz:29281.got - 2010.04.16 16:29:54.
