data_PCOD8240678
_publ_section_title
;
Structure prediction by ZEFSAII (Michael W. Deem and Ramdas Pophale) SiO2 
 PCOD8240678
Probable space group: P M M N
;
_chemical_formula_sum "Si O2"
_cell_formula_units_Z 56
_cell_length_a 15.045747
_cell_length_b 9.125776
_cell_length_c 21.486339
_cell_angle_alpha 90.000000
_cell_angle_beta 90.000000
_cell_angle_gamma 90.000000
_cell_volume 2950.162801
_symmetry_space_group_name_H-M "P M M N"
_symmetry_group_IT_number 59
_space_group.IT_coordinate_system_code '2'
_symmetry_cell_setting 'orthorhombic'
loop_
_space_group_symop_operation_xyz
x,y,z
1/2-x,1/2-y,z
1/2+x,-y,-z
-x,1/2+y,-z
-x,-y,-z
1/2+x,1/2+y,-z
1/2-x,y,z
x,1/2-y,z
loop_
_atom_site_type_symbol
_atom_site_label
_atom_site_fract_x
_atom_site_fract_y
_atom_site_fract_z
Si Si1 0.654557 0.576924 0.700038
Si Si2 0.500272 0.421696 0.908735
Si Si3 0.152483 0.913716 0.682269
Si Si4 0.083403 0.419329 0.430845
Si Si5 0.508871 0.075085 0.221031
Si Si6 0.400533 0.418400 0.566976
Si Si7 0.645065 0.578986 0.987969
O O1 0.750000 0.514505 0.721589
O O2 0.652108 0.750000 0.705358
O O3 0.642575 0.533271 0.627781
O O4 0.580908 0.515041 0.746800
O O5 0.517179 0.250000 0.901272
O O6 0.477719 0.495316 0.843686
O O7 0.411678 0.452499 0.949588
O O8 0.592451 0.490539 0.934545
O O9 0.250000 0.914474 0.712529
O O10 0.119636 0.750000 0.666545
O O11 0.086556 0.981079 0.733208
O O12 0.158779 0.999481 0.617403
O O13 0.052249 0.250000 0.425216
O O14 0.135993 0.442074 0.496266
O O15 0.000041 0.524816 0.429162
O O16 0.510721 0.250000 0.210990
O O17 0.398938 0.250000 0.585583
O O18 0.750000 0.530066 0.994288
O O19 0.641652 0.750000 0.970553
#
# Coordination Sequence:
#
# PCOD8240678 Si02
#       7
#     8   8   8   8   8   8   8
#     4   9  17  31  53  76  97 131 180 226 266 316
#     4  10  21  36  57  87 118 146 179 224 274 311
#     4  10  21  37  55  74 102 143 187 228 272 325
#     4   9  17  32  52  74 101 135 175 222 276 335
#     4  10  20  36  55  76 107 146 187 222 260 320
#     4  10  19  30  51  78 103 132 172 226 286 335
#     4   9  19  38  62  86 114 149 185 217 257 317
#
# _framework density 18.982002999999999
#
# number of rings (size 3 to 8) (size 9 to 14) (size 15 to 20)
#    0.000    2.429    1.429    0.857    0.000    4.000 
#    0.000    2.857    0.000    1.286    0.000    0.000 
#    0.000    0.000    0.000    0.000    0.000    0.000 
#
# Total GULP energy -693975.079520 kJ/mol
# GULP energy per Si atom -12392.412134 kJ/mol
# Density = 1.893880 g / cm^3
# Si number density = 18.982003 Si / 1000 Ang^3
#
#
#
# Elastic Constant Matrix: (Units=GPa)
#
#
# Indices 1 2 3 4 5 6 
#
# 1 119.8706 26.2071 43.8980 0.0000 0.0000 0.0000
# 2 26.2071 56.2515 40.5327 0.0000 0.0000 0.0000
# 3 43.8980 40.5327 115.7494 0.0000 0.0000 0.0000
# 4 0.0000 0.0000 0.0000 33.2017 0.0000 0.0000
# 5 0.0000 0.0000 0.0000 0.0000 5.2247 0.0000
# 6 0.0000 0.0000 0.0000 0.0000 0.0000 16.6427
#
#
#
# Elastic Compliance Matrix: (Units=1/GPa)
#
#
# Indices 1 2 3 4 5 6 
#
# 1 0.009957 -0.002565 -0.002878 0.000000 0.000000 0.000000
# 2 -0.002565 0.024438 -0.007585 0.000000 0.000000 0.000000
# 3 -0.002878 -0.007585 0.012387 0.000000 0.000000 0.000000
# 4 0.000000 0.000000 0.000000 0.030119 0.000000 0.000000
# 5 0.000000 0.000000 0.000000 0.000000 0.191397 0.000000
# 6 0.000000 0.000000 0.000000 0.000000 0.000000 0.060086
#
#
# Mechanical properties :
#
#
# Convention : Reuss Voigt Hill
#
# Bulk Modulus (GPa) = 48.24874 57.01635 52.63255
# Shear Modulus (GPa) = 13.83707 23.09608 18.46657
#
# Velocity S-wave (km/s) = 2.70285 3.49196 3.12243
# Velocity P-wave (km/s) = 5.93413 6.80886 6.38649
#
# Compressibility (1/GPa) = 0.02072593
#
# Stress axis : x y z
#
# Youngs Moduli (GPa) = 100.43091 40.92062 80.73132
#
# Poissons Ratio (x) = 0.10497 0.23234
# Poissons Ratio (y) = 0.25762 0.61231
# Poissons Ratio (z) = 0.28904 0.31037
#
# Static dielectric constant tensor:
#      x y z
#    x 3.614810 0.000000 0.000000 
#    y 0.000000 3.313300 0.000000 
#    z 0.000000 0.000000 3.575210 
# 
# 
# High freq. dielectric constant tensor:
#      x y z
#    x 1.738160 0.000000 0.000000 
#    y 0.000000 1.716130 0.000000 
#    z 0.000000 0.000000 1.739200 
# 
# From -- ./inp_files/30299.got.cif
#   From: 2010.03.12/outbox.cif.g09.slc.cpg/sg59_16_cif.got.tgz:30299.got - 2010.04.16 16:29:54.
