data_PCOD8240566
_publ_section_title
;
Structure prediction by ZEFSAII (Michael W. Deem and Ramdas Pophale) SiO2 
 PCOD8240566
Probable space group: P M M N
;
_chemical_formula_sum "Si O2"
_cell_formula_units_Z 64
_cell_length_a 17.405291
_cell_length_b 9.318685
_cell_length_c 22.615499
_cell_angle_alpha 90.000000
_cell_angle_beta 90.000000
_cell_angle_gamma 90.000000
_cell_volume 3668.107837
_symmetry_space_group_name_H-M "P M M N"
_symmetry_group_IT_number 59
_space_group.IT_coordinate_system_code '2'
_symmetry_cell_setting 'orthorhombic'
loop_
_space_group_symop_operation_xyz
x,y,z
1/2-x,1/2-y,z
1/2+x,-y,-z
-x,1/2+y,-z
-x,-y,-z
1/2+x,1/2+y,-z
1/2-x,y,z
x,1/2-y,z
loop_
_atom_site_type_symbol
_atom_site_label
_atom_site_fract_x
_atom_site_fract_y
_atom_site_fract_z
Si Si1 0.603369 0.583250 0.068822
Si Si2 0.982306 0.081770 0.242453
Si Si3 0.661826 0.083680 0.960045
Si Si4 0.475647 0.087429 0.639351
Si Si5 0.334538 0.587067 0.827856
Si Si6 0.048840 0.586764 0.139419
Si Si7 0.337400 0.416250 0.553809
Si Si8 0.431289 0.914247 0.471392
O O1 0.622544 0.750000 0.062772
O O2 0.662687 0.513539 0.114899
O O3 0.517676 0.554123 0.091857
O O4 0.612916 0.510293 0.005445
O O5 0.997187 0.250000 0.245972
O O6 0.896383 0.041399 0.221209
O O7 0.992793 0.016937 0.306846
O O8 0.043344 0.015570 0.196363
O O9 0.750000 0.034312 0.960180
O O10 0.652956 0.250000 0.977883
O O11 0.628935 0.057919 0.894065
O O12 0.464006 0.250000 0.662121
O O13 0.397781 0.038168 0.604982
O O14 0.552563 0.078591 0.598810
O O15 0.250000 0.571733 0.799184
O O16 0.350439 0.750000 0.848755
O O17 0.042626 0.750000 0.162187
O O18 0.250000 0.445837 0.574987
O O19 0.350043 0.250000 0.537778
O O20 0.353280 0.508399 0.493856
O O21 0.430532 0.750000 0.493245
O O22 0.500000 0.000000 0.500000
#
# Coordination Sequence:
#
# PCOD8240566 Si02
#       8
#     8   8   8   8   8   8   8   8
#     4  10  19  30  47  71  95 120 152 189 231 282
#     4  10  20  32  49  71  92 121 163 203 236 273
#     4  10  20  33  50  71  93 119 151 189 238 292
#     4   9  18  32  49  70  98 131 164 197 235 281
#     4   9  18  32  46  62  91 127 157 189 231 278
#     4   9  19  35  51  67  92 125 158 193 235 285
#     4   9  18  32  50  75 107 137 162 194 240 289
#     4   9  17  30  49  72  98 130 166 201 237 279
#
# _framework density 17.447687999999999
#
# number of rings (size 3 to 8) (size 9 to 14) (size 15 to 20)
#    0.000    2.625    0.000    2.625    0.000    6.750 
#    0.000    0.000    0.000    0.750    0.000    1.750 
#    0.000    0.000    0.000    0.000    0.000    0.000 
#
# Total GULP energy -793430.066893 kJ/mol
# GULP energy per Si atom -12397.344795 kJ/mol
# Density = 1.740798 g / cm^3
# Si number density = 17.447688 Si / 1000 Ang^3
#
#
#
# Elastic Constant Matrix: (Units=GPa)
#
#
# Indices 1 2 3 4 5 6 
#
# 1 44.6627 27.6236 32.9199 0.0000 0.0000 0.0000
# 2 27.6236 94.3321 61.1532 0.0000 0.0000 0.0000
# 3 32.9199 61.1532 103.1003 0.0000 0.0000 0.0000
# 4 0.0000 0.0000 0.0000 33.6375 0.0000 0.0000
# 5 0.0000 0.0000 0.0000 0.0000 16.1367 0.0000
# 6 0.0000 0.0000 0.0000 0.0000 0.0000 21.2003
#
#
#
# Elastic Compliance Matrix: (Units=1/GPa)
#
#
# Indices 1 2 3 4 5 6 
#
# 1 0.030283 -0.004223 -0.007164 0.000000 0.000000 0.000000
# 2 -0.004223 0.017813 -0.009217 0.000000 0.000000 0.000000
# 3 -0.007164 -0.009217 0.017454 0.000000 0.000000 0.000000
# 4 0.000000 0.000000 0.000000 0.029729 0.000000 0.000000
# 5 0.000000 0.000000 0.000000 0.000000 0.061970 0.000000
# 6 0.000000 0.000000 0.000000 0.000000 0.000000 0.047169
#
#
# Mechanical properties :
#
#
# Convention : Reuss Voigt Hill
#
# Bulk Modulus (GPa) = 41.08436 53.94317 47.51376
# Shear Modulus (GPa) = 19.70519 22.22146 20.96332
#
# Velocity S-wave (km/s) = 3.36428 3.57263 3.47002
# Velocity P-wave (km/s) = 6.22009 6.92838 6.58377
#
# Compressibility (1/GPa) = 0.02434016
#
# Stress axis : x y z
#
# Youngs Moduli (GPa) = 33.02200 56.13958 57.29414
#
# Poissons Ratio (x) = 0.23710 0.41047
# Poissons Ratio (y) = 0.13947 0.52808
# Poissons Ratio (z) = 0.23658 0.51744
#
# Static dielectric constant tensor:
#      x y z
#    x 3.389090 0.000000 0.000000 
#    y 0.000000 3.394700 0.000000 
#    z 0.000000 0.000000 3.149350 
# 
# 
# High freq. dielectric constant tensor:
#      x y z
#    x 1.657110 0.000000 0.000000 
#    y 0.000000 1.681860 0.000000 
#    z 0.000000 0.000000 1.655760 
# 
# From -- ./inp_files/32317.got.cif
#   From: 2010.03.12/outbox.cif.g09.slc.cpg/sg59_17_cif.got.tgz:32317.got - 2010.04.16 16:29:54.
