data_PCOD8240810
_publ_section_title
;
Structure prediction by ZEFSAII (Michael W. Deem and Ramdas Pophale) SiO2 
 PCOD8240810
Probable space group: P M M N
;
_chemical_formula_sum "Si O2"
_cell_formula_units_Z 64
_cell_length_a 8.858838
_cell_length_b 23.397507
_cell_length_c 18.928412
_cell_angle_alpha 90.000000
_cell_angle_beta 90.000000
_cell_angle_gamma 90.000000
_cell_volume 3923.381375
_symmetry_space_group_name_H-M "P M M N"
_symmetry_group_IT_number 59
_space_group.IT_coordinate_system_code '2'
_symmetry_cell_setting 'orthorhombic'
loop_
_space_group_symop_operation_xyz
x,y,z
1/2-x,1/2-y,z
1/2+x,-y,-z
-x,1/2+y,-z
-x,-y,-z
1/2+x,1/2+y,-z
1/2-x,y,z
x,1/2-y,z
loop_
_atom_site_type_symbol
_atom_site_label
_atom_site_fract_x
_atom_site_fract_y
_atom_site_fract_z
Si Si1 0.424770 0.019979 0.110547
Si Si2 0.427812 0.004918 0.751170
Si Si3 0.422946 0.314496 0.882706
Si Si4 0.429167 0.686388 0.390347
Si Si5 0.574273 0.414611 0.513094
Si Si6 0.074841 0.022694 0.391645
Si Si7 0.071823 0.628818 0.247308
Si Si8 0.576892 0.920686 0.029028
O O1 0.250000 0.017617 0.131367
O O2 0.520236 0.032232 0.181169
O O3 0.469169 0.959128 0.077149
O O4 0.459769 0.070159 0.053872
O O5 0.250000 0.008904 0.748589
O O6 0.494191 0.067900 0.759470
O O7 0.485576 0.973251 0.681336
O O8 0.250000 0.320409 0.856960
O O9 0.460745 0.250000 0.906179
O O10 0.531560 0.331776 0.818887
O O11 0.451979 0.354715 0.950789
O O12 0.250000 0.688657 0.386339
O O13 0.496196 0.750000 0.401818
O O14 0.478805 0.646282 0.455675
O O15 0.490340 0.660430 0.317140
O O16 0.750000 0.415430 0.493142
O O17 0.479333 0.426280 0.442601
O O18 0.539234 0.461905 0.572534
O O19 0.250000 0.030319 0.375537
O O20 0.250000 0.618934 0.251492
O O21 0.750000 0.939015 0.044244
#
# Coordination Sequence:
#
# PCOD8240810 Si02
#       8
#     8   8   8   8   8   8   8   8
#     4  10  19  31  49  70  94 125 161 200 242 289
#     4  12  22  32  48  71  98 129 161 199 250 295
#     4  10  20  33  48  69  99 133 165 198 237 283
#     4   9  17  30  48  69  96 129 164 199 233 275
#     4   9  17  31  48  70  96 124 159 197 239 284
#     4  10  19  32  49  70  95 125 160 199 242 289
#     4  11  20  32  47  69  98 132 172 204 233 276
#     4   9  18  32  48  69  96 127 160 197 239 285
#
# _framework density 16.312459
#
# number of rings (size 3 to 8) (size 9 to 14) (size 15 to 20)
#    0.000    2.000    2.500    2.625    0.000    1.750 
#    0.000    0.000    0.000    1.875    0.000    0.875 
#    0.000    3.000    0.000    0.000    0.000    0.000 
#
# Total GULP energy -793655.402284 kJ/mol
# GULP energy per Si atom -12400.865661 kJ/mol
# Density = 1.627533 g / cm^3
# Si number density = 16.312459 Si / 1000 Ang^3
#
#
#
# Elastic Constant Matrix: (Units=GPa)
#
#
# Indices 1 2 3 4 5 6 
#
# 1 74.3612 27.0463 49.0058 0.0000 0.0000 0.0000
# 2 27.0463 88.2897 59.9373 0.0000 0.0000 0.0000
# 3 49.0058 59.9373 118.8988 0.0000 0.0000 0.0000
# 4 0.0000 0.0000 0.0000 22.4226 0.0000 0.0000
# 5 0.0000 0.0000 0.0000 0.0000 26.1039 0.0000
# 6 0.0000 0.0000 0.0000 0.0000 0.0000 14.6577
#
#
#
# Elastic Compliance Matrix: (Units=1/GPa)
#
#
# Indices 1 2 3 4 5 6 
#
# 1 0.018495 -0.000746 -0.007247 0.000000 0.000000 0.000000
# 2 -0.000746 0.017249 -0.008388 0.000000 0.000000 0.000000
# 3 -0.007247 -0.008388 0.015626 0.000000 0.000000 0.000000
# 4 0.000000 0.000000 0.000000 0.044598 0.000000 0.000000
# 5 0.000000 0.000000 0.000000 0.000000 0.038308 0.000000
# 6 0.000000 0.000000 0.000000 0.000000 0.000000 0.068223
#
#
# Mechanical properties :
#
#
# Convention : Reuss Voigt Hill
#
# Bulk Modulus (GPa) = 53.73909 61.50316 57.62112
# Shear Modulus (GPa) = 20.70699 22.34087 21.52393
#
# Velocity S-wave (km/s) = 3.56673 3.70477 3.63640
# Velocity P-wave (km/s) = 7.06945 7.48902 7.28226
#
# Compressibility (1/GPa) = 0.01860843
#
# Stress axis : x y z
#
# Youngs Moduli (GPa) = 54.06829 57.97380 63.99658
#
# Poissons Ratio (x) = 0.04325 0.46378
# Poissons Ratio (y) = 0.04033 0.53680
# Poissons Ratio (z) = 0.39183 0.48628
#
# Static dielectric constant tensor:
#      x y z
#    x 3.057990 0.000000 0.000000 
#    y 0.000000 3.056300 0.000000 
#    z 0.000000 0.000000 3.214700 
# 
# 
# High freq. dielectric constant tensor:
#      x y z
#    x 1.626660 0.000000 0.000000 
#    y 0.000000 1.599630 0.000000 
#    z 0.000000 0.000000 1.625070 
# 
# From -- ./inp_files/26482.got.cif
#   From: 2010.03.12/outbox.cif.g09.slc.cpg/sg59_14_cif.got.tgz:26482.got - 2010.04.16 16:29:54.
