data_PCOD8240144
_publ_section_title
;
Structure prediction by ZEFSAII (Michael W. Deem and Ramdas Pophale) SiO2 
 PCOD8240144
Probable space group: P M M N
;
_chemical_formula_sum "Si O2"
_cell_formula_units_Z 64
_cell_length_a 8.896426
_cell_length_b 18.854480
_cell_length_c 20.090057
_cell_angle_alpha 90.000000
_cell_angle_beta 90.000000
_cell_angle_gamma 90.000000
_cell_volume 3369.855657
_symmetry_space_group_name_H-M "P M M N"
_symmetry_group_IT_number 59
_space_group.IT_coordinate_system_code '2'
_symmetry_cell_setting 'orthorhombic'
loop_
_space_group_symop_operation_xyz
x,y,z
1/2-x,1/2-y,z
1/2+x,-y,-z
-x,1/2+y,-z
-x,-y,-z
1/2+x,1/2+y,-z
1/2-x,y,z
x,1/2-y,z
loop_
_atom_site_type_symbol
_atom_site_label
_atom_site_fract_x
_atom_site_fract_y
_atom_site_fract_z
Si Si1 0.428942 0.671466 0.221178
Si Si2 0.073060 0.829440 0.973288
Si Si3 0.927518 0.424347 0.511142
Si Si4 0.927827 0.080320 0.659180
Si Si5 0.075479 0.168113 0.399678
Si Si6 0.571264 0.420686 0.902944
Si Si7 0.426541 0.936078 0.860967
Si Si8 0.926222 0.566752 0.718502
O O1 0.250000 0.674695 0.221582
O O2 0.496687 0.750000 0.212568
O O3 0.491525 0.639197 0.290233
O O4 0.484710 0.622424 0.161355
O O5 0.250000 0.823241 0.983540
O O6 0.002426 0.750000 0.975312
O O7 0.033747 0.865636 0.902967
O O8 0.009316 0.878276 0.032960
O O9 0.750000 0.432899 0.505993
O O10 0.978479 0.399191 0.584794
O O11 0.000000 0.500000 0.500000
O O12 0.981287 0.366526 0.458730
O O13 0.750000 0.077769 0.663631
O O14 0.987984 0.002939 0.680710
O O15 0.250000 0.156640 0.416402
O O16 0.030761 0.250000 0.394808
O O17 0.036158 0.133237 0.328737
O O18 0.750000 0.429477 0.904481
O O19 0.499154 0.498056 0.899742
O O20 0.250000 0.949317 0.857037
O O21 0.489490 0.923632 0.787665
O O22 0.750000 0.560462 0.734130
#
# Coordination Sequence:
#
# PCOD8240144 Si02
#       8
#     8   8   8   8   8   8   8   8
#     4   9  16  27  49  80 104 127 170 223 266 307
#     4   9  19  35  54  79 111 144 183 230 277 325
#     4  11  21  35  58  85 114 150 189 231 283 342
#     4   9  17  31  52  79 107 136 174 225 275 321
#     4  10  22  40  60  83 114 151 192 242 295 342
#     4  10  18  33  58  81 103 142 186 223 265 328
#     4  11  22  34  53  83 114 144 179 229 286 332
#     4  10  19  37  59  79 106 144 190 232 275 334
#
# _framework density 18.991911999999999
#
# number of rings (size 3 to 8) (size 9 to 14) (size 15 to 20)
#    0.000    2.125    2.500    1.500    0.000    3.250 
#    0.000    1.875    0.000    4.125    0.000    0.000 
#    0.000    0.000    0.000    0.000    0.000    0.000 
#
# Total GULP energy -793564.778810 kJ/mol
# GULP energy per Si atom -12399.449669 kJ/mol
# Density = 1.894869 g / cm^3
# Si number density = 18.991912 Si / 1000 Ang^3
#
#
#
# Elastic Constant Matrix: (Units=GPa)
#
#
# Indices 1 2 3 4 5 6 
#
# 1 42.3643 33.0194 41.0655 0.0000 0.0000 0.0000
# 2 33.0194 135.0101 66.4171 0.0000 0.0000 0.0000
# 3 41.0655 66.4171 152.0222 0.0000 0.0000 0.0000
# 4 0.0000 0.0000 0.0000 33.6305 0.0000 0.0000
# 5 0.0000 0.0000 0.0000 0.0000 26.1918 0.0000
# 6 0.0000 0.0000 0.0000 0.0000 0.0000 20.4561
#
#
#
# Elastic Compliance Matrix: (Units=1/GPa)
#
#
# Indices 1 2 3 4 5 6 
#
# 1 0.034333 -0.004884 -0.007141 0.000000 0.000000 0.000000
# 2 -0.004884 0.010129 -0.003106 0.000000 0.000000 0.000000
# 3 -0.007141 -0.003106 0.009864 0.000000 0.000000 0.000000
# 4 0.000000 0.000000 0.000000 0.029735 0.000000 0.000000
# 5 0.000000 0.000000 0.000000 0.000000 0.038180 0.000000
# 6 0.000000 0.000000 0.000000 0.000000 0.000000 0.048885
#
#
# Mechanical properties :
#
#
# Convention : Reuss Voigt Hill
#
# Bulk Modulus (GPa) = 41.55431 67.82231 54.68831
# Shear Modulus (GPa) = 23.87667 28.64866 26.26266
#
# Velocity S-wave (km/s) = 3.54955 3.88811 3.72268
# Velocity P-wave (km/s) = 6.22307 7.47965 6.88011
#
# Compressibility (1/GPa) = 0.02406489
#
# Stress axis : x y z
#
# Youngs Moduli (GPa) = 29.12638 98.72268 101.38008
#
# Poissons Ratio (x) = 0.48217 0.72391
# Poissons Ratio (y) = 0.14226 0.31490
# Poissons Ratio (z) = 0.20798 0.30664
#
# Static dielectric constant tensor:
#      x y z
#    x 3.095050 0.000000 0.000000 
#    y 0.000000 3.719750 0.000000 
#    z 0.000000 0.000000 3.840530 
# 
# 
# High freq. dielectric constant tensor:
#      x y z
#    x 1.695500 0.000000 0.000000 
#    y 0.000000 1.745190 0.000000 
#    z 0.000000 0.000000 1.755340 
# 
# From -- ./inp_files/28293.got.cif
#   From: 2010.03.12/outbox.cif.g09.slc.cpg/sg59_15_cif.got.tgz:28293.got - 2010.04.16 16:29:54.
