data_PCOD8240071
_publ_section_title
;
Structure prediction by ZEFSAII (Michael W. Deem and Ramdas Pophale) SiO2 
 PCOD8240071
Probable space group: P M M N
;
_chemical_formula_sum "Si O2"
_cell_formula_units_Z 56
_cell_length_a 15.525297
_cell_length_b 9.155922
_cell_length_c 21.053068
_cell_angle_alpha 90.000000
_cell_angle_beta 90.000000
_cell_angle_gamma 90.000000
_cell_volume 2992.660107
_symmetry_space_group_name_H-M "P M M N"
_symmetry_group_IT_number 59
_space_group.IT_coordinate_system_code '2'
_symmetry_cell_setting 'orthorhombic'
loop_
_space_group_symop_operation_xyz
x,y,z
1/2-x,1/2-y,z
1/2+x,-y,-z
-x,1/2+y,-z
-x,-y,-z
1/2+x,1/2+y,-z
1/2-x,y,z
x,1/2-y,z
loop_
_atom_site_type_symbol
_atom_site_label
_atom_site_fract_x
_atom_site_fract_y
_atom_site_fract_z
Si Si1 0.576275 0.584440 0.469474
Si Si2 0.845520 0.581157 0.594680
Si Si3 0.411243 0.081333 0.007061
Si Si4 0.155478 0.423340 0.140606
Si Si5 0.152524 0.082589 0.870169
Si Si6 0.986645 0.076393 0.212364
Si Si7 0.004399 0.078352 0.657033
O O1 0.500000 0.500000 0.500000
O O2 0.546463 0.750000 0.470861
O O3 0.656654 0.557882 0.517045
O O4 0.581461 0.542450 0.394465
O O5 0.750000 0.542804 0.619454
O O6 0.868487 0.750000 0.610197
O O7 0.912600 0.477819 0.630621
O O8 0.433647 0.250000 0.017030
O O9 0.352199 0.055582 0.945622
O O10 0.361808 0.020604 0.069005
O O11 0.500000 0.000000 0.000000
O O12 0.250000 0.482409 0.162379
O O13 0.156370 0.250000 0.141534
O O14 0.079996 0.479336 0.187392
O O15 0.250000 0.048783 0.848181
O O16 0.127788 0.250000 0.853942
O O17 0.087712 0.974262 0.835215
O O18 0.983493 0.250000 0.217728
O O19 0.968425 0.006301 0.280295
O O20 0.996884 0.250000 0.671743
#
# Coordination Sequence:
#
# PCOD8240071 Si02
#       7
#     8   8   8   8   8   8   8
#     4   8  15  29  49  72  97 128 166 207 252 301
#     4   9  17  31  53  80 106 132 169 216 265 321
#     4  10  18  32  56  82 107 135 173 222 277 331
#     4   9  18  33  53  77 105 139 179 220 266 323
#     4  10  21  37  58  81 106 140 181 227 280 334
#     4  11  22  36  55  79 108 146 188 230 273 321
#     4  10  20  34  52  74 105 143 180 218 263 318
#
# _framework density 18.71245
#
# number of rings (size 3 to 8) (size 9 to 14) (size 15 to 20)
#    0.000    2.429    1.429    1.286    0.000    3.429 
#    0.000    2.143    0.000    6.857    0.000    0.000 
#    0.000    0.000    0.000    0.000    0.000    0.000 
#
# Total GULP energy -693815.453895 kJ/mol
# GULP energy per Si atom -12389.561677 kJ/mol
# Density = 1.866986 g / cm^3
# Si number density = 18.712450 Si / 1000 Ang^3
#
#
#
# Elastic Constant Matrix: (Units=GPa)
#
#
# Indices 1 2 3 4 5 6 
#
# 1 69.6135 20.6260 7.1328 0.0000 0.0000 0.0000
# 2 20.6260 55.9806 31.5610 0.0000 0.0000 0.0000
# 3 7.1328 31.5610 88.2153 0.0000 0.0000 0.0000
# 4 0.0000 0.0000 0.0000 27.9805 0.0000 0.0000
# 5 0.0000 0.0000 0.0000 0.0000 17.6669 0.0000
# 6 0.0000 0.0000 0.0000 0.0000 0.0000 24.2527
#
#
#
# Elastic Compliance Matrix: (Units=1/GPa)
#
#
# Indices 1 2 3 4 5 6 
#
# 1 0.016200 -0.006552 0.001034 0.000000 0.000000 0.000000
# 2 -0.006552 0.025027 -0.008424 0.000000 0.000000 0.000000
# 3 0.001034 -0.008424 0.014266 0.000000 0.000000 0.000000
# 4 0.000000 0.000000 0.000000 0.035739 0.000000 0.000000
# 5 0.000000 0.000000 0.000000 0.000000 0.056603 0.000000
# 6 0.000000 0.000000 0.000000 0.000000 0.000000 0.041232
#
#
# Mechanical properties :
#
#
# Convention : Reuss Voigt Hill
#
# Bulk Modulus (GPa) = 36.21946 36.93876 36.57911
# Shear Modulus (GPa) = 22.10872 24.27934 23.19403
#
# Velocity S-wave (km/s) = 3.44102 3.60599 3.52447
# Velocity P-wave (km/s) = 5.93172 6.09267 6.01273
#
# Compressibility (1/GPa) = 0.02760947
#
# Stress axis : x y z
#
# Youngs Moduli (GPa) = 61.72687 39.95709 70.09576
#
# Poissons Ratio (x) = 0.26180 -0.07250
# Poissons Ratio (y) = 0.40444 0.59050
# Poissons Ratio (z) = -0.06384 0.33660
#
# Static dielectric constant tensor:
#      x y z
#    x 4.702180 0.000000 0.000000 
#    y 0.000000 3.306450 0.000000 
#    z 0.000000 0.000000 3.856200 
# 
# 
# High freq. dielectric constant tensor:
#      x y z
#    x 1.713330 0.000000 0.000000 
#    y 0.000000 1.710950 0.000000 
#    z 0.000000 0.000000 1.733320 
# 
# From -- ./inp_files/30586.got.cif
#   From: 2010.03.12/outbox.cif.g09.slc.cpg/sg59_16_cif.got.tgz:30586.got - 2010.04.16 16:29:54.
