data_PCOD8240013
_publ_section_title
;
Structure prediction by ZEFSAII (Michael W. Deem and Ramdas Pophale) SiO2 
 PCOD8240013
Probable space group: P M M N
;
_chemical_formula_sum "Si O2"
_cell_formula_units_Z 64
_cell_length_a 20.207274
_cell_length_b 17.406217
_cell_length_c 9.578306
_cell_angle_alpha 90.000000
_cell_angle_beta 90.000000
_cell_angle_gamma 90.000000
_cell_volume 3368.998605
_symmetry_space_group_name_H-M "P M M N"
_symmetry_group_IT_number 59
_space_group.IT_coordinate_system_code '2'
_symmetry_cell_setting 'orthorhombic'
loop_
_space_group_symop_operation_xyz
x,y,z
1/2-x,1/2-y,z
1/2+x,-y,-z
-x,1/2+y,-z
-x,-y,-z
1/2+x,1/2+y,-z
1/2-x,y,z
x,1/2-y,z
loop_
_atom_site_type_symbol
_atom_site_label
_atom_site_fract_x
_atom_site_fract_y
_atom_site_fract_z
Si Si1 0.446692 0.838109 0.221851
Si Si2 0.410746 0.339859 0.849288
Si Si3 0.534387 0.570374 0.915329
Si Si4 0.069562 0.067090 0.398873
Si Si5 0.325570 0.409313 0.616609
Si Si6 0.434075 0.601189 0.507540
Si Si7 0.824373 0.416068 0.290931
Si Si8 0.904810 0.158935 0.068959
O O1 0.458457 0.750000 0.197714
O O2 0.520867 0.872813 0.218263
O O3 0.412810 0.855761 0.367321
O O4 0.400715 0.865848 0.094337
O O5 0.411041 0.250000 0.887622
O O6 0.352601 0.354451 0.739051
O O7 0.407211 0.389243 0.993218
O O8 0.569991 0.548010 0.767643
O O9 0.477171 0.632166 0.876872
O O10 0.500000 0.500000 0.000000
O O11 0.135911 0.103964 0.468202
O O12 0.007085 0.122674 0.434588
O O13 0.064770 0.989101 0.484912
O O14 0.250000 0.387287 0.585013
O O15 0.331115 0.493864 0.682630
O O16 0.376808 0.628545 0.612045
O O17 0.750000 0.387748 0.321260
O O18 0.845531 0.390966 0.135569
O O19 0.895478 0.250000 0.095798
#
# Coordination Sequence:
#
# PCOD8240013 Si02
#       8
#     8   8   8   8   8   8   8   8
#     4   9  18  32  51  78 108 139 177 223 272 327
#     4  10  20  35  55  82 114 145 186 233 282 339
#     4  11  20  33  58  86 114 147 187 236 287 336
#     4  10  19  32  55  84 109 141 185 234 282 331
#     4  10  21  38  58  80 111 147 187 233 283 345
#     4  10  18  32  53  80 109 138 181 232 277 324
#     4  10  21  36  54  78 108 145 185 227 278 336
#     4  10  20  34  52  78 112 144 181 227 277 332
#
# _framework density 18.996742000000001
#
# number of rings (size 3 to 8) (size 9 to 14) (size 15 to 20)
#    0.000    2.000    2.500    3.375    1.750    1.000 
#    0.000    2.500    0.000    6.000    0.000    0.000 
#    0.000    0.000    0.000    0.000    0.000    0.000 
#
# Total GULP energy -792841.035704 kJ/mol
# GULP energy per Si atom -12388.141183 kJ/mol
# Density = 1.895350 g / cm^3
# Si number density = 18.996742 Si / 1000 Ang^3
#
#
#
# Elastic Constant Matrix: (Units=GPa)
#
#
# Indices 1 2 3 4 5 6 
#
# 1 123.8498 27.3827 77.4750 0.0000 0.0000 0.0000
# 2 27.3827 31.3702 40.0642 0.0000 0.0000 0.0000
# 3 77.4750 40.0642 116.3379 0.0000 0.0000 0.0000
# 4 0.0000 0.0000 0.0000 25.7795 0.0000 0.0000
# 5 0.0000 0.0000 0.0000 0.0000 30.3099 0.0000
# 6 0.0000 0.0000 0.0000 0.0000 0.0000 18.0068
#
#
#
# Elastic Compliance Matrix: (Units=1/GPa)
#
#
# Indices 1 2 3 4 5 6 
#
# 1 0.013845 -0.000553 -0.009030 0.000000 0.000000 0.000000
# 2 -0.000553 0.056928 -0.019236 0.000000 0.000000 0.000000
# 3 -0.009030 -0.019236 0.021233 0.000000 0.000000 0.000000
# 4 0.000000 0.000000 0.000000 0.038791 0.000000 0.000000
# 5 0.000000 0.000000 0.000000 0.000000 0.032993 0.000000
# 6 0.000000 0.000000 0.000000 0.000000 0.000000 0.055534
#
#
# Mechanical properties :
#
#
# Convention : Reuss Voigt Hill
#
# Bulk Modulus (GPa) = 29.09670 62.37797 45.73733
# Shear Modulus (GPa) = 17.33595 23.26164 20.29880
#
# Velocity S-wave (km/s) = 3.02416 3.50309 3.27240
# Velocity P-wave (km/s) = 5.24824 7.01923 6.19732
#
# Compressibility (1/GPa) = 0.03436816
#
# Stress axis : x y z
#
# Youngs Moduli (GPa) = 72.22738 17.56617 47.09542
#
# Poissons Ratio (x) = 0.00972 0.42526
# Poissons Ratio (y) = 0.03995 0.90594
# Poissons Ratio (z) = 0.65219 0.33791
#
# Static dielectric constant tensor:
#      x y z
#    x 3.290930 0.000000 0.000000 
#    y 0.000000 3.302730 0.000000 
#    z 0.000000 0.000000 7.231520 
# 
# 
# High freq. dielectric constant tensor:
#      x y z
#    x 1.706130 0.000000 0.000000 
#    y 0.000000 1.723960 0.000000 
#    z 0.000000 0.000000 1.745750 
# 
# From -- ./inp_files/12282.got.cif
#   From: 2010.03.12/outbox.cif.g09.slc.cpg/sg59_7_cif.got.tgz:12282.got - 2010.04.16 16:29:54.
