data_PCOD8240707
_publ_section_title
;
Structure prediction by ZEFSAII (Michael W. Deem and Ramdas Pophale) SiO2 
 PCOD8240707
Probable space group: P M M N
;
_chemical_formula_sum "Si O2"
_cell_formula_units_Z 64
_cell_length_a 22.651764
_cell_length_b 9.188012
_cell_length_c 17.795254
_cell_angle_alpha 90.000000
_cell_angle_beta 90.000000
_cell_angle_gamma 90.000000
_cell_volume 3703.631535
_symmetry_space_group_name_H-M "P M M N"
_symmetry_group_IT_number 59
_space_group.IT_coordinate_system_code '2'
_symmetry_cell_setting 'orthorhombic'
loop_
_space_group_symop_operation_xyz
x,y,z
1/2-x,1/2-y,z
1/2+x,-y,-z
-x,1/2+y,-z
-x,-y,-z
1/2+x,1/2+y,-z
1/2-x,y,z
x,1/2-y,z
loop_
_atom_site_type_symbol
_atom_site_label
_atom_site_fract_x
_atom_site_fract_y
_atom_site_fract_z
Si Si1 0.683322 0.082232 0.440028
Si Si2 0.581340 0.421092 0.848536
Si Si3 0.411696 0.579488 0.675571
Si Si4 0.059517 0.916948 0.990868
Si Si5 0.848267 0.578453 0.591137
Si Si6 0.684238 0.082254 0.738307
Si Si7 0.456561 0.578378 0.829597
Si Si8 0.481879 0.418185 0.426207
O O1 0.750000 0.070781 0.410209
O O2 0.666148 0.250000 0.457684
O O3 0.641496 0.013463 0.374661
O O4 0.677092 0.989961 0.515384
O O5 0.571070 0.250000 0.836280
O O6 0.635531 0.477389 0.797340
O O7 0.520527 0.501763 0.828183
O O8 0.600315 0.453886 0.936482
O O9 0.400723 0.750000 0.677057
O O10 0.415373 0.520066 0.761173
O O11 0.474420 0.536636 0.640147
O O12 0.042180 0.750000 0.993685
O O13 0.081786 0.954347 0.906012
O O14 0.000000 0.000000 0.000000
O O15 0.836418 0.750000 0.588958
O O16 0.815920 0.510751 0.662436
O O17 0.916851 0.538504 0.599807
O O18 0.750000 0.066278 0.773719
O O19 0.671117 0.250000 0.718208
O O20 0.469091 0.750000 0.819383
O O21 0.500000 0.500000 0.500000
O O22 0.486673 0.250000 0.446019
#
# Coordination Sequence:
#
# PCOD8240707 Si02
#       8
#     8   8   8   8   8   8   8   8
#     4  10  20  34  51  66  85 122 164 193 225 274
#     4   9  17  30  47  69  96 122 153 192 228 272
#     4   9  17  30  47  67  92 119 150 188 225 268
#     4   8  14  25  44  69  94 119 145 176 221 273
#     4  11  22  34  50  72  94 117 152 199 243 279
#     4  10  21  35  49  65  90 129 168 196 230 280
#     4   9  16  28  48  72  97 123 149 184 237 289
#     4  10  19  31  47  67  91 118 148 184 231 279
#
# _framework density 17.280336999999999
#
# number of rings (size 3 to 8) (size 9 to 14) (size 15 to 20)
#    0.000    2.500    1.250    1.500    0.000    4.000 
#    0.000    1.250    0.000    0.750    0.000    5.250 
#    0.000    0.000    0.000   10.375    0.000   10.000 
#
# Total GULP energy -792929.985831 kJ/mol
# GULP energy per Si atom -12389.531029 kJ/mol
# Density = 1.724101 g / cm^3
# Si number density = 17.280337 Si / 1000 Ang^3
#
#
#
# Elastic Constant Matrix: (Units=GPa)
#
#
# Indices 1 2 3 4 5 6 
#
# 1 85.4226 20.1393 48.5825 0.0000 0.0000 0.0000
# 2 20.1393 33.6650 29.3138 0.0000 0.0000 0.0000
# 3 48.5825 29.3138 153.2348 0.0000 0.0000 0.0000
# 4 0.0000 0.0000 0.0000 17.6858 0.0000 0.0000
# 5 0.0000 0.0000 0.0000 0.0000 16.7171 0.0000
# 6 0.0000 0.0000 0.0000 0.0000 0.0000 18.5799
#
#
#
# Elastic Compliance Matrix: (Units=1/GPa)
#
#
# Indices 1 2 3 4 5 6 
#
# 1 0.015191 -0.005872 -0.003693 0.000000 0.000000 0.000000
# 2 -0.005872 0.037911 -0.005391 0.000000 0.000000 0.000000
# 3 -0.003693 -0.005391 0.008728 0.000000 0.000000 0.000000
# 4 0.000000 0.000000 0.000000 0.056543 0.000000 0.000000
# 5 0.000000 0.000000 0.000000 0.000000 0.059819 0.000000
# 6 0.000000 0.000000 0.000000 0.000000 0.000000 0.053822
#
#
# Mechanical properties :
#
#
# Convention : Reuss Voigt Hill
#
# Bulk Modulus (GPa) = 31.32940 52.04374 41.68657
# Shear Modulus (GPa) = 18.34425 22.21567 20.27996
#
# Velocity S-wave (km/s) = 3.26171 3.58942 3.42948
# Velocity P-wave (km/s) = 5.68809 6.88195 6.31331
#
# Compressibility (1/GPa) = 0.03191890
#
# Stress axis : x y z
#
# Youngs Moduli (GPa) = 65.82738 26.37737 114.57349
#
# Poissons Ratio (x) = 0.15489 0.42312
# Poissons Ratio (y) = 0.38655 0.61763
# Poissons Ratio (z) = 0.24310 0.14219
#
# Static dielectric constant tensor:
#      x y z
#    x 3.179630 0.000000 0.000000 
#    y 0.000000 2.343880 0.000000 
#    z 0.000000 0.000000 3.803990 
# 
# 
# High freq. dielectric constant tensor:
#      x y z
#    x 1.644700 0.000000 0.000000 
#    y 0.000000 1.652470 0.000000 
#    z 0.000000 0.000000 1.679240 
# 
# From -- ./inp_files/28202.got.cif
#   From: 2010.03.12/outbox.cif.g09.slc.cpg/sg59_15_cif.got.tgz:28202.got - 2010.04.16 16:29:54.
