data_PCOD8240374
_publ_section_title
;
Structure prediction by ZEFSAII (Michael W. Deem and Ramdas Pophale) SiO2 
 PCOD8240374
Probable space group: P M M N
;
_chemical_formula_sum "Si O2"
_cell_formula_units_Z 48
_cell_length_a 18.553100
_cell_length_b 8.811436
_cell_length_c 16.374597
_cell_angle_alpha 90.000000
_cell_angle_beta 90.000000
_cell_angle_gamma 90.000000
_cell_volume 2676.910165
_symmetry_space_group_name_H-M "P M M N"
_symmetry_group_IT_number 59
_space_group.IT_coordinate_system_code '2'
_symmetry_cell_setting 'orthorhombic'
loop_
_space_group_symop_operation_xyz
x,y,z
1/2-x,1/2-y,z
1/2+x,-y,-z
-x,1/2+y,-z
-x,-y,-z
1/2+x,1/2+y,-z
1/2-x,y,z
x,1/2-y,z
loop_
_atom_site_type_symbol
_atom_site_label
_atom_site_fract_x
_atom_site_fract_y
_atom_site_fract_z
Si Si1 0.890289 0.074453 0.317670
Si Si2 0.334278 0.079129 0.526763
Si Si3 0.167702 0.072714 0.840088
Si Si4 0.170388 0.068600 0.344113
Si Si5 0.039430 0.426669 0.243423
Si Si6 0.032844 0.930736 0.919066
O O1 0.872510 0.250000 0.301972
O O2 0.974629 0.040511 0.305630
O O3 0.873254 0.030906 0.410048
O O4 0.843321 0.979368 0.253288
O O5 0.250000 0.077442 0.545031
O O6 0.364386 0.250000 0.536929
O O7 0.349661 0.015798 0.435805
O O8 0.250000 0.037507 0.866104
O O9 0.150848 0.250000 0.845828
O O10 0.114454 0.986153 0.902507
O O11 0.250000 0.008948 0.319390
O O12 0.170112 0.250000 0.343930
O O13 0.112360 0.999021 0.280322
O O14 0.053744 0.250000 0.233882
O O15 0.018536 0.490955 0.154344
O O16 0.034082 0.750000 0.924289
O O17 0.000000 0.000000 0.000000
#
# Coordination Sequence:
#
# PCOD8240374 Si02
#       6
#     8   8   8   8   8   8
#     4  10  19  29  44  68  99 132 161 195 243 295
#     4   9  17  28  43  65  92 123 161 202 239 278
#     4  10  20  34  53  76 101 129 165 208 249 293
#     4   8  14  27  47  67  89 121 160 201 242 280
#     4   8  16  30  46  67  93 121 158 201 241 285
#     4  10  20  35  55  77 104 134 162 198 247 303
#
# _framework density 17.931121000000001
#
# number of rings (size 3 to 8) (size 9 to 14) (size 15 to 20)
#    0.000    2.833    0.000    4.000    0.000    4.333 
#    0.000    0.833    0.000    8.000    0.000    0.000 
#    0.000    0.000    0.000    0.000    0.000    0.000 
#
# Total GULP energy -594992.870613 kJ/mol
# GULP energy per Si atom -12395.684804 kJ/mol
# Density = 1.789031 g / cm^3
# Si number density = 17.931121 Si / 1000 Ang^3
#
#
#
# Elastic Constant Matrix: (Units=GPa)
#
#
# Indices 1 2 3 4 5 6 
#
# 1 122.3514 41.8964 85.3063 0.0000 0.0000 0.0000
# 2 41.8964 56.2341 34.1460 0.0000 0.0000 0.0000
# 3 85.3063 34.1460 123.9956 0.0000 0.0000 0.0000
# 4 0.0000 0.0000 0.0000 22.5576 0.0000 0.0000
# 5 0.0000 0.0000 0.0000 0.0000 28.1432 0.0000
# 6 0.0000 0.0000 0.0000 0.0000 0.0000 21.5225
#
#
#
# Elastic Compliance Matrix: (Units=1/GPa)
#
#
# Indices 1 2 3 4 5 6 
#
# 1 0.017721 -0.006965 -0.010274 0.000000 0.000000 0.000000
# 2 -0.006965 0.024090 -0.001843 0.000000 0.000000 0.000000
# 3 -0.010274 -0.001843 0.015640 0.000000 0.000000 0.000000
# 4 0.000000 0.000000 0.000000 0.044331 0.000000 0.000000
# 5 0.000000 0.000000 0.000000 0.000000 0.035533 0.000000
# 6 0.000000 0.000000 0.000000 0.000000 0.000000 0.046463
#
#
# Mechanical properties :
#
#
# Convention : Reuss Voigt Hill
#
# Bulk Modulus (GPa) = 51.84018 69.47539 60.65778
# Shear Modulus (GPa) = 21.89422 23.86017 22.87720
#
# Velocity S-wave (km/s) = 3.49810 3.65177 3.57576
# Velocity P-wave (km/s) = 6.72972 7.52399 7.13791
#
# Compressibility (1/GPa) = 0.01929006
#
# Stress axis : x y z
#
# Youngs Moduli (GPa) = 56.42937 41.51020 63.93662
#
# Poissons Ratio (x) = 0.28910 0.65688
# Poissons Ratio (y) = 0.39300 0.11781
# Poissons Ratio (z) = 0.57975 0.07649
#
# Static dielectric constant tensor:
#      x y z
#    x 3.530270 0.000000 0.000000 
#    y 0.000000 3.073590 0.000000 
#    z 0.000000 0.000000 3.396630 
# 
# 
# High freq. dielectric constant tensor:
#      x y z
#    x 1.694790 0.000000 0.000000 
#    y 0.000000 1.669340 0.000000 
#    z 0.000000 0.000000 1.685830 
# 
# From -- ./inp_files/25762.got.cif
#   From: 2010.03.12/outbox.cif.g09.slc.cpg/sg59_13_cif.got.tgz:25762.got - 2010.04.16 16:29:54.
