data_PCOD8240067
_publ_section_title
;
Structure prediction by ZEFSAII (Michael W. Deem and Ramdas Pophale) SiO2 
 PCOD8240067
Probable space group: P M M N
;
_chemical_formula_sum "Si O2"
_cell_formula_units_Z 64
_cell_length_a 9.030563
_cell_length_b 18.555488
_cell_length_c 20.204539
_cell_angle_alpha 90.000000
_cell_angle_beta 90.000000
_cell_angle_gamma 90.000000
_cell_volume 3385.603953
_symmetry_space_group_name_H-M "P M M N"
_symmetry_group_IT_number 59
_space_group.IT_coordinate_system_code '2'
_symmetry_cell_setting 'orthorhombic'
loop_
_space_group_symop_operation_xyz
x,y,z
1/2-x,1/2-y,z
1/2+x,-y,-z
-x,1/2+y,-z
-x,-y,-z
1/2+x,1/2+y,-z
1/2-x,y,z
x,1/2-y,z
loop_
_atom_site_type_symbol
_atom_site_label
_atom_site_fract_x
_atom_site_fract_y
_atom_site_fract_z
Si Si1 0.923719 0.422542 0.579051
Si Si2 0.423830 0.414340 0.445903
Si Si3 0.074046 0.329342 0.320964
Si Si4 0.424077 0.329857 0.081169
Si Si5 0.574132 0.924318 0.183901
Si Si6 0.077067 0.067985 0.966898
Si Si7 0.573711 0.926474 0.798777
Si Si8 0.076392 0.833915 0.292890
O O1 0.750000 0.411110 0.572383
O O2 0.968134 0.506632 0.581410
O O3 0.981175 0.380640 0.644260
O O4 0.998496 0.390131 0.513578
O O5 0.250000 0.410162 0.458010
O O6 0.481295 0.358701 0.391187
O O7 0.250000 0.327515 0.319416
O O8 0.007421 0.250000 0.310317
O O9 0.017397 0.379592 0.262457
O O10 0.250000 0.323037 0.092356
O O11 0.495558 0.250000 0.088381
O O12 0.485207 0.385608 0.135763
O O13 0.462185 0.360606 0.008789
O O14 0.750000 0.924607 0.190649
O O15 0.523124 0.916095 0.107517
O O16 0.509177 0.858766 0.226911
O O17 0.506721 0.998091 0.210811
O O18 0.250000 0.050879 0.968722
O O19 0.000000 0.000000 0.000000
O O20 0.750000 0.938948 0.799695
O O21 0.250000 0.847057 0.281541
O O22 0.041386 0.750000 0.305925
#
# Coordination Sequence:
#
# PCOD8240067 Si02
#       8
#     8   8   8   8   8   8   8   8
#     4   9  18  34  54  76 103 136 178 226 268 315
#     4   9  17  30  50  76 106 139 175 217 268 322
#     4   9  17  29  48  77 108 136 174 222 266 311
#     4   9  17  30  52  81 106 134 177 224 267 312
#     4  11  23  36  55  82 112 145 178 221 275 326
#     4  10  20  35  55  80 109 142 180 224 268 321
#     4  10  18  32  56  79 103 141 183 224 262 314
#     4  10  22  40  60  81 107 143 188 233 275 324
#
# _framework density 18.903568
#
# number of rings (size 3 to 8) (size 9 to 14) (size 15 to 20)
#    0.000    2.375    1.250    1.500    0.000    5.750 
#    0.000    4.375    0.000    3.375    0.000    0.000 
#    0.000    0.000    0.000    0.000    0.000    0.000 
#
# Total GULP energy -793540.234516 kJ/mol
# GULP energy per Si atom -12399.066164 kJ/mol
# Density = 1.886054 g / cm^3
# Si number density = 18.903568 Si / 1000 Ang^3
#
#
#
# Elastic Constant Matrix: (Units=GPa)
#
#
# Indices 1 2 3 4 5 6 
#
# 1 30.0245 23.6148 32.1503 0.0000 0.0000 0.0000
# 2 23.6148 91.6935 46.1846 0.0000 0.0000 0.0000
# 3 32.1503 46.1846 141.7225 0.0000 0.0000 0.0000
# 4 0.0000 0.0000 0.0000 29.8697 0.0000 0.0000
# 5 0.0000 0.0000 0.0000 0.0000 26.8432 0.0000
# 6 0.0000 0.0000 0.0000 0.0000 0.0000 18.1741
#
#
#
# Elastic Compliance Matrix: (Units=1/GPa)
#
#
# Indices 1 2 3 4 5 6 
#
# 1 0.048830 -0.008370 -0.008350 0.000000 0.000000 0.000000
# 2 -0.008370 0.014482 -0.002821 0.000000 0.000000 0.000000
# 3 -0.008350 -0.002821 0.009869 0.000000 0.000000 0.000000
# 4 0.000000 0.000000 0.000000 0.033479 0.000000 0.000000
# 5 0.000000 0.000000 0.000000 0.000000 0.037253 0.000000
# 6 0.000000 0.000000 0.000000 0.000000 0.000000 0.055023
#
#
# Mechanical properties :
#
#
# Convention : Reuss Voigt Hill
#
# Bulk Modulus (GPa) = 29.32476 51.92665 40.62570
# Shear Modulus (GPa) = 20.04930 25.74346 22.89638
#
# Velocity S-wave (km/s) = 3.26023 3.69430 3.48403
# Velocity P-wave (km/s) = 5.45148 6.76210 6.14185
#
# Compressibility (1/GPa) = 0.03410088
#
# Stress axis : x y z
#
# Youngs Moduli (GPa) = 20.47914 69.04988 101.32327
#
# Poissons Ratio (x) = 0.57796 0.84601
# Poissons Ratio (y) = 0.17141 0.28580
# Poissons Ratio (z) = 0.17099 0.19477
#
# Static dielectric constant tensor:
#      x y z
#    x 3.126170 0.000000 0.000000 
#    y 0.000000 3.603210 0.000000 
#    z 0.000000 0.000000 3.705150 
# 
# 
# High freq. dielectric constant tensor:
#      x y z
#    x 1.696060 0.000000 0.000000 
#    y 0.000000 1.737270 0.000000 
#    z 0.000000 0.000000 1.749910 
# 
# From -- ./inp_files/29542.got.cif
#   From: 2010.03.12/outbox.cif.g09.slc.cpg/sg59_15_cif.got.tgz:29542.got - 2010.04.16 16:29:54.
