data_PCOD8240829
_publ_section_title
;
Structure prediction by ZEFSAII (Michael W. Deem and Ramdas Pophale) SiO2 
 PCOD8240829
Probable space group: P M M N
;
_chemical_formula_sum "Si O2"
_cell_formula_units_Z 64
_cell_length_a 8.843534
_cell_length_b 20.222958
_cell_length_c 20.492545
_cell_angle_alpha 90.000000
_cell_angle_beta 90.000000
_cell_angle_gamma 90.000000
_cell_volume 3664.936271
_symmetry_space_group_name_H-M "P M M N"
_symmetry_group_IT_number 59
_space_group.IT_coordinate_system_code '2'
_symmetry_cell_setting 'orthorhombic'
loop_
_space_group_symop_operation_xyz
x,y,z
1/2-x,1/2-y,z
1/2+x,-y,-z
-x,1/2+y,-z
-x,-y,-z
1/2+x,1/2+y,-z
1/2-x,y,z
x,1/2-y,z
loop_
_atom_site_type_symbol
_atom_site_label
_atom_site_fract_x
_atom_site_fract_y
_atom_site_fract_z
Si Si1 0.074341 0.822974 0.412287
Si Si2 0.420953 0.854177 0.152091
Si Si3 0.580310 0.990175 0.824774
Si Si4 0.075340 0.174661 0.981940
Si Si5 0.430175 0.043216 0.556733
Si Si6 0.427832 0.554217 0.952461
Si Si7 0.584076 0.507077 0.301327
Si Si8 0.917149 0.841175 0.278459
O O1 0.250000 0.842219 0.411032
O O2 0.050588 0.750000 0.445215
O O3 0.986572 0.880984 0.450744
O O4 0.014187 0.817087 0.339211
O O5 0.250000 0.828880 0.141774
O O6 0.522747 0.833413 0.091877
O O7 0.493277 0.817792 0.214414
O O8 0.422365 0.932412 0.161621
O O9 0.750000 0.962391 0.831455
O O10 0.473620 0.955460 0.877481
O O11 0.523711 0.971174 0.751378
O O12 0.250000 0.153678 0.986232
O O13 0.051383 0.250000 0.005214
O O14 0.977940 0.127690 0.028333
O O15 0.250000 0.044114 0.553084
O O16 0.484181 0.009821 0.625155
O O17 0.500000 0.000000 0.500000
O O18 0.250000 0.547456 0.960119
O O19 0.500000 0.500000 0.000000
O O20 0.750000 0.472760 0.301920
O O21 0.602685 0.580967 0.276634
O O22 0.750000 0.808760 0.280760
#
# Coordination Sequence:
#
# PCOD8240829 Si02
#       8
#     8   8   8   8   8   8   8   8
#     4  10  20  33  49  71 101 137 178 220 259 304
#     4  10  19  31  49  71  98 134 173 213 255 304
#     4  10  19  31  51  78 103 131 169 216 262 305
#     4  11  24  39  53  71  99 133 170 216 268 321
#     4  10  20  34  54  79 109 143 178 216 261 311
#     4  12  23  36  56  78 102 133 172 219 265 315
#     4   8  16  30  47  72 103 134 168 209 255 304
#     4   9  17  29  46  67  96 133 173 214 253 298
#
# _framework density 17.462786999999999
#
# number of rings (size 3 to 8) (size 9 to 14) (size 15 to 20)
#    0.000    2.000    1.250    4.125    0.000    7.000 
#    0.000    0.000    0.000    0.000    0.000    0.875 
#    0.000    1.000    0.000    0.000    0.000    0.000 
#
# Total GULP energy -793341.798138 kJ/mol
# GULP energy per Si atom -12395.965596 kJ/mol
# Density = 1.742304 g / cm^3
# Si number density = 17.462787 Si / 1000 Ang^3
#
#
#
# Elastic Constant Matrix: (Units=GPa)
#
#
# Indices 1 2 3 4 5 6 
#
# 1 127.9028 43.1162 51.2269 0.0000 0.0000 0.0000
# 2 43.1162 72.5707 48.6796 0.0000 0.0000 0.0000
# 3 51.2269 48.6796 106.7551 0.0000 0.0000 0.0000
# 4 0.0000 0.0000 0.0000 -20.8471 0.0000 0.0000
# 5 0.0000 0.0000 0.0000 0.0000 30.6234 0.0000
# 6 0.0000 0.0000 0.0000 0.0000 0.0000 14.6589
#
#
#
# Elastic Compliance Matrix: (Units=1/GPa)
#
#
# Indices 1 2 3 4 5 6 
#
# 1 0.010463 -0.004104 -0.003150 0.000000 0.000000 0.000000
# 2 -0.004104 0.021461 -0.007817 0.000000 0.000000 0.000000
# 3 -0.003150 -0.007817 0.014443 0.000000 0.000000 0.000000
# 4 0.000000 0.000000 0.000000 -0.047968 0.000000 0.000000
# 5 0.000000 0.000000 0.000000 0.000000 0.032655 0.000000
# 6 0.000000 0.000000 0.000000 0.000000 0.000000 0.068218
#
#
# Mechanical properties :
#
#
# Convention : Reuss Voigt Hill
#
# Bulk Modulus (GPa) = 61.62574 65.91934 63.77254
# Shear Modulus (GPa) = 37.08587 15.83408 26.45998
#
# Velocity S-wave (km/s) = 4.61337 3.01447 3.89681
# Velocity P-wave (km/s) = 7.98398 7.06728 7.53957
#
# Compressibility (1/GPa) = 0.01622698
#
# Stress axis : x y z
#
# Youngs Moduli (GPa) = 95.57228 46.59516 69.23737
#
# Poissons Ratio (x) = 0.19122 0.21806
# Poissons Ratio (y) = 0.39221 0.54123
# Poissons Ratio (z) = 0.30101 0.36424
#
# Static dielectric constant tensor:
#      x y z
#    x 3.578010 0.000000 0.000000 
#    y 0.000000 3.120600 0.000000 
#    z 0.000000 0.000000 3.269470 
# 
# 
# High freq. dielectric constant tensor:
#      x y z
#    x 1.694370 0.000000 0.000000 
#    y 0.000000 1.644260 0.000000 
#    z 0.000000 0.000000 1.657510 
# 
# From -- ./inp_files/29662.got.cif
#   From: 2010.03.12/outbox.cif.g09.slc.cpg/sg59_15_cif.got.tgz:29662.got - 2010.04.16 16:29:54.
