data_PCOD8241576
_publ_section_title
;
Structure prediction by ZEFSAII (Michael W. Deem and Ramdas Pophale) SiO2 
 PCOD8241576
Probable space group: P M M N
;
_chemical_formula_sum "Si O2"
_cell_formula_units_Z 56
_cell_length_a 9.257351
_cell_length_b 22.963942
_cell_length_c 13.573888
_cell_angle_alpha 90.000000
_cell_angle_beta 90.000000
_cell_angle_gamma 90.000000
_cell_volume 2885.608665
_symmetry_space_group_name_H-M "P M M N"
_symmetry_group_IT_number 59
_space_group.IT_coordinate_system_code '2'
_symmetry_cell_setting 'orthorhombic'
loop_
_space_group_symop_operation_xyz
x,y,z
1/2-x,1/2-y,z
1/2+x,-y,-z
-x,1/2+y,-z
-x,-y,-z
1/2+x,1/2+y,-z
1/2-x,y,z
x,1/2-y,z
loop_
_atom_site_type_symbol
_atom_site_label
_atom_site_fract_x
_atom_site_fract_y
_atom_site_fract_z
Si Si1 0.422881 0.750000 0.780811
Si Si2 0.919907 0.250000 0.989838
Si Si3 0.579737 0.843312 0.650234
Si Si4 0.918522 0.969384 0.717281
Si Si5 0.578896 0.814056 0.431571
Si Si6 0.920298 0.585773 0.288374
Si Si7 0.586955 0.642949 0.084500
Si Si8 0.588228 0.543959 0.936671
O O1 0.250000 0.750000 0.768276
O O2 0.468610 0.750000 0.895944
O O3 0.489763 0.807817 0.731524
O O4 0.750000 0.250000 0.982147
O O5 0.978375 0.304448 0.928660
O O6 0.750000 0.831319 0.668329
O O7 0.526397 0.823063 0.543217
O O8 0.546134 0.912255 0.653406
O O9 0.750000 0.984711 0.712843
O O10 0.005607 0.025414 0.679120
O O11 0.972446 0.953133 0.826676
O O12 0.750000 0.817667 0.428657
O O13 0.526459 0.750000 0.395944
O O14 0.516857 0.863407 0.359004
O O15 0.750000 0.577443 0.301478
O O16 0.961195 0.602407 0.176186
O O17 0.750000 0.666005 0.103651
O O18 0.579616 0.607660 0.983101
O O19 0.750000 0.519916 0.935957
O O20 0.500000 0.500000 0.000000
#
# Coordination Sequence:
#
# PCOD8241576 Si02
#       8
#     4   4   8   8   8   8   8   8
#     4  11  23  39  58  87 118 144 183 239 294 339
#     4  11  25  39  54  81 116 150 183 231 290 335
#     4  10  20  38  64  86 109 150 193 230 281 346
#     4  10  21  35  55  84 116 148 189 235 281 338
#     4   9  18  35  61  87 108 143 193 238 279 330
#     4  10  21  36  58  85 115 150 192 235 280 333
#     4  10  21  37  57  82 111 150 195 233 271 329
#     4  10  19  33  53  78 108 145 186 226 270 327
#
# _framework density 19.406652000000001
#
# number of rings (size 3 to 8) (size 9 to 14) (size 15 to 20)
#    0.000    2.000    2.143    1.286    1.000    4.571 
#    0.000    0.714    0.000    0.000    0.000    0.000 
#    0.000    0.000    0.000    0.000    0.000    0.000 
#
# Total GULP energy -694375.094471 kJ/mol
# GULP energy per Si atom -12399.555258 kJ/mol
# Density = 1.936248 g / cm^3
# Si number density = 19.406652 Si / 1000 Ang^3
#
#
#
# Elastic Constant Matrix: (Units=GPa)
#
#
# Indices 1 2 3 4 5 6 
#
# 1 49.7836 43.8040 18.2178 0.0000 0.0000 0.0000
# 2 43.8040 144.7958 36.8554 0.0000 0.0000 0.0000
# 3 18.2178 36.8554 56.7917 0.0000 0.0000 0.0000
# 4 0.0000 0.0000 0.0000 37.4325 0.0000 0.0000
# 5 0.0000 0.0000 0.0000 0.0000 19.7624 0.0000
# 6 0.0000 0.0000 0.0000 0.0000 0.0000 36.7168
#
#
#
# Elastic Compliance Matrix: (Units=1/GPa)
#
#
# Indices 1 2 3 4 5 6 
#
# 1 0.028186 -0.007457 -0.004202 0.000000 0.000000 0.000000
# 2 -0.007457 0.010246 -0.004257 0.000000 0.000000 0.000000
# 3 -0.004202 -0.004257 0.021719 0.000000 0.000000 0.000000
# 4 0.000000 0.000000 0.000000 0.026715 0.000000 0.000000
# 5 0.000000 0.000000 0.000000 0.000000 0.050601 0.000000
# 6 0.000000 0.000000 0.000000 0.000000 0.000000 0.027235
#
#
# Mechanical properties :
#
#
# Convention : Reuss Voigt Hill
#
# Bulk Modulus (GPa) = 35.31322 49.90283 42.60803
# Shear Modulus (GPa) = 24.27485 28.94861 26.61173
#
# Velocity S-wave (km/s) = 3.54058 3.86642 3.70708
# Velocity P-wave (km/s) = 5.91187 6.76036 6.35030
#
# Compressibility (1/GPa) = 0.02831801
#
# Stress axis : x y z
#
# Youngs Moduli (GPa) = 35.47811 97.60056 46.04326
#
# Poissons Ratio (x) = 0.72785 0.19348
# Poissons Ratio (y) = 0.26458 0.19600
# Poissons Ratio (z) = 0.14908 0.41548
#
# Static dielectric constant tensor:
#      x y z
#    x 3.299820 0.000000 0.000000 
#    y 0.000000 3.641100 0.000000 
#    z 0.000000 0.000000 3.628570 
# 
# 
# High freq. dielectric constant tensor:
#      x y z
#    x 1.727300 0.000000 0.000000 
#    y 0.000000 1.766610 0.000000 
#    z 0.000000 0.000000 1.757840 
# 
# From -- ./inp_files/21222.got.cif
#   From: 2010.03.12/outbox.cif.g09.slc.cpg/sg59_11_cif.got.tgz:21222.got - 2010.04.16 16:29:54.
