data_PCOD8241834
_publ_section_title
;
Structure prediction by ZEFSAII (Michael W. Deem and Ramdas Pophale) SiO2 
 PCOD8241834
Probable space group: P M M N
;
_chemical_formula_sum "Si O2"
_cell_formula_units_Z 64
_cell_length_a 9.278358
_cell_length_b 18.995390
_cell_length_c 20.305660
_cell_angle_alpha 90.000000
_cell_angle_beta 90.000000
_cell_angle_gamma 90.000000
_cell_volume 3578.791937
_symmetry_space_group_name_H-M "P M M N"
_symmetry_group_IT_number 59
_space_group.IT_coordinate_system_code '2'
_symmetry_cell_setting 'orthorhombic'
loop_
_space_group_symop_operation_xyz
x,y,z
1/2-x,1/2-y,z
1/2+x,-y,-z
-x,1/2+y,-z
-x,-y,-z
1/2+x,1/2+y,-z
1/2-x,y,z
x,1/2-y,z
loop_
_atom_site_type_symbol
_atom_site_label
_atom_site_fract_x
_atom_site_fract_y
_atom_site_fract_z
Si Si1 0.417308 0.406402 0.795117
Si Si2 0.418545 0.667805 0.321528
Si Si3 0.420899 0.064330 0.034198
Si Si4 0.411655 0.166377 0.552501
Si Si5 0.419879 0.327994 0.924591
Si Si6 0.583222 0.434764 0.168650
Si Si7 0.081716 0.669598 0.716402
Si Si8 0.587201 0.833436 0.591922
O O1 0.250000 0.387745 0.783818
O O2 0.508487 0.376459 0.735516
O O3 0.478287 0.371781 0.862214
O O4 0.441918 0.489551 0.798826
O O5 0.250000 0.653098 0.321074
O O6 0.454287 0.750000 0.310975
O O7 0.480289 0.639668 0.391135
O O8 0.250000 0.050055 0.035461
O O9 0.480024 0.076444 0.106861
O O10 0.460651 0.133539 0.992304
O O11 0.500000 0.000000 0.000000
O O12 0.250000 0.138864 0.567709
O O13 0.410256 0.250000 0.550781
O O14 0.463190 0.138676 0.480314
O O15 0.250000 0.322586 0.917821
O O16 0.489509 0.250000 0.925101
O O17 0.750000 0.426441 0.146865
O O18 0.535605 0.375940 0.220823
O O19 0.250000 0.664811 0.704003
O O20 0.031962 0.750000 0.729287
O O21 0.009865 0.636271 0.650936
O O22 0.750000 0.857905 0.604957
O O23 0.574498 0.750000 0.592524
#
# Coordination Sequence:
#
# PCOD8241834 Si02
#       8
#     8   8   8   8   8   8   8   8
#     4  10  19  34  54  71  95 136 177 211 245 295
#     4  10  20  31  45  72 107 134 163 211 261 305
#     4  11  21  36  57  79 104 134 168 210 255 303
#     4   8  14  26  45  69  97 133 173 209 251 303
#     4   9  18  33  54  79 102 129 170 212 249 294
#     4  10  21  37  55  77 103 135 176 210 245 303
#     4   9  18  32  51  76 107 138 166 206 261 312
#     4   8  14  26  46  72 101 131 169 215 254 298
#
# _framework density 17.883130000000001
#
# number of rings (size 3 to 8) (size 9 to 14) (size 15 to 20)
#    0.000    2.625    1.250    1.875    0.000    3.250 
#    0.000    2.500    0.000    2.625    0.000    0.000 
#    0.000    0.000    0.000    0.000    0.000    0.000 
#
# Total GULP energy -793416.967385 kJ/mol
# GULP energy per Si atom -12397.140115 kJ/mol
# Density = 1.784243 g / cm^3
# Si number density = 17.883130 Si / 1000 Ang^3
#
#
#
# Elastic Constant Matrix: (Units=GPa)
#
#
# Indices 1 2 3 4 5 6 
#
# 1 75.6519 38.6492 78.8142 0.0000 0.0000 0.0000
# 2 38.6492 79.4581 58.8486 0.0000 0.0000 0.0000
# 3 78.8142 58.8486 174.7869 0.0000 0.0000 0.0000
# 4 0.0000 0.0000 0.0000 18.0308 0.0000 0.0000
# 5 0.0000 0.0000 0.0000 0.0000 36.9555 0.0000
# 6 0.0000 0.0000 0.0000 0.0000 0.0000 16.1411
#
#
#
# Elastic Compliance Matrix: (Units=1/GPa)
#
#
# Indices 1 2 3 4 5 6 
#
# 1 0.026558 -0.005394 -0.010159 0.000000 0.000000 0.000000
# 2 -0.005394 0.017861 -0.003582 0.000000 0.000000 0.000000
# 3 -0.010159 -0.003582 0.011508 0.000000 0.000000 0.000000
# 4 0.000000 0.000000 0.000000 0.055461 0.000000 0.000000
# 5 0.000000 0.000000 0.000000 0.000000 0.027060 0.000000
# 6 0.000000 0.000000 0.000000 0.000000 0.000000 0.061954
#
#
# Mechanical properties :
#
#
# Convention : Reuss Voigt Hill
#
# Bulk Modulus (GPa) = 56.63120 75.83565 66.23342
# Shear Modulus (GPa) = 20.44509 24.46447 22.45478
#
# Velocity S-wave (km/s) = 3.38488 3.70269 3.54735
# Velocity P-wave (km/s) = 6.85658 7.79604 7.34135
#
# Compressibility (1/GPa) = 0.01765811
#
# Stress axis : x y z
#
# Youngs Moduli (GPa) = 37.65314 55.98646 86.89458
#
# Poissons Ratio (x) = 0.30198 0.88280
# Poissons Ratio (y) = 0.20309 0.31122
# Poissons Ratio (z) = 0.38254 0.20052
#
# Static dielectric constant tensor:
#      x y z
#    x 3.235530 0.000000 0.000000 
#    y 0.000000 3.272770 0.000000 
#    z 0.000000 0.000000 3.711800 
# 
# 
# High freq. dielectric constant tensor:
#      x y z
#    x 1.678490 0.000000 0.000000 
#    y 0.000000 1.664350 0.000000 
#    z 0.000000 0.000000 1.707300 
# 
# From -- ./inp_files/26201.got.cif
#   From: 2010.03.12/outbox.cif.g09.slc.cpg/sg59_14_cif.got.tgz:26201.got - 2010.04.16 16:29:54.
