data_PCOD8241905
_publ_section_title
;
Structure prediction by ZEFSAII (Michael W. Deem and Ramdas Pophale) SiO2 
 PCOD8241905
Probable space group: P M M N
;
_chemical_formula_sum "Si O2"
_cell_formula_units_Z 64
_cell_length_a 22.975927
_cell_length_b 17.611043
_cell_length_c 8.728902
_cell_angle_alpha 90.000000
_cell_angle_beta 90.000000
_cell_angle_gamma 90.000000
_cell_volume 3531.975951
_symmetry_space_group_name_H-M "P M M N"
_symmetry_group_IT_number 59
_space_group.IT_coordinate_system_code '2'
_symmetry_cell_setting 'orthorhombic'
loop_
_space_group_symop_operation_xyz
x,y,z
1/2-x,1/2-y,z
1/2+x,-y,-z
-x,1/2+y,-z
-x,-y,-z
1/2+x,1/2+y,-z
1/2-x,y,z
x,1/2-y,z
loop_
_atom_site_type_symbol
_atom_site_label
_atom_site_fract_x
_atom_site_fract_y
_atom_site_fract_z
Si Si1 0.439806 0.483434 0.577999
Si Si2 0.397265 0.921592 0.845038
Si Si3 0.815621 0.508093 0.928024
Si Si4 0.314916 0.660803 0.609998
Si Si5 0.815967 0.834032 0.042269
Si Si6 0.076721 0.164960 0.741213
Si Si7 0.629653 0.423785 0.654634
Si Si8 0.954593 0.162262 0.880045
O O1 0.500000 0.500000 0.500000
O O2 0.439041 0.526432 0.741230
O O3 0.429962 0.393672 0.601492
O O4 0.390117 0.513243 0.466384
O O5 0.357902 0.868364 0.740333
O O6 0.437170 0.870262 0.954556
O O7 0.357050 0.977754 0.940150
O O8 0.750000 0.488475 0.975883
O O9 0.827923 0.467932 0.768183
O O10 0.824613 0.599720 0.915585
O O11 0.250000 0.628534 0.639120
O O12 0.315004 0.750000 0.621136
O O13 0.334855 0.639336 0.438500
O O14 0.750000 0.838588 0.109105
O O15 0.826843 0.750000 0.969067
O O16 0.861176 0.848048 0.179284
O O17 0.072843 0.250000 0.672167
O O18 0.024019 0.152848 0.862273
O O19 0.576545 0.383976 0.743605
O O20 0.935241 0.250000 0.870573
#
# Coordination Sequence:
#
# PCOD8241905 Si02
#       8
#     8   8   8   8   8   8   8   8
#     4  11  21  37  53  81 111 148 181 220 274 328
#     4  10  21  34  54  80 108 143 185 231 273 321
#     4  10  19  34  55  81 108 139 183 230 274 322
#     4  10  20  35  53  75 108 149 187 224 270 326
#     4   9  18  34  57  82 107 136 174 224 277 325
#     4  10  20  36  57  82 110 141 183 225 273 330
#     4  10  21  34  53  78 111 145 181 224 275 329
#     4  10  20  35  55  80 108 141 181 231 276 323
#
# _framework density 18.120168
#
# number of rings (size 3 to 8) (size 9 to 14) (size 15 to 20)
#    0.000    2.000    2.500    1.500    0.000    1.500 
#    0.000    1.875    0.000    6.000    0.000    0.000 
#    0.000    0.000    0.000    0.000    0.000    0.000 
#
# Total GULP energy -793488.993826 kJ/mol
# GULP energy per Si atom -12398.265529 kJ/mol
# Density = 1.807893 g / cm^3
# Si number density = 18.120168 Si / 1000 Ang^3
#
#
#
# Elastic Constant Matrix: (Units=GPa)
#
#
# Indices 1 2 3 4 5 6 
#
# 1 90.1835 39.5931 31.7571 0.0000 0.0000 0.0000
# 2 39.5931 110.3342 45.9126 0.0000 0.0000 0.0000
# 3 31.7571 45.9126 94.8174 0.0000 0.0000 0.0000
# 4 0.0000 0.0000 0.0000 29.4080 0.0000 0.0000
# 5 0.0000 0.0000 0.0000 0.0000 14.0059 0.0000
# 6 0.0000 0.0000 0.0000 0.0000 0.0000 26.6334
#
#
#
# Elastic Compliance Matrix: (Units=1/GPa)
#
#
# Indices 1 2 3 4 5 6 
#
# 1 0.013719 -0.003771 -0.002769 0.000000 0.000000 0.000000
# 2 -0.003771 0.012387 -0.004735 0.000000 0.000000 0.000000
# 3 -0.002769 -0.004735 0.013767 0.000000 0.000000 0.000000
# 4 0.000000 0.000000 0.000000 0.034004 0.000000 0.000000
# 5 0.000000 0.000000 0.000000 0.000000 0.071399 0.000000
# 6 0.000000 0.000000 0.000000 0.000000 0.000000 0.037547
#
#
# Mechanical properties :
#
#
# Convention : Reuss Voigt Hill
#
# Bulk Modulus (GPa) = 57.72652 58.87340 58.29996
# Shear Modulus (GPa) = 23.68023 25.88094 24.78059
#
# Velocity S-wave (km/s) = 3.61895 3.78338 3.70208
# Velocity P-wave (km/s) = 7.02774 7.18654 7.10758
#
# Compressibility (1/GPa) = 0.01732306
#
# Stress axis : x y z
#
# Youngs Moduli (GPa) = 72.89126 80.73062 72.63843
#
# Poissons Ratio (x) = 0.30442 0.20114
# Poissons Ratio (y) = 0.27486 0.34395
# Poissons Ratio (z) = 0.20184 0.38226
#
# Static dielectric constant tensor:
#      x y z
#    x 3.534980 0.000000 0.000000 
#    y 0.000000 3.633030 0.000000 
#    z 0.000000 0.000000 3.266770 
# 
# 
# High freq. dielectric constant tensor:
#      x y z
#    x 1.712900 0.000000 0.000000 
#    y 0.000000 1.718850 0.000000 
#    z 0.000000 0.000000 1.680770 
# 
# From -- ./inp_files/10807.got.cif
#   From: 2010.03.12/outbox.cif.g09.slc.cpg/sg59_6_cif.got.tgz:10807.got - 2010.04.16 16:29:54.
