data_PCOD8241597
_publ_section_title
;
Structure prediction by ZEFSAII (Michael W. Deem and Ramdas Pophale) SiO2 
 PCOD8241597
Probable space group: P M M N
;
_chemical_formula_sum "Si O2"
_cell_formula_units_Z 64
_cell_length_a 9.003604
_cell_length_b 27.737464
_cell_length_c 14.003589
_cell_angle_alpha 90.000000
_cell_angle_beta 90.000000
_cell_angle_gamma 90.000000
_cell_volume 3497.216292
_symmetry_space_group_name_H-M "P M M N"
_symmetry_group_IT_number 59
_space_group.IT_coordinate_system_code '2'
_symmetry_cell_setting 'orthorhombic'
loop_
_space_group_symop_operation_xyz
x,y,z
1/2-x,1/2-y,z
1/2+x,-y,-z
-x,1/2+y,-z
-x,-y,-z
1/2+x,1/2+y,-z
1/2-x,y,z
x,1/2-y,z
loop_
_atom_site_type_symbol
_atom_site_label
_atom_site_fract_x
_atom_site_fract_y
_atom_site_fract_z
Si Si1 0.076336 0.608374 0.187497
Si Si2 0.921561 0.304083 0.315530
Si Si3 0.920962 0.304139 0.942878
Si Si4 0.915863 0.807338 0.871345
Si Si5 0.924173 0.476666 0.293756
Si Si6 0.423694 0.605113 0.567250
Si Si7 0.074527 0.078515 0.627458
Si Si8 0.427775 0.481964 0.902791
O O1 0.250000 0.594393 0.189254
O O2 0.050613 0.662040 0.147629
O O3 0.009919 0.610236 0.293652
O O4 0.987635 0.571205 0.120609
O O5 0.750000 0.303300 0.287698
O O6 0.976700 0.250000 0.342636
O O7 0.951062 0.339289 0.404537
O O8 0.004397 0.326040 0.223872
O O9 0.750000 0.303074 0.972273
O O10 0.976929 0.250000 0.917568
O O11 0.005293 0.326810 0.033694
O O12 0.750000 0.827674 0.870572
O O13 0.922264 0.750000 0.871978
O O14 0.750000 0.473043 0.288142
O O15 0.984339 0.428917 0.346542
O O16 0.971113 0.522898 0.356669
O O17 0.980516 0.482749 0.184294
O O18 0.250000 0.594960 0.545904
O O19 0.521670 0.595011 0.475524
O O20 0.250000 0.086430 0.638084
O O21 0.250000 0.480268 0.912439
O O22 0.500000 0.500000 0.000000
#
# Coordination Sequence:
#
# PCOD8241597 Si02
#       8
#     8   8   8   8   8   8   8   8
#     4  10  20  35  55  76 100 135 174 210 254 306
#     4   9  18  32  49  71 101 135 168 203 245 296
#     4   9  18  33  53  76 101 132 173 216 253 296
#     4   9  17  29  47  71  99 131 165 204 251 298
#     4   8  17  33  52  74  99 128 163 205 248 291
#     4  10  19  33  54  75  95 126 169 210 248 295
#     4  10  20  35  53  74 101 128 159 207 263 310
#     4  10  20  35  53  77 110 142 172 207 252 306
#
# _framework density 18.300269
#
# number of rings (size 3 to 8) (size 9 to 14) (size 15 to 20)
#    0.000    2.625    0.000    2.625    0.000    4.000 
#    0.000    6.250    0.000    3.750    0.000    0.000 
#    0.000    0.000    0.000    0.000    0.000    0.000 
#
# Total GULP energy -793425.059568 kJ/mol
# GULP energy per Si atom -12397.266556 kJ/mol
# Density = 1.825862 g / cm^3
# Si number density = 18.300269 Si / 1000 Ang^3
#
#
#
# Elastic Constant Matrix: (Units=GPa)
#
#
# Indices 1 2 3 4 5 6 
#
# 1 76.5435 36.2238 50.4800 0.0000 0.0000 0.0000
# 2 36.2238 84.6682 62.7782 0.0000 0.0000 0.0000
# 3 50.4800 62.7782 136.1395 0.0000 0.0000 0.0000
# 4 0.0000 0.0000 0.0000 24.3491 0.0000 0.0000
# 5 0.0000 0.0000 0.0000 0.0000 33.5702 0.0000
# 6 0.0000 0.0000 0.0000 0.0000 0.0000 20.8176
#
#
#
# Elastic Compliance Matrix: (Units=1/GPa)
#
#
# Indices 1 2 3 4 5 6 
#
# 1 0.018242 -0.004238 -0.004810 0.000000 0.000000 0.000000
# 2 -0.004238 0.018932 -0.007159 0.000000 0.000000 0.000000
# 3 -0.004810 -0.007159 0.012430 0.000000 0.000000 0.000000
# 4 0.000000 0.000000 0.000000 0.041069 0.000000 0.000000
# 5 0.000000 0.000000 0.000000 0.000000 0.029788 0.000000
# 6 0.000000 0.000000 0.000000 0.000000 0.000000 0.048036
#
#
# Mechanical properties :
#
#
# Convention : Reuss Voigt Hill
#
# Bulk Modulus (GPa) = 58.17085 66.25725 62.21405
# Shear Modulus (GPa) = 24.19653 25.60534 24.90093
#
# Velocity S-wave (km/s) = 3.64015 3.74462 3.69275
# Velocity P-wave (km/s) = 7.03729 7.41488 7.22855
#
# Compressibility (1/GPa) = 0.01719074
#
# Stress axis : x y z
#
# Youngs Moduli (GPa) = 54.81783 52.82086 80.45162
#
# Poissons Ratio (x) = 0.22388 0.38695
# Poissons Ratio (y) = 0.23234 0.57591
# Poissons Ratio (z) = 0.26366 0.37812
#
# Static dielectric constant tensor:
#      x y z
#    x 3.358880 0.000000 0.000000 
#    y 0.000000 3.476700 0.000000 
#    z 0.000000 0.000000 3.431770 
# 
# 
# High freq. dielectric constant tensor:
#      x y z
#    x 1.704260 0.000000 0.000000 
#    y 0.000000 1.696900 0.000000 
#    z 0.000000 0.000000 1.708950 
# 
# From -- ./inp_files/15019.got.cif
#   From: 2010.03.12/outbox.cif.g09.slc.cpg/sg59_8_cif.got.tgz:15019.got - 2010.04.16 16:29:54.
