data_PCOD8241205
_publ_section_title
;
Structure prediction by ZEFSAII (Michael W. Deem and Ramdas Pophale) SiO2 
 PCOD8241205
Probable space group: P M M N
;
_chemical_formula_sum "Si O2"
_cell_formula_units_Z 48
_cell_length_a 14.182458
_cell_length_b 17.284143
_cell_length_c 11.261738
_cell_angle_alpha 90.000000
_cell_angle_beta 90.000000
_cell_angle_gamma 90.000000
_cell_volume 2760.608217
_symmetry_space_group_name_H-M "P M M N"
_symmetry_group_IT_number 59
_space_group.IT_coordinate_system_code '2'
_symmetry_cell_setting 'orthorhombic'
loop_
_space_group_symop_operation_xyz
x,y,z
1/2-x,1/2-y,z
1/2+x,-y,-z
-x,1/2+y,-z
-x,-y,-z
1/2+x,1/2+y,-z
1/2-x,y,z
x,1/2-y,z
loop_
_atom_site_type_symbol
_atom_site_label
_atom_site_fract_x
_atom_site_fract_y
_atom_site_fract_z
Si Si1 0.010049 0.441115 0.346234
Si Si2 0.501410 0.953360 0.122968
Si Si3 0.639018 0.065262 0.536543
Si Si4 0.859206 0.160997 0.768345
Si Si5 0.147979 0.159446 0.222483
Si Si6 0.358071 0.336911 0.956526
O O1 0.980933 0.488394 0.230212
O O2 0.916260 0.413247 0.415329
O O3 0.087458 0.487177 0.422446
O O4 0.064145 0.363590 0.308991
O O5 0.409068 0.899279 0.141544
O O6 0.588205 0.894150 0.130937
O O7 0.500000 0.000000 0.000000
O O8 0.750000 0.050806 0.511434
O O9 0.624752 0.133447 0.632447
O O10 0.750000 0.156722 0.802098
O O11 0.895631 0.250000 0.780531
O O12 0.250000 0.124968 0.263388
O O13 0.156349 0.250000 0.218309
O O14 0.127278 0.129809 0.089396
O O15 0.250000 0.337188 0.918611
O O16 0.399117 0.250000 0.945412
#
# Coordination Sequence:
#
# PCOD8241205 Si02
#       6
#     8   8   8   8   8   8
#     4  10  19  32  51  76 103 133 170 211 264 313
#     4  11  20  31  50  79 108 136 167 206 259 317
#     4   9  19  34  52  73  99 132 172 219 263 304
#     4   9  19  36  56  74  96 135 183 221 253 300
#     4   9  17  30  49  71  96 128 166 207 250 301
#     4   9  18  32  49  70  99 135 170 204 246 300
#
# _framework density 17.387473
#
# number of rings (size 3 to 8) (size 9 to 14) (size 15 to 20)
#    0.000    2.500    1.667    2.000    0.000    2.667 
#    0.000    0.000    0.000    0.000    0.000   16.333 
#    0.000    0.000    0.000    0.000    0.000    0.000 
#
# Total GULP energy -594847.091647 kJ/mol
# GULP energy per Si atom -12392.647743 kJ/mol
# Density = 1.734790 g / cm^3
# Si number density = 17.387473 Si / 1000 Ang^3
#
#
#
# Elastic Constant Matrix: (Units=GPa)
#
#
# Indices 1 2 3 4 5 6 
#
# 1 105.3481 38.6246 55.1297 0.0000 0.0000 0.0000
# 2 38.6246 60.3059 35.1752 0.0000 0.0000 0.0000
# 3 55.1297 35.1752 84.0081 0.0000 0.0000 0.0000
# 4 0.0000 0.0000 0.0000 17.3838 0.0000 0.0000
# 5 0.0000 0.0000 0.0000 0.0000 34.2493 0.0000
# 6 0.0000 0.0000 0.0000 0.0000 0.0000 31.0232
#
#
#
# Elastic Compliance Matrix: (Units=1/GPa)
#
#
# Indices 1 2 3 4 5 6 
#
# 1 0.015657 -0.005339 -0.008039 0.000000 0.000000 0.000000
# 2 -0.005339 0.023761 -0.006446 0.000000 0.000000 0.000000
# 3 -0.008039 -0.006446 0.019878 0.000000 0.000000 0.000000
# 4 0.000000 0.000000 0.000000 0.057525 0.000000 0.000000
# 5 0.000000 0.000000 0.000000 0.000000 0.029198 0.000000
# 6 0.000000 0.000000 0.000000 0.000000 0.000000 0.032234
#
#
# Mechanical properties :
#
#
# Convention : Reuss Voigt Hill
#
# Bulk Modulus (GPa) = 50.89339 56.39124 53.64232
# Shear Modulus (GPa) = 22.27679 24.58009 23.42844
#
# Velocity S-wave (km/s) = 3.58327 3.76395 3.67472
# Velocity P-wave (km/s) = 6.81567 7.16884 6.99449
#
# Compressibility (1/GPa) = 0.01964892
#
# Stress axis : x y z
#
# Youngs Moduli (GPa) = 63.87035 42.08579 50.30651
#
# Poissons Ratio (x) = 0.22468 0.40443
# Poissons Ratio (y) = 0.34098 0.32425
# Poissons Ratio (z) = 0.51347 0.27127
#
# Static dielectric constant tensor:
#      x y z
#    x 3.316680 0.000000 0.000000 
#    y 0.000000 3.211040 0.000000 
#    z 0.000000 0.000000 3.282080 
# 
# 
# High freq. dielectric constant tensor:
#      x y z
#    x 1.673390 0.000000 0.000000 
#    y 0.000000 1.673360 0.000000 
#    z 0.000000 0.000000 1.654650 
# 
# From -- ./inp_files/15755.got.cif
#   From: 2010.03.12/outbox.cif.g09.slc.cpg/sg59_8_cif.got.tgz:15755.got - 2010.04.16 16:29:54.
