data_PCOD8241418
_publ_section_title
;
Structure prediction by ZEFSAII (Michael W. Deem and Ramdas Pophale) SiO2 
 PCOD8241418
Probable space group: P M M N
;
_chemical_formula_sum "Si O2"
_cell_formula_units_Z 56
_cell_length_a 8.984865
_cell_length_b 15.726088
_cell_length_c 20.935032
_cell_angle_alpha 90.000000
_cell_angle_beta 90.000000
_cell_angle_gamma 90.000000
_cell_volume 2958.052562
_symmetry_space_group_name_H-M "P M M N"
_symmetry_group_IT_number 59
_space_group.IT_coordinate_system_code '2'
_symmetry_cell_setting 'orthorhombic'
loop_
_space_group_symop_operation_xyz
x,y,z
1/2-x,1/2-y,z
1/2+x,-y,-z
-x,1/2+y,-z
-x,-y,-z
1/2+x,1/2+y,-z
1/2-x,y,z
x,1/2-y,z
loop_
_atom_site_type_symbol
_atom_site_label
_atom_site_fract_x
_atom_site_fract_y
_atom_site_fract_z
Si Si1 0.927502 0.508168 0.347932
Si Si2 0.922809 0.750000 0.063464
Si Si3 0.423392 0.847779 0.430158
Si Si4 0.910959 0.111889 0.010498
Si Si5 0.428167 0.250000 0.793425
Si Si6 0.426552 0.923307 0.228155
Si Si7 0.088263 0.482820 0.100970
Si Si8 0.926218 0.343719 0.424314
O O1 0.750000 0.508808 0.340131
O O2 0.985714 0.420478 0.380283
O O3 0.976132 0.590260 0.388122
O O4 0.007729 0.510687 0.279338
O O5 0.750000 0.750000 0.073198
O O6 0.992709 0.750000 0.134193
O O7 0.968544 0.668925 0.023740
O O8 0.250000 0.871391 0.421112
O O9 0.450941 0.750000 0.409292
O O10 0.475720 0.860990 0.503041
O O11 0.750000 0.157227 0.018573
O O12 0.888833 0.031247 0.965454
O O13 0.969013 0.089817 0.082373
O O14 0.250000 0.250000 0.788261
O O15 0.494297 0.333075 0.759248
O O16 0.250000 0.912546 0.235964
O O17 0.471606 0.957842 0.158039
O O18 0.250000 0.444772 0.121345
O O19 0.750000 0.341587 0.421852
O O20 0.986403 0.250000 0.402052
#
# Coordination Sequence:
#
# PCOD8241418 Si02
#       8
#     8   4   8   8   4   8   8   8
#     4  11  22  34  54  84 115 146 187 238 282 329
#     4  11  21  33  53  81 111 139 170 217 276 329
#     4   9  18  34  56  81 112 151 188 224 277 341
#     4  10  19  32  54  79 104 133 174 221 263 316
#     4  11  23  37  55  81 111 143 184 229 270 321
#     4  11  23  39  57  76 109 152 187 219 271 339
#     4   9  19  35  53  75 101 136 176 217 265 319
#     4   8  16  34  59  83 107 141 187 236 287 337
#
# _framework density 18.931376
#
# number of rings (size 3 to 8) (size 9 to 14) (size 15 to 20)
#    0.000    2.143    1.429    3.000    1.000    2.571 
#    0.000    0.714    1.571    3.429    0.000    0.000 
#    0.000    0.000    0.000    0.000    0.000    0.000 
#
# Total GULP energy -694079.698511 kJ/mol
# GULP energy per Si atom -12394.280331 kJ/mol
# Density = 1.888829 g / cm^3
# Si number density = 18.931376 Si / 1000 Ang^3
#
#
#
# Elastic Constant Matrix: (Units=GPa)
#
#
# Indices 1 2 3 4 5 6 
#
# 1 70.5818 30.0478 32.8475 0.0000 0.0000 0.0000
# 2 30.0478 81.2556 43.0455 0.0000 0.0000 0.0000
# 3 32.8475 43.0455 86.7284 0.0000 0.0000 0.0000
# 4 0.0000 0.0000 0.0000 28.4842 0.0000 0.0000
# 5 0.0000 0.0000 0.0000 0.0000 26.9724 0.0000
# 6 0.0000 0.0000 0.0000 0.0000 0.0000 25.1992
#
#
#
# Elastic Compliance Matrix: (Units=1/GPa)
#
#
# Indices 1 2 3 4 5 6 
#
# 1 0.018186 -0.004174 -0.004816 0.000000 0.000000 0.000000
# 2 -0.004174 0.017655 -0.007182 0.000000 0.000000 0.000000
# 3 -0.004816 -0.007182 0.016919 0.000000 0.000000 0.000000
# 4 0.000000 0.000000 0.000000 0.035107 0.000000 0.000000
# 5 0.000000 0.000000 0.000000 0.000000 0.037075 0.000000
# 6 0.000000 0.000000 0.000000 0.000000 0.000000 0.039684
#
#
# Mechanical properties :
#
#
# Convention : Reuss Voigt Hill
#
# Bulk Modulus (GPa) = 48.98046 50.04972 49.51509
# Shear Modulus (GPa) = 24.53687 24.97281 24.75484
#
# Velocity S-wave (km/s) = 3.60404 3.63591 3.62001
# Velocity P-wave (km/s) = 6.57629 6.64239 6.60942
#
# Compressibility (1/GPa) = 0.02041630
#
# Stress axis : x y z
#
# Youngs Moduli (GPa) = 54.98678 56.64178 59.10552
#
# Poissons Ratio (x) = 0.23640 0.28467
# Poissons Ratio (y) = 0.22950 0.42448
# Poissons Ratio (z) = 0.26484 0.40679
#
# Static dielectric constant tensor:
#      x y z
#    x 3.551490 0.000000 0.000000 
#    y 0.000000 3.410480 0.000000 
#    z 0.000000 0.000000 3.473640 
# 
# 
# High freq. dielectric constant tensor:
#      x y z
#    x 1.731040 0.000000 0.000000 
#    y 0.000000 1.723480 0.000000 
#    z 0.000000 0.000000 1.725980 
# 
# From -- ./inp_files/29219.got.cif
#   From: 2010.03.12/outbox.cif.g09.slc.cpg/sg59_15_cif.got.tgz:29219.got - 2010.04.16 16:29:54.
