data_PCOD8241357
_publ_section_title
;
Structure prediction by ZEFSAII (Michael W. Deem and Ramdas Pophale) SiO2 
 PCOD8241357
Probable space group: P M M N
;
_chemical_formula_sum "Si O2"
_cell_formula_units_Z 64
_cell_length_a 14.038097
_cell_length_b 9.143658
_cell_length_c 25.883704
_cell_angle_alpha 90.000000
_cell_angle_beta 90.000000
_cell_angle_gamma 90.000000
_cell_volume 3322.420803
_symmetry_space_group_name_H-M "P M M N"
_symmetry_group_IT_number 59
_space_group.IT_coordinate_system_code '2'
_symmetry_cell_setting 'orthorhombic'
loop_
_space_group_symop_operation_xyz
x,y,z
1/2-x,1/2-y,z
1/2+x,-y,-z
-x,1/2+y,-z
-x,-y,-z
1/2+x,1/2+y,-z
1/2-x,y,z
x,1/2-y,z
loop_
_atom_site_type_symbol
_atom_site_label
_atom_site_fract_x
_atom_site_fract_y
_atom_site_fract_z
Si Si1 0.857295 0.920183 0.833682
Si Si2 0.146822 0.589431 0.867434
Si Si3 0.100249 0.586930 0.061935
Si Si4 0.638962 0.423794 0.327761
Si Si5 0.859043 0.418563 0.520559
Si Si6 0.617823 0.911917 0.033781
Si Si7 0.533358 0.078746 0.226762
Si Si8 0.448405 0.420487 0.574275
O O1 0.750000 0.965561 0.819470
O O2 0.865313 0.750000 0.848440
O O3 0.920706 0.953451 0.782077
O O4 0.894125 0.010281 0.882662
O O5 0.250000 0.608548 0.841529
O O6 0.104507 0.750000 0.882435
O O7 0.161100 0.494322 0.917867
O O8 0.081944 0.510518 0.824456
O O9 0.144097 0.750000 0.066376
O O10 0.994210 0.595241 0.041132
O O11 0.154086 0.492690 0.018348
O O12 0.750000 0.471687 0.324461
O O13 0.630963 0.250000 0.332593
O O14 0.579450 0.487158 0.278650
O O15 0.585816 0.493664 0.375895
O O16 0.750000 0.452075 0.539450
O O17 0.866792 0.250000 0.502276
O O18 0.884898 0.522626 0.473107
O O19 0.937795 0.448071 0.565404
O O20 0.661054 0.750000 0.031277
O O21 0.556441 0.250000 0.227762
O O22 0.426957 0.250000 0.581441
#
# Coordination Sequence:
#
# PCOD8241357 Si02
#       8
#     8   8   8   8   8   8   8   8
#     4  10  20  35  57  80 100 128 167 213 266 315
#     4  10  19  32  53  77  99 128 165 204 251 306
#     4  10  20  34  53  75 100 132 167 203 248 307
#     4  10  20  35  56  80 108 146 186 220 263 321
#     4   9  18  34  55  78 110 154 195 227 268 326
#     4  10  20  33  51  75 103 133 163 201 253 308
#     4   9  18  35  56  76 101 132 171 217 256 304
#     4  10  20  33  52  82 116 147 185 235 279 315
#
# _framework density 19.263064
#
# number of rings (size 3 to 8) (size 9 to 14) (size 15 to 20)
#    0.000    2.250    1.250    1.875    0.000    6.000 
#    0.000    1.875    0.000    2.250    0.000    0.000 
#    0.000    0.000    0.000    0.000    0.000    0.000 
#
# Total GULP energy -793053.170125 kJ/mol
# GULP energy per Si atom -12391.455783 kJ/mol
# Density = 1.921922 g / cm^3
# Si number density = 19.263064 Si / 1000 Ang^3
#
#
#
# Elastic Constant Matrix: (Units=GPa)
#
#
# Indices 1 2 3 4 5 6 
#
# 1 117.4972 34.0836 59.6892 0.0000 0.0000 0.0000
# 2 34.0836 77.0165 43.8841 0.0000 0.0000 0.0000
# 3 59.6892 43.8841 127.0445 0.0000 0.0000 0.0000
# 4 0.0000 0.0000 0.0000 25.3913 0.0000 0.0000
# 5 0.0000 0.0000 0.0000 0.0000 12.0787 0.0000
# 6 0.0000 0.0000 0.0000 0.0000 0.0000 11.4344
#
#
#
# Elastic Compliance Matrix: (Units=1/GPa)
#
#
# Indices 1 2 3 4 5 6 
#
# 1 0.011558 -0.002516 -0.004561 0.000000 0.000000 0.000000
# 2 -0.002516 0.016714 -0.004591 0.000000 0.000000 0.000000
# 3 -0.004561 -0.004591 0.011600 0.000000 0.000000 0.000000
# 4 0.000000 0.000000 0.000000 0.039384 0.000000 0.000000
# 5 0.000000 0.000000 0.000000 0.000000 0.082791 0.000000
# 6 0.000000 0.000000 0.000000 0.000000 0.000000 0.087455
#
#
# Mechanical properties :
#
#
# Convention : Reuss Voigt Hill
#
# Bulk Modulus (GPa) = 60.47769 66.31911 63.39840
# Shear Modulus (GPa) = 17.96304 22.04096 20.00200
#
# Velocity S-wave (km/s) = 3.05702 3.38628 3.22586
# Velocity P-wave (km/s) = 6.62754 7.05635 6.84531
#
# Compressibility (1/GPa) = 0.01653502
#
# Stress axis : x y z
#
# Youngs Moduli (GPa) = 86.52225 59.83093 86.20607
#
# Poissons Ratio (x) = 0.15053 0.39319
# Poissons Ratio (y) = 0.21769 0.39579
# Poissons Ratio (z) = 0.39464 0.27470
#
# Static dielectric constant tensor:
#      x y z
#    x 3.803150 0.000000 0.000000 
#    y 0.000000 3.468070 0.000000 
#    z 0.000000 0.000000 3.409260 
# 
# 
# High freq. dielectric constant tensor:
#      x y z
#    x 1.765450 0.000000 0.000000 
#    y 0.000000 1.734700 0.000000 
#    z 0.000000 0.000000 1.726520 
# 
# From -- ./inp_files/32147.got.cif
#   From: 2010.03.12/outbox.cif.g09.slc.cpg/sg59_17_cif.got.tgz:32147.got - 2010.04.16 16:29:54.
