data_PCOD8241852
_publ_section_title
;
Structure prediction by ZEFSAII (Michael W. Deem and Ramdas Pophale) SiO2 
 PCOD8241852
Probable space group: P M M N
;
_chemical_formula_sum "Si O2"
_cell_formula_units_Z 64
_cell_length_a 19.927680
_cell_length_b 8.888200
_cell_length_c 20.108467
_cell_angle_alpha 90.000000
_cell_angle_beta 90.000000
_cell_angle_gamma 90.000000
_cell_volume 3561.635913
_symmetry_space_group_name_H-M "P M M N"
_symmetry_group_IT_number 59
_space_group.IT_coordinate_system_code '2'
_symmetry_cell_setting 'orthorhombic'
loop_
_space_group_symop_operation_xyz
x,y,z
1/2-x,1/2-y,z
1/2+x,-y,-z
-x,1/2+y,-z
-x,-y,-z
1/2+x,1/2+y,-z
1/2-x,y,z
x,1/2-y,z
loop_
_atom_site_type_symbol
_atom_site_label
_atom_site_fract_x
_atom_site_fract_y
_atom_site_fract_z
Si Si1 0.101926 0.422439 0.698926
Si Si2 0.947283 0.076995 0.670179
Si Si3 0.324448 0.571211 0.945828
Si Si4 0.570823 0.927370 0.805923
Si Si5 0.171865 0.923511 0.095790
Si Si6 0.324456 0.428861 0.570182
Si Si7 0.578848 0.072355 0.167639
Si Si8 0.565231 0.928721 0.532609
O O1 0.118356 0.250000 0.715463
O O2 0.149553 0.488999 0.641409
O O3 0.114662 0.516751 0.765381
O O4 0.026876 0.440740 0.672321
O O5 0.925269 0.250000 0.664431
O O6 0.913903 0.007192 0.735951
O O7 0.920793 0.986682 0.606654
O O8 0.250000 0.509895 0.927127
O O9 0.322838 0.750000 0.942723
O O10 0.380161 0.505034 0.895234
O O11 0.343233 0.522240 0.020629
O O12 0.570703 0.750000 0.794225
O O13 0.498580 0.982240 0.834682
O O14 0.628650 0.971250 0.856790
O O15 0.250000 0.945495 0.112749
O O16 0.150877 0.750000 0.105833
O O17 0.250000 0.492333 0.557528
O O18 0.325451 0.250000 0.572932
O O19 0.371475 0.484248 0.510540
O O20 0.582683 0.250000 0.166438
O O21 0.556981 0.750000 0.532516
O O22 0.500000 0.000000 0.500000
#
# Coordination Sequence:
#
# PCOD8241852 Si02
#       8
#     8   8   8   8   8   8   8   8
#     4   9  17  31  49  71  98 132 170 204 249 302
#     4  10  19  34  54  77 101 132 174 216 254 302
#     4   8  15  30  51  72  98 135 175 211 253 308
#     4  10  20  33  50  77 108 136 165 210 265 313
#     4   9  18  34  55  75  96 131 177 218 258 309
#     4   9  18  33  51  73 103 136 170 208 253 307
#     4   9  18  31  48  74 105 135 168 209 253 300
#     4  11  20  33  55  80 102 134 175 216 262 313
#
# _framework density 17.969270000000002
#
# number of rings (size 3 to 8) (size 9 to 14) (size 15 to 20)
#    0.000    2.625    1.250    1.875    0.000    2.250 
#    0.000    1.250    0.000    6.000    0.000    0.000 
#    0.000    0.000    0.000    0.000    0.000    0.000 
#
# Total GULP energy -793536.512124 kJ/mol
# GULP energy per Si atom -12399.008002 kJ/mol
# Density = 1.792837 g / cm^3
# Si number density = 17.969270 Si / 1000 Ang^3
#
#
#
# Elastic Constant Matrix: (Units=GPa)
#
#
# Indices 1 2 3 4 5 6 
#
# 1 97.3994 28.2238 76.4392 0.0000 0.0000 0.0000
# 2 28.2238 44.0225 32.9737 0.0000 0.0000 0.0000
# 3 76.4392 32.9737 145.7478 0.0000 0.0000 0.0000
# 4 0.0000 0.0000 0.0000 31.1154 0.0000 0.0000
# 5 0.0000 0.0000 0.0000 0.0000 32.1476 0.0000
# 6 0.0000 0.0000 0.0000 0.0000 0.0000 18.8851
#
#
#
# Elastic Compliance Matrix: (Units=1/GPa)
#
#
# Indices 1 2 3 4 5 6 
#
# 1 0.018504 -0.005532 -0.008453 0.000000 0.000000 0.000000
# 2 -0.005532 0.029004 -0.003661 0.000000 0.000000 0.000000
# 3 -0.008453 -0.003661 0.012123 0.000000 0.000000 0.000000
# 4 0.000000 0.000000 0.000000 0.032138 0.000000 0.000000
# 5 0.000000 0.000000 0.000000 0.000000 0.031107 0.000000
# 6 0.000000 0.000000 0.000000 0.000000 0.000000 0.052952
#
#
# Mechanical properties :
#
#
# Convention : Reuss Voigt Hill
#
# Bulk Modulus (GPa) = 41.08516 62.49368 51.78942
# Shear Modulus (GPa) = 22.80690 26.39849 24.60270
#
# Velocity S-wave (km/s) = 3.56647 3.83703 3.70422
# Velocity P-wave (km/s) = 6.31454 7.38133 6.86867
#
# Compressibility (1/GPa) = 0.02433969
#
# Stress axis : x y z
#
# Youngs Moduli (GPa) = 54.04232 34.47796 82.48988
#
# Poissons Ratio (x) = 0.19072 0.69730
# Poissons Ratio (y) = 0.29895 0.30196
# Poissons Ratio (z) = 0.45683 0.12621
#
# Static dielectric constant tensor:
#      x y z
#    x 3.402980 0.000000 0.000000 
#    y 0.000000 3.095460 0.000000 
#    z 0.000000 0.000000 3.538680 
# 
# 
# High freq. dielectric constant tensor:
#      x y z
#    x 1.684020 0.000000 0.000000 
#    y 0.000000 1.673530 0.000000 
#    z 0.000000 0.000000 1.706040 
# 
# From -- ./inp_files/28139.got.cif
#   From: 2010.03.12/outbox.cif.g09.slc.cpg/sg59_15_cif.got.tgz:28139.got - 2010.04.16 16:29:54.
