data_PCOD8241996
_publ_section_title
;
Structure prediction by ZEFSAII (Michael W. Deem and Ramdas Pophale) SiO2 
 PCOD8241996
Probable space group: P M M N
;
_chemical_formula_sum "Si O2"
_cell_formula_units_Z 56
_cell_length_a 13.751726
_cell_length_b 23.134562
_cell_length_c 9.590461
_cell_angle_alpha 90.000000
_cell_angle_beta 90.000000
_cell_angle_gamma 90.000000
_cell_volume 3051.110775
_symmetry_space_group_name_H-M "P M M N"
_symmetry_group_IT_number 59
_space_group.IT_coordinate_system_code '2'
_symmetry_cell_setting 'orthorhombic'
loop_
_space_group_symop_operation_xyz
x,y,z
1/2-x,1/2-y,z
1/2+x,-y,-z
-x,1/2+y,-z
-x,-y,-z
1/2+x,1/2+y,-z
1/2-x,y,z
x,1/2-y,z
loop_
_atom_site_type_symbol
_atom_site_label
_atom_site_fract_x
_atom_site_fract_y
_atom_site_fract_z
Si Si1 0.994092 0.315737 0.175914
Si Si2 0.357477 0.135643 0.988245
Si Si3 0.642190 0.611040 0.318777
Si Si4 0.984174 0.501772 0.335021
Si Si5 0.640150 0.682081 0.586398
Si Si6 0.135039 0.922641 0.848564
Si Si7 0.863617 0.991506 0.903271
O O1 0.957542 0.250000 0.198820
O O2 0.901995 0.356519 0.145577
O O3 0.059891 0.339691 0.303770
O O4 0.066750 0.317703 0.045254
O O5 0.250000 0.148013 0.049544
O O6 0.356549 0.146438 0.823873
O O7 0.389420 0.070375 0.029303
O O8 0.750000 0.584714 0.346892
O O9 0.564072 0.561938 0.299210
O O10 0.610715 0.653799 0.440890
O O11 0.911460 0.450831 0.289248
O O12 0.000000 0.500000 0.500000
O O13 0.083540 0.498094 0.245812
O O14 0.750000 0.663922 0.632033
O O15 0.633505 0.750000 0.567968
O O16 0.250000 0.922028 0.832366
O O17 0.102843 0.959259 0.985613
O O18 0.750000 0.998025 0.872497
#
# Coordination Sequence:
#
# PCOD8241996 Si02
#       7
#     8   8   8   8   8   8   8
#     4  11  22  36  55  81 109 144 188 231 271 321
#     4  10  19  34  57  83 110 141 179 226 276 330
#     4  10  20  33  52  79 109 143 182 223 273 329
#     4  12  22  34  55  84 115 143 180 229 278 329
#     4   9  19  36  54  75 110 150 184 223 277 334
#     4  11  22  39  59  79 109 151 189 227 272 328
#     4  10  21  38  59  81 111 148 182 221 280 337
#
# _framework density 18.35397
#
# number of rings (size 3 to 8) (size 9 to 14) (size 15 to 20)
#    0.000    1.571    2.857    3.000    0.000    2.857 
#    0.000    1.429    0.000    0.000    0.000    0.000 
#    0.000    6.857    0.000    0.000    0.000    0.000 
#
# Total GULP energy -694298.482619 kJ/mol
# GULP energy per Si atom -12398.187190 kJ/mol
# Density = 1.831220 g / cm^3
# Si number density = 18.353970 Si / 1000 Ang^3
#
#
#
# Elastic Constant Matrix: (Units=GPa)
#
#
# Indices 1 2 3 4 5 6 
#
# 1 73.2610 27.5745 36.6409 0.0000 0.0000 0.0000
# 2 27.5745 49.9196 31.4823 0.0000 0.0000 0.0000
# 3 36.6409 31.4823 106.0884 0.0000 0.0000 0.0000
# 4 0.0000 0.0000 0.0000 27.1982 0.0000 0.0000
# 5 0.0000 0.0000 0.0000 0.0000 26.0262 0.0000
# 6 0.0000 0.0000 0.0000 0.0000 0.0000 18.5272
#
#
#
# Elastic Compliance Matrix: (Units=1/GPa)
#
#
# Indices 1 2 3 4 5 6 
#
# 1 0.018611 -0.007660 -0.004155 0.000000 0.000000 0.000000
# 2 -0.007660 0.027797 -0.005603 0.000000 0.000000 0.000000
# 3 -0.004155 -0.005603 0.012524 0.000000 0.000000 0.000000
# 4 0.000000 0.000000 0.000000 0.036767 0.000000 0.000000
# 5 0.000000 0.000000 0.000000 0.000000 0.038423 0.000000
# 6 0.000000 0.000000 0.000000 0.000000 0.000000 0.053975
#
#
# Mechanical properties :
#
#
# Convention : Reuss Voigt Hill
#
# Bulk Modulus (GPa) = 41.50090 46.74047 44.12069
# Shear Modulus (GPa) = 21.64830 23.25506 22.45168
#
# Velocity S-wave (km/s) = 3.43809 3.56340 3.50131
# Velocity P-wave (km/s) = 6.19848 6.51551 6.35897
#
# Compressibility (1/GPa) = 0.02409586
#
# Stress axis : x y z
#
# Youngs Moduli (GPa) = 53.73192 35.97471 79.84754
#
# Poissons Ratio (x) = 0.27557 0.33174
# Poissons Ratio (y) = 0.41159 0.44741
# Poissons Ratio (z) = 0.22324 0.20158
#
# Static dielectric constant tensor:
#      x y z
#    x 3.483380 0.000000 0.000000 
#    y 0.000000 3.632190 0.000000 
#    z 0.000000 0.000000 3.654170 
# 
# 
# High freq. dielectric constant tensor:
#      x y z
#    x 1.708980 0.000000 0.000000 
#    y 0.000000 1.700590 0.000000 
#    z 0.000000 0.000000 1.716010 
# 
# From -- ./inp_files/9335.got.cif
#   From: 2010.03.12/outbox.cif.g09.slc.cpg/sg59_5_cif.got.tgz:9335.got - 2010.04.16 16:29:54.
