data_PCOD8241588
_publ_section_title
;
Structure prediction by ZEFSAII (Michael W. Deem and Ramdas Pophale) SiO2 
 PCOD8241588
Probable space group: P M M N
;
_chemical_formula_sum "Si O2"
_cell_formula_units_Z 48
_cell_length_a 14.464873
_cell_length_b 8.996427
_cell_length_c 20.364164
_cell_angle_alpha 90.000000
_cell_angle_beta 90.000000
_cell_angle_gamma 90.000000
_cell_volume 2650.032933
_symmetry_space_group_name_H-M "P M M N"
_symmetry_group_IT_number 59
_space_group.IT_coordinate_system_code '2'
_symmetry_cell_setting 'orthorhombic'
loop_
_space_group_symop_operation_xyz
x,y,z
1/2-x,1/2-y,z
1/2+x,-y,-z
-x,1/2+y,-z
-x,-y,-z
1/2+x,1/2+y,-z
1/2-x,y,z
x,1/2-y,z
loop_
_atom_site_type_symbol
_atom_site_label
_atom_site_fract_x
_atom_site_fract_y
_atom_site_fract_z
Si Si1 0.061713 0.424672 0.944377
Si Si2 0.750000 0.072220 0.025863
Si Si3 0.056937 0.074399 0.315411
Si Si4 0.750000 0.421565 0.488460
Si Si5 0.447505 0.923320 0.558989
Si Si6 0.250000 0.425628 0.372434
Si Si7 0.750000 0.426597 0.875860
Si Si8 0.559363 0.422568 0.817923
O O1 0.071413 0.250000 0.960005
O O2 0.160502 0.503694 0.939349
O O3 0.014535 0.451890 0.874477
O O4 0.000000 0.500000 0.000000
O O5 0.750000 0.250000 0.032900
O O6 0.750000 0.018053 0.950655
O O7 0.054297 0.250000 0.307801
O O8 0.159756 0.017423 0.333791
O O9 0.986308 0.018548 0.371532
O O10 0.024568 0.004103 0.247191
O O11 0.750000 0.250000 0.509646
O O12 0.661093 0.460686 0.444296
O O13 0.750000 0.515915 0.554055
O O14 0.467988 0.750000 0.552059
O O15 0.500000 0.000000 0.500000
O O16 0.250000 0.250000 0.378114
O O17 0.750000 0.250000 0.876774
O O18 0.658915 0.488679 0.839821
O O19 0.569450 0.250000 0.802066
#
# Coordination Sequence:
#
# PCOD8241588 Si02
#       8
#     8   4   8   4   8   4   4   8
#     4  11  22  38  60  87 117 152 193 240 288 341
#     4  11  21  38  61  87 118 150 191 240 289 342
#     4  10  21  35  52  78 113 147 183 228 278 333
#     4  10  20  33  54  83 107 137 183 228 271 325
#     4  10  20  35  55  79 109 142 181 228 273 326
#     4  10  19  33  53  80 113 143 174 228 282 323
#     4   9  17  34  56  82 114 146 180 226 280 334
#     4  10  21  37  57  81 115 152 187 230 279 336
#
# _framework density 18.112984000000001
#
# number of rings (size 3 to 8) (size 9 to 14) (size 15 to 20)
#    0.000    1.833    3.333    1.250    0.000    2.667 
#    0.000    0.833    0.000    1.000    0.000    0.000 
#    0.000    0.000    0.000    0.000    0.000    0.000 
#
# Total GULP energy -595311.375222 kJ/mol
# GULP energy per Si atom -12402.320317 kJ/mol
# Density = 1.807176 g / cm^3
# Si number density = 18.112984 Si / 1000 Ang^3
#
#
#
# Elastic Constant Matrix: (Units=GPa)
#
#
# Indices 1 2 3 4 5 6 
#
# 1 143.1191 47.4048 66.1159 0.0000 0.0000 0.0000
# 2 47.4048 54.9056 50.2530 0.0000 0.0000 0.0000
# 3 66.1159 50.2530 142.0560 0.0000 0.0000 0.0000
# 4 0.0000 0.0000 0.0000 33.7992 0.0000 0.0000
# 5 0.0000 0.0000 0.0000 0.0000 27.6620 0.0000
# 6 0.0000 0.0000 0.0000 0.0000 0.0000 23.5245
#
#
#
# Elastic Compliance Matrix: (Units=1/GPa)
#
#
# Indices 1 2 3 4 5 6 
#
# 1 0.010329 -0.006681 -0.002444 0.000000 0.000000 0.000000
# 2 -0.006681 0.031255 -0.007947 0.000000 0.000000 0.000000
# 3 -0.002444 -0.007947 0.010988 0.000000 0.000000 0.000000
# 4 0.000000 0.000000 0.000000 0.029587 0.000000 0.000000
# 5 0.000000 0.000000 0.000000 0.000000 0.036151 0.000000
# 6 0.000000 0.000000 0.000000 0.000000 0.000000 0.042509
#
#
# Mechanical properties :
#
#
# Convention : Reuss Voigt Hill
#
# Bulk Modulus (GPa) = 54.26476 74.18089 64.22283
# Shear Modulus (GPa) = 24.86251 28.75094 26.80673
#
# Velocity S-wave (km/s) = 3.70893 3.98843 3.85122
# Velocity P-wave (km/s) = 6.95454 7.89009 7.43704
#
# Compressibility (1/GPa) = 0.01842817
#
# Stress axis : x y z
#
# Youngs Moduli (GPa) = 96.81292 31.99460 91.00653
#
# Poissons Ratio (x) = 0.21377 0.22241
# Poissons Ratio (y) = 0.64684 0.72324
# Poissons Ratio (z) = 0.23660 0.25426
#
# Static dielectric constant tensor:
#      x y z
#    x 4.169770 0.000000 0.000000 
#    y 0.000000 3.141430 0.000000 
#    z 0.000000 0.000000 3.362340 
# 
# 
# High freq. dielectric constant tensor:
#      x y z
#    x 1.709010 0.000000 0.000000 
#    y 0.000000 1.692490 0.000000 
#    z 0.000000 0.000000 1.699970 
# 
# From -- ./inp_files/25702.got.cif
#   From: 2010.03.12/outbox.cif.g09.slc.cpg/sg59_13_cif.got.tgz:25702.got - 2010.04.16 16:29:54.
