data_PCOD8241665
_publ_section_title
;
Structure prediction by ZEFSAII (Michael W. Deem and Ramdas Pophale) SiO2 
 PCOD8241665
Probable space group: P M M N
;
_chemical_formula_sum "Si O2"
_cell_formula_units_Z 64
_cell_length_a 9.116412
_cell_length_b 19.404374
_cell_length_c 19.155780
_cell_angle_alpha 90.000000
_cell_angle_beta 90.000000
_cell_angle_gamma 90.000000
_cell_volume 3388.624304
_symmetry_space_group_name_H-M "P M M N"
_symmetry_group_IT_number 59
_space_group.IT_coordinate_system_code '2'
_symmetry_cell_setting 'orthorhombic'
loop_
_space_group_symop_operation_xyz
x,y,z
1/2-x,1/2-y,z
1/2+x,-y,-z
-x,1/2+y,-z
-x,-y,-z
1/2+x,1/2+y,-z
1/2-x,y,z
x,1/2-y,z
loop_
_atom_site_type_symbol
_atom_site_label
_atom_site_fract_x
_atom_site_fract_y
_atom_site_fract_z
Si Si1 0.575617 0.171582 0.699685
Si Si2 0.584249 0.415272 0.269701
Si Si3 0.077338 0.445636 0.949297
Si Si4 0.919677 0.169653 0.022240
Si Si5 0.578717 0.084064 0.571379
Si Si6 0.582709 0.829948 0.838739
Si Si7 0.081753 0.438034 0.789914
Si Si8 0.917048 0.056926 0.420958
O O1 0.750000 0.169747 0.704233
O O2 0.518132 0.250000 0.706367
O O3 0.516870 0.141284 0.625271
O O4 0.514271 0.126114 0.763501
O O5 0.750000 0.397691 0.244672
O O6 0.466287 0.370124 0.229664
O O7 0.552149 0.496159 0.258805
O O8 0.564467 0.397023 0.351567
O O9 0.250000 0.447616 0.963895
O O10 0.039681 0.460693 0.868665
O O11 0.000000 0.500000 0.000000
O O12 0.012951 0.369897 0.964203
O O13 0.750000 0.148273 0.018343
O O14 0.943666 0.250000 0.008315
O O15 0.979379 0.147286 0.097771
O O16 0.750000 0.079785 0.584014
O O17 0.540676 0.101770 0.490037
O O18 0.517001 0.009352 0.588136
O O19 0.750000 0.848689 0.857419
O O20 0.564244 0.750000 0.822234
O O21 0.250000 0.414170 0.786816
O O22 0.750000 0.030673 0.428063
#
# Coordination Sequence:
#
# PCOD8241665 Si02
#       8
#     8   8   8   8   8   8   8   8
#     4  10  21  36  54  78 111 149 189 233 278 327
#     4  10  19  33  54  80 110 142 180 225 270 324
#     4  11  23  38  58  84 113 145 181 229 284 334
#     4  10  21  38  59  80 105 141 183 226 275 333
#     4   9  17  31  51  77 106 138 179 225 273 319
#     4  10  21  36  55  80 109 141 178 221 271 329
#     4  10  22  38  55  79 110 142 181 226 271 324
#     4   9  17  30  52  79 106 137 177 224 270 319
#
# _framework density 18.886721000000001
#
# number of rings (size 3 to 8) (size 9 to 14) (size 15 to 20)
#    0.000    2.125    1.250    1.875    0.000    5.250 
#    0.000    3.125    0.000    2.250    0.000    0.000 
#    0.000    0.000    0.000    0.000    0.000    0.000 
#
# Total GULP energy -793528.836606 kJ/mol
# GULP energy per Si atom -12398.888072 kJ/mol
# Density = 1.884373 g / cm^3
# Si number density = 18.886721 Si / 1000 Ang^3
#
#
#
# Elastic Constant Matrix: (Units=GPa)
#
#
# Indices 1 2 3 4 5 6 
#
# 1 60.5628 32.7313 38.1856 0.0000 0.0000 0.0000
# 2 32.7313 62.2192 37.9465 0.0000 0.0000 0.0000
# 3 38.1856 37.9465 114.2991 0.0000 0.0000 0.0000
# 4 0.0000 0.0000 0.0000 31.0231 0.0000 0.0000
# 5 0.0000 0.0000 0.0000 0.0000 28.5197 0.0000
# 6 0.0000 0.0000 0.0000 0.0000 0.0000 30.7869
#
#
#
# Elastic Compliance Matrix: (Units=1/GPa)
#
#
# Indices 1 2 3 4 5 6 
#
# 1 0.025188 -0.010180 -0.005035 0.000000 0.000000 0.000000
# 2 -0.010180 0.024267 -0.004656 0.000000 0.000000 0.000000
# 3 -0.005035 -0.004656 0.011977 0.000000 0.000000 0.000000
# 4 0.000000 0.000000 0.000000 0.032234 0.000000 0.000000
# 5 0.000000 0.000000 0.000000 0.000000 0.035063 0.000000
# 6 0.000000 0.000000 0.000000 0.000000 0.000000 0.032481
#
#
# Mechanical properties :
#
#
# Convention : Reuss Voigt Hill
#
# Bulk Modulus (GPa) = 46.10286 50.53421 48.31854
# Shear Modulus (GPa) = 24.01743 26.61379 25.31561
#
# Velocity S-wave (km/s) = 3.56990 3.75791 3.66511
# Velocity P-wave (km/s) = 6.43859 6.75601 6.59921
#
# Compressibility (1/GPa) = 0.02169063
#
# Stress axis : x y z
#
# Youngs Moduli (GPa) = 39.70091 41.20872 83.49440
#
# Poissons Ratio (x) = 0.41949 0.42043
# Poissons Ratio (y) = 0.40414 0.38871
# Poissons Ratio (z) = 0.19991 0.19185
#
# Static dielectric constant tensor:
#      x y z
#    x 3.458700 0.000000 0.000000 
#    y 0.000000 3.339020 0.000000 
#    z 0.000000 0.000000 3.704110 
# 
# 
# High freq. dielectric constant tensor:
#      x y z
#    x 1.733410 0.000000 0.000000 
#    y 0.000000 1.713830 0.000000 
#    z 0.000000 0.000000 1.745650 
# 
# From -- ./inp_files/29613.got.cif
#   From: 2010.03.12/outbox.cif.g09.slc.cpg/sg59_15_cif.got.tgz:29613.got - 2010.04.16 16:29:54.
