data_PCOD8241856
_publ_section_title
;
Structure prediction by ZEFSAII (Michael W. Deem and Ramdas Pophale) SiO2 
 PCOD8241856
Probable space group: P M M N
;
_chemical_formula_sum "Si O2"
_cell_formula_units_Z 40
_cell_length_a 16.374179
_cell_length_b 9.009564
_cell_length_c 13.884552
_cell_angle_alpha 90.000000
_cell_angle_beta 90.000000
_cell_angle_gamma 90.000000
_cell_volume 2048.307616
_symmetry_space_group_name_H-M "P M M N"
_symmetry_group_IT_number 59
_space_group.IT_coordinate_system_code '2'
_symmetry_cell_setting 'orthorhombic'
loop_
_space_group_symop_operation_xyz
x,y,z
1/2-x,1/2-y,z
1/2+x,-y,-z
-x,1/2+y,-z
-x,-y,-z
1/2+x,1/2+y,-z
1/2-x,y,z
x,1/2-y,z
loop_
_atom_site_type_symbol
_atom_site_label
_atom_site_fract_x
_atom_site_fract_y
_atom_site_fract_z
Si Si1 0.250000 0.574600 0.956707
Si Si2 0.250000 0.077568 0.753982
Si Si3 0.921060 0.427464 0.949686
Si Si4 0.064294 0.575176 0.266504
Si Si5 0.341171 0.575187 0.449297
Si Si6 0.905216 0.924209 0.371021
O O1 0.250000 0.750000 0.959934
O O2 0.250000 0.520223 0.848385
O O3 0.334238 0.517509 0.006320
O O4 0.250000 0.250000 0.783239
O O5 0.327038 0.032953 0.690849
O O6 0.929643 0.250000 0.956867
O O7 0.919594 0.487861 0.839865
O O8 0.000000 0.500000 0.000000
O O9 0.055725 0.750000 0.256856
O O10 0.136730 0.531088 0.339582
O O11 0.981090 0.510392 0.311466
O O12 0.250000 0.517556 0.468853
O O13 0.349000 0.750000 0.463347
O O14 0.402260 0.499313 0.524360
O O15 0.913400 0.750000 0.388703
#
# Coordination Sequence:
#
# PCOD8241856 Si02
#       6
#     4   4   8   8   8   8
#     4  10  22  36  57  86 112 142 185 240 289 326
#     4  10  20  34  55  78 106 146 183 220 273 334
#     4  10  21  39  60  84 114 147 189 238 283 334
#     4   9  19  34  55  78 105 141 179 216 265 327
#     4  10  20  33  52  79 108 139 175 217 265 318
#     4  10  19  34  54  77 104 140 180 217 261 318
#
# _framework density 19.528317999999999
#
# number of rings (size 3 to 8) (size 9 to 14) (size 15 to 20)
#    0.000    2.200    1.000    1.800    1.400    3.200 
#    0.000    2.000    0.000    0.000    0.000    0.000 
#    0.000    0.000    0.000    0.000    0.000    0.000 
#
# Total GULP energy -495896.262656 kJ/mol
# GULP energy per Si atom -12397.406566 kJ/mol
# Density = 1.948387 g / cm^3
# Si number density = 19.528318 Si / 1000 Ang^3
#
#
#
# Elastic Constant Matrix: (Units=GPa)
#
#
# Indices 1 2 3 4 5 6 
#
# 1 117.4216 23.5506 44.6178 0.0000 0.0000 0.0000
# 2 23.5506 18.8416 23.0925 0.0000 0.0000 0.0000
# 3 44.6178 23.0925 141.0724 0.0000 0.0000 0.0000
# 4 0.0000 0.0000 0.0000 31.0991 0.0000 0.0000
# 5 0.0000 0.0000 0.0000 0.0000 23.8115 0.0000
# 6 0.0000 0.0000 0.0000 0.0000 0.0000 18.7672
#
#
#
# Elastic Compliance Matrix: (Units=1/GPa)
#
#
# Indices 1 2 3 4 5 6 
#
# 1 0.011657 -0.012575 -0.001628 0.000000 0.000000 0.000000
# 2 -0.012575 0.079959 -0.009112 0.000000 0.000000 0.000000
# 3 -0.001628 -0.009112 0.009095 0.000000 0.000000 0.000000
# 4 0.000000 0.000000 0.000000 0.032155 0.000000 0.000000
# 5 0.000000 0.000000 0.000000 0.000000 0.041997 0.000000
# 6 0.000000 0.000000 0.000000 0.000000 0.000000 0.053285
#
#
# Mechanical properties :
#
#
# Convention : Reuss Voigt Hill
#
# Bulk Modulus (GPa) = 18.49057 51.09525 34.79291
# Shear Modulus (GPa) = 17.07625 27.14053 22.10839
#
# Velocity S-wave (km/s) = 2.96029 3.73205 3.36835
# Velocity P-wave (km/s) = 4.60148 6.69272 5.74308
#
# Compressibility (1/GPa) = 0.05408161
#
# Stress axis : x y z
#
# Youngs Moduli (GPa) = 85.78428 12.50643 109.94916
#
# Poissons Ratio (x) = 0.15726 0.17905
# Poissons Ratio (y) = 1.07871 1.00181
# Poissons Ratio (z) = 0.13970 0.11395
#
# Static dielectric constant tensor:
#      x y z
#    x 3.943110 0.000000 0.000000 
#    y 0.000000 3.178700 0.000000 
#    z 0.000000 0.000000 3.743040 
# 
# 
# High freq. dielectric constant tensor:
#      x y z
#    x 1.778040 0.000000 0.000000 
#    y 0.000000 1.721090 0.000000 
#    z 0.000000 0.000000 1.775800 
# 
# From -- ./inp_files/22991.got.cif
#   From: 2010.03.12/outbox.cif.g09.slc.cpg/sg59_12_cif.got.tgz:22991.got - 2010.04.16 16:29:54.
