data_PCOD8241208
_publ_section_title
;
Structure prediction by ZEFSAII (Michael W. Deem and Ramdas Pophale) SiO2 
 PCOD8241208
Probable space group: P M M N
;
_chemical_formula_sum "Si O2"
_cell_formula_units_Z 64
_cell_length_a 19.423473
_cell_length_b 8.955914
_cell_length_c 19.073278
_cell_angle_alpha 90.000000
_cell_angle_beta 90.000000
_cell_angle_gamma 90.000000
_cell_volume 3317.891193
_symmetry_space_group_name_H-M "P M M N"
_symmetry_group_IT_number 59
_space_group.IT_coordinate_system_code '2'
_symmetry_cell_setting 'orthorhombic'
loop_
_space_group_symop_operation_xyz
x,y,z
1/2-x,1/2-y,z
1/2+x,-y,-z
-x,1/2+y,-z
-x,-y,-z
1/2+x,1/2+y,-z
1/2-x,y,z
x,1/2-y,z
loop_
_atom_site_type_symbol
_atom_site_label
_atom_site_fract_x
_atom_site_fract_y
_atom_site_fract_z
Si Si1 0.827750 0.411687 0.347004
Si Si2 0.172708 0.080044 0.521238
Si Si3 0.956884 0.578579 0.561143
Si Si4 0.428071 0.928805 0.143511
Si Si5 0.025922 0.074383 0.280977
Si Si6 0.891896 0.919843 0.236948
Si Si7 0.573959 0.919806 0.085110
Si Si8 0.829997 0.928300 0.961736
O O1 0.750000 0.386652 0.368585
O O2 0.862667 0.250000 0.331717
O O3 0.862392 0.486834 0.415107
O O4 0.826307 0.523748 0.280197
O O5 0.250000 0.027987 0.500940
O O6 0.173690 0.250000 0.547440
O O7 0.124371 0.059744 0.454085
O O8 0.980379 0.750000 0.560926
O O9 0.963946 0.512976 0.639803
O O10 0.000000 0.500000 0.500000
O O11 0.426472 0.750000 0.144175
O O12 0.497413 0.987030 0.101451
O O13 0.427700 0.986687 0.223712
O O14 0.359587 0.996318 0.108482
O O15 0.041944 0.250000 0.274978
O O16 0.947777 0.038269 0.262943
O O17 0.913205 0.750000 0.255080
O O18 0.878857 0.934686 0.154310
O O19 0.561995 0.750000 0.063453
O O20 0.620028 0.993793 0.023643
O O21 0.750000 0.976606 0.973021
O O22 0.834409 0.750000 0.956405
#
# Coordination Sequence:
#
# PCOD8241208 Si02
#       8
#     8   8   8   8   8   8   8   8
#     4  10  20  32  46  68 100 137 175 213 257 313
#     4   9  18  34  53  71  94 128 171 216 261 311
#     4  10  21  34  52  79 107 136 171 215 265 314
#     4  10  20  36  57  79 106 141 180 220 261 311
#     4  10  20  35  54  78 107 137 173 216 264 316
#     4  10  19  32  51  76 104 135 174 216 260 311
#     4   8  17  33  53  78 105 136 176 218 260 311
#     4  10  20  35  56  81 108 138 174 219 270 320
#
# _framework density 19.289361
#
# number of rings (size 3 to 8) (size 9 to 14) (size 15 to 20)
#    0.000    2.375    0.000    3.375    0.000    5.000 
#    0.000    5.000    0.000    2.250    0.000    0.000 
#    0.000    0.000    0.000    0.000    0.000    0.000 
#
# Total GULP energy -792891.863105 kJ/mol
# GULP energy per Si atom -12388.935361 kJ/mol
# Density = 1.924546 g / cm^3
# Si number density = 19.289361 Si / 1000 Ang^3
#
#
#
# Elastic Constant Matrix: (Units=GPa)
#
#
# Indices 1 2 3 4 5 6 
#
# 1 76.3641 27.5403 54.1283 0.0000 0.0000 0.0000
# 2 27.5403 59.0087 42.7868 0.0000 0.0000 0.0000
# 3 54.1283 42.7868 134.7448 0.0000 0.0000 0.0000
# 4 0.0000 0.0000 0.0000 26.8911 0.0000 0.0000
# 5 0.0000 0.0000 0.0000 0.0000 27.6713 0.0000
# 6 0.0000 0.0000 0.0000 0.0000 0.0000 23.5450
#
#
#
# Elastic Compliance Matrix: (Units=1/GPa)
#
#
# Indices 1 2 3 4 5 6 
#
# 1 0.019135 -0.004361 -0.006302 0.000000 0.000000 0.000000
# 2 -0.004361 0.023010 -0.005555 0.000000 0.000000 0.000000
# 3 -0.006302 -0.005555 0.011717 0.000000 0.000000 0.000000
# 4 0.000000 0.000000 0.000000 0.037187 0.000000 0.000000
# 5 0.000000 0.000000 0.000000 0.000000 0.036138 0.000000
# 6 0.000000 0.000000 0.000000 0.000000 0.000000 0.042472
#
#
# Mechanical properties :
#
#
# Convention : Reuss Voigt Hill
#
# Bulk Modulus (GPa) = 46.67188 57.66983 52.17086
# Shear Modulus (GPa) = 23.89651 25.33230 24.61440
#
# Velocity S-wave (km/s) = 3.52354 3.62785 3.57608
# Velocity P-wave (km/s) = 6.38764 6.89279 6.64502
#
# Compressibility (1/GPa) = 0.02142618
#
# Stress axis : x y z
#
# Youngs Moduli (GPa) = 52.26076 43.46003 85.34809
#
# Poissons Ratio (x) = 0.18954 0.53785
# Poissons Ratio (y) = 0.22792 0.47407
# Poissons Ratio (z) = 0.32934 0.24140
#
# Static dielectric constant tensor:
#      x y z
#    x 3.540240 0.000000 0.000000 
#    y 0.000000 3.560700 0.000000 
#    z 0.000000 0.000000 3.678200 
# 
# 
# High freq. dielectric constant tensor:
#      x y z
#    x 1.735380 0.000000 0.000000 
#    y 0.000000 1.740570 0.000000 
#    z 0.000000 0.000000 1.751920 
# 
# From -- ./inp_files/28235.got.cif
#   From: 2010.03.12/outbox.cif.g09.slc.cpg/sg59_15_cif.got.tgz:28235.got - 2010.04.16 16:29:54.
