data_PCOD8241735
_publ_section_title
;
Structure prediction by ZEFSAII (Michael W. Deem and Ramdas Pophale) SiO2 
 PCOD8241735
Probable space group: P M M N
;
_chemical_formula_sum "Si O2"
_cell_formula_units_Z 64
_cell_length_a 23.924233
_cell_length_b 8.567379
_cell_length_c 15.544015
_cell_angle_alpha 90.000000
_cell_angle_beta 90.000000
_cell_angle_gamma 90.000000
_cell_volume 3186.025222
_symmetry_space_group_name_H-M "P M M N"
_symmetry_group_IT_number 59
_space_group.IT_coordinate_system_code '2'
_symmetry_cell_setting 'orthorhombic'
loop_
_space_group_symop_operation_xyz
x,y,z
1/2-x,1/2-y,z
1/2+x,-y,-z
-x,1/2+y,-z
-x,-y,-z
1/2+x,1/2+y,-z
1/2-x,y,z
x,1/2-y,z
loop_
_atom_site_type_symbol
_atom_site_label
_atom_site_fract_x
_atom_site_fract_y
_atom_site_fract_z
Si Si1 0.382919 0.931289 0.586847
Si Si2 0.502395 0.568340 0.354598
Si Si3 0.883278 0.565979 0.906695
Si Si4 0.996237 0.433063 0.844101
Si Si5 0.315103 0.432532 0.742202
Si Si6 0.187093 0.064055 0.252405
Si Si7 0.388405 0.433028 0.410254
Si Si8 0.616329 0.935388 0.096025
O O1 0.377100 0.750000 0.566667
O O2 0.446780 0.969870 0.608111
O O3 0.342774 0.974921 0.664860
O O4 0.362213 0.027063 0.503027
O O5 0.516495 0.750000 0.366581
O O6 0.493598 0.523587 0.255792
O O7 0.446685 0.524641 0.405587
O O8 0.877620 0.750000 0.903388
O O9 0.947416 0.522820 0.892476
O O10 0.843227 0.494440 0.832812
O O11 0.865160 0.503837 0.001391
O O12 0.988671 0.250000 0.859206
O O13 0.054414 0.497017 0.881982
O O14 0.250000 0.468573 0.743240
O O15 0.328397 0.250000 0.730261
O O16 0.340291 0.495630 0.832261
O O17 0.250000 0.997059 0.256041
O O18 0.188264 0.250000 0.249616
O O19 0.153667 0.006379 0.336429
O O20 0.399511 0.250000 0.400207
O O21 0.615244 0.750000 0.097079
#
# Coordination Sequence:
#
# PCOD8241735 Si02
#       8
#     8   8   8   8   8   8   8   8
#     4  12  25  40  60  87 118 150 190 240 294 350
#     4  11  21  37  61  86 117 153 191 236 289 349
#     4  10  19  33  57  86 117 148 191 238 282 337
#     4  10  19  33  55  81 118 153 185 230 287 345
#     4  10  21  40  63  85 114 155 200 242 289 343
#     4   9  19  35  55  82 114 148 189 236 281 330
#     4  11  22  38  60  86 117 152 193 238 290 351
#     4   9  18  34  56  86 117 149 188 236 285 338
#
# _framework density 20.087726
#
# number of rings (size 3 to 8) (size 9 to 14) (size 15 to 20)
#    0.000    1.750    2.500    2.625    0.000    1.750 
#    0.000    4.375    0.000    3.000    0.000    0.000 
#    0.000    0.000    0.000    0.000    0.000    0.000 
#
# Total GULP energy -793736.216272 kJ/mol
# GULP energy per Si atom -12402.128379 kJ/mol
# Density = 2.004201 g / cm^3
# Si number density = 20.087726 Si / 1000 Ang^3
#
#
#
# Elastic Constant Matrix: (Units=GPa)
#
#
# Indices 1 2 3 4 5 6 
#
# 1 123.2132 15.4249 55.4322 0.0000 0.0000 0.0000
# 2 15.4249 29.0139 24.0570 0.0000 0.0000 0.0000
# 3 55.4322 24.0570 159.1131 0.0000 0.0000 0.0000
# 4 0.0000 0.0000 0.0000 18.5402 0.0000 0.0000
# 5 0.0000 0.0000 0.0000 0.0000 -5.6318 0.0000
# 6 0.0000 0.0000 0.0000 0.0000 0.0000 24.2529
#
#
#
# Elastic Compliance Matrix: (Units=1/GPa)
#
#
# Indices 1 2 3 4 5 6 
#
# 1 0.009809 -0.002723 -0.003006 0.000000 0.000000 0.000000
# 2 -0.002723 0.040162 -0.005124 0.000000 0.000000 0.000000
# 3 -0.003006 -0.005124 0.008107 0.000000 0.000000 0.000000
# 4 0.000000 0.000000 0.000000 0.053937 0.000000 0.000000
# 5 0.000000 0.000000 0.000000 0.000000 -0.177563 0.000000
# 6 0.000000 0.000000 0.000000 0.000000 0.000000 0.041232
#
#
# Mechanical properties :
#
#
# Convention : Reuss Voigt Hill
#
# Bulk Modulus (GPa) = 27.49250 55.68538 41.58894
# Shear Modulus (GPa) = 525.64434 21.86068 273.75251
#
# Velocity S-wave (km/s) = 16.19390 3.30246 11.68650
# Velocity P-wave (km/s) = 19.06233 6.50561 14.24246
#
# Compressibility (1/GPa) = 0.03637356
#
# Stress axis : x y z
#
# Youngs Moduli (GPa) = 101.94643 24.89912 123.35586
#
# Poissons Ratio (x) = 0.06779 0.37076
# Poissons Ratio (y) = 0.27757 0.63204
# Poissons Ratio (z) = 0.30641 0.12758
#
# Static dielectric constant tensor:
#      x y z
#    x 3.659060 0.000000 0.000000 
#    y 0.000000 3.277020 0.000000 
#    z 0.000000 0.000000 4.068740 
# 
# 
# High freq. dielectric constant tensor:
#      x y z
#    x 1.779560 0.000000 0.000000 
#    y 0.000000 1.751130 0.000000 
#    z 0.000000 0.000000 1.806450 
# 
# From -- ./inp_files/21548.got.cif
#   From: 2010.03.12/outbox.cif.g09.slc.cpg/sg59_11_cif.got.tgz:21548.got - 2010.04.16 16:29:54.
