data_PCOD8241551
_publ_section_title
;
Structure prediction by ZEFSAII (Michael W. Deem and Ramdas Pophale) SiO2 
 PCOD8241551
Probable space group: P M M N
;
_chemical_formula_sum "Si O2"
_cell_formula_units_Z 48
_cell_length_a 9.413515
_cell_length_b 19.114338
_cell_length_c 15.109171
_cell_angle_alpha 90.000000
_cell_angle_beta 90.000000
_cell_angle_gamma 90.000000
_cell_volume 2718.640089
_symmetry_space_group_name_H-M "P M M N"
_symmetry_group_IT_number 59
_space_group.IT_coordinate_system_code '2'
_symmetry_cell_setting 'orthorhombic'
loop_
_space_group_symop_operation_xyz
x,y,z
1/2-x,1/2-y,z
1/2+x,-y,-z
-x,1/2+y,-z
-x,-y,-z
1/2+x,1/2+y,-z
1/2-x,y,z
x,1/2-y,z
loop_
_atom_site_type_symbol
_atom_site_label
_atom_site_fract_x
_atom_site_fract_y
_atom_site_fract_z
Si Si1 0.085865 0.330548 0.554672
Si Si2 0.913586 0.330471 0.883056
Si Si3 0.582211 0.592225 0.268118
Si Si4 0.917946 0.435881 0.234841
Si Si5 0.584826 0.434729 0.036468
Si Si6 0.916953 0.169791 0.381657
O O1 0.250000 0.342795 0.531113
O O2 0.056333 0.250000 0.579560
O O3 0.037387 0.377716 0.636900
O O4 0.993511 0.354367 0.471187
O O5 0.750000 0.340383 0.855287
O O6 0.953904 0.250000 0.895946
O O7 0.010124 0.362353 0.807331
O O8 0.945209 0.367322 0.976578
O O9 0.750000 0.597628 0.253154
O O10 0.526735 0.512677 0.262248
O O11 0.750000 0.434002 0.240607
O O12 0.968720 0.417421 0.135644
O O13 0.978519 0.377822 0.302215
O O14 0.750000 0.455668 0.037286
O O15 0.500000 0.500000 0.000000
O O16 0.750000 0.159009 0.395895
O O17 0.953665 0.250000 0.358517
#
# Coordination Sequence:
#
# PCOD8241551 Si02
#       6
#     8   8   8   8   8   8
#     4   9  18  32  49  70  98 132 167 206 254 303
#     4  10  21  34  50  77 108 134 166 210 255 298
#     4  10  19  33  53  75 101 135 172 207 249 304
#     4   9  18  32  52  76 100 129 168 212 251 296
#     4  10  19  34  54  74 101 136 169 206 252 299
#     4   9  18  33  52  73  98 131 170 210 253 302
#
# _framework density 17.655885999999999
#
# number of rings (size 3 to 8) (size 9 to 14) (size 15 to 20)
#    0.000    2.500    1.667    0.500    0.000    3.000 
#    0.000    6.667    0.000    0.000    0.000    2.333 
#    0.000    0.000    0.000    0.000    0.000    0.000 
#
# Total GULP energy -595251.847130 kJ/mol
# GULP energy per Si atom -12401.080149 kJ/mol
# Density = 1.761570 g / cm^3
# Si number density = 17.655886 Si / 1000 Ang^3
#
#
#
# Elastic Constant Matrix: (Units=GPa)
#
#
# Indices 1 2 3 4 5 6 
#
# 1 36.6151 39.2336 52.9420 0.0000 0.0000 0.0000
# 2 39.2336 133.7690 99.5558 0.0000 0.0000 0.0000
# 3 52.9420 99.5558 184.9397 0.0000 0.0000 0.0000
# 4 0.0000 0.0000 0.0000 38.9847 0.0000 0.0000
# 5 0.0000 0.0000 0.0000 0.0000 27.2328 0.0000
# 6 0.0000 0.0000 0.0000 0.0000 0.0000 19.3078
#
#
#
# Elastic Compliance Matrix: (Units=1/GPa)
#
#
# Indices 1 2 3 4 5 6 
#
# 1 0.049944 -0.006687 -0.010698 0.000000 0.000000 0.000000
# 2 -0.006687 0.013368 -0.005282 0.000000 0.000000 0.000000
# 3 -0.010698 -0.005282 0.011313 0.000000 0.000000 0.000000
# 4 0.000000 0.000000 0.000000 0.025651 0.000000 0.000000
# 5 0.000000 0.000000 0.000000 0.000000 0.036720 0.000000
# 6 0.000000 0.000000 0.000000 0.000000 0.000000 0.051793
#
#
# Mechanical properties :
#
#
# Convention : Reuss Voigt Hill
#
# Bulk Modulus (GPa) = 34.13906 82.08740 58.11323
# Shear Modulus (GPa) = 20.50150 28.01122 24.25636
#
# Velocity S-wave (km/s) = 3.41129 3.98742 3.71056
# Velocity P-wave (km/s) = 5.90709 8.23367 7.16543
#
# Compressibility (1/GPa) = 0.02929196
#
# Stress axis : x y z
#
# Youngs Moduli (GPa) = 20.02253 74.80738 88.39484
#
# Poissons Ratio (x) = 0.50020 0.94562
# Poissons Ratio (y) = 0.13388 0.46689
# Poissons Ratio (z) = 0.21420 0.39512
#
# Static dielectric constant tensor:
#      x y z
#    x 3.100650 0.000000 0.000000 
#    y 0.000000 3.504480 0.000000 
#    z 0.000000 0.000000 3.555730 
# 
# 
# High freq. dielectric constant tensor:
#      x y z
#    x 1.660120 0.000000 0.000000 
#    y 0.000000 1.687130 0.000000 
#    z 0.000000 0.000000 1.693310 
# 
# From -- ./inp_files/15785.got.cif
#   From: 2010.03.12/outbox.cif.g09.slc.cpg/sg59_8_cif.got.tgz:15785.got - 2010.04.16 16:29:54.
