data_PCOD8241344
_publ_section_title
;
Structure prediction by ZEFSAII (Michael W. Deem and Ramdas Pophale) SiO2 
 PCOD8241344
Probable space group: P M M N
;
_chemical_formula_sum "Si O2"
_cell_formula_units_Z 64
_cell_length_a 9.195848
_cell_length_b 19.003923
_cell_length_c 20.349411
_cell_angle_alpha 90.000000
_cell_angle_beta 90.000000
_cell_angle_gamma 90.000000
_cell_volume 3556.205830
_symmetry_space_group_name_H-M "P M M N"
_symmetry_group_IT_number 59
_space_group.IT_coordinate_system_code '2'
_symmetry_cell_setting 'orthorhombic'
loop_
_space_group_symop_operation_xyz
x,y,z
1/2-x,1/2-y,z
1/2+x,-y,-z
-x,1/2+y,-z
-x,-y,-z
1/2+x,1/2+y,-z
1/2-x,y,z
x,1/2-y,z
loop_
_atom_site_type_symbol
_atom_site_label
_atom_site_fract_x
_atom_site_fract_y
_atom_site_fract_z
Si Si1 0.577530 0.076565 0.623061
Si Si2 0.585536 0.419106 0.240538
Si Si3 0.581727 0.332520 0.864679
Si Si4 0.911040 0.166421 0.010976
Si Si5 0.578291 0.171607 0.501760
Si Si6 0.919593 0.831298 0.864094
Si Si7 0.080610 0.418408 0.756201
Si Si8 0.919727 0.067399 0.389880
O O1 0.750000 0.068657 0.631154
O O2 0.534086 0.135220 0.569898
O O3 0.508366 0.102231 0.691252
O O4 0.512118 0.002838 0.598894
O O5 0.750000 0.399312 0.221183
O O6 0.477438 0.372349 0.198578
O O7 0.553852 0.500516 0.226000
O O8 0.556558 0.402378 0.316900
O O9 0.750000 0.351082 0.850234
O O10 0.555189 0.250000 0.855863
O O11 0.475138 0.372264 0.816067
O O12 0.538677 0.357788 0.938371
O O13 0.750000 0.137186 0.025757
O O14 0.909118 0.250000 0.011174
O O15 0.015849 0.137343 0.067994
O O16 0.750000 0.177116 0.496023
O O17 0.509445 0.250000 0.499043
O O18 0.520733 0.125644 0.440487
O O19 0.750000 0.842761 0.868150
O O20 0.962943 0.750000 0.855593
O O21 0.250000 0.403516 0.743168
O O22 0.750000 0.048828 0.401339
#
# Coordination Sequence:
#
# PCOD8241344 Si02
#       8
#     8   8   8   8   8   8   8   8
#     4  10  19  32  53  76 100 134 170 205 249 303
#     4   9  19  34  51  72  98 131 170 209 249 298
#     4   9  18  33  54  79 104 132 168 208 252 303
#     4   8  15  30  51  73  99 132 168 204 244 297
#     4   9  18  32  51  77 105 131 164 207 251 295
#     4  10  20  32  49  75 103 130 164 208 254 300
#     4  10  21  36  53  75 103 134 172 214 252 295
#     4   9  18  34  55  75  97 129 169 210 248 294
#
# _framework density 17.996708000000002
#
# number of rings (size 3 to 8) (size 9 to 14) (size 15 to 20)
#    0.000    2.750    0.000    3.000    0.000    5.000 
#    0.000    5.000    0.000    3.000    0.000    0.000 
#    0.000    0.000    0.000    0.000    0.000    0.000 
#
# Total GULP energy -793535.968268 kJ/mol
# GULP energy per Si atom -12398.999504 kJ/mol
# Density = 1.795575 g / cm^3
# Si number density = 17.996708 Si / 1000 Ang^3
#
#
#
# Elastic Constant Matrix: (Units=GPa)
#
#
# Indices 1 2 3 4 5 6 
#
# 1 75.4676 45.9789 60.0459 0.0000 0.0000 0.0000
# 2 45.9789 75.1941 64.1396 0.0000 0.0000 0.0000
# 3 60.0459 64.1396 126.0128 0.0000 0.0000 0.0000
# 4 0.0000 0.0000 0.0000 -67.3692 0.0000 0.0000
# 5 0.0000 0.0000 0.0000 0.0000 28.9245 0.0000
# 6 0.0000 0.0000 0.0000 0.0000 0.0000 27.5143
#
#
#
# Elastic Compliance Matrix: (Units=1/GPa)
#
#
# Indices 1 2 3 4 5 6 
#
# 1 0.024231 -0.008779 -0.007077 0.000000 0.000000 0.000000
# 2 -0.008779 0.026684 -0.009399 0.000000 0.000000 0.000000
# 3 -0.007077 -0.009399 0.016092 0.000000 0.000000 0.000000
# 4 0.000000 0.000000 0.000000 -0.014844 0.000000 0.000000
# 5 0.000000 0.000000 0.000000 0.000000 0.034573 0.000000
# 6 0.000000 0.000000 0.000000 0.000000 0.000000 0.036345
#
#
# Mechanical properties :
#
#
# Convention : Reuss Voigt Hill
#
# Bulk Modulus (GPa) = 60.62085 68.55593 64.58839
# Shear Modulus (GPa) = 27.91888 4.91460 16.41674
#
# Velocity S-wave (km/s) = 3.94297 1.65432 3.02355
# Velocity P-wave (km/s) = 7.38152 6.46725 6.93946
#
# Compressibility (1/GPa) = 0.01649597
#
# Stress axis : x y z
#
# Youngs Moduli (GPa) = 41.26982 37.47556 62.14280
#
# Poissons Ratio (x) = 0.32901 0.43982
# Poissons Ratio (y) = 0.36232 0.58405
# Poissons Ratio (z) = 0.29209 0.35222
#
# Static dielectric constant tensor:
#      x y z
#    x 3.254910 0.000000 0.000000 
#    y 0.000000 3.235940 0.000000 
#    z 0.000000 0.000000 3.524540 
# 
# 
# High freq. dielectric constant tensor:
#      x y z
#    x 1.687710 0.000000 0.000000 
#    y 0.000000 1.677830 0.000000 
#    z 0.000000 0.000000 1.710910 
# 
# From -- ./inp_files/29611.got.cif
#   From: 2010.03.12/outbox.cif.g09.slc.cpg/sg59_15_cif.got.tgz:29611.got - 2010.04.16 16:29:54.
