data_PCOD8241741
_publ_section_title
;
Structure prediction by ZEFSAII (Michael W. Deem and Ramdas Pophale) SiO2 
 PCOD8241741
Probable space group: P M M N
;
_chemical_formula_sum "Si O2"
_cell_formula_units_Z 64
_cell_length_a 15.354469
_cell_length_b 9.049263
_cell_length_c 24.094504
_cell_angle_alpha 90.000000
_cell_angle_beta 90.000000
_cell_angle_gamma 90.000000
_cell_volume 3347.850089
_symmetry_space_group_name_H-M "P M M N"
_symmetry_group_IT_number 59
_space_group.IT_coordinate_system_code '2'
_symmetry_cell_setting 'orthorhombic'
loop_
_space_group_symop_operation_xyz
x,y,z
1/2-x,1/2-y,z
1/2+x,-y,-z
-x,1/2+y,-z
-x,-y,-z
1/2+x,1/2+y,-z
1/2-x,y,z
x,1/2-y,z
loop_
_atom_site_type_symbol
_atom_site_label
_atom_site_fract_x
_atom_site_fract_y
_atom_site_fract_z
Si Si1 0.103832 0.581511 0.942981
Si Si2 0.508698 0.425852 0.239852
Si Si3 0.154735 0.074737 0.171536
Si Si4 0.151003 0.080914 0.833030
Si Si5 0.350655 0.079795 0.563173
Si Si6 0.506296 0.425144 0.366481
Si Si7 0.653842 0.925771 0.562061
Si Si8 0.101872 0.081370 0.052595
O O1 0.135445 0.750000 0.938507
O O2 0.146347 0.489416 0.893790
O O3 0.000726 0.568571 0.938592
O O4 0.136093 0.515999 0.001529
O O5 0.515227 0.250000 0.234675
O O6 0.420924 0.488682 0.210963
O O7 0.592709 0.493763 0.210830
O O8 0.505314 0.479187 0.303205
O O9 0.250000 0.026085 0.194177
O O10 0.145874 0.250000 0.170568
O O11 0.144908 0.017198 0.108531
O O12 0.250000 0.071026 0.811640
O O13 0.119300 0.250000 0.836599
O O14 0.250000 0.058216 0.579197
O O15 0.378256 0.250000 0.569008
O O16 0.367686 0.022780 0.500552
O O17 0.406953 0.983569 0.604947
O O18 0.506854 0.250000 0.370291
O O19 0.419758 0.489173 0.396708
O O20 0.750000 0.984846 0.579823
O O21 0.655694 0.750000 0.563538
O O22 0.129648 0.250000 0.041130
#
# Coordination Sequence:
#
# PCOD8241741 Si02
#       8
#     8   8   8   8   8   8   8   8
#     4  10  19  33  55  82 111 139 170 214 267 320
#     4  10  21  38  55  78 108 138 176 221 270 317
#     4   9  17  32  55  79 104 136 173 213 258 311
#     4  11  24  40  58  78 101 137 184 227 269 320
#     4   9  18  33  53  76 107 146 182 215 257 314
#     4  10  20  32  53  81 108 137 175 224 268 311
#     4   8  15  30  52  80 112 143 175 214 261 312
#     4   9  17  31  52  80 112 142 171 206 255 317
#
# _framework density 19.116745999999999
#
# number of rings (size 3 to 8) (size 9 to 14) (size 15 to 20)
#    0.000    2.500    1.250    1.875    0.000    3.750 
#    0.000    6.250    0.000    2.250    0.000    1.750 
#    0.000    0.000    0.000    0.000    0.000    0.000 
#
# Total GULP energy -793543.867536 kJ/mol
# GULP energy per Si atom -12399.122930 kJ/mol
# Density = 1.907323 g / cm^3
# Si number density = 19.116746 Si / 1000 Ang^3
#
#
#
# Elastic Constant Matrix: (Units=GPa)
#
#
# Indices 1 2 3 4 5 6 
#
# 1 108.5598 24.0887 75.1582 0.0000 0.0000 0.0000
# 2 24.0887 37.0471 32.1864 0.0000 0.0000 0.0000
# 3 75.1582 32.1864 144.5108 0.0000 0.0000 0.0000
# 4 0.0000 0.0000 0.0000 25.1829 0.0000 0.0000
# 5 0.0000 0.0000 0.0000 0.0000 10.6688 0.0000
# 6 0.0000 0.0000 0.0000 0.0000 0.0000 21.6775
#
#
#
# Elastic Compliance Matrix: (Units=1/GPa)
#
#
# Indices 1 2 3 4 5 6 
#
# 1 0.014779 -0.003635 -0.006877 0.000000 0.000000 0.000000
# 2 -0.003635 0.034363 -0.005763 0.000000 0.000000 0.000000
# 3 -0.006877 -0.005763 0.011780 0.000000 0.000000 0.000000
# 4 0.000000 0.000000 0.000000 0.039709 0.000000 0.000000
# 5 0.000000 0.000000 0.000000 0.000000 0.093731 0.000000
# 6 0.000000 0.000000 0.000000 0.000000 0.000000 0.046131
#
#
# Mechanical properties :
#
#
# Convention : Reuss Voigt Hill
#
# Bulk Modulus (GPa) = 35.24548 61.44270 48.34409
# Shear Modulus (GPa) = 17.69909 22.08482 19.89195
#
# Velocity S-wave (km/s) = 3.04607 3.40260 3.22926
# Velocity P-wave (km/s) = 5.55413 6.90271 6.26481
#
# Compressibility (1/GPa) = 0.02837244
#
# Stress axis : x y z
#
# Youngs Moduli (GPa) = 67.66340 29.10094 84.88970
#
# Poissons Ratio (x) = 0.10578 0.58377
# Poissons Ratio (y) = 0.24596 0.48922
# Poissons Ratio (z) = 0.46530 0.16771
#
# Static dielectric constant tensor:
#      x y z
#    x 3.631350 0.000000 0.000000 
#    y 0.000000 3.217130 0.000000 
#    z 0.000000 0.000000 3.598050 
# 
# 
# High freq. dielectric constant tensor:
#      x y z
#    x 1.752200 0.000000 0.000000 
#    y 0.000000 1.709640 0.000000 
#    z 0.000000 0.000000 1.743660 
# 
# From -- ./inp_files/32129.got.cif
#   From: 2010.03.12/outbox.cif.g09.slc.cpg/sg59_17_cif.got.tgz:32129.got - 2010.04.16 16:29:54.
