data_PCOD8241771
_publ_section_title
;
Structure prediction by ZEFSAII (Michael W. Deem and Ramdas Pophale) SiO2 
 PCOD8241771
Probable space group: P M M N
;
_chemical_formula_sum "Si O2"
_cell_formula_units_Z 48
_cell_length_a 19.120133
_cell_length_b 9.058662
_cell_length_c 15.023074
_cell_angle_alpha 90.000000
_cell_angle_beta 90.000000
_cell_angle_gamma 90.000000
_cell_volume 2602.038816
_symmetry_space_group_name_H-M "P M M N"
_symmetry_group_IT_number 59
_space_group.IT_coordinate_system_code '2'
_symmetry_cell_setting 'orthorhombic'
loop_
_space_group_symop_operation_xyz
x,y,z
1/2-x,1/2-y,z
1/2+x,-y,-z
-x,1/2+y,-z
-x,-y,-z
1/2+x,1/2+y,-z
1/2-x,y,z
x,1/2-y,z
loop_
_atom_site_type_symbol
_atom_site_label
_atom_site_fract_x
_atom_site_fract_y
_atom_site_fract_z
Si Si1 0.572542 0.421228 0.520552
Si Si2 0.422335 0.579653 0.273154
Si Si3 0.669096 0.924374 0.382710
Si Si4 0.928095 0.924095 0.024153
Si Si5 0.329120 0.075581 0.133414
Si Si6 0.074614 0.075648 0.777015
O O1 0.500000 0.500000 0.500000
O O2 0.564745 0.250000 0.495369
O O3 0.592172 0.441923 0.623141
O O4 0.635484 0.493710 0.466268
O O5 0.418539 0.750000 0.244741
O O6 0.362834 0.492695 0.221101
O O7 0.498215 0.512079 0.248049
O O8 0.750000 0.967531 0.376756
O O9 0.658320 0.750000 0.395207
O O10 0.632223 0.983430 0.292435
O O11 0.940090 0.750000 0.019624
O O12 0.904329 0.973010 0.123240
O O13 0.869033 0.977358 0.955513
O O14 0.000000 0.000000 0.000000
O O15 0.250000 0.018648 0.125348
O O16 0.332467 0.250000 0.143032
O O17 0.071453 0.250000 0.768251
#
# Coordination Sequence:
#
# PCOD8241771 Si02
#       6
#     8   8   8   8   8   8
#     4  11  22  37  59  84 113 146 188 235 279 332
#     4  10  20  36  58  81 107 143 188 228 267 326
#     4  10  21  38  59  84 115 148 184 229 282 336
#     4  10  19  33  56  81 108 142 182 225 270 321
#     4  10  22  37  53  81 117 145 177 226 279 327
#     4   9  17  33  56  82 109 140 184 228 267 323
#
# _framework density 18.447073
#
# number of rings (size 3 to 8) (size 9 to 14) (size 15 to 20)
#    0.000    2.000    3.333    0.500    0.000    3.333 
#    0.000    7.500    0.000    0.000    0.000    2.333 
#    0.000    0.000    0.000    0.000    0.000    0.000 
#
# Total GULP energy -595275.273586 kJ/mol
# GULP energy per Si atom -12401.568200 kJ/mol
# Density = 1.840509 g / cm^3
# Si number density = 18.447073 Si / 1000 Ang^3
#
#
#
# Elastic Constant Matrix: (Units=GPa)
#
#
# Indices 1 2 3 4 5 6 
#
# 1 173.1441 46.7110 84.9227 0.0000 0.0000 0.0000
# 2 46.7110 39.0047 38.7307 0.0000 0.0000 0.0000
# 3 84.9227 38.7307 136.3460 0.0000 0.0000 0.0000
# 4 0.0000 0.0000 0.0000 27.0907 0.0000 0.0000
# 5 0.0000 0.0000 0.0000 0.0000 37.3250 0.0000
# 6 0.0000 0.0000 0.0000 0.0000 0.0000 28.5371
#
#
#
# Elastic Compliance Matrix: (Units=1/GPa)
#
#
# Indices 1 2 3 4 5 6 
#
# 1 0.009801 -0.007906 -0.003859 0.000000 0.000000 0.000000
# 2 -0.007906 0.042088 -0.007031 0.000000 0.000000 0.000000
# 3 -0.003859 -0.007031 0.011735 0.000000 0.000000 0.000000
# 4 0.000000 0.000000 0.000000 0.036913 0.000000 0.000000
# 5 0.000000 0.000000 0.000000 0.000000 0.026792 0.000000
# 6 0.000000 0.000000 0.000000 0.000000 0.000000 0.035042
#
#
# Mechanical properties :
#
#
# Convention : Reuss Voigt Hill
#
# Bulk Modulus (GPa) = 38.41452 76.58038 57.49745
# Shear Modulus (GPa) = 23.96473 30.46590 27.21532
#
# Velocity S-wave (km/s) = 3.60822 4.06831 3.84516
# Velocity P-wave (km/s) = 6.18291 7.97947 7.13794
#
# Compressibility (1/GPa) = 0.02603182
#
# Stress axis : x y z
#
# Youngs Moduli (GPa) = 102.03046 23.75992 85.21448
#
# Poissons Ratio (x) = 0.18784 0.32883
# Poissons Ratio (y) = 0.80662 0.59918
# Poissons Ratio (z) = 0.39372 0.16707
#
# Static dielectric constant tensor:
#      x y z
#    x 3.624520 0.000000 0.000000 
#    y 0.000000 3.251610 0.000000 
#    z 0.000000 0.000000 3.836910 
# 
# 
# High freq. dielectric constant tensor:
#      x y z
#    x 1.715980 0.000000 0.000000 
#    y 0.000000 1.692950 0.000000 
#    z 0.000000 0.000000 1.732380 
# 
# From -- ./inp_files/15761.got.cif
#   From: 2010.03.12/outbox.cif.g09.slc.cpg/sg59_8_cif.got.tgz:15761.got - 2010.04.16 16:29:54.
