data_PCOD8241586
_publ_section_title
;
Structure prediction by ZEFSAII (Michael W. Deem and Ramdas Pophale) SiO2 
 PCOD8241586
Probable space group: P M M N
;
_chemical_formula_sum "Si O2"
_cell_formula_units_Z 40
_cell_length_a 17.267274
_cell_length_b 14.442949
_cell_length_c 8.991149
_cell_angle_alpha 90.000000
_cell_angle_beta 90.000000
_cell_angle_gamma 90.000000
_cell_volume 2242.305866
_symmetry_space_group_name_H-M "P M M N"
_symmetry_group_IT_number 59
_space_group.IT_coordinate_system_code '2'
_symmetry_cell_setting 'orthorhombic'
loop_
_space_group_symop_operation_xyz
x,y,z
1/2-x,1/2-y,z
1/2+x,-y,-z
-x,1/2+y,-z
-x,-y,-z
1/2+x,1/2+y,-z
1/2-x,y,z
x,1/2-y,z
loop_
_atom_site_type_symbol
_atom_site_label
_atom_site_fract_x
_atom_site_fract_y
_atom_site_fract_z
Si Si1 0.163085 0.029627 0.602589
Si Si2 0.334916 0.645462 0.796576
Si Si3 0.444837 0.004243 0.358341
Si Si4 0.500052 0.355450 0.111060
Si Si5 0.963830 0.858316 0.218759
O O1 0.250000 0.068253 0.612763
O O2 0.139647 0.024761 0.427394
O O3 0.110829 0.098243 0.701318
O O4 0.156083 0.924717 0.660100
O O5 0.250000 0.630089 0.874508
O O6 0.339663 0.750000 0.732380
O O7 0.406809 0.628448 0.908948
O O8 0.466246 0.084888 0.244498
O O9 0.500000 0.000000 0.500000
O O10 0.456421 0.905531 0.276716
O O11 0.482751 0.250000 0.154338
O O12 0.457756 0.380297 0.956872
O O13 0.968446 0.750000 0.252549
#
# Coordination Sequence:
#
# PCOD8241586 Si02
#       5
#     8   8   8   8   8
#     4  10  21  37  54  79 109 143 183 224 274 327
#     4   9  17  30  51  78 106 137 172 216 273 327
#     4  10  19  33  53  80 106 138 177 224 268 322
#     4  10  19  34  56  80 107 141 184 226 267 323
#     4  10  21  35  55  80 108 145 184 224 269 322
#
# _framework density 17.838778999999999
#
# number of rings (size 3 to 8) (size 9 to 14) (size 15 to 20)
#    0.000    2.200    4.000    0.600    0.000    4.400 
#    0.000    2.000    0.000    2.400    0.000    0.000 
#    0.000    0.000    0.000    0.000    0.000    0.000 
#
# Total GULP energy -495531.997429 kJ/mol
# GULP energy per Si atom -12388.299936 kJ/mol
# Density = 1.779818 g / cm^3
# Si number density = 17.838779 Si / 1000 Ang^3
#
#
#
# Elastic Constant Matrix: (Units=GPa)
#
#
# Indices 1 2 3 4 5 6 
#
# 1 111.2466 50.1231 58.6338 0.0000 0.0000 0.0000
# 2 50.1231 113.6643 67.6114 0.0000 0.0000 0.0000
# 3 58.6338 67.6114 105.5333 0.0000 0.0000 0.0000
# 4 0.0000 0.0000 0.0000 22.0471 0.0000 0.0000
# 5 0.0000 0.0000 0.0000 0.0000 21.9639 0.0000
# 6 0.0000 0.0000 0.0000 0.0000 0.0000 17.0705
#
#
#
# Elastic Compliance Matrix: (Units=1/GPa)
#
#
# Indices 1 2 3 4 5 6 
#
# 1 0.013084 -0.002336 -0.005773 0.000000 0.000000 0.000000
# 2 -0.002336 0.014632 -0.008076 0.000000 0.000000 0.000000
# 3 -0.005773 -0.008076 0.017857 0.000000 0.000000 0.000000
# 4 0.000000 0.000000 0.000000 0.045358 0.000000 0.000000
# 5 0.000000 0.000000 0.000000 0.000000 0.045529 0.000000
# 6 0.000000 0.000000 0.000000 0.000000 0.000000 0.058581
#
#
# Mechanical properties :
#
#
# Convention : Reuss Voigt Hill
#
# Bulk Modulus (GPa) = 75.73999 75.90899 75.82449
# Shear Modulus (GPa) = 21.56912 22.48801 22.02857
#
# Velocity S-wave (km/s) = 3.48100 3.55438 3.51788
# Velocity P-wave (km/s) = 7.66203 7.71298 7.68755
#
# Compressibility (1/GPa) = 0.01320307
#
# Stress axis : x y z
#
# Youngs Moduli (GPa) = 76.42801 68.34330 55.99890
#
# Poissons Ratio (x) = 0.15963 0.32329
# Poissons Ratio (y) = 0.17852 0.45227
# Poissons Ratio (z) = 0.44123 0.55197
#
# Static dielectric constant tensor:
#      x y z
#    x 3.699830 0.000000 0.000000 
#    y 0.000000 3.438530 0.000000 
#    z 0.000000 0.000000 3.505860 
# 
# 
# High freq. dielectric constant tensor:
#      x y z
#    x 1.678770 0.000000 0.000000 
#    y 0.000000 1.702560 0.000000 
#    z 0.000000 0.000000 1.674230 
# 
# From -- ./inp_files/8788.got.cif
#   From: 2010.03.12/outbox.cif.g09.slc.cpg/sg59_5_cif.got.tgz:8788.got - 2010.04.16 16:29:54.
