data_PCOD8241545
_publ_section_title
;
Structure prediction by ZEFSAII (Michael W. Deem and Ramdas Pophale) SiO2 
 PCOD8241545
Probable space group: P M M N
;
_chemical_formula_sum "Si O2"
_cell_formula_units_Z 64
_cell_length_a 17.766246
_cell_length_b 8.909017
_cell_length_c 23.180634
_cell_angle_alpha 90.000000
_cell_angle_beta 90.000000
_cell_angle_gamma 90.000000
_cell_volume 3669.025827
_symmetry_space_group_name_H-M "P M M N"
_symmetry_group_IT_number 59
_space_group.IT_coordinate_system_code '2'
_symmetry_cell_setting 'orthorhombic'
loop_
_space_group_symop_operation_xyz
x,y,z
1/2-x,1/2-y,z
1/2+x,-y,-z
-x,1/2+y,-z
-x,-y,-z
1/2+x,1/2+y,-z
1/2-x,y,z
x,1/2-y,z
loop_
_atom_site_type_symbol
_atom_site_label
_atom_site_fract_x
_atom_site_fract_y
_atom_site_fract_z
Si Si1 0.529430 0.427389 0.635939
Si Si2 0.450240 0.071506 0.877075
Si Si3 0.665020 0.927665 0.565332
Si Si4 0.085465 0.075995 0.061114
Si Si5 0.434749 0.075897 0.534081
Si Si6 0.967759 0.073318 0.764150
Si Si7 0.162260 0.925776 0.952465
Si Si8 0.165185 0.078198 0.178620
O O1 0.544190 0.250000 0.636596
O O2 0.605053 0.500004 0.609208
O O3 0.451501 0.467814 0.601018
O O4 0.513689 0.489377 0.700386
O O5 0.441849 0.250000 0.879556
O O6 0.474243 0.013764 0.813043
O O7 0.511081 0.018980 0.924529
O O8 0.371819 0.990688 0.892701
O O9 0.750000 0.988078 0.576504
O O10 0.662406 0.750000 0.574962
O O11 0.643668 0.968602 0.497772
O O12 0.063359 0.250000 0.052680
O O13 0.145587 0.054209 0.111878
O O14 0.123185 0.013857 0.004035
O O15 0.446912 0.250000 0.526638
O O16 0.500000 0.000000 0.500000
O O17 0.971137 0.250000 0.764425
O O18 0.883845 0.024127 0.779662
O O19 0.250000 0.961801 0.952295
O O20 0.145931 0.750000 0.958176
O O21 0.250000 0.025888 0.188209
O O22 0.152554 0.250000 0.196703
#
# Coordination Sequence:
#
# PCOD8241545 Si02
#       8
#     8   8   8   8   8   8   8   8
#     4   9  17  30  47  66  89 119 156 192 224 264
#     4  10  20  35  53  71  95 126 159 195 235 279
#     4   9  17  28  43  67  97 123 148 182 225 271
#     4  10  19  33  53  74  97 124 156 192 233 284
#     4   8  14  26  44  63  86 117 149 181 217 257
#     4   9  19  33  48  67  90 120 158 196 231 269
#     4  11  23  36  51  73  98 122 152 193 241 290
#     4   9  18  31  46  66  93 124 156 189 226 272
#
# _framework density 17.443322999999999
#
# number of rings (size 3 to 8) (size 9 to 14) (size 15 to 20)
#    0.000    2.625    0.000    1.875    0.000    4.000 
#    0.000    2.500    0.000    0.750    0.000    3.500 
#    0.000    0.000    0.000    0.000    0.000    0.000 
#
# Total GULP energy -792980.539809 kJ/mol
# GULP energy per Si atom -12390.320935 kJ/mol
# Density = 1.740362 g / cm^3
# Si number density = 17.443323 Si / 1000 Ang^3
#
#
#
# Elastic Constant Matrix: (Units=GPa)
#
#
# Indices 1 2 3 4 5 6 
#
# 1 61.4340 19.1127 48.3999 0.0000 0.0000 0.0000
# 2 19.1127 27.2699 25.7972 0.0000 0.0000 0.0000
# 3 48.3999 25.7972 119.4682 0.0000 0.0000 0.0000
# 4 0.0000 0.0000 0.0000 21.1143 0.0000 0.0000
# 5 0.0000 0.0000 0.0000 0.0000 15.3227 0.0000
# 6 0.0000 0.0000 0.0000 0.0000 0.0000 25.0624
#
#
#
# Elastic Compliance Matrix: (Units=1/GPa)
#
#
# Indices 1 2 3 4 5 6 
#
# 1 0.026063 -0.010403 -0.008312 0.000000 0.000000 0.000000
# 2 -0.010403 0.050237 -0.006633 0.000000 0.000000 0.000000
# 3 -0.008312 -0.006633 0.013170 0.000000 0.000000 0.000000
# 4 0.000000 0.000000 0.000000 0.047361 0.000000 0.000000
# 5 0.000000 0.000000 0.000000 0.000000 0.065263 0.000000
# 6 0.000000 0.000000 0.000000 0.000000 0.000000 0.039900
#
#
# Mechanical properties :
#
#
# Convention : Reuss Voigt Hill
#
# Bulk Modulus (GPa) = 25.79157 43.86573 34.82865
# Shear Modulus (GPa) = 16.36040 19.95738 18.15889
#
# Velocity S-wave (km/s) = 3.06587 3.38616 3.22999
# Velocity P-wave (km/s) = 5.22979 6.36320 5.82413
#
# Compressibility (1/GPa) = 0.03877236
#
# Stress axis : x y z
#
# Youngs Moduli (GPa) = 38.36861 19.90580 75.92817
#
# Poissons Ratio (x) = 0.20708 0.63115
# Poissons Ratio (y) = 0.39916 0.50364
# Poissons Ratio (z) = 0.31894 0.13204
#
# Static dielectric constant tensor:
#      x y z
#    x 3.648770 0.000000 0.000000 
#    y 0.000000 3.269750 0.000000 
#    z 0.000000 0.000000 3.856930 
# 
# 
# High freq. dielectric constant tensor:
#      x y z
#    x 1.657670 0.000000 0.000000 
#    y 0.000000 1.673970 0.000000 
#    z 0.000000 0.000000 1.672250 
# 
# From -- ./inp_files/32306.got.cif
#   From: 2010.03.12/outbox.cif.g09.slc.cpg/sg59_17_cif.got.tgz:32306.got - 2010.04.16 16:29:54.
