data_PCOD8241682
_publ_section_title
;
Structure prediction by ZEFSAII (Michael W. Deem and Ramdas Pophale) SiO2 
 PCOD8241682
Probable space group: P M M N
;
_chemical_formula_sum "Si O2"
_cell_formula_units_Z 64
_cell_length_a 9.115415
_cell_length_b 18.757870
_cell_length_c 19.590316
_cell_angle_alpha 90.000000
_cell_angle_beta 90.000000
_cell_angle_gamma 90.000000
_cell_volume 3349.665257
_symmetry_space_group_name_H-M "P M M N"
_symmetry_group_IT_number 59
_space_group.IT_coordinate_system_code '2'
_symmetry_cell_setting 'orthorhombic'
loop_
_space_group_symop_operation_xyz
x,y,z
1/2-x,1/2-y,z
1/2+x,-y,-z
-x,1/2+y,-z
-x,-y,-z
1/2+x,1/2+y,-z
1/2-x,y,z
x,1/2-y,z
loop_
_atom_site_type_symbol
_atom_site_label
_atom_site_fract_x
_atom_site_fract_y
_atom_site_fract_z
Si Si1 0.918786 0.167513 0.388210
Si Si2 0.921113 0.936656 0.861762
Si Si3 0.917933 0.936948 0.704162
Si Si4 0.923893 0.168123 0.045719
Si Si5 0.079755 0.909191 0.352611
Si Si6 0.075167 0.830074 0.218670
Si Si7 0.424264 0.912336 0.088171
Si Si8 0.922761 0.668196 0.473080
O O1 0.750000 0.148637 0.401831
O O2 0.940575 0.250000 0.370571
O O3 0.976991 0.124695 0.323113
O O4 0.010225 0.145383 0.454669
O O5 0.750000 0.922219 0.872456
O O6 0.957246 0.952166 0.782844
O O7 0.008448 0.867145 0.886647
O O8 0.973349 0.005236 0.905969
O O9 0.750000 0.911619 0.697845
O O10 0.944504 0.007318 0.659428
O O11 0.750000 0.163514 0.050454
O O12 0.975680 0.250000 0.040281
O O13 0.984989 0.124294 0.980484
O O14 0.250000 0.891021 0.365430
O O15 0.017797 0.867513 0.287028
O O16 0.986968 0.884890 0.417241
O O17 0.250000 0.833061 0.216961
O O18 0.015309 0.750000 0.217821
O O19 0.009964 0.869888 0.152734
O O20 0.250000 0.906789 0.090100
O O21 0.750000 0.657629 0.477301
O O22 0.965048 0.750000 0.455431
#
# Coordination Sequence:
#
# PCOD8241682 Si02
#       8
#     8   8   8   8   8   8   8   8
#     4  10  22  40  61  83 106 138 185 235 277 322
#     4  10  20  36  57  79 108 145 184 225 271 329
#     4  10  21  37  57  82 112 144 181 226 276 332
#     4  10  21  35  53  80 111 142 182 231 277 323
#     4  10  19  33  54  82 113 144 182 226 269 322
#     4   9  15  25  48  80 109 139 177 221 266 311
#     4   9  16  31  53  78 108 142 180 223 270 321
#     4  10  21  37  57  82 114 150 184 221 271 328
#
# _framework density 19.106387000000002
#
# number of rings (size 3 to 8) (size 9 to 14) (size 15 to 20)
#    0.000    2.250    1.250    1.875    0.000    5.750 
#    0.000    2.500    0.000    0.750    0.000    0.000 
#    0.000    0.000    0.000    0.000    0.000    0.000 
#
# Total GULP energy -793744.960012 kJ/mol
# GULP energy per Si atom -12402.265000 kJ/mol
# Density = 1.906290 g / cm^3
# Si number density = 19.106387 Si / 1000 Ang^3
#
#
#
# Elastic Constant Matrix: (Units=GPa)
#
#
# Indices 1 2 3 4 5 6 
#
# 1 54.0169 43.3398 38.1152 0.0000 0.0000 0.0000
# 2 43.3398 110.7078 56.2346 0.0000 0.0000 0.0000
# 3 38.1152 56.2346 84.5801 0.0000 0.0000 0.0000
# 4 0.0000 0.0000 0.0000 41.3921 0.0000 0.0000
# 5 0.0000 0.0000 0.0000 0.0000 27.3808 0.0000
# 6 0.0000 0.0000 0.0000 0.0000 0.0000 26.7727
#
#
#
# Elastic Compliance Matrix: (Units=1/GPa)
#
#
# Indices 1 2 3 4 5 6 
#
# 1 0.030843 -0.007571 -0.008865 0.000000 0.000000 0.000000
# 2 -0.007571 0.015498 -0.006892 0.000000 0.000000 0.000000
# 3 -0.008865 -0.006892 0.020400 0.000000 0.000000 0.000000
# 4 0.000000 0.000000 0.000000 0.024159 0.000000 0.000000
# 5 0.000000 0.000000 0.000000 0.000000 0.036522 0.000000
# 6 0.000000 0.000000 0.000000 0.000000 0.000000 0.037351
#
#
# Mechanical properties :
#
#
# Convention : Reuss Voigt Hill
#
# Bulk Modulus (GPa) = 49.79068 58.29822 54.04445
# Shear Modulus (GPa) = 22.92269 26.55014 24.73642
#
# Velocity S-wave (km/s) = 3.46748 3.73177 3.60205
# Velocity P-wave (km/s) = 6.49211 7.01048 6.75627
#
# Compressibility (1/GPa) = 0.02008408
#
# Stress axis : x y z
#
# Youngs Moduli (GPa) = 32.42254 64.52632 49.01882
#
# Poissons Ratio (x) = 0.48854 0.43456
# Poissons Ratio (y) = 0.24548 0.33783
# Poissons Ratio (z) = 0.28743 0.44471
#
# Static dielectric constant tensor:
#      x y z
#    x 3.142540 0.000000 0.000000 
#    y 0.000000 3.546020 0.000000 
#    z 0.000000 0.000000 3.529670 
# 
# 
# High freq. dielectric constant tensor:
#      x y z
#    x 1.709240 0.000000 0.000000 
#    y 0.000000 1.750140 0.000000 
#    z 0.000000 0.000000 1.750270 
# 
# From -- ./inp_files/28212.got.cif
#   From: 2010.03.12/outbox.cif.g09.slc.cpg/sg59_15_cif.got.tgz:28212.got - 2010.04.16 16:29:54.
