data_PCOD8241252
_publ_section_title
;
Structure prediction by ZEFSAII (Michael W. Deem and Ramdas Pophale) SiO2 
 PCOD8241252
Probable space group: P M M N
;
_chemical_formula_sum "Si O2"
_cell_formula_units_Z 64
_cell_length_a 17.795748
_cell_length_b 30.735985
_cell_length_c 6.382505
_cell_angle_alpha 90.000000
_cell_angle_beta 90.000000
_cell_angle_gamma 90.000000
_cell_volume 3491.037762
_symmetry_space_group_name_H-M "P M M N"
_symmetry_group_IT_number 59
_space_group.IT_coordinate_system_code '2'
_symmetry_cell_setting 'orthorhombic'
loop_
_space_group_symop_operation_xyz
x,y,z
1/2-x,1/2-y,z
1/2+x,-y,-z
-x,1/2+y,-z
-x,-y,-z
1/2+x,1/2+y,-z
1/2-x,y,z
x,1/2-y,z
loop_
_atom_site_type_symbol
_atom_site_label
_atom_site_fract_x
_atom_site_fract_y
_atom_site_fract_z
Si Si1 0.833224 0.521396 0.366800
Si Si2 0.529986 0.377003 0.639515
Si Si3 0.930878 0.849654 0.983703
Si Si4 0.338562 0.557806 0.324241
Si Si5 0.592425 0.581464 0.647709
Si Si6 0.835630 0.799961 0.311286
Si Si7 0.084801 0.493980 0.043479
Si Si8 0.973734 0.700139 0.600480
O O1 0.750000 0.516961 0.284183
O O2 0.854062 0.477157 0.492246
O O3 0.839647 0.567536 0.492957
O O4 0.882651 0.527845 0.162540
O O5 0.493141 0.373733 0.871883
O O6 0.613390 0.397786 0.643119
O O7 0.479980 0.406940 0.489307
O O8 0.532382 0.328692 0.535610
O O9 0.864519 0.828866 0.119114
O O10 0.889856 0.881988 0.820029
O O11 0.973763 0.813051 0.845181
O O12 0.250000 0.569487 0.307075
O O13 0.367862 0.537118 0.105266
O O14 0.580082 0.536375 0.758423
O O15 0.750000 0.812981 0.369353
O O16 0.839905 0.750000 0.239570
O O17 0.889142 0.808236 0.511321
O O18 0.000000 0.500000 0.000000
O O19 0.998780 0.750000 0.576982
#
# Coordination Sequence:
#
# PCOD8241252 Si02
#       8
#     8   8   8   8   8   8   8   8
#     4  10  21  35  50  73 106 140 174 213 256 300
#     4  10  20  36  55  78 104 131 169 215 261 308
#     4  10  19  32  52  75 102 136 175 212 252 302
#     4  10  21  36  55  80 105 132 171 217 265 314
#     4  10  20  33  49  73 102 136 175 209 244 294
#     4   9  18  32  50  74 103 133 167 210 258 305
#     4  11  20  33  54  74 100 138 174 210 251 296
#     4   9  19  35  54  77 103 133 172 213 256 312
#
# _framework density 18.332656
#
# number of rings (size 3 to 8) (size 9 to 14) (size 15 to 20)
#    0.000    2.125    0.000    3.750    0.000    5.000 
#    0.000   10.000    0.000    0.375    0.000    0.000 
#    0.000    0.000    0.000    0.000    0.000    0.000 
#
# Total GULP energy -792975.953413 kJ/mol
# GULP energy per Si atom -12390.249272 kJ/mol
# Density = 1.829093 g / cm^3
# Si number density = 18.332656 Si / 1000 Ang^3
#
#
#
# Elastic Constant Matrix: (Units=GPa)
#
#
# Indices 1 2 3 4 5 6 
#
# 1 104.7097 55.9639 47.8776 0.0000 0.0000 0.0000
# 2 55.9639 86.5378 30.2395 0.0000 0.0000 0.0000
# 3 47.8776 30.2395 96.7558 0.0000 0.0000 0.0000
# 4 0.0000 0.0000 0.0000 12.8433 0.0000 0.0000
# 5 0.0000 0.0000 0.0000 0.0000 15.9140 0.0000
# 6 0.0000 0.0000 0.0000 0.0000 0.0000 29.4753
#
#
#
# Elastic Compliance Matrix: (Units=1/GPa)
#
#
# Indices 1 2 3 4 5 6 
#
# 1 0.016889 -0.008983 -0.005550 0.000000 0.000000 0.000000
# 2 -0.008983 0.017750 -0.001103 0.000000 0.000000 0.000000
# 3 -0.005550 -0.001103 0.013426 0.000000 0.000000 0.000000
# 4 0.000000 0.000000 0.000000 0.077862 0.000000 0.000000
# 5 0.000000 0.000000 0.000000 0.000000 0.062838 0.000000
# 6 0.000000 0.000000 0.000000 0.000000 0.000000 0.033927
#
#
# Mechanical properties :
#
#
# Convention : Reuss Voigt Hill
#
# Bulk Modulus (GPa) = 59.54175 61.79614 60.66894
# Shear Modulus (GPa) = 19.26345 21.90800 20.58572
#
# Velocity S-wave (km/s) = 3.24508 3.46066 3.35460
# Velocity P-wave (km/s) = 6.82567 7.05334 6.94044
#
# Compressibility (1/GPa) = 0.01679494
#
# Stress axis : x y z
#
# Youngs Moduli (GPa) = 59.21129 56.33802 74.48223
#
# Poissons Ratio (x) = 0.50606 0.41335
# Poissons Ratio (y) = 0.53187 0.08212
# Poissons Ratio (z) = 0.32860 0.06212
#
# Static dielectric constant tensor:
#      x y z
#    x 3.107390 0.000000 0.000000 
#    y 0.000000 3.492710 0.000000 
#    z 0.000000 0.000000 3.489180 
# 
# 
# High freq. dielectric constant tensor:
#      x y z
#    x 1.678210 0.000000 0.000000 
#    y 0.000000 1.709650 0.000000 
#    z 0.000000 0.000000 1.726270 
# 
# From -- ./inp_files/3052.got.cif
#   From: 2010.03.12/outbox.cif.g09.slc.cpg/sg59_2_cif.got.tgz:3052.got - 2010.04.16 16:29:54.
