data_PCOD8241028
_publ_section_title
;
Structure prediction by ZEFSAII (Michael W. Deem and Ramdas Pophale) SiO2 
 PCOD8241028
Probable space group: P M M N
;
_chemical_formula_sum "Si O2"
_cell_formula_units_Z 64
_cell_length_a 8.820993
_cell_length_b 23.857298
_cell_length_c 16.484751
_cell_angle_alpha 90.000000
_cell_angle_beta 90.000000
_cell_angle_gamma 90.000000
_cell_volume 3469.134391
_symmetry_space_group_name_H-M "P M M N"
_symmetry_group_IT_number 59
_space_group.IT_coordinate_system_code '2'
_symmetry_cell_setting 'orthorhombic'
loop_
_space_group_symop_operation_xyz
x,y,z
1/2-x,1/2-y,z
1/2+x,-y,-z
-x,1/2+y,-z
-x,-y,-z
1/2+x,1/2+y,-z
1/2-x,y,z
x,1/2-y,z
loop_
_atom_site_type_symbol
_atom_site_label
_atom_site_fract_x
_atom_site_fract_y
_atom_site_fract_z
Si Si1 0.573931 0.186059 0.305504
Si Si2 0.071731 0.442098 0.027064
Si Si3 0.570091 0.374877 0.621219
Si Si4 0.428587 0.607413 0.121132
Si Si5 0.428637 0.313914 0.476479
Si Si6 0.081554 0.184949 0.763945
Si Si7 0.428830 0.528376 0.264969
Si Si8 0.429162 0.089454 0.208373
O O1 0.750000 0.175908 0.324000
O O2 0.544695 0.250000 0.277077
O O3 0.479011 0.172198 0.385679
O O4 0.517711 0.144900 0.234995
O O5 0.250000 0.449061 0.023403
O O6 0.021201 0.424036 0.116751
O O7 0.000000 0.500000 0.000000
O O8 0.013649 0.395489 0.964549
O O9 0.750000 0.370107 0.619764
O O10 0.505993 0.361096 0.532559
O O11 0.502611 0.328225 0.680267
O O12 0.518240 0.436749 0.654816
O O13 0.250000 0.605252 0.106431
O O14 0.478501 0.665588 0.161019
O O15 0.486030 0.558493 0.182553
O O16 0.250000 0.320861 0.483710
O O17 0.477710 0.250000 0.499497
O O18 0.250000 0.157245 0.765099
O O19 0.099720 0.250000 0.771952
O O20 0.250000 0.530430 0.260734
O O21 0.481623 0.463501 0.264881
O O22 0.250000 0.100067 0.215408
#
# Coordination Sequence:
#
# PCOD8241028 Si02
#       8
#     8   8   8   8   8   8   8   8
#     4  10  22  40  60  83 109 136 176 230 281 328
#     4  11  21  34  56  84 112 142 180 225 270 321
#     4  10  19  31  52  80 112 146 182 224 271 321
#     4  10  19  34  53  76 108 142 181 227 273 321
#     4  10  20  35  56  80 107 142 185 230 274 323
#     4  10  20  33  49  73 108 147 186 226 270 325
#     4   8  16  32  51  76 110 144 175 216 265 316
#     4  10  20  37  59  82 110 143 181 221 270 328
#
# _framework density 18.448405999999999
#
# number of rings (size 3 to 8) (size 9 to 14) (size 15 to 20)
#    0.000    2.125    1.250    3.375    0.000    5.000 
#    0.000    2.500    0.000    0.750    0.000    0.000 
#    0.000    0.000    0.000    0.000    0.000    0.000 
#
# Total GULP energy -793400.906413 kJ/mol
# GULP energy per Si atom -12396.889163 kJ/mol
# Density = 1.840642 g / cm^3
# Si number density = 18.448406 Si / 1000 Ang^3
#
#
#
# Elastic Constant Matrix: (Units=GPa)
#
#
# Indices 1 2 3 4 5 6 
#
# 1 52.6673 34.1608 32.9311 0.0000 0.0000 0.0000
# 2 34.1608 96.9751 54.2971 0.0000 0.0000 0.0000
# 3 32.9311 54.2971 97.3876 0.0000 0.0000 0.0000
# 4 0.0000 0.0000 0.0000 23.9003 0.0000 0.0000
# 5 0.0000 0.0000 0.0000 0.0000 33.9082 0.0000
# 6 0.0000 0.0000 0.0000 0.0000 0.0000 28.3713
#
#
#
# Elastic Compliance Matrix: (Units=1/GPa)
#
#
# Indices 1 2 3 4 5 6 
#
# 1 0.026463 -0.006268 -0.005453 0.000000 0.000000 0.000000
# 2 -0.006268 0.016477 -0.007067 0.000000 0.000000 0.000000
# 3 -0.005453 -0.007067 0.016052 0.000000 0.000000 0.000000
# 4 0.000000 0.000000 0.000000 0.041841 0.000000 0.000000
# 5 0.000000 0.000000 0.000000 0.000000 0.029491 0.000000
# 6 0.000000 0.000000 0.000000 0.000000 0.000000 0.035247
#
#
# Mechanical properties :
#
#
# Convention : Reuss Voigt Hill
#
# Bulk Modulus (GPa) = 46.69704 54.42312 50.56008
# Shear Modulus (GPa) = 23.77715 25.61204 24.69459
#
# Velocity S-wave (km/s) = 3.59394 3.73004 3.66262
# Velocity P-wave (km/s) = 6.52603 6.93651 6.73440
#
# Compressibility (1/GPa) = 0.02141463
#
# Stress axis : x y z
#
# Youngs Moduli (GPa) = 37.78894 60.69132 62.29661
#
# Poissons Ratio (x) = 0.38044 0.33972
# Poissons Ratio (y) = 0.23688 0.44024
# Poissons Ratio (z) = 0.20608 0.42889
#
# Static dielectric constant tensor:
#      x y z
#    x 3.441600 0.000000 0.000000 
#    y 0.000000 5.443200 0.000000 
#    z 0.000000 0.000000 3.381400 
# 
# 
# High freq. dielectric constant tensor:
#      x y z
#    x 1.718060 0.000000 0.000000 
#    y 0.000000 1.705100 0.000000 
#    z 0.000000 0.000000 1.707840 
# 
# From -- ./inp_files/21505.got.cif
#   From: 2010.03.12/outbox.cif.g09.slc.cpg/sg59_11_cif.got.tgz:21505.got - 2010.04.16 16:29:54.
