data_PCOD8241085
_publ_section_title
;
Structure prediction by ZEFSAII (Michael W. Deem and Ramdas Pophale) SiO2 
 PCOD8241085
Probable space group: P M M N
;
_chemical_formula_sum "Si O2"
_cell_formula_units_Z 56
_cell_length_a 19.113095
_cell_length_b 9.636726
_cell_length_c 17.740784
_cell_angle_alpha 90.000000
_cell_angle_beta 90.000000
_cell_angle_gamma 90.000000
_cell_volume 3267.633483
_symmetry_space_group_name_H-M "P M M N"
_symmetry_group_IT_number 59
_space_group.IT_coordinate_system_code '2'
_symmetry_cell_setting 'orthorhombic'
loop_
_space_group_symop_operation_xyz
x,y,z
1/2-x,1/2-y,z
1/2+x,-y,-z
-x,1/2+y,-z
-x,-y,-z
1/2+x,1/2+y,-z
1/2-x,y,z
x,1/2-y,z
loop_
_atom_site_type_symbol
_atom_site_label
_atom_site_fract_x
_atom_site_fract_y
_atom_site_fract_z
Si Si1 0.438472 0.586363 0.800319
Si Si2 0.168993 0.089520 0.379454
Si Si3 0.095333 0.086146 0.225460
Si Si4 0.328160 0.915550 0.681700
Si Si5 0.830714 0.091423 0.900133
Si Si6 0.333133 0.596020 0.515467
Si Si7 0.063478 0.910391 0.970141
O O1 0.437252 0.750000 0.789956
O O2 0.515873 0.531662 0.780171
O O3 0.381445 0.520651 0.743330
O O4 0.418148 0.543006 0.885154
O O5 0.250000 0.054001 0.363381
O O6 0.158982 0.250000 0.398693
O O7 0.124581 0.045246 0.307007
O O8 0.138434 0.005577 0.450674
O O9 0.101360 0.250000 0.210404
O O10 0.141340 0.010292 0.163365
O O11 0.250000 0.974157 0.697597
O O12 0.325697 0.750000 0.685434
O O13 0.355232 0.959639 0.598307
O O14 0.750000 0.059150 0.914443
O O15 0.842835 0.250000 0.873898
O O16 0.868726 0.062413 0.979268
O O17 0.250000 0.601869 0.513137
O O18 0.363911 0.750000 0.500984
O O19 0.039904 0.750000 0.971522
O O20 0.000000 0.000000 0.000000
#
# Coordination Sequence:
#
# PCOD8241085 Si02
#       7
#     8   8   8   8   8   8   8
#     4   9  17  29  48  71  94 124 160 196 238 285
#     4   9  17  28  43  64  90 122 159 197 235 278
#     4  10  19  32  49  70  97 129 165 198 234 286
#     4   8  14  26  46  72  97 120 154 201 245 284
#     4  10  21  34  49  73 102 128 158 201 246 283
#     4   8  14  26  45  67  90 119 155 194 237 283
#     4  10  19  33  52  72  96 128 163 196 238 289
#
# _framework density 17.137785999999998
#
# number of rings (size 3 to 8) (size 9 to 14) (size 15 to 20)
#    0.000    2.857    1.429    1.286    0.000    2.000 
#    0.000    5.000    0.000    1.714    0.000    0.000 
#    0.000    0.000    0.000    0.000    0.000    0.000 
#
# Total GULP energy -694249.265311 kJ/mol
# GULP energy per Si atom -12397.308309 kJ/mol
# Density = 1.709878 g / cm^3
# Si number density = 17.137786 Si / 1000 Ang^3
#
#
#
# Elastic Constant Matrix: (Units=GPa)
#
#
# Indices 1 2 3 4 5 6 
#
# 1 108.2890 36.1938 79.6924 0.0000 0.0000 0.0000
# 2 36.1938 40.6815 56.9707 0.0000 0.0000 0.0000
# 3 79.6924 56.9707 176.3821 0.0000 0.0000 0.0000
# 4 0.0000 0.0000 0.0000 21.5897 0.0000 0.0000
# 5 0.0000 0.0000 0.0000 0.0000 27.8304 0.0000
# 6 0.0000 0.0000 0.0000 0.0000 0.0000 15.4943
#
#
#
# Elastic Compliance Matrix: (Units=1/GPa)
#
#
# Indices 1 2 3 4 5 6 
#
# 1 0.014842 -0.006963 -0.004457 0.000000 0.000000 0.000000
# 2 -0.006963 0.048150 -0.012406 0.000000 0.000000 0.000000
# 3 -0.004457 -0.012406 0.011690 0.000000 0.000000 0.000000
# 4 0.000000 0.000000 0.000000 0.046318 0.000000 0.000000
# 5 0.000000 0.000000 0.000000 0.000000 0.035932 0.000000
# 6 0.000000 0.000000 0.000000 0.000000 0.000000 0.064540
#
#
# Mechanical properties :
#
#
# Convention : Reuss Voigt Hill
#
# Bulk Modulus (GPa) = 36.99622 74.56295 55.77958
# Shear Modulus (GPa) = 17.97694 23.14926 20.56310
#
# Velocity S-wave (km/s) = 3.24229 3.67927 3.46767
# Velocity P-wave (km/s) = 5.97084 7.85186 6.97505
#
# Compressibility (1/GPa) = 0.02702979
#
# Stress axis : x y z
#
# Youngs Moduli (GPa) = 67.37809 20.76837 85.54191
#
# Poissons Ratio (x) = 0.14462 0.38122
# Poissons Ratio (y) = 0.46918 1.06124
# Poissons Ratio (z) = 0.30027 0.25765
#
# Static dielectric constant tensor:
#      x y z
#    x 3.284410 0.000000 0.000000 
#    y 0.000000 3.010870 0.000000 
#    z 0.000000 0.000000 3.533060 
# 
# 
# High freq. dielectric constant tensor:
#      x y z
#    x 1.649150 0.000000 0.000000 
#    y 0.000000 1.627440 0.000000 
#    z 0.000000 0.000000 1.674990 
# 
# From -- ./inp_files/28035.got.cif
#   From: 2010.03.12/outbox.cif.g09.slc.cpg/sg59_15_cif.got.tgz:28035.got - 2010.04.16 16:29:54.
