data_PCOD8242530
_publ_section_title
;
Structure prediction by ZEFSAII (Michael W. Deem and Ramdas Pophale) SiO2 
 PCOD8242530
Probable space group: P M M N
;
_chemical_formula_sum "Si O2"
_cell_formula_units_Z 64
_cell_length_a 19.793221
_cell_length_b 9.109968
_cell_length_c 19.886896
_cell_angle_alpha 90.000000
_cell_angle_beta 90.000000
_cell_angle_gamma 90.000000
_cell_volume 3585.917782
_symmetry_space_group_name_H-M "P M M N"
_symmetry_group_IT_number 59
_space_group.IT_coordinate_system_code '2'
_symmetry_cell_setting 'orthorhombic'
loop_
_space_group_symop_operation_xyz
x,y,z
1/2-x,1/2-y,z
1/2+x,-y,-z
-x,1/2+y,-z
-x,-y,-z
1/2+x,1/2+y,-z
1/2-x,y,z
x,1/2-y,z
loop_
_atom_site_type_symbol
_atom_site_label
_atom_site_fract_x
_atom_site_fract_y
_atom_site_fract_z
Si Si1 0.172415 0.079270 0.824284
Si Si2 0.928892 0.078457 0.424174
Si Si3 0.434543 0.577443 0.422235
Si Si4 0.175949 0.576357 0.320390
Si Si5 0.171033 0.581424 0.168400
Si Si6 0.828492 0.916416 0.330506
Si Si7 0.578282 0.578399 0.934983
Si Si8 0.576749 0.077893 0.072059
O O1 0.250000 0.038968 0.841572
O O2 0.159350 0.250000 0.839215
O O3 0.156859 0.042896 0.746742
O O4 0.121922 0.982231 0.867680
O O5 0.939427 0.250000 0.414550
O O6 0.913807 0.038041 0.501672
O O7 0.866985 0.027024 0.379003
O O8 0.996381 0.998434 0.399913
O O9 0.444081 0.750000 0.412120
O O10 0.376914 0.511458 0.373743
O O11 0.250000 0.509169 0.335874
O O12 0.180105 0.750000 0.327906
O O13 0.153809 0.536631 0.244840
O O14 0.250000 0.558588 0.153345
O O15 0.150446 0.750000 0.154432
O O16 0.127842 0.473222 0.123161
O O17 0.750000 0.934329 0.346500
O O18 0.851973 0.750000 0.344907
O O19 0.587734 0.750000 0.947446
O O20 0.501605 0.540376 0.913585
O O21 0.599758 0.496503 0.002896
O O22 0.589072 0.250000 0.065286
#
# Coordination Sequence:
#
# PCOD8242530 Si02
#       8
#     8   8   8   8   8   8   8   8
#     4   9  19  36  56  77 101 132 170 208 249 301
#     4  10  20  32  49  75 105 134 168 213 257 299
#     4   9  18  33  52  73 100 136 173 208 251 303
#     4   8  15  30  52  75  97 125 166 211 249 291
#     4   9  18  33  53  76 100 127 163 207 251 294
#     4   9  19  36  55  74 100 135 172 208 249 303
#     4  10  21  36  53  74 102 135 168 202 243 296
#     4  10  21  36  54  77 103 131 166 208 251 293
#
# _framework density 17.847591999999999
#
# number of rings (size 3 to 8) (size 9 to 14) (size 15 to 20)
#    0.000    2.750    0.000    2.625    0.000    5.250 
#    0.000    6.875    0.000    1.125    0.000    0.000 
#    0.000    0.000    0.000    0.000    0.000    0.000 
#
# Total GULP energy -793641.745769 kJ/mol
# GULP energy per Si atom -12400.652278 kJ/mol
# Density = 1.780697 g / cm^3
# Si number density = 17.847592 Si / 1000 Ang^3
#
#
#
# Elastic Constant Matrix: (Units=GPa)
#
#
# Indices 1 2 3 4 5 6 
#
# 1 91.9250 42.2994 72.0258 0.0000 0.0000 0.0000
# 2 42.2994 61.1306 43.9692 0.0000 0.0000 0.0000
# 3 72.0258 43.9692 103.9405 0.0000 0.0000 0.0000
# 4 0.0000 0.0000 0.0000 30.4833 0.0000 0.0000
# 5 0.0000 0.0000 0.0000 0.0000 36.9191 0.0000
# 6 0.0000 0.0000 0.0000 0.0000 0.0000 31.0933
#
#
#
# Elastic Compliance Matrix: (Units=1/GPa)
#
#
# Indices 1 2 3 4 5 6 
#
# 1 0.025824 -0.007184 -0.014856 0.000000 0.000000 0.000000
# 2 -0.007184 0.025511 -0.005814 0.000000 0.000000 0.000000
# 3 -0.014856 -0.005814 0.022375 0.000000 0.000000 0.000000
# 4 0.000000 0.000000 0.000000 0.032805 0.000000 0.000000
# 5 0.000000 0.000000 0.000000 0.000000 0.027086 0.000000
# 6 0.000000 0.000000 0.000000 0.000000 0.000000 0.032161
#
#
# Mechanical properties :
#
#
# Convention : Reuss Voigt Hill
#
# Bulk Modulus (GPa) = 55.54673 63.73166 59.63920
# Shear Modulus (GPa) = 21.98097 26.27926 24.13012
#
# Velocity S-wave (km/s) = 3.51321 3.84138 3.68096
# Velocity P-wave (km/s) = 6.90270 7.44724 7.18013
#
# Compressibility (1/GPa) = 0.01800286
#
# Stress axis : x y z
#
# Youngs Moduli (GPa) = 38.72363 39.19918 44.69326
#
# Poissons Ratio (x) = 0.28159 0.66396
# Poissons Ratio (y) = 0.27817 0.25984
# Poissons Ratio (z) = 0.57528 0.22790
#
# Static dielectric constant tensor:
#      x y z
#    x 3.431810 0.000000 0.000000 
#    y 0.000000 3.148150 0.000000 
#    z 0.000000 0.000000 3.337000 
# 
# 
# High freq. dielectric constant tensor:
#      x y z
#    x 1.693150 0.000000 0.000000 
#    y 0.000000 1.679540 0.000000 
#    z 0.000000 0.000000 1.693810 
# 
# From -- ./inp_files/30670.got.cif
#   From: 2010.03.12/outbox.cif.g09.slc.cpg/sg59_16_cif.got.tgz:30670.got - 2010.04.16 16:29:54.
