data_PCOD8242297
_publ_section_title
;
Structure prediction by ZEFSAII (Michael W. Deem and Ramdas Pophale) SiO2 
 PCOD8242297
Probable space group: P M M N
;
_chemical_formula_sum "Si O2"
_cell_formula_units_Z 48
_cell_length_a 14.465245
_cell_length_b 9.422853
_cell_length_c 18.356899
_cell_angle_alpha 90.000000
_cell_angle_beta 90.000000
_cell_angle_gamma 90.000000
_cell_volume 2502.116508
_symmetry_space_group_name_H-M "P M M N"
_symmetry_group_IT_number 59
_space_group.IT_coordinate_system_code '2'
_symmetry_cell_setting 'orthorhombic'
loop_
_space_group_symop_operation_xyz
x,y,z
1/2-x,1/2-y,z
1/2+x,-y,-z
-x,1/2+y,-z
-x,-y,-z
1/2+x,1/2+y,-z
1/2-x,y,z
x,1/2-y,z
loop_
_atom_site_type_symbol
_atom_site_label
_atom_site_fract_x
_atom_site_fract_y
_atom_site_fract_z
Si Si1 0.008741 0.085980 0.263434
Si Si2 0.351292 0.089906 0.675298
Si Si3 0.035684 0.413258 0.099711
Si Si4 0.117111 0.593088 0.538017
Si Si5 0.144733 0.584187 0.985076
Si Si6 0.409533 0.405291 0.412562
O O1 0.978138 0.250000 0.272602
O O2 0.053480 0.058121 0.184983
O O3 0.080779 0.045994 0.327926
O O4 0.918053 0.989722 0.268888
O O5 0.250000 0.093541 0.711735
O O6 0.387671 0.250000 0.660949
O O7 0.341668 0.008206 0.599303
O O8 0.053673 0.250000 0.079641
O O9 0.111608 0.505368 0.057979
O O10 0.929168 0.453712 0.078737
O O11 0.162367 0.750000 0.540909
O O12 0.144364 0.523392 0.459552
O O13 0.008653 0.608468 0.549719
O O14 0.250000 0.536894 0.963929
O O15 0.143390 0.750000 0.002349
O O16 0.360709 0.250000 0.415837
#
# Coordination Sequence:
#
# PCOD8242297 Si02
#       6
#     8   8   8   8   8   8
#     4   9  18  31  48  70  95 125 161 200 243 293
#     4  10  20  31  43  63  93 128 163 201 249 299
#     4   9  18  33  53  78 105 133 170 212 251 298
#     4   9  16  26  42  62  83 113 153 192 230 277
#     4   9  18  33  53  77 105 137 170 205 250 302
#     4   8  14  25  41  62  86 111 144 188 235 281
#
# _framework density 19.183758999999998
#
# number of rings (size 3 to 8) (size 9 to 14) (size 15 to 20)
#    0.000    3.000    0.000    2.000    0.000    7.000 
#    0.000    1.667    0.000    1.000    0.000    2.333 
#    0.000    0.000    0.000    0.000    0.000    0.000 
#
# Total GULP energy -594796.185226 kJ/mol
# GULP energy per Si atom -12391.587192 kJ/mol
# Density = 1.914010 g / cm^3
# Si number density = 19.183759 Si / 1000 Ang^3
#
#
#
# Elastic Constant Matrix: (Units=GPa)
#
#
# Indices 1 2 3 4 5 6 
#
# 1 48.6768 9.3220 -0.0371 0.0000 0.0000 0.0000
# 2 9.3220 79.9556 25.7006 0.0000 0.0000 0.0000
# 3 -0.0371 25.7006 97.8882 0.0000 0.0000 0.0000
# 4 0.0000 0.0000 0.0000 30.7770 0.0000 0.0000
# 5 0.0000 0.0000 0.0000 0.0000 2.2117 0.0000
# 6 0.0000 0.0000 0.0000 0.0000 0.0000 10.2092
#
#
#
# Elastic Compliance Matrix: (Units=1/GPa)
#
#
# Indices 1 2 3 4 5 6 
#
# 1 0.021058 -0.002684 0.000713 0.000000 0.000000 0.000000
# 2 -0.002684 0.014002 -0.003677 0.000000 0.000000 0.000000
# 3 0.000713 -0.003677 0.011181 0.000000 0.000000 0.000000
# 4 0.000000 0.000000 0.000000 0.032492 0.000000 0.000000
# 5 0.000000 0.000000 0.000000 0.000000 0.452144 0.000000
# 6 0.000000 0.000000 0.000000 0.000000 0.000000 0.097951
#
#
# Mechanical properties :
#
#
# Convention : Reuss Voigt Hill
#
# Bulk Modulus (GPa) = 28.61711 32.94349 30.78030
# Shear Modulus (GPa) = 7.67137 21.40859 14.53998
#
# Velocity S-wave (km/s) = 2.00189 3.34424 2.75604
# Velocity P-wave (km/s) = 4.50479 5.66761 5.11933
#
# Compressibility (1/GPa) = 0.03494413
#
# Stress axis : x y z
#
# Youngs Moduli (GPa) = 47.48729 71.41887 89.43368
#
# Poissons Ratio (x) = 0.19171 -0.06374
# Poissons Ratio (y) = 0.12747 0.32887
# Poissons Ratio (z) = -0.03385 0.26262
#
# Static dielectric constant tensor:
#      x y z
#    x 3.272890 0.000000 0.000000 
#    y 0.000000 3.764480 0.000000 
#    z 0.000000 0.000000 3.457990 
# 
# 
# High freq. dielectric constant tensor:
#      x y z
#    x 1.716620 0.000000 0.000000 
#    y 0.000000 1.751560 0.000000 
#    z 0.000000 0.000000 1.731850 
# 
# From -- ./inp_files/27789.got.cif
#   From: 2010.03.12/outbox.cif.g09.slc.cpg/sg59_14_cif.got.tgz:27789.got - 2010.04.16 16:29:54.
