data_PCOD8242811
_publ_section_title
;
Structure prediction by ZEFSAII (Michael W. Deem and Ramdas Pophale) SiO2 
 PCOD8242811
Probable space group: P M M N
;
_chemical_formula_sum "Si O2"
_cell_formula_units_Z 64
_cell_length_a 24.016349
_cell_length_b 9.203912
_cell_length_c 16.596898
_cell_angle_alpha 90.000000
_cell_angle_beta 90.000000
_cell_angle_gamma 90.000000
_cell_volume 3668.650742
_symmetry_space_group_name_H-M "P M M N"
_symmetry_group_IT_number 59
_space_group.IT_coordinate_system_code '2'
_symmetry_cell_setting 'orthorhombic'
loop_
_space_group_symop_operation_xyz
x,y,z
1/2-x,1/2-y,z
1/2+x,-y,-z
-x,1/2+y,-z
-x,-y,-z
1/2+x,1/2+y,-z
1/2-x,y,z
x,1/2-y,z
loop_
_atom_site_type_symbol
_atom_site_label
_atom_site_fract_x
_atom_site_fract_y
_atom_site_fract_z
Si Si1 0.184198 0.590693 0.090989
Si Si2 0.089116 0.585708 0.524280
Si Si3 0.314545 0.578903 0.911186
Si Si4 0.187295 0.584975 0.635996
Si Si5 0.970378 0.418718 0.313864
Si Si6 0.623661 0.577027 0.228572
Si Si7 0.686603 0.578350 0.754110
Si Si8 0.590668 0.581446 0.639108
O O1 0.250000 0.603250 0.091438
O O2 0.158511 0.750000 0.108659
O O3 0.164394 0.481254 0.160429
O O4 0.166659 0.537195 0.002072
O O5 0.075372 0.750000 0.499420
O O6 0.152580 0.568582 0.554101
O O7 0.048392 0.534113 0.596122
O O8 0.080540 0.488952 0.446739
O O9 0.250000 0.537237 0.895080
O O10 0.323064 0.750000 0.895393
O O11 0.355021 0.484284 0.856013
O O12 0.250000 0.545220 0.613307
O O13 0.181771 0.750000 0.669797
O O14 0.166589 0.473839 0.703227
O O15 0.954383 0.250000 0.300560
O O16 0.937900 0.514170 0.247678
O O17 0.036329 0.446116 0.305188
O O18 0.620990 0.750000 0.225436
O O19 0.750000 0.527250 0.735047
O O20 0.683013 0.750000 0.760064
O O21 0.645296 0.518876 0.684536
O O22 0.598847 0.750000 0.622155
#
# Coordination Sequence:
#
# PCOD8242811 Si02
#       8
#     8   8   8   8   8   8   8   8
#     4   8  15  29  49  72  96 125 161 193 223 269
#     4   9  18  31  48  70  92 119 159 206 246 274
#     4   9  17  30  49  72  99 131 162 190 226 277
#     4   9  18  33  49  65  94 135 168 192 229 284
#     4   9  19  36  52  65  89 127 167 201 237 283
#     4  11  21  30  45  72 100 124 157 201 243 280
#     4   9  18  32  49  72 102 128 149 184 239 291
#     4  10  20  33  51  72  93 124 162 196 236 290
#
# _framework density 17.445107
#
# number of rings (size 3 to 8) (size 9 to 14) (size 15 to 20)
#    0.000    2.750    0.000    3.375    0.000    6.000 
#    0.000    1.250    0.000    0.750    0.000    0.000 
#    0.000    0.000    0.000    0.000    0.000    0.000 
#
# Total GULP energy -793370.593552 kJ/mol
# GULP energy per Si atom -12396.415524 kJ/mol
# Density = 1.740540 g / cm^3
# Si number density = 17.445107 Si / 1000 Ang^3
#
#
#
# Elastic Constant Matrix: (Units=GPa)
#
#
# Indices 1 2 3 4 5 6 
#
# 1 90.3959 32.8679 35.2658 0.0000 0.0000 0.0000
# 2 32.8679 64.3603 40.0477 0.0000 0.0000 0.0000
# 3 35.2658 40.0477 81.5906 0.0000 0.0000 0.0000
# 4 0.0000 0.0000 0.0000 29.3851 0.0000 0.0000
# 5 0.0000 0.0000 0.0000 0.0000 17.9527 0.0000
# 6 0.0000 0.0000 0.0000 0.0000 0.0000 16.5094
#
#
#
# Elastic Compliance Matrix: (Units=1/GPa)
#
#
# Indices 1 2 3 4 5 6 
#
# 1 0.014339 -0.004991 -0.003748 0.000000 0.000000 0.000000
# 2 -0.004991 0.024107 -0.009675 0.000000 0.000000 0.000000
# 3 -0.003748 -0.009675 0.018625 0.000000 0.000000 0.000000
# 4 0.000000 0.000000 0.000000 0.034031 0.000000 0.000000
# 5 0.000000 0.000000 0.000000 0.000000 0.055702 0.000000
# 6 0.000000 0.000000 0.000000 0.000000 0.000000 0.060571
#
#
# Mechanical properties :
#
#
# Convention : Reuss Voigt Hill
#
# Bulk Modulus (GPa) = 49.39994 50.30106 49.85050
# Shear Modulus (GPa) = 19.92417 21.31382 20.61899
#
# Velocity S-wave (km/s) = 3.38317 3.49917 3.44166
# Velocity P-wave (km/s) = 6.60606 6.72474 6.66566
#
# Compressibility (1/GPa) = 0.02024294
#
# Stress axis : x y z
#
# Youngs Moduli (GPa) = 69.73834 41.48251 53.68992
#
# Poissons Ratio (x) = 0.20702 0.20125
# Poissons Ratio (y) = 0.34803 0.51947
# Poissons Ratio (z) = 0.26140 0.40136
#
# Static dielectric constant tensor:
#      x y z
#    x 3.332700 0.000000 0.000000 
#    y 0.000000 3.723130 0.000000 
#    z 0.000000 0.000000 3.243240 
# 
# 
# High freq. dielectric constant tensor:
#      x y z
#    x 1.662250 0.000000 0.000000 
#    y 0.000000 1.665000 0.000000 
#    z 0.000000 0.000000 1.662970 
# 
# From -- ./inp_files/28497.got.cif
#   From: 2010.03.12/outbox.cif.g09.slc.cpg/sg59_15_cif.got.tgz:28497.got - 2010.04.16 16:29:54.
