data_PCOD8242015
_publ_section_title
;
Structure prediction by ZEFSAII (Michael W. Deem and Ramdas Pophale) SiO2 
 PCOD8242015
Probable space group: P M M N
;
_chemical_formula_sum "Si O2"
_cell_formula_units_Z 56
_cell_length_a 13.121483
_cell_length_b 23.853409
_cell_length_c 8.212852
_cell_angle_alpha 90.000000
_cell_angle_beta 90.000000
_cell_angle_gamma 90.000000
_cell_volume 2570.557800
_symmetry_space_group_name_H-M "P M M N"
_symmetry_group_IT_number 59
_space_group.IT_coordinate_system_code '2'
_symmetry_cell_setting 'orthorhombic'
loop_
_space_group_symop_operation_xyz
x,y,z
1/2-x,1/2-y,z
1/2+x,-y,-z
-x,1/2+y,-z
-x,-y,-z
1/2+x,1/2+y,-z
1/2-x,y,z
x,1/2-y,z
loop_
_atom_site_type_symbol
_atom_site_label
_atom_site_fract_x
_atom_site_fract_y
_atom_site_fract_z
Si Si1 0.871032 0.967046 0.353991
Si Si2 0.371457 0.922220 0.154679
Si Si3 0.371929 0.465663 0.005501
Si Si4 0.369804 0.098303 0.328196
Si Si5 0.021479 0.687746 0.656343
Si Si6 0.133558 0.689299 0.991750
Si Si7 0.130436 0.916600 0.511550
O O1 0.750000 0.958982 0.363566
O O2 0.917130 0.933816 0.511632
O O3 0.897578 0.033446 0.363869
O O4 0.910408 0.945046 0.174929
O O5 0.250000 0.925024 0.154953
O O6 0.413386 0.935147 0.335264
O O7 0.413715 0.970557 0.033724
O O8 0.409124 0.860381 0.104204
O O9 0.250000 0.466504 0.003973
O O10 0.409410 0.427819 0.157118
O O11 0.250000 0.096393 0.336370
O O12 0.407267 0.162513 0.334909
O O13 0.018986 0.750000 0.575534
O O14 0.064798 0.692548 0.834982
O O15 0.089420 0.644261 0.557138
O O16 0.250000 0.676782 0.939224
O O17 0.126559 0.750000 0.082537
O O18 0.250000 0.908545 0.498226
#
# Coordination Sequence:
#
# PCOD8242015 Si02
#       7
#     8   8   8   8   8   8   8
#     4   9  17  33  60  90 118 148 182 229 288 346
#     4   9  16  30  54  84 118 152 184 222 273 335
#     4   9  16  31  57  85 113 145 182 228 284 338
#     4  10  21  40  61  83 113 146 189 242 289 337
#     4  11  24  39  55  80 110 149 199 240 280 332
#     4   9  18  34  54  76 108 150 192 231 274 332
#     4  10  19  34  57  86 122 153 181 226 280 341
#
# _framework density 21.785153999999999
#
# number of rings (size 3 to 8) (size 9 to 14) (size 15 to 20)
#    0.000    2.429    1.429    1.286    0.000    4.571 
#    2.571    2.857    0.000    0.000    0.000    4.000 
#    0.000    0.000    0.000    0.000    0.000    0.000 
#
# Total GULP energy -694004.236417 kJ/mol
# GULP energy per Si atom -12392.932793 kJ/mol
# Density = 2.173557 g / cm^3
# Si number density = 21.785154 Si / 1000 Ang^3
#
#
#
# Elastic Constant Matrix: (Units=GPa)
#
#
# Indices 1 2 3 4 5 6 
#
# 1 13.2885 14.4073 26.8311 0.0000 0.0000 0.0000
# 2 14.4073 141.1509 57.1865 0.0000 0.0000 0.0000
# 3 26.8311 57.1865 151.5549 0.0000 0.0000 0.0000
# 4 0.0000 0.0000 0.0000 30.6106 0.0000 0.0000
# 5 0.0000 0.0000 0.0000 0.0000 24.1624 0.0000
# 6 0.0000 0.0000 0.0000 0.0000 0.0000 28.6160
#
#
#
# Elastic Compliance Matrix: (Units=1/GPa)
#
#
# Indices 1 2 3 4 5 6 
#
# 1 0.119261 -0.004272 -0.019502 0.000000 0.000000 0.000000
# 2 -0.004272 0.008516 -0.002457 0.000000 0.000000 0.000000
# 3 -0.019502 -0.002457 0.010978 0.000000 0.000000 0.000000
# 4 0.000000 0.000000 0.000000 0.032668 0.000000 0.000000
# 5 0.000000 0.000000 0.000000 0.000000 0.041387 0.000000
# 6 0.000000 0.000000 0.000000 0.000000 0.000000 0.034946
#
#
# Mechanical properties :
#
#
# Convention : Reuss Voigt Hill
#
# Bulk Modulus (GPa) = 11.58839 55.87158 33.72998
# Shear Modulus (GPa) = 15.19840 30.51576 22.85708
#
# Velocity S-wave (km/s) = 2.64417 3.74673 3.24266
# Velocity P-wave (km/s) = 3.82794 6.66481 5.43474
#
# Compressibility (1/GPa) = 0.08629329
#
# Stress axis : x y z
#
# Youngs Moduli (GPa) = 8.38497 117.42418 91.09116
#
# Poissons Ratio (x) = 0.50163 1.77645
# Poissons Ratio (y) = 0.03582 0.22382
# Poissons Ratio (z) = 0.16352 0.28852
#
# Static dielectric constant tensor:
#      x y z
#    x 3.886540 0.000000 0.000000 
#    y 0.000000 4.274740 0.000000 
#    z 0.000000 0.000000 4.157590 
# 
# 
# High freq. dielectric constant tensor:
#      x y z
#    x 1.868700 0.000000 0.000000 
#    y 0.000000 1.837160 0.000000 
#    z 0.000000 0.000000 1.856850 
# 
# From -- ./inp_files/9340.got.cif
#   From: 2010.03.12/outbox.cif.g09.slc.cpg/sg59_5_cif.got.tgz:9340.got - 2010.04.16 16:29:54.
