data_PCOD8242519
_publ_section_title
;
Structure prediction by ZEFSAII (Michael W. Deem and Ramdas Pophale) SiO2 
 PCOD8242519
Probable space group: P M M N
;
_chemical_formula_sum "Si O2"
_cell_formula_units_Z 48
_cell_length_a 9.119134
_cell_length_b 33.275219
_cell_length_c 9.002440
_cell_angle_alpha 90.000000
_cell_angle_beta 90.000000
_cell_angle_gamma 90.000000
_cell_volume 2731.711025
_symmetry_space_group_name_H-M "P M M N"
_symmetry_group_IT_number 59
_space_group.IT_coordinate_system_code '2'
_symmetry_cell_setting 'orthorhombic'
loop_
_space_group_symop_operation_xyz
x,y,z
1/2-x,1/2-y,z
1/2+x,-y,-z
-x,1/2+y,-z
-x,-y,-z
1/2+x,1/2+y,-z
1/2-x,y,z
x,1/2-y,z
loop_
_atom_site_type_symbol
_atom_site_label
_atom_site_fract_x
_atom_site_fract_y
_atom_site_fract_z
Si Si1 0.911526 0.837625 0.619008
Si Si2 0.919137 0.132456 0.946803
Si Si3 0.075697 0.458942 0.456491
Si Si4 0.920011 0.385009 0.604673
Si Si5 0.089220 0.414751 0.173934
Si Si6 0.422825 0.204826 0.096859
O O1 0.750000 0.827741 0.552479
O O2 0.900334 0.876602 0.720576
O O3 0.025088 0.845575 0.485596
O O4 0.966388 0.802262 0.729493
O O5 0.750000 0.137487 0.985550
O O6 0.947621 0.123469 0.776093
O O7 0.997448 0.174119 0.987108
O O8 0.978112 0.094066 0.039822
O O9 0.250000 0.461010 0.480931
O O10 0.037973 0.451099 0.281836
O O11 0.000000 0.500000 0.500000
O O12 0.012188 0.424031 0.560757
O O13 0.750000 0.392450 0.568263
O O14 0.250000 0.424042 0.105982
O O15 0.250000 0.197677 0.078532
O O16 0.468803 0.250000 0.052908
#
# Coordination Sequence:
#
# PCOD8242519 Si02
#       6
#     8   8   8   8   8   8
#     4   8  15  29  49  71  93 121 160 201 238 281
#     4  10  20  32  49  74 102 132 165 201 242 290
#     4  10  20  34  53  76  99 126 162 204 248 291
#     4  10  20  33  49  72 101 130 162 199 239 288
#     4   8  16  31  50  71  95 125 162 199 235 284
#     4   9  18  33  52  73  97 126 162 203 244 288
#
# _framework density 17.571404000000001
#
# number of rings (size 3 to 8) (size 9 to 14) (size 15 to 20)
#    0.000    2.833    0.000    3.500    0.000    9.667 
#    0.000    1.667    0.000    3.000    0.000    0.000 
#    0.000    0.000    0.000    0.000    0.000    0.000 
#
# Total GULP energy -594912.519151 kJ/mol
# GULP energy per Si atom -12394.010816 kJ/mol
# Density = 1.753141 g / cm^3
# Si number density = 17.571404 Si / 1000 Ang^3
#
#
#
# Elastic Constant Matrix: (Units=GPa)
#
#
# Indices 1 2 3 4 5 6 
#
# 1 105.8598 47.5394 65.2777 0.0000 0.0000 0.0000
# 2 47.5394 76.4054 34.2602 0.0000 0.0000 0.0000
# 3 65.2777 34.2602 92.0630 0.0000 0.0000 0.0000
# 4 0.0000 0.0000 0.0000 19.3918 0.0000 0.0000
# 5 0.0000 0.0000 0.0000 0.0000 31.3826 0.0000
# 6 0.0000 0.0000 0.0000 0.0000 0.0000 23.0587
#
#
#
# Elastic Compliance Matrix: (Units=1/GPa)
#
#
# Indices 1 2 3 4 5 6 
#
# 1 0.019575 -0.007149 -0.011220 0.000000 0.000000 0.000000
# 2 -0.007149 0.018320 -0.001749 0.000000 0.000000 0.000000
# 3 -0.011220 -0.001749 0.019468 0.000000 0.000000 0.000000
# 4 0.000000 0.000000 0.000000 0.051568 0.000000 0.000000
# 5 0.000000 0.000000 0.000000 0.000000 0.031865 0.000000
# 6 0.000000 0.000000 0.000000 0.000000 0.000000 0.043368
#
#
# Mechanical properties :
#
#
# Convention : Reuss Voigt Hill
#
# Bulk Modulus (GPa) = 58.37931 63.16478 60.77205
# Shear Modulus (GPa) = 21.72886 23.25002 22.48944
#
# Velocity S-wave (km/s) = 3.52035 3.64149 3.58143
# Velocity P-wave (km/s) = 7.05833 7.32845 7.19466
#
# Compressibility (1/GPa) = 0.01712936
#
# Stress axis : x y z
#
# Youngs Moduli (GPa) = 51.08450 54.58438 51.36577
#
# Poissons Ratio (x) = 0.39022 0.57631
# Poissons Ratio (y) = 0.36520 0.08982
# Poissons Ratio (z) = 0.57315 0.09545
#
# Static dielectric constant tensor:
#      x y z
#    x 3.368670 0.000000 0.000000 
#    y 0.000000 3.482020 0.000000 
#    z 0.000000 0.000000 3.330590 
# 
# 
# High freq. dielectric constant tensor:
#      x y z
#    x 1.684670 0.000000 0.000000 
#    y 0.000000 1.659720 0.000000 
#    z 0.000000 0.000000 1.670390 
# 
# From -- ./inp_files/6324.got.cif
#   From: 2010.03.12/outbox.cif.g09.slc.cpg/sg59_4_cif.got.tgz:6324.got - 2010.04.16 16:29:54.
