data_PCOD8242007
_publ_section_title
;
Structure prediction by ZEFSAII (Michael W. Deem and Ramdas Pophale) SiO2 
 PCOD8242007
Probable space group: P M M N
;
_chemical_formula_sum "Si O2"
_cell_formula_units_Z 56
_cell_length_a 14.340714
_cell_length_b 8.884147
_cell_length_c 21.850170
_cell_angle_alpha 90.000000
_cell_angle_beta 90.000000
_cell_angle_gamma 90.000000
_cell_volume 2783.821155
_symmetry_space_group_name_H-M "P M M N"
_symmetry_group_IT_number 59
_space_group.IT_coordinate_system_code '2'
_symmetry_cell_setting 'orthorhombic'
loop_
_space_group_symop_operation_xyz
x,y,z
1/2-x,1/2-y,z
1/2+x,-y,-z
-x,1/2+y,-z
-x,-y,-z
1/2+x,1/2+y,-z
1/2-x,y,z
x,1/2-y,z
loop_
_atom_site_type_symbol
_atom_site_label
_atom_site_fract_x
_atom_site_fract_y
_atom_site_fract_z
Si Si1 0.647491 0.084285 0.121641
Si Si2 0.141372 0.074463 0.163509
Si Si3 0.951860 0.569928 0.710918
Si Si4 0.848028 0.419618 0.266049
Si Si5 0.467463 0.573256 0.410476
Si Si6 0.014116 0.924236 0.065058
Si Si7 0.641827 0.072994 0.467621
O O1 0.750000 0.055654 0.093843
O O2 0.611006 0.250000 0.099985
O O3 0.650919 0.083400 0.193678
O O4 0.582000 0.949636 0.100610
O O5 0.250000 0.039986 0.162951
O O6 0.118220 0.250000 0.157667
O O7 0.101439 0.012834 0.228297
O O8 0.097853 0.993796 0.104661
O O9 0.946741 0.750000 0.708023
O O10 0.913568 0.497386 0.648448
O O11 0.057499 0.502155 0.711926
O O12 0.750000 0.497580 0.288364
O O13 0.847963 0.250000 0.291533
O O14 0.478146 0.750000 0.402342
O O15 0.398083 0.531071 0.465647
O O16 0.572147 0.505235 0.418936
O O17 0.034901 0.750000 0.056124
O O18 0.000000 0.000000 0.000000
O O19 0.750000 0.017252 0.461309
O O20 0.636907 0.250000 0.455828
#
# Coordination Sequence:
#
# PCOD8242007 Si02
#       7
#     8   8   8   8   8   8   8
#     4   9  17  34  60  85 110 142 182 228 280 339
#     4  10  22  42  65  88 118 156 200 248 292 340
#     4  10  19  34  57  84 118 156 194 231 281 351
#     4   8  14  27  51  79 105 138 179 222 270 331
#     4  10  21  35  54  85 119 149 190 243 293 339
#     4  12  25  40  61  86 117 153 193 241 294 351
#     4   9  19  38  60  79 107 153 201 241 288 346
#
# _framework density 20.116233999999999
#
# number of rings (size 3 to 8) (size 9 to 14) (size 15 to 20)
#    0.000    2.286    1.429    2.571    0.000    3.714 
#    0.000    1.429    0.000    0.000    0.000    0.000 
#    0.000    0.000    0.000    0.000    0.000    0.000 
#
# Total GULP energy -693878.614666 kJ/mol
# GULP energy per Si atom -12390.689548 kJ/mol
# Density = 2.007045 g / cm^3
# Si number density = 20.116234 Si / 1000 Ang^3
#
#
#
# Elastic Constant Matrix: (Units=GPa)
#
#
# Indices 1 2 3 4 5 6 
#
# 1 105.5437 37.1473 40.3941 0.0000 0.0000 0.0000
# 2 37.1473 61.1469 42.1119 0.0000 0.0000 0.0000
# 3 40.3941 42.1119 113.5091 0.0000 0.0000 0.0000
# 4 0.0000 0.0000 0.0000 30.3021 0.0000 0.0000
# 5 0.0000 0.0000 0.0000 0.0000 6.9387 0.0000
# 6 0.0000 0.0000 0.0000 0.0000 0.0000 18.8890
#
#
#
# Elastic Compliance Matrix: (Units=1/GPa)
#
#
# Indices 1 2 3 4 5 6 
#
# 1 0.012441 -0.006056 -0.002180 0.000000 0.000000 0.000000
# 2 -0.006056 0.024915 -0.007088 0.000000 0.000000 0.000000
# 3 -0.002180 -0.007088 0.012216 0.000000 0.000000 0.000000
# 4 0.000000 0.000000 0.000000 0.033001 0.000000 0.000000
# 5 0.000000 0.000000 0.000000 0.000000 0.144118 0.000000
# 6 0.000000 0.000000 0.000000 0.000000 0.000000 0.052941
#
#
# Mechanical properties :
#
#
# Convention : Reuss Voigt Hill
#
# Bulk Modulus (GPa) = 52.84989 57.72292 55.28641
# Shear Modulus (GPa) = 15.79338 21.92906 18.86122
#
# Velocity S-wave (km/s) = 2.80501 3.30527 3.06537
# Velocity P-wave (km/s) = 6.06796 6.58205 6.33023
#
# Compressibility (1/GPa) = 0.01892152
#
# Stress axis : x y z
#
# Youngs Moduli (GPa) = 80.38066 40.13656 81.86299
#
# Poissons Ratio (x) = 0.24308 0.17849
# Poissons Ratio (y) = 0.48681 0.58026
# Poissons Ratio (z) = 0.17526 0.28450
#
# Static dielectric constant tensor:
#      x y z
#    x 3.842010 0.000000 0.000000 
#    y 0.000000 3.083260 0.000000 
#    z 0.000000 0.000000 3.248910 
# 
# 
# High freq. dielectric constant tensor:
#      x y z
#    x 1.792150 0.000000 0.000000 
#    y 0.000000 1.750800 0.000000 
#    z 0.000000 0.000000 1.790950 
# 
# From -- ./inp_files/30313.got.cif
#   From: 2010.03.12/outbox.cif.g09.slc.cpg/sg59_16_cif.got.tgz:30313.got - 2010.04.16 16:29:54.
