data_PCOD8242971
_publ_section_title
;
Structure prediction by ZEFSAII (Michael W. Deem and Ramdas Pophale) SiO2 
 PCOD8242971
Probable space group: P M M N
;
_chemical_formula_sum "Si O2"
_cell_formula_units_Z 40
_cell_length_a 10.036339
_cell_length_b 9.506605
_cell_length_c 23.593423
_cell_angle_alpha 90.000000
_cell_angle_beta 90.000000
_cell_angle_gamma 90.000000
_cell_volume 2251.084127
_symmetry_space_group_name_H-M "P M M N"
_symmetry_group_IT_number 59
_space_group.IT_coordinate_system_code '2'
_symmetry_cell_setting 'orthorhombic'
loop_
_space_group_symop_operation_xyz
x,y,z
1/2-x,1/2-y,z
1/2+x,-y,-z
-x,1/2+y,-z
-x,-y,-z
1/2+x,1/2+y,-z
1/2-x,y,z
x,1/2-y,z
loop_
_atom_site_type_symbol
_atom_site_label
_atom_site_fract_x
_atom_site_fract_y
_atom_site_fract_z
Si Si1 0.750000 0.913137 0.574791
Si Si2 0.897384 0.082940 0.832189
Si Si3 0.972580 0.086960 0.371785
Si Si4 0.096061 0.914049 0.040323
Si Si5 0.250000 0.587710 0.538994
Si Si6 0.598212 0.912945 0.261991
O O1 0.750000 0.750000 0.558010
O O2 0.622975 0.952938 0.612523
O O3 0.750000 0.997411 0.517094
O O4 0.750000 0.028147 0.814802
O O5 0.898271 0.250000 0.831882
O O6 0.932341 0.032731 0.895645
O O7 0.004954 0.023733 0.787645
O O8 0.956545 0.250000 0.355301
O O9 0.880835 0.049264 0.425236
O O10 0.927091 0.995737 0.319204
O O11 0.250000 0.942615 0.024337
O O12 0.062473 0.750000 0.034032
O O13 0.000000 0.000000 0.000000
O O14 0.250000 0.750000 0.521076
O O15 0.750000 0.932986 0.242102
O O16 0.565297 0.750000 0.273500
#
# Coordination Sequence:
#
# PCOD8242971 Si02
#       6
#     4   8   8   8   4   8
#     4  10  22  36  54  78 102 130 167 208 249 298
#     4   8  16  32  52  74 103 137 172 214 260 301
#     4  10  21  37  53  74 105 136 164 203 257 306
#     4   9  18  33  53  78 109 143 178 219 265 312
#     4  10  20  36  56  74 100 136 167 200 251 308
#     4  10  20  33  52  78 102 129 171 215 252 300
#
# _framework density 17.769216
#
# number of rings (size 3 to 8) (size 9 to 14) (size 15 to 20)
#    0.000    2.600    1.000    1.800    1.400    2.800 
#    0.000    3.000    0.000    1.200    0.000    0.000 
#    0.000    0.000    0.000    0.000    0.000    0.000 
#
# Total GULP energy -495994.433186 kJ/mol
# GULP energy per Si atom -12399.860830 kJ/mol
# Density = 1.772877 g / cm^3
# Si number density = 17.769216 Si / 1000 Ang^3
#
#
#
# Elastic Constant Matrix: (Units=GPa)
#
#
# Indices 1 2 3 4 5 6 
#
# 1 115.6688 37.0413 50.5939 0.0000 0.0000 0.0000
# 2 37.0413 45.3511 42.0776 0.0000 0.0000 0.0000
# 3 50.5939 42.0776 95.8427 0.0000 0.0000 0.0000
# 4 0.0000 0.0000 0.0000 26.0173 0.0000 0.0000
# 5 0.0000 0.0000 0.0000 0.0000 -0.8061 0.0000
# 6 0.0000 0.0000 0.0000 0.0000 0.0000 21.9427
#
#
#
# Elastic Compliance Matrix: (Units=1/GPa)
#
#
# Indices 1 2 3 4 5 6 
#
# 1 0.012379 -0.006830 -0.003536 0.000000 0.000000 0.000000
# 2 -0.006830 0.040974 -0.014383 0.000000 0.000000 0.000000
# 3 -0.003536 -0.014383 0.018615 0.000000 0.000000 0.000000
# 4 0.000000 0.000000 0.000000 0.038436 0.000000 0.000000
# 5 0.000000 0.000000 0.000000 0.000000 -1.240560 0.000000
# 6 0.000000 0.000000 0.000000 0.000000 0.000000 0.045573
#
#
# Mechanical properties :
#
#
# Convention : Reuss Voigt Hill
#
# Bulk Modulus (GPa) = 44.50529 57.36537 50.93533
# Shear Modulus (GPa) = -4.86574 17.90744 6.52085
#
# Velocity S-wave (km/s) = -1.65657 3.17800 1.91774
# Velocity P-wave (km/s) = 4.63052 6.76904 5.79920
#
# Compressibility (1/GPa) = 0.02246924
#
# Stress axis : x y z
#
# Youngs Moduli (GPa) = 80.77939 24.40599 53.71978
#
# Poissons Ratio (x) = 0.16669 0.18997
# Poissons Ratio (y) = 0.55172 0.77266
# Poissons Ratio (z) = 0.28566 0.35103
#
# Static dielectric constant tensor:
#      x y z
#    x 1.690150 0.000000 0.000000 
#    y 0.000000 3.048530 0.000000 
#    z 0.000000 0.000000 3.296990 
# 
# 
# High freq. dielectric constant tensor:
#      x y z
#    x 1.704460 0.000000 0.000000 
#    y 0.000000 1.661990 0.000000 
#    z 0.000000 0.000000 1.688520 
# 
# From -- ./inp_files/29962.got.cif
#   From: 2010.03.12/outbox.cif.g09.slc.cpg/sg59_15_cif.got.tgz:29962.got - 2010.04.16 16:29:54.
