data_PCOD8242722
_publ_section_title
;
Structure prediction by ZEFSAII (Michael W. Deem and Ramdas Pophale) SiO2 
 PCOD8242722
Probable space group: P M M N
;
_chemical_formula_sum "Si O2"
_cell_formula_units_Z 64
_cell_length_a 13.735961
_cell_length_b 9.120501
_cell_length_c 28.985467
_cell_angle_alpha 90.000000
_cell_angle_beta 90.000000
_cell_angle_gamma 90.000000
_cell_volume 3631.265858
_symmetry_space_group_name_H-M "P M M N"
_symmetry_group_IT_number 59
_space_group.IT_coordinate_system_code '2'
_symmetry_cell_setting 'orthorhombic'
loop_
_space_group_symop_operation_xyz
x,y,z
1/2-x,1/2-y,z
1/2+x,-y,-z
-x,1/2+y,-z
-x,-y,-z
1/2+x,1/2+y,-z
1/2-x,y,z
x,1/2-y,z
loop_
_atom_site_type_symbol
_atom_site_label
_atom_site_fract_x
_atom_site_fract_y
_atom_site_fract_z
Si Si1 0.360780 0.421758 0.617223
Si Si2 0.142140 0.576166 0.159056
Si Si3 0.865738 0.414703 0.573089
Si Si4 0.964355 0.923679 0.656070
Si Si5 0.864945 0.418415 0.738381
Si Si6 0.641176 0.579626 0.014309
Si Si7 0.455258 0.577276 0.067876
Si Si8 0.366176 0.412920 0.514157
O O1 0.250000 0.476021 0.622553
O O2 0.368276 0.250000 0.628365
O O3 0.426153 0.514075 0.652454
O O4 0.402536 0.454165 0.565625
O O5 0.250000 0.511133 0.149493
O O6 0.149194 0.750000 0.158187
O O7 0.105557 0.529975 0.209912
O O8 0.068210 0.518966 0.119486
O O9 0.750000 0.416436 0.571548
O O10 0.905858 0.250000 0.580215
O O11 0.897945 0.515048 0.615136
O O12 0.907496 0.474588 0.524143
O O13 0.965581 0.750000 0.653613
O O14 0.921089 0.973872 0.704572
O O15 0.750000 0.435097 0.731003
O O16 0.895930 0.250000 0.729019
O O17 0.750000 0.543324 0.031800
O O18 0.628641 0.750000 0.002700
O O19 0.565717 0.532191 0.054552
O O20 0.620753 0.492681 0.967549
O O21 0.439828 0.750000 0.065148
O O22 0.250000 0.416359 0.515679
O O23 0.401408 0.250000 0.500640
#
# Coordination Sequence:
#
# PCOD8242722 Si02
#       8
#     8   8   8   8   8   8   8   8
#     4   9  19  37  58  75  93 121 157 196 235 276
#     4   8  14  26  47  72  92 115 154 202 243 276
#     4  10  20  33  50  72  99 131 162 191 227 276
#     4  12  24  34  49  73  99 127 156 191 237 287
#     4   9  18  34  54  73  95 123 155 195 243 291
#     4   9  17  27  39  62  99 135 162 195 240 282
#     4   9  16  27  45  67  91 125 168 205 237 281
#     4   8  15  30  51  73  96 121 151 190 233 274
#
# _framework density 17.624707999999998
#
# number of rings (size 3 to 8) (size 9 to 14) (size 15 to 20)
#    0.000    2.750    0.000    3.750    0.000    4.500 
#    0.000    1.875    0.000    1.500    0.000    3.500 
#    0.000    0.000    0.000    0.000    0.000    0.000 
#
# Total GULP energy -793440.111655 kJ/mol
# GULP energy per Si atom -12397.501745 kJ/mol
# Density = 1.758459 g / cm^3
# Si number density = 17.624708 Si / 1000 Ang^3
#
#
#
# Elastic Constant Matrix: (Units=GPa)
#
#
# Indices 1 2 3 4 5 6 
#
# 1 70.1603 36.5250 54.9725 0.0000 0.0000 0.0000
# 2 36.5250 77.9582 51.1707 0.0000 0.0000 0.0000
# 3 54.9725 51.1707 134.5585 0.0000 0.0000 0.0000
# 4 0.0000 0.0000 0.0000 24.2979 0.0000 0.0000
# 5 0.0000 0.0000 0.0000 0.0000 26.7496 0.0000
# 6 0.0000 0.0000 0.0000 0.0000 0.0000 19.6319
#
#
#
# Elastic Compliance Matrix: (Units=1/GPa)
#
#
# Indices 1 2 3 4 5 6 
#
# 1 0.022972 -0.006134 -0.007052 0.000000 0.000000 0.000000
# 2 -0.006134 0.018732 -0.004618 0.000000 0.000000 0.000000
# 3 -0.007052 -0.004618 0.012069 0.000000 0.000000 0.000000
# 4 0.000000 0.000000 0.000000 0.041156 0.000000 0.000000
# 5 0.000000 0.000000 0.000000 0.000000 0.037384 0.000000
# 6 0.000000 0.000000 0.000000 0.000000 0.000000 0.050938
#
#
# Mechanical properties :
#
#
# Convention : Reuss Voigt Hill
#
# Bulk Modulus (GPa) = 55.04966 63.11262 59.08114
# Shear Modulus (GPa) = 22.23080 23.46978 22.85029
#
# Velocity S-wave (km/s) = 3.55539 3.65312 3.60459
# Velocity P-wave (km/s) = 6.93949 7.32671 7.13573
#
# Compressibility (1/GPa) = 0.01816542
#
# Stress axis : x y z
#
# Youngs Moduli (GPa) = 43.53123 53.38407 82.85730
#
# Poissons Ratio (x) = 0.32745 0.58434
# Poissons Ratio (y) = 0.26701 0.38261
# Poissons Ratio (z) = 0.30700 0.24651
#
# Static dielectric constant tensor:
#      x y z
#    x 3.314590 0.000000 0.000000 
#    y 0.000000 3.167160 0.000000 
#    z 0.000000 0.000000 3.437430 
# 
# 
# High freq. dielectric constant tensor:
#      x y z
#    x 1.680020 0.000000 0.000000 
#    y 0.000000 1.665100 0.000000 
#    z 0.000000 0.000000 1.668410 
# 
# From -- ./inp_files/33343.got.cif
#   From: 2010.03.12/outbox.cif.g09.slc.cpg/sg59_17_cif.got.tgz:33343.got - 2010.04.16 16:29:54.
