data_PCOD8242827
_publ_section_title
;
Structure prediction by ZEFSAII (Michael W. Deem and Ramdas Pophale) SiO2 
 PCOD8242827
Probable space group: P M M N
;
_chemical_formula_sum "Si O2"
_cell_formula_units_Z 48
_cell_length_a 9.249174
_cell_length_b 9.249404
_cell_length_c 30.655895
_cell_angle_alpha 90.000000
_cell_angle_beta 90.000000
_cell_angle_gamma 90.000000
_cell_volume 2622.591799
_symmetry_space_group_name_H-M "P M M N"
_symmetry_group_IT_number 59
_space_group.IT_coordinate_system_code '2'
_symmetry_cell_setting 'orthorhombic'
loop_
_space_group_symop_operation_xyz
x,y,z
1/2-x,1/2-y,z
1/2+x,-y,-z
-x,1/2+y,-z
-x,-y,-z
1/2+x,1/2+y,-z
1/2-x,y,z
x,1/2-y,z
loop_
_atom_site_type_symbol
_atom_site_label
_atom_site_fract_x
_atom_site_fract_y
_atom_site_fract_z
Si Si1 0.589210 0.919247 0.288112
Si Si2 0.583211 0.079418 0.038136
Si Si3 0.921092 0.911137 0.782997
Si Si4 0.581784 0.582792 0.387632
Si Si5 0.589204 0.578094 0.878560
Si Si6 0.419661 0.080200 0.461144
O O1 0.750000 0.979314 0.278926
O O2 0.585783 0.750000 0.280320
O O3 0.544659 0.954524 0.337653
O O4 0.477930 0.989383 0.255243
O O5 0.750000 0.035273 0.036287
O O6 0.560481 0.250000 0.032748
O O7 0.520096 0.023617 0.084271
O O8 0.500000 0.000000 0.000000
O O9 0.750000 0.907759 0.780291
O O10 0.984257 0.750000 0.776644
O O11 0.966063 0.973783 0.830783
O O12 0.750000 0.552171 0.397772
O O13 0.546682 0.750000 0.398140
O O14 0.480813 0.479089 0.415747
O O15 0.750000 0.516616 0.888621
O O16 0.596679 0.750000 0.877431
O O17 0.250000 0.047022 0.464030
O O18 0.451160 0.250000 0.464429
O O19 0.500000 0.000000 0.500000
#
# Coordination Sequence:
#
# PCOD8242827 Si02
#       6
#     8   8   8   8   8   8
#     4   9  19  35  53  75 105 139 173 210 253 300
#     4  10  20  33  51  75 100 128 165 207 251 302
#     4   9  18  32  51  76 103 131 167 210 253 300
#     4   9  19  37  58  78 103 137 176 215 254 299
#     4   8  15  30  50  70  96 131 167 205 251 299
#     4  11  24  39  56  81 110 138 171 212 256 303
#
# _framework density 18.302506000000001
#
# number of rings (size 3 to 8) (size 9 to 14) (size 15 to 20)
#    0.000    2.667    0.000    3.500    0.000    7.333 
#    0.000    7.500    0.000    1.000    0.000    0.000 
#    0.000    0.000    0.000    0.000    0.000    0.000 
#
# Total GULP energy -595110.512837 kJ/mol
# GULP energy per Si atom -12398.135684 kJ/mol
# Density = 1.826085 g / cm^3
# Si number density = 18.302506 Si / 1000 Ang^3
#
#
#
# Elastic Constant Matrix: (Units=GPa)
#
#
# Indices 1 2 3 4 5 6 
#
# 1 100.3090 50.0297 79.1836 0.0000 0.0000 0.0000
# 2 50.0297 56.9700 62.2334 0.0000 0.0000 0.0000
# 3 79.1836 62.2334 154.8079 0.0000 0.0000 0.0000
# 4 0.0000 0.0000 0.0000 31.3871 0.0000 0.0000
# 5 0.0000 0.0000 0.0000 0.0000 38.1638 0.0000
# 6 0.0000 0.0000 0.0000 0.0000 0.0000 29.9875
#
#
#
# Elastic Compliance Matrix: (Units=1/GPa)
#
#
# Indices 1 2 3 4 5 6 
#
# 1 0.020225 -0.011519 -0.005715 0.000000 0.000000 0.000000
# 2 -0.011519 0.037857 -0.009327 0.000000 0.000000 0.000000
# 3 -0.005715 -0.009327 0.013132 0.000000 0.000000 0.000000
# 4 0.000000 0.000000 0.000000 0.031860 0.000000 0.000000
# 5 0.000000 0.000000 0.000000 0.000000 0.026203 0.000000
# 6 0.000000 0.000000 0.000000 0.000000 0.000000 0.033347
#
#
# Mechanical properties :
#
#
# Convention : Reuss Voigt Hill
#
# Bulk Modulus (GPa) = 55.26694 77.22003 66.24349
# Shear Modulus (GPa) = 22.54514 27.95036 25.24775
#
# Velocity S-wave (km/s) = 3.51352 3.91209 3.71815
# Velocity P-wave (km/s) = 6.83533 7.91761 7.39629
#
# Compressibility (1/GPa) = 0.01809400
#
# Stress axis : x y z
#
# Youngs Moduli (GPa) = 49.44281 26.41492 76.14963
#
# Poissons Ratio (x) = 0.30427 0.43516
# Poissons Ratio (y) = 0.56953 0.71024
# Poissons Ratio (z) = 0.28254 0.24637
#
# Static dielectric constant tensor:
#      x y z
#    x 2.801410 0.000000 0.000000 
#    y 0.000000 3.133710 0.000000 
#    z 0.000000 0.000000 3.628610 
# 
# 
# High freq. dielectric constant tensor:
#      x y z
#    x 1.708770 0.000000 0.000000 
#    y 0.000000 1.686510 0.000000 
#    z 0.000000 0.000000 1.725830 
# 
# From -- ./inp_files/32791.got.cif
#   From: 2010.03.12/outbox.cif.g09.slc.cpg/sg59_17_cif.got.tgz:32791.got - 2010.04.16 16:29:54.
