data_PCOD8242855
_publ_section_title
;
Structure prediction by ZEFSAII (Michael W. Deem and Ramdas Pophale) SiO2 
 PCOD8242855
Probable space group: P M M N
;
_chemical_formula_sum "Si O2"
_cell_formula_units_Z 48
_cell_length_a 14.157123
_cell_length_b 9.316588
_cell_length_c 20.976514
_cell_angle_alpha 90.000000
_cell_angle_beta 90.000000
_cell_angle_gamma 90.000000
_cell_volume 2766.720016
_symmetry_space_group_name_H-M "P M M N"
_symmetry_group_IT_number 59
_space_group.IT_coordinate_system_code '2'
_symmetry_cell_setting 'orthorhombic'
loop_
_space_group_symop_operation_xyz
x,y,z
1/2-x,1/2-y,z
1/2+x,-y,-z
-x,1/2+y,-z
-x,-y,-z
1/2+x,1/2+y,-z
1/2-x,y,z
x,1/2-y,z
loop_
_atom_site_type_symbol
_atom_site_label
_atom_site_fract_x
_atom_site_fract_y
_atom_site_fract_z
Si Si1 0.500656 0.080674 0.241716
Si Si2 0.357155 0.582168 0.006621
Si Si3 0.988387 0.583591 0.905406
Si Si4 0.858683 0.583263 0.327089
Si Si5 0.141047 0.917671 0.326048
Si Si6 0.999019 0.414243 0.564609
O O1 0.499036 0.250000 0.254719
O O2 0.505222 0.043010 0.167511
O O3 0.594112 0.013083 0.272694
O O4 0.406048 0.010281 0.270172
O O5 0.250000 0.531205 0.994958
O O6 0.362142 0.750000 0.020866
O O7 0.398674 0.503036 0.068416
O O8 0.417014 0.540680 0.943905
O O9 0.964652 0.750000 0.913947
O O10 0.750000 0.539676 0.332618
O O11 0.872731 0.750000 0.308867
O O12 0.906942 0.550870 0.395025
O O13 0.250000 0.960298 0.330823
O O14 0.126071 0.750000 0.310186
O O15 0.092375 0.956022 0.393335
O O16 0.995144 0.250000 0.544501
O O17 0.000000 0.500000 0.500000
#
# Coordination Sequence:
#
# PCOD8242855 Si02
#       6
#     8   8   8   8   8   8
#     4  10  20  33  51  76 103 130 162 204 251 294
#     4   9  18  33  52  72  95 127 166 202 237 285
#     4   9  19  34  50  71 101 131 158 197 248 293
#     4   9  19  36  54  72  99 134 168 202 242 291
#     4   9  19  36  54  71  97 134 170 203 242 291
#     4   9  18  32  50  73 100 129 162 201 245 292
#
# _framework density 17.349063000000001
#
# number of rings (size 3 to 8) (size 9 to 14) (size 15 to 20)
#    0.000    2.833    0.000    1.500    0.000    7.000 
#    0.000    5.000    0.000    0.000    0.000    0.000 
#    0.000    0.000    0.000    0.000    0.000    0.000 
#
# Total GULP energy -595250.218179 kJ/mol
# GULP energy per Si atom -12401.046212 kJ/mol
# Density = 1.730958 g / cm^3
# Si number density = 17.349063 Si / 1000 Ang^3
#
#
#
# Elastic Constant Matrix: (Units=GPa)
#
#
# Indices 1 2 3 4 5 6 
#
# 1 167.6369 55.3177 72.8873 0.0000 0.0000 0.0000
# 2 55.3177 66.2329 67.4539 0.0000 0.0000 0.0000
# 3 72.8873 67.4539 140.7272 0.0000 0.0000 0.0000
# 4 0.0000 0.0000 0.0000 34.3041 0.0000 0.0000
# 5 0.0000 0.0000 0.0000 0.0000 12.4749 0.0000
# 6 0.0000 0.0000 0.0000 0.0000 0.0000 24.4484
#
#
#
# Elastic Compliance Matrix: (Units=1/GPa)
#
#
# Indices 1 2 3 4 5 6 
#
# 1 0.008501 -0.005111 -0.001953 0.000000 0.000000 0.000000
# 2 -0.005111 0.032571 -0.012965 0.000000 0.000000 0.000000
# 3 -0.001953 -0.012965 0.014332 0.000000 0.000000 0.000000
# 4 0.000000 0.000000 0.000000 0.029151 0.000000 0.000000
# 5 0.000000 0.000000 0.000000 0.000000 0.080161 0.000000
# 6 0.000000 0.000000 0.000000 0.000000 0.000000 0.040902
#
#
# Mechanical properties :
#
#
# Convention : Reuss Voigt Hill
#
# Bulk Modulus (GPa) = 65.16415 85.10164 75.13289
# Shear Modulus (GPa) = 19.93691 26.17467 23.05579
#
# Velocity S-wave (km/s) = 3.39361 3.88842 3.64941
# Velocity P-wave (km/s) = 7.27995 8.32579 7.82037
#
# Compressibility (1/GPa) = 0.01534586
#
# Stress axis : x y z
#
# Youngs Moduli (GPa) = 117.63298 30.70252 69.77428
#
# Poissons Ratio (x) = 0.15692 0.13628
# Poissons Ratio (y) = 0.60120 0.90461
# Poissons Ratio (z) = 0.22976 0.39805
#
# Static dielectric constant tensor:
#      x y z
#    x 3.565880 0.000000 0.000000 
#    y 0.000000 3.207350 0.000000 
#    z 0.000000 0.000000 3.155750 
# 
# 
# High freq. dielectric constant tensor:
#      x y z
#    x 1.675160 0.000000 0.000000 
#    y 0.000000 1.669180 0.000000 
#    z 0.000000 0.000000 1.667660 
# 
# From -- ./inp_files/27378.got.cif
#   From: 2010.03.12/outbox.cif.g09.slc.cpg/sg59_14_cif.got.tgz:27378.got - 2010.04.16 16:29:54.
