data_PCOD8242574
_publ_section_title
;
Structure prediction by ZEFSAII (Michael W. Deem and Ramdas Pophale) SiO2 
 PCOD8242574
Probable space group: P M M N
;
_chemical_formula_sum "Si O2"
_cell_formula_units_Z 48
_cell_length_a 8.819994
_cell_length_b 14.704966
_cell_length_c 19.868246
_cell_angle_alpha 90.000000
_cell_angle_beta 90.000000
_cell_angle_gamma 90.000000
_cell_volume 2576.866045
_symmetry_space_group_name_H-M "P M M N"
_symmetry_group_IT_number 59
_space_group.IT_coordinate_system_code '2'
_symmetry_cell_setting 'orthorhombic'
loop_
_space_group_symop_operation_xyz
x,y,z
1/2-x,1/2-y,z
1/2+x,-y,-z
-x,1/2+y,-z
-x,-y,-z
1/2+x,1/2+y,-z
1/2-x,y,z
x,1/2-y,z
loop_
_atom_site_type_symbol
_atom_site_label
_atom_site_fract_x
_atom_site_fract_y
_atom_site_fract_z
Si Si1 0.070188 0.750000 0.629451
Si Si2 0.069182 0.149769 0.916308
Si Si3 0.071141 0.515888 0.831220
Si Si4 0.430109 0.947068 0.437386
Si Si5 0.420542 0.356680 0.066143
Si Si6 0.930626 0.443132 0.317591
Si Si7 0.928951 0.250000 0.520984
O O1 0.250000 0.750000 0.626767
O O2 0.013442 0.840370 0.667691
O O3 0.001058 0.750000 0.554255
O O4 0.250000 0.152256 0.916621
O O5 0.006245 0.250000 0.897443
O O6 0.004824 0.077904 0.862254
O O7 0.015860 0.121166 0.991344
O O8 0.250000 0.510905 0.828059
O O9 0.007998 0.530500 0.756228
O O10 0.027559 0.599229 0.878496
O O11 0.250000 0.957088 0.440581
O O12 0.481326 0.841087 0.440249
O O13 0.500000 0.000000 0.500000
O O14 0.493359 0.986695 0.368420
O O15 0.250000 0.394581 0.074484
O O16 0.423356 0.250000 0.078560
O O17 0.750000 0.451078 0.324272
O O18 0.750000 0.250000 0.513574
#
# Coordination Sequence:
#
# PCOD8242574 Si02
#       7
#     4   8   8   8   8   8   4
#     4   9  16  32  54  72 104 143 164 193 259 328
#     4   8  15  31  52  73 101 139 177 216 266 314
#     4  10  20  32  52  79 105 136 175 216 260 313
#     4  11  21  37  59  81 106 138 178 218 257 309
#     4   9  18  32  51  74 103 139 176 215 263 315
#     4  10  21  36  53  78 109 141 173 209 260 316
#     4   9  18  34  58  78 100 139 172 203 261 318
#
# _framework density 18.627278
#
# number of rings (size 3 to 8) (size 9 to 14) (size 15 to 20)
#    0.000    2.500    1.667    2.000    1.167    1.000 
#    1.500    2.917    0.000    1.500    0.000    0.000 
#    0.000    0.000    0.000    0.000    0.000    0.000 
#
# Total GULP energy -595071.602683 kJ/mol
# GULP energy per Si atom -12397.325056 kJ/mol
# Density = 1.858488 g / cm^3
# Si number density = 18.627278 Si / 1000 Ang^3
#
#
#
# Elastic Constant Matrix: (Units=GPa)
#
#
# Indices 1 2 3 4 5 6 
#
# 1 19.7876 27.4330 24.2025 0.0000 0.0000 0.0000
# 2 27.4330 150.1177 101.1619 0.0000 0.0000 0.0000
# 3 24.2025 101.1619 173.0237 0.0000 0.0000 0.0000
# 4 0.0000 0.0000 0.0000 24.4519 0.0000 0.0000
# 5 0.0000 0.0000 0.0000 0.0000 21.3950 0.0000
# 6 0.0000 0.0000 0.0000 0.0000 0.0000 23.0824
#
#
#
# Elastic Compliance Matrix: (Units=1/GPa)
#
#
# Indices 1 2 3 4 5 6 
#
# 1 0.069143 -0.010095 -0.003769 0.000000 0.000000 0.000000
# 2 -0.010095 0.012466 -0.005877 0.000000 0.000000 0.000000
# 3 -0.003769 -0.005877 0.009743 0.000000 0.000000 0.000000
# 4 0.000000 0.000000 0.000000 0.040897 0.000000 0.000000
# 5 0.000000 0.000000 0.000000 0.000000 0.046740 0.000000
# 6 0.000000 0.000000 0.000000 0.000000 0.000000 0.043323
#
#
# Mechanical properties :
#
#
# Convention : Reuss Voigt Hill
#
# Bulk Modulus (GPa) = 19.27916 72.05823 45.66869
# Shear Modulus (GPa) = 17.91577 26.46130 22.18853
#
# Velocity S-wave (km/s) = 3.10466 3.77313 3.45510
# Velocity P-wave (km/s) = 4.81916 7.59936 6.36296
#
# Compressibility (1/GPa) = 0.05186949
#
# Stress axis : x y z
#
# Youngs Moduli (GPa) = 14.46282 80.21503 102.64102
#
# Poissons Ratio (x) = 0.80980 0.38687
# Poissons Ratio (y) = 0.14601 0.60319
# Poissons Ratio (z) = 0.05451 0.47140
#
# Static dielectric constant tensor:
#      x y z
#    x 3.078300 0.000000 0.000000 
#    y 0.000000 3.761340 0.000000 
#    z 0.000000 0.000000 3.600500 
# 
# 
# High freq. dielectric constant tensor:
#      x y z
#    x 1.684250 0.000000 0.000000 
#    y 0.000000 1.735960 0.000000 
#    z 0.000000 0.000000 1.723780 
# 
# From -- ./inp_files/25559.got.cif
#   From: 2010.03.12/outbox.cif.g09.slc.cpg/sg59_13_cif.got.tgz:25559.got - 2010.04.16 16:29:54.
