data_PCOD8242540
_publ_section_title
;
Structure prediction by ZEFSAII (Michael W. Deem and Ramdas Pophale) SiO2 
 PCOD8242540
Probable space group: P M M N
;
_chemical_formula_sum "Si O2"
_cell_formula_units_Z 64
_cell_length_a 8.959046
_cell_length_b 14.599164
_cell_length_c 26.187518
_cell_angle_alpha 90.000000
_cell_angle_beta 90.000000
_cell_angle_gamma 90.000000
_cell_volume 3425.185466
_symmetry_space_group_name_H-M "P M M N"
_symmetry_group_IT_number 59
_space_group.IT_coordinate_system_code '2'
_symmetry_cell_setting 'orthorhombic'
loop_
_space_group_symop_operation_xyz
x,y,z
1/2-x,1/2-y,z
1/2+x,-y,-z
-x,1/2+y,-z
-x,-y,-z
1/2+x,1/2+y,-z
1/2-x,y,z
x,1/2-y,z
loop_
_atom_site_type_symbol
_atom_site_label
_atom_site_fract_x
_atom_site_fract_y
_atom_site_fract_z
Si Si1 0.078150 0.857176 0.125801
Si Si2 0.419356 0.143391 0.239766
Si Si3 0.925737 0.497312 0.309141
Si Si4 0.574109 0.644921 0.503053
Si Si5 0.426508 0.497486 0.945112
Si Si6 0.926378 0.007818 0.423565
Si Si7 0.576496 0.645153 0.229687
Si Si8 0.577355 0.643898 0.876325
O O1 0.250000 0.887189 0.121622
O O2 0.056164 0.750000 0.117137
O O3 0.018785 0.887066 0.181165
O O4 0.982357 0.906227 0.082659
O O5 0.250000 0.110899 0.247797
O O6 0.435393 0.250000 0.250941
O O7 0.469496 0.121604 0.181846
O O8 0.523187 0.093234 0.280097
O O9 0.750000 0.494934 0.312834
O O10 0.991348 0.501686 0.366315
O O11 0.978613 0.586790 0.278073
O O12 0.750000 0.642735 0.511713
O O13 0.518413 0.750000 0.496296
O O14 0.528313 0.585231 0.453396
O O15 0.498159 0.598685 0.552125
O O16 0.250000 0.494447 0.950992
O O17 0.472542 0.587007 0.913581
O O18 0.500000 0.500000 0.000000
O O19 0.750000 0.021708 0.424394
O O20 0.750000 0.628353 0.216930
O O21 0.544419 0.750000 0.243628
O O22 0.750000 0.617443 0.885150
O O23 0.551474 0.750000 0.888686
#
# Coordination Sequence:
#
# PCOD8242540 Si02
#       8
#     8   8   8   8   8   8   8   8
#     4  10  21  38  59  81 107 140 178 219 262 311
#     4   9  19  35  54  76 103 138 175 208 249 302
#     4  10  20  32  49  76 108 139 169 207 255 304
#     4   9  18  34  55  74  94 128 174 218 259 307
#     4  12  25  39  57  81 109 140 176 219 267 318
#     4   9  19  34  50  73 104 134 168 211 260 309
#     4   9  18  33  53  78 107 138 172 208 251 307
#     4   9  19  38  61  82 107 140 177 217 262 312
#
# _framework density 18.685119
#
# number of rings (size 3 to 8) (size 9 to 14) (size 15 to 20)
#    0.000    2.375    0.000    3.000    0.000    6.500 
#    0.000    6.250    0.000    0.000    0.000    3.500 
#    0.000    0.000    0.000    0.000    0.000    0.000 
#
# Total GULP energy -793686.255784 kJ/mol
# GULP energy per Si atom -12401.347747 kJ/mol
# Density = 1.864259 g / cm^3
# Si number density = 18.685119 Si / 1000 Ang^3
#
#
#
# Elastic Constant Matrix: (Units=GPa)
#
#
# Indices 1 2 3 4 5 6 
#
# 1 66.6499 38.3560 53.7000 0.0000 0.0000 0.0000
# 2 38.3560 111.0460 72.6162 0.0000 0.0000 0.0000
# 3 53.7000 72.6162 162.2367 0.0000 0.0000 0.0000
# 4 0.0000 0.0000 0.0000 2.9105 0.0000 0.0000
# 5 0.0000 0.0000 0.0000 0.0000 30.8733 0.0000
# 6 0.0000 0.0000 0.0000 0.0000 0.0000 31.4085
#
#
#
# Elastic Compliance Matrix: (Units=1/GPa)
#
#
# Indices 1 2 3 4 5 6 
#
# 1 0.021615 -0.003941 -0.005391 0.000000 0.000000 0.000000
# 2 -0.003941 0.013450 -0.004716 0.000000 0.000000 0.000000
# 3 -0.005391 -0.004716 0.010059 0.000000 0.000000 0.000000
# 4 0.000000 0.000000 0.000000 0.343584 0.000000 0.000000
# 5 0.000000 0.000000 0.000000 0.000000 0.032390 0.000000
# 6 0.000000 0.000000 0.000000 0.000000 0.000000 0.031839
#
#
# Mechanical properties :
#
#
# Convention : Reuss Voigt Hill
#
# Bulk Modulus (GPa) = 58.72167 74.36410 66.54288
# Shear Modulus (GPa) = 10.27310 24.72248 17.49779
#
# Velocity S-wave (km/s) = 2.34733 3.64140 3.06348
# Velocity P-wave (km/s) = 6.23232 7.58714 6.94286
#
# Compressibility (1/GPa) = 0.01702949
#
# Stress axis : x y z
#
# Youngs Moduli (GPa) = 46.26447 74.34767 99.41454
#
# Poissons Ratio (x) = 0.29299 0.53590
# Poissons Ratio (y) = 0.18232 0.46883
# Poissons Ratio (z) = 0.24939 0.35061
#
# Static dielectric constant tensor:
#      x y z
#    x 3.371260 0.000000 0.000000 
#    y 0.000000 3.480420 0.000000 
#    z 0.000000 0.000000 3.659250 
# 
# 
# High freq. dielectric constant tensor:
#      x y z
#    x 1.717910 0.000000 0.000000 
#    y 0.000000 1.734590 0.000000 
#    z 0.000000 0.000000 1.726270 
# 
# From -- ./inp_files/31415.got.cif
#   From: 2010.03.12/outbox.cif.g09.slc.cpg/sg59_16_cif.got.tgz:31415.got - 2010.04.16 16:29:54.
