data_PCOD8242310
_publ_section_title
;
Structure prediction by ZEFSAII (Michael W. Deem and Ramdas Pophale) SiO2 
 PCOD8242310
Probable space group: P M M N
;
_chemical_formula_sum "Si O2"
_cell_formula_units_Z 64
_cell_length_a 9.384945
_cell_length_b 24.170777
_cell_length_c 15.962848
_cell_angle_alpha 90.000000
_cell_angle_beta 90.000000
_cell_angle_gamma 90.000000
_cell_volume 3621.034992
_symmetry_space_group_name_H-M "P M M N"
_symmetry_group_IT_number 59
_space_group.IT_coordinate_system_code '2'
_symmetry_cell_setting 'orthorhombic'
loop_
_space_group_symop_operation_xyz
x,y,z
1/2-x,1/2-y,z
1/2+x,-y,-z
-x,1/2+y,-z
-x,-y,-z
1/2+x,1/2+y,-z
1/2-x,y,z
x,1/2-y,z
loop_
_atom_site_type_symbol
_atom_site_label
_atom_site_fract_x
_atom_site_fract_y
_atom_site_fract_z
Si Si1 0.411489 0.314902 0.181540
Si Si2 0.596677 0.461684 0.947436
Si Si3 0.582227 0.189955 0.846724
Si Si4 0.915713 0.535551 0.387399
Si Si5 0.415689 0.686237 0.652960
Si Si6 0.407436 0.656641 0.976625
Si Si7 0.581392 0.079084 0.769569
Si Si8 0.414105 0.917442 0.538222
O O1 0.250000 0.337600 0.187605
O O2 0.412961 0.250000 0.168519
O O3 0.493391 0.330919 0.266310
O O4 0.488345 0.341129 0.101999
O O5 0.750000 0.490587 0.940014
O O6 0.611781 0.406055 0.998500
O O7 0.538304 0.452646 0.854087
O O8 0.500000 0.500000 0.000000
O O9 0.750000 0.180227 0.857788
O O10 0.544226 0.250000 0.808093
O O11 0.522065 0.186918 0.942091
O O12 0.528643 0.142841 0.782619
O O13 0.750000 0.550614 0.383208
O O14 0.938858 0.469899 0.400754
O O15 0.991326 0.550372 0.301619
O O16 0.985005 0.573967 0.458708
O O17 0.250000 0.680978 0.676783
O O18 0.449880 0.750000 0.624077
O O19 0.454650 0.641221 0.581399
O O20 0.250000 0.681270 0.953420
O O21 0.750000 0.075810 0.749723
O O22 0.250000 0.916034 0.508149
#
# Coordination Sequence:
#
# PCOD8242310 Si02
#       8
#     8   8   8   8   8   8   8   8
#     4  10  20  31  44  68 101 131 160 197 242 291
#     4   9  19  33  48  69  97 130 166 203 245 291
#     4   8  14  27  49  72  91 119 163 209 247 282
#     4  10  20  34  54  78 101 127 160 197 240 289
#     4   9  18  34  55  76  99 129 164 202 246 294
#     4   9  17  30  48  68  91 124 168 210 243 282
#     4   9  18  33  51  72  99 128 161 203 246 289
#     4   9  19  36  56  77  99 124 159 201 240 285
#
# _framework density 17.674505
#
# number of rings (size 3 to 8) (size 9 to 14) (size 15 to 20)
#    0.000    2.875    0.000    2.625    0.000    4.250 
#    0.000    6.250    0.000    4.875    0.000    0.000 
#    0.000    0.000    0.000    0.000    0.000    0.000 
#
# Total GULP energy -793117.104077 kJ/mol
# GULP energy per Si atom -12392.454751 kJ/mol
# Density = 1.763428 g / cm^3
# Si number density = 17.674505 Si / 1000 Ang^3
#
#
#
# Elastic Constant Matrix: (Units=GPa)
#
#
# Indices 1 2 3 4 5 6 
#
# 1 86.2256 43.1706 62.6580 0.0000 0.0000 0.0000
# 2 43.1706 88.1401 61.9860 0.0000 0.0000 0.0000
# 3 62.6580 61.9860 108.1311 0.0000 0.0000 0.0000
# 4 0.0000 0.0000 0.0000 14.7842 0.0000 0.0000
# 5 0.0000 0.0000 0.0000 0.0000 28.4724 0.0000
# 6 0.0000 0.0000 0.0000 0.0000 0.0000 23.3696
#
#
#
# Elastic Compliance Matrix: (Units=1/GPa)
#
#
# Indices 1 2 3 4 5 6 
#
# 1 0.020442 -0.002818 -0.010230 0.000000 0.000000 0.000000
# 2 -0.002818 0.019397 -0.009487 0.000000 0.000000 0.000000
# 3 -0.010230 -0.009487 0.020614 0.000000 0.000000 0.000000
# 4 0.000000 0.000000 0.000000 0.067640 0.000000 0.000000
# 5 0.000000 0.000000 0.000000 0.000000 0.035122 0.000000
# 6 0.000000 0.000000 0.000000 0.000000 0.000000 0.042791
#
#
# Mechanical properties :
#
#
# Convention : Reuss Voigt Hill
#
# Bulk Modulus (GPa) = 65.00079 68.68065 66.84072
# Shear Modulus (GPa) = 19.51568 20.97071 20.24319
#
# Velocity S-wave (km/s) = 3.32651 3.44829 3.38795
# Velocity P-wave (km/s) = 7.18406 7.40252 7.29410
#
# Compressibility (1/GPa) = 0.01538443
#
# Stress axis : x y z
#
# Youngs Moduli (GPa) = 48.91789 51.55315 48.51019
#
# Poissons Ratio (x) = 0.14528 0.49627
# Poissons Ratio (y) = 0.13785 0.46020
# Poissons Ratio (z) = 0.50044 0.48906
#
# Static dielectric constant tensor:
#      x y z
#    x 3.122740 0.000000 0.000000 
#    y 0.000000 3.259240 0.000000 
#    z 0.000000 0.000000 3.104970 
# 
# 
# High freq. dielectric constant tensor:
#      x y z
#    x 1.670280 0.000000 0.000000 
#    y 0.000000 1.683740 0.000000 
#    z 0.000000 0.000000 1.674130 
# 
# From -- ./inp_files/21577.got.cif
#   From: 2010.03.12/outbox.cif.g09.slc.cpg/sg59_11_cif.got.tgz:21577.got - 2010.04.16 16:29:54.
