data_PCOD8242500
_publ_section_title
;
Structure prediction by ZEFSAII (Michael W. Deem and Ramdas Pophale) SiO2 
 PCOD8242500
Probable space group: P M M N
;
_chemical_formula_sum "Si O2"
_cell_formula_units_Z 56
_cell_length_a 20.604582
_cell_length_b 9.239956
_cell_length_c 15.202550
_cell_angle_alpha 90.000000
_cell_angle_beta 90.000000
_cell_angle_gamma 90.000000
_cell_volume 2894.344035
_symmetry_space_group_name_H-M "P M M N"
_symmetry_group_IT_number 59
_space_group.IT_coordinate_system_code '2'
_symmetry_cell_setting 'orthorhombic'
loop_
_space_group_symop_operation_xyz
x,y,z
1/2-x,1/2-y,z
1/2+x,-y,-z
-x,1/2+y,-z
-x,-y,-z
1/2+x,1/2+y,-z
1/2-x,y,z
x,1/2-y,z
loop_
_atom_site_type_symbol
_atom_site_label
_atom_site_fract_x
_atom_site_fract_y
_atom_site_fract_z
Si Si1 0.178694 0.913380 0.465418
Si Si2 0.632763 0.089619 0.208042
Si Si3 0.178114 0.083777 0.953639
Si Si4 0.011014 0.087843 0.241759
Si Si5 0.177248 0.089914 0.638247
Si Si6 0.535085 0.419755 0.582742
Si Si7 0.945928 0.579117 0.942107
O O1 0.250000 0.931368 0.416377
O O2 0.174824 0.750000 0.503791
O O3 0.113441 0.942676 0.409409
O O4 0.176127 0.031494 0.540457
O O5 0.662589 0.250000 0.212366
O O6 0.556681 0.092541 0.188555
O O7 0.672658 0.002664 0.136515
O O8 0.635973 0.016978 0.303110
O O9 0.250000 0.058438 0.993621
O O10 0.166794 0.250000 0.928475
O O11 0.124943 0.031367 0.023483
O O12 0.029336 0.250000 0.274992
O O13 0.056841 0.034234 0.161520
O O14 0.008977 0.981465 0.325015
O O15 0.250000 0.095949 0.675447
O O16 0.145980 0.250000 0.638643
O O17 0.500000 0.500000 0.500000
O O18 0.517897 0.250000 0.575178
O O19 0.958057 0.750000 0.951435
O O20 0.000000 0.500000 0.000000
#
# Coordination Sequence:
#
# PCOD8242500 Si02
#       7
#     8   8   8   8   8   8   8
#     4   9  19  37  57  76 104 145 190 235 286 340
#     4  11  21  33  51  77 110 147 186 228 281 342
#     4  10  21  36  56  83 114 148 187 235 289 339
#     4  10  22  38  56  82 114 148 189 236 285 340
#     4  10  20  32  48  74 107 142 183 229 280 341
#     4  11  23  38  59  87 117 151 191 240 292 342
#     4  10  20  38  61  83 112 149 190 235 281 334
#
# _framework density 19.348081000000001
#
# number of rings (size 3 to 8) (size 9 to 14) (size 15 to 20)
#    0.000    1.857    1.429    2.571    0.000    9.143 
#    0.000    0.714    0.000    0.857    0.000    0.000 
#    0.000    0.000    0.000    0.000    0.000    0.000 
#
# Total GULP energy -693937.575126 kJ/mol
# GULP energy per Si atom -12391.742413 kJ/mol
# Density = 1.930404 g / cm^3
# Si number density = 19.348081 Si / 1000 Ang^3
#
#
#
# Elastic Constant Matrix: (Units=GPa)
#
#
# Indices 1 2 3 4 5 6 
#
# 1 110.4747 34.5504 35.3125 0.0000 0.0000 0.0000
# 2 34.5504 92.8045 41.9803 0.0000 0.0000 0.0000
# 3 35.3125 41.9803 95.8340 0.0000 0.0000 0.0000
# 4 0.0000 0.0000 0.0000 25.3234 0.0000 0.0000
# 5 0.0000 0.0000 0.0000 0.0000 29.1607 0.0000
# 6 0.0000 0.0000 0.0000 0.0000 0.0000 24.0356
#
#
#
# Elastic Compliance Matrix: (Units=1/GPa)
#
#
# Indices 1 2 3 4 5 6 
#
# 1 0.010803 -0.002770 -0.002767 0.000000 0.000000 0.000000
# 2 -0.002770 0.014148 -0.005177 0.000000 0.000000 0.000000
# 3 -0.002767 -0.005177 0.013722 0.000000 0.000000 0.000000
# 4 0.000000 0.000000 0.000000 0.039489 0.000000 0.000000
# 5 0.000000 0.000000 0.000000 0.000000 0.034293 0.000000
# 6 0.000000 0.000000 0.000000 0.000000 0.000000 0.041605
#
#
# Mechanical properties :
#
#
# Convention : Reuss Voigt Hill
#
# Bulk Modulus (GPa) = 57.98833 58.08882 58.03858
# Shear Modulus (GPa) = 27.58821 28.18860 27.88841
#
# Velocity S-wave (km/s) = 3.78019 3.82110 3.80070
# Velocity P-wave (km/s) = 7.00638 7.03960 7.02301
#
# Compressibility (1/GPa) = 0.01724485
#
# Stress axis : x y z
#
# Youngs Moduli (GPa) = 92.56997 70.67904 72.87490
#
# Poissons Ratio (x) = 0.19578 0.20165
# Poissons Ratio (y) = 0.25642 0.37728
# Poissons Ratio (z) = 0.25615 0.36591
#
# Static dielectric constant tensor:
#      x y z
#    x 3.955700 0.000000 0.000000 
#    y 0.000000 3.631350 0.000000 
#    z 0.000000 0.000000 3.272960 
# 
# 
# High freq. dielectric constant tensor:
#      x y z
#    x 1.762860 0.000000 0.000000 
#    y 0.000000 1.759030 0.000000 
#    z 0.000000 0.000000 1.725630 
# 
# From -- ./inp_files/24201.got.cif
#   From: 2010.03.12/outbox.cif.g09.slc.cpg/sg59_13_cif.got.tgz:24201.got - 2010.04.16 16:29:54.
