data_PCOD8242144
_publ_section_title
;
Structure prediction by ZEFSAII (Michael W. Deem and Ramdas Pophale) SiO2 
 PCOD8242144
Probable space group: P M M N
;
_chemical_formula_sum "Si O2"
_cell_formula_units_Z 40
_cell_length_a 9.117428
_cell_length_b 18.700613
_cell_length_c 12.427585
_cell_angle_alpha 90.000000
_cell_angle_beta 90.000000
_cell_angle_gamma 90.000000
_cell_volume 2118.921792
_symmetry_space_group_name_H-M "P M M N"
_symmetry_group_IT_number 59
_space_group.IT_coordinate_system_code '2'
_symmetry_cell_setting 'orthorhombic'
loop_
_space_group_symop_operation_xyz
x,y,z
1/2-x,1/2-y,z
1/2+x,-y,-z
-x,1/2+y,-z
-x,-y,-z
1/2+x,1/2+y,-z
1/2-x,y,z
x,1/2-y,z
loop_
_atom_site_type_symbol
_atom_site_label
_atom_site_fract_x
_atom_site_fract_y
_atom_site_fract_z
Si Si1 0.079720 0.168392 0.028355
Si Si2 0.919299 0.570703 0.773951
Si Si3 0.923241 0.329171 0.633845
Si Si4 0.077690 0.586378 0.160069
Si Si5 0.076958 0.567490 0.552272
O O1 0.250000 0.164745 0.998819
O O2 0.022231 0.250000 0.026365
O O3 0.994773 0.120569 0.943635
O O4 0.051402 0.136650 0.146651
O O5 0.750000 0.566687 0.736780
O O6 0.963193 0.497172 0.833653
O O7 0.020106 0.583362 0.671095
O O8 0.750000 0.324884 0.645560
O O9 0.993112 0.250000 0.637859
O O10 0.985817 0.375549 0.732909
O O11 0.965642 0.364588 0.520631
O O12 0.250000 0.598012 0.149258
O O13 0.250000 0.553725 0.554503
O O14 0.000000 0.500000 0.500000
#
# Coordination Sequence:
#
# PCOD8242144 Si02
#       5
#     8   8   8   8   8
#     4  10  22  38  55  80 117 152 181 226 284 334
#     4  10  21  38  58  81 111 147 189 230 276 329
#     4   9  18  33  54  81 111 143 180 226 278 323
#     4  10  19  35  59  82 107 144 189 234 274 323
#     4  11  21  36  58  83 113 147 183 227 275 329
#
# _framework density 18.877524999999999
#
# number of rings (size 3 to 8) (size 9 to 14) (size 15 to 20)
#    0.000    2.000    2.000    1.800    0.000    3.600 
#    0.000    0.000    0.000    3.000    0.000    0.000 
#    0.000    0.000    0.000    0.000    0.000    0.000 
#
# Total GULP energy -496078.697906 kJ/mol
# GULP energy per Si atom -12401.967448 kJ/mol
# Density = 1.883456 g / cm^3
# Si number density = 18.877525 Si / 1000 Ang^3
#
#
#
# Elastic Constant Matrix: (Units=GPa)
#
#
# Indices 1 2 3 4 5 6 
#
# 1 47.5629 18.5914 38.5108 0.0000 0.0000 0.0000
# 2 18.5914 82.4897 21.4424 0.0000 0.0000 0.0000
# 3 38.5108 21.4424 101.7752 0.0000 0.0000 0.0000
# 4 0.0000 0.0000 0.0000 32.8578 0.0000 0.0000
# 5 0.0000 0.0000 0.0000 0.0000 36.2726 0.0000
# 6 0.0000 0.0000 0.0000 0.0000 0.0000 16.0194
#
#
#
# Elastic Compliance Matrix: (Units=1/GPa)
#
#
# Indices 1 2 3 4 5 6 
#
# 1 0.031663 -0.004255 -0.011085 0.000000 0.000000 0.000000
# 2 -0.004255 0.013397 -0.001213 0.000000 0.000000 0.000000
# 3 -0.011085 -0.001213 0.014275 0.000000 0.000000 0.000000
# 4 0.000000 0.000000 0.000000 0.030434 0.000000 0.000000
# 5 0.000000 0.000000 0.000000 0.000000 0.027569 0.000000
# 6 0.000000 0.000000 0.000000 0.000000 0.000000 0.062424
#
#
# Mechanical properties :
#
#
# Convention : Reuss Voigt Hill
#
# Bulk Modulus (GPa) = 38.12238 43.21302 40.66770
# Shear Modulus (GPa) = 22.56217 27.24883 24.90550
#
# Velocity S-wave (km/s) = 3.46090 3.80340 3.63619
# Velocity P-wave (km/s) = 6.01738 6.49837 6.26249
#
# Compressibility (1/GPa) = 0.02623131
#
# Stress axis : x y z
#
# Youngs Moduli (GPa) = 31.58279 74.64440 70.05103
#
# Poissons Ratio (x) = 0.31760 0.77648
# Poissons Ratio (y) = 0.13438 0.08494
# Poissons Ratio (z) = 0.35008 0.09051
#
# Static dielectric constant tensor:
#      x y z
#    x 3.276700 0.000000 0.000000 
#    y 0.000000 3.849470 0.000000 
#    z 0.000000 0.000000 3.531350 
# 
# 
# High freq. dielectric constant tensor:
#      x y z
#    x 1.709560 0.000000 0.000000 
#    y 0.000000 1.745200 0.000000 
#    z 0.000000 0.000000 1.742940 
# 
# From -- ./inp_files/13840.got.cif
#   From: 2010.03.12/outbox.cif.g09.slc.cpg/sg59_7_cif.got.tgz:13840.got - 2010.04.16 16:29:54.
