data_PCOD8242264
_publ_section_title
;
Structure prediction by ZEFSAII (Michael W. Deem and Ramdas Pophale) SiO2 
 PCOD8242264
Probable space group: P M M N
;
_chemical_formula_sum "Si O2"
_cell_formula_units_Z 56
_cell_length_a 8.636719
_cell_length_b 22.987190
_cell_length_c 13.613656
_cell_angle_alpha 90.000000
_cell_angle_beta 90.000000
_cell_angle_gamma 90.000000
_cell_volume 2702.772228
_symmetry_space_group_name_H-M "P M M N"
_symmetry_group_IT_number 59
_space_group.IT_coordinate_system_code '2'
_symmetry_cell_setting 'orthorhombic'
loop_
_space_group_symop_operation_xyz
x,y,z
1/2-x,1/2-y,z
1/2+x,-y,-z
-x,1/2+y,-z
-x,-y,-z
1/2+x,1/2+y,-z
1/2-x,y,z
x,1/2-y,z
loop_
_atom_site_type_symbol
_atom_site_label
_atom_site_fract_x
_atom_site_fract_y
_atom_site_fract_z
Si Si1 0.432205 0.750000 0.698126
Si Si2 0.068908 0.250000 0.087134
Si Si3 0.433598 0.873479 0.614284
Si Si4 0.933934 0.981951 0.705552
Si Si5 0.566342 0.916061 0.410940
Si Si6 0.928559 0.688171 0.283341
Si Si7 0.572725 0.653581 0.066664
Si Si8 0.571478 0.467175 0.910029
O O1 0.250000 0.750000 0.696353
O O2 0.481345 0.750000 0.810862
O O3 0.491948 0.808608 0.643909
O O4 0.250000 0.250000 0.108241
O O5 0.022167 0.306856 0.024918
O O6 0.250000 0.874912 0.597410
O O7 0.524062 0.894298 0.518425
O O8 0.483417 0.919082 0.698673
O O9 0.750000 0.973759 0.703489
O O10 0.997461 0.010884 0.806157
O O11 0.984159 0.022972 0.614477
O O12 0.750000 0.924883 0.401544
O O13 0.495668 0.867666 0.335605
O O14 0.750000 0.686584 0.313555
O O15 0.000492 0.750000 0.320804
O O16 0.947692 0.689046 0.166583
O O17 0.750000 0.632065 0.054759
O O18 0.457196 0.600236 0.072817
O O19 0.750000 0.481184 0.908442
O O20 0.500000 0.500000 0.000000
#
# Coordination Sequence:
#
# PCOD8242264 Si02
#       8
#     4   4   8   8   8   8   8   8
#     4  10  26  48  65  88 124 167 210 259 314 374
#     4  10  22  38  65  94 124 163 206 257 300 358
#     4  11  25  45  66  88 122 164 208 259 317 374
#     4  11  24  43  65  93 126 162 209 260 311 372
#     4  11  22  38  66  97 126 163 205 256 312 369
#     4   9  17  32  57  90 126 159 195 239 292 358
#     4  10  19  37  62  91 124 159 199 243 300 363
#     4  11  25  41  61  89 124 161 203 254 307 367
#
# _framework density 20.719467000000002
#
# number of rings (size 3 to 8) (size 9 to 14) (size 15 to 20)
#    0.000    1.571    2.143    2.143    3.000    3.429 
#    0.000    0.000    0.000    1.714    0.000    0.000 
#    0.000    0.000    0.000    0.000    0.000    0.000 
#
# Total GULP energy -694351.128860 kJ/mol
# GULP energy per Si atom -12399.127301 kJ/mol
# Density = 2.067231 g / cm^3
# Si number density = 20.719467 Si / 1000 Ang^3
#
#
#
# Elastic Constant Matrix: (Units=GPa)
#
#
# Indices 1 2 3 4 5 6 
#
# 1 42.6375 27.2708 15.0432 0.0000 0.0000 0.0000
# 2 27.2708 157.6976 44.2371 0.0000 0.0000 0.0000
# 3 15.0432 44.2371 104.3129 0.0000 0.0000 0.0000
# 4 0.0000 0.0000 0.0000 20.5136 0.0000 0.0000
# 5 0.0000 0.0000 0.0000 0.0000 30.5199 0.0000
# 6 0.0000 0.0000 0.0000 0.0000 0.0000 21.8654
#
#
#
# Elastic Compliance Matrix: (Units=1/GPa)
#
#
# Indices 1 2 3 4 5 6 
#
# 1 0.026790 -0.004028 -0.002155 0.000000 0.000000 0.000000
# 2 -0.004028 0.007803 -0.002728 0.000000 0.000000 0.000000
# 3 -0.002155 -0.002728 0.011054 0.000000 0.000000 0.000000
# 4 0.000000 0.000000 0.000000 0.048748 0.000000 0.000000
# 5 0.000000 0.000000 0.000000 0.000000 0.032766 0.000000
# 6 0.000000 0.000000 0.000000 0.000000 0.000000 0.045734
#
#
# Mechanical properties :
#
#
# Convention : Reuss Voigt Hill
#
# Bulk Modulus (GPa) = 35.93962 53.08338 44.51150
# Shear Modulus (GPa) = 25.00070 29.11956 27.06013
#
# Velocity S-wave (km/s) = 3.47742 3.75296 3.61782
# Velocity P-wave (km/s) = 5.78850 6.66748 6.24348
#
# Compressibility (1/GPa) = 0.02782445
#
# Stress axis : x y z
#
# Youngs Moduli (GPa) = 37.32675 128.15251 90.46218
#
# Poissons Ratio (x) = 0.51624 0.19496
# Poissons Ratio (y) = 0.15036 0.24680
# Poissons Ratio (z) = 0.08045 0.34963
#
# Static dielectric constant tensor:
#      x y z
#    x 3.467840 0.000000 0.000000 
#    y 0.000000 4.009950 0.000000 
#    z 0.000000 0.000000 4.243750 
# 
# 
# High freq. dielectric constant tensor:
#      x y z
#    x 1.789280 0.000000 0.000000 
#    y 0.000000 1.829870 0.000000 
#    z 0.000000 0.000000 1.815430 
# 
# From -- ./inp_files/21219.got.cif
#   From: 2010.03.12/outbox.cif.g09.slc.cpg/sg59_11_cif.got.tgz:21219.got - 2010.04.16 16:29:54.
