data_PCOD8242663
_publ_section_title
;
Structure prediction by ZEFSAII (Michael W. Deem and Ramdas Pophale) SiO2 
 PCOD8242663
Probable space group: P M M N
;
_chemical_formula_sum "Si O2"
_cell_formula_units_Z 48
_cell_length_a 14.107205
_cell_length_b 9.390345
_cell_length_c 18.845290
_cell_angle_alpha 90.000000
_cell_angle_beta 90.000000
_cell_angle_gamma 90.000000
_cell_volume 2496.464248
_symmetry_space_group_name_H-M "P M M N"
_symmetry_group_IT_number 59
_space_group.IT_coordinate_system_code '2'
_symmetry_cell_setting 'orthorhombic'
loop_
_space_group_symop_operation_xyz
x,y,z
1/2-x,1/2-y,z
1/2+x,-y,-z
-x,1/2+y,-z
-x,-y,-z
1/2+x,1/2+y,-z
1/2-x,y,z
x,1/2-y,z
loop_
_atom_site_type_symbol
_atom_site_label
_atom_site_fract_x
_atom_site_fract_y
_atom_site_fract_z
Si Si1 0.136903 0.908406 0.014006
Si Si2 0.031432 0.082306 0.745526
Si Si3 0.859989 0.414244 0.529399
Si Si4 0.137915 0.410674 0.883907
Si Si5 0.515793 0.084397 0.392976
Si Si6 0.853479 0.081579 0.831387
O O1 0.250000 0.906792 0.009818
O O2 0.096236 0.750000 0.002984
O O3 0.094415 0.004777 0.950812
O O4 0.108481 0.972116 0.091542
O O5 0.042924 0.250000 0.728910
O O6 0.100108 0.031263 0.808832
O O7 0.924513 0.041320 0.768483
O O8 0.057284 0.991202 0.676688
O O9 0.750000 0.460180 0.528510
O O10 0.871172 0.250000 0.552929
O O11 0.916617 0.511318 0.585083
O O12 0.903318 0.438223 0.451652
O O13 0.250000 0.422275 0.882200
O O14 0.101659 0.250000 0.893189
O O15 0.496173 0.250000 0.378563
O O16 0.750000 0.016127 0.813095
O O17 0.844625 0.250000 0.839115
#
# Coordination Sequence:
#
# PCOD8242663 Si02
#       6
#     8   8   8   8   8   8
#     4   8  14  27  47  67  87 117 163 215 256 291
#     4  10  20  33  49  70  99 136 170 198 240 302
#     4   9  19  38  62  82 102 135 172 200 239 301
#     4   9  18  31  45  65  96 131 166 206 252 300
#     4  10  21  36  54  81 112 133 161 211 255 289
#     4   8  15  29  48  68  90 121 165 211 249 291
#
# _framework density 19.227193
#
# number of rings (size 3 to 8) (size 9 to 14) (size 15 to 20)
#    0.000    3.000    0.000    1.500    0.000    3.667 
#    0.000    2.500    0.000    1.000    0.000    0.000 
#    0.000    0.000    0.000    0.000    0.000    0.000 
#
# Total GULP energy -595037.138659 kJ/mol
# GULP energy per Si atom -12396.607055 kJ/mol
# Density = 1.918343 g / cm^3
# Si number density = 19.227193 Si / 1000 Ang^3
#
#
#
# Elastic Constant Matrix: (Units=GPa)
#
#
# Indices 1 2 3 4 5 6 
#
# 1 30.6150 6.9151 -9.9296 0.0000 0.0000 0.0000
# 2 6.9151 59.1446 30.9681 0.0000 0.0000 0.0000
# 3 -9.9296 30.9681 78.5221 0.0000 0.0000 0.0000
# 4 0.0000 0.0000 0.0000 32.0187 0.0000 0.0000
# 5 0.0000 0.0000 0.0000 0.0000 23.8135 0.0000
# 6 0.0000 0.0000 0.0000 0.0000 0.0000 19.2482
#
#
#
# Elastic Compliance Matrix: (Units=1/GPa)
#
#
# Indices 1 2 3 4 5 6 
#
# 1 0.037231 -0.008592 0.008097 0.000000 0.000000 0.000000
# 2 -0.008592 0.023291 -0.010272 0.000000 0.000000 0.000000
# 3 0.008097 -0.010272 0.017810 0.000000 0.000000 0.000000
# 4 0.000000 0.000000 0.000000 0.031232 0.000000 0.000000
# 5 0.000000 0.000000 0.000000 0.000000 0.041993 0.000000
# 6 0.000000 0.000000 0.000000 0.000000 0.000000 0.051953
#
#
# Mechanical properties :
#
#
# Convention : Reuss Voigt Hill
#
# Bulk Modulus (GPa) = 17.60679 24.90987 21.25833
# Shear Modulus (GPa) = 20.49369 24.37127 22.43248
#
# Velocity S-wave (km/s) = 3.26831 3.56412 3.41941
# Velocity P-wave (km/s) = 4.83938 5.47000 5.16432
#
# Compressibility (1/GPa) = 0.05679628
#
# Stress axis : x y z
#
# Youngs Moduli (GPa) = 26.85956 42.93528 56.14702
#
# Poissons Ratio (x) = 0.36892 -0.45461
# Poissons Ratio (y) = 0.23079 0.57675
# Poissons Ratio (z) = -0.21748 0.44104
#
# Static dielectric constant tensor:
#      x y z
#    x 3.572630 0.000000 0.000000 
#    y 0.000000 3.411240 0.000000 
#    z 0.000000 0.000000 3.558530 
# 
# 
# High freq. dielectric constant tensor:
#      x y z
#    x 1.747960 0.000000 0.000000 
#    y 0.000000 1.719270 0.000000 
#    z 0.000000 0.000000 1.750230 
# 
# From -- ./inp_files/25468.got.cif
#   From: 2010.03.12/outbox.cif.g09.slc.cpg/sg59_13_cif.got.tgz:25468.got - 2010.04.16 16:29:54.
