data_PCOD8242152
_publ_section_title
;
Structure prediction by ZEFSAII (Michael W. Deem and Ramdas Pophale) SiO2 
 PCOD8242152
Probable space group: P M M N
;
_chemical_formula_sum "Si O2"
_cell_formula_units_Z 64
_cell_length_a 9.002494
_cell_length_b 19.557062
_cell_length_c 18.977531
_cell_angle_alpha 90.000000
_cell_angle_beta 90.000000
_cell_angle_gamma 90.000000
_cell_volume 3341.228388
_symmetry_space_group_name_H-M "P M M N"
_symmetry_group_IT_number 59
_space_group.IT_coordinate_system_code '2'
_symmetry_cell_setting 'orthorhombic'
loop_
_space_group_symop_operation_xyz
x,y,z
1/2-x,1/2-y,z
1/2+x,-y,-z
-x,1/2+y,-z
-x,-y,-z
1/2+x,1/2+y,-z
1/2-x,y,z
x,1/2-y,z
loop_
_atom_site_type_symbol
_atom_site_label
_atom_site_fract_x
_atom_site_fract_y
_atom_site_fract_z
Si Si1 0.073380 0.536527 0.434688
Si Si2 0.422935 0.173157 0.590239
Si Si3 0.585805 0.572669 0.186553
Si Si4 0.573223 0.173831 0.232989
Si Si5 0.917754 0.566963 0.021166
Si Si6 0.918305 0.170521 0.074819
Si Si7 0.586028 0.325429 0.731253
Si Si8 0.578562 0.463541 0.302528
O O1 0.250000 0.530930 0.437742
O O2 0.000000 0.500000 0.500000
O O3 0.024241 0.615551 0.445679
O O4 0.017488 0.502185 0.361947
O O5 0.250000 0.156135 0.578904
O O6 0.460487 0.250000 0.561658
O O7 0.459714 0.169002 0.672496
O O8 0.750000 0.600806 0.205955
O O9 0.570223 0.565390 0.104430
O O10 0.456743 0.624951 0.206218
O O11 0.559840 0.501646 0.227834
O O12 0.750000 0.174194 0.229423
O O13 0.517588 0.250000 0.257374
O O14 0.515518 0.157993 0.153649
O O15 0.521222 0.114584 0.288070
O O16 0.750000 0.563917 0.994862
O O17 0.000000 0.500000 0.000000
O O18 0.988381 0.633144 0.985183
O O19 0.750000 0.142828 0.071643
O O20 0.924607 0.250000 0.056366
O O21 0.750000 0.344923 0.700761
O O22 0.590388 0.250000 0.763565
O O23 0.750000 0.463374 0.327723
#
# Coordination Sequence:
#
# PCOD8242152 Si02
#       8
#     8   8   8   8   8   8   8   8
#     4  12  25  41  62  89 121 157 197 239 289 346
#     4  10  20  37  62  89 119 154 190 230 279 335
#     4  10  21  35  53  76 107 148 192 236 287 346
#     4   8  15  31  58  87 112 145 190 235 283 343
#     4  11  23  37  53  77 109 149 194 241 292 349
#     4   9  18  35  58  82 111 150 194 239 289 345
#     4  10  20  33  52  81 113 144 183 230 276 328
#     4  10  19  35  59  84 111 144 187 239 292 346
#
# _framework density 19.154630999999998
#
# number of rings (size 3 to 8) (size 9 to 14) (size 15 to 20)
#    0.000    2.000    1.250    3.750    0.000    5.250 
#    0.000    5.000    0.000    3.375    0.000    0.000 
#    0.000    0.000    0.000    0.000    0.000    0.000 
#
# Total GULP energy -793183.324211 kJ/mol
# GULP energy per Si atom -12393.489441 kJ/mol
# Density = 1.911103 g / cm^3
# Si number density = 19.154631 Si / 1000 Ang^3
#
#
#
# Elastic Constant Matrix: (Units=GPa)
#
#
# Indices 1 2 3 4 5 6 
#
# 1 102.4586 60.2374 39.6675 0.0000 0.0000 0.0000
# 2 60.2374 130.3344 51.8534 0.0000 0.0000 0.0000
# 3 39.6675 51.8534 68.8533 0.0000 0.0000 0.0000
# 4 0.0000 0.0000 0.0000 31.3536 0.0000 0.0000
# 5 0.0000 0.0000 0.0000 0.0000 26.1024 0.0000
# 6 0.0000 0.0000 0.0000 0.0000 0.0000 29.8031
#
#
#
# Elastic Compliance Matrix: (Units=1/GPa)
#
#
# Indices 1 2 3 4 5 6 
#
# 1 0.014387 -0.004786 -0.004685 0.000000 0.000000 0.000000
# 2 -0.004786 0.012547 -0.006692 0.000000 0.000000 0.000000
# 3 -0.004685 -0.006692 0.022262 0.000000 0.000000 0.000000
# 4 0.000000 0.000000 0.000000 0.031894 0.000000 0.000000
# 5 0.000000 0.000000 0.000000 0.000000 0.038311 0.000000
# 6 0.000000 0.000000 0.000000 0.000000 0.000000 0.033554
#
#
# Mechanical properties :
#
#
# Convention : Reuss Voigt Hill
#
# Bulk Modulus (GPa) = 59.27032 67.24033 63.25533
# Shear Modulus (GPa) = 26.19131 27.44436 26.81784
#
# Velocity S-wave (km/s) = 3.70180 3.78931 3.74581
# Velocity P-wave (km/s) = 7.02007 7.37057 7.19745
#
# Compressibility (1/GPa) = 0.01687185
#
# Stress axis : x y z
#
# Youngs Moduli (GPa) = 69.50559 79.70199 44.91923
#
# Poissons Ratio (x) = 0.38143 0.21043
# Poissons Ratio (y) = 0.33263 0.30059
# Poissons Ratio (z) = 0.32561 0.53335
#
# Static dielectric constant tensor:
#      x y z
#    x 3.454010 0.000000 0.000000 
#    y 0.000000 3.877850 0.000000 
#    z 0.000000 0.000000 3.277510 
# 
# 
# High freq. dielectric constant tensor:
#      x y z
#    x 1.735650 0.000000 0.000000 
#    y 0.000000 1.760180 0.000000 
#    z 0.000000 0.000000 1.723830 
# 
# From -- ./inp_files/26299.got.cif
#   From: 2010.03.12/outbox.cif.g09.slc.cpg/sg59_14_cif.got.tgz:26299.got - 2010.04.16 16:29:54.
