data_PCOD8242936
_publ_section_title
;
Structure prediction by ZEFSAII (Michael W. Deem and Ramdas Pophale) SiO2 
 PCOD8242936
Probable space group: P M M N
;
_chemical_formula_sum "Si O2"
_cell_formula_units_Z 48
_cell_length_a 9.247854
_cell_length_b 8.974659
_cell_length_c 30.840300
_cell_angle_alpha 90.000000
_cell_angle_beta 90.000000
_cell_angle_gamma 90.000000
_cell_volume 2559.631905
_symmetry_space_group_name_H-M "P M M N"
_symmetry_group_IT_number 59
_space_group.IT_coordinate_system_code '2'
_symmetry_cell_setting 'orthorhombic'
loop_
_space_group_symop_operation_xyz
x,y,z
1/2-x,1/2-y,z
1/2+x,-y,-z
-x,1/2+y,-z
-x,-y,-z
1/2+x,1/2+y,-z
1/2-x,y,z
x,1/2-y,z
loop_
_atom_site_type_symbol
_atom_site_label
_atom_site_fract_x
_atom_site_fract_y
_atom_site_fract_z
Si Si1 0.421268 0.419024 0.133984
Si Si2 0.080963 0.424728 0.618189
Si Si3 0.083003 0.076836 0.791074
Si Si4 0.588757 0.924404 0.962631
Si Si5 0.581115 0.925745 0.539822
Si Si6 0.921525 0.082659 0.294561
O O1 0.250000 0.436803 0.137060
O O2 0.466470 0.250000 0.145785
O O3 0.496246 0.533071 0.166254
O O4 0.474396 0.458868 0.085292
O O5 0.250000 0.459542 0.610069
O O6 0.049887 0.250000 0.614847
O O7 0.028728 0.482522 0.665005
O O8 0.985523 0.511573 0.583720
O O9 0.250000 0.036164 0.798662
O O10 0.062010 0.250000 0.781565
O O11 0.018262 0.988841 0.749752
O O12 0.750000 0.988818 0.965440
O O13 0.588569 0.750000 0.970899
O O14 0.500000 0.000000 0.000000
O O15 0.750000 0.966406 0.537540
O O16 0.556193 0.750000 0.537865
O O17 0.500000 0.000000 0.500000
O O18 0.750000 0.084367 0.292499
O O19 0.983326 0.250000 0.299574
#
# Coordination Sequence:
#
# PCOD8242936 Si02
#       6
#     8   8   8   8   8   8
#     4   9  19  36  54  72  99 136 174 212 257 309
#     4  10  20  35  57  84 112 142 177 218 265 315
#     4  10  20  33  51  78 109 138 172 216 261 306
#     4   9  19  35  53  74 101 132 168 211 258 309
#     4  11  24  40  58  82 111 143 181 223 266 314
#     4   9  17  31  53  79 107 141 178 215 258 308
#
# _framework density 18.752696
#
# number of rings (size 3 to 8) (size 9 to 14) (size 15 to 20)
#    0.000    2.333    0.000    3.500    0.000    9.333 
#    0.000    5.833    0.000    5.000    0.000    0.000 
#    0.000    0.000    0.000    0.000    0.000    0.000 
#
# Total GULP energy -595225.494133 kJ/mol
# GULP energy per Si atom -12400.531128 kJ/mol
# Density = 1.871001 g / cm^3
# Si number density = 18.752696 Si / 1000 Ang^3
#
#
#
# Elastic Constant Matrix: (Units=GPa)
#
#
# Indices 1 2 3 4 5 6 
#
# 1 62.5521 44.8142 57.1667 0.0000 0.0000 0.0000
# 2 44.8142 87.7275 58.6212 0.0000 0.0000 0.0000
# 3 57.1667 58.6212 151.7599 0.0000 0.0000 0.0000
# 4 0.0000 0.0000 0.0000 44.1315 0.0000 0.0000
# 5 0.0000 0.0000 0.0000 0.0000 30.1606 0.0000
# 6 0.0000 0.0000 0.0000 0.0000 0.0000 29.0616
#
#
#
# Elastic Compliance Matrix: (Units=1/GPa)
#
#
# Indices 1 2 3 4 5 6 
#
# 1 0.030232 -0.010559 -0.007309 0.000000 0.000000 0.000000
# 2 -0.010559 0.019053 -0.003382 0.000000 0.000000 0.000000
# 3 -0.007309 -0.003382 0.010649 0.000000 0.000000 0.000000
# 4 0.000000 0.000000 0.000000 0.022660 0.000000 0.000000
# 5 0.000000 0.000000 0.000000 0.000000 0.033156 0.000000
# 6 0.000000 0.000000 0.000000 0.000000 0.000000 0.034410
#
#
# Mechanical properties :
#
#
# Convention : Reuss Voigt Hill
#
# Bulk Modulus (GPa) = 57.36397 69.24929 63.30663
# Shear Modulus (GPa) = 25.19265 30.09988 27.64627
#
# Velocity S-wave (km/s) = 3.66924 4.01071 3.84377
# Velocity P-wave (km/s) = 6.97189 7.64562 7.31651
#
# Compressibility (1/GPa) = 0.01743255
#
# Stress axis : x y z
#
# Youngs Moduli (GPa) = 33.07807 52.48538 93.90445
#
# Poissons Ratio (x) = 0.55420 0.68637
# Poissons Ratio (y) = 0.34928 0.31760
# Poissons Ratio (z) = 0.24178 0.17751
#
# Static dielectric constant tensor:
#      x y z
#    x 5.507590 0.000000 0.000000 
#    y 0.000000 3.450520 0.000000 
#    z 0.000000 0.000000 3.661930 
# 
# 
# High freq. dielectric constant tensor:
#      x y z
#    x 1.702660 0.000000 0.000000 
#    y 0.000000 1.736350 0.000000 
#    z 0.000000 0.000000 1.745750 
# 
# From -- ./inp_files/32857.got.cif
#   From: 2010.03.12/outbox.cif.g09.slc.cpg/sg59_17_cif.got.tgz:32857.got - 2010.04.16 16:29:54.
