data_PCOD8243835
_publ_section_title
;
Structure prediction by ZEFSAII (Michael W. Deem and Ramdas Pophale) SiO2 
 PCOD8243835
Probable space group: P M M N
;
_chemical_formula_sum "Si O2"
_cell_formula_units_Z 64
_cell_length_a 18.164027
_cell_length_b 9.079812
_cell_length_c 20.857842
_cell_angle_alpha 90.000000
_cell_angle_beta 90.000000
_cell_angle_gamma 90.000000
_cell_volume 3439.999414
_symmetry_space_group_name_H-M "P M M N"
_symmetry_group_IT_number 59
_space_group.IT_coordinate_system_code '2'
_symmetry_cell_setting 'orthorhombic'
loop_
_space_group_symop_operation_xyz
x,y,z
1/2-x,1/2-y,z
1/2+x,-y,-z
-x,1/2+y,-z
-x,-y,-z
1/2+x,1/2+y,-z
1/2-x,y,z
x,1/2-y,z
loop_
_atom_site_type_symbol
_atom_site_label
_atom_site_fract_x
_atom_site_fract_y
_atom_site_fract_z
Si Si1 0.078739 0.925065 0.004046
Si Si2 0.163728 0.421440 0.116741
Si Si3 0.334405 0.076488 0.372488
Si Si4 0.332743 0.924966 0.879325
Si Si5 0.078360 0.574160 0.757252
Si Si6 0.086891 0.424574 0.246527
Si Si7 0.162260 0.913927 0.496533
Si Si8 0.167658 0.925762 0.636291
O O1 0.069142 0.750000 0.005868
O O2 0.125413 0.977865 0.942798
O O3 0.121246 0.978174 0.066600
O O4 0.000000 0.000000 0.000000
O O5 0.250000 0.451815 0.110861
O O6 0.144799 0.250000 0.104654
O O7 0.137267 0.472389 0.186912
O O8 0.250000 0.027688 0.363998
O O9 0.342185 0.250000 0.376056
O O10 0.378746 0.010760 0.312002
O O11 0.368222 0.013395 0.438571
O O12 0.250000 0.989671 0.879916
O O13 0.329997 0.750000 0.876534
O O14 0.375618 0.987518 0.817481
O O15 0.078950 0.750000 0.757877
O O16 0.114337 0.513200 0.691712
O O17 0.995440 0.512902 0.762415
O O18 0.085063 0.250000 0.251665
O O19 0.250000 0.911513 0.496583
O O20 0.130850 0.750000 0.486274
O O21 0.137503 0.977299 0.566284
O O22 0.250000 0.986763 0.649108
O O23 0.169970 0.750000 0.636884
#
# Coordination Sequence:
#
# PCOD8243835 Si02
#       8
#     8   8   8   8   8   8   8   8
#     4  11  22  36  54  77 107 138 168 205 250 299
#     4  10  20  35  55  77 102 134 171 209 251 300
#     4   9  16  27  44  64  86 117 158 198 234 279
#     4   9  17  29  47  72  99 125 156 198 243 283
#     4   9  15  24  41  65  93 122 153 192 238 287
#     4   9  17  29  45  67  95 126 161 201 244 289
#     4   8  14  25  41  62  88 115 145 187 238 287
#     4   8  13  22  38  61  88 117 149 187 234 287
#
# _framework density 18.604655000000001
#
# number of rings (size 3 to 8) (size 9 to 14) (size 15 to 20)
#    0.000    2.875    0.000    3.000    0.000    5.750 
#    0.000    1.250    0.000    1.500    0.000    4.375 
#    0.000    8.000    0.000    0.000    0.000    0.000 
#
# Total GULP energy -793378.216271 kJ/mol
# GULP energy per Si atom -12396.534629 kJ/mol
# Density = 1.856231 g / cm^3
# Si number density = 18.604655 Si / 1000 Ang^3
#
#
#
# Elastic Constant Matrix: (Units=GPa)
#
#
# Indices 1 2 3 4 5 6 
#
# 1 111.9993 24.6912 59.6328 0.0000 0.0000 0.0000
# 2 24.6912 24.2072 27.1859 0.0000 0.0000 0.0000
# 3 59.6328 27.1859 156.1684 0.0000 0.0000 0.0000
# 4 0.0000 0.0000 0.0000 20.3977 0.0000 0.0000
# 5 0.0000 0.0000 0.0000 0.0000 20.6872 0.0000
# 6 0.0000 0.0000 0.0000 0.0000 0.0000 15.9465
#
#
#
# Elastic Compliance Matrix: (Units=1/GPa)
#
#
# Indices 1 2 3 4 5 6 
#
# 1 0.012704 -0.009335 -0.003226 0.000000 0.000000 0.000000
# 2 -0.009335 0.058209 -0.006568 0.000000 0.000000 0.000000
# 3 -0.003226 -0.006568 0.008779 0.000000 0.000000 0.000000
# 4 0.000000 0.000000 0.000000 0.049025 0.000000 0.000000
# 5 0.000000 0.000000 0.000000 0.000000 0.048339 0.000000
# 6 0.000000 0.000000 0.000000 0.000000 0.000000 0.062710
#
#
# Mechanical properties :
#
#
# Convention : Reuss Voigt Hill
#
# Bulk Modulus (GPa) = 24.13584 57.26607 40.70096
# Shear Modulus (GPa) = 17.13295 23.46395 20.29845
#
# Velocity S-wave (km/s) = 3.03792 3.55517 3.30668
# Velocity P-wave (km/s) = 5.03055 6.90649 6.04178
#
# Compressibility (1/GPa) = 0.04143216
#
# Stress axis : x y z
#
# Youngs Moduli (GPa) = 78.71325 17.17962 113.91315
#
# Poissons Ratio (x) = 0.16038 0.36749
# Poissons Ratio (y) = 0.73481 0.74821
# Poissons Ratio (z) = 0.25393 0.11284
#
# Static dielectric constant tensor:
#      x y z
#    x 3.513880 0.000000 0.000000 
#    y 0.000000 2.914810 0.000000 
#    z 0.000000 0.000000 3.831440 
# 
# 
# High freq. dielectric constant tensor:
#      x y z
#    x 1.716550 0.000000 0.000000 
#    y 0.000000 1.659200 0.000000 
#    z 0.000000 0.000000 1.744760 
# 
# From -- ./inp_files/30703.got.cif
#   From: 2010.03.12/outbox.cif.g09.slc.cpg/sg59_16_cif.got.tgz:30703.got - 2010.04.16 16:29:54.
