data_PCOD8243475
_publ_section_title
;
Structure prediction by ZEFSAII (Michael W. Deem and Ramdas Pophale) SiO2 
 PCOD8243475
Probable space group: P M M N
;
_chemical_formula_sum "Si O2"
_cell_formula_units_Z 48
_cell_length_a 8.957606
_cell_length_b 8.975411
_cell_length_c 30.971019
_cell_angle_alpha 90.000000
_cell_angle_beta 90.000000
_cell_angle_gamma 90.000000
_cell_volume 2490.014038
_symmetry_space_group_name_H-M "P M M N"
_symmetry_group_IT_number 59
_space_group.IT_coordinate_system_code '2'
_symmetry_cell_setting 'orthorhombic'
loop_
_space_group_symop_operation_xyz
x,y,z
1/2-x,1/2-y,z
1/2+x,-y,-z
-x,1/2+y,-z
-x,-y,-z
1/2+x,1/2+y,-z
1/2-x,y,z
x,1/2-y,z
loop_
_atom_site_type_symbol
_atom_site_label
_atom_site_fract_x
_atom_site_fract_y
_atom_site_fract_z
Si Si1 0.424178 0.075276 0.879104
Si Si2 0.927260 0.417680 0.207505
Si Si3 0.074048 0.422034 0.040530
Si Si4 0.925254 0.920969 0.627691
Si Si5 0.577895 0.924635 0.293635
Si Si6 0.920657 0.074646 0.459996
O O1 0.250000 0.039603 0.886421
O O2 0.454962 0.250000 0.879352
O O3 0.483247 0.009582 0.833873
O O4 0.518899 0.999100 0.916182
O O5 0.750000 0.417890 0.208203
O O6 0.990872 0.250000 0.205103
O O7 0.986526 0.495383 0.250954
O O8 0.250000 0.440852 0.036598
O O9 0.026140 0.250000 0.041229
O O10 0.000000 0.500000 0.000000
O O11 0.750000 0.939598 0.621890
O O12 0.970065 0.750000 0.637321
O O13 0.001905 0.979022 0.584028
O O14 0.980273 0.023717 0.666284
O O15 0.750000 0.968436 0.301974
O O16 0.559357 0.750000 0.286691
O O17 0.750000 0.022355 0.458559
O O18 0.936479 0.250000 0.465433
O O19 0.000000 0.000000 0.500000
#
# Coordination Sequence:
#
# PCOD8243475 Si02
#       6
#     8   8   8   8   8   8
#     4  10  20  35  57  85 115 146 182 225 273 326
#     4   9  17  31  54  82 111 145 183 223 269 321
#     4  11  24  40  58  82 111 144 184 228 274 326
#     4  10  21  37  56  78 106 142 183 226 272 322
#     4  10  20  34  54  81 111 143 181 225 271 320
#     4  10  21  37  58  83 110 142 180 222 270 324
#
# _framework density 19.277000000000001
#
# number of rings (size 3 to 8) (size 9 to 14) (size 15 to 20)
#    0.000    2.000    0.000    3.500    0.000   10.000 
#    0.000    0.833    0.000    5.000    0.000    0.000 
#    0.000    0.000    0.000    0.000    0.000    0.000 
#
# Total GULP energy -595402.830806 kJ/mol
# GULP energy per Si atom -12404.225642 kJ/mol
# Density = 1.923313 g / cm^3
# Si number density = 19.277000 Si / 1000 Ang^3
#
#
#
# Elastic Constant Matrix: (Units=GPa)
#
#
# Indices 1 2 3 4 5 6 
#
# 1 71.7271 43.3666 55.3903 0.0000 0.0000 0.0000
# 2 43.3666 108.0573 70.1484 0.0000 0.0000 0.0000
# 3 55.3903 70.1484 177.5647 0.0000 0.0000 0.0000
# 4 0.0000 0.0000 0.0000 44.4830 0.0000 0.0000
# 5 0.0000 0.0000 0.0000 0.0000 33.9590 0.0000
# 6 0.0000 0.0000 0.0000 0.0000 0.0000 27.8165
#
#
#
# Elastic Compliance Matrix: (Units=1/GPa)
#
#
# Indices 1 2 3 4 5 6 
#
# 1 0.020532 -0.005490 -0.004236 0.000000 0.000000 0.000000
# 2 -0.005490 0.013915 -0.003784 0.000000 0.000000 0.000000
# 3 -0.004236 -0.003784 0.008448 0.000000 0.000000 0.000000
# 4 0.000000 0.000000 0.000000 0.022480 0.000000 0.000000
# 5 0.000000 0.000000 0.000000 0.000000 0.029447 0.000000
# 6 0.000000 0.000000 0.000000 0.000000 0.000000 0.035950
#
#
# Mechanical properties :
#
#
# Convention : Reuss Voigt Hill
#
# Bulk Modulus (GPa) = 62.99718 77.23998 70.11858
# Shear Modulus (GPa) = 30.65879 33.81462 32.23671
#
# Velocity S-wave (km/s) = 3.99235 4.19279 4.09380
# Velocity P-wave (km/s) = 7.34866 7.97464 7.66804
#
# Compressibility (1/GPa) = 0.01587373
#
# Stress axis : x y z
#
# Youngs Moduli (GPa) = 48.70353 71.86735 118.36885
#
# Poissons Ratio (x) = 0.39458 0.50140
# Poissons Ratio (y) = 0.26740 0.44795
# Poissons Ratio (z) = 0.20631 0.27197
#
# Static dielectric constant tensor:
#      x y z
#    x 3.360330 0.000000 0.000000 
#    y 0.000000 3.639920 0.000000 
#    z 0.000000 0.000000 3.817280 
# 
# 
# High freq. dielectric constant tensor:
#      x y z
#    x 1.733410 0.000000 0.000000 
#    y 0.000000 1.758110 0.000000 
#    z 0.000000 0.000000 1.768840 
# 
# From -- ./inp_files/32790.got.cif
#   From: 2010.03.12/outbox.cif.g09.slc.cpg/sg59_17_cif.got.tgz:32790.got - 2010.04.16 16:29:54.
