data_PCOD8243382
_publ_section_title
;
Structure prediction by ZEFSAII (Michael W. Deem and Ramdas Pophale) SiO2 
 PCOD8243382
Probable space group: P M M N
;
_chemical_formula_sum "Si O2"
_cell_formula_units_Z 48
_cell_length_a 14.867398
_cell_length_b 8.736265
_cell_length_c 18.620306
_cell_angle_alpha 90.000000
_cell_angle_beta 90.000000
_cell_angle_gamma 90.000000
_cell_volume 2418.508291
_symmetry_space_group_name_H-M "P M M N"
_symmetry_group_IT_number 59
_space_group.IT_coordinate_system_code '2'
_symmetry_cell_setting 'orthorhombic'
loop_
_space_group_symop_operation_xyz
x,y,z
1/2-x,1/2-y,z
1/2+x,-y,-z
-x,1/2+y,-z
-x,-y,-z
1/2+x,1/2+y,-z
1/2-x,y,z
x,1/2-y,z
loop_
_atom_site_type_symbol
_atom_site_label
_atom_site_fract_x
_atom_site_fract_y
_atom_site_fract_z
Si Si1 0.436406 0.430699 0.248231
Si Si2 0.250000 0.929832 0.262631
Si Si3 0.885295 0.084503 0.495696
Si Si4 0.495638 0.928149 0.109466
Si Si5 0.250000 0.422855 0.412501
Si Si6 0.644983 0.928783 0.995155
Si Si7 0.026284 0.082685 0.615857
O O1 0.434800 0.250000 0.258069
O O2 0.337522 0.492479 0.227599
O O3 0.502882 0.478870 0.183900
O O4 0.466758 0.505917 0.322578
O O5 0.250000 0.750000 0.246629
O O6 0.250000 0.957247 0.347725
O O7 0.835239 0.250000 0.493077
O O8 0.975366 0.109506 0.540938
O O9 0.834500 0.950733 0.537304
O O10 0.895582 0.031696 0.411721
O O11 0.485883 0.750000 0.126437
O O12 0.405694 0.979381 0.067316
O O13 0.588963 0.963036 0.067914
O O14 0.250000 0.250000 0.382073
O O15 0.750000 0.980673 0.003160
O O16 0.639971 0.750000 0.975925
O O17 0.060349 0.250000 0.643316
#
# Coordination Sequence:
#
# PCOD8243382 Si02
#       7
#     8   4   8   8   4   8   8
#     4  12  24  38  57  82 116 153 189 233 288 352
#     4  12  24  38  54  80 114 149 188 235 294 350
#     4  10  20  34  54  77 106 142 184 232 280 334
#     4  10  21  37  59  89 122 156 195 241 290 346
#     4  12  22  34  54  80 110 143 184 233 288 348
#     4   9  19  38  63  89 119 155 197 241 287 341
#     4  10  20  35  55  78 107 142 184 230 280 338
#
# _framework density 19.846945000000002
#
# number of rings (size 3 to 8) (size 9 to 14) (size 15 to 20)
#    0.000    1.500    1.667    4.500    1.167    2.333 
#    0.000    0.000    1.833    0.000    0.000    0.000 
#    0.000    0.000    0.000    0.000    0.000    0.000 
#
# Total GULP energy -594822.985214 kJ/mol
# GULP energy per Si atom -12392.145525 kJ/mol
# Density = 1.980177 g / cm^3
# Si number density = 19.846945 Si / 1000 Ang^3
#
#
#
# Elastic Constant Matrix: (Units=GPa)
#
#
# Indices 1 2 3 4 5 6 
#
# 1 77.7870 18.4087 26.4163 0.0000 0.0000 0.0000
# 2 18.4087 135.7551 42.5374 0.0000 0.0000 0.0000
# 3 26.4163 42.5374 83.8614 0.0000 0.0000 0.0000
# 4 0.0000 0.0000 0.0000 34.0551 0.0000 0.0000
# 5 0.0000 0.0000 0.0000 0.0000 26.6368 0.0000
# 6 0.0000 0.0000 0.0000 0.0000 0.0000 29.7866
#
#
#
# Elastic Compliance Matrix: (Units=1/GPa)
#
#
# Indices 1 2 3 4 5 6 
#
# 1 0.014441 -0.000634 -0.004228 0.000000 0.000000 0.000000
# 2 -0.000634 0.008786 -0.004257 0.000000 0.000000 0.000000
# 3 -0.004228 -0.004257 0.015415 0.000000 0.000000 0.000000
# 4 0.000000 0.000000 0.000000 0.029364 0.000000 0.000000
# 5 0.000000 0.000000 0.000000 0.000000 0.037542 0.000000
# 6 0.000000 0.000000 0.000000 0.000000 0.000000 0.033572
#
#
# Mechanical properties :
#
#
# Convention : Reuss Voigt Hill
#
# Bulk Modulus (GPa) = 49.00444 52.45869 50.73157
# Shear Modulus (GPa) = 30.45817 32.09842 31.27830
#
# Velocity S-wave (km/s) = 3.92171 4.02593 3.97416
# Velocity P-wave (km/s) = 6.72690 6.93540 6.83195
#
# Compressibility (1/GPa) = 0.02040631
#
# Stress axis : x y z
#
# Youngs Moduli (GPa) = 69.24609 113.81744 64.87014
#
# Poissons Ratio (x) = 0.07211 0.27425
# Poissons Ratio (y) = 0.04387 0.27615
# Poissons Ratio (z) = 0.29274 0.48452
#
# Static dielectric constant tensor:
#      x y z
#    x 3.523290 0.000000 0.000000 
#    y 0.000000 4.048670 0.000000 
#    z 0.000000 0.000000 3.491610 
# 
# 
# High freq. dielectric constant tensor:
#      x y z
#    x 1.750060 0.000000 0.000000 
#    y 0.000000 1.792000 0.000000 
#    z 0.000000 0.000000 1.762890 
# 
# From -- ./inp_files/27474.got.cif
#   From: 2010.03.12/outbox.cif.g09.slc.cpg/sg59_14_cif.got.tgz:27474.got - 2010.04.16 16:29:54.
