data_PCOD8243229
_publ_section_title
;
Structure prediction by ZEFSAII (Michael W. Deem and Ramdas Pophale) SiO2 
 PCOD8243229
Probable space group: P M M N
;
_chemical_formula_sum "Si O2"
_cell_formula_units_Z 64
_cell_length_a 18.142879
_cell_length_b 9.058976
_cell_length_c 21.561274
_cell_angle_alpha 90.000000
_cell_angle_beta 90.000000
_cell_angle_gamma 90.000000
_cell_volume 3543.722711
_symmetry_space_group_name_H-M "P M M N"
_symmetry_group_IT_number 59
_space_group.IT_coordinate_system_code '2'
_symmetry_cell_setting 'orthorhombic'
loop_
_space_group_symop_operation_xyz
x,y,z
1/2-x,1/2-y,z
1/2+x,-y,-z
-x,1/2+y,-z
-x,-y,-z
1/2+x,1/2+y,-z
1/2-x,y,z
x,1/2-y,z
loop_
_atom_site_type_symbol
_atom_site_label
_atom_site_fract_x
_atom_site_fract_y
_atom_site_fract_z
Si Si1 0.590973 0.576227 0.752844
Si Si2 0.666659 0.919161 0.270394
Si Si3 0.466885 0.922853 0.059567
Si Si4 0.926811 0.925318 0.617889
Si Si5 0.664300 0.578487 0.501534
Si Si6 0.594546 0.424964 0.385058
Si Si7 0.962521 0.582999 0.186205
Si Si8 0.665997 0.924097 0.876275
O O1 0.586948 0.750000 0.751227
O O2 0.609098 0.518411 0.683241
O O3 0.509955 0.521612 0.770054
O O4 0.649712 0.524916 0.805034
O O5 0.750000 0.968426 0.256997
O O6 0.662811 0.750000 0.293693
O O7 0.622651 0.938256 0.205490
O O8 0.631936 0.022462 0.322102
O O9 0.456912 0.750000 0.046847
O O10 0.525483 0.956411 0.114202
O O11 0.387081 0.990172 0.076496
O O12 0.500000 0.000000 0.000000
O O13 0.925472 0.750000 0.616314
O O14 0.878874 0.987171 0.561032
O O15 0.010539 0.983086 0.611595
O O16 0.750000 0.554019 0.514222
O O17 0.645741 0.750000 0.490593
O O18 0.640478 0.488538 0.441821
O O19 0.597887 0.250000 0.387578
O O20 0.989350 0.750000 0.198103
O O21 0.750000 0.966093 0.892009
O O22 0.651954 0.750000 0.883864
#
# Coordination Sequence:
#
# PCOD8243229 Si02
#       8
#     8   8   8   8   8   8   8   8
#     4   9  16  30  52  76 103 132 166 209 257 307
#     4  10  20  34  53  76 101 130 166 209 257 307
#     4  10  20  35  56  81 109 145 184 220 260 307
#     4   9  18  32  51  75  99 128 168 211 257 308
#     4  10  21  36  51  68  95 132 172 213 257 306
#     4  11  21  34  52  73  99 130 167 211 258 309
#     4   9  18  33  52  75 103 133 169 208 250 303
#     4   9  18  32  53  82 112 142 177 217 262 313
#
# _framework density 18.060102000000001
#
# number of rings (size 3 to 8) (size 9 to 14) (size 15 to 20)
#    0.000    2.375    1.250    1.500    0.000    3.250 
#    0.000    4.375    0.000    2.250    0.000    1.750 
#    0.000    0.000    0.000    0.000    0.000    0.000 
#
# Total GULP energy -793436.468607 kJ/mol
# GULP energy per Si atom -12397.444822 kJ/mol
# Density = 1.801900 g / cm^3
# Si number density = 18.060102 Si / 1000 Ang^3
#
#
#
# Elastic Constant Matrix: (Units=GPa)
#
#
# Indices 1 2 3 4 5 6 
#
# 1 134.0335 42.1015 68.2388 0.0000 0.0000 0.0000
# 2 42.1015 41.5401 36.1354 0.0000 0.0000 0.0000
# 3 68.2388 36.1354 119.2308 0.0000 0.0000 0.0000
# 4 0.0000 0.0000 0.0000 20.2430 0.0000 0.0000
# 5 0.0000 0.0000 0.0000 0.0000 25.2362 0.0000
# 6 0.0000 0.0000 0.0000 0.0000 0.0000 24.8694
#
#
#
# Elastic Compliance Matrix: (Units=1/GPa)
#
#
# Indices 1 2 3 4 5 6 
#
# 1 0.012503 -0.008756 -0.004502 0.000000 0.000000 0.000000
# 2 -0.008756 0.038823 -0.006755 0.000000 0.000000 0.000000
# 3 -0.004502 -0.006755 0.013011 0.000000 0.000000 0.000000
# 4 0.000000 0.000000 0.000000 0.049400 0.000000 0.000000
# 5 0.000000 0.000000 0.000000 0.000000 0.039626 0.000000
# 6 0.000000 0.000000 0.000000 0.000000 0.000000 0.040210
#
#
# Mechanical properties :
#
#
# Convention : Reuss Voigt Hill
#
# Bulk Modulus (GPa) = 41.13281 65.30621 53.21951
# Shear Modulus (GPa) = 20.68648 23.95830 22.32239
#
# Velocity S-wave (km/s) = 3.38808 3.64619 3.51950
# Velocity P-wave (km/s) = 6.17498 7.34610 6.78585
#
# Compressibility (1/GPa) = 0.02431149
#
# Stress axis : x y z
#
# Youngs Moduli (GPa) = 79.97864 25.75764 76.85688
#
# Poissons Ratio (x) = 0.22553 0.34604
# Poissons Ratio (y) = 0.70027 0.51918
# Poissons Ratio (z) = 0.36009 0.17400
#
# Static dielectric constant tensor:
#      x y z
#    x 3.419880 0.000000 0.000000 
#    y 0.000000 3.235680 0.000000 
#    z 0.000000 0.000000 3.552510 
# 
# 
# High freq. dielectric constant tensor:
#      x y z
#    x 1.696610 0.000000 0.000000 
#    y 0.000000 1.685460 0.000000 
#    z 0.000000 0.000000 1.701580 
# 
# From -- ./inp_files/30672.got.cif
#   From: 2010.03.12/outbox.cif.g09.slc.cpg/sg59_16_cif.got.tgz:30672.got - 2010.04.16 16:29:54.
