data_PCOD8243728
_publ_section_title
;
Structure prediction by ZEFSAII (Michael W. Deem and Ramdas Pophale) SiO2 
 PCOD8243728
Probable space group: P M M N
;
_chemical_formula_sum "Si O2"
_cell_formula_units_Z 64
_cell_length_a 14.984615
_cell_length_b 17.364325
_cell_length_c 11.728213
_cell_angle_alpha 90.000000
_cell_angle_beta 90.000000
_cell_angle_gamma 90.000000
_cell_volume 3051.654339
_symmetry_space_group_name_H-M "P M M N"
_symmetry_group_IT_number 59
_space_group.IT_coordinate_system_code '2'
_symmetry_cell_setting 'orthorhombic'
loop_
_space_group_symop_operation_xyz
x,y,z
1/2-x,1/2-y,z
1/2+x,-y,-z
-x,1/2+y,-z
-x,-y,-z
1/2+x,1/2+y,-z
1/2-x,y,z
x,1/2-y,z
loop_
_atom_site_type_symbol
_atom_site_label
_atom_site_fract_x
_atom_site_fract_y
_atom_site_fract_z
Si Si1 0.651333 0.998037 0.772151
Si Si2 0.150643 0.340568 0.562719
Si Si3 0.353756 0.876427 0.928532
Si Si4 0.110105 0.667099 0.170552
Si Si5 0.647482 0.956533 0.027642
Si Si6 0.588432 0.835300 0.198179
Si Si7 0.981351 0.566890 0.587381
Si Si8 0.852920 0.336760 0.324099
O O1 0.750000 0.971601 0.728908
O O2 0.659480 0.091168 0.783191
O O3 0.571182 0.969994 0.693107
O O4 0.629803 0.958578 0.892869
O O5 0.250000 0.363841 0.523222
O O6 0.137171 0.250000 0.569242
O O7 0.135423 0.373508 0.690875
O O8 0.081445 0.370214 0.469971
O O9 0.250000 0.877403 0.963464
O O10 0.371018 0.832435 0.811122
O O11 0.387815 0.964343 0.916014
O O12 0.403367 0.835317 0.033195
O O13 0.157826 0.750000 0.200166
O O14 0.014732 0.669367 0.230705
O O15 0.750000 0.943689 0.056627
O O16 0.596182 0.886379 0.085184
O O17 0.627641 0.750000 0.172525
O O18 0.000000 0.500000 0.500000
O O19 0.076366 0.605150 0.619588
O O20 0.750000 0.364459 0.347535
O O21 0.866163 0.250000 0.371861
#
# Coordination Sequence:
#
# PCOD8243728 Si02
#       8
#     8   8   8   8   8   8   8   8
#     4  10  23  41  60  90 126 164 210 262 314 377
#     4  10  22  42  66  87 115 162 216 265 306 359
#     4   9  19  34  58  89 119 157 203 248 305 378
#     4  10  20  34  57  89 126 166 205 250 312 382
#     4   9  19  35  57  85 122 160 196 248 315 378
#     4  10  21  35  56  91 126 158 202 255 312 377
#     4  12  26  42  64  91 123 165 213 264 319 369
#     4  10  23  43  66  94 126 161 207 263 320 377
#
# _framework density 20.972232000000002
#
# number of rings (size 3 to 8) (size 9 to 14) (size 15 to 20)
#    0.000    2.000    0.000    3.375    5.250    4.250 
#    0.000    1.250    0.000    1.500    0.000    0.000 
#    0.000    0.000    0.000    0.000    0.000    0.000 
#
# Total GULP energy -793234.688424 kJ/mol
# GULP energy per Si atom -12394.292007 kJ/mol
# Density = 2.092450 g / cm^3
# Si number density = 20.972232 Si / 1000 Ang^3
#
#
#
# Elastic Constant Matrix: (Units=GPa)
#
#
# Indices 1 2 3 4 5 6 
#
# 1 115.0779 42.6567 48.5902 0.0000 0.0000 0.0000
# 2 42.6567 97.7905 46.7038 0.0000 0.0000 0.0000
# 3 48.5902 46.7038 82.9765 0.0000 0.0000 0.0000
# 4 0.0000 0.0000 0.0000 25.0185 0.0000 0.0000
# 5 0.0000 0.0000 0.0000 0.0000 36.9704 0.0000
# 6 0.0000 0.0000 0.0000 0.0000 0.0000 28.5658
#
#
#
# Elastic Compliance Matrix: (Units=1/GPa)
#
#
# Indices 1 2 3 4 5 6 
#
# 1 0.011998 -0.002569 -0.005580 0.000000 0.000000 0.000000
# 2 -0.002569 0.014535 -0.006677 0.000000 0.000000 0.000000
# 3 -0.005580 -0.006677 0.019078 0.000000 0.000000 0.000000
# 4 0.000000 0.000000 0.000000 0.039970 0.000000 0.000000
# 5 0.000000 0.000000 0.000000 0.000000 0.027049 0.000000
# 6 0.000000 0.000000 0.000000 0.000000 0.000000 0.035007
#
#
# Mechanical properties :
#
#
# Convention : Reuss Voigt Hill
#
# Bulk Modulus (GPa) = 62.66017 63.52736 63.09377
# Shear Modulus (GPa) = 27.38097 28.63721 28.00909
#
# Velocity S-wave (km/s) = 3.61720 3.69925 3.65846
# Velocity P-wave (km/s) = 6.88390 6.97158 6.92788
#
# Compressibility (1/GPa) = 0.01595910
#
# Stress axis : x y z
#
# Youngs Moduli (GPa) = 83.34695 68.79802 52.41745
#
# Poissons Ratio (x) = 0.17671 0.29250
# Poissons Ratio (y) = 0.21408 0.35000
# Poissons Ratio (z) = 0.46509 0.45938
#
# Static dielectric constant tensor:
#      x y z
#    x 3.876860 0.000000 0.000000 
#    y 0.000000 3.853440 0.000000 
#    z 0.000000 0.000000 3.676660 
# 
# 
# High freq. dielectric constant tensor:
#      x y z
#    x 1.824770 0.000000 0.000000 
#    y 0.000000 1.823650 0.000000 
#    z 0.000000 0.000000 1.806090 
# 
# From -- ./inp_files/17210.got.cif
#   From: 2010.03.12/outbox.cif.g09.slc.cpg/sg59_9_cif.got.tgz:17210.got - 2010.04.16 16:29:54.
