data_PCOD8243648
_publ_section_title
;
Structure prediction by ZEFSAII (Michael W. Deem and Ramdas Pophale) SiO2 
 PCOD8243648
Probable space group: P M M N
;
_chemical_formula_sum "Si O2"
_cell_formula_units_Z 56
_cell_length_a 18.723457
_cell_length_b 8.594755
_cell_length_c 17.668275
_cell_angle_alpha 90.000000
_cell_angle_beta 90.000000
_cell_angle_gamma 90.000000
_cell_volume 2843.241105
_symmetry_space_group_name_H-M "P M M N"
_symmetry_group_IT_number 59
_space_group.IT_coordinate_system_code '2'
_symmetry_cell_setting 'orthorhombic'
loop_
_space_group_symop_operation_xyz
x,y,z
1/2-x,1/2-y,z
1/2+x,-y,-z
-x,1/2+y,-z
-x,-y,-z
1/2+x,1/2+y,-z
1/2-x,y,z
x,1/2-y,z
loop_
_atom_site_type_symbol
_atom_site_label
_atom_site_fract_x
_atom_site_fract_y
_atom_site_fract_z
Si Si1 0.832893 0.930729 0.415798
Si Si2 0.912640 0.931329 0.263528
Si Si3 0.570607 0.432628 0.537766
Si Si4 0.562221 0.931152 0.700019
Si Si5 0.330807 0.932016 0.875338
Si Si6 0.666158 0.071149 0.816033
Si Si7 0.665212 0.575203 0.970296
O O1 0.750000 0.966768 0.404734
O O2 0.847375 0.750000 0.433550
O O3 0.873204 0.983136 0.340046
O O4 0.861684 0.033924 0.484696
O O5 0.901365 0.750000 0.247441
O O6 0.879955 0.027239 0.195032
O O7 0.995637 0.969426 0.270540
O O8 0.500000 0.500000 0.500000
O O9 0.561041 0.250000 0.551137
O O10 0.585068 0.516140 0.616797
O O11 0.542325 0.750000 0.699721
O O12 0.628627 0.962106 0.754771
O O13 0.250000 0.992255 0.860058
O O14 0.330876 0.750000 0.889170
O O15 0.364561 0.009203 0.950569
O O16 0.750000 0.038121 0.809352
O O17 0.647491 0.250000 0.799861
O O18 0.637892 0.027379 0.899811
O O19 0.750000 0.568070 0.973705
O O20 0.636962 0.750000 0.959152
#
# Coordination Sequence:
#
# PCOD8243648 Si02
#       7
#     8   8   8   8   8   8   8
#     4  10  22  40  63  91 122 157 198 246 298 352
#     4  11  22  38  60  86 120 160 200 244 296 355
#     4  12  24  41  64  88 117 157 200 243 295 354
#     4  12  25  41  63  89 119 157 198 243 297 357
#     4  10  20  34  55  85 121 160 203 248 294 349
#     4  10  21  39  63  90 120 154 196 247 300 354
#     4   9  17  32  56  85 117 155 199 245 297 354
#
# _framework density 19.695833
#
# number of rings (size 3 to 8) (size 9 to 14) (size 15 to 20)
#    0.000    1.429    1.429    4.714    0.000    5.429 
#    0.000    0.714    0.000    0.000    0.000    0.000 
#    0.000    0.000    0.000    0.000    0.000    0.000 
#
# Total GULP energy -694720.227223 kJ/mol
# GULP energy per Si atom -12405.718343 kJ/mol
# Density = 1.965100 g / cm^3
# Si number density = 19.695833 Si / 1000 Ang^3
#
#
#
# Elastic Constant Matrix: (Units=GPa)
#
#
# Indices 1 2 3 4 5 6 
#
# 1 68.8349 18.2748 39.5478 0.0000 0.0000 0.0000
# 2 18.2748 69.2681 26.3048 0.0000 0.0000 0.0000
# 3 39.5478 26.3048 137.3961 0.0000 0.0000 0.0000
# 4 0.0000 0.0000 0.0000 37.5074 0.0000 0.0000
# 5 0.0000 0.0000 0.0000 0.0000 24.9133 0.0000
# 6 0.0000 0.0000 0.0000 0.0000 0.0000 29.4584
#
#
#
# Elastic Compliance Matrix: (Units=1/GPa)
#
#
# Indices 1 2 3 4 5 6 
#
# 1 0.017964 -0.002993 -0.004598 0.000000 0.000000 0.000000
# 2 -0.002993 0.016067 -0.002215 0.000000 0.000000 0.000000
# 3 -0.004598 -0.002215 0.009026 0.000000 0.000000 0.000000
# 4 0.000000 0.000000 0.000000 0.026661 0.000000 0.000000
# 5 0.000000 0.000000 0.000000 0.000000 0.040139 0.000000
# 6 0.000000 0.000000 0.000000 0.000000 0.000000 0.033946
#
#
# Mechanical properties :
#
#
# Convention : Reuss Voigt Hill
#
# Bulk Modulus (GPa) = 42.65173 49.30598 45.97886
# Shear Modulus (GPa) = 29.20060 31.13395 30.16727
#
# Velocity S-wave (km/s) = 3.85460 3.98016 3.91789
# Velocity P-wave (km/s) = 6.44305 6.79782 6.62281
#
# Compressibility (1/GPa) = 0.02344571
#
# Stress axis : x y z
#
# Youngs Moduli (GPa) = 55.66807 62.23798 110.79668
#
# Poissons Ratio (x) = 0.18630 0.50939
# Poissons Ratio (y) = 0.16663 0.24536
# Poissons Ratio (z) = 0.25594 0.13783
#
# Static dielectric constant tensor:
#      x y z
#    x 3.388410 0.000000 0.000000 
#    y 0.000000 3.665420 0.000000 
#    z 0.000000 0.000000 3.738590 
# 
# 
# High freq. dielectric constant tensor:
#      x y z
#    x 1.748500 0.000000 0.000000 
#    y 0.000000 1.777720 0.000000 
#    z 0.000000 0.000000 1.782620 
# 
# From -- ./inp_files/24213.got.cif
#   From: 2010.03.12/outbox.cif.g09.slc.cpg/sg59_13_cif.got.tgz:24213.got - 2010.04.16 16:29:54.
