data_PCOD8243398
_publ_section_title
;
Structure prediction by ZEFSAII (Michael W. Deem and Ramdas Pophale) SiO2 
 PCOD8243398
Probable space group: P M M N
;
_chemical_formula_sum "Si O2"
_cell_formula_units_Z 56
_cell_length_a 19.996476
_cell_length_b 15.020521
_cell_length_c 10.021861
_cell_angle_alpha 90.000000
_cell_angle_beta 90.000000
_cell_angle_gamma 90.000000
_cell_volume 3010.140992
_symmetry_space_group_name_H-M "P M M N"
_symmetry_group_IT_number 59
_space_group.IT_coordinate_system_code '2'
_symmetry_cell_setting 'orthorhombic'
loop_
_space_group_symop_operation_xyz
x,y,z
1/2-x,1/2-y,z
1/2+x,-y,-z
-x,1/2+y,-z
-x,-y,-z
1/2+x,1/2+y,-z
1/2-x,y,z
x,1/2-y,z
loop_
_atom_site_type_symbol
_atom_site_label
_atom_site_fract_x
_atom_site_fract_y
_atom_site_fract_z
Si Si1 0.053091 0.152589 0.597754
Si Si2 0.581766 0.463112 0.297081
Si Si3 0.327500 0.526142 0.951183
Si Si4 0.174242 0.149831 0.096975
Si Si5 0.174583 0.848524 0.180477
Si Si6 0.431654 0.409118 0.311801
Si Si7 0.904814 0.402102 0.584262
O O1 0.075987 0.250000 0.654627
O O2 0.067126 0.154254 0.440058
O O3 0.974618 0.142709 0.618480
O O4 0.087125 0.069110 0.672186
O O5 0.630803 0.442435 0.176188
O O6 0.506951 0.430272 0.259187
O O7 0.607419 0.406707 0.425228
O O8 0.250000 0.550352 0.925074
O O9 0.336994 0.420811 0.977931
O O10 0.358230 0.580719 0.077635
O O11 0.250000 0.135980 0.156470
O O12 0.167707 0.250000 0.039000
O O13 0.115914 0.137476 0.204800
O O14 0.250000 0.879052 0.193578
O O15 0.166520 0.750000 0.118871
O O16 0.148373 0.846132 0.332376
O O17 0.398370 0.499938 0.356775
#
# Coordination Sequence:
#
# PCOD8243398 Si02
#       7
#     8   8   8   8   8   8   8
#     4   9  17  31  52  78 110 142 174 222 278 324
#     4   9  20  34  55  80 109 146 178 219 278 332
#     4  10  21  38  55  76 113 150 177 225 279 320
#     4  10  20  34  54  78 107 148 190 222 262 320
#     4  10  20  35  56  78 102 138 182 225 271 324
#     4   9  17  33  54  77 108 140 178 229 272 313
#     4   9  17  33  54  78 103 136 177 221 272 325
#
# _framework density 18.603781000000001
#
# number of rings (size 3 to 8) (size 9 to 14) (size 15 to 20)
#    0.000    2.571    1.429    2.571    0.000    1.714 
#    0.000    6.429    0.000    2.571    0.000    0.000 
#    0.000    0.000    0.000    0.000    0.000    0.000 
#
# Total GULP energy -693815.130269 kJ/mol
# GULP energy per Si atom -12389.555898 kJ/mol
# Density = 1.856144 g / cm^3
# Si number density = 18.603781 Si / 1000 Ang^3
#
#
#
# Elastic Constant Matrix: (Units=GPa)
#
#
# Indices 1 2 3 4 5 6 
#
# 1 67.0090 20.9256 53.4181 0.0000 0.0000 0.0000
# 2 20.9256 66.2718 20.3153 0.0000 0.0000 0.0000
# 3 53.4181 20.3153 99.7019 0.0000 0.0000 0.0000
# 4 0.0000 0.0000 0.0000 12.7627 0.0000 0.0000
# 5 0.0000 0.0000 0.0000 0.0000 33.1497 0.0000
# 6 0.0000 0.0000 0.0000 0.0000 0.0000 18.6244
#
#
#
# Elastic Compliance Matrix: (Units=1/GPa)
#
#
# Indices 1 2 3 4 5 6 
#
# 1 0.027199 -0.004396 -0.013677 0.000000 0.000000 0.000000
# 2 -0.004396 0.016805 -0.001069 0.000000 0.000000 0.000000
# 3 -0.013677 -0.001069 0.017576 0.000000 0.000000 0.000000
# 4 0.000000 0.000000 0.000000 0.078353 0.000000 0.000000
# 5 0.000000 0.000000 0.000000 0.000000 0.030166 0.000000
# 6 0.000000 0.000000 0.000000 0.000000 0.000000 0.053693
#
#
# Mechanical properties :
#
#
# Convention : Reuss Voigt Hill
#
# Bulk Modulus (GPa) = 42.92545 46.92228 44.92387
# Shear Modulus (GPa) = 18.52945 22.12896 20.32921
#
# Velocity S-wave (km/s) = 3.15938 3.45264 3.30926
# Velocity P-wave (km/s) = 6.03593 6.41646 6.22910
#
# Compressibility (1/GPa) = 0.02329620
#
# Stress axis : x y z
#
# Youngs Moduli (GPa) = 36.76609 59.50599 56.89719
#
# Poissons Ratio (x) = 0.26156 0.77818
# Poissons Ratio (y) = 0.16161 0.06083
# Poissons Ratio (z) = 0.50285 0.06362
#
# Static dielectric constant tensor:
#      x y z
#    x 3.286050 0.000000 0.000000 
#    y 0.000000 3.559170 0.000000 
#    z 0.000000 0.000000 3.260960 
# 
# 
# High freq. dielectric constant tensor:
#      x y z
#    x 1.705100 0.000000 0.000000 
#    y 0.000000 1.732690 0.000000 
#    z 0.000000 0.000000 1.700720 
# 
# From -- ./inp_files/11430.got.cif
#   From: 2010.03.12/outbox.cif.g09.slc.cpg/sg59_6_cif.got.tgz:11430.got - 2010.04.16 16:29:54.
