data_PCOD8243429
_publ_section_title
;
Structure prediction by ZEFSAII (Michael W. Deem and Ramdas Pophale) SiO2 
 PCOD8243429
Probable space group: P M M N
;
_chemical_formula_sum "Si O2"
_cell_formula_units_Z 40
_cell_length_a 18.088427
_cell_length_b 9.000017
_cell_length_c 12.950317
_cell_angle_alpha 90.000000
_cell_angle_beta 90.000000
_cell_angle_gamma 90.000000
_cell_volume 2108.261755
_symmetry_space_group_name_H-M "P M M N"
_symmetry_group_IT_number 59
_space_group.IT_coordinate_system_code '2'
_symmetry_cell_setting 'orthorhombic'
loop_
_space_group_symop_operation_xyz
x,y,z
1/2-x,1/2-y,z
1/2+x,-y,-z
-x,1/2+y,-z
-x,-y,-z
1/2+x,1/2+y,-z
1/2-x,y,z
x,1/2-y,z
loop_
_atom_site_type_symbol
_atom_site_label
_atom_site_fract_x
_atom_site_fract_y
_atom_site_fract_z
Si Si1 0.838054 0.582503 0.615119
Si Si2 0.834738 0.576628 0.208340
Si Si3 0.579113 0.925679 0.003609
Si Si4 0.662297 0.080377 0.820160
Si Si5 0.338077 0.917539 0.586651
O O1 0.750000 0.583047 0.612421
O O2 0.868766 0.750000 0.623385
O O3 0.866444 0.487704 0.712480
O O4 0.869814 0.507991 0.511039
O O5 0.750000 0.531947 0.185791
O O6 0.841421 0.750000 0.232071
O O7 0.866780 0.490888 0.307610
O O8 0.882777 0.528050 0.110649
O O9 0.571416 0.750000 0.993219
O O10 0.629567 0.984264 0.911919
O O11 0.500000 0.000000 0.000000
O O12 0.750000 0.070982 0.827575
O O13 0.634501 0.250000 0.827406
O O14 0.250000 0.921668 0.584345
O O15 0.368032 0.750000 0.580422
#
# Coordination Sequence:
#
# PCOD8243429 Si02
#       5
#     8   8   8   8   8
#     4   9  16  27  46  73 105 138 170 206 251 303
#     4   9  18  33  53  76 102 134 172 212 254 304
#     4  11  23  38  55  75 103 139 178 219 264 314
#     4  10  20  34  54  80 108 137 173 217 261 307
#     4   9  16  26  44  73 106 135 165 206 254 301
#
# _framework density 18.972975999999999
#
# number of rings (size 3 to 8) (size 9 to 14) (size 15 to 20)
#    0.000    2.400    0.000    3.000    0.000    8.400 
#    0.000    2.000    0.000    1.200    0.000    0.000 
#    0.000    0.000    0.000    0.000    0.000    0.000 
#
# Total GULP energy -496062.066244 kJ/mol
# GULP energy per Si atom -12401.551656 kJ/mol
# Density = 1.892979 g / cm^3
# Si number density = 18.972976 Si / 1000 Ang^3
#
#
#
# Elastic Constant Matrix: (Units=GPa)
#
#
# Indices 1 2 3 4 5 6 
#
# 1 21.5197 28.0938 26.8795 0.0000 0.0000 0.0000
# 2 28.0938 119.1290 84.2018 0.0000 0.0000 0.0000
# 3 26.8795 84.2018 176.9871 0.0000 0.0000 0.0000
# 4 0.0000 0.0000 0.0000 38.9477 0.0000 0.0000
# 5 0.0000 0.0000 0.0000 0.0000 -2.8841 0.0000
# 6 0.0000 0.0000 0.0000 0.0000 0.0000 21.3678
#
#
#
# Elastic Compliance Matrix: (Units=1/GPa)
#
#
# Indices 1 2 3 4 5 6 
#
# 1 0.069086 -0.013373 -0.004130 0.000000 0.000000 0.000000
# 2 -0.013373 0.015236 -0.005217 0.000000 0.000000 0.000000
# 3 -0.004130 -0.005217 0.008760 0.000000 0.000000 0.000000
# 4 0.000000 0.000000 0.000000 0.025675 0.000000 0.000000
# 5 0.000000 0.000000 0.000000 0.000000 -0.346733 0.000000
# 6 0.000000 0.000000 0.000000 0.000000 0.000000 0.046799
#
#
# Mechanical properties :
#
#
# Convention : Reuss Voigt Hill
#
# Bulk Modulus (GPa) = 20.99062 66.22066 43.60564
# Shear Modulus (GPa) = -41.71687 23.38367 -9.16660
#
# Velocity S-wave (km/s) = -4.69417 3.51447 -2.20043
# Velocity P-wave (km/s) = 4.27702 7.17266 4.07150
#
# Compressibility (1/GPa) = 0.04764033
#
# Stress axis : x y z
#
# Youngs Moduli (GPa) = 14.47465 65.63524 114.16135
#
# Poissons Ratio (x) = 0.87776 0.47149
# Poissons Ratio (y) = 0.19357 0.59562
# Poissons Ratio (z) = 0.05978 0.34244
#
# Static dielectric constant tensor:
#      x y z
#    x 3.020960 0.000000 0.000000 
#    y 0.000000 3.670330 0.000000 
#    z 0.000000 0.000000 3.739620 
# 
# 
# High freq. dielectric constant tensor:
#      x y z
#    x 1.683370 0.000000 0.000000 
#    y 0.000000 1.752060 0.000000 
#    z 0.000000 0.000000 1.756820 
# 
# From -- ./inp_files/13827.got.cif
#   From: 2010.03.12/outbox.cif.g09.slc.cpg/sg59_7_cif.got.tgz:13827.got - 2010.04.16 16:29:54.
