data_PCOD8243312
_publ_section_title
;
Structure prediction by ZEFSAII (Michael W. Deem and Ramdas Pophale) SiO2 
 PCOD8243312
Probable space group: P M M N
;
_chemical_formula_sum "Si O2"
_cell_formula_units_Z 40
_cell_length_a 9.019486
_cell_length_b 14.515539
_cell_length_c 16.502897
_cell_angle_alpha 90.000000
_cell_angle_beta 90.000000
_cell_angle_gamma 90.000000
_cell_volume 2160.603846
_symmetry_space_group_name_H-M "P M M N"
_symmetry_group_IT_number 59
_space_group.IT_coordinate_system_code '2'
_symmetry_cell_setting 'orthorhombic'
loop_
_space_group_symop_operation_xyz
x,y,z
1/2-x,1/2-y,z
1/2+x,-y,-z
-x,1/2+y,-z
-x,-y,-z
1/2+x,1/2+y,-z
1/2-x,y,z
x,1/2-y,z
loop_
_atom_site_type_symbol
_atom_site_label
_atom_site_fract_x
_atom_site_fract_y
_atom_site_fract_z
Si Si1 0.074330 0.750000 0.698978
Si Si2 0.922382 0.891362 0.585745
Si Si3 0.421606 0.250000 0.131049
Si Si4 0.579472 0.103642 0.576365
Si Si5 0.925643 0.750000 0.122450
Si Si6 0.423122 0.401523 0.999392
Si Si7 0.420713 0.750000 0.291656
O O1 0.250000 0.750000 0.692269
O O2 0.010357 0.840637 0.656318
O O3 0.027889 0.750000 0.792149
O O4 0.750000 0.866491 0.592288
O O5 0.980118 0.859863 0.497689
O O6 0.955177 0.998670 0.597853
O O7 0.250000 0.250000 0.158306
O O8 0.456743 0.342388 0.080092
O O9 0.750000 0.118365 0.550801
O O10 0.539791 0.160205 0.656304
O O11 0.750000 0.750000 0.117634
O O12 0.977442 0.750000 0.213897
O O13 0.983302 0.657959 0.076989
O O14 0.250000 0.420033 0.991031
O O15 0.500000 0.500000 0.000000
O O16 0.250000 0.750000 0.264473
#
# Coordination Sequence:
#
# PCOD8243312 Si02
#       7
#     4   8   4   8   4   8   4
#     4  12  24  36  53  78 108 141 180 229 274 311
#     4  10  20  35  55  78 106 143 183 220 267 323
#     4   9  20  39  57  77 108 142 175 214 265 324
#     4   9  19  35  54  78 109 142 179 222 264 311
#     4   9  20  37  53  77 110 138 169 210 257 312
#     4   9  19  37  60  81 105 138 172 211 261 314
#     4  10  20  34  53  78 108 141 174 213 260 307
#
# _framework density 18.513342000000002
#
# number of rings (size 3 to 8) (size 9 to 14) (size 15 to 20)
#    0.000    2.400    0.000    3.300    0.000    5.600 
#    0.000    8.000    0.000    0.000    0.000    0.000 
#    0.000    0.000    0.000    0.000    0.000    0.000 
#
# Total GULP energy -496034.548932 kJ/mol
# GULP energy per Si atom -12400.863723 kJ/mol
# Density = 1.847120 g / cm^3
# Si number density = 18.513342 Si / 1000 Ang^3
#
#
#
# Elastic Constant Matrix: (Units=GPa)
#
#
# Indices 1 2 3 4 5 6 
#
# 1 86.1397 48.8469 53.1379 0.0000 0.0000 0.0000
# 2 48.8469 135.3919 62.6725 0.0000 0.0000 0.0000
# 3 53.1379 62.6725 122.7905 0.0000 0.0000 0.0000
# 4 0.0000 0.0000 0.0000 22.0517 0.0000 0.0000
# 5 0.0000 0.0000 0.0000 0.0000 36.6067 0.0000
# 6 0.0000 0.0000 0.0000 0.0000 0.0000 31.0445
#
#
#
# Elastic Compliance Matrix: (Units=1/GPa)
#
#
# Indices 1 2 3 4 5 6 
#
# 1 0.017071 -0.003587 -0.005557 0.000000 0.000000 0.000000
# 2 -0.003587 0.010424 -0.003769 0.000000 0.000000 0.000000
# 3 -0.005557 -0.003769 0.012472 0.000000 0.000000 0.000000
# 4 0.000000 0.000000 0.000000 0.045348 0.000000 0.000000
# 5 0.000000 0.000000 0.000000 0.000000 0.027317 0.000000
# 6 0.000000 0.000000 0.000000 0.000000 0.000000 0.032212
#
#
# Mechanical properties :
#
#
# Convention : Reuss Voigt Hill
#
# Bulk Modulus (GPa) = 70.70416 74.84853 72.77634
# Shear Modulus (GPa) = 28.50906 29.91823 29.21364
#
# Velocity S-wave (km/s) = 3.92844 4.02436 3.97669
# Velocity P-wave (km/s) = 7.67142 7.88107 7.77695
#
# Compressibility (1/GPa) = 0.01414344
#
# Stress axis : x y z
#
# Youngs Moduli (GPa) = 58.57968 95.92895 80.17868
#
# Poissons Ratio (x) = 0.34406 0.44554
# Poissons Ratio (y) = 0.21010 0.30215
# Poissons Ratio (z) = 0.32552 0.36151
#
# Static dielectric constant tensor:
#      x y z
#    x 3.347850 0.000000 0.000000 
#    y 0.000000 3.638910 0.000000 
#    z 0.000000 0.000000 3.332830 
# 
# 
# High freq. dielectric constant tensor:
#      x y z
#    x 1.714420 0.000000 0.000000 
#    y 0.000000 1.731350 0.000000 
#    z 0.000000 0.000000 1.715750 
# 
# From -- ./inp_files/20039.got.cif
#   From: 2010.03.12/outbox.cif.g09.slc.cpg/sg59_11_cif.got.tgz:20039.got - 2010.04.16 16:29:54.
