data_PCOD8243136
_publ_section_title
;
Structure prediction by ZEFSAII (Michael W. Deem and Ramdas Pophale) SiO2 
 PCOD8243136
Probable space group: P M M N
;
_chemical_formula_sum "Si O2"
_cell_formula_units_Z 48
_cell_length_a 13.708846
_cell_length_b 9.187245
_cell_length_c 21.024977
_cell_angle_alpha 90.000000
_cell_angle_beta 90.000000
_cell_angle_gamma 90.000000
_cell_volume 2648.022831
_symmetry_space_group_name_H-M "P M M N"
_symmetry_group_IT_number 59
_space_group.IT_coordinate_system_code '2'
_symmetry_cell_setting 'orthorhombic'
loop_
_space_group_symop_operation_xyz
x,y,z
1/2-x,1/2-y,z
1/2+x,-y,-z
-x,1/2+y,-z
-x,-y,-z
1/2+x,1/2+y,-z
1/2-x,y,z
x,1/2-y,z
loop_
_atom_site_type_symbol
_atom_site_label
_atom_site_fract_x
_atom_site_fract_y
_atom_site_fract_z
Si Si1 0.858117 0.080798 0.406576
Si Si2 0.634712 0.585198 0.530018
Si Si3 0.862270 0.080939 0.036323
Si Si4 0.864200 0.921090 0.788678
Si Si5 0.953291 0.580343 0.658879
Si Si6 0.465052 0.580017 0.095322
O O1 0.750000 0.021472 0.388948
O O2 0.853843 0.250000 0.422669
O O3 0.930132 0.051067 0.346964
O O4 0.903067 0.005038 0.469242
O O5 0.750000 0.580096 0.530934
O O6 0.595290 0.750000 0.523399
O O7 0.597522 0.513699 0.595965
O O8 0.750000 0.032738 0.043878
O O9 0.876219 0.250000 0.053033
O O10 0.895524 0.048624 0.964542
O O11 0.927687 0.987589 0.084677
O O12 0.750000 0.955253 0.788098
O O13 0.885010 0.750000 0.796697
O O14 0.910981 0.986534 0.723782
O O15 0.914628 0.005359 0.845395
O O16 0.927544 0.750000 0.660605
O O17 0.477502 0.750000 0.108534
#
# Coordination Sequence:
#
# PCOD8243136 Si02
#       6
#     8   8   8   8   8   8
#     4   9  17  29  45  65  89 117 151 194 244 295
#     4   9  16  27  45  67  89 115 150 194 243 290
#     4   9  18  34  56  80 106 137 173 209 243 286
#     4  10  20  34  52  72  96 130 171 209 246 296
#     4   9  17  30  47  66  90 122 161 200 237 286
#     4  10  20  34  53  79 110 138 165 203 252 299
#
# _framework density 18.126730999999999
#
# number of rings (size 3 to 8) (size 9 to 14) (size 15 to 20)
#    0.000    2.667    0.000    2.000    0.000    4.000 
#    0.000    2.500    0.000    5.000    0.000    0.000 
#    0.000    0.000    0.000    0.000    0.000    0.000 
#
# Total GULP energy -595074.481516 kJ/mol
# GULP energy per Si atom -12397.385032 kJ/mol
# Density = 1.808547 g / cm^3
# Si number density = 18.126731 Si / 1000 Ang^3
#
#
#
# Elastic Constant Matrix: (Units=GPa)
#
#
# Indices 1 2 3 4 5 6 
#
# 1 122.3117 49.4354 77.3548 0.0000 0.0000 0.0000
# 2 49.4354 55.8212 52.4017 0.0000 0.0000 0.0000
# 3 77.3548 52.4017 127.4577 0.0000 0.0000 0.0000
# 4 0.0000 0.0000 0.0000 26.4586 0.0000 0.0000
# 5 0.0000 0.0000 0.0000 0.0000 31.1708 0.0000
# 6 0.0000 0.0000 0.0000 0.0000 0.0000 21.3301
#
#
#
# Elastic Compliance Matrix: (Units=1/GPa)
#
#
# Indices 1 2 3 4 5 6 
#
# 1 0.015084 -0.007759 -0.005965 0.000000 0.000000 0.000000
# 2 -0.007759 0.033165 -0.008926 0.000000 0.000000 0.000000
# 3 -0.005965 -0.008926 0.015135 0.000000 0.000000 0.000000
# 4 0.000000 0.000000 0.000000 0.037795 0.000000 0.000000
# 5 0.000000 0.000000 0.000000 0.000000 0.032081 0.000000
# 6 0.000000 0.000000 0.000000 0.000000 0.000000 0.046882
#
#
# Mechanical properties :
#
#
# Convention : Reuss Voigt Hill
#
# Bulk Modulus (GPa) = 55.29463 73.77494 64.53479
# Shear Modulus (GPa) = 21.60093 24.21850 22.90972
#
# Velocity S-wave (km/s) = 3.45579 3.65919 3.55894
# Velocity P-wave (km/s) = 6.81865 7.65773 7.25034
#
# Compressibility (1/GPa) = 0.01808494
#
# Stress axis : x y z
#
# Youngs Moduli (GPa) = 66.29434 30.15197 66.07023
#
# Poissons Ratio (x) = 0.23396 0.39408
# Poissons Ratio (y) = 0.51441 0.58974
# Poissons Ratio (z) = 0.39542 0.26914
#
# Static dielectric constant tensor:
#      x y z
#    x 3.593180 0.000000 0.000000 
#    y 0.000000 3.240890 0.000000 
#    z 0.000000 0.000000 3.324090 
# 
# 
# High freq. dielectric constant tensor:
#      x y z
#    x 1.717510 0.000000 0.000000 
#    y 0.000000 1.677980 0.000000 
#    z 0.000000 0.000000 1.689550 
# 
# From -- ./inp_files/25464.got.cif
#   From: 2010.03.12/outbox.cif.g09.slc.cpg/sg59_13_cif.got.tgz:25464.got - 2010.04.16 16:29:54.
