data_PCOD8243771
_publ_section_title
;
Structure prediction by ZEFSAII (Michael W. Deem and Ramdas Pophale) SiO2 
 PCOD8243771
Probable space group: P M M N
;
_chemical_formula_sum "Si O2"
_cell_formula_units_Z 48
_cell_length_a 8.646306
_cell_length_b 15.334772
_cell_length_c 19.539860
_cell_angle_alpha 90.000000
_cell_angle_beta 90.000000
_cell_angle_gamma 90.000000
_cell_volume 2590.773060
_symmetry_space_group_name_H-M "P M M N"
_symmetry_group_IT_number 59
_space_group.IT_coordinate_system_code '2'
_symmetry_cell_setting 'orthorhombic'
loop_
_space_group_symop_operation_xyz
x,y,z
1/2-x,1/2-y,z
1/2+x,-y,-z
-x,1/2+y,-z
-x,-y,-z
1/2+x,1/2+y,-z
1/2-x,y,z
x,1/2-y,z
loop_
_atom_site_type_symbol
_atom_site_label
_atom_site_fract_x
_atom_site_fract_y
_atom_site_fract_z
Si Si1 0.582445 0.750000 0.710165
Si Si2 0.067046 0.931726 0.552725
Si Si3 0.434744 0.063309 0.299326
Si Si4 0.079683 0.250000 0.450934
Si Si5 0.429302 0.350461 0.081967
Si Si6 0.066177 0.346082 0.927372
Si Si7 0.568260 0.500569 0.168094
O O1 0.750000 0.750000 0.746997
O O2 0.499271 0.658280 0.727720
O O3 0.604590 0.750000 0.629264
O O4 0.250000 0.935319 0.553273
O O5 0.005885 0.959182 0.627489
O O6 0.013992 0.836185 0.527740
O O7 0.000000 0.000000 0.500000
O O8 0.250000 0.066180 0.306345
O O9 0.488483 0.993744 0.242743
O O10 0.250000 0.250000 0.486232
O O11 0.250000 0.376525 0.089287
O O12 0.454292 0.250000 0.103809
O O13 0.530627 0.410038 0.131176
O O14 0.489234 0.365846 0.004586
O O15 0.250000 0.347036 0.927190
O O16 0.006772 0.250000 0.904581
O O17 0.999738 0.418968 0.876107
O O18 0.750000 0.509865 0.177999
#
# Coordination Sequence:
#
# PCOD8243771 Si02
#       7
#     4   8   8   4   8   8   8
#     4   7  14  29  49  69  95 133 170 201 242 307
#     4  11  21  36  59  86 115 147 185 228 273 323
#     4  10  20  35  53  76 107 143 181 217 263 325
#     4   9  17  33  55  83 113 145 180 215 264 323
#     4   9  18  33  52  73 100 138 178 210 257 323
#     4   8  16  33  54  72  95 134 180 221 261 317
#     4  11  21  31  49  78 107 132 170 222 273 317
#
# _framework density 18.527287999999999
#
# number of rings (size 3 to 8) (size 9 to 14) (size 15 to 20)
#    0.000    2.500    0.000    5.250    1.167    0.333 
#    0.000    1.667    1.833    4.000    0.000    0.000 
#    0.000    0.000    0.000    0.000    0.000    0.000 
#
# Total GULP energy -594926.497236 kJ/mol
# GULP energy per Si atom -12394.302026 kJ/mol
# Density = 1.848512 g / cm^3
# Si number density = 18.527288 Si / 1000 Ang^3
#
#
#
# Elastic Constant Matrix: (Units=GPa)
#
#
# Indices 1 2 3 4 5 6 
#
# 1 88.1160 35.8396 38.1040 0.0000 0.0000 0.0000
# 2 35.8396 102.9318 66.5439 0.0000 0.0000 0.0000
# 3 38.1040 66.5439 106.0924 0.0000 0.0000 0.0000
# 4 0.0000 0.0000 0.0000 29.4072 0.0000 0.0000
# 5 0.0000 0.0000 0.0000 0.0000 28.3961 0.0000
# 6 0.0000 0.0000 0.0000 0.0000 0.0000 24.1656
#
#
#
# Elastic Compliance Matrix: (Units=1/GPa)
#
#
# Indices 1 2 3 4 5 6 
#
# 1 0.013869 -0.002706 -0.003284 0.000000 0.000000 0.000000
# 2 -0.002706 0.016870 -0.009609 0.000000 0.000000 0.000000
# 3 -0.003284 -0.009609 0.016632 0.000000 0.000000 0.000000
# 4 0.000000 0.000000 0.000000 0.034005 0.000000 0.000000
# 5 0.000000 0.000000 0.000000 0.000000 0.035216 0.000000
# 6 0.000000 0.000000 0.000000 0.000000 0.000000 0.041381
#
#
# Mechanical properties :
#
#
# Convention : Reuss Voigt Hill
#
# Bulk Modulus (GPa) = 61.83187 64.23500 63.03344
# Shear Modulus (GPa) = 25.69860 26.83730 26.26795
#
# Velocity S-wave (km/s) = 3.72838 3.81008 3.76945
# Velocity P-wave (km/s) = 7.20973 7.35536 7.28291
#
# Compressibility (1/GPa) = 0.01617289
#
# Stress axis : x y z
#
# Youngs Moduli (GPa) = 72.10103 59.27843 60.12406
#
# Poissons Ratio (x) = 0.16042 0.19745
# Poissons Ratio (y) = 0.19512 0.57774
# Poissons Ratio (z) = 0.23678 0.56961
#
# Static dielectric constant tensor:
#      x y z
#    x 3.236780 0.000000 0.000000 
#    y 0.000000 3.922980 0.000000 
#    z 0.000000 0.000000 3.354930 
# 
# 
# High freq. dielectric constant tensor:
#      x y z
#    x 1.701790 0.000000 0.000000 
#    y 0.000000 1.714910 0.000000 
#    z 0.000000 0.000000 1.709100 
# 
# From -- ./inp_files/25598.got.cif
#   From: 2010.03.12/outbox.cif.g09.slc.cpg/sg59_13_cif.got.tgz:25598.got - 2010.04.16 16:29:54.
