data_PCOD8243333
_publ_section_title
;
Structure prediction by ZEFSAII (Michael W. Deem and Ramdas Pophale) SiO2 
 PCOD8243333
Probable space group: P M M N
;
_chemical_formula_sum "Si O2"
_cell_formula_units_Z 64
_cell_length_a 9.122283
_cell_length_b 13.553744
_cell_length_c 26.092851
_cell_angle_alpha 90.000000
_cell_angle_beta 90.000000
_cell_angle_gamma 90.000000
_cell_volume 3226.148499
_symmetry_space_group_name_H-M "P M M N"
_symmetry_group_IT_number 59
_space_group.IT_coordinate_system_code '2'
_symmetry_cell_setting 'orthorhombic'
loop_
_space_group_symop_operation_xyz
x,y,z
1/2-x,1/2-y,z
1/2+x,-y,-z
-x,1/2+y,-z
-x,-y,-z
1/2+x,1/2+y,-z
1/2-x,y,z
x,1/2-y,z
loop_
_atom_site_type_symbol
_atom_site_label
_atom_site_fract_x
_atom_site_fract_y
_atom_site_fract_z
Si Si1 0.913834 0.633761 0.918558
Si Si2 0.917498 0.860906 0.116684
Si Si3 0.079505 0.948719 0.629662
Si Si4 0.919769 0.049555 0.176468
Si Si5 0.084220 0.867790 0.016519
Si Si6 0.414577 0.633275 0.521918
Si Si7 0.080563 0.140731 0.577132
Si Si8 0.922745 0.864423 0.727176
O O1 0.750000 0.589320 0.912665
O O2 0.904056 0.750000 0.925233
O O3 0.010361 0.612661 0.868911
O O4 0.989812 0.587443 0.969367
O O5 0.750000 0.862359 0.097265
O O6 0.963624 0.750000 0.133138
O O7 0.017119 0.902824 0.070630
O O8 0.938675 0.932752 0.165183
O O9 0.250000 0.923032 0.640754
O O10 0.023789 0.902049 0.576448
O O11 0.978167 0.904402 0.673230
O O12 0.055258 0.067278 0.625177
O O13 0.750000 0.079226 0.181273
O O14 0.000466 0.071981 0.229094
O O15 0.250000 0.906742 0.011851
O O16 0.078704 0.750000 0.014421
O O17 0.250000 0.592953 0.515511
O O18 0.421219 0.750000 0.521055
O O19 0.507468 0.593532 0.473716
O O20 0.250000 0.148034 0.563706
O O21 0.018067 0.250000 0.591020
O O22 0.750000 0.879995 0.731094
O O23 0.965302 0.750000 0.733440
#
# Coordination Sequence:
#
# PCOD8243333 Si02
#       8
#     8   8   8   8   8   8   8   8
#     4  10  20  34  53  78 111 148 181 218 267 320
#     4   9  19  37  58  80 108 140 175 216 263 316
#     4  10  20  35  56  80 108 146 188 227 269 317
#     4  11  23  38  59  83 105 137 179 221 268 320
#     4   9  17  30  51  80 111 143 180 220 262 312
#     4   9  17  29  48  77 111 146 185 228 273 320
#     4   9  18  32  51  79 115 151 186 224 266 314
#     4  11  25  43  61  82 108 137 172 219 273 324
#
# _framework density 19.837896000000001
#
# number of rings (size 3 to 8) (size 9 to 14) (size 15 to 20)
#    0.000    2.250    0.000    2.625    0.000    7.750 
#    0.000    1.875    0.000    3.750    0.000    0.000 
#    0.000    0.000    0.000    0.000    0.000    0.000 
#
# Total GULP energy -793645.245330 kJ/mol
# GULP energy per Si atom -12400.706958 kJ/mol
# Density = 1.979274 g / cm^3
# Si number density = 19.837896 Si / 1000 Ang^3
#
#
#
# Elastic Constant Matrix: (Units=GPa)
#
#
# Indices 1 2 3 4 5 6 
#
# 1 110.8789 42.4016 65.5111 0.0000 0.0000 0.0000
# 2 42.4016 54.6480 41.3011 0.0000 0.0000 0.0000
# 3 65.5111 41.3011 105.1055 0.0000 0.0000 0.0000
# 4 0.0000 0.0000 0.0000 30.1247 0.0000 0.0000
# 5 0.0000 0.0000 0.0000 0.0000 39.0758 0.0000
# 6 0.0000 0.0000 0.0000 0.0000 0.0000 21.8360
#
#
#
# Elastic Compliance Matrix: (Units=1/GPa)
#
#
# Indices 1 2 3 4 5 6 
#
# 1 0.015918 -0.006902 -0.007209 0.000000 0.000000 0.000000
# 2 -0.006902 0.029022 -0.007102 0.000000 0.000000 0.000000
# 3 -0.007209 -0.007102 0.016798 0.000000 0.000000 0.000000
# 4 0.000000 0.000000 0.000000 0.033195 0.000000 0.000000
# 5 0.000000 0.000000 0.000000 0.000000 0.025591 0.000000
# 6 0.000000 0.000000 0.000000 0.000000 0.000000 0.045796
#
#
# Mechanical properties :
#
#
# Convention : Reuss Voigt Hill
#
# Bulk Modulus (GPa) = 51.78348 63.22891 57.50619
# Shear Modulus (GPa) = 23.23587 26.30187 24.76887
#
# Velocity S-wave (km/s) = 3.42612 3.64516 3.53733
# Velocity P-wave (km/s) = 6.46615 7.04686 6.76274
#
# Compressibility (1/GPa) = 0.01931118
#
# Stress axis : x y z
#
# Youngs Moduli (GPa) = 62.82291 34.45680 59.52956
#
# Poissons Ratio (x) = 0.23783 0.42916
# Poissons Ratio (y) = 0.43362 0.42278
# Poissons Ratio (z) = 0.45290 0.24471
#
# Static dielectric constant tensor:
#      x y z
#    x 3.764180 0.000000 0.000000 
#    y 0.000000 3.829980 0.000000 
#    z 0.000000 0.000000 3.433880 
# 
# 
# High freq. dielectric constant tensor:
#      x y z
#    x 1.775150 0.000000 0.000000 
#    y 0.000000 1.788250 0.000000 
#    z 0.000000 0.000000 1.753400 
# 
# From -- ./inp_files/31590.got.cif
#   From: 2010.03.12/outbox.cif.g09.slc.cpg/sg59_16_cif.got.tgz:31590.got - 2010.04.16 16:29:54.
