data_PCOD8243064
_publ_section_title
;
Structure prediction by ZEFSAII (Michael W. Deem and Ramdas Pophale) SiO2 
 PCOD8243064
Probable space group: P M M N
;
_chemical_formula_sum "Si O2"
_cell_formula_units_Z 64
_cell_length_a 8.945050
_cell_length_b 32.902628
_cell_length_c 11.291794
_cell_angle_alpha 90.000000
_cell_angle_beta 90.000000
_cell_angle_gamma 90.000000
_cell_volume 3323.351720
_symmetry_space_group_name_H-M "P M M N"
_symmetry_group_IT_number 59
_space_group.IT_coordinate_system_code '2'
_symmetry_cell_setting 'orthorhombic'
loop_
_space_group_symop_operation_xyz
x,y,z
1/2-x,1/2-y,z
1/2+x,-y,-z
-x,1/2+y,-z
-x,-y,-z
1/2+x,1/2+y,-z
1/2-x,y,z
x,1/2-y,z
loop_
_atom_site_type_symbol
_atom_site_label
_atom_site_fract_x
_atom_site_fract_y
_atom_site_fract_z
Si Si1 0.426497 0.600516 0.128562
Si Si2 0.422157 0.027075 0.761046
Si Si3 0.922348 0.436606 0.274986
Si Si4 0.077377 0.204029 0.255123
Si Si5 0.576125 0.626237 0.889054
Si Si6 0.419209 0.356073 0.658491
Si Si7 0.081560 0.797767 0.504928
Si Si8 0.918791 0.563551 0.483296
O O1 0.250000 0.600605 0.134620
O O2 0.482607 0.554363 0.148622
O O3 0.489905 0.630968 0.226105
O O4 0.476404 0.616235 0.001336
O O5 0.250000 0.040997 0.773497
O O6 0.472088 0.035067 0.625306
O O7 0.444565 0.979769 0.792076
O O8 0.750000 0.422804 0.266515
O O9 0.029802 0.403351 0.217762
O O10 0.965222 0.442846 0.411387
O O11 0.250000 0.202164 0.292385
O O12 0.032776 0.250000 0.215606
O O13 0.044488 0.172957 0.148127
O O14 0.985250 0.189330 0.368764
O O15 0.750000 0.619361 0.917825
O O16 0.250000 0.347241 0.698218
O O17 0.489644 0.315600 0.604535
O O18 0.426466 0.389913 0.557221
O O19 0.250000 0.814451 0.500168
O O20 0.074144 0.750000 0.489328
O O21 0.750000 0.552474 0.523827
#
# Coordination Sequence:
#
# PCOD8243064 Si02
#       8
#     8   8   8   8   8   8   8   8
#     4  11  23  39  59  80 104 139 184 232 277 323
#     4   9  20  38  56  77 109 147 184 223 270 325
#     4  11  22  34  53  82 113 144 181 226 272 323
#     4   9  19  37  60  84 110 144 184 221 264 322
#     4  11  23  39  58  79 108 145 184 229 275 324
#     4  10  20  36  57  79 107 145 184 221 268 327
#     4  10  20  33  53  85 120 147 175 219 273 323
#     4   9  18  33  53  78 108 141 179 223 272 327
#
# _framework density 19.257666
#
# number of rings (size 3 to 8) (size 9 to 14) (size 15 to 20)
#    0.000    2.000    0.000    4.500    0.000    8.750 
#    0.000    0.625    0.000    2.250    0.000    0.000 
#    0.000    0.000    0.000    0.000    0.000    0.000 
#
# Total GULP energy -793806.822732 kJ/mol
# GULP energy per Si atom -12403.231605 kJ/mol
# Density = 1.921384 g / cm^3
# Si number density = 19.257666 Si / 1000 Ang^3
#
#
#
# Elastic Constant Matrix: (Units=GPa)
#
#
# Indices 1 2 3 4 5 6 
#
# 1 113.9985 40.5211 38.7997 0.0000 0.0000 0.0000
# 2 40.5211 74.5133 41.4352 0.0000 0.0000 0.0000
# 3 38.7997 41.4352 65.8155 0.0000 0.0000 0.0000
# 4 0.0000 0.0000 0.0000 21.4235 0.0000 0.0000
# 5 0.0000 0.0000 0.0000 0.0000 34.7396 0.0000
# 6 0.0000 0.0000 0.0000 0.0000 0.0000 27.6685
#
#
#
# Elastic Compliance Matrix: (Units=1/GPa)
#
#
# Indices 1 2 3 4 5 6 
#
# 1 0.011658 -0.003874 -0.004434 0.000000 0.000000 0.000000
# 2 -0.003874 0.021937 -0.011527 0.000000 0.000000 0.000000
# 3 -0.004434 -0.011527 0.025065 0.000000 0.000000 0.000000
# 4 0.000000 0.000000 0.000000 0.046678 0.000000 0.000000
# 5 0.000000 0.000000 0.000000 0.000000 0.028786 0.000000
# 6 0.000000 0.000000 0.000000 0.000000 0.000000 0.036142
#
#
# Mechanical properties :
#
#
# Convention : Reuss Voigt Hill
#
# Bulk Modulus (GPa) = 52.65846 55.09324 53.87585
# Shear Modulus (GPa) = 23.11974 25.67107 24.39541
#
# Velocity S-wave (km/s) = 3.46865 3.65503 3.56306
# Velocity P-wave (km/s) = 6.59133 6.81784 6.70554
#
# Compressibility (1/GPa) = 0.01899030
#
# Stress axis : x y z
#
# Youngs Moduli (GPa) = 85.77652 45.58455 39.89694
#
# Poissons Ratio (x) = 0.17662 0.17688
# Poissons Ratio (y) = 0.33234 0.45989
# Poissons Ratio (z) = 0.38029 0.52545
#
# Static dielectric constant tensor:
#      x y z
#    x 3.602020 0.000000 0.000000 
#    y 0.000000 3.606900 0.000000 
#    z 0.000000 0.000000 3.311120 
# 
# 
# High freq. dielectric constant tensor:
#      x y z
#    x 1.756950 0.000000 0.000000 
#    y 0.000000 1.752060 0.000000 
#    z 0.000000 0.000000 1.734200 
# 
# From -- ./inp_files/14922.got.cif
#   From: 2010.03.12/outbox.cif.g09.slc.cpg/sg59_8_cif.got.tgz:14922.got - 2010.04.16 16:29:54.
