data_PCOD8243629
_publ_section_title
;
Structure prediction by ZEFSAII (Michael W. Deem and Ramdas Pophale) SiO2 
 PCOD8243629
Probable space group: P M M N
;
_chemical_formula_sum "Si O2"
_cell_formula_units_Z 56
_cell_length_a 14.099392
_cell_length_b 8.730115
_cell_length_c 22.053726
_cell_angle_alpha 90.000000
_cell_angle_beta 90.000000
_cell_angle_gamma 90.000000
_cell_volume 2714.577995
_symmetry_space_group_name_H-M "P M M N"
_symmetry_group_IT_number 59
_space_group.IT_coordinate_system_code '2'
_symmetry_cell_setting 'orthorhombic'
loop_
_space_group_symop_operation_xyz
x,y,z
1/2-x,1/2-y,z
1/2+x,-y,-z
-x,1/2+y,-z
-x,-y,-z
1/2+x,1/2+y,-z
1/2-x,y,z
x,1/2-y,z
loop_
_atom_site_type_symbol
_atom_site_label
_atom_site_fract_x
_atom_site_fract_y
_atom_site_fract_z
Si Si1 0.141665 0.072048 0.476791
Si Si2 0.484575 0.573579 0.935055
Si Si3 0.146913 0.423896 0.254717
Si Si4 0.644949 0.078809 0.870774
Si Si5 0.642228 0.931377 0.167458
Si Si6 0.965047 0.929989 0.289397
Si Si7 0.952088 0.072058 0.410180
O O1 0.250000 0.035496 0.454786
O O2 0.131809 0.250000 0.494359
O O3 0.062604 0.031363 0.425827
O O4 0.118293 0.971880 0.535676
O O5 0.458621 0.750000 0.942936
O O6 0.584885 0.551950 0.902738
O O7 0.403457 0.496626 0.894013
O O8 0.500000 0.500000 0.000000
O O9 0.250000 0.432873 0.287413
O O10 0.127933 0.250000 0.232758
O O11 0.146503 0.542215 0.199624
O O12 0.064456 0.480481 0.298523
O O13 0.750000 0.073897 0.898815
O O14 0.601100 0.250000 0.879246
O O15 0.750000 0.990632 0.171295
O O16 0.638444 0.750000 0.163632
O O17 0.588419 0.988228 0.228443
O O18 0.980072 0.750000 0.285969
O O19 0.913310 0.977485 0.351585
O O20 0.940934 0.250000 0.395765
#
# Coordination Sequence:
#
# PCOD8243629 Si02
#       7
#     8   8   8   8   8   8   8
#     4   9  19  38  61  83 114 158 204 250 303 360
#     4  12  25  41  64  90 120 156 198 248 303 360
#     4  10  20  34  55  84 117 153 191 236 294 354
#     4  10  20  36  59  86 116 149 188 235 289 351
#     4  10  23  44  66  88 119 160 205 253 304 358
#     4  11  22  37  60  88 123 164 203 247 301 360
#     4  10  21  36  57  88 122 156 200 252 304 357
#
# _framework density 20.629358
#
# number of rings (size 3 to 8) (size 9 to 14) (size 15 to 20)
#    0.000    1.714    1.429    3.000    0.000    5.143 
#    0.000    2.857    0.000    0.000    0.000    0.000 
#    0.000    0.000    0.000    0.000    0.000    0.000 
#
# Total GULP energy -694137.693537 kJ/mol
# GULP energy per Si atom -12395.315956 kJ/mol
# Density = 2.058240 g / cm^3
# Si number density = 20.629358 Si / 1000 Ang^3
#
#
#
# Elastic Constant Matrix: (Units=GPa)
#
#
# Indices 1 2 3 4 5 6 
#
# 1 102.0683 32.6839 33.1301 0.0000 0.0000 0.0000
# 2 32.6839 69.8459 33.3680 0.0000 0.0000 0.0000
# 3 33.1301 33.3680 111.6925 0.0000 0.0000 0.0000
# 4 0.0000 0.0000 0.0000 35.6459 0.0000 0.0000
# 5 0.0000 0.0000 0.0000 0.0000 12.7636 0.0000
# 6 0.0000 0.0000 0.0000 0.0000 0.0000 29.0704
#
#
#
# Elastic Compliance Matrix: (Units=1/GPa)
#
#
# Indices 1 2 3 4 5 6 
#
# 1 0.011966 -0.004554 -0.002189 0.000000 0.000000 0.000000
# 2 -0.004554 0.018434 -0.004156 0.000000 0.000000 0.000000
# 3 -0.002189 -0.004156 0.010844 0.000000 0.000000 0.000000
# 4 0.000000 0.000000 0.000000 0.028054 0.000000 0.000000
# 5 0.000000 0.000000 0.000000 0.000000 0.078348 0.000000
# 6 0.000000 0.000000 0.000000 0.000000 0.000000 0.034399
#
#
# Mechanical properties :
#
#
# Convention : Reuss Voigt Hill
#
# Bulk Modulus (GPa) = 51.42457 53.55231 52.48844
# Shear Modulus (GPa) = 23.77279 27.79097 25.78188
#
# Velocity S-wave (km/s) = 3.39835 3.67434 3.53904
# Velocity P-wave (km/s) = 6.35455 6.63451 6.49604
#
# Compressibility (1/GPa) = 0.01944596
#
# Stress axis : x y z
#
# Youngs Moduli (GPa) = 83.57002 54.24841 92.21564
#
# Poissons Ratio (x) = 0.24703 0.20186
# Poissons Ratio (y) = 0.38055 0.38328
# Poissons Ratio (z) = 0.18293 0.22548
#
# Static dielectric constant tensor:
#      x y z
#    x 4.755810 0.000000 0.000000 
#    y 0.000000 3.666930 0.000000 
#    z 0.000000 0.000000 -1.004100 
# 
# 
# High freq. dielectric constant tensor:
#      x y z
#    x 1.807340 0.000000 0.000000 
#    y 0.000000 1.808240 0.000000 
#    z 0.000000 0.000000 1.799490 
# 
# From -- ./inp_files/30367.got.cif
#   From: 2010.03.12/outbox.cif.g09.slc.cpg/sg59_16_cif.got.tgz:30367.got - 2010.04.16 16:29:54.
