data_PCOD8243083
_publ_section_title
;
Structure prediction by ZEFSAII (Michael W. Deem and Ramdas Pophale) SiO2 
 PCOD8243083
Probable space group: P M M N
;
_chemical_formula_sum "Si O2"
_cell_formula_units_Z 64
_cell_length_a 8.990623
_cell_length_b 15.441412
_cell_length_c 23.852220
_cell_angle_alpha 90.000000
_cell_angle_beta 90.000000
_cell_angle_gamma 90.000000
_cell_volume 3311.353944
_symmetry_space_group_name_H-M "P M M N"
_symmetry_group_IT_number 59
_space_group.IT_coordinate_system_code '2'
_symmetry_cell_setting 'orthorhombic'
loop_
_space_group_symop_operation_xyz
x,y,z
1/2-x,1/2-y,z
1/2+x,-y,-z
-x,1/2+y,-z
-x,-y,-z
1/2+x,1/2+y,-z
1/2-x,y,z
x,1/2-y,z
loop_
_atom_site_type_symbol
_atom_site_label
_atom_site_fract_x
_atom_site_fract_y
_atom_site_fract_z
Si Si1 0.573166 0.845703 0.940277
Si Si2 0.077477 0.086706 0.562252
Si Si3 0.920750 0.345632 0.664162
Si Si4 0.574174 0.994293 0.738575
Si Si5 0.922138 0.905164 0.563453
Si Si6 0.573293 0.002534 0.865384
Si Si7 0.577747 0.650252 0.066935
Si Si8 0.419949 0.653092 0.668267
O O1 0.750000 0.844683 0.938657
O O2 0.514492 0.750000 0.922059
O O3 0.509011 0.919256 0.898976
O O4 0.521023 0.866324 0.003540
O O5 0.250000 0.062746 0.570950
O O6 0.052504 0.126869 0.500342
O O7 0.022398 0.154428 0.608506
O O8 0.977158 0.002702 0.570898
O O9 0.750000 0.363705 0.647302
O O10 0.937408 0.250000 0.691376
O O11 0.977515 0.417201 0.708311
O O12 0.750000 0.984776 0.737388
O O13 0.514170 0.996525 0.801955
O O14 0.507749 0.911258 0.708224
O O15 0.750000 0.901551 0.580352
O O16 0.013124 0.844832 0.605586
O O17 0.750000 0.003624 0.867537
O O18 0.516611 0.091455 0.891579
O O19 0.750000 0.625258 0.072538
O O20 0.551551 0.750000 0.083708
O O21 0.250000 0.622522 0.664989
O O22 0.433387 0.750000 0.692932
#
# Coordination Sequence:
#
# PCOD8243083 Si02
#       8
#     8   8   8   8   8   8   8   8
#     4   8  15  30  52  79 112 146 180 222 273 328
#     4  10  20  34  56  85 113 141 177 224 277 333
#     4  10  21  37  56  77 106 146 187 228 278 333
#     4  10  22  39  57  80 110 146 188 231 277 327
#     4  10  20  35  57  84 113 143 176 220 277 336
#     4  10  20  33  55  84 109 139 184 234 277 319
#     4   9  18  33  53  78 111 150 185 218 267 330
#     4  11  24  40  59  83 111 145 185 229 277 328
#
# _framework density 19.327439999999999
#
# number of rings (size 3 to 8) (size 9 to 14) (size 15 to 20)
#    0.000    2.250    1.250    2.250    0.000    5.000 
#    0.000    5.000    0.000    1.125    0.000    0.000 
#    0.000    0.000    0.000    0.000    0.000    0.000 
#
# Total GULP energy -793575.740787 kJ/mol
# GULP energy per Si atom -12399.620950 kJ/mol
# Density = 1.928345 g / cm^3
# Si number density = 19.327440 Si / 1000 Ang^3
#
#
#
# Elastic Constant Matrix: (Units=GPa)
#
#
# Indices 1 2 3 4 5 6 
#
# 1 27.7809 21.0916 30.8808 0.0000 0.0000 0.0000
# 2 21.0916 113.9063 68.4342 0.0000 0.0000 0.0000
# 3 30.8808 68.4342 135.7234 0.0000 0.0000 0.0000
# 4 0.0000 0.0000 0.0000 12.9338 0.0000 0.0000
# 5 0.0000 0.0000 0.0000 0.0000 22.3466 0.0000
# 6 0.0000 0.0000 0.0000 0.0000 0.0000 28.0743
#
#
#
# Elastic Compliance Matrix: (Units=1/GPa)
#
#
# Indices 1 2 3 4 5 6 
#
# 1 0.049090 -0.003413 -0.009448 0.000000 0.000000 0.000000
# 2 -0.003413 0.012832 -0.005693 0.000000 0.000000 0.000000
# 3 -0.009448 -0.005693 0.012388 0.000000 0.000000 0.000000
# 4 0.000000 0.000000 0.000000 0.077317 0.000000 0.000000
# 5 0.000000 0.000000 0.000000 0.000000 0.044750 0.000000
# 6 0.000000 0.000000 0.000000 0.000000 0.000000 0.035620
#
#
# Mechanical properties :
#
#
# Convention : Reuss Voigt Hill
#
# Bulk Modulus (GPa) = 26.88160 57.58041 42.23100
# Shear Modulus (GPa) = 17.76158 23.13786 20.44972
#
# Velocity S-wave (km/s) = 3.03476 3.46374 3.25632
# Velocity P-wave (km/s) = 5.12039 6.77151 6.00299
#
# Compressibility (1/GPa) = 0.03720017
#
# Stress axis : x y z
#
# Youngs Moduli (GPa) = 20.37073 77.93190 80.72097
#
# Poissons Ratio (x) = 0.26601 0.76267
# Poissons Ratio (y) = 0.06953 0.45957
# Poissons Ratio (z) = 0.19247 0.44369
#
# Static dielectric constant tensor:
#      x y z
#    x 3.330970 0.000000 0.000000 
#    y 0.000000 3.546490 0.000000 
#    z 0.000000 0.000000 3.671370 
# 
# 
# High freq. dielectric constant tensor:
#      x y z
#    x 1.735500 0.000000 0.000000 
#    y 0.000000 1.755640 0.000000 
#    z 0.000000 0.000000 1.748590 
# 
# From -- ./inp_files/31579.got.cif
#   From: 2010.03.12/outbox.cif.g09.slc.cpg/sg59_16_cif.got.tgz:31579.got - 2010.04.16 16:29:54.
