data_PCOD8243644
_publ_section_title
;
Structure prediction by ZEFSAII (Michael W. Deem and Ramdas Pophale) SiO2 
 PCOD8243644
Probable space group: P M M N
;
_chemical_formula_sum "Si O2"
_cell_formula_units_Z 56
_cell_length_a 14.143992
_cell_length_b 8.978699
_cell_length_c 22.899206
_cell_angle_alpha 90.000000
_cell_angle_beta 90.000000
_cell_angle_gamma 90.000000
_cell_volume 2908.076579
_symmetry_space_group_name_H-M "P M M N"
_symmetry_group_IT_number 59
_space_group.IT_coordinate_system_code '2'
_symmetry_cell_setting 'orthorhombic'
loop_
_space_group_symop_operation_xyz
x,y,z
1/2-x,1/2-y,z
1/2+x,-y,-z
-x,1/2+y,-z
-x,-y,-z
1/2+x,1/2+y,-z
1/2-x,y,z
x,1/2-y,z
loop_
_atom_site_type_symbol
_atom_site_label
_atom_site_fract_x
_atom_site_fract_y
_atom_site_fract_z
Si Si1 0.402186 0.073807 0.517223
Si Si2 0.359395 0.924697 0.966812
Si Si3 0.860175 0.573971 0.807685
Si Si4 0.645572 0.081431 0.364847
Si Si5 0.534350 0.424753 0.914546
Si Si6 0.351610 0.584038 0.409178
Si Si7 0.457870 0.420839 0.309872
O O1 0.405771 0.250000 0.512567
O O2 0.500000 0.000000 0.500000
O O3 0.370098 0.030685 0.581904
O O4 0.332602 0.007914 0.468468
O O5 0.250000 0.979623 0.960950
O O6 0.365481 0.750000 0.954153
O O7 0.428724 0.007222 0.921165
O O8 0.397957 0.963548 0.031056
O O9 0.750000 0.528340 0.806186
O O10 0.872425 0.750000 0.815326
O O11 0.913327 0.493280 0.859598
O O12 0.911322 0.515152 0.748884
O O13 0.750000 0.054480 0.338503
O O14 0.634681 0.250000 0.389059
O O15 0.571685 0.057611 0.311328
O O16 0.522570 0.250000 0.905894
O O17 0.250000 0.592656 0.377319
O O18 0.390150 0.750000 0.423345
O O19 0.424962 0.506254 0.367003
O O20 0.426813 0.250000 0.316188
#
# Coordination Sequence:
#
# PCOD8243644 Si02
#       7
#     8   8   8   8   8   8   8
#     4  12  23  36  56  81 109 141 177 220 275 336
#     4   9  18  34  56  83 117 156 196 237 282 336
#     4  10  21  37  57  82 113 150 193 236 279 332
#     4  10  21  38  59  82 108 140 180 227 279 334
#     4  10  20  34  55  85 119 153 192 237 287 340
#     4  11  23  37  55  81 111 141 175 220 275 333
#     4  10  21  38  59  80 107 145 187 231 273 321
#
# _framework density 19.256713999999999
#
# number of rings (size 3 to 8) (size 9 to 14) (size 15 to 20)
#    0.000    1.714    1.429    3.429    0.000    6.000 
#    0.000    0.714    0.000    2.571    0.000    0.000 
#    0.000    0.000    0.000    0.000    0.000    0.000 
#
# Total GULP energy -694184.774366 kJ/mol
# GULP energy per Si atom -12396.156685 kJ/mol
# Density = 1.921288 g / cm^3
# Si number density = 19.256714 Si / 1000 Ang^3
#
#
#
# Elastic Constant Matrix: (Units=GPa)
#
#
# Indices 1 2 3 4 5 6 
#
# 1 167.0059 47.1250 65.4766 0.0000 0.0000 0.0000
# 2 47.1250 89.4886 44.3608 0.0000 0.0000 0.0000
# 3 65.4766 44.3608 106.1999 0.0000 0.0000 0.0000
# 4 0.0000 0.0000 0.0000 28.8340 0.0000 0.0000
# 5 0.0000 0.0000 0.0000 0.0000 29.8731 0.0000
# 6 0.0000 0.0000 0.0000 0.0000 0.0000 23.5035
#
#
#
# Elastic Compliance Matrix: (Units=1/GPa)
#
#
# Indices 1 2 3 4 5 6 
#
# 1 0.008256 -0.002301 -0.004129 0.000000 0.000000 0.000000
# 2 -0.002301 0.014734 -0.004736 0.000000 0.000000 0.000000
# 3 -0.004129 -0.004736 0.013940 0.000000 0.000000 0.000000
# 4 0.000000 0.000000 0.000000 0.034681 0.000000 0.000000
# 5 0.000000 0.000000 0.000000 0.000000 0.033475 0.000000
# 6 0.000000 0.000000 0.000000 0.000000 0.000000 0.042547
#
#
# Mechanical properties :
#
#
# Convention : Reuss Voigt Hill
#
# Bulk Modulus (GPa) = 68.50061 75.17989 71.84025
# Shear Modulus (GPa) = 28.59910 30.15759 29.37835
#
# Velocity S-wave (km/s) = 3.85794 3.96167 3.91015
# Velocity P-wave (km/s) = 7.44947 7.74933 7.60087
#
# Compressibility (1/GPa) = 0.01459841
#
# Stress axis : x y z
#
# Youngs Moduli (GPa) = 121.12612 67.87073 71.73496
#
# Poissons Ratio (x) = 0.15615 0.29620
# Poissons Ratio (y) = 0.27868 0.33974
# Poissons Ratio (z) = 0.50013 0.32144
#
# Static dielectric constant tensor:
#      x y z
#    x 3.902170 0.000000 0.000000 
#    y 0.000000 3.571290 0.000000 
#    z 0.000000 0.000000 2.934590 
# 
# 
# High freq. dielectric constant tensor:
#      x y z
#    x 1.769930 0.000000 0.000000 
#    y 0.000000 1.748540 0.000000 
#    z 0.000000 0.000000 1.723180 
# 
# From -- ./inp_files/30326.got.cif
#   From: 2010.03.12/outbox.cif.g09.slc.cpg/sg59_16_cif.got.tgz:30326.got - 2010.04.16 16:29:54.
