data_PCOD8243577
_publ_section_title
;
Structure prediction by ZEFSAII (Michael W. Deem and Ramdas Pophale) SiO2 
 PCOD8243577
Probable space group: P M M N
;
_chemical_formula_sum "Si O2"
_cell_formula_units_Z 64
_cell_length_a 9.048941
_cell_length_b 14.144656
_cell_length_c 25.467563
_cell_angle_alpha 90.000000
_cell_angle_beta 90.000000
_cell_angle_gamma 90.000000
_cell_volume 3259.699273
_symmetry_space_group_name_H-M "P M M N"
_symmetry_group_IT_number 59
_space_group.IT_coordinate_system_code '2'
_symmetry_cell_setting 'orthorhombic'
loop_
_space_group_symop_operation_xyz
x,y,z
1/2-x,1/2-y,z
1/2+x,-y,-z
-x,1/2+y,-z
-x,-y,-z
1/2+x,1/2+y,-z
1/2-x,y,z
x,1/2-y,z
loop_
_atom_site_type_symbol
_atom_site_label
_atom_site_fract_x
_atom_site_fract_y
_atom_site_fract_z
Si Si1 0.080099 0.090665 0.978514
Si Si2 0.423482 0.141988 0.364441
Si Si3 0.913397 0.138008 0.467650
Si Si4 0.420132 0.349721 0.089981
Si Si5 0.574068 0.054639 0.879114
Si Si6 0.576842 0.970601 0.324973
Si Si7 0.077615 0.859753 0.416162
Si Si8 0.578409 0.860344 0.220350
O O1 0.250000 0.070441 0.964310
O O2 0.996468 0.121262 0.924840
O O3 0.065818 0.163105 0.026700
O O4 0.000000 0.000000 0.000000
O O5 0.250000 0.130455 0.359588
O O6 0.473354 0.250000 0.353727
O O7 0.471176 0.107792 0.422779
O O8 0.500858 0.074131 0.321788
O O9 0.750000 0.099193 0.452759
O O10 0.904832 0.250000 0.472328
O O11 0.962139 0.101361 0.525342
O O12 0.250000 0.354576 0.106163
O O13 0.488104 0.250000 0.112806
O O14 0.489767 0.446669 0.113236
O O15 0.750000 0.058588 0.884192
O O16 0.523841 0.093898 0.823664
O O17 0.750000 0.985700 0.328480
O O18 0.522372 0.916649 0.376192
O O19 0.532328 0.910424 0.274225
O O20 0.250000 0.877035 0.404006
O O21 0.037164 0.750000 0.410437
O O22 0.750000 0.877030 0.206639
O O23 0.542226 0.750000 0.225846
#
# Coordination Sequence:
#
# PCOD8243577 Si02
#       8
#     8   8   8   8   8   8   8   8
#     4   9  16  28  49  76 109 149 189 227 266 312
#     4  10  21  37  57  81 109 141 178 220 267 322
#     4   8  15  30  52  78 109 144 179 215 260 317
#     4   8  15  29  50  78 112 148 182 214 255 311
#     4  10  20  34  55  82 110 143 184 230 278 325
#     4  11  23  38  58  81 105 138 181 228 277 330
#     4   9  18  33  54  81 113 146 179 220 271 324
#     4  10  23  43  62  79 103 137 177 222 273 328
#
# _framework density 19.633714999999999
#
# number of rings (size 3 to 8) (size 9 to 14) (size 15 to 20)
#    0.000    2.625    0.000    3.375    0.000    4.250 
#    0.000    3.125    0.000   15.375    0.000    0.000 
#    0.000    0.000    0.000    0.000    0.000    0.000 
#
# Total GULP energy -793065.916541 kJ/mol
# GULP energy per Si atom -12391.654946 kJ/mol
# Density = 1.958903 g / cm^3
# Si number density = 19.633715 Si / 1000 Ang^3
#
#
#
# Elastic Constant Matrix: (Units=GPa)
#
#
# Indices 1 2 3 4 5 6 
#
# 1 81.3932 43.7246 47.3573 0.0000 0.0000 0.0000
# 2 43.7246 102.3926 56.8284 0.0000 0.0000 0.0000
# 3 47.3573 56.8284 101.8940 0.0000 0.0000 0.0000
# 4 0.0000 0.0000 0.0000 12.8903 0.0000 0.0000
# 5 0.0000 0.0000 0.0000 0.0000 34.4391 0.0000
# 6 0.0000 0.0000 0.0000 0.0000 0.0000 24.9534
#
#
#
# Elastic Compliance Matrix: (Units=1/GPa)
#
#
# Indices 1 2 3 4 5 6 
#
# 1 0.018135 -0.004441 -0.005952 0.000000 0.000000 0.000000
# 2 -0.004441 0.015232 -0.006431 0.000000 0.000000 0.000000
# 3 -0.005952 -0.006431 0.016167 0.000000 0.000000 0.000000
# 4 0.000000 0.000000 0.000000 0.077578 0.000000 0.000000
# 5 0.000000 0.000000 0.000000 0.000000 0.029037 0.000000
# 6 0.000000 0.000000 0.000000 0.000000 0.000000 0.040075
#
#
# Mechanical properties :
#
#
# Convention : Reuss Voigt Hill
#
# Bulk Modulus (GPa) = 62.94749 64.61114 63.77932
# Shear Modulus (GPa) = 21.26158 23.64120 22.45139
#
# Velocity S-wave (km/s) = 3.29433 3.47380 3.38525
# Velocity P-wave (km/s) = 6.82647 7.00495 6.91629
#
# Compressibility (1/GPa) = 0.01588626
#
# Stress axis : x y z
#
# Youngs Moduli (GPa) = 55.14348 65.65102 61.85383
#
# Poissons Ratio (x) = 0.29154 0.36813
# Poissons Ratio (y) = 0.24488 0.39780
# Poissons Ratio (z) = 0.32820 0.42222
#
# Static dielectric constant tensor:
#      x y z
#    x 3.514200 0.000000 0.000000 
#    y 0.000000 3.932020 0.000000 
#    z 0.000000 0.000000 3.721030 
# 
# 
# High freq. dielectric constant tensor:
#      x y z
#    x 1.753820 0.000000 0.000000 
#    y 0.000000 1.769320 0.000000 
#    z 0.000000 0.000000 1.749970 
# 
# From -- ./inp_files/31636.got.cif
#   From: 2010.03.12/outbox.cif.g09.slc.cpg/sg59_16_cif.got.tgz:31636.got - 2010.04.16 16:29:54.
