data_PCOD8243077
_publ_section_title
;
Structure prediction by ZEFSAII (Michael W. Deem and Ramdas Pophale) SiO2 
 PCOD8243077
Probable space group: P M M N
;
_chemical_formula_sum "Si O2"
_cell_formula_units_Z 48
_cell_length_a 15.705454
_cell_length_b 9.403444
_cell_length_c 17.191334
_cell_angle_alpha 90.000000
_cell_angle_beta 90.000000
_cell_angle_gamma 90.000000
_cell_volume 2538.908302
_symmetry_space_group_name_H-M "P M M N"
_symmetry_group_IT_number 59
_space_group.IT_coordinate_system_code '2'
_symmetry_cell_setting 'orthorhombic'
loop_
_space_group_symop_operation_xyz
x,y,z
1/2-x,1/2-y,z
1/2+x,-y,-z
-x,1/2+y,-z
-x,-y,-z
1/2+x,1/2+y,-z
1/2-x,y,z
x,1/2-y,z
loop_
_atom_site_type_symbol
_atom_site_label
_atom_site_fract_x
_atom_site_fract_y
_atom_site_fract_z
Si Si1 0.750000 0.082501 0.272867
Si Si2 0.417619 0.083977 0.473132
Si Si3 0.577765 0.416356 0.826139
Si Si4 0.916768 0.089238 0.994432
Si Si5 0.250000 0.418166 0.566520
Si Si6 0.402786 0.584840 0.837525
Si Si7 0.652859 0.590145 0.691340
O O1 0.750000 0.250000 0.290107
O O2 0.667614 0.036552 0.223768
O O3 0.750000 0.996839 0.351848
O O4 0.433491 0.250000 0.487209
O O5 0.334161 0.033419 0.520034
O O6 0.405407 0.050412 0.382084
O O7 0.500000 0.000000 0.500000
O O8 0.565479 0.250000 0.809324
O O9 0.625776 0.443383 0.910035
O O10 0.485789 0.490281 0.823428
O O11 0.638035 0.481160 0.760895
O O12 0.948441 0.250000 0.992833
O O13 0.863694 0.061763 0.074218
O O14 0.000000 0.000000 0.000000
O O15 0.250000 0.250000 0.580103
O O16 0.427126 0.750000 0.825434
O O17 0.750000 0.579683 0.663341
O O18 0.631994 0.750000 0.720000
#
# Coordination Sequence:
#
# PCOD8243077 Si02
#       7
#     4   8   8   8   4   8   8
#     4  10  22  36  54  81 110 144 188 229 268 322
#     4  10  22  41  64  87 111 147 187 227 279 340
#     4  10  20  33  54  85 113 142 183 230 279 326
#     4   8  15  30  51  75 104 142 182 224 271 320
#     4  10  22  42  62  83 116 148 180 229 288 340
#     4   9  18  35  55  77 108 149 191 228 269 325
#     4  10  21  40  61  80 110 149 185 222 271 333
#
# _framework density 18.905764000000001
#
# number of rings (size 3 to 8) (size 9 to 14) (size 15 to 20)
#    0.000    2.500    0.833    0.500    2.333    3.000 
#    1.500    0.000    0.000    0.000    0.000    0.000 
#    0.000    0.000    0.000    0.000    0.000    0.000 
#
# Total GULP energy -594778.718612 kJ/mol
# GULP energy per Si atom -12391.223304 kJ/mol
# Density = 1.886273 g / cm^3
# Si number density = 18.905764 Si / 1000 Ang^3
#
#
#
# Elastic Constant Matrix: (Units=GPa)
#
#
# Indices 1 2 3 4 5 6 
#
# 1 84.4993 34.9083 48.2760 0.0000 0.0000 0.0000
# 2 34.9083 66.2838 55.6640 0.0000 0.0000 0.0000
# 3 48.2760 55.6640 137.1891 0.0000 0.0000 0.0000
# 4 0.0000 0.0000 0.0000 35.1237 0.0000 0.0000
# 5 0.0000 0.0000 0.0000 0.0000 26.5151 0.0000
# 6 0.0000 0.0000 0.0000 0.0000 0.0000 27.8443
#
#
#
# Elastic Compliance Matrix: (Units=1/GPa)
#
#
# Indices 1 2 3 4 5 6 
#
# 1 0.016093 -0.005642 -0.003374 0.000000 0.000000 0.000000
# 2 -0.005642 0.024862 -0.008102 0.000000 0.000000 0.000000
# 3 -0.003374 -0.008102 0.011764 0.000000 0.000000 0.000000
# 4 0.000000 0.000000 0.000000 0.028471 0.000000 0.000000
# 5 0.000000 0.000000 0.000000 0.000000 0.037714 0.000000
# 6 0.000000 0.000000 0.000000 0.000000 0.000000 0.035914
#
#
# Mechanical properties :
#
#
# Convention : Reuss Voigt Hill
#
# Bulk Modulus (GPa) = 54.10478 62.85209 58.47843
# Shear Modulus (GPa) = 25.61277 27.83821 26.72549
#
# Velocity S-wave (km/s) = 3.68470 3.84144 3.76389
# Velocity P-wave (km/s) = 6.83981 7.27961 7.06313
#
# Compressibility (1/GPa) = 0.01848266
#
# Stress axis : x y z
#
# Youngs Moduli (GPa) = 62.13999 40.22159 85.00585
#
# Poissons Ratio (x) = 0.22693 0.28678
# Poissons Ratio (y) = 0.35060 0.68875
# Poissons Ratio (z) = 0.20964 0.32589
#
# Static dielectric constant tensor:
#      x y z
#    x 3.138590 0.000000 0.000000 
#    y 0.000000 3.385910 0.000000 
#    z 0.000000 0.000000 3.950630 
# 
# 
# High freq. dielectric constant tensor:
#      x y z
#    x 1.712180 0.000000 0.000000 
#    y 0.000000 1.731180 0.000000 
#    z 0.000000 0.000000 1.757090 
# 
# From -- ./inp_files/23750.got.cif
#   From: 2010.03.12/outbox.cif.g09.slc.cpg/sg59_12_cif.got.tgz:23750.got - 2010.04.16 16:29:54.
