data_PCOD8243695
_publ_section_title
;
Structure prediction by ZEFSAII (Michael W. Deem and Ramdas Pophale) SiO2 
 PCOD8243695
Probable space group: P M M N
;
_chemical_formula_sum "Si O2"
_cell_formula_units_Z 48
_cell_length_a 14.158328
_cell_length_b 19.274830
_cell_length_c 9.370133
_cell_angle_alpha 90.000000
_cell_angle_beta 90.000000
_cell_angle_gamma 90.000000
_cell_volume 2557.103348
_symmetry_space_group_name_H-M "P M M N"
_symmetry_group_IT_number 59
_space_group.IT_coordinate_system_code '2'
_symmetry_cell_setting 'orthorhombic'
loop_
_space_group_symop_operation_xyz
x,y,z
1/2-x,1/2-y,z
1/2+x,-y,-z
-x,1/2+y,-z
-x,-y,-z
1/2+x,1/2+y,-z
1/2-x,y,z
x,1/2-y,z
loop_
_atom_site_type_symbol
_atom_site_label
_atom_site_fract_x
_atom_site_fract_y
_atom_site_fract_z
Si Si1 0.250000 0.958797 0.525739
Si Si2 0.558669 0.672520 0.382157
Si Si3 0.548631 0.441594 0.098517
Si Si4 0.038796 0.933104 0.581735
Si Si5 0.250000 0.099803 0.690633
Si Si6 0.077782 0.829445 0.118930
Si Si7 0.750000 0.425090 0.795758
Si Si8 0.250000 0.997881 0.926990
O O1 0.152648 0.922419 0.576354
O O2 0.250000 0.960758 0.355903
O O3 0.250000 0.035852 0.583816
O O4 0.568273 0.750000 0.439289
O O5 0.508135 0.633165 0.510434
O O6 0.660202 0.644777 0.342817
O O7 0.502441 0.668921 0.235854
O O8 0.501622 0.438819 0.254975
O O9 0.657916 0.458337 0.129657
O O10 0.500000 0.500000 0.000000
O O11 0.538973 0.366256 0.024509
O O12 0.000000 0.000000 0.500000
O O13 0.250000 0.074864 0.857656
O O14 0.108876 0.750000 0.084904
O O15 0.161686 0.875382 0.181232
O O16 0.750000 0.492324 0.901047
#
# Coordination Sequence:
#
# PCOD8243695 Si02
#       8
#     4   8   8   8   4   8   4   4
#     4  12  22  36  63  92 118 155 194 254 309 355
#     4  11  24  40  60  86 121 166 206 249 304 365
#     4  11  22  36  59  88 118 155 198 254 300 352
#     4  12  22  39  61  90 125 155 205 257 303 362
#     4  12  21  40  60  86 119 156 207 252 300 363
#     4  10  21  38  58  83 119 161 198 240 301 364
#     4  10  21  34  59  91 121 147 195 244 311 361
#     4  10  20  34  56  85 116 146 192 246 298 355
#
# _framework density 18.771239000000001
#
# number of rings (size 3 to 8) (size 9 to 14) (size 15 to 20)
#    0.000    1.000    5.000    2.500    2.333    0.667 
#    0.000    0.417    0.000    2.000    0.000    3.500 
#    0.000    0.000    0.000    0.000    0.000    0.000 
#
# Total GULP energy -595010.927671 kJ/mol
# GULP energy per Si atom -12396.060993 kJ/mol
# Density = 1.872851 g / cm^3
# Si number density = 18.771239 Si / 1000 Ang^3
#
#
#
# Elastic Constant Matrix: (Units=GPa)
#
#
# Indices 1 2 3 4 5 6 
#
# 1 112.5255 60.7125 38.7761 0.0000 0.0000 0.0000
# 2 60.7125 133.7320 65.3590 0.0000 0.0000 0.0000
# 3 38.7761 65.3590 149.3951 0.0000 0.0000 0.0000
# 4 0.0000 0.0000 0.0000 33.8395 0.0000 0.0000
# 5 0.0000 0.0000 0.0000 0.0000 23.8961 0.0000
# 6 0.0000 0.0000 0.0000 0.0000 0.0000 33.0319
#
#
#
# Elastic Compliance Matrix: (Units=1/GPa)
#
#
# Indices 1 2 3 4 5 6 
#
# 1 0.011868 -0.004939 -0.000920 0.000000 0.000000 0.000000
# 2 -0.004939 0.011566 -0.003778 0.000000 0.000000 0.000000
# 3 -0.000920 -0.003778 0.008585 0.000000 0.000000 0.000000
# 4 0.000000 0.000000 0.000000 0.029551 0.000000 0.000000
# 5 0.000000 0.000000 0.000000 0.000000 0.041848 0.000000
# 6 0.000000 0.000000 0.000000 0.000000 0.000000 0.030274
#
#
# Mechanical properties :
#
#
# Convention : Reuss Voigt Hill
#
# Bulk Modulus (GPa) = 78.45259 80.59420 79.52339
# Shear Modulus (GPa) = 31.80349 33.54048 32.67198
#
# Velocity S-wave (km/s) = 4.12061 4.23164 4.17650
# Velocity P-wave (km/s) = 8.03269 8.17948 8.10641
#
# Compressibility (1/GPa) = 0.01274655
#
# Stress axis : x y z
#
# Youngs Moduli (GPa) = 84.25713 86.45851 116.47653
#
# Poissons Ratio (x) = 0.42698 0.10715
# Poissons Ratio (y) = 0.41610 0.44009
# Poissons Ratio (z) = 0.07751 0.32667
#
# Static dielectric constant tensor:
#      x y z
#    x 3.629210 0.000000 0.000000 
#    y 0.000000 3.556680 0.000000 
#    z 0.000000 0.000000 3.659350 
# 
# 
# High freq. dielectric constant tensor:
#      x y z
#    x 1.742660 0.000000 0.000000 
#    y 0.000000 1.715330 0.000000 
#    z 0.000000 0.000000 1.738670 
# 
# From -- ./inp_files/9091.got.cif
#   From: 2010.03.12/outbox.cif.g09.slc.cpg/sg59_5_cif.got.tgz:9091.got - 2010.04.16 16:29:54.
