data_PCOD8243095
_publ_section_title
;
Structure prediction by ZEFSAII (Michael W. Deem and Ramdas Pophale) SiO2 
 PCOD8243095
Probable space group: P M M N
;
_chemical_formula_sum "Si O2"
_cell_formula_units_Z 48
_cell_length_a 23.783002
_cell_length_b 9.400467
_cell_length_c 11.410240
_cell_angle_alpha 90.000000
_cell_angle_beta 90.000000
_cell_angle_gamma 90.000000
_cell_volume 2551.002481
_symmetry_space_group_name_H-M "P M M N"
_symmetry_group_IT_number 59
_space_group.IT_coordinate_system_code '2'
_symmetry_cell_setting 'orthorhombic'
loop_
_space_group_symop_operation_xyz
x,y,z
1/2-x,1/2-y,z
1/2+x,-y,-z
-x,1/2+y,-z
-x,-y,-z
1/2+x,1/2+y,-z
1/2-x,y,z
x,1/2-y,z
loop_
_atom_site_type_symbol
_atom_site_label
_atom_site_fract_x
_atom_site_fract_y
_atom_site_fract_z
Si Si1 0.091781 0.413510 0.806286
Si Si2 0.413093 0.917461 0.039915
Si Si3 0.184786 0.416931 0.626852
Si Si4 0.310543 0.582382 0.186300
Si Si5 0.126711 0.582066 0.418204
Si Si6 0.473793 0.585160 0.269314
O O1 0.090715 0.250000 0.845784
O O2 0.151738 0.451728 0.747896
O O3 0.040436 0.441945 0.713260
O O4 0.076652 0.506313 0.917936
O O5 0.419971 0.750000 0.018818
O O6 0.350533 0.962223 0.079963
O O7 0.454936 0.975652 0.141641
O O8 0.250000 0.467442 0.636871
O O9 0.181794 0.250000 0.599020
O O10 0.150153 0.499601 0.529215
O O11 0.250000 0.509482 0.165840
O O12 0.305056 0.750000 0.188402
O O13 0.333667 0.534688 0.311711
O O14 0.128819 0.750000 0.446208
O O15 0.063489 0.528846 0.379717
O O16 0.457266 0.750000 0.262254
#
# Coordination Sequence:
#
# PCOD8243095 Si02
#       6
#     8   8   8   8   8   8
#     4  10  20  34  50  67  96 137 166 188 233 293
#     4   9  17  30  49  73  98 122 155 201 241 277
#     4  10  22  37  49  66  98 136 167 196 234 281
#     4   8  14  26  46  71  96 121 150 192 248 294
#     4   9  17  32  55  77  94 118 159 206 247 290
#     4   8  16  32  53  76  99 122 153 199 252 294
#
# _framework density 18.816133000000001
#
# number of rings (size 3 to 8) (size 9 to 14) (size 15 to 20)
#    0.000    3.000    0.000    3.000    0.000    3.000 
#    0.000    4.167    0.000    1.000    0.000    0.000 
#    0.000    0.000    0.000    0.000    0.000    0.000 
#
# Total GULP energy -594651.751300 kJ/mol
# GULP energy per Si atom -12388.578152 kJ/mol
# Density = 1.877331 g / cm^3
# Si number density = 18.816133 Si / 1000 Ang^3
#
#
#
# Elastic Constant Matrix: (Units=GPa)
#
#
# Indices 1 2 3 4 5 6 
#
# 1 112.9532 23.2181 34.4258 0.0000 0.0000 0.0000
# 2 23.2181 32.8447 26.9791 0.0000 0.0000 0.0000
# 3 34.4258 26.9791 67.9913 0.0000 0.0000 0.0000
# 4 0.0000 0.0000 0.0000 23.4510 0.0000 0.0000
# 5 0.0000 0.0000 0.0000 0.0000 21.1007 0.0000
# 6 0.0000 0.0000 0.0000 0.0000 0.0000 18.6869
#
#
#
# Elastic Compliance Matrix: (Units=1/GPa)
#
#
# Indices 1 2 3 4 5 6 
#
# 1 0.010941 -0.004724 -0.003666 0.000000 0.000000 0.000000
# 2 -0.004724 0.047208 -0.016340 0.000000 0.000000 0.000000
# 3 -0.003666 -0.016340 0.023048 0.000000 0.000000 0.000000
# 4 0.000000 0.000000 0.000000 0.042642 0.000000 0.000000
# 5 0.000000 0.000000 0.000000 0.000000 0.047392 0.000000
# 6 0.000000 0.000000 0.000000 0.000000 0.000000 0.053513
#
#
# Mechanical properties :
#
#
# Convention : Reuss Voigt Hill
#
# Bulk Modulus (GPa) = 31.50840 42.55947 37.03394
# Shear Modulus (GPa) = 17.55725 21.25880 19.40802
#
# Velocity S-wave (km/s) = 3.05798 3.36492 3.21511
# Velocity P-wave (km/s) = 5.40833 6.14529 5.78855
#
# Compressibility (1/GPa) = 0.03173756
#
# Stress axis : x y z
#
# Youngs Moduli (GPa) = 91.39621 21.18296 43.38829
#
# Poissons Ratio (x) = 0.10006 0.15904
# Poissons Ratio (y) = 0.43171 0.70899
# Poissons Ratio (z) = 0.33502 0.34614
#
# Static dielectric constant tensor:
#      x y z
#    x 4.021040 0.000000 0.000000 
#    y 0.000000 3.022350 0.000000 
#    z 0.000000 0.000000 3.237740 
# 
# 
# High freq. dielectric constant tensor:
#      x y z
#    x 1.751700 0.000000 0.000000 
#    y 0.000000 1.686660 0.000000 
#    z 0.000000 0.000000 1.718460 
# 
# From -- ./inp_files/18610.got.cif
#   From: 2010.03.12/outbox.cif.g09.slc.cpg/sg59_10_cif.got.tgz:18610.got - 2010.04.16 16:29:54.
