data_PCOD8243193
_publ_section_title
;
Structure prediction by ZEFSAII (Michael W. Deem and Ramdas Pophale) SiO2 
 PCOD8243193
Probable space group: P M M N
;
_chemical_formula_sum "Si O2"
_cell_formula_units_Z 56
_cell_length_a 19.851040
_cell_length_b 8.836525
_cell_length_c 17.447234
_cell_angle_alpha 90.000000
_cell_angle_beta 90.000000
_cell_angle_gamma 90.000000
_cell_volume 3060.492790
_symmetry_space_group_name_H-M "P M M N"
_symmetry_group_IT_number 59
_space_group.IT_coordinate_system_code '2'
_symmetry_cell_setting 'orthorhombic'
loop_
_space_group_symop_operation_xyz
x,y,z
1/2-x,1/2-y,z
1/2+x,-y,-z
-x,1/2+y,-z
-x,-y,-z
1/2+x,1/2+y,-z
1/2-x,y,z
x,1/2-y,z
loop_
_atom_site_type_symbol
_atom_site_label
_atom_site_fract_x
_atom_site_fract_y
_atom_site_fract_z
Si Si1 0.557453 0.428884 0.780143
Si Si2 0.955205 0.427887 0.610687
Si Si3 0.582084 0.429311 0.181362
Si Si4 0.587750 0.426453 0.450836
Si Si5 0.173613 0.575332 0.105652
Si Si6 0.323584 0.571832 0.684212
Si Si7 0.827272 0.926608 0.054471
O O1 0.547229 0.250000 0.780765
O O2 0.567952 0.492359 0.693224
O O3 0.492243 0.501460 0.819636
O O4 0.623810 0.476634 0.826770
O O5 0.958559 0.250000 0.617427
O O6 0.904991 0.475397 0.540479
O O7 0.028848 0.485394 0.591230
O O8 0.575466 0.250000 0.183448
O O9 0.622816 0.493876 0.255099
O O10 0.622220 0.477579 0.106050
O O11 0.569715 0.250000 0.445233
O O12 0.655135 0.465163 0.403483
O O13 0.250000 0.550768 0.134902
O O14 0.161584 0.750000 0.082734
O O15 0.158266 0.471352 0.032864
O O16 0.250000 0.498178 0.697930
O O17 0.319090 0.750000 0.696934
O O18 0.750000 0.966496 0.076353
O O19 0.841977 0.750000 0.065311
#
# Coordination Sequence:
#
# PCOD8243193 Si02
#       7
#     8   8   8   8   8   8   8
#     4  10  20  34  52  77 107 134 168 217 266 309
#     4   9  17  29  48  72 100 130 163 207 255 298
#     4  11  21  33  52  77 105 139 178 213 254 308
#     4   9  16  29  48  70  96 131 172 206 245 298
#     4   9  19  37  58  76  98 133 173 212 260 317
#     4   9  17  29  46  71 103 135 170 212 251 294
#     4  10  21  37  56  78 105 136 171 212 258 308
#
# _framework density 18.297706999999999
#
# number of rings (size 3 to 8) (size 9 to 14) (size 15 to 20)
#    0.000    2.429    1.429    1.286    0.000    2.571 
#    0.000    0.714    0.000    5.571    0.000    0.000 
#    0.000    3.429    0.000    0.000    0.000    0.000 
#
# Total GULP energy -694153.068821 kJ/mol
# GULP energy per Si atom -12395.590515 kJ/mol
# Density = 1.825606 g / cm^3
# Si number density = 18.297707 Si / 1000 Ang^3
#
#
#
# Elastic Constant Matrix: (Units=GPa)
#
#
# Indices 1 2 3 4 5 6 
#
# 1 115.1186 17.7384 70.5342 0.0000 0.0000 0.0000
# 2 17.7384 14.3322 19.6906 0.0000 0.0000 0.0000
# 3 70.5342 19.6906 127.3476 0.0000 0.0000 0.0000
# 4 0.0000 0.0000 0.0000 20.2525 0.0000 0.0000
# 5 0.0000 0.0000 0.0000 0.0000 27.5603 0.0000
# 6 0.0000 0.0000 0.0000 0.0000 0.0000 19.7023
#
#
#
# Elastic Compliance Matrix: (Units=1/GPa)
#
#
# Indices 1 2 3 4 5 6 
#
# 1 0.013905 -0.008417 -0.006400 0.000000 0.000000 0.000000
# 2 -0.008417 0.093687 -0.009824 0.000000 0.000000 0.000000
# 3 -0.006400 -0.009824 0.012916 0.000000 0.000000 0.000000
# 4 0.000000 0.000000 0.000000 0.049377 0.000000 0.000000
# 5 0.000000 0.000000 0.000000 0.000000 0.036284 0.000000
# 6 0.000000 0.000000 0.000000 0.000000 0.000000 0.050755
#
#
# Mechanical properties :
#
#
# Convention : Reuss Voigt Hill
#
# Bulk Modulus (GPa) = 14.03976 52.52499 33.28237
# Shear Modulus (GPa) = 15.15385 23.42537 19.28961
#
# Velocity S-wave (km/s) = 2.88094 3.58192 3.25038
# Velocity P-wave (km/s) = 4.33082 6.77311 5.68467
#
# Compressibility (1/GPa) = 0.07122630
#
# Stress axis : x y z
#
# Youngs Moduli (GPa) = 71.91623 10.67384 77.42054
#
# Poissons Ratio (x) = 0.08984 0.49551
# Poissons Ratio (y) = 0.60529 0.76060
# Poissons Ratio (z) = 0.46028 0.10486
#
# Static dielectric constant tensor:
#      x y z
#    x 3.349540 0.000000 0.000000 
#    y 0.000000 3.201780 0.000000 
#    z 0.000000 0.000000 3.669480 
# 
# 
# High freq. dielectric constant tensor:
#      x y z
#    x 1.696000 0.000000 0.000000 
#    y 0.000000 1.691450 0.000000 
#    z 0.000000 0.000000 1.720160 
# 
# From -- ./inp_files/26020.got.cif
#   From: 2010.03.12/outbox.cif.g09.slc.cpg/sg59_14_cif.got.tgz:26020.got - 2010.04.16 16:29:54.
