data_PCOD8243029
_publ_section_title
;
Structure prediction by ZEFSAII (Michael W. Deem and Ramdas Pophale) SiO2 
 PCOD8243029
Probable space group: P M M N
;
_chemical_formula_sum "Si O2"
_cell_formula_units_Z 48
_cell_length_a 18.837949
_cell_length_b 9.224515
_cell_length_c 15.151441
_cell_angle_alpha 90.000000
_cell_angle_beta 90.000000
_cell_angle_gamma 90.000000
_cell_volume 2632.880192
_symmetry_space_group_name_H-M "P M M N"
_symmetry_group_IT_number 59
_space_group.IT_coordinate_system_code '2'
_symmetry_cell_setting 'orthorhombic'
loop_
_space_group_symop_operation_xyz
x,y,z
1/2-x,1/2-y,z
1/2+x,-y,-z
-x,1/2+y,-z
-x,-y,-z
1/2+x,1/2+y,-z
1/2-x,y,z
x,1/2-y,z
loop_
_atom_site_type_symbol
_atom_site_label
_atom_site_fract_x
_atom_site_fract_y
_atom_site_fract_z
Si Si1 0.579791 0.918901 0.592788
Si Si2 0.332452 0.418901 0.237263
Si Si3 0.416578 0.580301 0.582157
Si Si4 0.828979 0.422238 0.251740
Si Si5 0.922735 0.419113 0.899687
Si Si6 0.434328 0.581533 0.897500
O O1 0.591907 0.750000 0.576017
O O2 0.624167 0.972348 0.677135
O O3 0.497406 0.956615 0.608407
O O4 0.608129 0.001944 0.506938
O O5 0.250000 0.451235 0.253602
O O6 0.346641 0.250000 0.218919
O O7 0.357960 0.508900 0.152620
O O8 0.406166 0.750000 0.567225
O O9 0.367791 0.519680 0.660763
O O10 0.750000 0.488470 0.247616
O O11 0.826185 0.250000 0.254420
O O12 0.871075 0.473297 0.164996
O O13 0.926169 0.250000 0.877516
O O14 0.996432 0.491457 0.870856
O O15 0.909218 0.447775 0.003001
O O16 0.452618 0.750000 0.881705
#
# Coordination Sequence:
#
# PCOD8243029 Si02
#       6
#     8   8   8   8   8   8
#     4   9  18  33  51  70  95 130 170 207 246 298
#     4  10  21  36  53  73 101 139 175 206 249 306
#     4   9  17  30  50  74  97 124 162 209 252 289
#     4   9  17  30  50  75 101 131 166 201 242 297
#     4  10  20  33  53  79 103 130 168 215 258 294
#     4   9  18  34  55  76 101 135 171 206 247 300
#
# _framework density 18.230986000000001
#
# number of rings (size 3 to 8) (size 9 to 14) (size 15 to 20)
#    0.000    2.667    0.000    1.500    0.000    5.667 
#    0.000    5.833    0.000    1.500    0.000    0.000 
#    0.000    0.000    0.000    0.000    0.000    0.000 
#
# Total GULP energy -595315.644722 kJ/mol
# GULP energy per Si atom -12402.409265 kJ/mol
# Density = 1.818949 g / cm^3
# Si number density = 18.230986 Si / 1000 Ang^3
#
#
#
# Elastic Constant Matrix: (Units=GPa)
#
#
# Indices 1 2 3 4 5 6 
#
# 1 115.6467 37.7782 75.2269 0.0000 0.0000 0.0000
# 2 37.7782 47.7772 42.0875 0.0000 0.0000 0.0000
# 3 75.2269 42.0875 122.2832 0.0000 0.0000 0.0000
# 4 0.0000 0.0000 0.0000 31.0841 0.0000 0.0000
# 5 0.0000 0.0000 0.0000 0.0000 21.3976 0.0000
# 6 0.0000 0.0000 0.0000 0.0000 0.0000 21.2677
#
#
#
# Elastic Compliance Matrix: (Units=1/GPa)
#
#
# Indices 1 2 3 4 5 6 
#
# 1 0.015355 -0.005482 -0.007559 0.000000 0.000000 0.000000
# 2 -0.005482 0.031995 -0.007639 0.000000 0.000000 0.000000
# 3 -0.007559 -0.007639 0.015457 0.000000 0.000000 0.000000
# 4 0.000000 0.000000 0.000000 0.032171 0.000000 0.000000
# 5 0.000000 0.000000 0.000000 0.000000 0.046734 0.000000
# 6 0.000000 0.000000 0.000000 0.000000 0.000000 0.047020
#
#
# Mechanical properties :
#
#
# Convention : Reuss Voigt Hill
#
# Bulk Modulus (GPa) = 46.62994 66.21027 56.42010
# Shear Modulus (GPa) = 21.07538 23.45751 22.26644
#
# Velocity S-wave (km/s) = 3.40372 3.59093 3.49858
# Velocity P-wave (km/s) = 6.40936 7.32047 6.88001
#
# Compressibility (1/GPa) = 0.02144545
#
# Stress axis : x y z
#
# Youngs Moduli (GPa) = 65.12420 31.25469 64.69356
#
# Poissons Ratio (x) = 0.17135 0.48904
# Poissons Ratio (y) = 0.35704 0.49422
# Poissons Ratio (z) = 0.49230 0.23877
#
# Static dielectric constant tensor:
#      x y z
#    x 3.423650 0.000000 0.000000 
#    y 0.000000 3.157790 0.000000 
#    z 0.000000 0.000000 3.485470 
# 
# 
# High freq. dielectric constant tensor:
#      x y z
#    x 1.703570 0.000000 0.000000 
#    y 0.000000 1.683430 0.000000 
#    z 0.000000 0.000000 1.717100 
# 
# From -- ./inp_files/20434.got.cif
#   From: 2010.03.12/outbox.cif.g09.slc.cpg/sg59_11_cif.got.tgz:20434.got - 2010.04.16 16:29:54.
