data_PCOD8243176
_publ_section_title
;
Structure prediction by ZEFSAII (Michael W. Deem and Ramdas Pophale) SiO2 
 PCOD8243176
Probable space group: P M M N
;
_chemical_formula_sum "Si O2"
_cell_formula_units_Z 64
_cell_length_a 8.517867
_cell_length_b 21.571616
_cell_length_c 17.721199
_cell_angle_alpha 90.000000
_cell_angle_beta 90.000000
_cell_angle_gamma 90.000000
_cell_volume 3256.166755
_symmetry_space_group_name_H-M "P M M N"
_symmetry_group_IT_number 59
_space_group.IT_coordinate_system_code '2'
_symmetry_cell_setting 'orthorhombic'
loop_
_space_group_symop_operation_xyz
x,y,z
1/2-x,1/2-y,z
1/2+x,-y,-z
-x,1/2+y,-z
-x,-y,-z
1/2+x,1/2+y,-z
1/2-x,y,z
x,1/2-y,z
loop_
_atom_site_type_symbol
_atom_site_label
_atom_site_fract_x
_atom_site_fract_y
_atom_site_fract_z
Si Si1 0.575576 0.681395 0.877163
Si Si2 0.932217 0.967818 0.378515
Si Si3 0.568870 0.416832 0.479124
Si Si4 0.064514 0.453423 0.932884
Si Si5 0.074597 0.321210 0.380636
Si Si6 0.930622 0.012347 0.773526
Si Si7 0.429020 0.885389 0.752680
Si Si8 0.066520 0.819070 0.037641
O O1 0.750000 0.652655 0.866552
O O2 0.571219 0.750000 0.842029
O O3 0.445740 0.638531 0.838076
O O4 0.536499 0.684021 0.963833
O O5 0.750000 0.968295 0.359508
O O6 0.972253 0.918202 0.443016
O O7 0.017551 0.947512 0.299819
O O8 0.986820 0.033559 0.415418
O O9 0.750000 0.426989 0.498613
O O10 0.534821 0.350131 0.444822
O O11 0.250000 0.448032 0.946312
O O12 0.031568 0.481159 0.850027
O O13 0.990324 0.383681 0.924465
O O14 0.000000 0.500000 0.000000
O O15 0.250000 0.349808 0.381163
O O16 0.081946 0.250000 0.399233
O O17 0.993270 0.331080 0.300011
O O18 0.750000 0.025052 0.793338
O O19 0.961461 0.944298 0.740727
O O20 0.250000 0.902757 0.734037
O O21 0.250000 0.826108 0.020207
O O22 0.039569 0.750000 0.078519
#
# Coordination Sequence:
#
# PCOD8243176 Si02
#       8
#     8   8   8   8   8   8   8   8
#     4  10  20  34  52  75 105 145 192 238 286 344
#     4  10  20  36  59  87 116 147 187 238 291 344
#     4  10  20  35  58  85 115 150 190 235 285 341
#     4  12  25  42  63  90 126 163 206 257 313 371
#     4  11  23  37  54  79 114 156 197 238 286 344
#     4  12  24  39  60  85 117 153 195 244 299 356
#     4  12  23  35  51  76 111 151 193 238 290 347
#     4  10  21  39  62  87 116 152 198 249 304 368
#
# _framework density 19.655013
#
# number of rings (size 3 to 8) (size 9 to 14) (size 15 to 20)
#    0.000    1.125    1.250    6.375    0.000    5.000 
#    0.000    0.000    0.000    0.750    0.000    0.000 
#    0.000    0.000    0.000    0.000    0.000    0.000 
#
# Total GULP energy -792961.831311 kJ/mol
# GULP energy per Si atom -12390.028614 kJ/mol
# Density = 1.961028 g / cm^3
# Si number density = 19.655013 Si / 1000 Ang^3
#
#
#
# Elastic Constant Matrix: (Units=GPa)
#
#
# Indices 1 2 3 4 5 6 
#
# 1 90.7253 23.7795 20.3205 0.0000 0.0000 0.0000
# 2 23.7795 74.5065 22.1627 0.0000 0.0000 0.0000
# 3 20.3205 22.1627 101.8551 0.0000 0.0000 0.0000
# 4 0.0000 0.0000 0.0000 23.3688 0.0000 0.0000
# 5 0.0000 0.0000 0.0000 0.0000 32.5985 0.0000
# 6 0.0000 0.0000 0.0000 0.0000 0.0000 27.2330
#
#
#
# Elastic Compliance Matrix: (Units=1/GPa)
#
#
# Indices 1 2 3 4 5 6 
#
# 1 0.012301 -0.003417 -0.001711 0.000000 0.000000 0.000000
# 2 -0.003417 0.015300 -0.002647 0.000000 0.000000 0.000000
# 3 -0.001711 -0.002647 0.010735 0.000000 0.000000 0.000000
# 4 0.000000 0.000000 0.000000 0.042792 0.000000 0.000000
# 5 0.000000 0.000000 0.000000 0.000000 0.030676 0.000000
# 6 0.000000 0.000000 0.000000 0.000000 0.000000 0.036720
#
#
# Mechanical properties :
#
#
# Convention : Reuss Voigt Hill
#
# Bulk Modulus (GPa) = 43.88697 44.40138 44.14417
# Shear Modulus (GPa) = 29.12566 30.02834 29.57700
#
# Velocity S-wave (km/s) = 3.85365 3.91291 3.88339
# Velocity P-wave (km/s) = 6.49445 6.56155 6.52809
#
# Compressibility (1/GPa) = 0.02278581
#
# Stress axis : x y z
#
# Youngs Moduli (GPa) = 81.29367 65.36053 93.15171
#
# Poissons Ratio (x) = 0.22335 0.15934
# Poissons Ratio (y) = 0.27780 0.24660
# Poissons Ratio (z) = 0.13906 0.17303
#
# Static dielectric constant tensor:
#      x y z
#    x 3.699500 0.000000 0.000000 
#    y 0.000000 3.862340 0.000000 
#    z 0.000000 0.000000 3.540510 
# 
# 
# High freq. dielectric constant tensor:
#      x y z
#    x 1.780070 0.000000 0.000000 
#    y 0.000000 1.748550 0.000000 
#    z 0.000000 0.000000 1.755060 
# 
# From -- ./inp_files/26237.got.cif
#   From: 2010.03.12/outbox.cif.g09.slc.cpg/sg59_14_cif.got.tgz:26237.got - 2010.04.16 16:29:54.
