data_PCOD8243933
_publ_section_title
;
Structure prediction by ZEFSAII (Michael W. Deem and Ramdas Pophale) SiO2 
 PCOD8243933
Probable space group: P M M N
;
_chemical_formula_sum "Si O2"
_cell_formula_units_Z 48
_cell_length_a 16.188161
_cell_length_b 9.086307
_cell_length_c 16.021255
_cell_angle_alpha 90.000000
_cell_angle_beta 90.000000
_cell_angle_gamma 90.000000
_cell_volume 2356.576020
_symmetry_space_group_name_H-M "P M M N"
_symmetry_group_IT_number 59
_space_group.IT_coordinate_system_code '2'
_symmetry_cell_setting 'orthorhombic'
loop_
_space_group_symop_operation_xyz
x,y,z
1/2-x,1/2-y,z
1/2+x,-y,-z
-x,1/2+y,-z
-x,-y,-z
1/2+x,1/2+y,-z
1/2-x,y,z
x,1/2-y,z
loop_
_atom_site_type_symbol
_atom_site_label
_atom_site_fract_x
_atom_site_fract_y
_atom_site_fract_z
Si Si1 0.487754 0.919105 0.219108
Si Si2 0.250000 0.576194 0.928011
Si Si3 0.377826 0.410075 0.654124
Si Si4 0.250000 0.581215 0.746772
Si Si5 0.920108 0.585076 0.527326
Si Si6 0.934902 0.073151 0.062203
Si Si7 0.344383 0.075770 0.300616
O O1 0.476771 0.750000 0.188781
O O2 0.528424 0.926306 0.311861
O O3 0.545006 0.008017 0.153780
O O4 0.398323 0.995091 0.229385
O O5 0.250000 0.750000 0.924991
O O6 0.250000 0.502368 0.836353
O O7 0.160054 0.529355 0.967054
O O8 0.344204 0.250000 0.683866
O O9 0.329815 0.542580 0.694664
O O10 0.363866 0.419703 0.555152
O O11 0.250000 0.750000 0.765974
O O12 0.947811 0.750000 0.549303
O O13 0.870697 0.520854 0.606522
O O14 0.000000 0.500000 0.500000
O O15 0.945273 0.250000 0.063900
O O16 0.000000 0.000000 0.000000
O O17 0.250000 0.028689 0.285937
O O18 0.355487 0.250000 0.291239
#
# Coordination Sequence:
#
# PCOD8243933 Si02
#       7
#     8   4   8   4   8   8   8
#     4  11  22  39  63  90 119 158 200 249 310 369
#     4   9  20  39  65  93 126 159 194 245 307 360
#     4  10  21  35  54  84 121 157 196 247 307 363
#     4  11  21  35  57  87 116 153 198 243 297 358
#     4  10  20  35  56  80 113 155 201 252 306 357
#     4  11  23  44  69  97 129 163 203 252 306 371
#     4  10  22  39  59  83 116 163 214 261 308 362
#
# _framework density 20.368534
#
# number of rings (size 3 to 8) (size 9 to 14) (size 15 to 20)
#    0.000    1.667    3.333    1.250    1.167    1.667 
#    1.500    1.667    0.000    0.000    0.000    0.000 
#    0.000    0.000    0.000    0.000    0.000    0.000 
#
# Total GULP energy -594642.155281 kJ/mol
# GULP energy per Si atom -12388.378235 kJ/mol
# Density = 2.032217 g / cm^3
# Si number density = 20.368534 Si / 1000 Ang^3
#
#
#
# Elastic Constant Matrix: (Units=GPa)
#
#
# Indices 1 2 3 4 5 6 
#
# 1 160.7214 49.4085 38.2361 0.0000 0.0000 0.0000
# 2 49.4085 71.2411 22.3831 0.0000 0.0000 0.0000
# 3 38.2361 22.3831 61.6571 0.0000 0.0000 0.0000
# 4 0.0000 0.0000 0.0000 29.2836 0.0000 0.0000
# 5 0.0000 0.0000 0.0000 0.0000 31.9369 0.0000
# 6 0.0000 0.0000 0.0000 0.0000 0.0000 32.3085
#
#
#
# Elastic Compliance Matrix: (Units=1/GPa)
#
#
# Indices 1 2 3 4 5 6 
#
# 1 0.008546 -0.004811 -0.003553 0.000000 0.000000 0.000000
# 2 -0.004811 0.018552 -0.003752 0.000000 0.000000 0.000000
# 3 -0.003553 -0.003752 0.019784 0.000000 0.000000 0.000000
# 4 0.000000 0.000000 0.000000 0.034149 0.000000 0.000000
# 5 0.000000 0.000000 0.000000 0.000000 0.031312 0.000000
# 6 0.000000 0.000000 0.000000 0.000000 0.000000 0.030952
#
#
# Mechanical properties :
#
#
# Convention : Reuss Voigt Hill
#
# Bulk Modulus (GPa) = 44.14799 57.07501 50.61150
# Shear Modulus (GPa) = 28.55897 30.94524 29.75211
#
# Velocity S-wave (km/s) = 3.74854 3.90201 3.82604
# Velocity P-wave (km/s) = 6.36059 6.95578 6.66483
#
# Compressibility (1/GPa) = 0.02265109
#
# Stress axis : x y z
#
# Youngs Moduli (GPa) = 117.01094 53.90277 50.54513
#
# Poissons Ratio (x) = 0.25931 0.17961
# Poissons Ratio (y) = 0.56290 0.18962
# Poissons Ratio (z) = 0.41579 0.20222
#
# Static dielectric constant tensor:
#      x y z
#    x 4.351510 0.000000 0.000000 
#    y 0.000000 3.843590 0.000000 
#    z 0.000000 0.000000 3.875760 
# 
# 
# High freq. dielectric constant tensor:
#      x y z
#    x 1.799550 0.000000 0.000000 
#    y 0.000000 1.786830 0.000000 
#    z 0.000000 0.000000 1.784790 
# 
# From -- ./inp_files/23691.got.cif
#   From: 2010.03.12/outbox.cif.g09.slc.cpg/sg59_12_cif.got.tgz:23691.got - 2010.04.16 16:29:54.
