data_PCOD8243791
_publ_section_title
;
Structure prediction by ZEFSAII (Michael W. Deem and Ramdas Pophale) SiO2 
 PCOD8243791
Probable space group: P M M N
;
_chemical_formula_sum "Si O2"
_cell_formula_units_Z 56
_cell_length_a 15.588820
_cell_length_b 8.973906
_cell_length_c 21.531064
_cell_angle_alpha 90.000000
_cell_angle_beta 90.000000
_cell_angle_gamma 90.000000
_cell_volume 3012.036639
_symmetry_space_group_name_H-M "P M M N"
_symmetry_group_IT_number 59
_space_group.IT_coordinate_system_code '2'
_symmetry_cell_setting 'orthorhombic'
loop_
_space_group_symop_operation_xyz
x,y,z
1/2-x,1/2-y,z
1/2+x,-y,-z
-x,1/2+y,-z
-x,-y,-z
1/2+x,1/2+y,-z
1/2-x,y,z
x,1/2-y,z
loop_
_atom_site_type_symbol
_atom_site_label
_atom_site_fract_x
_atom_site_fract_y
_atom_site_fract_z
Si Si1 0.750000 0.582011 0.534742
Si Si2 0.408205 0.074057 0.996930
Si Si3 0.576618 0.074674 0.536739
Si Si4 0.153374 0.920585 0.876427
Si Si5 0.078439 0.924199 0.319104
Si Si6 0.499048 0.573905 0.788561
Si Si7 0.750000 0.583059 0.682076
Si Si8 0.844135 0.926249 0.870894
O O1 0.750000 0.750000 0.507506
O O2 0.834413 0.494913 0.511757
O O3 0.750000 0.586129 0.608371
O O4 0.419835 0.250000 0.993832
O O5 0.356095 0.020499 0.937197
O O6 0.356404 0.023341 0.057937
O O7 0.500000 0.000000 0.000000
O O8 0.578848 0.250000 0.524017
O O9 0.562055 0.038128 0.609075
O O10 0.500000 0.000000 0.500000
O O11 0.250000 0.937350 0.850713
O O12 0.132137 0.750000 0.894492
O O13 0.088642 0.973736 0.822574
O O14 0.085915 0.750000 0.308153
O O15 0.165828 0.999097 0.294043
O O16 0.001056 0.993146 0.278509
O O17 0.503748 0.750000 0.778113
O O18 0.579279 0.510003 0.828493
O O19 0.750000 0.750000 0.710078
O O20 0.750000 0.982634 0.848123
O O21 0.848953 0.750000 0.867427
#
# Coordination Sequence:
#
# PCOD8243791 Si02
#       8
#     4   8   8   8   8   8   4   8
#     4   9  17  31  53  83 115 145 183 224 267 324
#     4  11  20  34  55  78 106 138 177 223 273 324
#     4  10  20  35  57  83 114 149 187 230 281 332
#     4  10  21  38  58  79 104 138 183 232 277 321
#     4  10  21  35  52  80 115 145 178 229 279 318
#     4  10  20  35  54  76 104 142 181 219 267 331
#     4   9  17  31  53  79 107 147 185 212 255 326
#     4   9  18  32  50  74 104 135 170 213 262 319
#
# _framework density 18.592072000000002
#
# number of rings (size 3 to 8) (size 9 to 14) (size 15 to 20)
#    0.000    2.143    1.429    2.143    1.000    4.857 
#    0.000    0.000    1.571    1.714    0.000    0.000 
#    0.000    0.000    0.000    0.000    0.000    0.000 
#
# Total GULP energy -694415.037016 kJ/mol
# GULP energy per Si atom -12400.268518 kJ/mol
# Density = 1.854976 g / cm^3
# Si number density = 18.592072 Si / 1000 Ang^3
#
#
#
# Elastic Constant Matrix: (Units=GPa)
#
#
# Indices 1 2 3 4 5 6 
#
# 1 145.0357 46.3731 54.2997 0.0000 0.0000 0.0000
# 2 46.3731 83.9342 44.7591 0.0000 0.0000 0.0000
# 3 54.2997 44.7591 76.8479 0.0000 0.0000 0.0000
# 4 0.0000 0.0000 0.0000 29.0727 0.0000 0.0000
# 5 0.0000 0.0000 0.0000 0.0000 30.2295 0.0000
# 6 0.0000 0.0000 0.0000 0.0000 0.0000 26.7012
#
#
#
# Elastic Compliance Matrix: (Units=1/GPa)
#
#
# Indices 1 2 3 4 5 6 
#
# 1 0.009717 -0.002476 -0.005424 0.000000 0.000000 0.000000
# 2 -0.002476 0.017913 -0.008683 0.000000 0.000000 0.000000
# 3 -0.005424 -0.008683 0.021902 0.000000 0.000000 0.000000
# 4 0.000000 0.000000 0.000000 0.034397 0.000000 0.000000
# 5 0.000000 0.000000 0.000000 0.000000 0.033080 0.000000
# 6 0.000000 0.000000 0.000000 0.000000 0.000000 0.037452
#
#
# Mechanical properties :
#
#
# Convention : Reuss Voigt Hill
#
# Bulk Modulus (GPa) = 61.10336 66.29794 63.70065
# Shear Modulus (GPa) = 25.89562 27.89307 26.89434
#
# Velocity S-wave (km/s) = 3.73611 3.87753 3.80748
# Velocity P-wave (km/s) = 7.17970 7.46885 7.32570
#
# Compressibility (1/GPa) = 0.01636571
#
# Stress axis : x y z
#
# Youngs Moduli (GPa) = 102.91000 55.82600 45.65693
#
# Poissons Ratio (x) = 0.13825 0.24763
# Poissons Ratio (y) = 0.25485 0.39645
# Poissons Ratio (z) = 0.55815 0.48475
#
# Static dielectric constant tensor:
#      x y z
#    x 3.550310 0.000000 0.000000 
#    y 0.000000 3.389650 0.000000 
#    z 0.000000 0.000000 3.370360 
# 
# 
# High freq. dielectric constant tensor:
#      x y z
#    x 1.723820 0.000000 0.000000 
#    y 0.000000 1.713340 0.000000 
#    z 0.000000 0.000000 1.706400 
# 
# From -- ./inp_files/30435.got.cif
#   From: 2010.03.12/outbox.cif.g09.slc.cpg/sg59_16_cif.got.tgz:30435.got - 2010.04.16 16:29:54.
