data_PCOD8243901
_publ_section_title
;
Structure prediction by ZEFSAII (Michael W. Deem and Ramdas Pophale) SiO2 
 PCOD8243901
Probable space group: P M M N
;
_chemical_formula_sum "Si O2"
_cell_formula_units_Z 64
_cell_length_a 28.425450
_cell_length_b 9.188107
_cell_length_c 12.664356
_cell_angle_alpha 90.000000
_cell_angle_beta 90.000000
_cell_angle_gamma 90.000000
_cell_volume 3307.626807
_symmetry_space_group_name_H-M "P M M N"
_symmetry_group_IT_number 59
_space_group.IT_coordinate_system_code '2'
_symmetry_cell_setting 'orthorhombic'
loop_
_space_group_symop_operation_xyz
x,y,z
1/2-x,1/2-y,z
1/2+x,-y,-z
-x,1/2+y,-z
-x,-y,-z
1/2+x,1/2+y,-z
1/2-x,y,z
x,1/2-y,z
loop_
_atom_site_type_symbol
_atom_site_label
_atom_site_fract_x
_atom_site_fract_y
_atom_site_fract_z
Si Si1 0.884481 0.418727 0.870873
Si Si2 0.804294 0.578948 0.379030
Si Si3 0.554690 0.079272 0.671812
Si Si4 0.304218 0.420127 0.039472
Si Si5 0.043443 0.581834 0.950156
Si Si6 0.459500 0.580042 0.710446
Si Si7 0.386296 0.919822 0.532334
Si Si8 0.694690 0.411954 0.169758
O O1 0.871011 0.250000 0.857368
O O2 0.917376 0.471872 0.775664
O O3 0.836604 0.513600 0.867754
O O4 0.910315 0.450253 0.981523
O O5 0.750000 0.543895 0.406710
O O6 0.812194 0.750000 0.367033
O O7 0.837822 0.512261 0.469437
O O8 0.821102 0.501792 0.271523
O O9 0.544846 0.250000 0.674556
O O10 0.584458 0.033313 0.569992
O O11 0.504976 0.000987 0.666568
O O12 0.250000 0.451947 0.067620
O O13 0.313360 0.250000 0.025349
O O14 0.320708 0.500427 0.933202
O O15 0.029972 0.750000 0.954292
O O16 0.052846 0.530796 0.829928
O O17 0.000000 0.500000 0.000000
O O18 0.470566 0.750000 0.703838
O O19 0.415726 0.538891 0.636628
O O20 0.373272 0.750000 0.529071
O O21 0.750000 0.393403 0.170495
O O22 0.671036 0.250000 0.170217
#
# Coordination Sequence:
#
# PCOD8243901 Si02
#       8
#     8   8   8   8   8   8   8   8
#     4  10  21  36  56  81 112 150 191 233 281 340
#     4  10  21  37  56  82 115 148 187 236 287 337
#     4  10  21  39  59  81 111 149 191 238 286 338
#     4  10  21  36  54  81 115 149 190 237 283 336
#     4  10  20  35  55  82 114 146 182 226 277 338
#     4  10  21  36  57  85 115 146 184 233 284 341
#     4  10  22  38  58  84 112 147 194 238 283 340
#     4   9  17  31  53  78 107 145 182 221 275 333
#
# _framework density 19.349219999999999
#
# number of rings (size 3 to 8) (size 9 to 14) (size 15 to 20)
#    0.000    2.125    1.250    1.500    1.750    5.000 
#    0.000    0.625    0.000    3.750    0.000    0.000 
#    0.000    0.000    0.000    0.000    0.000    0.000 
#
# Total GULP energy -793711.293850 kJ/mol
# GULP energy per Si atom -12401.738966 kJ/mol
# Density = 1.930518 g / cm^3
# Si number density = 19.349220 Si / 1000 Ang^3
#
#
#
# Elastic Constant Matrix: (Units=GPa)
#
#
# Indices 1 2 3 4 5 6 
#
# 1 104.6919 54.8865 43.3754 0.0000 0.0000 0.0000
# 2 54.8865 80.2147 32.1135 0.0000 0.0000 0.0000
# 3 43.3754 32.1135 92.4282 0.0000 0.0000 0.0000
# 4 0.0000 0.0000 0.0000 25.6235 0.0000 0.0000
# 5 0.0000 0.0000 0.0000 0.0000 24.1552 0.0000
# 6 0.0000 0.0000 0.0000 0.0000 0.0000 36.6744
#
#
#
# Elastic Compliance Matrix: (Units=1/GPa)
#
#
# Indices 1 2 3 4 5 6 
#
# 1 0.016292 -0.009393 -0.004382 0.000000 0.000000 0.000000
# 2 -0.009393 0.019897 -0.002505 0.000000 0.000000 0.000000
# 3 -0.004382 -0.002505 0.013746 0.000000 0.000000 0.000000
# 4 0.000000 0.000000 0.000000 0.039027 0.000000 0.000000
# 5 0.000000 0.000000 0.000000 0.000000 0.041399 0.000000
# 6 0.000000 0.000000 0.000000 0.000000 0.000000 0.027267
#
#
# Mechanical properties :
#
#
# Convention : Reuss Voigt Hill
#
# Bulk Modulus (GPa) = 57.55624 59.78729 58.67176
# Shear Modulus (GPa) = 25.51294 27.08791 26.30042
#
# Velocity S-wave (km/s) = 3.63513 3.74565 3.69080
# Velocity P-wave (km/s) = 6.88690 7.04788 6.96786
#
# Compressibility (1/GPa) = 0.01737431
#
# Stress axis : x y z
#
# Youngs Moduli (GPa) = 61.37978 50.25955 72.74917
#
# Poissons Ratio (x) = 0.47211 0.31878
# Poissons Ratio (y) = 0.57657 0.18222
# Poissons Ratio (z) = 0.26896 0.12589
#
# Static dielectric constant tensor:
#      x y z
#    x 3.514200 0.000000 0.000000 
#    y 0.000000 3.509470 0.000000 
#    z 0.000000 0.000000 3.600900 
# 
# 
# High freq. dielectric constant tensor:
#      x y z
#    x 1.756700 0.000000 0.000000 
#    y 0.000000 1.750510 0.000000 
#    z 0.000000 0.000000 1.743820 
# 
# From -- ./inp_files/19222.got.cif
#   From: 2010.03.12/outbox.cif.g09.slc.cpg/sg59_10_cif.got.tgz:19222.got - 2010.04.16 16:29:54.
