data_PCOD8243142
_publ_section_title
;
Structure prediction by ZEFSAII (Michael W. Deem and Ramdas Pophale) SiO2 
 PCOD8243142
Probable space group: P M M N
;
_chemical_formula_sum "Si O2"
_cell_formula_units_Z 48
_cell_length_a 9.153622
_cell_length_b 13.603694
_cell_length_c 20.765096
_cell_angle_alpha 90.000000
_cell_angle_beta 90.000000
_cell_angle_gamma 90.000000
_cell_volume 2585.733558
_symmetry_space_group_name_H-M "P M M N"
_symmetry_group_IT_number 59
_space_group.IT_coordinate_system_code '2'
_symmetry_cell_setting 'orthorhombic'
loop_
_space_group_symop_operation_xyz
x,y,z
1/2-x,1/2-y,z
1/2+x,-y,-z
-x,1/2+y,-z
-x,-y,-z
1/2+x,1/2+y,-z
1/2-x,y,z
x,1/2-y,z
loop_
_atom_site_type_symbol
_atom_site_label
_atom_site_fract_x
_atom_site_fract_y
_atom_site_fract_z
Si Si1 0.079933 0.039676 0.403857
Si Si2 0.918086 0.141345 0.907694
Si Si3 0.414607 0.133695 0.031228
Si Si4 0.421545 0.635766 0.715825
Si Si5 0.080692 0.045733 0.164549
Si Si6 0.080818 0.362945 0.539641
O O1 0.250000 0.029211 0.387599
O O2 0.051431 0.106189 0.466278
O O3 0.000156 0.094061 0.346460
O O4 0.014968 0.930385 0.413079
O O5 0.750000 0.148095 0.926587
O O6 0.980363 0.250000 0.890685
O O7 0.940343 0.071495 0.845779
O O8 0.994810 0.093098 0.970305
O O9 0.250000 0.094197 0.024024
O O10 0.423396 0.250000 0.030065
O O11 0.476530 0.098312 0.099741
O O12 0.250000 0.618032 0.708781
O O13 0.460340 0.750000 0.723365
O O14 0.478980 0.578310 0.777637
O O15 0.250000 0.072471 0.179153
O O16 0.250000 0.377800 0.557377
O O17 0.032499 0.250000 0.548719
#
# Coordination Sequence:
#
# PCOD8243142 Si02
#       6
#     8   8   8   8   8   8
#     4  10  20  35  57  84 113 146 182 218 260 311
#     4   9  18  32  50  73 100 130 167 212 260 309
#     4   9  17  29  47  72  99 128 166 212 262 315
#     4  11  24  39  55  77 105 137 174 217 265 318
#     4  10  20  34  52  73 100 136 174 213 259 311
#     4   9  18  34  57  85 116 147 180 220 263 306
#
# _framework density 18.563397999999999
#
# number of rings (size 3 to 8) (size 9 to 14) (size 15 to 20)
#    0.000    2.333    0.000    2.500    0.000    5.000 
#    0.000    2.500    0.000    3.000    0.000    0.000 
#    0.000    0.000    0.000    0.000    0.000    0.000 
#
# Total GULP energy -595212.824168 kJ/mol
# GULP energy per Si atom -12400.267170 kJ/mol
# Density = 1.852115 g / cm^3
# Si number density = 18.563398 Si / 1000 Ang^3
#
#
#
# Elastic Constant Matrix: (Units=GPa)
#
#
# Indices 1 2 3 4 5 6 
#
# 1 79.3773 37.8013 45.3130 0.0000 0.0000 0.0000
# 2 37.8013 75.7122 25.7458 0.0000 0.0000 0.0000
# 3 45.3130 25.7458 72.7760 0.0000 0.0000 0.0000
# 4 0.0000 0.0000 0.0000 27.5695 0.0000 0.0000
# 5 0.0000 0.0000 0.0000 0.0000 27.5344 0.0000
# 6 0.0000 0.0000 0.0000 0.0000 0.0000 27.7063
#
#
#
# Elastic Compliance Matrix: (Units=1/GPa)
#
#
# Indices 1 2 3 4 5 6 
#
# 1 0.022703 -0.007421 -0.011510 0.000000 0.000000 0.000000
# 2 -0.007421 0.017440 -0.001549 0.000000 0.000000 0.000000
# 3 -0.011510 -0.001549 0.021456 0.000000 0.000000 0.000000
# 4 0.000000 0.000000 0.000000 0.036272 0.000000 0.000000
# 5 0.000000 0.000000 0.000000 0.000000 0.036318 0.000000
# 6 0.000000 0.000000 0.000000 0.000000 0.000000 0.036093
#
#
# Mechanical properties :
#
#
# Convention : Reuss Voigt Hill
#
# Bulk Modulus (GPa) = 48.45552 49.50951 48.98252
# Shear Modulus (GPa) = 22.92307 24.49574 23.70941
#
# Velocity S-wave (km/s) = 3.51786 3.63653 3.57769
# Velocity P-wave (km/s) = 6.53145 6.66040 6.59624
#
# Compressibility (1/GPa) = 0.02063748
#
# Stress axis : x y z
#
# Youngs Moduli (GPa) = 44.04748 57.34029 46.60795
#
# Poissons Ratio (x) = 0.42552 0.53647
# Poissons Ratio (y) = 0.32687 0.07220
# Poissons Ratio (z) = 0.50700 0.08883
#
# Static dielectric constant tensor:
#      x y z
#    x 3.464700 0.000000 0.000000 
#    y 0.000000 3.704740 0.000000 
#    z 0.000000 0.000000 3.258270 
# 
# 
# High freq. dielectric constant tensor:
#      x y z
#    x 1.718200 0.000000 0.000000 
#    y 0.000000 1.735220 0.000000 
#    z 0.000000 0.000000 1.704730 
# 
# From -- ./inp_files/25459.got.cif
#   From: 2010.03.12/outbox.cif.g09.slc.cpg/sg59_13_cif.got.tgz:25459.got - 2010.04.16 16:29:54.
