data_PCOD8243758
_publ_section_title
;
Structure prediction by ZEFSAII (Michael W. Deem and Ramdas Pophale) SiO2 
 PCOD8243758
Probable space group: P M M N
;
_chemical_formula_sum "Si O2"
_cell_formula_units_Z 56
_cell_length_a 21.100267
_cell_length_b 8.956897
_cell_length_c 16.650214
_cell_angle_alpha 90.000000
_cell_angle_beta 90.000000
_cell_angle_gamma 90.000000
_cell_volume 3146.772532
_symmetry_space_group_name_H-M "P M M N"
_symmetry_group_IT_number 59
_space_group.IT_coordinate_system_code '2'
_symmetry_cell_setting 'orthorhombic'
loop_
_space_group_symop_operation_xyz
x,y,z
1/2-x,1/2-y,z
1/2+x,-y,-z
-x,1/2+y,-z
-x,-y,-z
1/2+x,1/2+y,-z
1/2-x,y,z
x,1/2-y,z
loop_
_atom_site_type_symbol
_atom_site_label
_atom_site_fract_x
_atom_site_fract_y
_atom_site_fract_z
Si Si1 0.177899 0.575279 0.952786
Si Si2 0.123383 0.425873 0.804133
Si Si3 0.994249 0.578464 0.797174
Si Si4 0.468431 0.424818 0.379676
Si Si5 0.938318 0.922278 0.962782
Si Si6 0.322197 0.922491 0.654453
Si Si7 0.588389 0.421010 0.482295
O O1 0.250000 0.547972 0.983525
O O2 0.162470 0.750000 0.947869
O O3 0.172434 0.505170 0.864150
O O4 0.127333 0.499094 0.011908
O O5 0.129495 0.250000 0.813771
O O6 0.138044 0.474077 0.713654
O O7 0.052760 0.477760 0.826400
O O8 0.017537 0.750000 0.786990
O O9 0.966624 0.517644 0.712436
O O10 0.940951 0.566270 0.865862
O O11 0.459737 0.250000 0.380414
O O12 0.533769 0.477372 0.421183
O O13 0.411322 0.492814 0.432765
O O14 0.937491 0.750000 0.991028
O O15 0.000000 0.000000 0.000000
O O16 0.250000 0.971736 0.658505
O O17 0.332574 0.750000 0.679031
O O18 0.345479 0.948804 0.563261
O O19 0.577018 0.250000 0.503544
#
# Coordination Sequence:
#
# PCOD8243758 Si02
#       7
#     8   8   8   8   8   8   8
#     4  11  24  41  59  78 109 152 190 228 279 336
#     4  12  23  33  52  81 112 143 179 223 270 323
#     4  10  20  36  56  78 110 145 178 218 271 331
#     4   9  17  31  51  73 100 134 169 210 259 309
#     4  11  22  36  59  86 112 145 186 233 279 331
#     4  10  20  35  53  72 103 146 181 211 259 323
#     4   9  17  30  49  74 101 132 172 214 254 304
#
# _framework density 17.796011
#
# number of rings (size 3 to 8) (size 9 to 14) (size 15 to 20)
#    0.000    1.714    2.857    2.571    0.000    4.857 
#    0.000    0.000    0.000    0.857    0.000    4.000 
#    0.000    0.000    0.000    0.000    0.000    0.000 
#
# Total GULP energy -694387.474933 kJ/mol
# GULP energy per Si atom -12399.776338 kJ/mol
# Density = 1.775551 g / cm^3
# Si number density = 17.796011 Si / 1000 Ang^3
#
#
#
# Elastic Constant Matrix: (Units=GPa)
#
#
# Indices 1 2 3 4 5 6 
#
# 1 87.1703 47.9177 41.4394 0.0000 0.0000 0.0000
# 2 47.9177 94.7503 41.7633 0.0000 0.0000 0.0000
# 3 41.4394 41.7633 104.9205 0.0000 0.0000 0.0000
# 4 0.0000 0.0000 0.0000 29.2231 0.0000 0.0000
# 5 0.0000 0.0000 0.0000 0.0000 26.4923 0.0000
# 6 0.0000 0.0000 0.0000 0.0000 0.0000 23.9514
#
#
#
# Elastic Compliance Matrix: (Units=1/GPa)
#
#
# Indices 1 2 3 4 5 6 
#
# 1 0.017192 -0.006915 -0.004038 0.000000 0.000000 0.000000
# 2 -0.006915 0.015581 -0.003471 0.000000 0.000000 0.000000
# 3 -0.004038 -0.003471 0.012507 0.000000 0.000000 0.000000
# 4 0.000000 0.000000 0.000000 0.034220 0.000000 0.000000
# 5 0.000000 0.000000 0.000000 0.000000 0.037747 0.000000
# 6 0.000000 0.000000 0.000000 0.000000 0.000000 0.041751
#
#
# Mechanical properties :
#
#
# Convention : Reuss Voigt Hill
#
# Bulk Modulus (GPa) = 60.85107 61.00909 60.93008
# Shear Modulus (GPa) = 25.86339 26.31474 26.08906
#
# Velocity S-wave (km/s) = 3.81639 3.84954 3.83300
# Velocity P-wave (km/s) = 7.32718 7.35632 7.34177
#
# Compressibility (1/GPa) = 0.01643357
#
# Stress axis : x y z
#
# Youngs Moduli (GPa) = 58.16500 64.18095 79.95275
#
# Poissons Ratio (x) = 0.44380 0.32284
# Poissons Ratio (y) = 0.40220 0.27750
# Poissons Ratio (z) = 0.23486 0.22276
#
# Static dielectric constant tensor:
#      x y z
#    x 3.167460 0.000000 0.000000 
#    y 0.000000 3.368740 0.000000 
#    z 0.000000 0.000000 3.472070 
# 
# 
# High freq. dielectric constant tensor:
#      x y z
#    x 1.662320 0.000000 0.000000 
#    y 0.000000 1.689440 0.000000 
#    z 0.000000 0.000000 1.690140 
# 
# From -- ./inp_files/26070.got.cif
#   From: 2010.03.12/outbox.cif.g09.slc.cpg/sg59_14_cif.got.tgz:26070.got - 2010.04.16 16:29:54.
