data_PCOD8243214
_publ_section_title
;
Structure prediction by ZEFSAII (Michael W. Deem and Ramdas Pophale) SiO2 
 PCOD8243214
Probable space group: P M M N
;
_chemical_formula_sum "Si O2"
_cell_formula_units_Z 64
_cell_length_a 23.063337
_cell_length_b 8.912449
_cell_length_c 17.977058
_cell_angle_alpha 90.000000
_cell_angle_beta 90.000000
_cell_angle_gamma 90.000000
_cell_volume 3695.198919
_symmetry_space_group_name_H-M "P M M N"
_symmetry_group_IT_number 59
_space_group.IT_coordinate_system_code '2'
_symmetry_cell_setting 'orthorhombic'
loop_
_space_group_symop_operation_xyz
x,y,z
1/2-x,1/2-y,z
1/2+x,-y,-z
-x,1/2+y,-z
-x,-y,-z
1/2+x,1/2+y,-z
1/2-x,y,z
x,1/2-y,z
loop_
_atom_site_type_symbol
_atom_site_label
_atom_site_fract_x
_atom_site_fract_y
_atom_site_fract_z
Si Si1 0.683616 0.421622 0.508847
Si Si2 0.681216 0.084273 0.936497
Si Si3 0.319041 0.417074 0.920773
Si Si4 0.184545 0.572687 0.772549
Si Si5 0.391750 0.573888 0.634438
Si Si6 0.004229 0.571871 0.418974
Si Si7 0.880014 0.573535 0.637293
Si Si8 0.182723 0.926343 0.229450
O O1 0.750000 0.445912 0.485961
O O2 0.672337 0.250000 0.533841
O O3 0.645245 0.464071 0.438280
O O4 0.668134 0.531121 0.576278
O O5 0.750000 0.092071 0.942688
O O6 0.655188 0.250000 0.947935
O O7 0.664941 0.024811 0.854351
O O8 0.655088 0.981112 0.001916
O O9 0.250000 0.421729 0.924293
O O10 0.342967 0.250000 0.911526
O O11 0.341070 0.511513 0.850093
O O12 0.250000 0.512615 0.758787
O O13 0.185006 0.750000 0.776816
O O14 0.143999 0.516713 0.705714
O O15 0.405900 0.750000 0.639508
O O16 0.450739 0.480108 0.631789
O O17 0.004930 0.750000 0.427653
O O18 0.061920 0.518000 0.378508
O O19 0.000000 0.500000 0.500000
O O20 0.892583 0.750000 0.634884
O O21 0.856723 0.526991 0.717729
O O22 0.250000 0.962177 0.245014
O O23 0.171008 0.750000 0.242171
#
# Coordination Sequence:
#
# PCOD8243214 Si02
#       8
#     8   8   8   8   8   8   8   8
#     4  10  20  34  53  75 102 136 168 202 251 307
#     4   8  14  26  45  68  96 133 173 207 244 297
#     4   9  16  25  40  66 101 138 172 207 248 291
#     4   9  17  30  49  74 105 139 172 204 244 300
#     4  10  20  35  55  77 101 131 170 213 255 301
#     4  12  24  40  59  76  96 127 169 218 263 306
#     4  12  24  36  52  75 102 134 171 212 256 301
#     4   9  18  33  52  75 105 139 172 209 256 307
#
# _framework density 17.319772
#
# number of rings (size 3 to 8) (size 9 to 14) (size 15 to 20)
#    0.000    2.125    1.250    4.125    0.000    6.000 
#    0.000    1.250    0.000    2.250    0.000    0.875 
#    0.000    0.000    0.000    0.000    0.000    0.000 
#
# Total GULP energy -793595.588329 kJ/mol
# GULP energy per Si atom -12399.931068 kJ/mol
# Density = 1.728035 g / cm^3
# Si number density = 17.319772 Si / 1000 Ang^3
#
#
#
# Elastic Constant Matrix: (Units=GPa)
#
#
# Indices 1 2 3 4 5 6 
#
# 1 66.5285 28.2761 34.7129 0.0000 0.0000 0.0000
# 2 28.2761 75.5262 43.8717 0.0000 0.0000 0.0000
# 3 34.7129 43.8717 129.0964 0.0000 0.0000 0.0000
# 4 0.0000 0.0000 0.0000 22.2333 0.0000 0.0000
# 5 0.0000 0.0000 0.0000 0.0000 6.7199 0.0000
# 6 0.0000 0.0000 0.0000 0.0000 0.0000 22.9257
#
#
#
# Elastic Compliance Matrix: (Units=1/GPa)
#
#
# Indices 1 2 3 4 5 6 
#
# 1 0.018970 -0.005157 -0.003348 0.000000 0.000000 0.000000
# 2 -0.005157 0.017899 -0.004696 0.000000 0.000000 0.000000
# 3 -0.003348 -0.004696 0.010242 0.000000 0.000000 0.000000
# 4 0.000000 0.000000 0.000000 0.044978 0.000000 0.000000
# 5 0.000000 0.000000 0.000000 0.000000 0.148811 0.000000
# 6 0.000000 0.000000 0.000000 0.000000 0.000000 0.043619
#
#
# Mechanical properties :
#
#
# Convention : Reuss Voigt Hill
#
# Bulk Modulus (GPa) = 48.28941 53.87472 51.08206
# Shear Modulus (GPa) = 15.73192 21.32849 18.53021
#
# Velocity S-wave (km/s) = 3.01711 3.51301 3.27446
# Velocity P-wave (km/s) = 6.33079 6.90134 6.62221
#
# Compressibility (1/GPa) = 0.02070848
#
# Stress axis : x y z
#
# Youngs Moduli (GPa) = 52.71440 55.86876 97.63382
#
# Poissons Ratio (x) = 0.28813 0.32691
# Poissons Ratio (y) = 0.27186 0.45849
# Poissons Ratio (z) = 0.17650 0.26236
#
# Static dielectric constant tensor:
#      x y z
#    x 3.330110 0.000000 0.000000 
#    y 0.000000 3.247740 0.000000 
#    z 0.000000 0.000000 3.418130 
# 
# 
# High freq. dielectric constant tensor:
#      x y z
#    x 1.631220 0.000000 0.000000 
#    y 0.000000 1.666950 0.000000 
#    z 0.000000 0.000000 1.677930 
# 
# From -- ./inp_files/28270.got.cif
#   From: 2010.03.12/outbox.cif.g09.slc.cpg/sg59_15_cif.got.tgz:28270.got - 2010.04.16 16:29:54.
