data_PCOD8243884
_publ_section_title
;
Structure prediction by ZEFSAII (Michael W. Deem and Ramdas Pophale) SiO2 
 PCOD8243884
Probable space group: P M M N
;
_chemical_formula_sum "Si O2"
_cell_formula_units_Z 56
_cell_length_a 8.852693
_cell_length_b 22.659297
_cell_length_c 14.745172
_cell_angle_alpha 90.000000
_cell_angle_beta 90.000000
_cell_angle_gamma 90.000000
_cell_volume 2957.819573
_symmetry_space_group_name_H-M "P M M N"
_symmetry_group_IT_number 59
_space_group.IT_coordinate_system_code '2'
_symmetry_cell_setting 'orthorhombic'
loop_
_space_group_symop_operation_xyz
x,y,z
1/2-x,1/2-y,z
1/2+x,-y,-z
-x,1/2+y,-z
-x,-y,-z
1/2+x,1/2+y,-z
1/2-x,y,z
x,1/2-y,z
loop_
_atom_site_type_symbol
_atom_site_label
_atom_site_fract_x
_atom_site_fract_y
_atom_site_fract_z
Si Si1 0.073443 0.986042 0.404462
Si Si2 0.423871 0.544347 0.889166
Si Si3 0.073827 0.683804 0.207081
Si Si4 0.423645 0.817026 0.557232
Si Si5 0.578097 0.413670 0.301361
Si Si6 0.571466 0.075741 0.913841
Si Si7 0.928146 0.635017 0.379160
O O1 0.250000 0.976545 0.418260
O O2 0.002950 0.928011 0.359926
O O3 0.000000 0.000000 0.500000
O O4 0.041820 0.039731 0.337864
O O5 0.250000 0.527076 0.901905
O O6 0.447021 0.590718 0.807008
O O7 0.509531 0.483328 0.865998
O O8 0.484294 0.575368 0.981151
O O9 0.250000 0.673256 0.226643
O O10 0.046125 0.750000 0.168289
O O11 0.011030 0.635135 0.135564
O O12 0.985961 0.679411 0.302149
O O13 0.250000 0.823599 0.526052
O O14 0.468043 0.750000 0.576851
O O15 0.453796 0.851030 0.651515
O O16 0.528142 0.842312 0.478477
O O17 0.750000 0.434517 0.322572
O O18 0.750000 0.074823 0.906984
O O19 0.750000 0.628954 0.373989
#
# Coordination Sequence:
#
# PCOD8243884 Si02
#       7
#     8   8   8   8   8   8   8
#     4  12  23  36  55  81 111 143 179 224 274 325
#     4   9  18  33  55  82 109 138 176 224 277 328
#     4  10  21  37  56  79 110 149 189 230 277 330
#     4  10  21  37  55  74 103 145 186 223 266 320
#     4  10  20  35  55  80 111 144 180 224 272 325
#     4   9  18  34  55  80 108 139 177 222 274 330
#     4  12  24  37  55  80 109 144 184 228 276 327
#
# _framework density 18.932866000000001
#
# number of rings (size 3 to 8) (size 9 to 14) (size 15 to 20)
#    0.000    1.714    1.429    3.857    0.000    5.714 
#    0.000    0.714    0.000    4.286    0.000    0.000 
#    0.000    5.714    0.000    0.000    0.000    0.000 
#
# Total GULP energy -694452.615409 kJ/mol
# GULP energy per Si atom -12400.939561 kJ/mol
# Density = 1.888977 g / cm^3
# Si number density = 18.932866 Si / 1000 Ang^3
#
#
#
# Elastic Constant Matrix: (Units=GPa)
#
#
# Indices 1 2 3 4 5 6 
#
# 1 74.1423 29.3884 23.5522 0.0000 0.0000 0.0000
# 2 29.3884 109.7086 40.8562 0.0000 0.0000 0.0000
# 3 23.5522 40.8562 100.7691 0.0000 0.0000 0.0000
# 4 0.0000 0.0000 0.0000 29.8623 0.0000 0.0000
# 5 0.0000 0.0000 0.0000 0.0000 20.2628 0.0000
# 6 0.0000 0.0000 0.0000 0.0000 0.0000 24.1085
#
#
#
# Elastic Compliance Matrix: (Units=1/GPa)
#
#
# Indices 1 2 3 4 5 6 
#
# 1 0.015525 -0.003307 -0.002288 0.000000 0.000000 0.000000
# 2 -0.003307 0.011440 -0.003866 0.000000 0.000000 0.000000
# 3 -0.002288 -0.003866 0.012026 0.000000 0.000000 0.000000
# 4 0.000000 0.000000 0.000000 0.033487 0.000000 0.000000
# 5 0.000000 0.000000 0.000000 0.000000 0.049352 0.000000
# 6 0.000000 0.000000 0.000000 0.000000 0.000000 0.041479
#
#
# Mechanical properties :
#
#
# Convention : Reuss Voigt Hill
#
# Bulk Modulus (GPa) = 49.82379 52.46815 51.14597
# Shear Modulus (GPa) = 26.46627 27.56827 27.01727
#
# Velocity S-wave (km/s) = 3.74291 3.82004 3.78167
# Velocity P-wave (km/s) = 6.71210 6.87239 6.79272
#
# Compressibility (1/GPa) = 0.02007073
#
# Stress axis : x y z
#
# Youngs Moduli (GPa) = 64.41188 87.40929 83.15539
#
# Poissons Ratio (x) = 0.28904 0.19025
# Poissons Ratio (y) = 0.21300 0.32144
# Poissons Ratio (z) = 0.14737 0.33789
#
# Static dielectric constant tensor:
#      x y z
#    x 3.437500 0.000000 0.000000 
#    y 0.000000 3.645670 0.000000 
#    z 0.000000 0.000000 3.638600 
# 
# 
# High freq. dielectric constant tensor:
#      x y z
#    x 1.728250 0.000000 0.000000 
#    y 0.000000 1.729240 0.000000 
#    z 0.000000 0.000000 1.736490 
# 
# From -- ./inp_files/20929.got.cif
#   From: 2010.03.12/outbox.cif.g09.slc.cpg/sg59_11_cif.got.tgz:20929.got - 2010.04.16 16:29:54.
