data_PCOD8244141
_publ_section_title
;
Structure prediction by ZEFSAII (Michael W. Deem and Ramdas Pophale) SiO2 
 PCOD8244141
Probable space group: P M M N
;
_chemical_formula_sum "Si O2"
_cell_formula_units_Z 56
_cell_length_a 17.593492
_cell_length_b 13.928893
_cell_length_c 11.768533
_cell_angle_alpha 90.000000
_cell_angle_beta 90.000000
_cell_angle_gamma 90.000000
_cell_volume 2883.971601
_symmetry_space_group_name_H-M "P M M N"
_symmetry_group_IT_number 59
_space_group.IT_coordinate_system_code '2'
_symmetry_cell_setting 'orthorhombic'
loop_
_space_group_symop_operation_xyz
x,y,z
1/2-x,1/2-y,z
1/2+x,-y,-z
-x,1/2+y,-z
-x,-y,-z
1/2+x,1/2+y,-z
1/2-x,y,z
x,1/2-y,z
loop_
_atom_site_type_symbol
_atom_site_label
_atom_site_fract_x
_atom_site_fract_y
_atom_site_fract_z
Si Si1 0.087679 0.020110 0.481237
Si Si2 0.436756 0.001851 0.238629
Si Si3 0.337713 0.859640 0.615854
Si Si4 0.161734 0.540449 0.032480
Si Si5 0.066479 0.862485 0.838357
Si Si6 0.164001 0.143790 0.894448
Si Si7 0.562412 0.638410 0.315785
O O1 0.106139 0.106458 0.568815
O O2 0.102957 0.051162 0.349810
O O3 0.137490 0.926369 0.511463
O O4 0.000000 0.000000 0.500000
O O5 0.373052 0.955073 0.158281
O O6 0.483143 0.914143 0.293407
O O7 0.488276 0.077439 0.168579
O O8 0.250000 0.875528 0.646048
O O9 0.354098 0.750000 0.580308
O O10 0.385004 0.888548 0.727265
O O11 0.250000 0.572901 0.033879
O O12 0.114632 0.609993 0.949671
O O13 0.152560 0.429676 0.996716
O O14 0.046829 0.750000 0.845113
O O15 0.250000 0.144792 0.851265
O O16 0.139046 0.250000 0.936770
O O17 0.115443 0.108845 0.788521
O O18 0.545596 0.750000 0.323123
#
# Coordination Sequence:
#
# PCOD8244141 Si02
#       7
#     8   8   8   8   8   8   8
#     4  10  20  37  56  82 119 157 198 242 291 352
#     4  11  23  40  57  87 120 160 203 239 299 361
#     4  10  20  36  62  93 122 156 200 251 306 357
#     4  11  23  40  60  84 121 159 197 246 298 361
#     4  11  22  38  62  91 121 155 203 256 302 352
#     4   9  18  34  58  85 112 147 192 242 295 347
#     4  10  20  35  58  86 114 150 195 248 296 343
#
# _framework density 19.417667000000002
#
# number of rings (size 3 to 8) (size 9 to 14) (size 15 to 20)
#    0.000    1.714    4.286    0.857    0.000    7.143 
#    0.000    0.000    0.000    0.000    0.000    2.000 
#    0.000    0.000    0.000    0.000    0.000    0.000 
#
# Total GULP energy -694323.766995 kJ/mol
# GULP energy per Si atom -12398.638696 kJ/mol
# Density = 1.937347 g / cm^3
# Si number density = 19.417667 Si / 1000 Ang^3
#
#
#
# Elastic Constant Matrix: (Units=GPa)
#
#
# Indices 1 2 3 4 5 6 
#
# 1 55.7865 22.9809 35.1361 0.0000 0.0000 0.0000
# 2 22.9809 76.5150 27.9912 0.0000 0.0000 0.0000
# 3 35.1361 27.9912 124.5734 0.0000 0.0000 0.0000
# 4 0.0000 0.0000 0.0000 18.6437 0.0000 0.0000
# 5 0.0000 0.0000 0.0000 0.0000 22.4574 0.0000
# 6 0.0000 0.0000 0.0000 0.0000 0.0000 22.6198
#
#
#
# Elastic Compliance Matrix: (Units=1/GPa)
#
#
# Indices 1 2 3 4 5 6 
#
# 1 0.023455 -0.005039 -0.005483 0.000000 0.000000 0.000000
# 2 -0.005039 0.015322 -0.002022 0.000000 0.000000 0.000000
# 3 -0.005483 -0.002022 0.010028 0.000000 0.000000 0.000000
# 4 0.000000 0.000000 0.000000 0.053637 0.000000 0.000000
# 5 0.000000 0.000000 0.000000 0.000000 0.044529 0.000000
# 6 0.000000 0.000000 0.000000 0.000000 0.000000 0.044209
#
#
# Mechanical properties :
#
#
# Convention : Reuss Voigt Hill
#
# Bulk Modulus (GPa) = 42.16205 47.67681 44.91943
# Shear Modulus (GPa) = 22.30416 24.12863 23.21640
#
# Velocity S-wave (km/s) = 3.39286 3.52889 3.46154
# Velocity P-wave (km/s) = 6.09172 6.41956 6.25779
#
# Compressibility (1/GPa) = 0.02371801
#
# Stress axis : x y z
#
# Youngs Moduli (GPa) = 42.63551 65.26459 99.71855
#
# Poissons Ratio (x) = 0.32884 0.54678
# Poissons Ratio (y) = 0.21482 0.20160
# Poissons Ratio (z) = 0.23378 0.13195
#
# Static dielectric constant tensor:
#      x y z
#    x 3.754510 0.000000 0.000000 
#    y 0.000000 3.634230 0.000000 
#    z 0.000000 0.000000 3.792780 
# 
# 
# High freq. dielectric constant tensor:
#      x y z
#    x 1.743090 0.000000 0.000000 
#    y 0.000000 1.755780 0.000000 
#    z 0.000000 0.000000 1.754770 
# 
# From -- ./inp_files/16935.got.cif
#   From: 2010.03.12/outbox.cif.g09.slc.cpg/sg59_9_cif.got.tgz:16935.got - 2010.04.16 16:29:54.
