data_PCOD8244917
_publ_section_title
;
Structure prediction by ZEFSAII (Michael W. Deem and Ramdas Pophale) SiO2 
 PCOD8244917
Probable space group: P M M N
;
_chemical_formula_sum "Si O2"
_cell_formula_units_Z 56
_cell_length_a 8.974195
_cell_length_b 14.480111
_cell_length_c 22.514865
_cell_angle_alpha 90.000000
_cell_angle_beta 90.000000
_cell_angle_gamma 90.000000
_cell_volume 2925.746811
_symmetry_space_group_name_H-M "P M M N"
_symmetry_group_IT_number 59
_space_group.IT_coordinate_system_code '2'
_symmetry_cell_setting 'orthorhombic'
loop_
_space_group_symop_operation_xyz
x,y,z
1/2-x,1/2-y,z
1/2+x,-y,-z
-x,1/2+y,-z
-x,-y,-z
1/2+x,1/2+y,-z
1/2-x,y,z
x,1/2-y,z
loop_
_atom_site_type_symbol
_atom_site_label
_atom_site_fract_x
_atom_site_fract_y
_atom_site_fract_z
Si Si1 0.079197 0.359114 0.109833
Si Si2 0.073777 0.558266 0.663272
Si Si3 0.572149 0.939076 0.448627
Si Si4 0.417651 0.859876 0.007263
Si Si5 0.427962 0.750000 0.478292
Si Si6 0.076603 0.145894 0.874946
Si Si7 0.575140 0.020261 0.205810
Si Si8 0.926981 0.250000 0.384975
O O1 0.250000 0.388780 0.108339
O O2 0.058159 0.250000 0.114020
O O3 0.004513 0.399063 0.049854
O O4 0.002749 0.401348 0.167403
O O5 0.250000 0.566270 0.665310
O O6 0.026758 0.484157 0.614035
O O7 0.012151 0.525994 0.727190
O O8 0.006877 0.659003 0.646902
O O9 0.750000 0.934675 0.457602
O O10 0.499855 0.838445 0.447086
O O11 0.500000 0.000000 0.500000
O O12 0.250000 0.897267 0.004395
O O13 0.424542 0.750000 0.006737
O O14 0.492363 0.895462 0.067882
O O15 0.250000 0.750000 0.470475
O O16 0.476975 0.750000 0.546773
O O17 0.250000 0.144233 0.890656
O O18 0.024121 0.250000 0.859405
O O19 0.038060 0.081830 0.818774
O O20 0.750000 0.040394 0.203670
O O21 0.750000 0.250000 0.381810
#
# Coordination Sequence:
#
# PCOD8244917 Si02
#       8
#     8   8   8   8   4   8   8   4
#     4  10  21  36  53  77 112 146 175 219 280 333
#     4   9  19  35  56  84 115 149 189 231 276 329
#     4  11  21  37  60  89 121 154 195 243 291 343
#     4   9  17  31  54  81 104 134 180 227 271 325
#     4  11  21  37  61  89 121 155 192 239 296 347
#     4   9  18  34  54  77 106 138 175 226 282 328
#     4  10  21  36  56  81 106 142 190 228 267 327
#     4   9  16  31  57  85 113 147 182 223 276 331
#
# _framework density 19.140412000000001
#
# number of rings (size 3 to 8) (size 9 to 14) (size 15 to 20)
#    0.000    2.286    1.429    1.500    1.000    3.714 
#    1.286    1.429    0.000    0.000    0.000    0.000 
#    0.000    0.000    0.000    0.000    0.000    0.000 
#
# Total GULP energy -694446.748367 kJ/mol
# GULP energy per Si atom -12400.834792 kJ/mol
# Density = 1.909685 g / cm^3
# Si number density = 19.140412 Si / 1000 Ang^3
#
#
#
# Elastic Constant Matrix: (Units=GPa)
#
#
# Indices 1 2 3 4 5 6 
#
# 1 72.7140 43.0937 55.6793 0.0000 0.0000 0.0000
# 2 43.0937 115.8616 78.5560 0.0000 0.0000 0.0000
# 3 55.6793 78.5560 186.2338 0.0000 0.0000 0.0000
# 4 0.0000 0.0000 0.0000 27.6001 0.0000 0.0000
# 5 0.0000 0.0000 0.0000 0.0000 25.4838 0.0000
# 6 0.0000 0.0000 0.0000 0.0000 0.0000 26.1874
#
#
#
# Elastic Compliance Matrix: (Units=1/GPa)
#
#
# Indices 1 2 3 4 5 6 
#
# 1 0.019448 -0.004609 -0.003870 0.000000 0.000000 0.000000
# 2 -0.004609 0.013181 -0.004182 0.000000 0.000000 0.000000
# 3 -0.003870 -0.004182 0.008291 0.000000 0.000000 0.000000
# 4 0.000000 0.000000 0.000000 0.036232 0.000000 0.000000
# 5 0.000000 0.000000 0.000000 0.000000 0.039241 0.000000
# 6 0.000000 0.000000 0.000000 0.000000 0.000000 0.038186
#
#
# Mechanical properties :
#
#
# Convention : Reuss Voigt Hill
#
# Bulk Modulus (GPa) = 64.11672 81.05193 72.58432
# Shear Modulus (GPa) = 27.01260 29.01962 28.01611
#
# Velocity S-wave (km/s) = 3.76078 3.89799 3.83000
# Velocity P-wave (km/s) = 7.24077 7.91815 7.58702
#
# Compressibility (1/GPa) = 0.01559656
#
# Stress axis : x y z
#
# Youngs Moduli (GPa) = 51.41995 75.86866 120.61951
#
# Poissons Ratio (x) = 0.34971 0.46680
# Poissons Ratio (y) = 0.23702 0.50439
# Poissons Ratio (z) = 0.19900 0.31726
#
# Static dielectric constant tensor:
#      x y z
#    x 3.390430 0.000000 0.000000 
#    y 0.000000 3.900970 0.000000 
#    z 0.000000 0.000000 3.694330 
# 
# 
# High freq. dielectric constant tensor:
#      x y z
#    x 1.725980 0.000000 0.000000 
#    y 0.000000 1.751420 0.000000 
#    z 0.000000 0.000000 1.742920 
# 
# From -- ./inp_files/29236.got.cif
#   From: 2010.03.12/outbox.cif.g09.slc.cpg/sg59_15_cif.got.tgz:29236.got - 2010.04.16 16:29:54.
