data_PCOD8244143
_publ_section_title
;
Structure prediction by ZEFSAII (Michael W. Deem and Ramdas Pophale) SiO2 
 PCOD8244143
Probable space group: P M M N
;
_chemical_formula_sum "Si O2"
_cell_formula_units_Z 56
_cell_length_a 21.195934
_cell_length_b 8.893327
_cell_length_c 14.176622
_cell_angle_alpha 90.000000
_cell_angle_beta 90.000000
_cell_angle_gamma 90.000000
_cell_volume 2672.326876
_symmetry_space_group_name_H-M "P M M N"
_symmetry_group_IT_number 59
_space_group.IT_coordinate_system_code '2'
_symmetry_cell_setting 'orthorhombic'
loop_
_space_group_symop_operation_xyz
x,y,z
1/2-x,1/2-y,z
1/2+x,-y,-z
-x,1/2+y,-z
-x,-y,-z
1/2+x,1/2+y,-z
1/2-x,y,z
x,1/2-y,z
loop_
_atom_site_type_symbol
_atom_site_label
_atom_site_fract_x
_atom_site_fract_y
_atom_site_fract_z
Si Si1 0.180948 0.586808 0.753774
Si Si2 0.179056 0.426793 0.063018
Si Si3 0.506325 0.927591 0.229986
Si Si4 0.412857 0.917804 0.921422
Si Si5 0.322190 0.426385 0.440089
Si Si6 0.638729 0.426830 0.750992
Si Si7 0.896479 0.922639 0.381720
O O1 0.250000 0.553651 0.790410
O O2 0.174978 0.750000 0.701857
O O3 0.141700 0.590582 0.847070
O O4 0.163295 0.451198 0.684948
O O5 0.250000 0.466233 0.024170
O O6 0.168469 0.250000 0.060196
O O7 0.176959 0.484851 0.169800
O O8 0.119056 0.499496 0.009803
O O9 0.518005 0.750000 0.223962
O O10 0.434549 0.972539 0.245106
O O11 0.544006 0.994039 0.323153
O O12 0.528847 0.996135 0.129106
O O13 0.435016 0.750000 0.952453
O O14 0.250000 0.451983 0.476080
O O15 0.332976 0.250000 0.419207
O O16 0.332586 0.524753 0.348091
O O17 0.374886 0.486505 0.516161
O O18 0.648062 0.250000 0.765558
O O19 0.910532 0.750000 0.395945
#
# Coordination Sequence:
#
# PCOD8244143 Si02
#       7
#     8   8   8   8   8   8   8
#     4   9  17  29  47  76 113 146 177 220 273 327
#     4  11  24  41  61  85 113 148 190 235 284 337
#     4   9  20  39  59  84 117 150 189 233 279 336
#     4  10  20  35  58  86 115 148 185 229 282 338
#     4  10  21  37  57  83 114 148 188 234 284 336
#     4  11  24  40  59  82 111 150 193 239 286 332
#     4   9  18  34  56  80 109 146 186 228 274 331
#
# _framework density 20.95552
#
# number of rings (size 3 to 8) (size 9 to 14) (size 15 to 20)
#    0.000    2.143    0.000    2.571    0.000    8.000 
#    0.000    0.000    0.000    0.000    0.000    0.000 
#    0.000    0.000    0.000    0.000    0.000    0.000 
#
# Total GULP energy -693770.815703 kJ/mol
# GULP energy per Si atom -12388.764566 kJ/mol
# Density = 2.090782 g / cm^3
# Si number density = 20.955520 Si / 1000 Ang^3
#
#
#
# Elastic Constant Matrix: (Units=GPa)
#
#
# Indices 1 2 3 4 5 6 
#
# 1 74.3336 31.5986 11.5689 0.0000 0.0000 0.0000
# 2 31.5986 51.6927 23.4359 0.0000 0.0000 0.0000
# 3 11.5689 23.4359 88.0838 0.0000 0.0000 0.0000
# 4 0.0000 0.0000 0.0000 32.5655 0.0000 0.0000
# 5 0.0000 0.0000 0.0000 0.0000 -19.2206 0.0000
# 6 0.0000 0.0000 0.0000 0.0000 0.0000 15.5084
#
#
#
# Elastic Compliance Matrix: (Units=1/GPa)
#
#
# Indices 1 2 3 4 5 6 
#
# 1 0.018208 -0.011424 0.000648 0.000000 0.000000 0.000000
# 2 -0.011424 0.029166 -0.006260 0.000000 0.000000 0.000000
# 3 0.000648 -0.006260 0.012933 0.000000 0.000000 0.000000
# 4 0.000000 0.000000 0.000000 0.030707 0.000000 0.000000
# 5 0.000000 0.000000 0.000000 0.000000 -0.052027 0.000000
# 6 0.000000 0.000000 0.000000 0.000000 0.000000 0.064481
#
#
# Mechanical properties :
#
#
# Convention : Reuss Voigt Hill
#
# Bulk Modulus (GPa) = 38.11504 38.59078 38.35291
# Shear Modulus (GPa) = 34.17965 15.60444 24.89204
#
# Velocity S-wave (km/s) = 4.04302 2.73178 3.45026
# Velocity P-wave (km/s) = 6.32635 5.32970 5.84929
#
# Compressibility (1/GPa) = 0.02623636
#
# Stress axis : x y z
#
# Youngs Moduli (GPa) = 54.92001 34.28608 77.32047
#
# Poissons Ratio (x) = 0.39169 -0.05011
# Poissons Ratio (y) = 0.62741 0.48400
# Poissons Ratio (z) = -0.03559 0.21462
#
# Static dielectric constant tensor:
#      x y z
#    x 4.345200 0.000000 0.000000 
#    y 0.000000 3.984370 0.000000 
#    z 0.000000 0.000000 3.895730 
# 
# 
# High freq. dielectric constant tensor:
#      x y z
#    x 1.826980 0.000000 0.000000 
#    y 0.000000 1.810630 0.000000 
#    z 0.000000 0.000000 1.818210 
# 
# From -- ./inp_files/24257.got.cif
#   From: 2010.03.12/outbox.cif.g09.slc.cpg/sg59_13_cif.got.tgz:24257.got - 2010.04.16 16:29:54.
