data_PCOD8244401
_publ_section_title
;
Structure prediction by ZEFSAII (Michael W. Deem and Ramdas Pophale) SiO2 
 PCOD8244401
Probable space group: P M M N
;
_chemical_formula_sum "Si O2"
_cell_formula_units_Z 64
_cell_length_a 28.862462
_cell_length_b 8.931736
_cell_length_c 12.455572
_cell_angle_alpha 90.000000
_cell_angle_beta 90.000000
_cell_angle_gamma 90.000000
_cell_volume 3210.945458
_symmetry_space_group_name_H-M "P M M N"
_symmetry_group_IT_number 59
_space_group.IT_coordinate_system_code '2'
_symmetry_cell_setting 'orthorhombic'
loop_
_space_group_symop_operation_xyz
x,y,z
1/2-x,1/2-y,z
1/2+x,-y,-z
-x,1/2+y,-z
-x,-y,-z
1/2+x,1/2+y,-z
1/2-x,y,z
x,1/2-y,z
loop_
_atom_site_type_symbol
_atom_site_label
_atom_site_fract_x
_atom_site_fract_y
_atom_site_fract_z
Si Si1 0.607038 0.074233 0.621882
Si Si2 0.076224 0.080354 0.592216
Si Si3 0.198884 0.423500 0.426563
Si Si4 0.697987 0.422934 0.121735
Si Si5 0.679100 0.917999 0.335443
Si Si6 0.540973 0.422053 0.213259
Si Si7 0.108783 0.425971 0.953739
Si Si8 0.063994 0.421545 0.177909
O O1 0.605836 0.250000 0.604093
O O2 0.580757 0.997686 0.522795
O O3 0.660465 0.021663 0.633481
O O4 0.580874 0.031929 0.729968
O O5 0.059513 0.250000 0.572498
O O6 0.123940 0.075079 0.657138
O O7 0.039423 0.995564 0.667835
O O8 0.250000 0.452729 0.376500
O O9 0.184166 0.250000 0.415562
O O10 0.201058 0.467261 0.551698
O O11 0.750000 0.450867 0.077272
O O12 0.684153 0.250000 0.112072
O O13 0.696809 0.467883 0.246569
O O14 0.661933 0.519833 0.052461
O O15 0.695041 0.750000 0.304621
O O16 0.555023 0.250000 0.226386
O O17 0.578612 0.498750 0.138241
O O18 0.490739 0.441413 0.160116
O O19 0.106912 0.250000 0.934350
O O20 0.089072 0.471479 0.069140
O O21 0.076121 0.250000 0.208159
#
# Coordination Sequence:
#
# PCOD8244401 Si02
#       8
#     8   8   8   8   8   8   8   8
#     4  11  23  38  59  87 120 158 199 247 300 348
#     4  10  20  36  59  87 123 161 193 233 288 352
#     4   9  18  34  57  83 114 155 199 242 292 353
#     4  11  23  36  54  84 121 157 193 240 295 346
#     4   9  17  31  53  82 116 153 191 233 283 346
#     4  11  22  38  64  94 121 150 191 247 303 353
#     4  11  23  41  64  88 118 156 197 242 294 355
#     4  10  24  44  63  85 115 156 204 247 293 355
#
# _framework density 19.931825
#
# number of rings (size 3 to 8) (size 9 to 14) (size 15 to 20)
#    0.000    1.750    1.250    4.125    0.000    6.250 
#    0.000    0.625    0.000    0.750    0.000    0.000 
#    0.000    0.000    0.000    0.000    0.000    0.000 
#
# Total GULP energy -793773.301563 kJ/mol
# GULP energy per Si atom -12402.707837 kJ/mol
# Density = 1.988646 g / cm^3
# Si number density = 19.931825 Si / 1000 Ang^3
#
#
#
# Elastic Constant Matrix: (Units=GPa)
#
#
# Indices 1 2 3 4 5 6 
#
# 1 82.7018 38.9691 41.5512 0.0000 0.0000 0.0000
# 2 38.9691 123.9538 53.9142 0.0000 0.0000 0.0000
# 3 41.5512 53.9142 94.0354 0.0000 0.0000 0.0000
# 4 0.0000 0.0000 0.0000 19.0342 0.0000 0.0000
# 5 0.0000 0.0000 0.0000 0.0000 5.5938 0.0000
# 6 0.0000 0.0000 0.0000 0.0000 0.0000 25.5313
#
#
#
# Elastic Compliance Matrix: (Units=1/GPa)
#
#
# Indices 1 2 3 4 5 6 
#
# 1 0.016161 -0.002631 -0.005633 0.000000 0.000000 0.000000
# 2 -0.002631 0.011176 -0.005245 0.000000 0.000000 0.000000
# 3 -0.005633 -0.005245 0.016130 0.000000 0.000000 0.000000
# 4 0.000000 0.000000 0.000000 0.052537 0.000000 0.000000
# 5 0.000000 0.000000 0.000000 0.000000 0.178770 0.000000
# 6 0.000000 0.000000 0.000000 0.000000 0.000000 0.039168
#
#
# Mechanical properties :
#
#
# Convention : Reuss Voigt Hill
#
# Bulk Modulus (GPa) = 60.78946 63.28445 62.03696
# Shear Modulus (GPa) = 14.43238 21.11562 17.77400
#
# Velocity S-wave (km/s) = 2.69381 3.25836 2.98944
# Velocity P-wave (km/s) = 6.34353 6.78051 6.56565
#
# Compressibility (1/GPa) = 0.01645022
#
# Stress axis : x y z
#
# Youngs Moduli (GPa) = 61.87605 89.47729 61.99439
#
# Poissons Ratio (x) = 0.23540 0.34920
# Poissons Ratio (y) = 0.16279 0.32517
# Poissons Ratio (z) = 0.34854 0.46932
#
# Static dielectric constant tensor:
#      x y z
#    x 3.836070 0.000000 0.000000 
#    y 0.000000 3.642670 0.000000 
#    z 0.000000 0.000000 3.449230 
# 
# 
# High freq. dielectric constant tensor:
#      x y z
#    x 1.784180 0.000000 0.000000 
#    y 0.000000 1.779960 0.000000 
#    z 0.000000 0.000000 1.759280 
# 
# From -- ./inp_files/19231.got.cif
#   From: 2010.03.12/outbox.cif.g09.slc.cpg/sg59_10_cif.got.tgz:19231.got - 2010.04.16 16:29:54.
