data_PCOD8244222
_publ_section_title
;
Structure prediction by ZEFSAII (Michael W. Deem and Ramdas Pophale) SiO2 
 PCOD8244222
Probable space group: P M M N
;
_chemical_formula_sum "Si O2"
_cell_formula_units_Z 40
_cell_length_a 8.780324
_cell_length_b 15.032142
_cell_length_c 15.404873
_cell_angle_alpha 90.000000
_cell_angle_beta 90.000000
_cell_angle_gamma 90.000000
_cell_volume 2033.244162
_symmetry_space_group_name_H-M "P M M N"
_symmetry_group_IT_number 59
_space_group.IT_coordinate_system_code '2'
_symmetry_cell_setting 'orthorhombic'
loop_
_space_group_symop_operation_xyz
x,y,z
1/2-x,1/2-y,z
1/2+x,-y,-z
-x,1/2+y,-z
-x,-y,-z
1/2+x,1/2+y,-z
1/2-x,y,z
x,1/2-y,z
loop_
_atom_site_type_symbol
_atom_site_label
_atom_site_fract_x
_atom_site_fract_y
_atom_site_fract_z
Si Si1 0.070642 0.387555 0.167784
Si Si2 0.569774 0.067812 0.755402
Si Si3 0.568657 0.750000 0.694686
Si Si4 0.930433 0.250000 0.839723
Si Si5 0.930477 0.750000 0.502017
Si Si6 0.430714 0.250000 0.028207
Si Si7 0.069521 0.064461 0.571141
O O1 0.250000 0.376268 0.167244
O O2 0.024242 0.491522 0.173960
O O3 0.009429 0.336939 0.253598
O O4 0.012117 0.338399 0.080418
O O5 0.750000 0.069899 0.740430
O O6 0.508245 0.162371 0.790181
O O7 0.490894 0.040528 0.665990
O O8 0.750000 0.750000 0.687517
O O9 0.496871 0.750000 0.598557
O O10 0.750000 0.250000 0.842264
O O11 0.989132 0.250000 0.936669
O O12 0.750000 0.750000 0.509419
O O13 0.987430 0.663966 0.450126
O O14 0.250000 0.250000 0.014624
O O15 0.250000 0.055791 0.568520
O O16 0.000000 0.000000 0.500000
#
# Coordination Sequence:
#
# PCOD8244222 Si02
#       7
#     8   8   4   4   4   4   8
#     4   8  15  29  52  76  97 126 168 215 259 306
#     4  10  20  36  54  73 103 142 178 214 262 318
#     4   8  12  23  45  71  93 120 165 212 250 290
#     4  10  22  36  52  77 110 143 172 211 268 321
#     4   9  18  31  50  74 103 142 182 217 257 317
#     4   9  18  34  56  80 100 127 173 220 259 314
#     4  11  22  36  55  81 110 142 183 226 268 316
#
# _framework density 19.672992000000001
#
# number of rings (size 3 to 8) (size 9 to 14) (size 15 to 20)
#    0.000    2.600    0.000    3.600    0.000    4.800 
#    0.000    2.500    0.000    0.000    0.000    0.000 
#    0.000    0.000    0.000    0.000    0.000    0.000 
#
# Total GULP energy -495816.548741 kJ/mol
# GULP energy per Si atom -12395.413719 kJ/mol
# Density = 1.962822 g / cm^3
# Si number density = 19.672992 Si / 1000 Ang^3
#
#
#
# Elastic Constant Matrix: (Units=GPa)
#
#
# Indices 1 2 3 4 5 6 
#
# 1 25.0771 28.3752 22.6668 0.0000 0.0000 0.0000
# 2 28.3752 161.5988 55.5439 0.0000 0.0000 0.0000
# 3 22.6668 55.5439 127.8706 0.0000 0.0000 0.0000
# 4 0.0000 0.0000 0.0000 27.7951 0.0000 0.0000
# 5 0.0000 0.0000 0.0000 0.0000 31.7684 0.0000
# 6 0.0000 0.0000 0.0000 0.0000 0.0000 13.8472
#
#
#
# Elastic Compliance Matrix: (Units=1/GPa)
#
#
# Indices 1 2 3 4 5 6 
#
# 1 0.053875 -0.007262 -0.006396 0.000000 0.000000 0.000000
# 2 -0.007262 0.008253 -0.002298 0.000000 0.000000 0.000000
# 3 -0.006396 -0.002298 0.009952 0.000000 0.000000 0.000000
# 4 0.000000 0.000000 0.000000 0.035978 0.000000 0.000000
# 5 0.000000 0.000000 0.000000 0.000000 0.031478 0.000000
# 6 0.000000 0.000000 0.000000 0.000000 0.000000 0.072217
#
#
# Mechanical properties :
#
#
# Convention : Reuss Voigt Hill
#
# Bulk Modulus (GPa) = 24.89428 58.63535 41.76482
# Shear Modulus (GPa) = 19.45130 28.54617 23.99873
#
# Velocity S-wave (km/s) = 3.14782 3.81338 3.49647
# Velocity P-wave (km/s) = 5.08854 7.01846 6.12993
#
# Compressibility (1/GPa) = 0.04016987
#
# Stress axis : x y z
#
# Youngs Moduli (GPa) = 18.56157 121.16848 100.48026
#
# Poissons Ratio (x) = 0.87987 0.64265
# Poissons Ratio (y) = 0.13479 0.23087
# Poissons Ratio (z) = 0.11872 0.27841
#
# Static dielectric constant tensor:
#      x y z
#    x 3.121910 0.000000 0.000000 
#    y 0.000000 4.473790 0.000000 
#    z 0.000000 0.000000 3.597100 
# 
# 
# High freq. dielectric constant tensor:
#      x y z
#    x 1.718140 0.000000 0.000000 
#    y 0.000000 1.783080 0.000000 
#    z 0.000000 0.000000 1.769900 
# 
# From -- ./inp_files/20036.got.cif
#   From: 2010.03.12/outbox.cif.g09.slc.cpg/sg59_11_cif.got.tgz:20036.got - 2010.04.16 16:29:54.
