data_PCOD8244543
_publ_section_title
;
Structure prediction by ZEFSAII (Michael W. Deem and Ramdas Pophale) SiO2 
 PCOD8244543
Probable space group: P M M N
;
_chemical_formula_sum "Si O2"
_cell_formula_units_Z 48
_cell_length_a 27.973256
_cell_length_b 8.772551
_cell_length_c 10.039193
_cell_angle_alpha 90.000000
_cell_angle_beta 90.000000
_cell_angle_gamma 90.000000
_cell_volume 2463.585986
_symmetry_space_group_name_H-M "P M M N"
_symmetry_group_IT_number 59
_space_group.IT_coordinate_system_code '2'
_symmetry_cell_setting 'orthorhombic'
loop_
_space_group_symop_operation_xyz
x,y,z
1/2-x,1/2-y,z
1/2+x,-y,-z
-x,1/2+y,-z
-x,-y,-z
1/2+x,1/2+y,-z
1/2-x,y,z
x,1/2-y,z
loop_
_atom_site_type_symbol
_atom_site_label
_atom_site_fract_x
_atom_site_fract_y
_atom_site_fract_z
Si Si1 0.003503 0.570901 0.146492
Si Si2 0.100153 0.074042 0.220973
Si Si3 0.647488 0.570843 0.502201
Si Si4 0.250000 0.428559 0.587849
Si Si5 0.350393 0.923469 0.982534
Si Si6 0.750000 0.076834 0.131990
Si Si7 0.913054 0.072963 0.272923
O O1 0.000595 0.750000 0.127866
O O2 0.052696 0.527275 0.218373
O O3 0.961688 0.515771 0.243182
O O4 0.000000 0.500000 0.000000
O O5 0.084863 0.250000 0.221388
O O6 0.132230 0.032149 0.347960
O O7 0.131802 0.041158 0.091843
O O8 0.645292 0.750000 0.470944
O O9 0.701460 0.506034 0.479858
O O10 0.609878 0.486648 0.408308
O O11 0.250000 0.250000 0.567211
O O12 0.250000 0.464754 0.743637
O O13 0.360966 0.750000 0.028223
O O14 0.294679 0.954054 0.962789
O O15 0.375941 0.959288 0.844156
O O16 0.750000 0.250000 0.187418
O O17 0.925290 0.250000 0.287873
#
# Coordination Sequence:
#
# PCOD8244543 Si02
#       7
#     8   8   8   4   8   4   8
#     4  12  24  40  64  91 122 159 203 253 307 366
#     4  11  24  41  62  89 125 164 204 251 306 364
#     4  10  23  41  61  90 126 163 204 251 302 361
#     4  10  20  37  62  88 120 160 202 247 298 356
#     4  10  21  37  60  89 122 156 199 252 301 357
#     4  10  20  37  60  90 122 154 200 253 302 360
#     4  11  22  38  64  93 121 158 203 250 301 360
#
# _framework density 19.483792999999999
#
# number of rings (size 3 to 8) (size 9 to 14) (size 15 to 20)
#    0.000    1.333    3.333    2.500    0.000    4.000 
#    0.000    0.833    0.000    0.000    0.000    0.000 
#    0.000    0.000    0.000    0.000    0.000    0.000 
#
# Total GULP energy -595423.305765 kJ/mol
# GULP energy per Si atom -12404.652203 kJ/mol
# Density = 1.943945 g / cm^3
# Si number density = 19.483793 Si / 1000 Ang^3
#
#
#
# Elastic Constant Matrix: (Units=GPa)
#
#
# Indices 1 2 3 4 5 6 
#
# 1 119.9515 34.0580 1.8283 0.0000 0.0000 0.0000
# 2 34.0580 81.6413 32.5830 0.0000 0.0000 0.0000
# 3 1.8283 32.5830 24.8969 0.0000 0.0000 0.0000
# 4 0.0000 0.0000 0.0000 30.6022 0.0000 0.0000
# 5 0.0000 0.0000 0.0000 0.0000 14.4774 0.0000
# 6 0.0000 0.0000 0.0000 0.0000 0.0000 28.2643
#
#
#
# Elastic Compliance Matrix: (Units=1/GPa)
#
#
# Indices 1 2 3 4 5 6 
#
# 1 0.010626 -0.008628 0.010511 0.000000 0.000000 0.000000
# 2 -0.008628 0.032647 -0.042092 0.000000 0.000000 0.000000
# 3 0.010511 -0.042092 0.094480 0.000000 0.000000 0.000000
# 4 0.000000 0.000000 0.000000 0.032677 0.000000 0.000000
# 5 0.000000 0.000000 0.000000 0.000000 0.069073 0.000000
# 6 0.000000 0.000000 0.000000 0.000000 0.000000 0.035380
#
#
# Mechanical properties :
#
#
# Convention : Reuss Voigt Hill
#
# Bulk Modulus (GPa) = 17.44106 40.38093 28.91100
# Shear Modulus (GPa) = 13.35424 25.20348 19.27886
#
# Velocity S-wave (km/s) = 2.62086 3.60051 3.14902
# Velocity P-wave (km/s) = 4.25788 6.16890 5.30023
#
# Compressibility (1/GPa) = 0.05733595
#
# Stress axis : x y z
#
# Youngs Moduli (GPa) = 94.10681 30.63092 10.58424
#
# Poissons Ratio (x) = 0.26428 -0.11125
# Poissons Ratio (y) = 0.81194 0.44551
# Poissons Ratio (z) = -0.98917 1.28931
#
# Static dielectric constant tensor:
#      x y z
#    x 3.906660 0.000000 0.000000 
#    y 0.000000 3.594240 0.000000 
#    z 0.000000 0.000000 3.435460 
# 
# 
# High freq. dielectric constant tensor:
#      x y z
#    x 1.777720 0.000000 0.000000 
#    y 0.000000 1.759020 0.000000 
#    z 0.000000 0.000000 1.752230 
# 
# From -- ./inp_files/13065.got.cif
#   From: 2010.03.12/outbox.cif.g09.slc.cpg/sg59_7_cif.got.tgz:13065.got - 2010.04.16 16:29:54.
