data_PCOD8244887
_publ_section_title
;
Structure prediction by ZEFSAII (Michael W. Deem and Ramdas Pophale) SiO2 
 PCOD8244887
Probable space group: P M M N
;
_chemical_formula_sum "Si O2"
_cell_formula_units_Z 48
_cell_length_a 9.524056
_cell_length_b 9.306205
_cell_length_c 30.849163
_cell_angle_alpha 90.000000
_cell_angle_beta 90.000000
_cell_angle_gamma 90.000000
_cell_volume 2734.248236
_symmetry_space_group_name_H-M "P M M N"
_symmetry_group_IT_number 59
_space_group.IT_coordinate_system_code '2'
_symmetry_cell_setting 'orthorhombic'
loop_
_space_group_symop_operation_xyz
x,y,z
1/2-x,1/2-y,z
1/2+x,-y,-z
-x,1/2+y,-z
-x,-y,-z
1/2+x,1/2+y,-z
1/2-x,y,z
x,1/2-y,z
loop_
_atom_site_type_symbol
_atom_site_label
_atom_site_fract_x
_atom_site_fract_y
_atom_site_fract_z
Si Si1 0.913314 0.083592 0.876635
Si Si2 0.414042 0.582952 0.806199
Si Si3 0.911069 0.919232 0.464589
Si Si4 0.414090 0.082534 0.036285
Si Si5 0.917120 0.908746 0.369033
Si Si6 0.416234 0.592023 0.709315
O O1 0.750000 0.066905 0.865687
O O2 0.953218 0.250000 0.884742
O O3 0.954306 0.990727 0.918455
O O4 0.999532 0.021817 0.836699
O O5 0.250000 0.561796 0.815779
O O6 0.455435 0.750000 0.813279
O O7 0.451740 0.532896 0.757231
O O8 0.750000 0.958992 0.472804
O O9 0.935624 0.750000 0.468586
O O10 0.957696 0.971865 0.416361
O O11 0.000000 0.000000 0.500000
O O12 0.250000 0.064452 0.026061
O O13 0.457379 0.250000 0.037790
O O14 0.500000 0.000000 0.000000
O O15 0.750000 0.902819 0.365603
O O16 0.980242 0.750000 0.364321
O O17 0.983294 0.998498 0.329353
O O18 0.250000 0.599119 0.703973
O O19 0.481192 0.750000 0.704338
#
# Coordination Sequence:
#
# PCOD8244887 Si02
#       6
#     8   8   8   8   8   8
#     4  10  21  36  53  74 101 133 168 203 239 283
#     4   9  18  32  50  74 102 129 159 198 242 285
#     4   9  18  31  46  67  94 122 155 195 237 284
#     4  10  21  37  57  79 102 131 166 202 243 289
#     4   8  14  25  41  62  89 119 150 187 233 282
#     4   8  14  25  42  66  94 120 150 191 235 279
#
# _framework density 17.555098999999998
#
# number of rings (size 3 to 8) (size 9 to 14) (size 15 to 20)
#    0.000    3.000    0.000    3.000    0.000    4.667 
#    0.000    3.333    0.000    1.000    0.000    0.000 
#    0.000    0.000    0.000    0.000    0.000    0.000 
#
# Total GULP energy -594944.777397 kJ/mol
# GULP energy per Si atom -12394.682862 kJ/mol
# Density = 1.751514 g / cm^3
# Si number density = 17.555099 Si / 1000 Ang^3
#
#
#
# Elastic Constant Matrix: (Units=GPa)
#
#
# Indices 1 2 3 4 5 6 
#
# 1 39.5602 41.9851 55.7999 0.0000 0.0000 0.0000
# 2 41.9851 112.7114 92.0682 0.0000 0.0000 0.0000
# 3 55.7999 92.0682 171.5638 0.0000 0.0000 0.0000
# 4 0.0000 0.0000 0.0000 41.3241 0.0000 0.0000
# 5 0.0000 0.0000 0.0000 0.0000 26.5387 0.0000
# 6 0.0000 0.0000 0.0000 0.0000 0.0000 25.8501
#
#
#
# Elastic Compliance Matrix: (Units=1/GPa)
#
#
# Indices 1 2 3 4 5 6 
#
# 1 0.052297 -0.009947 -0.011671 0.000000 0.000000 0.000000
# 2 -0.009947 0.017689 -0.006257 0.000000 0.000000 0.000000
# 3 -0.011671 -0.006257 0.012983 0.000000 0.000000 0.000000
# 4 0.000000 0.000000 0.000000 0.024199 0.000000 0.000000
# 5 0.000000 0.000000 0.000000 0.000000 0.037681 0.000000
# 6 0.000000 0.000000 0.000000 0.000000 0.000000 0.038685
#
#
# Mechanical properties :
#
#
# Convention : Reuss Voigt Hill
#
# Bulk Modulus (GPa) = 36.74138 78.17133 57.45636
# Shear Modulus (GPa) = 20.13234 27.67472 23.90353
#
# Velocity S-wave (km/s) = 3.39013 3.97476 3.69403
# Velocity P-wave (km/s) = 6.02483 8.10498 7.14106
#
# Compressibility (1/GPa) = 0.02721727
#
# Stress axis : x y z
#
# Youngs Moduli (GPa) = 19.12153 56.53298 77.02565
#
# Poissons Ratio (x) = 0.56234 0.89899
# Poissons Ratio (y) = 0.19020 0.48198
# Poissons Ratio (z) = 0.22317 0.35375
#
# Static dielectric constant tensor:
#      x y z
#    x 2.876100 0.000000 0.000000 
#    y 0.000000 4.775560 0.000000 
#    z 0.000000 0.000000 3.463400 
# 
# 
# High freq. dielectric constant tensor:
#      x y z
#    x 1.635290 0.000000 0.000000 
#    y 0.000000 1.681110 0.000000 
#    z 0.000000 0.000000 1.694930 
# 
# From -- ./inp_files/32472.got.cif
#   From: 2010.03.12/outbox.cif.g09.slc.cpg/sg59_17_cif.got.tgz:32472.got - 2010.04.16 16:29:54.
