data_PCOD8244806
_publ_section_title
;
Structure prediction by ZEFSAII (Michael W. Deem and Ramdas Pophale) SiO2 
 PCOD8244806
Probable space group: P M M N
;
_chemical_formula_sum "Si O2"
_cell_formula_units_Z 48
_cell_length_a 14.195697
_cell_length_b 9.289898
_cell_length_c 19.223963
_cell_angle_alpha 90.000000
_cell_angle_beta 90.000000
_cell_angle_gamma 90.000000
_cell_volume 2535.190440
_symmetry_space_group_name_H-M "P M M N"
_symmetry_group_IT_number 59
_space_group.IT_coordinate_system_code '2'
_symmetry_cell_setting 'orthorhombic'
loop_
_space_group_symop_operation_xyz
x,y,z
1/2-x,1/2-y,z
1/2+x,-y,-z
-x,1/2+y,-z
-x,-y,-z
1/2+x,1/2+y,-z
1/2-x,y,z
x,1/2-y,z
loop_
_atom_site_type_symbol
_atom_site_label
_atom_site_fract_x
_atom_site_fract_y
_atom_site_fract_z
Si Si1 0.511743 0.581919 0.895686
Si Si2 0.361597 0.414412 0.636557
Si Si3 0.984714 0.416874 0.261778
Si Si4 0.857296 0.914978 0.629470
Si Si5 0.637904 0.412434 0.496688
Si Si6 0.642730 0.082051 0.993557
O O1 0.534353 0.750000 0.899394
O O2 0.497914 0.530397 0.816900
O O3 0.601582 0.500509 0.927069
O O4 0.416908 0.542221 0.937758
O O5 0.250000 0.424006 0.641136
O O6 0.395832 0.250000 0.631306
O O7 0.402110 0.488031 0.705523
O O8 0.400963 0.499964 0.569478
O O9 0.954302 0.250000 0.265085
O O10 0.082540 0.444141 0.301705
O O11 0.750000 0.956830 0.647653
O O12 0.864047 0.750000 0.604768
O O13 0.898248 0.012085 0.567032
O O14 0.750000 0.414795 0.495891
O O15 0.598715 0.250000 0.493064
O O16 0.750000 0.033088 0.006656
O O17 0.636266 0.250000 0.976956
#
# Coordination Sequence:
#
# PCOD8244806 Si02
#       6
#     8   8   8   8   8   8
#     4   9  19  35  54  79 109 137 171 214 254 301
#     4  10  21  36  53  74 102 137 175 216 263 310
#     4  10  21  35  53  78 106 138 173 210 256 307
#     4   9  18  33  51  72 101 135 171 214 263 311
#     4   9  17  31  52  75  98 129 174 223 263 304
#     4   9  18  34  56  80 106 138 173 209 254 305
#
# _framework density 18.933489000000002
#
# number of rings (size 3 to 8) (size 9 to 14) (size 15 to 20)
#    0.000    2.667    0.000    1.000    0.000    6.667 
#    0.000    3.333    0.000    2.000    0.000    0.000 
#    0.000    0.000    0.000    0.000    0.000    0.000 
#
# Total GULP energy -595340.900868 kJ/mol
# GULP energy per Si atom -12402.935435 kJ/mol
# Density = 1.889040 g / cm^3
# Si number density = 18.933489 Si / 1000 Ang^3
#
#
#
# Elastic Constant Matrix: (Units=GPa)
#
#
# Indices 1 2 3 4 5 6 
#
# 1 77.0932 41.8055 46.8160 0.0000 0.0000 0.0000
# 2 41.8055 97.5569 70.5125 0.0000 0.0000 0.0000
# 3 46.8160 70.5125 165.8166 0.0000 0.0000 0.0000
# 4 0.0000 0.0000 0.0000 32.2022 0.0000 0.0000
# 5 0.0000 0.0000 0.0000 0.0000 21.1614 0.0000
# 6 0.0000 0.0000 0.0000 0.0000 0.0000 26.5842
#
#
#
# Elastic Compliance Matrix: (Units=1/GPa)
#
#
# Indices 1 2 3 4 5 6 
#
# 1 0.017612 -0.005707 -0.002546 0.000000 0.000000 0.000000
# 2 -0.005707 0.016649 -0.005468 0.000000 0.000000 0.000000
# 3 -0.002546 -0.005468 0.009075 0.000000 0.000000 0.000000
# 4 0.000000 0.000000 0.000000 0.031054 0.000000 0.000000
# 5 0.000000 0.000000 0.000000 0.000000 0.047256 0.000000
# 6 0.000000 0.000000 0.000000 0.000000 0.000000 0.037616
#
#
# Mechanical properties :
#
#
# Convention : Reuss Voigt Hill
#
# Bulk Modulus (GPa) = 62.92038 73.19276 68.05657
# Shear Modulus (GPa) = 26.04148 28.07841 27.05994
#
# Velocity S-wave (km/s) = 3.71269 3.85515 3.78459
# Velocity P-wave (km/s) = 7.18910 7.65232 7.42433
#
# Compressibility (1/GPa) = 0.01589310
#
# Stress axis : x y z
#
# Youngs Moduli (GPa) = 56.77934 60.06520 110.19510
#
# Poissons Ratio (x) = 0.34281 0.28050
# Poissons Ratio (y) = 0.32406 0.60258
# Poissons Ratio (z) = 0.14453 0.32846
#
# Static dielectric constant tensor:
#      x y z
#    x 3.414760 0.000000 0.000000 
#    y 0.000000 3.529760 0.000000 
#    z 0.000000 0.000000 3.469750 
# 
# 
# High freq. dielectric constant tensor:
#      x y z
#    x 1.735360 0.000000 0.000000 
#    y 0.000000 1.734540 0.000000 
#    z 0.000000 0.000000 1.730120 
# 
# From -- ./inp_files/25410.got.cif
#   From: 2010.03.12/outbox.cif.g09.slc.cpg/sg59_13_cif.got.tgz:25410.got - 2010.04.16 16:29:54.
