data_PCOD8244809
_publ_section_title
;
Structure prediction by ZEFSAII (Michael W. Deem and Ramdas Pophale) SiO2 
 PCOD8244809
Probable space group: P M M N
;
_chemical_formula_sum "Si O2"
_cell_formula_units_Z 64
_cell_length_a 11.527279
_cell_length_b 26.033721
_cell_length_c 11.276150
_cell_angle_alpha 90.000000
_cell_angle_beta 90.000000
_cell_angle_gamma 90.000000
_cell_volume 3383.949672
_symmetry_space_group_name_H-M "P M M N"
_symmetry_group_IT_number 59
_space_group.IT_coordinate_system_code '2'
_symmetry_cell_setting 'orthorhombic'
loop_
_space_group_symop_operation_xyz
x,y,z
1/2-x,1/2-y,z
1/2+x,-y,-z
-x,1/2+y,-z
-x,-y,-z
1/2+x,1/2+y,-z
1/2-x,y,z
x,1/2-y,z
loop_
_atom_site_type_symbol
_atom_site_label
_atom_site_fract_x
_atom_site_fract_y
_atom_site_fract_z
Si Si1 0.623296 0.190440 0.689199
Si Si2 0.617894 0.692349 0.672195
Si Si3 0.980252 0.624379 0.475484
Si Si4 0.114192 0.559542 0.662644
Si Si5 0.111988 0.692892 0.051410
Si Si6 0.112064 0.461069 0.987483
Si Si7 0.117487 0.051628 0.719074
Si Si8 0.999993 0.877766 0.861032
O O1 0.750000 0.165253 0.695481
O O2 0.630976 0.250000 0.662826
O O3 0.564289 0.166922 0.575089
O O4 0.561753 0.180856 0.816674
O O5 0.750000 0.697008 0.708008
O O6 0.567531 0.750000 0.648635
O O7 0.609444 0.655489 0.557414
O O8 0.555499 0.667189 0.783990
O O9 0.924607 0.598087 0.361298
O O10 0.047695 0.582129 0.550608
O O11 0.250000 0.560149 0.635051
O O12 0.060181 0.502881 0.683344
O O13 0.092366 0.591575 0.782064
O O14 0.250000 0.692598 0.056487
O O15 0.070111 0.750000 0.011050
O O16 0.068956 0.648409 0.966781
O O17 0.250000 0.482159 0.999545
O O18 0.097005 0.436304 0.857449
O O19 0.000000 0.500000 0.000000
O O20 0.096789 0.416525 0.085678
O O21 0.250000 0.043863 0.689911
#
# Coordination Sequence:
#
# PCOD8244809 Si02
#       8
#     8   8   8   8   8   8   8   8
#     4   9  18  33  52  77 110 140 172 225 282 331
#     4  10  22  38  55  79 110 144 185 234 281 330
#     4  11  20  34  57  79 105 143 194 226 278 342
#     4  10  21  35  53  78 112 149 186 237 289 333
#     4   9  18  32  53  83 116 151 192 238 289 346
#     4  11  23  40  62  87 118 154 195 243 299 358
#     4  10  21  38  56  78 111 147 185 237 291 335
#     4  11  20  35  59  82 111 150 193 232 288 349
#
# _framework density 18.91281
#
# number of rings (size 3 to 8) (size 9 to 14) (size 15 to 20)
#    0.000    1.875    1.250    4.125    0.000    0.500 
#    0.000    1.250    0.000    6.000    0.000   10.500 
#    0.000    0.000    0.000    0.000    0.000    0.000 
#
# Total GULP energy -792958.803520 kJ/mol
# GULP energy per Si atom -12389.981305 kJ/mol
# Density = 1.886976 g / cm^3
# Si number density = 18.912810 Si / 1000 Ang^3
#
#
#
# Elastic Constant Matrix: (Units=GPa)
#
#
# Indices 1 2 3 4 5 6 
#
# 1 46.3889 28.9345 20.0250 0.0000 0.0000 0.0000
# 2 28.9345 70.3186 26.3153 0.0000 0.0000 0.0000
# 3 20.0250 26.3153 81.6303 0.0000 0.0000 0.0000
# 4 0.0000 0.0000 0.0000 40.5440 0.0000 0.0000
# 5 0.0000 0.0000 0.0000 0.0000 14.4529 0.0000
# 6 0.0000 0.0000 0.0000 0.0000 0.0000 25.1928
#
#
#
# Elastic Compliance Matrix: (Units=1/GPa)
#
#
# Indices 1 2 3 4 5 6 
#
# 1 0.030026 -0.010915 -0.003847 0.000000 0.000000 0.000000
# 2 -0.010915 0.020140 -0.003815 0.000000 0.000000 0.000000
# 3 -0.003847 -0.003815 0.014424 0.000000 0.000000 0.000000
# 4 0.000000 0.000000 0.000000 0.024665 0.000000 0.000000
# 5 0.000000 0.000000 0.000000 0.000000 0.069190 0.000000
# 6 0.000000 0.000000 0.000000 0.000000 0.000000 0.039694
#
#
# Mechanical properties :
#
#
# Convention : Reuss Voigt Hill
#
# Bulk Modulus (GPa) = 36.44925 38.76527 37.60726
# Shear Modulus (GPa) = 20.45508 24.24212 22.34860
#
# Velocity S-wave (km/s) = 3.29225 3.58408 3.44126
# Velocity P-wave (km/s) = 5.81085 6.13750 5.97641
#
# Compressibility (1/GPa) = 0.02743540
#
# Stress axis : x y z
#
# Youngs Moduli (GPa) = 33.30469 49.65235 69.32943
#
# Poissons Ratio (x) = 0.54197 0.26671
# Poissons Ratio (y) = 0.36353 0.26448
# Poissons Ratio (z) = 0.12812 0.18942
#
# Static dielectric constant tensor:
#      x y z
#    x 3.492040 0.000000 0.000000 
#    y 0.000000 3.824960 0.000000 
#    z 0.000000 0.000000 3.522080 
# 
# 
# High freq. dielectric constant tensor:
#      x y z
#    x 1.718900 0.000000 0.000000 
#    y 0.000000 1.741110 0.000000 
#    z 0.000000 0.000000 1.747710 
# 
# From -- ./inp_files/8020.got.cif
#   From: 2010.03.12/outbox.cif.g09.slc.cpg/sg59_5_cif.got.tgz:8020.got - 2010.04.16 16:29:54.
