data_PCOD8244479
_publ_section_title
;
Structure prediction by ZEFSAII (Michael W. Deem and Ramdas Pophale) SiO2 
 PCOD8244479
Probable space group: P M M N
;
_chemical_formula_sum "Si O2"
_cell_formula_units_Z 64
_cell_length_a 8.589542
_cell_length_b 30.531379
_cell_length_c 11.778887
_cell_angle_alpha 90.000000
_cell_angle_beta 90.000000
_cell_angle_gamma 90.000000
_cell_volume 3089.019738
_symmetry_space_group_name_H-M "P M M N"
_symmetry_group_IT_number 59
_space_group.IT_coordinate_system_code '2'
_symmetry_cell_setting 'orthorhombic'
loop_
_space_group_symop_operation_xyz
x,y,z
1/2-x,1/2-y,z
1/2+x,-y,-z
-x,1/2+y,-z
-x,-y,-z
1/2+x,1/2+y,-z
1/2-x,y,z
x,1/2-y,z
loop_
_atom_site_type_symbol
_atom_site_label
_atom_site_fract_x
_atom_site_fract_y
_atom_site_fract_z
Si Si1 0.930565 0.625633 0.389682
Si Si2 0.429002 0.799860 0.244966
Si Si3 0.570499 0.122383 0.366760
Si Si4 0.430166 0.457470 0.234782
Si Si5 0.930466 0.174713 0.005035
Si Si6 0.571534 0.799590 0.765548
Si Si7 0.929969 0.427201 0.006213
Si Si8 0.931118 0.546575 0.227182
O O1 0.750000 0.623502 0.423740
O O2 0.981209 0.583965 0.315308
O O3 0.961138 0.670052 0.321023
O O4 0.035075 0.625516 0.500983
O O5 0.250000 0.815142 0.258834
O O6 0.451519 0.750000 0.285221
O O7 0.479111 0.803830 0.113939
O O8 0.750000 0.111141 0.347011
O O9 0.469846 0.084526 0.309767
O O10 0.535940 0.168784 0.308393
O O11 0.250000 0.468224 0.249182
O O12 0.467039 0.449145 0.103202
O O13 0.527601 0.499275 0.280309
O O14 0.750000 0.183194 0.032254
O O15 0.970383 0.123704 0.000071
O O16 0.032247 0.197317 0.101629
O O17 0.750000 0.813286 0.746922
O O18 0.542188 0.750000 0.724200
O O19 0.750000 0.435372 0.035360
O O20 0.969524 0.449073 0.886922
O O21 0.750000 0.550378 0.197823
#
# Coordination Sequence:
#
# PCOD8244479 Si02
#       8
#     8   8   8   8   8   8   8   8
#     4  11  25  44  66  91 123 163 208 261 312 365
#     4  10  21  39  64  94 128 166 208 254 306 367
#     4  12  26  45  68  91 121 163 211 261 311 371
#     4  12  25  42  66  94 128 165 206 257 313 372
#     4  10  20  36  63  94 129 169 208 253 309 371
#     4  11  24  41  64  95 130 166 207 257 312 370
#     4  11  21  37  64  96 130 167 207 253 311 371
#     4  11  24  42  65  94 128 166 209 255 311 373
#
# _framework density 20.718547999999998
#
# number of rings (size 3 to 8) (size 9 to 14) (size 15 to 20)
#    0.000    1.000    2.500    4.500    0.000    5.250 
#    0.000    0.000    0.000    0.000    0.000    0.000 
#    0.000    0.000    0.000    0.000    0.000    0.000 
#
# Total GULP energy -794100.826645 kJ/mol
# GULP energy per Si atom -12407.825416 kJ/mol
# Density = 2.067139 g / cm^3
# Si number density = 20.718548 Si / 1000 Ang^3
#
#
#
# Elastic Constant Matrix: (Units=GPa)
#
#
# Indices 1 2 3 4 5 6 
#
# 1 63.3536 26.6938 19.2886 0.0000 0.0000 0.0000
# 2 26.6938 115.3768 39.1028 0.0000 0.0000 0.0000
# 3 19.2886 39.1028 101.4429 0.0000 0.0000 0.0000
# 4 0.0000 0.0000 0.0000 -0.3691 0.0000 0.0000
# 5 0.0000 0.0000 0.0000 0.0000 34.2103 0.0000
# 6 0.0000 0.0000 0.0000 0.0000 0.0000 -10.3376
#
#
#
# Elastic Compliance Matrix: (Units=1/GPa)
#
#
# Indices 1 2 3 4 5 6 
#
# 1 0.017861 -0.003429 -0.002074 0.000000 0.000000 0.000000
# 2 -0.003429 0.010628 -0.003445 0.000000 0.000000 0.000000
# 3 -0.002074 -0.003445 0.011580 0.000000 0.000000 0.000000
# 4 0.000000 0.000000 0.000000 -2.709041 0.000000 0.000000
# 5 0.000000 0.000000 0.000000 0.000000 0.029231 0.000000
# 6 0.000000 0.000000 0.000000 0.000000 0.000000 -0.096734
#
#
# Mechanical properties :
#
#
# Convention : Reuss Voigt Hill
#
# Bulk Modulus (GPa) = 45.10105 50.03818 47.56961
# Shear Modulus (GPa) = -1.84421 17.70659 7.93119
#
# Velocity S-wave (km/s) = -0.94449 2.92657 1.95867
# Velocity P-wave (km/s) = 4.54162 5.96855 5.30329
#
# Compressibility (1/GPa) = 0.02217243
#
# Stress axis : x y z
#
# Youngs Moduli (GPa) = 55.98831 94.08982 86.35592
#
# Poissons Ratio (x) = 0.32267 0.17912
# Poissons Ratio (y) = 0.19200 0.29747
# Poissons Ratio (z) = 0.11613 0.32411
#
# Static dielectric constant tensor:
#      x y z
#    x 3.686130 0.000000 0.000000 
#    y 0.000000 3.916320 0.000000 
#    z 0.000000 0.000000 3.652750 
# 
# 
# High freq. dielectric constant tensor:
#      x y z
#    x 1.813200 0.000000 0.000000 
#    y 0.000000 1.827520 0.000000 
#    z 0.000000 0.000000 1.804720 
# 
# From -- ./inp_files/14927.got.cif
#   From: 2010.03.12/outbox.cif.g09.slc.cpg/sg59_8_cif.got.tgz:14927.got - 2010.04.16 16:29:54.
