data_PCOD8244270
_publ_section_title
;
Structure prediction by ZEFSAII (Michael W. Deem and Ramdas Pophale) SiO2 
 PCOD8244270
Probable space group: P M M N
;
_chemical_formula_sum "Si O2"
_cell_formula_units_Z 48
_cell_length_a 31.283651
_cell_length_b 9.022139
_cell_length_c 9.092487
_cell_angle_alpha 90.000000
_cell_angle_beta 90.000000
_cell_angle_gamma 90.000000
_cell_volume 2566.313064
_symmetry_space_group_name_H-M "P M M N"
_symmetry_group_IT_number 59
_space_group.IT_coordinate_system_code '2'
_symmetry_cell_setting 'orthorhombic'
loop_
_space_group_symop_operation_xyz
x,y,z
1/2-x,1/2-y,z
1/2+x,-y,-z
-x,1/2+y,-z
-x,-y,-z
1/2+x,1/2+y,-z
1/2-x,y,z
x,1/2-y,z
loop_
_atom_site_type_symbol
_atom_site_label
_atom_site_fract_x
_atom_site_fract_y
_atom_site_fract_z
Si Si1 0.250000 0.424122 0.670122
Si Si2 0.827799 0.423818 0.832176
Si Si3 0.410269 0.577077 0.660281
Si Si4 0.250000 0.076514 0.327936
Si Si5 0.171476 0.925779 0.829090
Si Si6 0.586012 0.075326 0.671975
Si Si7 0.996497 0.923658 0.656360
O O1 0.250000 0.250000 0.699786
O O2 0.250000 0.463353 0.498913
O O3 0.291504 0.494909 0.741046
O O4 0.819775 0.250000 0.811051
O O5 0.792076 0.509527 0.743391
O O6 0.873953 0.470635 0.770897
O O7 0.825551 0.471421 0.001352
O O8 0.402048 0.750000 0.646699
O O9 0.373446 0.511639 0.765139
O O10 0.406620 0.513565 0.493915
O O11 0.457160 0.546335 0.732674
O O12 0.250000 0.250000 0.299010
O O13 0.176130 0.750000 0.810127
O O14 0.577925 0.250000 0.673633
O O15 0.543535 0.997687 0.741500
O O16 0.988163 0.750000 0.637803
O O17 0.000000 0.000000 0.500000
#
# Coordination Sequence:
#
# PCOD8244270 Si02
#       7
#     4   8   8   4   8   8   8
#     4  11  24  39  54  78 106 133 168 213 262 310
#     4  10  21  36  56  80 106 137 175 214 258 312
#     4   8  15  29  50  73  99 132 171 211 252 295
#     4  11  24  39  56  78 106 137 172 215 264 314
#     4  10  20  36  57  79 103 137 176 213 255 309
#     4   9  17  31  50  74 103 136 173 215 257 302
#     4   9  16  28  48  74 102 134 172 216 261 304
#
# _framework density 18.703876000000001
#
# number of rings (size 3 to 8) (size 9 to 14) (size 15 to 20)
#    0.000    2.500    0.000    3.500    0.000    6.000 
#    0.000    6.667    0.000    0.000    0.000    0.000 
#    0.000    0.000    0.000    0.000    0.000    0.000 
#
# Total GULP energy -594978.122313 kJ/mol
# GULP energy per Si atom -12395.377548 kJ/mol
# Density = 1.866131 g / cm^3
# Si number density = 18.703876 Si / 1000 Ang^3
#
#
#
# Elastic Constant Matrix: (Units=GPa)
#
#
# Indices 1 2 3 4 5 6 
#
# 1 200.7711 68.2246 83.0491 0.0000 0.0000 0.0000
# 2 68.2246 58.1270 44.5031 0.0000 0.0000 0.0000
# 3 83.0491 44.5031 107.1427 0.0000 0.0000 0.0000
# 4 0.0000 0.0000 0.0000 19.4872 0.0000 0.0000
# 5 0.0000 0.0000 0.0000 0.0000 -28.6503 0.0000
# 6 0.0000 0.0000 0.0000 0.0000 0.0000 33.7397
#
#
#
# Elastic Compliance Matrix: (Units=1/GPa)
#
#
# Indices 1 2 3 4 5 6 
#
# 1 0.009285 -0.007900 -0.003916 0.000000 0.000000 0.000000
# 2 -0.007900 0.031947 -0.007146 0.000000 0.000000 0.000000
# 3 -0.003916 -0.007146 0.015337 0.000000 0.000000 0.000000
# 4 0.000000 0.000000 0.000000 0.051316 0.000000 0.000000
# 5 0.000000 0.000000 0.000000 0.000000 -0.034904 0.000000
# 6 0.000000 0.000000 0.000000 0.000000 0.000000 0.029639
#
#
# Mechanical properties :
#
#
# Convention : Reuss Voigt Hill
#
# Bulk Modulus (GPa) = 53.63287 84.17717 68.90502
# Shear Modulus (GPa) = 34.06942 16.26627 25.16784
#
# Velocity S-wave (km/s) = 4.27255 2.95222 3.67221
# Velocity P-wave (km/s) = 7.28537 7.53152 7.40946
#
# Compressibility (1/GPa) = 0.01864528
#
# Stress axis : x y z
#
# Youngs Moduli (GPa) = 107.69951 31.30136 65.20273
#
# Poissons Ratio (x) = 0.24728 0.25531
# Poissons Ratio (y) = 0.85084 0.46595
# Poissons Ratio (z) = 0.42172 0.22369
#
# Static dielectric constant tensor:
#      x y z
#    x 4.112480 0.000000 0.000000 
#    y 0.000000 3.348430 0.000000 
#    z 0.000000 0.000000 3.306150 
# 
# 
# High freq. dielectric constant tensor:
#      x y z
#    x 1.752380 0.000000 0.000000 
#    y 0.000000 1.707170 0.000000 
#    z 0.000000 0.000000 1.705010 
# 
# From -- ./inp_files/13027.got.cif
#   From: 2010.03.12/outbox.cif.g09.slc.cpg/sg59_7_cif.got.tgz:13027.got - 2010.04.16 16:29:54.
