data_PCOD8244784
_publ_section_title
;
Structure prediction by ZEFSAII (Michael W. Deem and Ramdas Pophale) SiO2 
 PCOD8244784
Probable space group: P M M N
;
_chemical_formula_sum "Si O2"
_cell_formula_units_Z 56
_cell_length_a 14.891027
_cell_length_b 9.198920
_cell_length_c 21.541683
_cell_angle_alpha 90.000000
_cell_angle_beta 90.000000
_cell_angle_gamma 90.000000
_cell_volume 2950.809165
_symmetry_space_group_name_H-M "P M M N"
_symmetry_group_IT_number 59
_space_group.IT_coordinate_system_code '2'
_symmetry_cell_setting 'orthorhombic'
loop_
_space_group_symop_operation_xyz
x,y,z
1/2-x,1/2-y,z
1/2+x,-y,-z
-x,1/2+y,-z
-x,-y,-z
1/2+x,1/2+y,-z
1/2-x,y,z
x,1/2-y,z
loop_
_atom_site_type_symbol
_atom_site_label
_atom_site_fract_x
_atom_site_fract_y
_atom_site_fract_z
Si Si1 0.146046 0.079671 0.375883
Si Si2 0.001029 0.420254 0.849061
Si Si3 0.645468 0.083944 0.079022
Si Si4 0.150787 0.923118 0.059730
Si Si5 0.143689 0.410158 0.514132
Si Si6 0.497062 0.921040 0.293764
Si Si7 0.355078 0.919275 0.633303
O O1 0.250000 0.037227 0.366713
O O2 0.131155 0.250000 0.362712
O O3 0.111812 0.041335 0.445591
O O4 0.088414 0.984025 0.329269
O O5 0.009839 0.250000 0.859729
O O6 0.919769 0.485289 0.890502
O O7 0.981693 0.458342 0.778016
O O8 0.093972 0.490499 0.870063
O O9 0.750000 0.067674 0.093715
O O10 0.614453 0.250000 0.085459
O O11 0.623895 0.025426 0.009607
O O12 0.250000 0.983009 0.076882
O O13 0.153557 0.750000 0.060680
O O14 0.250000 0.399777 0.511976
O O15 0.104978 0.250000 0.530886
O O16 0.112315 0.525732 0.565569
O O17 0.504507 0.750000 0.305902
O O18 0.589838 0.995808 0.314497
O O19 0.250000 0.950942 0.644228
O O20 0.377633 0.750000 0.637421
#
# Coordination Sequence:
#
# PCOD8244784 Si02
#       7
#     8   8   8   8   8   8   8
#     4   9  19  37  59  81 107 139 174 216 266 316
#     4  10  21  35  52  76 105 139 177 215 255 299
#     4   9  18  33  55  81 105 133 169 209 259 314
#     4   8  15  31  55  80 105 133 167 209 258 310
#     4   8  15  31  56  82 105 131 166 213 270 322
#     4  11  24  37  51  76 108 145 185 218 256 310
#     4  10  21  37  57  79 103 135 177 224 271 318
#
# _framework density 18.977846
#
# number of rings (size 3 to 8) (size 9 to 14) (size 15 to 20)
#    0.000    2.714    0.000    3.000    0.000    4.857 
#    0.000    5.714    0.000    1.286    0.000    0.000 
#    0.000    0.000    0.000    0.000    0.000    0.000 
#
# Total GULP energy -694331.239395 kJ/mol
# GULP energy per Si atom -12398.772132 kJ/mol
# Density = 1.893465 g / cm^3
# Si number density = 18.977846 Si / 1000 Ang^3
#
#
#
# Elastic Constant Matrix: (Units=GPa)
#
#
# Indices 1 2 3 4 5 6 
#
# 1 78.0725 40.2297 39.5826 0.0000 0.0000 0.0000
# 2 40.2297 69.9228 49.8265 0.0000 0.0000 0.0000
# 3 39.5826 49.8265 80.6908 0.0000 0.0000 0.0000
# 4 0.0000 0.0000 0.0000 20.9566 0.0000 0.0000
# 5 0.0000 0.0000 0.0000 0.0000 28.1956 0.0000
# 6 0.0000 0.0000 0.0000 0.0000 0.0000 29.1730
#
#
#
# Elastic Compliance Matrix: (Units=1/GPa)
#
#
# Indices 1 2 3 4 5 6 
#
# 1 0.019124 -0.007711 -0.004620 0.000000 0.000000 0.000000
# 2 -0.007711 0.028649 -0.013908 0.000000 0.000000 0.000000
# 3 -0.004620 -0.013908 0.023247 0.000000 0.000000 0.000000
# 4 0.000000 0.000000 0.000000 0.047718 0.000000 0.000000
# 5 0.000000 0.000000 0.000000 0.000000 0.035466 0.000000
# 6 0.000000 0.000000 0.000000 0.000000 0.000000 0.034278
#
#
# Mechanical properties :
#
#
# Convention : Reuss Voigt Hill
#
# Bulk Modulus (GPa) = 53.92926 54.21818 54.07372
# Shear Modulus (GPa) = 20.23137 22.26820 21.24979
#
# Velocity S-wave (km/s) = 3.26859 3.42918 3.34985
# Velocity P-wave (km/s) = 6.53632 6.65659 6.59673
#
# Compressibility (1/GPa) = 0.01854281
#
# Stress axis : x y z
#
# Youngs Moduli (GPa) = 52.28975 34.90564 43.01573
#
# Poissons Ratio (x) = 0.26916 0.19872
# Poissons Ratio (y) = 0.40321 0.59826
# Poissons Ratio (z) = 0.24157 0.48546
#
# Static dielectric constant tensor:
#      x y z
#    x 3.480370 0.000000 0.000000 
#    y 0.000000 3.323480 0.000000 
#    z 0.000000 0.000000 3.571220 
# 
# 
# High freq. dielectric constant tensor:
#      x y z
#    x 1.738860 0.000000 0.000000 
#    y 0.000000 1.720740 0.000000 
#    z 0.000000 0.000000 1.737550 
# 
# From -- ./inp_files/29051.got.cif
#   From: 2010.03.12/outbox.cif.g09.slc.cpg/sg59_15_cif.got.tgz:29051.got - 2010.04.16 16:29:54.
