data_PCOD8244763
_publ_section_title
;
Structure prediction by ZEFSAII (Michael W. Deem and Ramdas Pophale) SiO2 
 PCOD8244763
Probable space group: P M M N
;
_chemical_formula_sum "Si O2"
_cell_formula_units_Z 56
_cell_length_a 9.184215
_cell_length_b 15.389478
_cell_length_c 21.344878
_cell_angle_alpha 90.000000
_cell_angle_beta 90.000000
_cell_angle_gamma 90.000000
_cell_volume 3016.890920
_symmetry_space_group_name_H-M "P M M N"
_symmetry_group_IT_number 59
_space_group.IT_coordinate_system_code '2'
_symmetry_cell_setting 'orthorhombic'
loop_
_space_group_symop_operation_xyz
x,y,z
1/2-x,1/2-y,z
1/2+x,-y,-z
-x,1/2+y,-z
-x,-y,-z
1/2+x,1/2+y,-z
1/2-x,y,z
x,1/2-y,z
loop_
_atom_site_type_symbol
_atom_site_label
_atom_site_fract_x
_atom_site_fract_y
_atom_site_fract_z
Si Si1 0.421022 0.993434 0.155113
Si Si2 0.422357 0.654918 0.635173
Si Si3 0.084440 0.152613 0.617694
Si Si4 0.422271 0.005998 0.714253
Si Si5 0.080161 0.151749 0.069913
Si Si6 0.080195 0.848673 0.056974
Si Si7 0.422665 0.591590 0.500035
O O1 0.250000 0.989895 0.168306
O O2 0.504524 0.982189 0.219331
O O3 0.471143 0.913834 0.111177
O O4 0.466909 0.085359 0.124346
O O5 0.250000 0.651477 0.638974
O O6 0.480711 0.750000 0.656111
O O7 0.485044 0.581312 0.681431
O O8 0.469936 0.639215 0.563744
O O9 0.250000 0.128933 0.597612
O O10 0.075492 0.250000 0.644997
O O11 0.031111 0.087228 0.671409
O O12 0.979950 0.147685 0.557881
O O13 0.250000 0.001882 0.723486
O O14 0.250000 0.143067 0.055741
O O15 0.038679 0.250000 0.090851
O O16 0.999782 0.124912 0.006585
O O17 0.250000 0.859497 0.043672
O O18 0.041111 0.750000 0.077132
O O19 0.500000 0.500000 0.500000
O O20 0.250000 0.579939 0.495052
#
# Coordination Sequence:
#
# PCOD8244763 Si02
#       7
#     8   8   8   8   8   8   8
#     4  10  21  35  51  74 105 139 172 211 259 306
#     4   9  18  34  55  77 103 135 173 218 266 315
#     4  10  21  38  57  79 109 142 179 226 276 322
#     4  10  21  37  53  74 104 141 180 219 262 312
#     4   9  18  33  53  77 105 134 166 208 258 309
#     4   9  18  33  53  77 104 132 166 211 258 303
#     4  11  20  34  58  84 111 140 176 222 276 328
#
# _framework density 18.562156000000002
#
# number of rings (size 3 to 8) (size 9 to 14) (size 15 to 20)
#    0.000    2.286    1.429    1.286    0.000    3.714 
#    0.000    0.000    0.000    1.714    0.000    0.000 
#    0.000    0.000    0.000    0.000    0.000    0.000 
#
# Total GULP energy -694421.127350 kJ/mol
# GULP energy per Si atom -12400.377274 kJ/mol
# Density = 1.851991 g / cm^3
# Si number density = 18.562156 Si / 1000 Ang^3
#
#
#
# Elastic Constant Matrix: (Units=GPa)
#
#
# Indices 1 2 3 4 5 6 
#
# 1 36.3413 20.4839 30.9222 0.0000 0.0000 0.0000
# 2 20.4839 118.4433 45.1597 0.0000 0.0000 0.0000
# 3 30.9222 45.1597 109.6001 0.0000 0.0000 0.0000
# 4 0.0000 0.0000 0.0000 18.0494 0.0000 0.0000
# 5 0.0000 0.0000 0.0000 0.0000 33.7730 0.0000
# 6 0.0000 0.0000 0.0000 0.0000 0.0000 17.2717
#
#
#
# Elastic Compliance Matrix: (Units=1/GPa)
#
#
# Indices 1 2 3 4 5 6 
#
# 1 0.037014 -0.002871 -0.009260 0.000000 0.000000 0.000000
# 2 -0.002871 0.010239 -0.003409 0.000000 0.000000 0.000000
# 3 -0.009260 -0.003409 0.013141 0.000000 0.000000 0.000000
# 4 0.000000 0.000000 0.000000 0.055404 0.000000 0.000000
# 5 0.000000 0.000000 0.000000 0.000000 0.029609 0.000000
# 6 0.000000 0.000000 0.000000 0.000000 0.000000 0.057898
#
#
# Mechanical properties :
#
#
# Convention : Reuss Voigt Hill
#
# Bulk Modulus (GPa) = 34.11222 50.83515 42.47368
# Shear Modulus (GPa) = 20.47858 25.00675 22.74266
#
# Velocity S-wave (km/s) = 3.32511 3.67439 3.50411
# Velocity P-wave (km/s) = 5.75839 6.74147 6.26923
#
# Compressibility (1/GPa) = 0.02931501
#
# Stress axis : x y z
#
# Youngs Moduli (GPa) = 27.01651 97.66490 76.09527
#
# Poissons Ratio (x) = 0.28036 0.70467
# Poissons Ratio (y) = 0.07755 0.25941
# Poissons Ratio (z) = 0.25018 0.33294
#
# Static dielectric constant tensor:
#      x y z
#    x 3.276660 0.000000 0.000000 
#    y 0.000000 3.796270 0.000000 
#    z 0.000000 0.000000 3.384640 
# 
# 
# High freq. dielectric constant tensor:
#      x y z
#    x 1.700590 0.000000 0.000000 
#    y 0.000000 1.740660 0.000000 
#    z 0.000000 0.000000 1.712090 
# 
# From -- ./inp_files/29107.got.cif
#   From: 2010.03.12/outbox.cif.g09.slc.cpg/sg59_15_cif.got.tgz:29107.got - 2010.04.16 16:29:54.
