data_PCOD8244357
_publ_section_title
;
Structure prediction by ZEFSAII (Michael W. Deem and Ramdas Pophale) SiO2 
 PCOD8244357
Probable space group: P M M N
;
_chemical_formula_sum "Si O2"
_cell_formula_units_Z 64
_cell_length_a 19.246103
_cell_length_b 8.992832
_cell_length_c 20.161491
_cell_angle_alpha 90.000000
_cell_angle_beta 90.000000
_cell_angle_gamma 90.000000
_cell_volume 3489.489792
_symmetry_space_group_name_H-M "P M M N"
_symmetry_group_IT_number 59
_space_group.IT_coordinate_system_code '2'
_symmetry_cell_setting 'orthorhombic'
loop_
_space_group_symop_operation_xyz
x,y,z
1/2-x,1/2-y,z
1/2+x,-y,-z
-x,1/2+y,-z
-x,-y,-z
1/2+x,1/2+y,-z
1/2-x,y,z
x,1/2-y,z
loop_
_atom_site_type_symbol
_atom_site_label
_atom_site_fract_x
_atom_site_fract_y
_atom_site_fract_z
Si Si1 0.575048 0.573649 0.606917
Si Si2 0.831782 0.074768 0.500968
Si Si3 0.430049 0.074847 0.602718
Si Si4 0.571336 0.921958 0.244269
Si Si5 0.832636 0.084100 0.999253
Si Si6 0.569286 0.575736 0.758653
Si Si7 0.831411 0.078615 0.145429
Si Si8 0.171886 0.425616 0.129747
O O1 0.571933 0.750000 0.594428
O O2 0.638375 0.501055 0.567183
O O3 0.502836 0.501396 0.582481
O O4 0.589310 0.533603 0.683560
O O5 0.750000 0.041778 0.497285
O O6 0.847279 0.250000 0.501861
O O7 0.867873 0.999822 0.437694
O O8 0.434710 0.250000 0.586754
O O9 0.412850 0.042621 0.679165
O O10 0.558976 0.750000 0.232657
O O11 0.502724 0.004122 0.219506
O O12 0.635521 0.975896 0.201076
O O13 0.750000 0.081846 0.000710
O O14 0.860025 0.250000 0.985680
O O15 0.861019 0.981002 0.939881
O O16 0.858436 0.030115 0.071934
O O17 0.560376 0.750000 0.766773
O O18 0.628251 0.513480 0.807937
O O19 0.750000 0.053574 0.151092
O O20 0.850902 0.250000 0.158359
O O21 0.250000 0.487323 0.138578
O O22 0.171325 0.250000 0.128080
#
# Coordination Sequence:
#
# PCOD8244357 Si02
#       8
#     8   8   8   8   8   8   8   8
#     4  10  20  36  59  81 103 137 177 213 253 306
#     4  11  24  39  55  79 110 139 170 212 257 301
#     4  10  21  38  58  78 104 138 174 212 255 307
#     4  10  21  35  53  78 105 133 169 214 257 299
#     4   8  15  29  48  71  99 132 170 208 250 304
#     4   9  19  35  54  76 104 138 172 207 251 306
#     4   9  18  33  53  75 101 135 172 210 255 309
#     4   9  17  30  50  76 103 131 167 212 257 300
#
# _framework density 18.340789999999998
#
# number of rings (size 3 to 8) (size 9 to 14) (size 15 to 20)
#    0.000    2.500    0.000    2.625    0.000    5.250 
#    0.000    5.625    0.000    1.500    0.000    0.000 
#    0.000    0.000    0.000    0.000    0.000    0.000 
#
# Total GULP energy -793556.085317 kJ/mol
# GULP energy per Si atom -12399.313833 kJ/mol
# Density = 1.829905 g / cm^3
# Si number density = 18.340790 Si / 1000 Ang^3
#
#
#
# Elastic Constant Matrix: (Units=GPa)
#
#
# Indices 1 2 3 4 5 6 
#
# 1 79.4212 37.6297 53.5639 0.0000 0.0000 0.0000
# 2 37.6297 55.8430 38.2303 0.0000 0.0000 0.0000
# 3 53.5639 38.2303 110.1388 0.0000 0.0000 0.0000
# 4 0.0000 0.0000 0.0000 33.5277 0.0000 0.0000
# 5 0.0000 0.0000 0.0000 0.0000 26.3133 0.0000
# 6 0.0000 0.0000 0.0000 0.0000 0.0000 26.7362
#
#
#
# Elastic Compliance Matrix: (Units=1/GPa)
#
#
# Indices 1 2 3 4 5 6 
#
# 1 0.022292 -0.009968 -0.007381 0.000000 0.000000 0.000000
# 2 -0.009968 0.027947 -0.004853 0.000000 0.000000 0.000000
# 3 -0.007381 -0.004853 0.014354 0.000000 0.000000 0.000000
# 4 0.000000 0.000000 0.000000 0.029826 0.000000 0.000000
# 5 0.000000 0.000000 0.000000 0.000000 0.038004 0.000000
# 6 0.000000 0.000000 0.000000 0.000000 0.000000 0.037402
#
#
# Mechanical properties :
#
#
# Convention : Reuss Voigt Hill
#
# Bulk Modulus (GPa) = 49.53457 56.02787 52.78122
# Shear Modulus (GPa) = 22.62868 25.04737 23.83803
#
# Velocity S-wave (km/s) = 3.51635 3.69950 3.60908
# Velocity P-wave (km/s) = 6.59945 6.99020 6.79764
#
# Compressibility (1/GPa) = 0.02018792
#
# Stress axis : x y z
#
# Youngs Moduli (GPa) = 44.85867 35.78252 69.66886
#
# Poissons Ratio (x) = 0.35669 0.51425
# Poissons Ratio (y) = 0.44717 0.33808
# Poissons Ratio (z) = 0.33112 0.17364
#
# Static dielectric constant tensor:
#      x y z
#    x 3.273540 0.000000 0.000000 
#    y 0.000000 3.412970 0.000000 
#    z 0.000000 0.000000 3.648850 
# 
# 
# High freq. dielectric constant tensor:
#      x y z
#    x 1.692410 0.000000 0.000000 
#    y 0.000000 1.712990 0.000000 
#    z 0.000000 0.000000 1.724450 
# 
# From -- ./inp_files/30713.got.cif
#   From: 2010.03.12/outbox.cif.g09.slc.cpg/sg59_16_cif.got.tgz:30713.got - 2010.04.16 16:29:54.
