data_PCOD8244236
_publ_section_title
;
Structure prediction by ZEFSAII (Michael W. Deem and Ramdas Pophale) SiO2 
 PCOD8244236
Probable space group: P M M N
;
_chemical_formula_sum "Si O2"
_cell_formula_units_Z 64
_cell_length_a 21.812214
_cell_length_b 8.715768
_cell_length_c 16.762893
_cell_angle_alpha 90.000000
_cell_angle_beta 90.000000
_cell_angle_gamma 90.000000
_cell_volume 3186.796887
_symmetry_space_group_name_H-M "P M M N"
_symmetry_group_IT_number 59
_space_group.IT_coordinate_system_code '2'
_symmetry_cell_setting 'orthorhombic'
loop_
_space_group_symop_operation_xyz
x,y,z
1/2-x,1/2-y,z
1/2+x,-y,-z
-x,1/2+y,-z
-x,-y,-z
1/2+x,1/2+y,-z
1/2-x,y,z
x,1/2-y,z
loop_
_atom_site_type_symbol
_atom_site_label
_atom_site_fract_x
_atom_site_fract_y
_atom_site_fract_z
Si Si1 0.112543 0.428494 0.380322
Si Si2 0.982785 0.930388 0.373275
Si Si3 0.819775 0.422443 0.298414
Si Si4 0.679699 0.569491 0.934159
Si Si5 0.821611 0.076955 0.764923
Si Si6 0.561612 0.932331 0.037081
Si Si7 0.125953 0.570669 0.537497
Si Si8 0.577157 0.571322 0.212799
O O1 0.096028 0.250000 0.380325
O O2 0.148696 0.466882 0.300367
O O3 0.149848 0.476026 0.460168
O O4 0.052885 0.533525 0.387462
O O5 0.969387 0.750000 0.382315
O O6 0.966755 0.989662 0.283535
O O7 0.942929 0.021703 0.438164
O O8 0.750000 0.432779 0.274351
O O9 0.845715 0.250000 0.289066
O O10 0.829102 0.474653 0.389933
O O11 0.853381 0.532810 0.236532
O O12 0.750000 0.525560 0.962131
O O13 0.676492 0.750000 0.918925
O O14 0.662882 0.485083 0.852271
O O15 0.626316 0.516870 0.995814
O O16 0.750000 0.074637 0.748869
O O17 0.847711 0.250000 0.757371
O O18 0.556920 0.750000 0.034131
O O19 0.562046 0.001172 0.126860
O O20 0.500000 0.000000 0.000000
O O21 0.128110 0.750000 0.517276
O O22 0.569613 0.750000 0.202951
#
# Coordination Sequence:
#
# PCOD8244236 Si02
#       8
#     8   8   8   8   8   8   8   8
#     4  12  24  36  55  82 111 146 187 232 283 340
#     4  10  20  36  56  79 111 149 190 235 283 337
#     4   9  19  36  58  83 112 147 186 230 280 333
#     4   9  19  38  61  84 115 154 195 239 290 350
#     4  10  22  40  60  82 109 143 186 234 284 339
#     4  10  22  38  58  89 122 155 192 240 295 346
#     4  10  20  36  55  79 112 149 190 236 285 337
#     4   9  20  37  56  82 114 148 187 230 277 334
#
# _framework density 20.082861999999999
#
# number of rings (size 3 to 8) (size 9 to 14) (size 15 to 20)
#    0.000    2.125    0.000    2.625    1.750    4.000 
#    0.000    2.500    0.000    1.500    0.000    0.000 
#    0.000    0.000    0.000    0.000    0.000    0.000 
#
# Total GULP energy -793442.434707 kJ/mol
# GULP energy per Si atom -12397.538042 kJ/mol
# Density = 2.003715 g / cm^3
# Si number density = 20.082862 Si / 1000 Ang^3
#
#
#
# Elastic Constant Matrix: (Units=GPa)
#
#
# Indices 1 2 3 4 5 6 
#
# 1 67.1374 15.5378 33.9230 0.0000 0.0000 0.0000
# 2 15.5378 42.7600 29.9427 0.0000 0.0000 0.0000
# 3 33.9230 29.9427 114.3696 0.0000 0.0000 0.0000
# 4 0.0000 0.0000 0.0000 27.6716 0.0000 0.0000
# 5 0.0000 0.0000 0.0000 0.0000 20.9914 0.0000
# 6 0.0000 0.0000 0.0000 0.0000 0.0000 30.3874
#
#
#
# Elastic Compliance Matrix: (Units=1/GPa)
#
#
# Indices 1 2 3 4 5 6 
#
# 1 0.017919 -0.003416 -0.004421 0.000000 0.000000 0.000000
# 2 -0.003416 0.029287 -0.006654 0.000000 0.000000 0.000000
# 3 -0.004421 -0.006654 0.011797 0.000000 0.000000 0.000000
# 4 0.000000 0.000000 0.000000 0.036138 0.000000 0.000000
# 5 0.000000 0.000000 0.000000 0.000000 0.047639 0.000000
# 6 0.000000 0.000000 0.000000 0.000000 0.000000 0.032908
#
#
# Mechanical properties :
#
#
# Convention : Reuss Voigt Hill
#
# Bulk Modulus (GPa) = 33.30940 42.56379 37.93660
# Shear Modulus (GPa) = 23.29079 25.46766 24.37923
#
# Velocity S-wave (km/s) = 3.40918 3.56494 3.48793
# Velocity P-wave (km/s) = 5.66734 6.17942 5.92891
#
# Compressibility (1/GPa) = 0.03002155
#
# Stress axis : x y z
#
# Youngs Moduli (GPa) = 55.80669 34.14449 84.76743
#
# Poissons Ratio (x) = 0.11663 0.37473
# Poissons Ratio (y) = 0.19062 0.56408
# Poissons Ratio (z) = 0.24670 0.22721
#
# Static dielectric constant tensor:
#      x y z
#    x 3.570880 0.000000 0.000000 
#    y 0.000000 3.607980 0.000000 
#    z 0.000000 0.000000 4.005240 
# 
# 
# High freq. dielectric constant tensor:
#      x y z
#    x 1.775460 0.000000 0.000000 
#    y 0.000000 1.778230 0.000000 
#    z 0.000000 0.000000 1.794250 
# 
# From -- ./inp_files/24739.got.cif
#   From: 2010.03.12/outbox.cif.g09.slc.cpg/sg59_13_cif.got.tgz:24739.got - 2010.04.16 16:29:54.
