data_PCOD8244752
_publ_section_title
;
Structure prediction by ZEFSAII (Michael W. Deem and Ramdas Pophale) SiO2 
 PCOD8244752
Probable space group: P M M N
;
_chemical_formula_sum "Si O2"
_cell_formula_units_Z 56
_cell_length_a 13.275391
_cell_length_b 27.641458
_cell_length_c 9.376645
_cell_angle_alpha 90.000000
_cell_angle_beta 90.000000
_cell_angle_gamma 90.000000
_cell_volume 3440.770786
_symmetry_space_group_name_H-M "P M M N"
_symmetry_group_IT_number 59
_space_group.IT_coordinate_system_code '2'
_symmetry_cell_setting 'orthorhombic'
loop_
_space_group_symop_operation_xyz
x,y,z
1/2-x,1/2-y,z
1/2+x,-y,-z
-x,1/2+y,-z
-x,-y,-z
1/2+x,1/2+y,-z
1/2-x,y,z
x,1/2-y,z
loop_
_atom_site_type_symbol
_atom_site_label
_atom_site_fract_x
_atom_site_fract_y
_atom_site_fract_z
Si Si1 0.054961 0.605495 0.801782
Si Si2 0.131220 0.694920 0.973728
Si Si3 0.630058 0.390015 0.516560
Si Si4 0.630605 0.303055 0.708003
Si Si5 0.536261 0.019606 0.648766
Si Si6 0.134999 0.502894 0.862027
Si Si7 0.863196 0.948170 0.845985
O O1 0.083366 0.657337 0.863996
O O2 0.075028 0.604619 0.633451
O O3 0.115513 0.560663 0.871831
O O4 0.936675 0.597910 0.834001
O O5 0.250000 0.688970 0.962812
O O6 0.100423 0.750000 0.932366
O O7 0.092120 0.682728 0.133452
O O8 0.750000 0.393674 0.495576
O O9 0.594746 0.339633 0.586396
O O10 0.591751 0.429584 0.628945
O O11 0.750000 0.302011 0.715935
O O12 0.589116 0.250000 0.666304
O O13 0.438466 0.023391 0.750181
O O14 0.500000 0.000000 0.500000
O O15 0.618540 0.983029 0.711902
O O16 0.250000 0.493969 0.813645
O O17 0.113092 0.479890 0.014930
O O18 0.750000 0.928116 0.844722
#
# Coordination Sequence:
#
# PCOD8244752 Si02
#       7
#     8   8   8   8   8   8   8
#     4  11  20  33  50  74 100 130 170 204 247 301
#     4   9  18  32  51  75 101 129 162 204 251 300
#     4  11  21  31  47  73 104 136 165 199 245 297
#     4   8  17  32  48  70  99 130 162 196 241 297
#     4  11  20  33  49  73 103 135 167 203 246 303
#     4  10  21  35  51  73 101 135 170 210 248 291
#     4  10  22  37  51  70 101 137 174 214 253 290
#
# _framework density 16.275424000000001
#
# number of rings (size 3 to 8) (size 9 to 14) (size 15 to 20)
#    0.000    2.000    2.857    4.286    4.000    1.143 
#    0.000    1.429    0.000    0.429    0.000    0.000 
#    0.000    0.571    0.000    0.000    0.000    0.000 
#
# Total GULP energy -694208.726508 kJ/mol
# GULP energy per Si atom -12396.584402 kJ/mol
# Density = 1.623838 g / cm^3
# Si number density = 16.275424 Si / 1000 Ang^3
#
#
#
# Elastic Constant Matrix: (Units=GPa)
#
#
# Indices 1 2 3 4 5 6 
#
# 1 80.6078 36.8316 35.5947 0.0000 0.0000 0.0000
# 2 36.8316 100.9487 44.6292 0.0000 0.0000 0.0000
# 3 35.5947 44.6292 85.7571 0.0000 0.0000 0.0000
# 4 0.0000 0.0000 0.0000 30.8181 0.0000 0.0000
# 5 0.0000 0.0000 0.0000 0.0000 24.6450 0.0000
# 6 0.0000 0.0000 0.0000 0.0000 0.0000 22.7388
#
#
#
# Elastic Compliance Matrix: (Units=1/GPa)
#
#
# Indices 1 2 3 4 5 6 
#
# 1 0.016255 -0.003829 -0.004754 0.000000 0.000000 0.000000
# 2 -0.003829 0.013768 -0.005576 0.000000 0.000000 0.000000
# 3 -0.004754 -0.005576 0.016536 0.000000 0.000000 0.000000
# 4 0.000000 0.000000 0.000000 0.032448 0.000000 0.000000
# 5 0.000000 0.000000 0.000000 0.000000 0.040576 0.000000
# 6 0.000000 0.000000 0.000000 0.000000 0.000000 0.043978
#
#
# Mechanical properties :
#
#
# Convention : Reuss Voigt Hill
#
# Bulk Modulus (GPa) = 54.82191 55.71384 55.26788
# Shear Modulus (GPa) = 25.25780 25.65759 25.45769
#
# Velocity S-wave (km/s) = 3.94369 3.97478 3.95926
# Velocity P-wave (km/s) = 7.38200 7.44119 7.41165
#
# Compressibility (1/GPa) = 0.01824088
#
# Stress axis : x y z
#
# Youngs Moduli (GPa) = 61.52131 72.63193 60.47447
#
# Poissons Ratio (x) = 0.27809 0.28750
# Poissons Ratio (y) = 0.23555 0.33720
# Poissons Ratio (z) = 0.29248 0.40499
#
# Static dielectric constant tensor:
#      x y z
#    x 3.016870 0.000000 0.000000 
#    y 0.000000 25.724040 0.000000 
#    z 0.000000 0.000000 8.074760 
# 
# 
# High freq. dielectric constant tensor:
#      x y z
#    x 1.603390 0.000000 0.000000 
#    y 0.000000 1.617720 0.000000 
#    z 0.000000 0.000000 1.639030 
# 
# From -- ./inp_files/9711.got.cif
#   From: 2010.03.12/outbox.cif.g09.slc.cpg/sg59_5_cif.got.tgz:9711.got - 2010.04.16 16:29:54.
