data_PCOD8244776
_publ_section_title
;
Structure prediction by ZEFSAII (Michael W. Deem and Ramdas Pophale) SiO2 
 PCOD8244776
Probable space group: P M M N
;
_chemical_formula_sum "Si O2"
_cell_formula_units_Z 64
_cell_length_a 9.342936
_cell_length_b 15.322045
_cell_length_c 23.793106
_cell_angle_alpha 90.000000
_cell_angle_beta 90.000000
_cell_angle_gamma 90.000000
_cell_volume 3406.051787
_symmetry_space_group_name_H-M "P M M N"
_symmetry_group_IT_number 59
_space_group.IT_coordinate_system_code '2'
_symmetry_cell_setting 'orthorhombic'
loop_
_space_group_symop_operation_xyz
x,y,z
1/2-x,1/2-y,z
1/2+x,-y,-z
-x,1/2+y,-z
-x,-y,-z
1/2+x,1/2+y,-z
1/2-x,y,z
x,1/2-y,z
loop_
_atom_site_type_symbol
_atom_site_label
_atom_site_fract_x
_atom_site_fract_y
_atom_site_fract_z
Si Si1 0.590493 0.146501 0.933870
Si Si2 0.085210 0.426185 0.467353
Si Si3 0.408809 0.146355 0.036481
Si Si4 0.080805 0.519630 0.630293
Si Si5 0.415680 0.981485 0.759357
Si Si6 0.085767 0.342444 0.578499
Si Si7 0.584351 0.848881 0.174967
Si Si8 0.080701 0.349518 0.161933
O O1 0.750000 0.107106 0.930061
O O2 0.595658 0.250000 0.938416
O O3 0.504445 0.118508 0.878674
O O4 0.514731 0.107003 0.989386
O O5 0.250000 0.452783 0.456129
O O6 0.075982 0.345155 0.510245
O O7 0.000000 0.500000 0.500000
O O8 0.004449 0.409022 0.407701
O O9 0.250000 0.107913 0.026274
O O10 0.401428 0.250000 0.031505
O O11 0.463976 0.121417 0.098797
O O12 0.250000 0.528412 0.618805
O O13 0.041679 0.533463 0.694896
O O14 0.017920 0.425101 0.610732
O O15 0.250000 0.960491 0.769714
O O16 0.506398 0.913993 0.795009
O O17 0.448383 0.082585 0.775217
O O18 0.250000 0.341560 0.597357
O O19 0.013923 0.250000 0.597098
O O20 0.750000 0.850534 0.157525
O O21 0.540712 0.750000 0.193724
O O22 0.250000 0.356678 0.169084
O O23 0.030788 0.250000 0.173682
#
# Coordination Sequence:
#
# PCOD8244776 Si02
#       8
#     8   8   8   8   8   8   8   8
#     4   9  16  26  44  72 101 128 162 205 255 311
#     4   9  16  28  48  71  95 124 156 191 233 280
#     4   8  14  27  48  71  94 122 158 203 257 314
#     4   9  18  32  49  70  98 130 164 202 243 290
#     4  10  21  35  52  76 103 134 175 218 257 299
#     4   8  14  26  47  74  99 123 155 196 237 277
#     4   9  18  33  51  71 100 138 175 211 254 305
#     4   9  19  36  56  76  98 128 168 213 262 315
#
# _framework density 18.790082999999999
#
# number of rings (size 3 to 8) (size 9 to 14) (size 15 to 20)
#    0.000    3.125    0.000    2.250    0.000    3.750 
#    0.000    5.000    0.000   11.625    0.000    3.500 
#    0.000    0.000    0.000    0.000    0.000    0.000 
#
# Total GULP energy -792993.914630 kJ/mol
# GULP energy per Si atom -12390.529916 kJ/mol
# Density = 1.874732 g / cm^3
# Si number density = 18.790083 Si / 1000 Ang^3
#
#
#
# Elastic Constant Matrix: (Units=GPa)
#
#
# Indices 1 2 3 4 5 6 
#
# 1 67.5540 10.9723 39.4616 0.0000 0.0000 0.0000
# 2 10.9723 31.0503 3.4411 0.0000 0.0000 0.0000
# 3 39.4616 3.4411 93.4478 0.0000 0.0000 0.0000
# 4 0.0000 0.0000 0.0000 15.6842 0.0000 0.0000
# 5 0.0000 0.0000 0.0000 0.0000 30.7032 0.0000
# 6 0.0000 0.0000 0.0000 0.0000 0.0000 17.7709
#
#
#
# Elastic Compliance Matrix: (Units=1/GPa)
#
#
# Indices 1 2 3 4 5 6 
#
# 1 0.020851 -0.006418 -0.008569 0.000000 0.000000 0.000000
# 2 -0.006418 0.034314 0.001447 0.000000 0.000000 0.000000
# 3 -0.008569 0.001447 0.014266 0.000000 0.000000 0.000000
# 4 0.000000 0.000000 0.000000 0.063759 0.000000 0.000000
# 5 0.000000 0.000000 0.000000 0.000000 0.032570 0.000000
# 6 0.000000 0.000000 0.000000 0.000000 0.000000 0.056272
#
#
# Mechanical properties :
#
#
# Convention : Reuss Voigt Hill
#
# Bulk Modulus (GPa) = 23.61261 33.31132 28.46197
# Shear Modulus (GPa) = 18.99493 22.04347 20.51920
#
# Velocity S-wave (km/s) = 3.18292 3.42883 3.30816
# Velocity P-wave (km/s) = 5.10899 5.78295 5.45638
#
# Compressibility (1/GPa) = 0.04235025
#
# Stress axis : x y z
#
# Youngs Moduli (GPa) = 47.95968 29.14295 70.09533
#
# Poissons Ratio (x) = 0.18705 0.60062
# Poissons Ratio (y) = 0.30783 -0.10142
# Poissons Ratio (z) = 0.41095 -0.04217
#
# Static dielectric constant tensor:
#      x y z
#    x 3.510600 0.000000 0.000000 
#    y 0.000000 3.353070 0.000000 
#    z 0.000000 0.000000 3.646710 
# 
# 
# High freq. dielectric constant tensor:
#      x y z
#    x 1.714000 0.000000 0.000000 
#    y 0.000000 1.707160 0.000000 
#    z 0.000000 0.000000 1.727560 
# 
# From -- ./inp_files/31762.got.cif
#   From: 2010.03.12/outbox.cif.g09.slc.cpg/sg59_16_cif.got.tgz:31762.got - 2010.04.16 16:29:54.
