data_PCOD8244273
_publ_section_title
;
Structure prediction by ZEFSAII (Michael W. Deem and Ramdas Pophale) SiO2 
 PCOD8244273
Probable space group: P M M N
;
_chemical_formula_sum "Si O2"
_cell_formula_units_Z 64
_cell_length_a 8.758070
_cell_length_b 15.274319
_cell_length_c 24.052549
_cell_angle_alpha 90.000000
_cell_angle_beta 90.000000
_cell_angle_gamma 90.000000
_cell_volume 3217.594987
_symmetry_space_group_name_H-M "P M M N"
_symmetry_group_IT_number 59
_space_group.IT_coordinate_system_code '2'
_symmetry_cell_setting 'orthorhombic'
loop_
_space_group_symop_operation_xyz
x,y,z
1/2-x,1/2-y,z
1/2+x,-y,-z
-x,1/2+y,-z
-x,-y,-z
1/2+x,1/2+y,-z
1/2-x,y,z
x,1/2-y,z
loop_
_atom_site_type_symbol
_atom_site_label
_atom_site_fract_x
_atom_site_fract_y
_atom_site_fract_z
Si Si1 0.426098 0.907551 0.613622
Si Si2 0.930522 0.352448 0.003363
Si Si3 0.567667 0.509682 0.205221
Si Si4 0.426939 0.914357 0.395565
Si Si5 0.072020 0.656865 0.732759
Si Si6 0.421797 0.349372 0.495895
Si Si7 0.069411 0.486843 0.920272
Si Si8 0.576664 0.847593 0.290338
O O1 0.250000 0.937403 0.608981
O O2 0.453058 0.846538 0.666611
O O3 0.473644 0.856802 0.558261
O O4 0.535883 0.989038 0.625346
O O5 0.750000 0.349121 0.997433
O O6 0.989647 0.250000 0.010186
O O7 0.997976 0.401052 0.949361
O O8 0.978329 0.417757 0.054267
O O9 0.750000 0.509050 0.205156
O O10 0.496344 0.422333 0.233113
O O11 0.506597 0.516103 0.142558
O O12 0.507056 0.590413 0.242451
O O13 0.250000 0.898320 0.406280
O O14 0.513181 0.906139 0.454002
O O15 0.482895 0.848874 0.347723
O O16 0.250000 0.654259 0.746395
O O17 0.002674 0.750000 0.752955
O O18 0.250000 0.381615 0.482149
O O19 0.422464 0.250000 0.516450
O O20 0.250000 0.476082 0.923778
O O21 0.750000 0.876367 0.304300
O O22 0.569933 0.750000 0.266098
#
# Coordination Sequence:
#
# PCOD8244273 Si02
#       8
#     8   8   8   8   8   8   8   8
#     4  11  21  37  59  81 109 141 180 225 277 338
#     4   9  18  33  52  78 115 154 187 227 280 328
#     4   9  17  32  53  81 113 142 180 229 276 324
#     4  12  24  38  57  80 107 140 183 230 279 333
#     4   9  17  30  53  83 110 137 173 221 276 330
#     4  11  24  40  57  80 110 142 178 224 281 340
#     4   9  18  32  54  82 111 147 191 234 273 324
#     4  10  20  36  57  79 107 144 181 223 280 338
#
# _framework density 19.890633000000001
#
# number of rings (size 3 to 8) (size 9 to 14) (size 15 to 20)
#    0.000    2.000    1.250    3.000    0.000    4.500 
#    0.000    4.375    0.000    0.000    0.000    0.000 
#    0.000    0.000    0.000    0.000    0.000    0.000 
#
# Total GULP energy -793293.143737 kJ/mol
# GULP energy per Si atom -12395.205371 kJ/mol
# Density = 1.984536 g / cm^3
# Si number density = 19.890633 Si / 1000 Ang^3
#
#
#
# Elastic Constant Matrix: (Units=GPa)
#
#
# Indices 1 2 3 4 5 6 
#
# 1 41.1425 20.7247 24.6455 0.0000 0.0000 0.0000
# 2 20.7247 133.2152 47.3800 0.0000 0.0000 0.0000
# 3 24.6455 47.3800 136.9700 0.0000 0.0000 0.0000
# 4 0.0000 0.0000 0.0000 18.5318 0.0000 0.0000
# 5 0.0000 0.0000 0.0000 0.0000 23.7726 0.0000
# 6 0.0000 0.0000 0.0000 0.0000 0.0000 20.0910
#
#
#
# Elastic Compliance Matrix: (Units=1/GPa)
#
#
# Indices 1 2 3 4 5 6 
#
# 1 0.028221 -0.002947 -0.004059 0.000000 0.000000 0.000000
# 2 -0.002947 0.008867 -0.002537 0.000000 0.000000 0.000000
# 3 -0.004059 -0.002537 0.008909 0.000000 0.000000 0.000000
# 4 0.000000 0.000000 0.000000 0.053961 0.000000 0.000000
# 5 0.000000 0.000000 0.000000 0.000000 0.042065 0.000000
# 6 0.000000 0.000000 0.000000 0.000000 0.000000 0.049773
#
#
# Mechanical properties :
#
#
# Convention : Reuss Voigt Hill
#
# Bulk Modulus (GPa) = 37.15771 55.20311 46.18041
# Shear Modulus (GPa) = 22.74238 27.05094 24.89666
#
# Velocity S-wave (km/s) = 3.38505 3.69180 3.54174
# Velocity P-wave (km/s) = 5.83092 6.78130 6.32399
#
# Compressibility (1/GPa) = 0.02691232
#
# Stress axis : x y z
#
# Youngs Moduli (GPa) = 35.43401 112.77146 112.24894
#
# Poissons Ratio (x) = 0.33234 0.45557
# Poissons Ratio (y) = 0.10442 0.28479
# Poissons Ratio (z) = 0.14381 0.28612
#
# Static dielectric constant tensor:
#      x y z
#    x 3.343160 0.000000 0.000000 
#    y 0.000000 3.847990 0.000000 
#    z 0.000000 0.000000 3.650140 
# 
# 
# High freq. dielectric constant tensor:
#      x y z
#    x 1.740690 0.000000 0.000000 
#    y 0.000000 1.789180 0.000000 
#    z 0.000000 0.000000 1.772170 
# 
# From -- ./inp_files/31644.got.cif
#   From: 2010.03.12/outbox.cif.g09.slc.cpg/sg59_16_cif.got.tgz:31644.got - 2010.04.16 16:29:54.
