data_PCOD8244923
_publ_section_title
;
Structure prediction by ZEFSAII (Michael W. Deem and Ramdas Pophale) SiO2 
 PCOD8244923
Probable space group: P M M N
;
_chemical_formula_sum "Si O2"
_cell_formula_units_Z 48
_cell_length_a 8.806571
_cell_length_b 23.802816
_cell_length_c 11.403348
_cell_angle_alpha 90.000000
_cell_angle_beta 90.000000
_cell_angle_gamma 90.000000
_cell_volume 2390.383368
_symmetry_space_group_name_H-M "P M M N"
_symmetry_group_IT_number 59
_space_group.IT_coordinate_system_code '2'
_symmetry_cell_setting 'orthorhombic'
loop_
_space_group_symop_operation_xyz
x,y,z
1/2-x,1/2-y,z
1/2+x,-y,-z
-x,1/2+y,-z
-x,-y,-z
1/2+x,1/2+y,-z
1/2-x,y,z
x,1/2-y,z
loop_
_atom_site_type_symbol
_atom_site_label
_atom_site_fract_x
_atom_site_fract_y
_atom_site_fract_z
Si Si1 0.069752 0.185642 0.854256
Si Si2 0.572516 0.404828 0.702457
Si Si3 0.428093 0.310825 0.311563
Si Si4 0.930781 0.625653 0.913838
Si Si5 0.571123 0.976507 0.771950
Si Si6 0.927668 0.914420 0.541571
O O1 0.250000 0.186844 0.855210
O O2 0.008268 0.250000 0.853064
O O3 0.014720 0.151674 0.739932
O O4 0.002362 0.150968 0.965485
O O5 0.750000 0.392301 0.706381
O O6 0.529061 0.457754 0.787922
O O7 0.525567 0.425307 0.573724
O O8 0.250000 0.305335 0.292449
O O9 0.502240 0.250000 0.335984
O O10 0.494558 0.335629 0.190780
O O11 0.461433 0.350148 0.422082
O O12 0.750000 0.627344 0.922243
O O13 0.987288 0.561687 0.882076
O O14 0.750000 0.967381 0.763702
O O15 0.509555 0.953976 0.646343
O O16 0.750000 0.924357 0.514884
#
# Coordination Sequence:
#
# PCOD8244923 Si02
#       6
#     8   8   8   8   8   8
#     4  10  21  36  54  75  98 128 168 209 246 291
#     4  11  22  34  49  71 103 140 170 199 243 300
#     4   8  13  23  45  76 100 118 151 205 260 297
#     4   8  14  28  51  76  99 122 155 204 256 299
#     4   8  16  31  52  78 103 127 161 208 258 300
#     4   9  17  31  51  74 101 133 169 209 248 289
#
# _framework density 20.080459999999999
#
# number of rings (size 3 to 8) (size 9 to 14) (size 15 to 20)
#    0.000    3.000    0.000    3.500    0.000    3.667 
#    0.000    2.500    0.000    5.000    0.000    0.000 
#    0.000    0.000    0.000    0.000    0.000    0.000 
#
# Total GULP energy -594703.225981 kJ/mol
# GULP energy per Si atom -12389.650541 kJ/mol
# Density = 2.003476 g / cm^3
# Si number density = 20.080460 Si / 1000 Ang^3
#
#
#
# Elastic Constant Matrix: (Units=GPa)
#
#
# Indices 1 2 3 4 5 6 
#
# 1 16.9844 22.3441 9.5466 0.0000 0.0000 0.0000
# 2 22.3441 130.7702 30.9864 0.0000 0.0000 0.0000
# 3 9.5466 30.9864 63.8411 0.0000 0.0000 0.0000
# 4 0.0000 0.0000 0.0000 23.2600 0.0000 0.0000
# 5 0.0000 0.0000 0.0000 0.0000 13.2662 0.0000
# 6 0.0000 0.0000 0.0000 0.0000 0.0000 17.4120
#
#
#
# Elastic Compliance Matrix: (Units=1/GPa)
#
#
# Indices 1 2 3 4 5 6 
#
# 1 0.077842 -0.011912 -0.005858 0.000000 0.000000 0.000000
# 2 -0.011912 0.010464 -0.003297 0.000000 0.000000 0.000000
# 3 -0.005858 -0.003297 0.018140 0.000000 0.000000 0.000000
# 4 0.000000 0.000000 0.000000 0.042992 0.000000 0.000000
# 5 0.000000 0.000000 0.000000 0.000000 0.075380 0.000000
# 6 0.000000 0.000000 0.000000 0.000000 0.000000 0.057432
#
#
# Mechanical properties :
#
#
# Convention : Reuss Voigt Hill
#
# Bulk Modulus (GPa) = 15.54974 37.48333 26.51653
# Shear Modulus (GPa) = 14.45829 20.70221 17.58025
#
# Velocity S-wave (km/s) = 2.68623 3.21434 2.96208
# Velocity P-wave (km/s) = 4.16913 5.69940 4.99323
#
# Compressibility (1/GPa) = 0.06430976
#
# Stress axis : x y z
#
# Youngs Moduli (GPa) = 12.84654 95.56814 55.12557
#
# Poissons Ratio (x) = 1.13844 0.32295
# Poissons Ratio (y) = 0.15303 0.18177
# Poissons Ratio (z) = 0.07526 0.31513
#
# Static dielectric constant tensor:
#      x y z
#    x 2.952490 0.000000 0.000000 
#    y 0.000000 4.409940 0.000000 
#    z 0.000000 0.000000 3.589740 
# 
# 
# High freq. dielectric constant tensor:
#      x y z
#    x 1.717750 0.000000 0.000000 
#    y 0.000000 1.801920 0.000000 
#    z 0.000000 0.000000 1.775860 
# 
# From -- ./inp_files/14300.got.cif
#   From: 2010.03.12/outbox.cif.g09.slc.cpg/sg59_8_cif.got.tgz:14300.got - 2010.04.16 16:29:54.
