data_PCOD8244603
_publ_section_title
;
Structure prediction by ZEFSAII (Michael W. Deem and Ramdas Pophale) SiO2 
 PCOD8244603
Probable space group: P M M N
;
_chemical_formula_sum "Si O2"
_cell_formula_units_Z 56
_cell_length_a 20.409165
_cell_length_b 9.099513
_cell_length_c 14.782911
_cell_angle_alpha 90.000000
_cell_angle_beta 90.000000
_cell_angle_gamma 90.000000
_cell_volume 2745.385584
_symmetry_space_group_name_H-M "P M M N"
_symmetry_group_IT_number 59
_space_group.IT_coordinate_system_code '2'
_symmetry_cell_setting 'orthorhombic'
loop_
_space_group_symop_operation_xyz
x,y,z
1/2-x,1/2-y,z
1/2+x,-y,-z
-x,1/2+y,-z
-x,-y,-z
1/2+x,1/2+y,-z
1/2-x,y,z
x,1/2-y,z
loop_
_atom_site_type_symbol
_atom_site_label
_atom_site_fract_x
_atom_site_fract_y
_atom_site_fract_z
Si Si1 0.566027 0.089398 0.994846
Si Si2 0.250000 0.090087 0.808043
Si Si3 0.389079 0.073865 0.322347
Si Si4 0.750000 0.584618 0.404474
Si Si5 0.673758 0.423859 0.851142
Si Si6 0.036242 0.577664 0.657644
Si Si7 0.366882 0.923428 0.506047
Si Si8 0.873688 0.088457 0.186600
O O1 0.549739 0.250000 0.954652
O O2 0.625820 0.024228 0.933454
O O3 0.583683 0.104324 0.098412
O O4 0.500000 0.000000 0.000000
O O5 0.250000 0.250000 0.852963
O O6 0.250000 0.100542 0.701495
O O7 0.313108 0.007801 0.843812
O O8 0.384411 0.250000 0.321544
O O9 0.463815 0.013545 0.325967
O O10 0.349945 0.009504 0.237813
O O11 0.357320 0.010409 0.413129
O O12 0.750000 0.750000 0.447740
O O13 0.687516 0.488127 0.428528
O O14 0.750000 0.465428 0.872466
O O15 0.668409 0.250000 0.834233
O O16 0.032645 0.750000 0.675257
O O17 0.063537 0.544464 0.556505
O O18 0.084478 0.509933 0.733706
O O19 0.356778 0.750000 0.490078
O O20 0.849895 0.250000 0.219567
#
# Coordination Sequence:
#
# PCOD8244603 Si02
#       8
#     8   4   8   4   8   8   8   8
#     4  10  22  40  67  96 124 160 202 254 310 367
#     4  11  23  37  55  88 125 156 193 249 306 348
#     4  11  23  40  62  88 120 158 204 256 306 356
#     4  11  23  39  57  84 121 158 199 249 302 352
#     4  10  23  43  63  88 122 163 213 259 304 365
#     4   9  19  36  59  89 121 155 196 242 295 361
#     4  11  22  38  61  88 119 160 203 246 301 363
#     4  10  20  37  63  89 117 159 202 237 291 367
#
# _framework density 20.397862
#
# number of rings (size 3 to 8) (size 9 to 14) (size 15 to 20)
#    0.000    1.714    1.429    2.571    2.000    3.143 
#    0.000    3.571    0.000    0.000    0.000    0.000 
#    0.000    0.000    0.000    0.000    0.000    0.000 
#
# Total GULP energy -694096.274783 kJ/mol
# GULP energy per Si atom -12394.576335 kJ/mol
# Density = 2.035144 g / cm^3
# Si number density = 20.397862 Si / 1000 Ang^3
#
#
#
# Elastic Constant Matrix: (Units=GPa)
#
#
# Indices 1 2 3 4 5 6 
#
# 1 129.5696 49.4761 22.4433 0.0000 0.0000 0.0000
# 2 49.4761 82.5625 25.3331 0.0000 0.0000 0.0000
# 3 22.4433 25.3331 89.2027 0.0000 0.0000 0.0000
# 4 0.0000 0.0000 0.0000 20.6648 0.0000 0.0000
# 5 0.0000 0.0000 0.0000 0.0000 29.4526 0.0000
# 6 0.0000 0.0000 0.0000 0.0000 0.0000 49.4396
#
#
#
# Elastic Compliance Matrix: (Units=1/GPa)
#
#
# Indices 1 2 3 4 5 6 
#
# 1 0.010073 -0.005761 -0.000898 0.000000 0.000000 0.000000
# 2 -0.005761 0.016563 -0.003254 0.000000 0.000000 0.000000
# 3 -0.000898 -0.003254 0.012361 0.000000 0.000000 0.000000
# 4 0.000000 0.000000 0.000000 0.048391 0.000000 0.000000
# 5 0.000000 0.000000 0.000000 0.000000 0.033953 0.000000
# 6 0.000000 0.000000 0.000000 0.000000 0.000000 0.020227
#
#
# Mechanical properties :
#
#
# Convention : Reuss Voigt Hill
#
# Bulk Modulus (GPa) = 52.16573 55.09328 53.62951
# Shear Modulus (GPa) = 29.80012 33.51690 31.65851
#
# Velocity S-wave (km/s) = 3.82638 4.05799 3.94388
# Velocity P-wave (km/s) = 6.71946 7.00174 6.86205
#
# Compressibility (1/GPa) = 0.01916967
#
# Stress axis : x y z
#
# Youngs Moduli (GPa) = 99.27305 60.37634 80.90176
#
# Poissons Ratio (x) = 0.34782 0.07268
# Poissons Ratio (y) = 0.57189 0.26328
# Poissons Ratio (z) = 0.08918 0.19648
#
# Static dielectric constant tensor:
#      x y z
#    x 3.863330 0.000000 0.000000 
#    y 0.000000 3.993970 0.000000 
#    z 0.000000 0.000000 3.713360 
# 
# 
# High freq. dielectric constant tensor:
#      x y z
#    x 1.806190 0.000000 0.000000 
#    y 0.000000 1.783060 0.000000 
#    z 0.000000 0.000000 1.801210 
# 
# From -- ./inp_files/24332.got.cif
#   From: 2010.03.12/outbox.cif.g09.slc.cpg/sg59_13_cif.got.tgz:24332.got - 2010.04.16 16:29:54.
