data_PCOD8244694
_publ_section_title
;
Structure prediction by ZEFSAII (Michael W. Deem and Ramdas Pophale) SiO2 
 PCOD8244694
Probable space group: P M M N
;
_chemical_formula_sum "Si O2"
_cell_formula_units_Z 64
_cell_length_a 28.774072
_cell_length_b 8.964469
_cell_length_c 12.591864
_cell_angle_alpha 90.000000
_cell_angle_beta 90.000000
_cell_angle_gamma 90.000000
_cell_volume 3247.999249
_symmetry_space_group_name_H-M "P M M N"
_symmetry_group_IT_number 59
_space_group.IT_coordinate_system_code '2'
_symmetry_cell_setting 'orthorhombic'
loop_
_space_group_symop_operation_xyz
x,y,z
1/2-x,1/2-y,z
1/2+x,-y,-z
-x,1/2+y,-z
-x,-y,-z
1/2+x,1/2+y,-z
1/2-x,y,z
x,1/2-y,z
loop_
_atom_site_type_symbol
_atom_site_label
_atom_site_fract_x
_atom_site_fract_y
_atom_site_fract_z
Si Si1 0.045263 0.573378 0.548118
Si Si2 0.608815 0.923276 0.032104
Si Si3 0.556803 0.073338 0.842623
Si Si4 0.302049 0.576141 0.470984
Si Si5 0.195319 0.084749 0.680637
Si Si6 0.545174 0.577984 0.230045
Si Si7 0.196793 0.573804 0.895674
Si Si8 0.890610 0.423428 0.639650
O O1 0.039071 0.750000 0.552093
O O2 0.056741 0.516449 0.665725
O O3 0.086150 0.520859 0.469326
O O4 0.000000 0.500000 0.500000
O O5 0.614782 0.750000 0.006768
O O6 0.586741 0.950244 0.147823
O O7 0.659905 0.999404 0.023747
O O8 0.573677 0.994217 0.948599
O O9 0.562674 0.250000 0.857155
O O10 0.503552 0.027642 0.821988
O O11 0.587586 0.005080 0.745505
O O12 0.250000 0.525244 0.439887
O O13 0.303297 0.750000 0.500929
O O14 0.322569 0.489363 0.572380
O O15 0.335438 0.541799 0.370426
O O16 0.250000 0.099360 0.672169
O O17 0.173010 0.250000 0.695400
O O18 0.182099 0.980900 0.779014
O O19 0.541408 0.750000 0.263766
O O20 0.250000 0.525644 0.923819
O O21 0.191702 0.750000 0.901364
O O22 0.900928 0.250000 0.650836
#
# Coordination Sequence:
#
# PCOD8244694 Si02
#       8
#     8   8   8   8   8   8   8   8
#     4  11  21  36  58  85 117 152 192 236 290 353
#     4  11  24  39  59  89 119 148 193 244 294 347
#     4  10  20  40  62  79 112 156 197 241 288 344
#     4   9  17  31  52  79 110 146 191 235 278 337
#     4   9  17  30  49  75 109 146 180 224 285 337
#     4  10  22  40  60  85 119 155 192 239 293 349
#     4  10  21  38  59  82 110 149 195 236 283 346
#     4   9  19  35  56  81 112 152 192 237 287 335
#
# _framework density 19.704438
#
# number of rings (size 3 to 8) (size 9 to 14) (size 15 to 20)
#    0.000    2.125    1.250    1.875    1.750    3.750 
#    0.000    1.875    0.000    2.250    0.000    0.000 
#    0.000    0.000    0.000    0.000    0.000    0.000 
#
# Total GULP energy -793454.869027 kJ/mol
# GULP energy per Si atom -12397.732329 kJ/mol
# Density = 1.965959 g / cm^3
# Si number density = 19.704438 Si / 1000 Ang^3
#
#
#
# Elastic Constant Matrix: (Units=GPa)
#
#
# Indices 1 2 3 4 5 6 
#
# 1 95.7835 28.6704 23.2836 0.0000 0.0000 0.0000
# 2 28.6704 69.3089 29.4849 0.0000 0.0000 0.0000
# 3 23.2836 29.4849 69.7435 0.0000 0.0000 0.0000
# 4 0.0000 0.0000 0.0000 28.6427 0.0000 0.0000
# 5 0.0000 0.0000 0.0000 0.0000 26.9922 0.0000
# 6 0.0000 0.0000 0.0000 0.0000 0.0000 21.8531
#
#
#
# Elastic Compliance Matrix: (Units=1/GPa)
#
#
# Indices 1 2 3 4 5 6 
#
# 1 0.012229 -0.004050 -0.002370 0.000000 0.000000 0.000000
# 2 -0.004050 0.018934 -0.006652 0.000000 0.000000 0.000000
# 3 -0.002370 -0.006652 0.017942 0.000000 0.000000 0.000000
# 4 0.000000 0.000000 0.000000 0.034913 0.000000 0.000000
# 5 0.000000 0.000000 0.000000 0.000000 0.037048 0.000000
# 6 0.000000 0.000000 0.000000 0.000000 0.000000 0.045760
#
#
# Mechanical properties :
#
#
# Convention : Reuss Voigt Hill
#
# Bulk Modulus (GPa) = 43.55638 44.19041 43.87340
# Shear Modulus (GPa) = 24.92237 25.72408 25.32322
#
# Velocity S-wave (km/s) = 3.56027 3.61709 3.58879
# Velocity P-wave (km/s) = 6.24929 6.31821 6.28384
#
# Compressibility (1/GPa) = 0.02295875
#
# Stress axis : x y z
#
# Youngs Moduli (GPa) = 81.77479 52.81643 55.73559
#
# Poissons Ratio (x) = 0.21392 0.13211
# Poissons Ratio (y) = 0.33120 0.37076
# Poissons Ratio (z) = 0.19383 0.35135
#
# Static dielectric constant tensor:
#      x y z
#    x 3.796030 0.000000 0.000000 
#    y 0.000000 3.549080 0.000000 
#    z 0.000000 0.000000 3.538480 
# 
# 
# High freq. dielectric constant tensor:
#      x y z
#    x 1.778900 0.000000 0.000000 
#    y 0.000000 1.755720 0.000000 
#    z 0.000000 0.000000 1.753570 
# 
# From -- ./inp_files/19334.got.cif
#   From: 2010.03.12/outbox.cif.g09.slc.cpg/sg59_10_cif.got.tgz:19334.got - 2010.04.16 16:29:54.
