data_PCOD8244821
_publ_section_title
;
Structure prediction by ZEFSAII (Michael W. Deem and Ramdas Pophale) SiO2 
 PCOD8244821
Probable space group: P M M N
;
_chemical_formula_sum "Si O2"
_cell_formula_units_Z 40
_cell_length_a 7.568736
_cell_length_b 9.217694
_cell_length_c 29.190938
_cell_angle_alpha 90.000000
_cell_angle_beta 90.000000
_cell_angle_gamma 90.000000
_cell_volume 2036.543516
_symmetry_space_group_name_H-M "P M M N"
_symmetry_group_IT_number 59
_space_group.IT_coordinate_system_code '2'
_symmetry_cell_setting 'orthorhombic'
loop_
_space_group_symop_operation_xyz
x,y,z
1/2-x,1/2-y,z
1/2+x,-y,-z
-x,1/2+y,-z
-x,-y,-z
1/2+x,1/2+y,-z
1/2-x,y,z
x,1/2-y,z
loop_
_atom_site_type_symbol
_atom_site_label
_atom_site_fract_x
_atom_site_fract_y
_atom_site_fract_z
Si Si1 0.750000 0.076805 0.298792
Si Si2 0.250000 0.417464 0.795147
Si Si3 0.044962 0.921885 0.355946
Si Si4 0.456808 0.089361 0.044869
Si Si5 0.047056 0.917148 0.132438
Si Si6 0.455957 0.906266 0.456523
O O1 0.750000 0.250000 0.302708
O O2 0.750000 0.028832 0.246361
O O3 0.573131 0.013105 0.321348
O O4 0.250000 0.250000 0.778262
O O5 0.426616 0.450746 0.823852
O O6 0.250000 0.960158 0.346704
O O7 0.013076 0.750000 0.349498
O O8 0.983406 0.970370 0.407404
O O9 0.250000 0.102379 0.050309
O O10 0.542256 0.250000 0.041486
O O11 0.529931 0.008578 0.089832
O O12 0.500000 0.000000 0.000000
O O13 0.250000 0.957068 0.144695
O O14 0.030832 0.750000 0.117851
O O15 0.250000 0.883711 0.452352
O O16 0.547142 0.750000 0.464249
O O17 0.500000 0.000000 0.500000
#
# Coordination Sequence:
#
# PCOD8244821 Si02
#       6
#     4   4   8   8   8   8
#     4  12  26  40  60  92 124 154 196 252 309 360
#     4  10  22  40  62  86 112 150 200 242 289 360
#     4   9  20  41  64  84 115 159 204 247 293 355
#     4  10  21  35  53  80 114 152 191 231 282 340
#     4   9  19  37  59  83 113 147 188 240 290 339
#     4   9  19  34  53  81 114 149 191 235 285 345
#
# _framework density 19.641121999999999
#
# number of rings (size 3 to 8) (size 9 to 14) (size 15 to 20)
#    0.000    2.400    0.000    2.700    2.800    4.400 
#    0.000    4.000    0.000    0.000    0.000    0.000 
#    0.000    0.000    0.000    0.000    0.000    0.000 
#
# Total GULP energy -495818.973405 kJ/mol
# GULP energy per Si atom -12395.474335 kJ/mol
# Density = 1.959642 g / cm^3
# Si number density = 19.641122 Si / 1000 Ang^3
#
#
#
# Elastic Constant Matrix: (Units=GPa)
#
#
# Indices 1 2 3 4 5 6 
#
# 1 84.1974 46.4534 55.7142 0.0000 0.0000 0.0000
# 2 46.4534 123.9884 86.6511 0.0000 0.0000 0.0000
# 3 55.7142 86.6511 157.0002 0.0000 0.0000 0.0000
# 4 0.0000 0.0000 0.0000 40.4940 0.0000 0.0000
# 5 0.0000 0.0000 0.0000 0.0000 32.1515 0.0000
# 6 0.0000 0.0000 0.0000 0.0000 0.0000 21.5493
#
#
#
# Elastic Compliance Matrix: (Units=1/GPa)
#
#
# Indices 1 2 3 4 5 6 
#
# 1 0.016343 -0.003370 -0.003940 0.000000 0.000000 0.000000
# 2 -0.003370 0.013824 -0.006434 0.000000 0.000000 0.000000
# 3 -0.003940 -0.006434 0.011319 0.000000 0.000000 0.000000
# 4 0.000000 0.000000 0.000000 0.024695 0.000000 0.000000
# 5 0.000000 0.000000 0.000000 0.000000 0.031103 0.000000
# 6 0.000000 0.000000 0.000000 0.000000 0.000000 0.046405
#
#
# Mechanical properties :
#
#
# Convention : Reuss Voigt Hill
#
# Bulk Modulus (GPa) = 71.43483 82.53593 76.98538
# Shear Modulus (GPa) = 28.43458 30.59677 29.51567
#
# Velocity S-wave (km/s) = 3.80900 3.95117 3.88074
# Velocity P-wave (km/s) = 7.46951 7.93277 7.70463
#
# Compressibility (1/GPa) = 0.01399877
#
# Stress axis : x y z
#
# Youngs Moduli (GPa) = 61.18837 72.33635 88.35004
#
# Poissons Ratio (x) = 0.24375 0.34808
# Poissons Ratio (y) = 0.20618 0.56845
# Poissons Ratio (z) = 0.24107 0.46542
#
# Static dielectric constant tensor:
#      x y z
#    x 3.558840 0.000000 0.000000 
#    y 0.000000 3.634660 0.000000 
#    z 0.000000 0.000000 3.129020 
# 
# 
# High freq. dielectric constant tensor:
#      x y z
#    x 1.769680 0.000000 0.000000 
#    y 0.000000 1.756640 0.000000 
#    z 0.000000 0.000000 1.766990 
# 
# From -- ./inp_files/32381.got.cif
#   From: 2010.03.12/outbox.cif.g09.slc.cpg/sg59_17_cif.got.tgz:32381.got - 2010.04.16 16:29:54.
