data_PCOD8244165
_publ_section_title
;
Structure prediction by ZEFSAII (Michael W. Deem and Ramdas Pophale) SiO2 
 PCOD8244165
Probable space group: P M M N
;
_chemical_formula_sum "Si O2"
_cell_formula_units_Z 64
_cell_length_a 22.204704
_cell_length_b 9.898145
_cell_length_c 13.832785
_cell_angle_alpha 90.000000
_cell_angle_beta 90.000000
_cell_angle_gamma 90.000000
_cell_volume 3040.243906
_symmetry_space_group_name_H-M "P M M N"
_symmetry_group_IT_number 59
_space_group.IT_coordinate_system_code '2'
_symmetry_cell_setting 'orthorhombic'
loop_
_space_group_symop_operation_xyz
x,y,z
1/2-x,1/2-y,z
1/2+x,-y,-z
-x,1/2+y,-z
-x,-y,-z
1/2+x,1/2+y,-z
1/2-x,y,z
x,1/2-y,z
loop_
_atom_site_type_symbol
_atom_site_label
_atom_site_fract_x
_atom_site_fract_y
_atom_site_fract_z
Si Si1 0.376404 0.090735 0.540510
Si Si2 0.981739 0.600949 0.131546
Si Si3 0.320497 0.397532 0.741084
Si Si4 0.318267 0.599998 0.901375
Si Si5 0.875406 0.413597 0.637654
Si Si6 0.319256 0.398937 0.204379
Si Si7 0.012337 0.091453 0.656884
Si Si8 0.402886 0.474392 0.038355
O O1 0.374699 0.250000 0.509532
O O2 0.333539 0.062047 0.631233
O O3 0.443369 0.039391 0.572330
O O4 0.351319 0.991144 0.457382
O O5 0.007988 0.750000 0.146169
O O6 0.961511 0.545957 0.237612
O O7 0.038700 0.515938 0.097421
O O8 0.927073 0.606237 0.055431
O O9 0.250000 0.388333 0.754596
O O10 0.350453 0.250000 0.762417
O O11 0.345603 0.504520 0.817966
O O12 0.250000 0.559548 0.930894
O O13 0.319946 0.750000 0.858858
O O14 0.361357 0.594523 0.995522
O O15 0.866057 0.250000 0.633418
O O16 0.840437 0.476731 0.728646
O O17 0.944613 0.460806 0.645285
O O18 0.250000 0.426317 0.175889
O O19 0.325224 0.250000 0.254488
O O20 0.359601 0.388607 0.107574
O O21 0.012964 0.250000 0.647845
#
# Coordination Sequence:
#
# PCOD8244165 Si02
#       8
#     8   8   8   8   8   8   8   8
#     4  10  20  36  61  88 118 157 202 250 306 366
#     4  10  20  35  58  87 121 158 194 243 299 356
#     4   9  19  36  58  84 115 153 196 244 299 361
#     4  10  21  36  56  85 121 158 197 246 302 359
#     4  11  23  40  61  87 120 155 201 254 307 366
#     4  11  25  44  64  88 122 164 210 258 305 358
#     4   9  18  35  58  85 119 156 194 241 299 359
#     4  11  21  36  60  86 119 158 205 247 296 358
#
# _framework density 21.050941999999999
#
# number of rings (size 3 to 8) (size 9 to 14) (size 15 to 20)
#    0.000    1.875    1.250    2.625    0.000    3.750 
#    0.000    3.125    0.000    0.000    0.000    0.000 
#    0.000    0.000    0.000    0.000    0.000    0.000 
#
# Total GULP energy -792984.618978 kJ/mol
# GULP energy per Si atom -12390.384672 kJ/mol
# Density = 2.100303 g / cm^3
# Si number density = 21.050942 Si / 1000 Ang^3
#
#
#
# Elastic Constant Matrix: (Units=GPa)
#
#
# Indices 1 2 3 4 5 6 
#
# 1 67.6854 22.3063 19.3833 0.0000 0.0000 0.0000
# 2 22.3063 95.8073 41.3266 0.0000 0.0000 0.0000
# 3 19.3833 41.3266 97.8940 0.0000 0.0000 0.0000
# 4 0.0000 0.0000 0.0000 32.7701 0.0000 0.0000
# 5 0.0000 0.0000 0.0000 0.0000 31.6680 0.0000
# 6 0.0000 0.0000 0.0000 0.0000 0.0000 17.7717
#
#
#
# Elastic Compliance Matrix: (Units=1/GPa)
#
#
# Indices 1 2 3 4 5 6 
#
# 1 0.016313 -0.002940 -0.001989 0.000000 0.000000 0.000000
# 2 -0.002940 0.013291 -0.005029 0.000000 0.000000 0.000000
# 3 -0.001989 -0.005029 0.012732 0.000000 0.000000 0.000000
# 4 0.000000 0.000000 0.000000 0.030516 0.000000 0.000000
# 5 0.000000 0.000000 0.000000 0.000000 0.031578 0.000000
# 6 0.000000 0.000000 0.000000 0.000000 0.000000 0.056269
#
#
# Mechanical properties :
#
#
# Convention : Reuss Voigt Hill
#
# Bulk Modulus (GPa) = 44.60226 47.49101 46.04663
# Shear Modulus (GPa) = 26.58340 28.33334 27.45837
#
# Velocity S-wave (km/s) = 3.55746 3.67269 3.61553
# Velocity P-wave (km/s) = 6.17315 6.37133 6.27303
#
# Compressibility (1/GPa) = 0.02242039
#
# Stress axis : x y z
#
# Youngs Moduli (GPa) = 61.30183 75.23684 78.54299
#
# Poissons Ratio (x) = 0.22121 0.15620
# Poissons Ratio (y) = 0.18024 0.39498
# Poissons Ratio (z) = 0.12192 0.37836
#
# Static dielectric constant tensor:
#      x y z
#    x 4.064310 0.000000 0.000000 
#    y 0.000000 3.642420 0.000000 
#    z 0.000000 0.000000 3.847150 
# 
# 
# High freq. dielectric constant tensor:
#      x y z
#    x 1.835490 0.000000 0.000000 
#    y 0.000000 1.801960 0.000000 
#    z 0.000000 0.000000 1.826790 
# 
# From -- ./inp_files/24774.got.cif
#   From: 2010.03.12/outbox.cif.g09.slc.cpg/sg59_13_cif.got.tgz:24774.got - 2010.04.16 16:29:54.
