data_PCOD8244861
_publ_section_title
;
Structure prediction by ZEFSAII (Michael W. Deem and Ramdas Pophale) SiO2 
 PCOD8244861
Probable space group: P M M N
;
_chemical_formula_sum "Si O2"
_cell_formula_units_Z 64
_cell_length_a 9.122341
_cell_length_b 25.673460
_cell_length_c 14.239718
_cell_angle_alpha 90.000000
_cell_angle_beta 90.000000
_cell_angle_gamma 90.000000
_cell_volume 3334.971243
_symmetry_space_group_name_H-M "P M M N"
_symmetry_group_IT_number 59
_space_group.IT_coordinate_system_code '2'
_symmetry_cell_setting 'orthorhombic'
loop_
_space_group_symop_operation_xyz
x,y,z
1/2-x,1/2-y,z
1/2+x,-y,-z
-x,1/2+y,-z
-x,-y,-z
1/2+x,1/2+y,-z
1/2-x,y,z
x,1/2-y,z
loop_
_atom_site_type_symbol
_atom_site_label
_atom_site_fract_x
_atom_site_fract_y
_atom_site_fract_z
Si Si1 0.923866 0.192876 0.214577
Si Si2 0.418363 0.003637 0.208248
Si Si3 0.576348 0.404970 0.101391
Si Si4 0.416882 0.689429 0.573051
Si Si5 0.920694 0.690844 0.222081
Si Si6 0.419683 0.973358 0.413619
Si Si7 0.422419 0.897680 0.112094
Si Si8 0.920639 0.866568 0.411498
O O1 0.750000 0.195543 0.208841
O O2 0.987527 0.250000 0.186459
O O3 0.986344 0.148864 0.145032
O O4 0.969097 0.178822 0.320760
O O5 0.250000 0.011640 0.178295
O O6 0.437932 0.008588 0.320467
O O7 0.472513 0.946763 0.174430
O O8 0.514818 0.046731 0.158595
O O9 0.750000 0.407099 0.110710
O O10 0.524881 0.408171 0.994060
O O11 0.250000 0.669974 0.557302
O O12 0.428214 0.750000 0.548467
O O13 0.527915 0.657703 0.509014
O O14 0.750000 0.686083 0.199788
O O15 0.976268 0.750000 0.209725
O O16 0.953807 0.673989 0.328647
O O17 0.004187 0.654872 0.148441
O O18 0.250000 0.966018 0.439622
O O19 0.488914 0.918077 0.389854
O O20 0.500000 0.000000 0.500000
O O21 0.250000 0.888759 0.117371
O O22 0.750000 0.880727 0.419201
#
# Coordination Sequence:
#
# PCOD8244861 Si02
#       8
#     8   8   8   8   8   8   8   8
#     4   8  16  33  54  80 114 146 180 228 282 336
#     4  10  22  40  59  82 118 153 187 237 292 346
#     4  10  21  35  60  90 112 146 196 240 287 347
#     4   9  18  33  54  79 109 149 191 229 277 339
#     4  10  22  39  59  85 118 157 198 242 296 354
#     4  11  24  41  60  85 119 155 191 235 290 349
#     4  10  21  39  59  85 116 150 194 244 293 342
#     4  11  22  37  58  84 116 151 191 241 294 348
#
# _framework density 19.190570999999998
#
# number of rings (size 3 to 8) (size 9 to 14) (size 15 to 20)
#    0.000    2.125    1.250    2.250    1.750    4.000 
#    0.000    1.250    0.000    1.125    0.000    0.000 
#    0.000    0.000    0.000    0.000    0.000    0.000 
#
# Total GULP energy -793715.887425 kJ/mol
# GULP energy per Si atom -12401.810741 kJ/mol
# Density = 1.914689 g / cm^3
# Si number density = 19.190571 Si / 1000 Ang^3
#
#
#
# Elastic Constant Matrix: (Units=GPa)
#
#
# Indices 1 2 3 4 5 6 
#
# 1 64.2262 44.5611 44.8379 0.0000 0.0000 0.0000
# 2 44.5611 126.0615 60.8124 0.0000 0.0000 0.0000
# 3 44.8379 60.8124 117.0944 0.0000 0.0000 0.0000
# 4 0.0000 0.0000 0.0000 33.8598 0.0000 0.0000
# 5 0.0000 0.0000 0.0000 0.0000 27.7391 0.0000
# 6 0.0000 0.0000 0.0000 0.0000 0.0000 32.7464
#
#
#
# Elastic Compliance Matrix: (Units=1/GPa)
#
#
# Indices 1 2 3 4 5 6 
#
# 1 0.023660 -0.005328 -0.006293 0.000000 0.000000 0.000000
# 2 -0.005328 0.011784 -0.004080 0.000000 0.000000 0.000000
# 3 -0.006293 -0.004080 0.013069 0.000000 0.000000 0.000000
# 4 0.000000 0.000000 0.000000 0.029534 0.000000 0.000000
# 5 0.000000 0.000000 0.000000 0.000000 0.036050 0.000000
# 6 0.000000 0.000000 0.000000 0.000000 0.000000 0.030538
#
#
# Mechanical properties :
#
#
# Convention : Reuss Voigt Hill
#
# Bulk Modulus (GPa) = 58.44043 67.53387 62.98715
# Shear Modulus (GPa) = 27.51204 29.34708 28.42956
#
# Velocity S-wave (km/s) = 3.79043 3.91480 3.85312
# Velocity P-wave (km/s) = 7.04807 7.46336 7.25869
#
# Compressibility (1/GPa) = 0.01711144
#
# Stress axis : x y z
#
# Youngs Moduli (GPa) = 42.26611 84.86031 76.51890
#
# Poissons Ratio (x) = 0.45211 0.48152
# Poissons Ratio (y) = 0.22518 0.31219
# Poissons Ratio (z) = 0.26597 0.34622
#
# Static dielectric constant tensor:
#      x y z
#    x 3.329040 0.000000 0.000000 
#    y 0.000000 3.722970 0.000000 
#    z 0.000000 0.000000 3.616740 
# 
# 
# High freq. dielectric constant tensor:
#      x y z
#    x 1.728210 0.000000 0.000000 
#    y 0.000000 1.753540 0.000000 
#    z 0.000000 0.000000 1.755310 
# 
# From -- ./inp_files/21474.got.cif
#   From: 2010.03.12/outbox.cif.g09.slc.cpg/sg59_11_cif.got.tgz:21474.got - 2010.04.16 16:29:54.
