data_PCOD8244902
_publ_section_title
;
Structure prediction by ZEFSAII (Michael W. Deem and Ramdas Pophale) SiO2 
 PCOD8244902
Probable space group: P M M N
;
_chemical_formula_sum "Si O2"
_cell_formula_units_Z 48
_cell_length_a 9.779848
_cell_length_b 8.939060
_cell_length_c 30.530748
_cell_angle_alpha 90.000000
_cell_angle_beta 90.000000
_cell_angle_gamma 90.000000
_cell_volume 2669.078838
_symmetry_space_group_name_H-M "P M M N"
_symmetry_group_IT_number 59
_space_group.IT_coordinate_system_code '2'
_symmetry_cell_setting 'orthorhombic'
loop_
_space_group_symop_operation_xyz
x,y,z
1/2-x,1/2-y,z
1/2+x,-y,-z
-x,1/2+y,-z
-x,-y,-z
1/2+x,1/2+y,-z
1/2-x,y,z
x,1/2-y,z
loop_
_atom_site_type_symbol
_atom_site_label
_atom_site_fract_x
_atom_site_fract_y
_atom_site_fract_z
Si Si1 0.907849 0.925160 0.536485
Si Si2 0.902345 0.072099 0.867133
Si Si3 0.908977 0.423968 0.300446
Si Si4 0.407623 0.076838 0.789872
Si Si5 0.592693 0.424749 0.627292
Si Si6 0.906429 0.425150 0.964303
O O1 0.750000 0.961379 0.526055
O O2 0.936983 0.750000 0.537328
O O3 0.950776 0.991490 0.583152
O O4 0.000000 0.000000 0.500000
O O5 0.750000 0.014312 0.855676
O O6 0.903522 0.250000 0.867541
O O7 0.945599 0.015534 0.915569
O O8 0.006558 0.011455 0.830627
O O9 0.750000 0.454744 0.310418
O O10 0.945299 0.250000 0.304392
O O11 0.947601 0.479858 0.252171
O O12 0.998027 0.517353 0.334125
O O13 0.250000 0.056736 0.802375
O O14 0.442617 0.250000 0.780064
O O15 0.750000 0.459177 0.639304
O O16 0.567530 0.250000 0.620187
O O17 0.750000 0.466360 0.974512
O O18 0.930736 0.250000 0.966871
O O19 0.000000 0.500000 0.000000
#
# Coordination Sequence:
#
# PCOD8244902 Si02
#       6
#     8   8   8   8   8   8
#     4  10  21  37  57  81 109 141 176 214 257 305
#     4   8  15  29  48  69  94 124 160 203 248 295
#     4  10  21  36  53  75 105 139 171 205 250 303
#     4   9  17  30  49  72  96 124 162 206 248 293
#     4  10  21  37  57  80 105 135 173 216 259 302
#     4   9  18  32  49  71  99 130 165 205 249 298
#
# _framework density 17.983730999999999
#
# number of rings (size 3 to 8) (size 9 to 14) (size 15 to 20)
#    0.000    2.667    0.000    2.500    0.000    5.333 
#    0.000    4.167    0.000    3.000    0.000    0.000 
#    0.000    0.000    0.000    0.000    0.000    0.000 
#
# Total GULP energy -595200.163222 kJ/mol
# GULP energy per Si atom -12400.003400 kJ/mol
# Density = 1.794280 g / cm^3
# Si number density = 17.983731 Si / 1000 Ang^3
#
#
#
# Elastic Constant Matrix: (Units=GPa)
#
#
# Indices 1 2 3 4 5 6 
#
# 1 89.2581 41.3372 87.7788 0.0000 0.0000 0.0000
# 2 41.3372 59.3401 48.2837 0.0000 0.0000 0.0000
# 3 87.7788 48.2837 145.8149 0.0000 0.0000 0.0000
# 4 0.0000 0.0000 0.0000 32.7430 0.0000 0.0000
# 5 0.0000 0.0000 0.0000 0.0000 43.4311 0.0000
# 6 0.0000 0.0000 0.0000 0.0000 0.0000 27.1475
#
#
#
# Elastic Compliance Matrix: (Units=1/GPa)
#
#
# Indices 1 2 3 4 5 6 
#
# 1 0.030356 -0.008592 -0.015428 0.000000 0.000000 0.000000
# 2 -0.008592 0.025499 -0.003271 0.000000 0.000000 0.000000
# 3 -0.015428 -0.003271 0.017229 0.000000 0.000000 0.000000
# 4 0.000000 0.000000 0.000000 0.030541 0.000000 0.000000
# 5 0.000000 0.000000 0.000000 0.000000 0.023025 0.000000
# 6 0.000000 0.000000 0.000000 0.000000 0.000000 0.036836
#
#
# Mechanical properties :
#
#
# Convention : Reuss Voigt Hill
#
# Bulk Modulus (GPa) = 54.05448 72.13472 63.09460
# Shear Modulus (GPa) = 22.29798 28.46522 25.38160
#
# Velocity S-wave (km/s) = 3.52504 3.98280 3.76089
# Velocity P-wave (km/s) = 6.83305 7.83252 7.34979
#
# Compressibility (1/GPa) = 0.01849986
#
# Stress axis : x y z
#
# Youngs Moduli (GPa) = 32.94292 39.21699 58.04205
#
# Poissons Ratio (x) = 0.33697 0.89550
# Poissons Ratio (y) = 0.28306 0.18986
# Poissons Ratio (z) = 0.50826 0.12828
#
# Static dielectric constant tensor:
#      x y z
#    x 3.372890 0.000000 0.000000 
#    y 0.000000 3.149840 0.000000 
#    z 0.000000 0.000000 3.309730 
# 
# 
# High freq. dielectric constant tensor:
#      x y z
#    x 1.695680 0.000000 0.000000 
#    y 0.000000 1.684830 0.000000 
#    z 0.000000 0.000000 1.706310 
# 
# From -- ./inp_files/31252.got.cif
#   From: 2010.03.12/outbox.cif.g09.slc.cpg/sg59_16_cif.got.tgz:31252.got - 2010.04.16 16:29:54.
