data_PCOD8244616
_publ_section_title
;
Structure prediction by ZEFSAII (Michael W. Deem and Ramdas Pophale) SiO2 
 PCOD8244616
Probable space group: P M M N
;
_chemical_formula_sum "Si O2"
_cell_formula_units_Z 64
_cell_length_a 18.009350
_cell_length_b 29.998211
_cell_length_c 5.177393
_cell_angle_alpha 90.000000
_cell_angle_beta 90.000000
_cell_angle_gamma 90.000000
_cell_volume 2797.077670
_symmetry_space_group_name_H-M "P M M N"
_symmetry_group_IT_number 59
_space_group.IT_coordinate_system_code '2'
_symmetry_cell_setting 'orthorhombic'
loop_
_space_group_symop_operation_xyz
x,y,z
1/2-x,1/2-y,z
1/2+x,-y,-z
-x,1/2+y,-z
-x,-y,-z
1/2+x,1/2+y,-z
1/2-x,y,z
x,1/2-y,z
loop_
_atom_site_type_symbol
_atom_site_label
_atom_site_fract_x
_atom_site_fract_y
_atom_site_fract_z
Si Si1 0.395102 0.916165 0.164329
Si Si2 0.585932 0.199338 0.178260
Si Si3 0.577337 0.556901 0.562409
Si Si4 0.932079 0.698521 0.619431
Si Si5 0.036023 0.134476 0.778385
Si Si6 0.335752 0.124682 0.164048
Si Si7 0.924846 0.469056 0.316414
Si Si8 0.666875 0.331182 0.678923
O O1 0.460462 0.880498 0.075930
O O2 0.410312 0.948045 0.403466
O O3 0.377782 0.946384 0.913187
O O4 0.327616 0.883291 0.236658
O O5 0.591128 0.250000 0.277260
O O6 0.496381 0.187686 0.163768
O O7 0.623506 0.196226 0.898962
O O8 0.626317 0.170499 0.400548
O O9 0.535508 0.600698 0.462795
O O10 0.650374 0.576004 0.706198
O O11 0.513957 0.533727 0.746469
O O12 0.599943 0.521030 0.341223
O O13 0.908068 0.750000 0.616312
O O14 0.966986 0.684636 0.340863
O O15 0.859605 0.667972 0.666996
O O16 0.114273 0.125816 0.911564
O O17 0.250000 0.129113 0.089745
O O18 0.750000 0.312025 0.652547
#
# Coordination Sequence:
#
# PCOD8244616 Si02
#       8
#     8   8   8   8   8   8   8   8
#     4  11  21  38  63  93 128 172 214 265 314 385
#     4  11  24  42  68  96 125 168 221 270 319 384
#     4   9  21  36  60  94 120 160 209 271 325 376
#     4  10  23  42  65  93 124 168 222 276 327 397
#     4  10  20  37  65  89 125 163 219 265 329 392
#     4  11  23  40  62  92 131 171 215 276 344 401
#     4  10  21  36  66  95 126 161 222 271 311 376
#     4  12  25  41  63  94 136 173 209 261 330 395
#
# _framework density 22.881024
#
# number of rings (size 3 to 8) (size 9 to 14) (size 15 to 20)
#    0.000    1.500    2.500    2.250    3.500    5.750 
#    0.000    1.250    0.000    0.000    0.000    0.000 
#    0.000    0.000    0.000    0.000    0.000    0.000 
#
# Total GULP energy -793068.179754 kJ/mol
# GULP energy per Si atom -12391.690309 kJ/mol
# Density = 2.282895 g / cm^3
# Si number density = 22.881024 Si / 1000 Ang^3
#
#
#
# Elastic Constant Matrix: (Units=GPa)
#
#
# Indices 1 2 3 4 5 6 
#
# 1 121.8354 15.6874 14.4491 0.0000 0.0000 0.0000
# 2 15.6874 84.0771 -4.5628 0.0000 0.0000 0.0000
# 3 14.4491 -4.5628 70.3585 0.0000 0.0000 0.0000
# 4 0.0000 0.0000 0.0000 26.4213 0.0000 0.0000
# 5 0.0000 0.0000 0.0000 0.0000 19.2556 0.0000
# 6 0.0000 0.0000 0.0000 0.0000 0.0000 21.8899
#
#
#
# Elastic Compliance Matrix: (Units=1/GPa)
#
#
# Indices 1 2 3 4 5 6 
#
# 1 0.008653 -0.001717 -0.001888 0.000000 0.000000 0.000000
# 2 -0.001717 0.012277 0.001149 0.000000 0.000000 0.000000
# 3 -0.001888 0.001149 0.014675 0.000000 0.000000 0.000000
# 4 0.000000 0.000000 0.000000 0.037848 0.000000 0.000000
# 5 0.000000 0.000000 0.000000 0.000000 0.051933 0.000000
# 6 0.000000 0.000000 0.000000 0.000000 0.000000 0.045683
#
#
# Mechanical properties :
#
#
# Convention : Reuss Voigt Hill
#
# Bulk Modulus (GPa) = 32.58229 36.37981 34.48105
# Shear Modulus (GPa) = 26.85107 30.22653 28.53880
#
# Velocity S-wave (km/s) = 3.42937 3.63854 3.53550
# Velocity P-wave (km/s) = 5.47280 5.79535 5.63638
#
# Compressibility (1/GPa) = 0.03069152
#
# Stress axis : x y z
#
# Youngs Moduli (GPa) = 115.56931 81.45614 68.14215
#
# Poissons Ratio (x) = 0.13986 0.12867
# Poissons Ratio (y) = 0.19843 -0.07828
# Poissons Ratio (z) = 0.21823 -0.09357
#
# Static dielectric constant tensor:
#      x y z
#    x 3.765340 0.000000 0.000000 
#    y 0.000000 4.378070 0.000000 
#    z 0.000000 0.000000 3.968930 
# 
# 
# High freq. dielectric constant tensor:
#      x y z
#    x 1.858810 0.000000 0.000000 
#    y 0.000000 1.921080 0.000000 
#    z 0.000000 0.000000 1.903340 
# 
# From -- ./inp_files/3028.got.cif
#   From: 2010.03.12/outbox.cif.g09.slc.cpg/sg59_2_cif.got.tgz:3028.got - 2010.04.16 16:29:54.
