data_PCOD8244529
_publ_section_title
;
Structure prediction by ZEFSAII (Michael W. Deem and Ramdas Pophale) SiO2 
 PCOD8244529
Probable space group: P M M N
;
_chemical_formula_sum "Si O2"
_cell_formula_units_Z 64
_cell_length_a 24.843312
_cell_length_b 8.945777
_cell_length_c 14.863830
_cell_angle_alpha 90.000000
_cell_angle_beta 90.000000
_cell_angle_gamma 90.000000
_cell_volume 3303.378144
_symmetry_space_group_name_H-M "P M M N"
_symmetry_group_IT_number 59
_space_group.IT_coordinate_system_code '2'
_symmetry_cell_setting 'orthorhombic'
loop_
_space_group_symop_operation_xyz
x,y,z
1/2-x,1/2-y,z
1/2+x,-y,-z
-x,1/2+y,-z
-x,-y,-z
1/2+x,1/2+y,-z
1/2-x,y,z
x,1/2-y,z
loop_
_atom_site_type_symbol
_atom_site_label
_atom_site_fract_x
_atom_site_fract_y
_atom_site_fract_z
Si Si1 0.605846 0.074200 0.214105
Si Si2 0.503567 0.414222 0.748501
Si Si3 0.188285 0.425395 0.447416
Si Si4 0.120080 0.928033 0.292452
Si Si5 0.456195 0.586482 0.053094
Si Si6 0.862059 0.573601 0.025490
Si Si7 0.189575 0.579160 0.123194
Si Si8 0.188453 0.922552 0.631744
O O1 0.602895 0.250000 0.198038
O O2 0.651236 0.029085 0.285427
O O3 0.548137 0.021795 0.253367
O O4 0.623474 0.996851 0.121431
O O5 0.487470 0.250000 0.709367
O O6 0.557068 0.480280 0.699381
O O7 0.523293 0.388983 0.848357
O O8 0.250000 0.470673 0.427729
O O9 0.179443 0.250000 0.440526
O O10 0.150045 0.505465 0.377437
O O11 0.171739 0.478238 0.546821
O O12 0.123192 0.750000 0.296043
O O13 0.149363 0.983765 0.200743
O O14 0.445070 0.750000 0.009383
O O15 0.404395 0.481813 0.049506
O O16 0.500000 0.500000 0.000000
O O17 0.860899 0.750000 0.038068
O O18 0.809587 0.513361 0.972387
O O19 0.250000 0.568994 0.162216
O O20 0.173438 0.750000 0.100592
O O21 0.250000 0.953148 0.660793
O O22 0.179553 0.750000 0.606021
#
# Coordination Sequence:
#
# PCOD8244529 Si02
#       8
#     8   8   8   8   8   8   8   8
#     4  11  23  38  60  87 115 149 195 244 290 342
#     4  10  21  36  56  83 117 152 192 237 285 341
#     4  10  21  37  60  91 120 146 182 233 290 344
#     4  10  20  37  60  85 114 152 193 232 280 341
#     4  11  20  34  55  79 108 146 196 242 282 328
#     4  12  24  36  53  79 115 155 193 236 286 341
#     4  10  21  38  58  80 111 152 198 246 292 340
#     4   9  20  41  66  88 110 143 189 238 287 343
#
# _framework density 19.374106000000001
#
# number of rings (size 3 to 8) (size 9 to 14) (size 15 to 20)
#    0.000    1.625    2.500    2.625    0.000    4.500 
#    0.000    1.875    0.000    0.000    0.000    0.000 
#    0.000    0.000    0.000    0.000    0.000    0.000 
#
# Total GULP energy -793127.375147 kJ/mol
# GULP energy per Si atom -12392.615237 kJ/mol
# Density = 1.933001 g / cm^3
# Si number density = 19.374106 Si / 1000 Ang^3
#
#
#
# Elastic Constant Matrix: (Units=GPa)
#
#
# Indices 1 2 3 4 5 6 
#
# 1 112.7114 45.1824 63.3894 0.0000 0.0000 0.0000
# 2 45.1824 81.2490 39.7183 0.0000 0.0000 0.0000
# 3 63.3894 39.7183 87.5110 0.0000 0.0000 0.0000
# 4 0.0000 0.0000 0.0000 23.8811 0.0000 0.0000
# 5 0.0000 0.0000 0.0000 0.0000 34.5817 0.0000
# 6 0.0000 0.0000 0.0000 0.0000 0.0000 28.9610
#
#
#
# Elastic Compliance Matrix: (Units=1/GPa)
#
#
# Indices 1 2 3 4 5 6 
#
# 1 0.015991 -0.004151 -0.009699 0.000000 0.000000 0.000000
# 2 -0.004151 0.016895 -0.004661 0.000000 0.000000 0.000000
# 3 -0.009699 -0.004661 0.020568 0.000000 0.000000 0.000000
# 4 0.000000 0.000000 0.000000 0.041874 0.000000 0.000000
# 5 0.000000 0.000000 0.000000 0.000000 0.028917 0.000000
# 6 0.000000 0.000000 0.000000 0.000000 0.000000 0.034529
#
#
# Mechanical properties :
#
#
# Convention : Reuss Voigt Hill
#
# Bulk Modulus (GPa) = 60.85914 64.22797 62.54356
# Shear Modulus (GPa) = 24.84161 26.36351 25.60256
#
# Velocity S-wave (km/s) = 3.58468 3.69285 3.63916
# Velocity P-wave (km/s) = 6.97238 7.16982 7.07179
#
# Compressibility (1/GPa) = 0.01643139
#
# Stress axis : x y z
#
# Youngs Moduli (GPa) = 62.53420 59.18957 48.61821
#
# Poissons Ratio (x) = 0.24571 0.47156
# Poissons Ratio (y) = 0.25959 0.22661
# Poissons Ratio (z) = 0.60654 0.27588
#
# Static dielectric constant tensor:
#      x y z
#    x 3.778960 0.000000 0.000000 
#    y 0.000000 3.473620 0.000000 
#    z 0.000000 0.000000 3.372880 
# 
# 
# High freq. dielectric constant tensor:
#      x y z
#    x 1.763340 0.000000 0.000000 
#    y 0.000000 1.751860 0.000000 
#    z 0.000000 0.000000 1.741280 
# 
# From -- ./inp_files/24763.got.cif
#   From: 2010.03.12/outbox.cif.g09.slc.cpg/sg59_13_cif.got.tgz:24763.got - 2010.04.16 16:29:54.
