data_PCOD8244791
_publ_section_title
;
Structure prediction by ZEFSAII (Michael W. Deem and Ramdas Pophale) SiO2 
 PCOD8244791
Probable space group: P M M N
;
_chemical_formula_sum "Si O2"
_cell_formula_units_Z 56
_cell_length_a 15.351585
_cell_length_b 9.222231
_cell_length_c 19.539662
_cell_angle_alpha 90.000000
_cell_angle_beta 90.000000
_cell_angle_gamma 90.000000
_cell_volume 2766.344512
_symmetry_space_group_name_H-M "P M M N"
_symmetry_group_IT_number 59
_space_group.IT_coordinate_system_code '2'
_symmetry_cell_setting 'orthorhombic'
loop_
_space_group_symop_operation_xyz
x,y,z
1/2-x,1/2-y,z
1/2+x,-y,-z
-x,1/2+y,-z
-x,-y,-z
1/2+x,1/2+y,-z
1/2-x,y,z
x,1/2-y,z
loop_
_atom_site_type_symbol
_atom_site_label
_atom_site_fract_x
_atom_site_fract_y
_atom_site_fract_z
Si Si1 0.899677 0.409072 0.560845
Si Si2 0.852517 0.914367 0.692092
Si Si3 0.148407 0.588666 0.687213
Si Si4 0.900794 0.591816 0.438225
Si Si5 0.149225 0.581142 0.843484
Si Si6 0.495358 0.420614 0.928403
Si Si7 0.150241 0.582505 0.172576
O O1 0.855221 0.250000 0.569199
O O2 0.894358 0.499115 0.630157
O O3 0.854645 0.494010 0.497086
O O4 0.999551 0.386168 0.541597
O O5 0.750000 0.919679 0.683028
O O6 0.887762 0.750000 0.691698
O O7 0.880548 0.987262 0.763212
O O8 0.250000 0.586886 0.671989
O O9 0.111181 0.750000 0.674309
O O10 0.102250 0.478034 0.636658
O O11 0.129531 0.541331 0.764820
O O12 0.854897 0.750000 0.436500
O O13 0.250000 0.548161 0.861280
O O14 0.129008 0.750000 0.857711
O O15 0.088254 0.479834 0.888516
O O16 0.483257 0.250000 0.939561
O O17 0.585804 0.454904 0.889519
O O18 0.500000 0.500000 0.000000
O O19 0.250000 0.545474 0.150802
O O20 0.142432 0.750000 0.194131
#
# Coordination Sequence:
#
# PCOD8244791 Si02
#       7
#     8   8   8   8   8   8   8
#     4  10  21  36  53  75 107 147 189 231 283 343
#     4  10  21  36  56  83 111 142 185 235 285 337
#     4   9  19  36  57  81 109 146 189 229 282 348
#     4  10  21  35  52  77 108 143 188 238 286 334
#     4   9  20  40  63  88 121 160 200 243 295 354
#     4  11  24  40  62  93 124 157 201 242 290 352
#     4   9  20  40  62  85 118 158 197 239 289 348
#
# _framework density 20.243321999999999
#
# number of rings (size 3 to 8) (size 9 to 14) (size 15 to 20)
#    0.000    2.286    0.000    2.571    2.000    6.000 
#    0.000    2.857    0.000    0.000    0.000    0.000 
#    0.000    0.000    0.000    0.000    0.000    0.000 
#
# Total GULP energy -694345.809889 kJ/mol
# GULP energy per Si atom -12399.032319 kJ/mol
# Density = 2.019725 g / cm^3
# Si number density = 20.243322 Si / 1000 Ang^3
#
#
#
# Elastic Constant Matrix: (Units=GPa)
#
#
# Indices 1 2 3 4 5 6 
#
# 1 65.3357 45.8102 50.9319 0.0000 0.0000 0.0000
# 2 45.8102 161.6238 99.0319 0.0000 0.0000 0.0000
# 3 50.9319 99.0319 154.2091 0.0000 0.0000 0.0000
# 4 0.0000 0.0000 0.0000 39.9719 0.0000 0.0000
# 5 0.0000 0.0000 0.0000 0.0000 831.1723 0.0000
# 6 0.0000 0.0000 0.0000 0.0000 0.0000 27.0824
#
#
#
# Elastic Compliance Matrix: (Units=1/GPa)
#
#
# Indices 1 2 3 4 5 6 
#
# 1 0.021385 -0.002858 -0.005227 0.000000 0.000000 0.000000
# 2 -0.002858 0.010583 -0.005853 0.000000 0.000000 0.000000
# 3 -0.005227 -0.005853 0.011970 0.000000 0.000000 0.000000
# 4 0.000000 0.000000 0.000000 0.025018 0.000000 0.000000
# 5 0.000000 0.000000 0.000000 0.000000 0.001203 0.000000
# 6 0.000000 0.000000 0.000000 0.000000 0.000000 0.036924
#
#
# Mechanical properties :
#
#
# Convention : Reuss Voigt Hill
#
# Bulk Modulus (GPa) = 62.26128 85.85740 74.05934
# Shear Modulus (GPa) = 35.63472 192.00495 113.81983
#
# Velocity S-wave (km/s) = 4.20017 9.74959 7.50653
# Velocity P-wave (km/s) = 7.37191 13.00938 10.57330
#
# Compressibility (1/GPa) = 0.01606135
#
# Stress axis : x y z
#
# Youngs Moduli (GPa) = 46.76276 94.48781 83.54482
#
# Poissons Ratio (x) = 0.27007 0.43671
# Poissons Ratio (y) = 0.13366 0.48895
# Poissons Ratio (z) = 0.24444 0.55299
#
# Static dielectric constant tensor:
#      x y z
#    x 3.550720 0.000000 0.000000 
#    y 0.000000 4.014920 0.000000 
#    z 0.000000 0.000000 3.638990 
# 
# 
# High freq. dielectric constant tensor:
#      x y z
#    x 1.782810 0.000000 0.000000 
#    y 0.000000 1.800260 0.000000 
#    z 0.000000 0.000000 1.789000 
# 
# From -- ./inp_files/30393.got.cif
#   From: 2010.03.12/outbox.cif.g09.slc.cpg/sg59_16_cif.got.tgz:30393.got - 2010.04.16 16:29:54.
