data_PCOD8245217
_publ_section_title
;
Structure prediction by ZEFSAII (Michael W. Deem and Ramdas Pophale) SiO2 
 PCOD8245217
Probable space group: P M M N
;
_chemical_formula_sum "Si O2"
_cell_formula_units_Z 64
_cell_length_a 8.931112
_cell_length_b 18.318575
_cell_length_c 20.511039
_cell_angle_alpha 90.000000
_cell_angle_beta 90.000000
_cell_angle_gamma 90.000000
_cell_volume 3355.713561
_symmetry_space_group_name_H-M "P M M N"
_symmetry_group_IT_number 59
_space_group.IT_coordinate_system_code '2'
_symmetry_cell_setting 'orthorhombic'
loop_
_space_group_symop_operation_xyz
x,y,z
1/2-x,1/2-y,z
1/2+x,-y,-z
-x,1/2+y,-z
-x,-y,-z
1/2+x,1/2+y,-z
1/2-x,y,z
x,1/2-y,z
loop_
_atom_site_type_symbol
_atom_site_label
_atom_site_fract_x
_atom_site_fract_y
_atom_site_fract_z
Si Si1 0.573987 0.921019 0.310734
Si Si2 0.925457 0.416949 0.933325
Si Si3 0.927753 0.922765 0.686049
Si Si4 0.573583 0.583997 0.935137
Si Si5 0.923380 0.335752 0.803624
Si Si6 0.922206 0.666549 0.438813
Si Si7 0.428288 0.168081 0.190555
Si Si8 0.074737 0.665979 0.572314
O O1 0.750000 0.935136 0.305542
O O2 0.524219 0.867113 0.253733
O O3 0.530524 0.884429 0.379182
O O4 0.486721 0.996144 0.304872
O O5 0.750000 0.409594 0.944031
O O6 0.974492 0.500580 0.922181
O O7 0.979014 0.370562 0.871420
O O8 0.003787 0.385519 0.998030
O O9 0.750000 0.924425 0.683385
O O10 0.987724 0.875985 0.747065
O O11 0.987898 0.886946 0.620443
O O12 0.750000 0.592022 0.940581
O O13 0.509433 0.631064 0.875177
O O14 0.750000 0.355661 0.790629
O O15 0.949115 0.250000 0.807829
O O16 0.750000 0.654480 0.458995
O O17 0.950289 0.750000 0.417520
O O18 0.025941 0.644907 0.499451
O O19 0.250000 0.167592 0.189886
O O20 0.491645 0.250000 0.194818
O O21 0.250000 0.652066 0.579683
O O22 0.031866 0.750000 0.587418
#
# Coordination Sequence:
#
# PCOD8245217 Si02
#       8
#     8   8   8   8   8   8   8   8
#     4  11  23  38  57  82 112 143 180 230 280 323
#     4   9  18  33  51  74 107 143 178 217 264 320
#     4  11  22  37  58  81 109 147 187 225 270 329
#     4   9  17  31  52  76 103 137 178 222 265 313
#     4  10  21  37  57  80 108 144 184 224 269 327
#     4   9  19  37  59  81 107 142 181 219 266 326
#     4   9  18  33  54  79 105 136 178 225 269 317
#     4  10  21  37  58  85 115 144 178 224 273 320
#
# _framework density 19.071949
#
# number of rings (size 3 to 8) (size 9 to 14) (size 15 to 20)
#    0.000    2.250    0.000    2.625    0.000    6.500 
#    0.000    5.000    0.000    1.500    0.000    0.000 
#    0.000    0.000    0.000    0.000    0.000    0.000 
#
# Total GULP energy -793824.510752 kJ/mol
# GULP energy per Si atom -12403.507980 kJ/mol
# Density = 1.902854 g / cm^3
# Si number density = 19.071949 Si / 1000 Ang^3
#
#
#
# Elastic Constant Matrix: (Units=GPa)
#
#
# Indices 1 2 3 4 5 6 
#
# 1 50.9236 30.3530 41.1090 0.0000 0.0000 0.0000
# 2 30.3530 95.7733 61.3355 0.0000 0.0000 0.0000
# 3 41.1090 61.3355 133.3205 0.0000 0.0000 0.0000
# 4 0.0000 0.0000 0.0000 40.9408 0.0000 0.0000
# 5 0.0000 0.0000 0.0000 0.0000 32.5219 0.0000
# 6 0.0000 0.0000 0.0000 0.0000 0.0000 27.7376
#
#
#
# Elastic Compliance Matrix: (Units=1/GPa)
#
#
# Indices 1 2 3 4 5 6 
#
# 1 0.027540 -0.004664 -0.006346 0.000000 0.000000 0.000000
# 2 -0.004664 0.015593 -0.005735 0.000000 0.000000 0.000000
# 3 -0.006346 -0.005735 0.012096 0.000000 0.000000 0.000000
# 4 0.000000 0.000000 0.000000 0.024426 0.000000 0.000000
# 5 0.000000 0.000000 0.000000 0.000000 0.030749 0.000000
# 6 0.000000 0.000000 0.000000 0.000000 0.000000 0.036052
#
#
# Mechanical properties :
#
#
# Convention : Reuss Voigt Hill
#
# Bulk Modulus (GPa) = 46.00270 60.62360 53.31315
# Shear Modulus (GPa) = 26.71048 30.05472 28.38260
#
# Velocity S-wave (km/s) = 3.74640 3.97402 3.86189
# Velocity P-wave (km/s) = 6.54882 7.27412 6.92098
#
# Compressibility (1/GPa) = 0.02173785
#
# Stress axis : x y z
#
# Youngs Moduli (GPa) = 36.31038 64.13328 82.67039
#
# Poissons Ratio (x) = 0.29911 0.52465
# Poissons Ratio (y) = 0.16935 0.47415
# Poissons Ratio (z) = 0.23044 0.36783
#
# Static dielectric constant tensor:
#      x y z
#    x 3.326500 0.000000 0.000000 
#    y 0.000000 3.618820 0.000000 
#    z 0.000000 0.000000 3.652370 
# 
# 
# High freq. dielectric constant tensor:
#      x y z
#    x 1.726750 0.000000 0.000000 
#    y 0.000000 1.744710 0.000000 
#    z 0.000000 0.000000 1.755610 
# 
# From -- ./inp_files/29549.got.cif
#   From: 2010.03.12/outbox.cif.g09.slc.cpg/sg59_15_cif.got.tgz:29549.got - 2010.04.16 16:29:54.
