data_PCOD8245125
_publ_section_title
;
Structure prediction by ZEFSAII (Michael W. Deem and Ramdas Pophale) SiO2 
 PCOD8245125
Probable space group: P M M N
;
_chemical_formula_sum "Si O2"
_cell_formula_units_Z 64
_cell_length_a 22.234900
_cell_length_b 16.381095
_cell_length_c 9.924464
_cell_angle_alpha 90.000000
_cell_angle_beta 90.000000
_cell_angle_gamma 90.000000
_cell_volume 3614.807463
_symmetry_space_group_name_H-M "P M M N"
_symmetry_group_IT_number 59
_space_group.IT_coordinate_system_code '2'
_symmetry_cell_setting 'orthorhombic'
loop_
_space_group_symop_operation_xyz
x,y,z
1/2-x,1/2-y,z
1/2+x,-y,-z
-x,1/2+y,-z
-x,-y,-z
1/2+x,1/2+y,-z
1/2-x,y,z
x,1/2-y,z
loop_
_atom_site_type_symbol
_atom_site_label
_atom_site_fract_x
_atom_site_fract_y
_atom_site_fract_z
Si Si1 0.919042 0.941457 0.732303
Si Si2 0.526625 0.654056 0.490354
Si Si3 0.388775 0.843860 0.545945
Si Si4 0.405228 0.599151 0.833318
Si Si5 0.026271 0.156493 0.046082
Si Si6 0.180761 0.656690 0.054328
Si Si7 0.680451 0.438005 0.676864
Si Si8 0.027390 0.060053 0.773811
O O1 0.933171 0.881648 0.609229
O O2 0.921619 0.890834 0.871996
O O3 0.852530 0.977467 0.713751
O O4 0.965258 0.016588 0.736172
O O5 0.537039 0.750000 0.484477
O O6 0.457278 0.631240 0.515465
O O7 0.548755 0.615207 0.350455
O O8 0.375943 0.750000 0.510343
O O9 0.375172 0.860038 0.702689
O O10 0.344657 0.900317 0.460570
O O11 0.465128 0.649880 0.868146
O O12 0.420605 0.504745 0.806574
O O13 0.358041 0.601264 0.954566
O O14 0.045207 0.250000 0.028566
O O15 0.015580 0.117092 0.901365
O O16 0.250000 0.647385 0.012761
O O17 0.158954 0.750000 0.043702
O O18 0.169896 0.628063 0.206290
O O19 0.750000 0.459419 0.657102
#
# Coordination Sequence:
#
# PCOD8245125 Si02
#       8
#     8   8   8   8   8   8   8   8
#     4  11  20  36  55  78 110 143 178 220 271 322
#     4  11  21  35  55  81 110 144 179 220 276 327
#     4  11  21  34  54  80 111 145 180 217 264 323
#     4  11  21  34  54  78 109 144 178 220 266 320
#     4  11  21  33  52  80 110 140 176 221 272 323
#     4  10  21  37  54  75 108 148 186 221 260 314
#     4  11  23  38  56  79 108 145 186 224 261 310
#     4  11  20  33  53  80 112 140 176 222 267 323
#
# _framework density 17.704953
#
# number of rings (size 3 to 8) (size 9 to 14) (size 15 to 20)
#    0.000    1.125    3.750    6.375    0.000    1.250 
#    0.000    0.000    0.000    1.500    0.000    0.000 
#    0.000    5.000    0.000    0.000    0.000    0.000 
#
# Total GULP energy -793983.048278 kJ/mol
# GULP energy per Si atom -12405.985129 kJ/mol
# Density = 1.766466 g / cm^3
# Si number density = 17.704953 Si / 1000 Ang^3
#
#
#
# Elastic Constant Matrix: (Units=GPa)
#
#
# Indices 1 2 3 4 5 6 
#
# 1 69.6435 30.8430 14.2530 0.0000 0.0000 0.0000
# 2 30.8430 91.4642 22.4180 0.0000 0.0000 0.0000
# 3 14.2530 22.4180 79.0312 0.0000 0.0000 0.0000
# 4 0.0000 0.0000 0.0000 36.3697 0.0000 0.0000
# 5 0.0000 0.0000 0.0000 0.0000 15.5991 0.0000
# 6 0.0000 0.0000 0.0000 0.0000 0.0000 22.8857
#
#
#
# Elastic Compliance Matrix: (Units=1/GPa)
#
#
# Indices 1 2 3 4 5 6 
#
# 1 0.017055 -0.005371 -0.001552 0.000000 0.000000 0.000000
# 2 -0.005371 0.013441 -0.002844 0.000000 0.000000 0.000000
# 3 -0.001552 -0.002844 0.013740 0.000000 0.000000 0.000000
# 4 0.000000 0.000000 0.000000 0.027495 0.000000 0.000000
# 5 0.000000 0.000000 0.000000 0.000000 0.064106 0.000000
# 6 0.000000 0.000000 0.000000 0.000000 0.000000 0.043695
#
#
# Mechanical properties :
#
#
# Convention : Reuss Voigt Hill
#
# Bulk Modulus (GPa) = 40.48269 41.68519 41.08394
# Shear Modulus (GPa) = 24.11939 26.47924 25.29931
#
# Velocity S-wave (km/s) = 3.69493 3.87147 3.78423
# Velocity P-wave (km/s) = 6.41235 6.60151 6.50761
#
# Compressibility (1/GPa) = 0.02470191
#
# Stress axis : x y z
#
# Youngs Moduli (GPa) = 58.63362 74.39682 72.78035
#
# Poissons Ratio (x) = 0.39956 0.11298
# Poissons Ratio (y) = 0.31490 0.20700
# Poissons Ratio (z) = 0.09102 0.21160
#
# Static dielectric constant tensor:
#      x y z
#    x 3.071980 0.000000 0.000000 
#    y 0.000000 3.328850 0.000000 
#    z 0.000000 0.000000 3.432900 
# 
# 
# High freq. dielectric constant tensor:
#      x y z
#    x 1.646830 0.000000 0.000000 
#    y 0.000000 1.687860 0.000000 
#    z 0.000000 0.000000 1.705910 
# 
# From -- ./inp_files/11618.got.cif
#   From: 2010.03.12/outbox.cif.g09.slc.cpg/sg59_6_cif.got.tgz:11618.got - 2010.04.16 16:29:54.
