data_PCOD8245822
_publ_section_title
;
Structure prediction by ZEFSAII (Michael W. Deem and Ramdas Pophale) SiO2 
 PCOD8245822
Probable space group: P M M N
;
_chemical_formula_sum "Si O2"
_cell_formula_units_Z 64
_cell_length_a 8.791165
_cell_length_b 24.846170
_cell_length_c 14.483828
_cell_angle_alpha 90.000000
_cell_angle_beta 90.000000
_cell_angle_gamma 90.000000
_cell_volume 3163.655913
_symmetry_space_group_name_H-M "P M M N"
_symmetry_group_IT_number 59
_space_group.IT_coordinate_system_code '2'
_symmetry_cell_setting 'orthorhombic'
loop_
_space_group_symop_operation_xyz
x,y,z
1/2-x,1/2-y,z
1/2+x,-y,-z
-x,1/2+y,-z
-x,-y,-z
1/2+x,1/2+y,-z
1/2-x,y,z
x,1/2-y,z
loop_
_atom_site_type_symbol
_atom_site_label
_atom_site_fract_x
_atom_site_fract_y
_atom_site_fract_z
Si Si1 0.425846 0.341409 0.517362
Si Si2 0.424262 0.810628 0.293376
Si Si3 0.069572 0.058388 0.022650
Si Si4 0.575543 0.690128 0.684215
Si Si5 0.073142 0.948745 0.456305
Si Si6 0.925041 0.521765 0.275816
Si Si7 0.930992 0.100039 0.851994
Si Si8 0.924904 0.406980 0.210897
O O1 0.250000 0.352993 0.534009
O O2 0.487578 0.313957 0.610039
O O3 0.455376 0.306228 0.426005
O O4 0.510644 0.396524 0.493531
O O5 0.250000 0.825359 0.315471
O O6 0.441115 0.750000 0.254938
O O7 0.485759 0.850499 0.213312
O O8 0.250000 0.054796 0.011450
O O9 0.999010 0.104494 0.954920
O O10 0.029962 0.080358 0.123824
O O11 0.000000 0.000000 0.000000
O O12 0.750000 0.673450 0.701829
O O13 0.541546 0.750000 0.723339
O O14 0.471228 0.647476 0.737099
O O15 0.250000 0.952023 0.470879
O O16 0.028714 0.946869 0.349328
O O17 0.000000 0.000000 0.500000
O O18 0.750000 0.538785 0.288869
O O19 0.942758 0.457279 0.281574
O O20 0.992347 0.543858 0.180344
O O21 0.750000 0.095548 0.855218
O O22 0.750000 0.402091 0.178778
#
# Coordination Sequence:
#
# PCOD8245822 Si02
#       8
#     8   8   8   8   8   8   8   8
#     4  11  22  38  62  90 122 162 211 259 307 368
#     4  10  22  40  62  90 125 166 210 255 305 363
#     4  12  24  40  65  94 126 162 203 254 311 376
#     4  10  23  43  64  89 123 163 208 258 310 363
#     4  12  24  37  54  82 122 165 208 255 312 373
#     4  11  22  37  59  88 124 161 201 250 307 370
#     4  11  22  38  62  91 126 164 203 251 308 367
#     4  11  24  41  64  94 124 159 205 254 310 375
#
# _framework density 20.229759999999999
#
# number of rings (size 3 to 8) (size 9 to 14) (size 15 to 20)
#    0.000    1.000    2.500    4.875    0.000    6.000 
#    0.000    0.625    0.000    2.250    0.000    0.000 
#    0.000    0.000    0.000    0.000    0.000    0.000 
#
# Total GULP energy -793603.840243 kJ/mol
# GULP energy per Si atom -12400.060004 kJ/mol
# Density = 2.018372 g / cm^3
# Si number density = 20.229760 Si / 1000 Ang^3
#
#
#
# Elastic Constant Matrix: (Units=GPa)
#
#
# Indices 1 2 3 4 5 6 
#
# 1 120.2844 52.7513 34.3980 0.0000 0.0000 0.0000
# 2 52.7513 102.6185 30.3240 0.0000 0.0000 0.0000
# 3 34.3980 30.3240 77.1032 0.0000 0.0000 0.0000
# 4 0.0000 0.0000 0.0000 24.1486 0.0000 0.0000
# 5 0.0000 0.0000 0.0000 0.0000 35.6305 0.0000
# 6 0.0000 0.0000 0.0000 0.0000 0.0000 27.8658
#
#
#
# Elastic Compliance Matrix: (Units=1/GPa)
#
#
# Indices 1 2 3 4 5 6 
#
# 1 0.011367 -0.004916 -0.003138 0.000000 0.000000 0.000000
# 2 -0.004916 0.013152 -0.002980 0.000000 0.000000 0.000000
# 3 -0.003138 -0.002980 0.015541 0.000000 0.000000 0.000000
# 4 0.000000 0.000000 0.000000 0.041410 0.000000 0.000000
# 5 0.000000 0.000000 0.000000 0.000000 0.028066 0.000000
# 6 0.000000 0.000000 0.000000 0.000000 0.000000 0.035886
#
#
# Mechanical properties :
#
#
# Convention : Reuss Voigt Hill
#
# Bulk Modulus (GPa) = 55.57378 59.43917 57.50647
# Shear Modulus (GPa) = 28.82057 29.69784 29.25921
#
# Velocity S-wave (km/s) = 3.77856 3.83564 3.80721
# Velocity P-wave (km/s) = 6.82405 7.00443 6.91483
#
# Compressibility (1/GPa) = 0.01799410
#
# Stress axis : x y z
#
# Youngs Moduli (GPa) = 87.97522 76.03204 64.34485
#
# Poissons Ratio (x) = 0.37377 0.20189
# Poissons Ratio (y) = 0.43248 0.19172
# Poissons Ratio (z) = 0.27604 0.22654
#
# Static dielectric constant tensor:
#      x y z
#    x 3.652960 0.000000 0.000000 
#    y 0.000000 3.202900 0.000000 
#    z 0.000000 0.000000 0.113110 
# 
# 
# High freq. dielectric constant tensor:
#      x y z
#    x 1.797700 0.000000 0.000000 
#    y 0.000000 1.788140 0.000000 
#    z 0.000000 0.000000 1.789700 
# 
# From -- ./inp_files/21584.got.cif
#   From: 2010.03.12/outbox.cif.g09.slc.cpg/sg59_11_cif.got.tgz:21584.got - 2010.04.16 16:29:54.
