data_PCOD8245779
_publ_section_title
;
Structure prediction by ZEFSAII (Michael W. Deem and Ramdas Pophale) SiO2 
 PCOD8245779
Probable space group: P M M N
;
_chemical_formula_sum "Si O2"
_cell_formula_units_Z 48
_cell_length_a 28.778475
_cell_length_b 8.331381
_cell_length_c 9.901172
_cell_angle_alpha 90.000000
_cell_angle_beta 90.000000
_cell_angle_gamma 90.000000
_cell_volume 2373.948958
_symmetry_space_group_name_H-M "P M M N"
_symmetry_group_IT_number 59
_space_group.IT_coordinate_system_code '2'
_symmetry_cell_setting 'orthorhombic'
loop_
_space_group_symop_operation_xyz
x,y,z
1/2-x,1/2-y,z
1/2+x,-y,-z
-x,1/2+y,-z
-x,-y,-z
1/2+x,1/2+y,-z
1/2-x,y,z
x,1/2-y,z
loop_
_atom_site_type_symbol
_atom_site_label
_atom_site_fract_x
_atom_site_fract_y
_atom_site_fract_z
Si Si1 0.196845 0.061598 0.256489
Si Si2 0.381819 0.437890 0.779039
Si Si3 0.020645 0.937958 0.861966
Si Si4 0.303514 0.936831 0.967256
Si Si5 0.127090 0.063698 0.476363
Si Si6 0.533072 0.435423 0.613746
O O1 0.250000 0.021918 0.287822
O O2 0.187858 0.250000 0.235783
O O3 0.168530 0.991402 0.384586
O O4 0.180377 0.973927 0.119897
O O5 0.393721 0.250000 0.773103
O O6 0.424408 0.528366 0.851072
O O7 0.334852 0.464897 0.862718
O O8 0.374997 0.510587 0.627461
O O9 0.011385 0.750000 0.843074
O O10 0.992277 0.039744 0.754065
O O11 0.000000 0.000000 0.000000
O O12 0.250000 0.991436 0.947039
O O13 0.309892 0.750000 0.937805
O O14 0.136464 0.250000 0.494453
O O15 0.080427 0.034234 0.392661
O O16 0.500000 0.500000 0.500000
O O17 0.544330 0.250000 0.589831
#
# Coordination Sequence:
#
# PCOD8245779 Si02
#       6
#     8   8   8   8   8   8
#     4   9  19  38  63  90 120 156 201 251 302 362
#     4  11  23  40  63  91 124 161 205 253 308 368
#     4  12  26  44  65  91 125 163 207 256 308 369
#     4  10  22  40  61  87 122 162 204 253 308 366
#     4  10  22  39  62  91 123 158 203 252 306 367
#     4  12  24  41  64  90 124 165 207 251 306 364
#
# _framework density 20.219474000000002
#
# number of rings (size 3 to 8) (size 9 to 14) (size 15 to 20)
#    0.000    1.333    1.667    4.000    2.333    3.000 
#    0.000    1.667    0.000    2.000    0.000    0.000 
#    0.000    0.000    0.000    0.000    0.000    0.000 
#
# Total GULP energy -595356.036519 kJ/mol
# GULP energy per Si atom -12403.250761 kJ/mol
# Density = 2.017345 g / cm^3
# Si number density = 20.219474 Si / 1000 Ang^3
#
#
#
# Elastic Constant Matrix: (Units=GPa)
#
#
# Indices 1 2 3 4 5 6 
#
# 1 115.5946 5.8909 69.7344 0.0000 0.0000 0.0000
# 2 5.8909 41.8473 14.2097 0.0000 0.0000 0.0000
# 3 69.7344 14.2097 141.3758 0.0000 0.0000 0.0000
# 4 0.0000 0.0000 0.0000 25.6809 0.0000 0.0000
# 5 0.0000 0.0000 0.0000 0.0000 46.2605 0.0000
# 6 0.0000 0.0000 0.0000 0.0000 0.0000 28.6398
#
#
#
# Elastic Compliance Matrix: (Units=1/GPa)
#
#
# Indices 1 2 3 4 5 6 
#
# 1 0.012320 0.000341 -0.006111 0.000000 0.000000 0.000000
# 2 0.000341 0.024750 -0.002656 0.000000 0.000000 0.000000
# 3 -0.006111 -0.002656 0.010355 0.000000 0.000000 0.000000
# 4 0.000000 0.000000 0.000000 0.038939 0.000000 0.000000
# 5 0.000000 0.000000 0.000000 0.000000 0.021617 0.000000
# 6 0.000000 0.000000 0.000000 0.000000 0.000000 0.034916
#
#
# Mechanical properties :
#
#
# Convention : Reuss Voigt Hill
#
# Bulk Modulus (GPa) = 32.70891 53.16530 42.93711
# Shear Modulus (GPa) = 29.42195 34.04844 31.73520
#
# Velocity S-wave (km/s) = 3.81875 4.10804 3.96604
# Velocity P-wave (km/s) = 5.97126 6.98946 6.50032
#
# Compressibility (1/GPa) = 0.03057271
#
# Stress axis : x y z
#
# Youngs Moduli (GPa) = 81.16686 40.40372 96.57446
#
# Poissons Ratio (x) = -0.01377 0.59020
# Poissons Ratio (y) = -0.02766 0.25648
# Poissons Ratio (z) = 0.49604 0.10730
#
# Static dielectric constant tensor:
#      x y z
#    x 3.724650 0.000000 0.000000 
#    y 0.000000 3.597000 0.000000 
#    z 0.000000 0.000000 3.823330 
# 
# 
# High freq. dielectric constant tensor:
#      x y z
#    x 1.795930 0.000000 0.000000 
#    y 0.000000 1.786580 0.000000 
#    z 0.000000 0.000000 1.800490 
# 
# From -- ./inp_files/6210.got.cif
#   From: 2010.03.12/outbox.cif.g09.slc.cpg/sg59_4_cif.got.tgz:6210.got - 2010.04.16 16:29:54.
