data_PCOD8245990
_publ_section_title
;
Structure prediction by ZEFSAII (Michael W. Deem and Ramdas Pophale) SiO2 
 PCOD8245990
Probable space group: P M M N
;
_chemical_formula_sum "Si O2"
_cell_formula_units_Z 40
_cell_length_a 8.777688
_cell_length_b 14.367225
_cell_length_c 17.323555
_cell_angle_alpha 90.000000
_cell_angle_beta 90.000000
_cell_angle_gamma 90.000000
_cell_volume 2184.691165
_symmetry_space_group_name_H-M "P M M N"
_symmetry_group_IT_number 59
_space_group.IT_coordinate_system_code '2'
_symmetry_cell_setting 'orthorhombic'
loop_
_space_group_symop_operation_xyz
x,y,z
1/2-x,1/2-y,z
1/2+x,-y,-z
-x,1/2+y,-z
-x,-y,-z
1/2+x,1/2+y,-z
1/2-x,y,z
x,1/2-y,z
loop_
_atom_site_type_symbol
_atom_site_label
_atom_site_fract_x
_atom_site_fract_y
_atom_site_fract_z
Si Si1 0.568436 0.250000 0.150670
Si Si2 0.929995 0.144324 0.514319
Si Si3 0.069638 0.942507 0.784816
Si Si4 0.930287 0.496231 0.382457
Si Si5 0.430638 0.059965 0.931557
Si Si6 0.431175 0.750000 0.025633
O O1 0.750000 0.250000 0.150535
O O2 0.503153 0.159170 0.193876
O O3 0.511111 0.250000 0.062548
O O4 0.750000 0.143667 0.523017
O O5 0.991932 0.250000 0.509327
O O6 0.981257 0.089069 0.437464
O O7 0.000277 0.093634 0.588834
O O8 0.250000 0.934703 0.779308
O O9 0.003348 0.975367 0.702615
O O10 0.020974 0.015081 0.850329
O O11 0.750000 0.507010 0.381391
O O12 0.250000 0.063311 0.941762
O O13 0.501634 0.161720 0.930536
O O14 0.500000 0.000000 0.000000
O O15 0.250000 0.750000 0.030851
#
# Coordination Sequence:
#
# PCOD8245990 Si02
#       6
#     4   8   8   8   8   4
#     4   9  16  29  53  81 104 127 166 220 265 305
#     4   9  18  33  53  77 105 135 167 209 261 312
#     4   9  18  32  53  80 106 133 173 222 264 306
#     4   9  18  33  54  79 102 132 174 214 255 310
#     4  11  21  36  56  80 110 144 180 225 272 322
#     4  11  21  37  57  79 104 143 188 226 273 323
#
# _framework density 18.309224
#
# number of rings (size 3 to 8) (size 9 to 14) (size 15 to 20)
#    0.000    2.400    2.000    0.900    1.400    0.400 
#    1.800    2.000    0.000    0.000    0.000    0.000 
#    0.000    0.000    0.000    0.000    0.000    0.000 
#
# Total GULP energy -496007.682257 kJ/mol
# GULP energy per Si atom -12400.192056 kJ/mol
# Density = 1.826755 g / cm^3
# Si number density = 18.309224 Si / 1000 Ang^3
#
#
#
# Elastic Constant Matrix: (Units=GPa)
#
#
# Indices 1 2 3 4 5 6 
#
# 1 32.6951 33.7576 30.0202 0.0000 0.0000 0.0000
# 2 33.7576 184.6694 90.9467 0.0000 0.0000 0.0000
# 3 30.0202 90.9467 165.8901 0.0000 0.0000 0.0000
# 4 0.0000 0.0000 0.0000 25.6427 0.0000 0.0000
# 5 0.0000 0.0000 0.0000 0.0000 23.8833 0.0000
# 6 0.0000 0.0000 0.0000 0.0000 0.0000 30.3926
#
#
#
# Elastic Compliance Matrix: (Units=1/GPa)
#
#
# Indices 1 2 3 4 5 6 
#
# 1 0.039932 -0.005124 -0.004417 0.000000 0.000000 0.000000
# 2 -0.005124 0.008075 -0.003500 0.000000 0.000000 0.000000
# 3 -0.004417 -0.003500 0.008746 0.000000 0.000000 0.000000
# 4 0.000000 0.000000 0.000000 0.038997 0.000000 0.000000
# 5 0.000000 0.000000 0.000000 0.000000 0.041870 0.000000
# 6 0.000000 0.000000 0.000000 0.000000 0.000000 0.032903
#
#
# Mechanical properties :
#
#
# Convention : Reuss Voigt Hill
#
# Bulk Modulus (GPa) = 32.60378 76.96707 54.78542
# Shear Modulus (GPa) = 24.17442 31.21907 27.69674
#
# Velocity S-wave (km/s) = 3.63759 4.13377 3.89359
# Velocity P-wave (km/s) = 5.95724 8.05684 7.08524
#
# Compressibility (1/GPa) = 0.03067129
#
# Stress axis : x y z
#
# Youngs Moduli (GPa) = 25.04256 123.83179 114.33557
#
# Poissons Ratio (x) = 0.63455 0.50501
# Poissons Ratio (y) = 0.12833 0.40017
# Poissons Ratio (z) = 0.11061 0.43340
#
# Static dielectric constant tensor:
#      x y z
#    x 3.085270 0.000000 0.000000 
#    y 0.000000 3.655710 0.000000 
#    z 0.000000 0.000000 3.592690 
# 
# 
# High freq. dielectric constant tensor:
#      x y z
#    x 1.679900 0.000000 0.000000 
#    y 0.000000 1.721600 0.000000 
#    z 0.000000 0.000000 1.711020 
# 
# From -- ./inp_files/19932.got.cif
#   From: 2010.03.12/outbox.cif.g09.slc.cpg/sg59_10_cif.got.tgz:19932.got - 2010.04.16 16:29:54.
