data_PCOD8245890
_publ_section_title
;
Structure prediction by ZEFSAII (Michael W. Deem and Ramdas Pophale) SiO2 
 PCOD8245890
Probable space group: P M M N
;
_chemical_formula_sum "Si O2"
_cell_formula_units_Z 48
_cell_length_a 8.779049
_cell_length_b 10.284994
_cell_length_c 27.743524
_cell_angle_alpha 90.000000
_cell_angle_beta 90.000000
_cell_angle_gamma 90.000000
_cell_volume 2505.031206
_symmetry_space_group_name_H-M "P M M N"
_symmetry_group_IT_number 59
_space_group.IT_coordinate_system_code '2'
_symmetry_cell_setting 'orthorhombic'
loop_
_space_group_symop_operation_xyz
x,y,z
1/2-x,1/2-y,z
1/2+x,-y,-z
-x,1/2+y,-z
-x,-y,-z
1/2+x,1/2+y,-z
1/2-x,y,z
x,1/2-y,z
loop_
_atom_site_type_symbol
_atom_site_label
_atom_site_fract_x
_atom_site_fract_y
_atom_site_fract_z
Si Si1 0.070881 0.750000 0.106279
Si Si2 0.070626 0.504435 0.736389
Si Si3 0.071130 0.250000 0.211571
Si Si4 0.424123 0.750000 0.889321
Si Si5 0.075327 0.098445 0.355741
Si Si6 0.570333 0.250000 0.781842
Si Si7 0.427228 0.009316 0.947969
Si Si8 0.930125 0.895546 0.535406
O O1 0.250000 0.750000 0.098001
O O2 0.026255 0.750000 0.162189
O O3 0.003321 0.622266 0.082544
O O4 0.250000 0.503204 0.743492
O O5 0.000599 0.623103 0.765387
O O6 0.030294 0.515519 0.679848
O O7 0.000843 0.374156 0.756871
O O8 0.250000 0.250000 0.221586
O O9 0.039723 0.250000 0.154917
O O10 0.250000 0.750000 0.870395
O O11 0.458545 0.874681 0.921426
O O12 0.250000 0.054958 0.349006
O O13 0.058043 0.250000 0.343228
O O14 0.019509 0.070720 0.410120
O O15 0.750000 0.250000 0.774087
O O16 0.250000 0.039707 0.953436
O O17 0.500000 0.000000 0.000000
O O18 0.750000 0.900599 0.531597
O O19 0.987246 0.750000 0.521879
O O20 0.000000 0.000000 0.500000
#
# Coordination Sequence:
#
# PCOD8245890 Si02
#       8
#     4   8   4   4   8   4   8   8
#     4  11  24  42  63  88 119 158 204 243 288 357
#     4  12  24  39  61  91 122 154 199 253 302 352
#     4  12  24  39  63  90 119 158 199 243 296 357
#     4  10  23  41  60  89 121 150 194 251 298 341
#     4   9  18  36  61  85 115 158 206 250 298 357
#     4  11  25  44  64  87 121 164 201 241 300 369
#     4  11  23  40  64  91 122 157 194 242 298 351
#     4   9  19  36  58  86 118 156 200 248 298 355
#
# _framework density 19.161439000000001
#
# number of rings (size 3 to 8) (size 9 to 14) (size 15 to 20)
#    0.000    1.500    0.833    5.750    0.000    7.000 
#    1.500    1.667    0.000    0.000    0.000    0.000 
#    0.000    0.000    0.000    0.000    0.000    0.000 
#
# Total GULP energy -595381.712110 kJ/mol
# GULP energy per Si atom -12403.785669 kJ/mol
# Density = 1.911783 g / cm^3
# Si number density = 19.161439 Si / 1000 Ang^3
#
#
#
# Elastic Constant Matrix: (Units=GPa)
#
#
# Indices 1 2 3 4 5 6 
#
# 1 91.3935 64.3121 74.8574 0.0000 0.0000 0.0000
# 2 64.3121 166.2970 93.4048 0.0000 0.0000 0.0000
# 3 74.8574 93.4048 158.5316 0.0000 0.0000 0.0000
# 4 0.0000 0.0000 0.0000 36.4977 0.0000 0.0000
# 5 0.0000 0.0000 0.0000 0.0000 37.5348 0.0000
# 6 0.0000 0.0000 0.0000 0.0000 0.0000 35.8987
#
#
#
# Elastic Compliance Matrix: (Units=1/GPa)
#
#
# Indices 1 2 3 4 5 6 
#
# 1 0.019093 -0.003467 -0.006972 0.000000 0.000000 0.000000
# 2 -0.003467 0.009617 -0.004029 0.000000 0.000000 0.000000
# 3 -0.006972 -0.004029 0.011974 0.000000 0.000000 0.000000
# 4 0.000000 0.000000 0.000000 0.027399 0.000000 0.000000
# 5 0.000000 0.000000 0.000000 0.000000 0.026642 0.000000
# 6 0.000000 0.000000 0.000000 0.000000 0.000000 0.027856
#
#
# Mechanical properties :
#
#
# Convention : Reuss Voigt Hill
#
# Bulk Modulus (GPa) = 85.13467 97.93007 91.53237
# Shear Modulus (GPa) = 32.16793 34.22942 33.19868
#
# Velocity S-wave (km/s) = 4.10174 4.23113 4.16694
# Velocity P-wave (km/s) = 8.18285 8.66538 8.42757
#
# Compressibility (1/GPa) = 0.01174610
#
# Stress axis : x y z
#
# Youngs Moduli (GPa) = 52.37654 103.97855 83.51365
#
# Poissons Ratio (x) = 0.36054 0.58229
# Poissons Ratio (y) = 0.18161 0.33649
# Poissons Ratio (z) = 0.36519 0.41894
#
# Static dielectric constant tensor:
#      x y z
#    x 3.551830 0.000000 0.000000 
#    y 0.000000 3.389090 0.000000 
#    z 0.000000 0.000000 3.854420 
# 
# 
# High freq. dielectric constant tensor:
#      x y z
#    x 1.750380 0.000000 0.000000 
#    y 0.000000 1.751570 0.000000 
#    z 0.000000 0.000000 1.760980 
# 
# From -- ./inp_files/33108.got.cif
#   From: 2010.03.12/outbox.cif.g09.slc.cpg/sg59_17_cif.got.tgz:33108.got - 2010.04.16 16:29:54.
