data_PCOD8245723
_publ_section_title
;
Structure prediction by ZEFSAII (Michael W. Deem and Ramdas Pophale) SiO2 
 PCOD8245723
Probable space group: P M M N
;
_chemical_formula_sum "Si O2"
_cell_formula_units_Z 64
_cell_length_a 19.407723
_cell_length_b 8.980640
_cell_length_c 18.889004
_cell_angle_alpha 90.000000
_cell_angle_beta 90.000000
_cell_angle_gamma 90.000000
_cell_volume 3292.235784
_symmetry_space_group_name_H-M "P M M N"
_symmetry_group_IT_number 59
_space_group.IT_coordinate_system_code '2'
_symmetry_cell_setting 'orthorhombic'
loop_
_space_group_symop_operation_xyz
x,y,z
1/2-x,1/2-y,z
1/2+x,-y,-z
-x,1/2+y,-z
-x,-y,-z
1/2+x,1/2+y,-z
1/2-x,y,z
x,1/2-y,z
loop_
_atom_site_type_symbol
_atom_site_label
_atom_site_fract_x
_atom_site_fract_y
_atom_site_fract_z
Si Si1 0.455406 0.422350 0.704914
Si Si2 0.671248 0.578366 0.498153
Si Si3 0.454565 0.925584 0.560510
Si Si4 0.172913 0.071934 0.793294
Si Si5 0.831200 0.911774 0.054426
Si Si6 0.407115 0.580355 0.220372
Si Si7 0.327819 0.427533 0.097731
Si Si8 0.830768 0.582849 0.660283
O O1 0.450720 0.250000 0.681539
O O2 0.478393 0.519931 0.637753
O O3 0.382119 0.481339 0.734969
O O4 0.511540 0.442980 0.767097
O O5 0.750000 0.529450 0.487076
O O6 0.661281 0.750000 0.475679
O O7 0.624878 0.473630 0.449119
O O8 0.648117 0.556100 0.579166
O O9 0.463420 0.750000 0.555399
O O10 0.500000 0.000000 0.500000
O O11 0.250000 0.017838 0.771408
O O12 0.171974 0.250000 0.799672
O O13 0.151266 0.004860 0.871165
O O14 0.750000 0.887803 0.052352
O O15 0.867791 0.750000 0.055327
O O16 0.851019 0.992748 0.979967
O O17 0.389269 0.750000 0.202826
O O18 0.382342 0.481891 0.155068
O O19 0.368791 0.537511 0.292517
O O20 0.250000 0.480854 0.117446
O O21 0.329409 0.250000 0.094994
O O22 0.750000 0.561443 0.670028
O O23 0.851941 0.750000 0.683502
#
# Coordination Sequence:
#
# PCOD8245723 Si02
#       8
#     8   8   8   8   8   8   8   8
#     4  10  22  38  54  77 107 136 171 215 265 319
#     4   9  19  37  60  84 109 137 171 214 266 324
#     4  12  25  40  59  81 107 141 181 224 270 322
#     4   8  14  29  56  83 103 129 170 218 262 305
#     4   7  11  23  47  78 103 125 165 217 258 294
#     4  11  22  32  44  68 105 142 172 209 256 308
#     4   9  17  30  50  75 102 134 174 217 254 294
#     4   9  18  33  53  75  98 129 171 213 250 295
#
# _framework density 19.439677
#
# number of rings (size 3 to 8) (size 9 to 14) (size 15 to 20)
#    0.000    2.625    0.000    4.875    0.000    6.250 
#    0.000    3.125    0.000    0.750    0.000    1.750 
#    0.000    0.000    0.000    0.000    0.000    0.000 
#
# Total GULP energy -793175.031923 kJ/mol
# GULP energy per Si atom -12393.359874 kJ/mol
# Density = 1.939543 g / cm^3
# Si number density = 19.439677 Si / 1000 Ang^3
#
#
#
# Elastic Constant Matrix: (Units=GPa)
#
#
# Indices 1 2 3 4 5 6 
#
# 1 69.1849 29.5930 45.3041 0.0000 0.0000 0.0000
# 2 29.5930 62.5376 35.2171 0.0000 0.0000 0.0000
# 3 45.3041 35.2171 104.0436 0.0000 0.0000 0.0000
# 4 0.0000 0.0000 0.0000 14.4060 0.0000 0.0000
# 5 0.0000 0.0000 0.0000 0.0000 28.6126 0.0000
# 6 0.0000 0.0000 0.0000 0.0000 0.0000 22.0852
#
#
#
# Elastic Compliance Matrix: (Units=1/GPa)
#
#
# Indices 1 2 3 4 5 6 
#
# 1 0.022006 -0.006199 -0.007484 0.000000 0.000000 0.000000
# 2 -0.006199 0.021502 -0.004579 0.000000 0.000000 0.000000
# 3 -0.007484 -0.004579 0.014420 0.000000 0.000000 0.000000
# 4 0.000000 0.000000 0.000000 0.069416 0.000000 0.000000
# 5 0.000000 0.000000 0.000000 0.000000 0.034950 0.000000
# 6 0.000000 0.000000 0.000000 0.000000 0.000000 0.045279
#
#
# Mechanical properties :
#
#
# Convention : Reuss Voigt Hill
#
# Bulk Modulus (GPa) = 46.71852 50.66606 48.69229
# Shear Modulus (GPa) = 19.90193 21.39756 20.64975
#
# Velocity S-wave (km/s) = 3.20313 3.32130 3.26275
# Velocity P-wave (km/s) = 6.14530 6.38967 6.26868
#
# Compressibility (1/GPa) = 0.02140479
#
# Stress axis : x y z
#
# Youngs Moduli (GPa) = 45.44162 46.50661 69.34785
#
# Poissons Ratio (x) = 0.28829 0.51900
# Poissons Ratio (y) = 0.28169 0.31754
# Poissons Ratio (z) = 0.34009 0.21295
#
# Static dielectric constant tensor:
#      x y z
#    x 3.545920 0.000000 0.000000 
#    y 0.000000 3.173300 0.000000 
#    z 0.000000 0.000000 3.803300 
# 
# 
# High freq. dielectric constant tensor:
#      x y z
#    x 1.747450 0.000000 0.000000 
#    y 0.000000 1.714510 0.000000 
#    z 0.000000 0.000000 1.766450 
# 
# From -- ./inp_files/28298.got.cif
#   From: 2010.03.12/outbox.cif.g09.slc.cpg/sg59_15_cif.got.tgz:28298.got - 2010.04.16 16:29:54.
