data_PCOD8245522
_publ_section_title
;
Structure prediction by ZEFSAII (Michael W. Deem and Ramdas Pophale) SiO2 
 PCOD8245522
Probable space group: P M M N
;
_chemical_formula_sum "Si O2"
_cell_formula_units_Z 48
_cell_length_a 17.930581
_cell_length_b 8.762921
_cell_length_c 15.738676
_cell_angle_alpha 90.000000
_cell_angle_beta 90.000000
_cell_angle_gamma 90.000000
_cell_volume 2472.927895
_symmetry_space_group_name_H-M "P M M N"
_symmetry_group_IT_number 59
_space_group.IT_coordinate_system_code '2'
_symmetry_cell_setting 'orthorhombic'
loop_
_space_group_symop_operation_xyz
x,y,z
1/2-x,1/2-y,z
1/2+x,-y,-z
-x,1/2+y,-z
-x,-y,-z
1/2+x,1/2+y,-z
1/2-x,y,z
x,1/2-y,z
loop_
_atom_site_type_symbol
_atom_site_label
_atom_site_fract_x
_atom_site_fract_y
_atom_site_fract_z
Si Si1 0.383360 0.431577 0.103609
Si Si2 0.112726 0.423065 0.488735
Si Si3 0.250000 0.928746 0.400149
Si Si4 0.250000 0.931835 0.208824
Si Si5 0.528438 0.424086 0.367710
Si Si6 0.333096 0.069477 0.918491
Si Si7 0.026040 0.069035 0.814171
O O1 0.381600 0.250000 0.111940
O O2 0.324321 0.502484 0.167741
O O3 0.465412 0.491979 0.124864
O O4 0.362109 0.488655 0.009573
O O5 0.138064 0.250000 0.503712
O O6 0.178380 0.519329 0.450299
O O7 0.094087 0.494674 0.580234
O O8 0.045412 0.433280 0.423258
O O9 0.250000 0.750000 0.395020
O O10 0.250000 0.994042 0.304978
O O11 0.250000 0.750000 0.201998
O O12 0.550580 0.250000 0.347806
O O13 0.514373 0.514055 0.281313
O O14 0.250000 0.002094 0.899585
O O15 0.328011 0.250000 0.921077
O O16 0.391769 0.017510 0.846397
O O17 0.015871 0.250000 0.818897
#
# Coordination Sequence:
#
# PCOD8245522 Si02
#       7
#     8   8   4   4   8   8   8
#     4  11  21  37  61  85 117 156 196 242 297 352
#     4  10  21  38  61  85 113 152 193 236 289 349
#     4  11  23  37  55  84 119 152 185 235 290 345
#     4  11  23  37  57  88 123 154 193 243 296 349
#     4  10  21  39  61  85 116 152 194 240 291 348
#     4   9  19  38  60  83 114 156 199 243 294 346
#     4  11  22  36  59  88 118 153 200 248 290 348
#
# _framework density 19.41019
#
# number of rings (size 3 to 8) (size 9 to 14) (size 15 to 20)
#    0.000    1.667    0.833    4.000    0.000    6.000 
#    1.500    2.500    0.000    0.000    0.000    0.000 
#    0.000    0.000    0.000    0.000    0.000    0.000 
#
# Total GULP energy -595312.932869 kJ/mol
# GULP energy per Si atom -12402.352768 kJ/mol
# Density = 1.936601 g / cm^3
# Si number density = 19.410190 Si / 1000 Ang^3
#
#
#
# Elastic Constant Matrix: (Units=GPa)
#
#
# Indices 1 2 3 4 5 6 
#
# 1 80.9916 22.0733 19.9015 0.0000 0.0000 0.0000
# 2 22.0733 61.2913 17.8225 0.0000 0.0000 0.0000
# 3 19.9015 17.8225 56.0553 0.0000 0.0000 0.0000
# 4 0.0000 0.0000 0.0000 24.9153 0.0000 0.0000
# 5 0.0000 0.0000 0.0000 0.0000 29.0958 0.0000
# 6 0.0000 0.0000 0.0000 0.0000 0.0000 32.6008
#
#
#
# Elastic Compliance Matrix: (Units=1/GPa)
#
#
# Indices 1 2 3 4 5 6 
#
# 1 0.014395 -0.004075 -0.003815 0.000000 0.000000 0.000000
# 2 -0.004075 0.019131 -0.004636 0.000000 0.000000 0.000000
# 3 -0.003815 -0.004636 0.020668 0.000000 0.000000 0.000000
# 4 0.000000 0.000000 0.000000 0.040136 0.000000 0.000000
# 5 0.000000 0.000000 0.000000 0.000000 0.034369 0.000000
# 6 0.000000 0.000000 0.000000 0.000000 0.000000 0.030674
#
#
# Mechanical properties :
#
#
# Convention : Reuss Voigt Hill
#
# Bulk Modulus (GPa) = 34.31439 35.32588 34.82013
# Shear Modulus (GPa) = 25.75472 26.55844 26.15658
#
# Velocity S-wave (km/s) = 3.64657 3.70303 3.67491
# Velocity P-wave (km/s) = 5.95373 6.04338 5.99872
#
# Compressibility (1/GPa) = 0.02914229
#
# Stress axis : x y z
#
# Youngs Moduli (GPa) = 69.46876 52.27100 48.38397
#
# Poissons Ratio (x) = 0.21299 0.18459
# Poissons Ratio (y) = 0.28307 0.22431
# Poissons Ratio (z) = 0.26503 0.24233
#
# Static dielectric constant tensor:
#      x y z
#    x 3.871970 0.000000 0.000000 
#    y 0.000000 3.574300 0.000000 
#    z 0.000000 0.000000 3.662590 
# 
# 
# High freq. dielectric constant tensor:
#      x y z
#    x 1.762780 0.000000 0.000000 
#    y 0.000000 1.755010 0.000000 
#    z 0.000000 0.000000 1.761510 
# 
# From -- ./inp_files/20536.got.cif
#   From: 2010.03.12/outbox.cif.g09.slc.cpg/sg59_11_cif.got.tgz:20536.got - 2010.04.16 16:29:54.
