data_PCOD8245138
_publ_section_title
;
Structure prediction by ZEFSAII (Michael W. Deem and Ramdas Pophale) SiO2 
 PCOD8245138
Probable space group: P M M N
;
_chemical_formula_sum "Si O2"
_cell_formula_units_Z 48
_cell_length_a 18.448285
_cell_length_b 9.079384
_cell_length_c 15.990244
_cell_angle_alpha 90.000000
_cell_angle_beta 90.000000
_cell_angle_gamma 90.000000
_cell_volume 2678.350898
_symmetry_space_group_name_H-M "P M M N"
_symmetry_group_IT_number 59
_space_group.IT_coordinate_system_code '2'
_symmetry_cell_setting 'orthorhombic'
loop_
_space_group_symop_operation_xyz
x,y,z
1/2-x,1/2-y,z
1/2+x,-y,-z
-x,1/2+y,-z
-x,-y,-z
1/2+x,1/2+y,-z
1/2-x,y,z
x,1/2-y,z
loop_
_atom_site_type_symbol
_atom_site_label
_atom_site_fract_x
_atom_site_fract_y
_atom_site_fract_z
Si Si1 0.460757 0.420644 0.245596
Si Si2 0.833226 0.080303 0.832930
Si Si3 0.668168 0.078093 0.323613
Si Si4 0.403691 0.424360 0.826574
Si Si5 0.165800 0.581569 0.975021
Si Si6 0.530026 0.418482 0.420320
O O1 0.468900 0.250000 0.221877
O O2 0.380172 0.476579 0.226970
O O3 0.516496 0.513746 0.190203
O O4 0.475916 0.446438 0.343385
O O5 0.750000 0.038382 0.817103
O O6 0.847239 0.250000 0.809816
O O7 0.854526 0.051083 0.928970
O O8 0.750000 0.048477 0.355196
O O9 0.654956 0.250000 0.303104
O O10 0.611115 0.026520 0.394767
O O11 0.654526 0.989409 0.238584
O O12 0.404882 0.250000 0.818905
O O13 0.381141 0.470756 0.919614
O O14 0.250000 0.549569 0.959586
O O15 0.147695 0.750000 0.950988
O O16 0.500000 0.500000 0.500000
O O17 0.533688 0.250000 0.446140
#
# Coordination Sequence:
#
# PCOD8245138 Si02
#       6
#     8   8   8   8   8   8
#     4  10  21  37  55  75 101 134 170 206 253 310
#     4   9  19  36  56  77 101 132 173 217 256 295
#     4   9  18  34  54  75 103 137 170 206 253 309
#     4  11  21  31  48  76 106 135 171 213 254 299
#     4   9  18  33  51  71 101 140 175 209 253 301
#     4   9  19  35  55  78 102 131 166 205 253 307
#
# _framework density 17.921475000000001
#
# number of rings (size 3 to 8) (size 9 to 14) (size 15 to 20)
#    0.000    2.500    0.000    4.500    0.000    7.667 
#    0.000    2.500    0.000    3.000    0.000    0.000 
#    0.000    0.000    0.000    0.000    0.000    0.000 
#
# Total GULP energy -595246.936376 kJ/mol
# GULP energy per Si atom -12400.977841 kJ/mol
# Density = 1.788069 g / cm^3
# Si number density = 17.921475 Si / 1000 Ang^3
#
#
#
# Elastic Constant Matrix: (Units=GPa)
#
#
# Indices 1 2 3 4 5 6 
#
# 1 109.8985 52.3083 58.7326 0.0000 0.0000 0.0000
# 2 52.3083 95.0855 48.4217 0.0000 0.0000 0.0000
# 3 58.7326 48.4217 80.7107 0.0000 0.0000 0.0000
# 4 0.0000 0.0000 0.0000 33.4840 0.0000 0.0000
# 5 0.0000 0.0000 0.0000 0.0000 26.0938 0.0000
# 6 0.0000 0.0000 0.0000 0.0000 0.0000 31.6665
#
#
#
# Elastic Compliance Matrix: (Units=1/GPa)
#
#
# Indices 1 2 3 4 5 6 
#
# 1 0.015937 -0.004120 -0.009126 0.000000 0.000000 0.000000
# 2 -0.004120 0.016209 -0.006726 0.000000 0.000000 0.000000
# 3 -0.009126 -0.006726 0.023066 0.000000 0.000000 0.000000
# 4 0.000000 0.000000 0.000000 0.029865 0.000000 0.000000
# 5 0.000000 0.000000 0.000000 0.000000 0.038323 0.000000
# 6 0.000000 0.000000 0.000000 0.000000 0.000000 0.031579
#
#
# Mechanical properties :
#
#
# Convention : Reuss Voigt Hill
#
# Bulk Modulus (GPa) = 65.49593 67.18000 66.33796
# Shear Modulus (GPa) = 24.99847 26.66433 25.83140
#
# Velocity S-wave (km/s) = 3.73887 3.86144 3.80065
# Velocity P-wave (km/s) = 7.43400 7.57945 7.50708
#
# Compressibility (1/GPa) = 0.01526812
#
# Stress axis : x y z
#
# Youngs Moduli (GPa) = 62.74546 61.69545 43.35438
#
# Poissons Ratio (x) = 0.25420 0.39563
# Poissons Ratio (y) = 0.25853 0.29160
# Poissons Ratio (z) = 0.57259 0.41496
#
# Static dielectric constant tensor:
#      x y z
#    x 3.388410 0.000000 0.000000 
#    y 0.000000 3.236220 0.000000 
#    z 0.000000 0.000000 3.131330 
# 
# 
# High freq. dielectric constant tensor:
#      x y z
#    x 1.696830 0.000000 0.000000 
#    y 0.000000 1.691340 0.000000 
#    z 0.000000 0.000000 1.677830 
# 
# From -- ./inp_files/20383.got.cif
#   From: 2010.03.12/outbox.cif.g09.slc.cpg/sg59_11_cif.got.tgz:20383.got - 2010.04.16 16:29:54.
