data_PCOD8245777
_publ_section_title
;
Structure prediction by ZEFSAII (Michael W. Deem and Ramdas Pophale) SiO2 
 PCOD8245777
Probable space group: P M M N
;
_chemical_formula_sum "Si O2"
_cell_formula_units_Z 56
_cell_length_a 21.710676
_cell_length_b 8.944768
_cell_length_c 14.677713
_cell_angle_alpha 90.000000
_cell_angle_beta 90.000000
_cell_angle_gamma 90.000000
_cell_volume 2850.367244
_symmetry_space_group_name_H-M "P M M N"
_symmetry_group_IT_number 59
_space_group.IT_coordinate_system_code '2'
_symmetry_cell_setting 'orthorhombic'
loop_
_space_group_symop_operation_xyz
x,y,z
1/2-x,1/2-y,z
1/2+x,-y,-z
-x,1/2+y,-z
-x,-y,-z
1/2+x,1/2+y,-z
1/2-x,y,z
x,1/2-y,z
loop_
_atom_site_type_symbol
_atom_site_label
_atom_site_fract_x
_atom_site_fract_y
_atom_site_fract_z
Si Si1 0.319844 0.574066 0.724420
Si Si2 0.250000 0.918163 0.268152
Si Si3 0.250000 0.581876 0.053160
Si Si4 0.374680 0.077494 0.045125
Si Si5 0.820447 0.923249 0.459470
Si Si6 0.947950 0.072720 0.792754
Si Si7 0.416696 0.079198 0.847789
Si Si8 0.868143 0.573808 0.652242
O O1 0.250000 0.516779 0.741189
O O2 0.322503 0.750000 0.721342
O O3 0.344472 0.513992 0.627545
O O4 0.362416 0.518412 0.805719
O O5 0.250000 0.750000 0.309558
O O6 0.250000 0.909275 0.160772
O O7 0.190706 0.008689 0.297559
O O8 0.250000 0.750000 0.011653
O O9 0.190648 0.493040 0.017885
O O10 0.366142 0.250000 0.073542
O O11 0.404361 0.989224 0.128311
O O12 0.418038 0.061476 0.956794
O O13 0.750000 0.966463 0.484843
O O14 0.825148 0.750000 0.434831
O O15 0.864050 0.963683 0.544875
O O16 0.940133 0.250000 0.790575
O O17 0.017831 0.022676 0.810433
O O18 0.928488 0.003568 0.695270
O O19 0.405006 0.250000 0.819368
O O20 0.870344 0.750000 0.669114
#
# Coordination Sequence:
#
# PCOD8245777 Si02
#       8
#     8   4   4   8   8   8   8   8
#     4  10  22  39  61  91 118 145 189 245 297 343
#     4  11  21  33  53  82 120 159 190 234 293 341
#     4  11  23  37  55  86 122 155 188 238 297 341
#     4  11  23  39  61  87 115 154 199 240 287 343
#     4   9  18  35  58  85 117 153 189 233 290 347
#     4  11  23  40  59  85 119 156 195 238 290 343
#     4  10  24  43  62  83 113 155 200 240 286 348
#     4  11  21  35  58  88 119 154 197 236 284 347
#
# _framework density 19.646591000000001
#
# number of rings (size 3 to 8) (size 9 to 14) (size 15 to 20)
#    0.000    1.571    2.143    2.571    1.000    4.857 
#    0.000    0.714    0.000    0.000    0.000    0.000 
#    0.000    0.000    0.000    0.000    0.000    0.000 
#
# Total GULP energy -694609.521498 kJ/mol
# GULP energy per Si atom -12403.741455 kJ/mol
# Density = 1.960187 g / cm^3
# Si number density = 19.646591 Si / 1000 Ang^3
#
#
#
# Elastic Constant Matrix: (Units=GPa)
#
#
# Indices 1 2 3 4 5 6 
#
# 1 83.8858 31.2787 23.8830 0.0000 0.0000 0.0000
# 2 31.2787 86.4986 26.6344 0.0000 0.0000 0.0000
# 3 23.8830 26.6344 72.9041 0.0000 0.0000 0.0000
# 4 0.0000 0.0000 0.0000 30.8759 0.0000 0.0000
# 5 0.0000 0.0000 0.0000 0.0000 26.4449 0.0000
# 6 0.0000 0.0000 0.0000 0.0000 0.0000 30.5661
#
#
#
# Elastic Compliance Matrix: (Units=1/GPa)
#
#
# Indices 1 2 3 4 5 6 
#
# 1 0.014402 -0.004231 -0.003172 0.000000 0.000000 0.000000
# 2 -0.004231 0.014269 -0.003827 0.000000 0.000000 0.000000
# 3 -0.003172 -0.003827 0.016154 0.000000 0.000000 0.000000
# 4 0.000000 0.000000 0.000000 0.032388 0.000000 0.000000
# 5 0.000000 0.000000 0.000000 0.000000 0.037815 0.000000
# 6 0.000000 0.000000 0.000000 0.000000 0.000000 0.032716
#
#
# Mechanical properties :
#
#
# Convention : Reuss Voigt Hill
#
# Bulk Modulus (GPa) = 44.71364 45.20898 44.96131
# Shear Modulus (GPa) = 28.14387 28.34352 28.24369
#
# Velocity S-wave (km/s) = 3.78895 3.80237 3.79567
# Velocity P-wave (km/s) = 6.47688 6.50680 6.49185
#
# Compressibility (1/GPa) = 0.02236454
#
# Stress axis : x y z
#
# Youngs Moduli (GPa) = 69.43593 70.08064 61.90428
#
# Poissons Ratio (x) = 0.29651 0.19637
# Poissons Ratio (y) = 0.29379 0.23691
# Poissons Ratio (z) = 0.22026 0.26820
#
# Static dielectric constant tensor:
#      x y z
#    x 3.584950 0.000000 0.000000 
#    y 0.000000 3.704950 0.000000 
#    z 0.000000 0.000000 3.586850 
# 
# 
# High freq. dielectric constant tensor:
#      x y z
#    x 1.753890 0.000000 0.000000 
#    y 0.000000 1.775090 0.000000 
#    z 0.000000 0.000000 1.767620 
# 
# From -- ./inp_files/24376.got.cif
#   From: 2010.03.12/outbox.cif.g09.slc.cpg/sg59_13_cif.got.tgz:24376.got - 2010.04.16 16:29:54.
