data_PCOD8245122
_publ_section_title
;
Structure prediction by ZEFSAII (Michael W. Deem and Ramdas Pophale) SiO2 
 PCOD8245122
Probable space group: P M M N
;
_chemical_formula_sum "Si O2"
_cell_formula_units_Z 48
_cell_length_a 19.877079
_cell_length_b 9.244706
_cell_length_c 15.026853
_cell_angle_alpha 90.000000
_cell_angle_beta 90.000000
_cell_angle_gamma 90.000000
_cell_volume 2761.300719
_symmetry_space_group_name_H-M "P M M N"
_symmetry_group_IT_number 59
_space_group.IT_coordinate_system_code '2'
_symmetry_cell_setting 'orthorhombic'
loop_
_space_group_symop_operation_xyz
x,y,z
1/2-x,1/2-y,z
1/2+x,-y,-z
-x,1/2+y,-z
-x,-y,-z
1/2+x,1/2+y,-z
1/2-x,y,z
x,1/2-y,z
loop_
_atom_site_type_symbol
_atom_site_label
_atom_site_fract_x
_atom_site_fract_y
_atom_site_fract_z
Si Si1 0.106910 0.416299 0.763491
Si Si2 0.046592 0.915102 0.267230
Si Si3 0.172114 0.083974 0.581656
Si Si4 0.069287 0.413315 0.100076
Si Si5 0.933815 0.081058 0.531805
Si Si6 0.089215 0.913420 0.932687
O O1 0.112919 0.250000 0.793056
O O2 0.158030 0.455407 0.684460
O O3 0.125990 0.512543 0.848891
O O4 0.032416 0.451952 0.727892
O O5 0.057055 0.750000 0.237118
O O6 0.078032 0.945317 0.363544
O O7 0.084735 0.014577 0.195459
O O8 0.250000 0.059461 0.561314
O O9 0.150117 0.250000 0.564328
O O10 0.131474 0.979236 0.517173
O O11 0.096576 0.250000 0.100986
O O12 0.990195 0.418385 0.082421
O O13 0.107809 0.500555 0.022590
O O14 0.942769 0.250000 0.510495
O O15 0.000000 0.000000 0.500000
O O16 0.115472 0.750000 0.941989
#
# Coordination Sequence:
#
# PCOD8245122 Si02
#       6
#     8   8   8   8   8   8
#     4   9  16  29  46  66  94 129 165 202 247 299
#     4   9  17  29  45  67  96 129 163 205 252 301
#     4  10  21  37  54  74 103 138 175 216 263 312
#     4   9  16  25  39  63  93 125 158 196 240 291
#     4  11  21  34  53  76 103 135 175 218 265 315
#     4   9  16  25  39  62  92 126 159 194 238 289
#
# _framework density 17.383113000000002
#
# number of rings (size 3 to 8) (size 9 to 14) (size 15 to 20)
#    0.000    2.500    1.667    1.500    0.000    6.333 
#    0.000    0.000    0.000    0.000    0.000    1.167 
#    0.000    6.667    0.000    0.000    0.000    0.000 
#
# Total GULP energy -595235.373777 kJ/mol
# GULP energy per Si atom -12400.736954 kJ/mol
# Density = 1.734355 g / cm^3
# Si number density = 17.383113 Si / 1000 Ang^3
#
#
#
# Elastic Constant Matrix: (Units=GPa)
#
#
# Indices 1 2 3 4 5 6 
#
# 1 43.2604 34.5628 36.7253 0.0000 0.0000 0.0000
# 2 34.5628 135.3514 88.8860 0.0000 0.0000 0.0000
# 3 36.7253 88.8860 132.2530 0.0000 0.0000 0.0000
# 4 0.0000 0.0000 0.0000 39.5367 0.0000 0.0000
# 5 0.0000 0.0000 0.0000 0.0000 16.1563 0.0000
# 6 0.0000 0.0000 0.0000 0.0000 0.0000 16.0144
#
#
#
# Elastic Compliance Matrix: (Units=1/GPa)
#
#
# Indices 1 2 3 4 5 6 
#
# 1 0.031475 -0.004113 -0.005976 0.000000 0.000000 0.000000
# 2 -0.004113 0.013763 -0.008108 0.000000 0.000000 0.000000
# 3 -0.005976 -0.008108 0.014670 0.000000 0.000000 0.000000
# 4 0.000000 0.000000 0.000000 0.025293 0.000000 0.000000
# 5 0.000000 0.000000 0.000000 0.000000 0.061895 0.000000
# 6 0.000000 0.000000 0.000000 0.000000 0.000000 0.062444
#
#
# Mechanical properties :
#
#
# Convention : Reuss Voigt Hill
#
# Bulk Modulus (GPa) = 42.52708 70.13478 56.33093
# Shear Modulus (GPa) = 19.70274 24.38751 22.04512
#
# Velocity S-wave (km/s) = 3.37031 3.74965 3.56503
# Velocity P-wave (km/s) = 6.29786 7.69289 7.03007
#
# Compressibility (1/GPa) = 0.02351443
#
# Stress axis : x y z
#
# Youngs Moduli (GPa) = 31.77113 72.65947 68.16648
#
# Poissons Ratio (x) = 0.29883 0.40737
# Poissons Ratio (y) = 0.13067 0.55268
# Poissons Ratio (z) = 0.18987 0.58911
#
# Static dielectric constant tensor:
#      x y z
#    x 2.697080 0.000000 0.000000 
#    y 0.000000 3.374360 0.000000 
#    z 0.000000 0.000000 3.387990 
# 
# 
# High freq. dielectric constant tensor:
#      x y z
#    x 1.605790 0.000000 0.000000 
#    y 0.000000 1.680780 0.000000 
#    z 0.000000 0.000000 1.684270 
# 
# From -- ./inp_files/20735.got.cif
#   From: 2010.03.12/outbox.cif.g09.slc.cpg/sg59_11_cif.got.tgz:20735.got - 2010.04.16 16:29:54.
