data_PCOD8245469
_publ_section_title
;
Structure prediction by ZEFSAII (Michael W. Deem and Ramdas Pophale) SiO2 
 PCOD8245469
Probable space group: P M M N
;
_chemical_formula_sum "Si O2"
_cell_formula_units_Z 56
_cell_length_a 23.160133
_cell_length_b 15.053688
_cell_length_c 7.585886
_cell_angle_alpha 90.000000
_cell_angle_beta 90.000000
_cell_angle_gamma 90.000000
_cell_volume 2644.784382
_symmetry_space_group_name_H-M "P M M N"
_symmetry_group_IT_number 59
_space_group.IT_coordinate_system_code '2'
_symmetry_cell_setting 'orthorhombic'
loop_
_space_group_symop_operation_xyz
x,y,z
1/2-x,1/2-y,z
1/2+x,-y,-z
-x,1/2+y,-z
-x,-y,-z
1/2+x,1/2+y,-z
1/2-x,y,z
x,1/2-y,z
loop_
_atom_site_type_symbol
_atom_site_label
_atom_site_fract_x
_atom_site_fract_y
_atom_site_fract_z
Si Si1 0.081509 0.354887 0.891196
Si Si2 0.127733 0.848517 0.408629
Si Si3 0.089831 0.348600 0.297169
Si Si4 0.812593 0.533529 0.090790
Si Si5 0.002586 0.401953 0.576801
Si Si6 0.683809 0.346603 0.222858
Si Si7 0.186576 0.022149 0.307248
O O1 0.085446 0.250000 0.858485
O O2 0.140773 0.400951 0.823220
O O3 0.032162 0.397306 0.769267
O O4 0.070470 0.378411 0.098535
O O5 0.143728 0.750000 0.337785
O O6 0.141911 0.857568 0.613077
O O7 0.165424 0.920483 0.303963
O O8 0.060155 0.863593 0.386996
O O9 0.116609 0.250000 0.284490
O O10 0.035341 0.344659 0.428060
O O11 0.137182 0.414023 0.389120
O O12 0.750000 0.547855 0.184092
O O13 0.830979 0.429421 0.097470
O O14 0.806473 0.558695 0.888343
O O15 0.000000 0.500000 0.500000
O O16 0.750000 0.350844 0.287709
O O17 0.672178 0.250000 0.130702
O O18 0.250000 0.029156 0.401078
#
# Coordination Sequence:
#
# PCOD8245469 Si02
#       7
#     8   8   8   8   8   8   8
#     4  10  22  40  62  90 124 159 199 248 301 360
#     4  11  22  37  56  84 118 155 198 246 303 361
#     4  10  22  42  64  90 125 162 200 249 305 359
#     4   9  19  36  58  85 117 153 197 246 300 360
#     4  12  23  41  65  88 122 163 202 255 303 361
#     4   9  18  34  55  79 111 152 196 244 298 354
#     4  10  21  38  59  87 117 152 200 248 302 362
#
# _framework density 21.173749000000001
#
# number of rings (size 3 to 8) (size 9 to 14) (size 15 to 20)
#    0.000    1.857    1.429    2.571    0.000    2.571 
#    2.571    4.286    0.000    1.714    0.000    0.000 
#    0.000    0.000    0.000    0.000    0.000    0.000 
#
# Total GULP energy -693974.213606 kJ/mol
# GULP energy per Si atom -12392.396672 kJ/mol
# Density = 2.112556 g / cm^3
# Si number density = 21.173749 Si / 1000 Ang^3
#
#
#
# Elastic Constant Matrix: (Units=GPa)
#
#
# Indices 1 2 3 4 5 6 
#
# 1 100.0063 26.4974 22.9447 0.0000 0.0000 0.0000
# 2 26.4974 103.4206 6.5453 0.0000 0.0000 0.0000
# 3 22.9447 6.5453 58.0015 0.0000 0.0000 0.0000
# 4 0.0000 0.0000 0.0000 30.0517 0.0000 0.0000
# 5 0.0000 0.0000 0.0000 0.0000 25.0807 0.0000
# 6 0.0000 0.0000 0.0000 0.0000 0.0000 26.6676
#
#
#
# Elastic Compliance Matrix: (Units=1/GPa)
#
#
# Indices 1 2 3 4 5 6 
#
# 1 0.011715 -0.002728 -0.004326 0.000000 0.000000 0.000000
# 2 -0.002728 0.010374 -0.000092 0.000000 0.000000 0.000000
# 3 -0.004326 -0.000092 0.018963 0.000000 0.000000 0.000000
# 4 0.000000 0.000000 0.000000 0.033276 0.000000 0.000000
# 5 0.000000 0.000000 0.000000 0.000000 0.039871 0.000000
# 6 0.000000 0.000000 0.000000 0.000000 0.000000 0.037499
#
#
# Mechanical properties :
#
#
# Convention : Reuss Voigt Hill
#
# Bulk Modulus (GPa) = 37.36920 41.48926 39.42923
# Shear Modulus (GPa) = 28.58634 30.05604 29.32119
#
# Velocity S-wave (km/s) = 3.67834 3.77171 3.72531
# Velocity P-wave (km/s) = 5.97724 6.21328 6.09640
#
# Compressibility (1/GPa) = 0.02676000
#
# Stress axis : x y z
#
# Youngs Moduli (GPa) = 85.36290 96.39575 52.73501
#
# Poissons Ratio (x) = 0.26293 0.22815
# Poissons Ratio (y) = 0.23284 0.00483
# Poissons Ratio (z) = 0.36931 0.00884
#
# Static dielectric constant tensor:
#      x y z
#    x 4.106540 0.000000 0.000000 
#    y 0.000000 4.055740 0.000000 
#    z 0.000000 0.000000 3.580090 
# 
# 
# High freq. dielectric constant tensor:
#      x y z
#    x 1.830910 0.000000 0.000000 
#    y 0.000000 1.841940 0.000000 
#    z 0.000000 0.000000 1.809780 
# 
# From -- ./inp_files/11401.got.cif
#   From: 2010.03.12/outbox.cif.g09.slc.cpg/sg59_6_cif.got.tgz:11401.got - 2010.04.16 16:29:54.
