data_PCOD8245848
_publ_section_title
;
Structure prediction by ZEFSAII (Michael W. Deem and Ramdas Pophale) SiO2 
 PCOD8245848
Probable space group: P M M N
;
_chemical_formula_sum "Si O2"
_cell_formula_units_Z 56
_cell_length_a 14.904987
_cell_length_b 14.059754
_cell_length_c 12.455726
_cell_angle_alpha 90.000000
_cell_angle_beta 90.000000
_cell_angle_gamma 90.000000
_cell_volume 2610.227553
_symmetry_space_group_name_H-M "P M M N"
_symmetry_group_IT_number 59
_space_group.IT_coordinate_system_code '2'
_symmetry_cell_setting 'orthorhombic'
loop_
_space_group_symop_operation_xyz
x,y,z
1/2-x,1/2-y,z
1/2+x,-y,-z
-x,1/2+y,-z
-x,-y,-z
1/2+x,1/2+y,-z
1/2-x,y,z
x,1/2-y,z
loop_
_atom_site_type_symbol
_atom_site_label
_atom_site_fract_x
_atom_site_fract_y
_atom_site_fract_z
Si Si1 0.348625 0.362454 0.576373
Si Si2 0.853550 0.040757 0.069497
Si Si3 0.853010 0.004968 0.828081
Si Si4 0.646030 0.359453 0.634622
Si Si5 0.516130 0.362668 0.451109
Si Si6 0.494133 0.861033 0.788849
Si Si7 0.143810 0.354160 0.816005
O O1 0.250000 0.407951 0.554441
O O2 0.340455 0.250000 0.564031
O O3 0.420333 0.404698 0.491862
O O4 0.384774 0.385471 0.696032
O O5 0.750000 0.054237 0.104331
O O6 0.912516 0.118499 0.130752
O O7 0.889360 0.934967 0.101451
O O8 0.865801 0.055438 0.943002
O O9 0.750000 0.971964 0.812889
O O10 0.914316 0.912039 0.823139
O O11 0.882500 0.081461 0.739445
O O12 0.750000 0.371418 0.608320
O O13 0.621002 0.250000 0.658692
O O14 0.594022 0.399274 0.530347
O O15 0.512481 0.250000 0.456257
O O16 0.534848 0.396563 0.330079
O O17 0.515670 0.750000 0.790049
O O18 0.250000 0.345210 0.819303
O O19 0.102743 0.250000 0.846411
#
# Coordination Sequence:
#
# PCOD8245848 Si02
#       7
#     8   8   8   8   8   8   8
#     4   8  14  27  49  80 116 149 186 234 289 352
#     4  10  22  41  63  89 122 157 200 252 301 356
#     4  10  23  43  64  88 120 158 204 256 302 353
#     4   9  19  38  63  89 116 151 200 255 308 359
#     4   9  19  35  57  85 118 158 197 241 298 357
#     4  11  25  42  60  88 126 166 205 243 294 362
#     4   8  15  30  54  85 117 148 189 243 301 356
#
# _framework density 21.454066999999998
#
# number of rings (size 3 to 8) (size 9 to 14) (size 15 to 20)
#    0.000    2.714    0.000    1.286    2.000    3.429 
#    0.000    5.714    0.000    0.000    0.000    0.000 
#    0.000    0.000    0.000    0.000    0.000    0.000 
#
# Total GULP energy -694316.552850 kJ/mol
# GULP energy per Si atom -12398.509872 kJ/mol
# Density = 2.140524 g / cm^3
# Si number density = 21.454067 Si / 1000 Ang^3
#
#
#
# Elastic Constant Matrix: (Units=GPa)
#
#
# Indices 1 2 3 4 5 6 
#
# 1 102.0013 37.3130 63.1488 0.0000 0.0000 0.0000
# 2 37.3130 59.1737 31.0250 0.0000 0.0000 0.0000
# 3 63.1488 31.0250 134.0843 0.0000 0.0000 0.0000
# 4 0.0000 0.0000 0.0000 28.8651 0.0000 0.0000
# 5 0.0000 0.0000 0.0000 0.0000 68.2743 0.0000
# 6 0.0000 0.0000 0.0000 0.0000 0.0000 14.6635
#
#
#
# Elastic Compliance Matrix: (Units=1/GPa)
#
#
# Indices 1 2 3 4 5 6 
#
# 1 0.016039 -0.007003 -0.005933 0.000000 0.000000 0.000000
# 2 -0.007003 0.022290 -0.001860 0.000000 0.000000 0.000000
# 3 -0.005933 -0.001860 0.010683 0.000000 0.000000 0.000000
# 4 0.000000 0.000000 0.000000 0.034644 0.000000 0.000000
# 5 0.000000 0.000000 0.000000 0.000000 0.014647 0.000000
# 6 0.000000 0.000000 0.000000 0.000000 0.000000 0.068196
#
#
# Mechanical properties :
#
#
# Convention : Reuss Voigt Hill
#
# Bulk Modulus (GPa) = 51.49252 62.02588 56.75920
# Shear Modulus (GPa) = 24.68366 33.27876 28.98121
#
# Velocity S-wave (km/s) = 3.39563 3.94275 3.67938
# Velocity P-wave (km/s) = 6.27911 7.04988 6.67563
#
# Compressibility (1/GPa) = 0.01942030
#
# Stress axis : x y z
#
# Youngs Moduli (GPa) = 62.34897 44.86310 93.60962
#
# Poissons Ratio (x) = 0.31416 0.55542
# Poissons Ratio (y) = 0.43661 0.17407
# Poissons Ratio (z) = 0.36994 0.08343
#
# Static dielectric constant tensor:
#      x y z
#    x 3.928870 0.000000 0.000000 
#    y 0.000000 3.866170 0.000000 
#    z 0.000000 0.000000 4.018640 
# 
# 
# High freq. dielectric constant tensor:
#      x y z
#    x 1.839100 0.000000 0.000000 
#    y 0.000000 1.827460 0.000000 
#    z 0.000000 0.000000 1.842700 
# 
# From -- ./inp_files/16923.got.cif
#   From: 2010.03.12/outbox.cif.g09.slc.cpg/sg59_9_cif.got.tgz:16923.got - 2010.04.16 16:29:54.
