data_PCOD8245146
_publ_section_title
;
Structure prediction by ZEFSAII (Michael W. Deem and Ramdas Pophale) SiO2 
 PCOD8245146
Probable space group: P M M N
;
_chemical_formula_sum "Si O2"
_cell_formula_units_Z 48
_cell_length_a 18.045215
_cell_length_b 8.810667
_cell_length_c 16.520917
_cell_angle_alpha 90.000000
_cell_angle_beta 90.000000
_cell_angle_gamma 90.000000
_cell_volume 2626.666877
_symmetry_space_group_name_H-M "P M M N"
_symmetry_group_IT_number 59
_space_group.IT_coordinate_system_code '2'
_symmetry_cell_setting 'orthorhombic'
loop_
_space_group_symop_operation_xyz
x,y,z
1/2-x,1/2-y,z
1/2+x,-y,-z
-x,1/2+y,-z
-x,-y,-z
1/2+x,1/2+y,-z
1/2-x,y,z
x,1/2-y,z
loop_
_atom_site_type_symbol
_atom_site_label
_atom_site_fract_x
_atom_site_fract_y
_atom_site_fract_z
Si Si1 0.919142 0.430586 0.504972
Si Si2 0.603859 0.076957 0.679219
Si Si3 0.045569 0.423128 0.768701
Si Si4 0.164569 0.072929 0.642584
Si Si5 0.472658 0.428627 0.082355
Si Si6 0.833388 0.429416 0.842204
O O1 0.927243 0.250000 0.506070
O O2 0.883236 0.492317 0.589773
O O3 0.865876 0.479148 0.432857
O O4 0.000000 0.500000 0.500000
O O5 0.628046 0.250000 0.674494
O O6 0.517533 0.057428 0.701057
O O7 0.653620 0.004212 0.751025
O O8 0.049062 0.250000 0.799767
O O9 0.121966 0.472591 0.725300
O O10 0.029285 0.527769 0.845878
O O11 0.250000 0.031476 0.656037
O O12 0.152221 0.250000 0.624072
O O13 0.470398 0.250000 0.073662
O O14 0.389638 0.488967 0.097471
O O15 0.500000 0.500000 0.000000
O O16 0.750000 0.465706 0.870110
O O17 0.850647 0.250000 0.844018
#
# Coordination Sequence:
#
# PCOD8245146 Si02
#       6
#     8   8   8   8   8   8
#     4  11  20  32  52  78 110 148 193 236 275 322
#     4   8  15  29  51  76 102 140 183 219 262 322
#     4   9  17  35  57  76 103 140 181 224 273 330
#     4  10  21  37  55  77 109 148 188 232 282 330
#     4  11  22  37  59  86 112 142 182 224 269 328
#     4   9  18  35  58  82 111 145 179 221 276 330
#
# _framework density 18.274111000000001
#
# number of rings (size 3 to 8) (size 9 to 14) (size 15 to 20)
#    0.000    2.333    1.667    3.000    0.000    2.000 
#    0.000    3.333    0.000    3.000    0.000    0.000 
#    0.000    0.000    0.000    0.000    0.000    0.000 
#
# Total GULP energy -594982.672545 kJ/mol
# GULP energy per Si atom -12395.472345 kJ/mol
# Density = 1.823252 g / cm^3
# Si number density = 18.274111 Si / 1000 Ang^3
#
#
#
# Elastic Constant Matrix: (Units=GPa)
#
#
# Indices 1 2 3 4 5 6 
#
# 1 121.2635 47.2931 68.2095 0.0000 0.0000 0.0000
# 2 47.2931 83.7916 55.2622 0.0000 0.0000 0.0000
# 3 68.2095 55.2622 136.4962 0.0000 0.0000 0.0000
# 4 0.0000 0.0000 0.0000 29.7001 0.0000 0.0000
# 5 0.0000 0.0000 0.0000 0.0000 23.3034 0.0000
# 6 0.0000 0.0000 0.0000 0.0000 0.0000 24.1962
#
#
#
# Elastic Compliance Matrix: (Units=1/GPa)
#
#
# Indices 1 2 3 4 5 6 
#
# 1 0.012365 -0.003962 -0.004575 0.000000 0.000000 0.000000
# 2 -0.003962 0.017551 -0.005126 0.000000 0.000000 0.000000
# 3 -0.004575 -0.005126 0.011688 0.000000 0.000000 0.000000
# 4 0.000000 0.000000 0.000000 0.033670 0.000000 0.000000
# 5 0.000000 0.000000 0.000000 0.000000 0.042912 0.000000
# 6 0.000000 0.000000 0.000000 0.000000 0.000000 0.041329
#
#
# Mechanical properties :
#
#
# Convention : Reuss Voigt Hill
#
# Bulk Modulus (GPa) = 70.03619 75.89788 72.96703
# Shear Modulus (GPa) = 26.09605 26.82571 26.46088
#
# Velocity S-wave (km/s) = 3.78303 3.83556 3.80939
# Velocity P-wave (km/s) = 7.58224 7.82550 7.70483
#
# Compressibility (1/GPa) = 0.01427833
#
# Stress axis : x y z
#
# Youngs Moduli (GPa) = 80.87354 56.97641 85.55908
#
# Poissons Ratio (x) = 0.22572 0.39144
# Poissons Ratio (y) = 0.32039 0.43858
# Poissons Ratio (z) = 0.37000 0.29207
#
# Static dielectric constant tensor:
#      x y z
#    x 3.382220 0.000000 0.000000 
#    y 0.000000 3.242630 0.000000 
#    z 0.000000 0.000000 3.528570 
# 
# 
# High freq. dielectric constant tensor:
#      x y z
#    x 1.701380 0.000000 0.000000 
#    y 0.000000 1.687910 0.000000 
#    z 0.000000 0.000000 1.710380 
# 
# From -- ./inp_files/23658.got.cif
#   From: 2010.03.12/outbox.cif.g09.slc.cpg/sg59_12_cif.got.tgz:23658.got - 2010.04.16 16:29:54.
