data_PCOD8245375
_publ_section_title
;
Structure prediction by ZEFSAII (Michael W. Deem and Ramdas Pophale) SiO2 
 PCOD8245375
Probable space group: P M M N
;
_chemical_formula_sum "Si O2"
_cell_formula_units_Z 48
_cell_length_a 14.738038
_cell_length_b 8.856517
_cell_length_c 18.835097
_cell_angle_alpha 90.000000
_cell_angle_beta 90.000000
_cell_angle_gamma 90.000000
_cell_volume 2458.501591
_symmetry_space_group_name_H-M "P M M N"
_symmetry_group_IT_number 59
_space_group.IT_coordinate_system_code '2'
_symmetry_cell_setting 'orthorhombic'
loop_
_space_group_symop_operation_xyz
x,y,z
1/2-x,1/2-y,z
1/2+x,-y,-z
-x,1/2+y,-z
-x,-y,-z
1/2+x,1/2+y,-z
1/2-x,y,z
x,1/2-y,z
loop_
_atom_site_type_symbol
_atom_site_label
_atom_site_fract_x
_atom_site_fract_y
_atom_site_fract_z
Si Si1 0.097513 0.571975 0.505686
Si Si2 0.355726 0.425630 0.999628
Si Si3 0.147837 0.080674 0.648560
Si Si4 0.497488 0.571731 0.741157
Si Si5 0.150220 0.421016 0.366771
Si Si6 0.012934 0.574471 0.108134
O O1 0.090575 0.750000 0.511191
O O2 0.145773 0.512288 0.575932
O O3 0.152966 0.525344 0.436182
O O4 0.000000 0.500000 0.500000
O O5 0.250000 0.472846 0.987277
O O6 0.362031 0.250000 0.020458
O O7 0.415989 0.458005 0.929543
O O8 0.400274 0.522753 0.062350
O O9 0.250000 0.086038 0.676494
O O10 0.110452 0.250000 0.635097
O O11 0.093242 0.002230 0.711454
O O12 0.486928 0.750000 0.740375
O O13 0.580000 0.517366 0.691148
O O14 0.516074 0.518801 0.820126
O O15 0.250000 0.426487 0.331944
O O16 0.124556 0.250000 0.389520
O O17 0.024066 0.750000 0.125039
#
# Coordination Sequence:
#
# PCOD8245375 Si02
#       6
#     8   8   8   8   8   8
#     4  12  23  37  60  86 114 150 195 248 302 353
#     4   9  19  38  63  88 116 154 197 237 285 345
#     4  11  24  41  61  85 116 155 197 246 302 353
#     4  11  23  39  60  86 120 161 198 239 289 348
#     4  10  22  40  60  83 113 152 197 245 298 352
#     4  10  21  37  59  89 123 155 191 240 292 344
#
# _framework density 19.524087000000002
#
# number of rings (size 3 to 8) (size 9 to 14) (size 15 to 20)
#    0.000    1.500    1.667    3.500    0.000    6.667 
#    0.000    3.333    0.000    0.000    0.000    0.000 
#    0.000    0.000    0.000    0.000    0.000    0.000 
#
# Total GULP energy -595298.036438 kJ/mol
# GULP energy per Si atom -12402.042426 kJ/mol
# Density = 1.947965 g / cm^3
# Si number density = 19.524087 Si / 1000 Ang^3
#
#
#
# Elastic Constant Matrix: (Units=GPa)
#
#
# Indices 1 2 3 4 5 6 
#
# 1 107.6991 27.5876 21.5184 0.0000 0.0000 0.0000
# 2 27.5876 107.2496 35.4793 0.0000 0.0000 0.0000
# 3 21.5184 35.4793 79.8924 0.0000 0.0000 0.0000
# 4 0.0000 0.0000 0.0000 37.6053 0.0000 0.0000
# 5 0.0000 0.0000 0.0000 0.0000 7.9054 0.0000
# 6 0.0000 0.0000 0.0000 0.0000 0.0000 27.3879
#
#
#
# Elastic Compliance Matrix: (Units=1/GPa)
#
#
# Indices 1 2 3 4 5 6 
#
# 1 0.010168 -0.002004 -0.001849 0.000000 0.000000 0.000000
# 2 -0.002004 0.011325 -0.004489 0.000000 0.000000 0.000000
# 3 -0.001849 -0.004489 0.015008 0.000000 0.000000 0.000000
# 4 0.000000 0.000000 0.000000 0.026592 0.000000 0.000000
# 5 0.000000 0.000000 0.000000 0.000000 0.126495 0.000000
# 6 0.000000 0.000000 0.000000 0.000000 0.000000 0.036512
#
#
# Mechanical properties :
#
#
# Convention : Reuss Voigt Hill
#
# Bulk Modulus (GPa) = 50.46197 51.55684 51.00941
# Shear Modulus (GPa) = 20.04890 28.59677 24.32284
#
# Velocity S-wave (km/s) = 3.20797 3.83128 3.53340
# Velocity P-wave (km/s) = 6.29473 6.78496 6.54444
#
# Compressibility (1/GPa) = 0.01981691
#
# Stress axis : x y z
#
# Youngs Moduli (GPa) = 98.34961 88.30305 66.62905
#
# Poissons Ratio (x) = 0.17695 0.12318
# Poissons Ratio (y) = 0.19708 0.29913
# Poissons Ratio (z) = 0.18182 0.39643
#
# Static dielectric constant tensor:
#      x y z
#    x 3.701700 0.000000 0.000000 
#    y 0.000000 3.717100 0.000000 
#    z 0.000000 0.000000 3.556860 
# 
# 
# High freq. dielectric constant tensor:
#      x y z
#    x 1.771220 0.000000 0.000000 
#    y 0.000000 1.769050 0.000000 
#    z 0.000000 0.000000 1.752440 
# 
# From -- ./inp_files/25418.got.cif
#   From: 2010.03.12/outbox.cif.g09.slc.cpg/sg59_13_cif.got.tgz:25418.got - 2010.04.16 16:29:54.
