data_PCOD8245666
_publ_section_title
;
Structure prediction by ZEFSAII (Michael W. Deem and Ramdas Pophale) SiO2 
 PCOD8245666
Probable space group: P M M N
;
_chemical_formula_sum "Si O2"
_cell_formula_units_Z 40
_cell_length_a 18.304285
_cell_length_b 8.807488
_cell_length_c 12.410099
_cell_angle_alpha 90.000000
_cell_angle_beta 90.000000
_cell_angle_gamma 90.000000
_cell_volume 2000.691262
_symmetry_space_group_name_H-M "P M M N"
_symmetry_group_IT_number 59
_space_group.IT_coordinate_system_code '2'
_symmetry_cell_setting 'orthorhombic'
loop_
_space_group_symop_operation_xyz
x,y,z
1/2-x,1/2-y,z
1/2+x,-y,-z
-x,1/2+y,-z
-x,-y,-z
1/2+x,1/2+y,-z
1/2-x,y,z
x,1/2-y,z
loop_
_atom_site_type_symbol
_atom_site_label
_atom_site_fract_x
_atom_site_fract_y
_atom_site_fract_z
Si Si1 0.426944 0.928515 0.047036
Si Si2 0.421917 0.424570 0.275372
Si Si3 0.833585 0.926768 0.127936
Si Si4 0.913283 0.075020 0.323988
Si Si5 0.665075 0.074505 0.541143
O O1 0.434845 0.750000 0.038018
O O2 0.414241 0.974442 0.169635
O O3 0.500000 0.000000 0.000000
O O4 0.357779 0.982502 0.977944
O O5 0.410143 0.250000 0.243039
O O6 0.500160 0.449821 0.331243
O O7 0.359640 0.474262 0.358261
O O8 0.750000 0.967727 0.153094
O O9 0.844827 0.750000 0.104968
O O10 0.882342 0.972286 0.229173
O O11 0.893087 0.250000 0.300036
O O12 0.878548 0.019942 0.435779
O O13 0.750000 0.045793 0.519610
O O14 0.648271 0.250000 0.566407
#
# Coordination Sequence:
#
# PCOD8245666 Si02
#       5
#     8   8   8   8   8
#     4  12  24  41  65  91 123 163 205 253 309 367
#     4  11  23  39  63  93 123 161 208 256 310 368
#     4  11  24  40  62  94 128 163 206 256 309 366
#     4  10  21  39  64  91 122 163 208 256 309 369
#     4  10  22  40  61  88 124 166 210 255 308 369
#
# _framework density 19.993089999999999
#
# number of rings (size 3 to 8) (size 9 to 14) (size 15 to 20)
#    0.000    1.200    2.000    4.200    0.000    5.200 
#    0.000    0.000    0.000    0.000    0.000    0.000 
#    0.000    0.000    0.000    0.000    0.000    0.000 
#
# Total GULP energy -496312.673141 kJ/mol
# GULP energy per Si atom -12407.816829 kJ/mol
# Density = 1.994758 g / cm^3
# Si number density = 19.993090 Si / 1000 Ang^3
#
#
#
# Elastic Constant Matrix: (Units=GPa)
#
#
# Indices 1 2 3 4 5 6 
#
# 1 61.0450 30.1328 26.5178 0.0000 0.0000 0.0000
# 2 30.1328 105.2854 37.5516 0.0000 0.0000 0.0000
# 3 26.5178 37.5516 118.6986 0.0000 0.0000 0.0000
# 4 0.0000 0.0000 0.0000 35.5521 0.0000 0.0000
# 5 0.0000 0.0000 0.0000 0.0000 33.6567 0.0000
# 6 0.0000 0.0000 0.0000 0.0000 0.0000 26.8069
#
#
#
# Elastic Compliance Matrix: (Units=1/GPa)
#
#
# Indices 1 2 3 4 5 6 
#
# 1 0.019976 -0.004650 -0.002992 0.000000 0.000000 0.000000
# 2 -0.004650 0.011789 -0.002691 0.000000 0.000000 0.000000
# 3 -0.002992 -0.002691 0.009944 0.000000 0.000000 0.000000
# 4 0.000000 0.000000 0.000000 0.028128 0.000000 0.000000
# 5 0.000000 0.000000 0.000000 0.000000 0.029712 0.000000
# 6 0.000000 0.000000 0.000000 0.000000 0.000000 0.037304
#
#
# Mechanical properties :
#
#
# Convention : Reuss Voigt Hill
#
# Bulk Modulus (GPa) = 47.51896 52.60372 50.06134
# Shear Modulus (GPa) = 30.38922 31.92492 31.15707
#
# Velocity S-wave (km/s) = 3.90293 4.00033 3.95193
# Velocity P-wave (km/s) = 6.64302 6.90688 6.77623
#
# Compressibility (1/GPa) = 0.02104423
#
# Stress axis : x y z
#
# Youngs Moduli (GPa) = 50.05918 84.82832 100.56076
#
# Poissons Ratio (x) = 0.39447 0.30084
# Poissons Ratio (y) = 0.23279 0.27056
# Poissons Ratio (z) = 0.14976 0.22823
#
# Static dielectric constant tensor:
#      x y z
#    x 3.709060 0.000000 0.000000 
#    y 0.000000 3.697760 0.000000 
#    z 0.000000 0.000000 3.775380 
# 
# 
# High freq. dielectric constant tensor:
#      x y z
#    x 1.785960 0.000000 0.000000 
#    y 0.000000 1.784760 0.000000 
#    z 0.000000 0.000000 1.789510 
# 
# From -- ./inp_files/13808.got.cif
#   From: 2010.03.12/outbox.cif.g09.slc.cpg/sg59_7_cif.got.tgz:13808.got - 2010.04.16 16:29:54.
