data_PCOD8245054
_publ_section_title
;
Structure prediction by ZEFSAII (Michael W. Deem and Ramdas Pophale) SiO2 
 PCOD8245054
Probable space group: P M M N
;
_chemical_formula_sum "Si O2"
_cell_formula_units_Z 48
_cell_length_a 9.249183
_cell_length_b 19.006120
_cell_length_c 13.533768
_cell_angle_alpha 90.000000
_cell_angle_beta 90.000000
_cell_angle_gamma 90.000000
_cell_volume 2379.115720
_symmetry_space_group_name_H-M "P M M N"
_symmetry_group_IT_number 59
_space_group.IT_coordinate_system_code '2'
_symmetry_cell_setting 'orthorhombic'
loop_
_space_group_symop_operation_xyz
x,y,z
1/2-x,1/2-y,z
1/2+x,-y,-z
-x,1/2+y,-z
-x,-y,-z
1/2+x,1/2+y,-z
1/2-x,y,z
x,1/2-y,z
loop_
_atom_site_type_symbol
_atom_site_label
_atom_site_fract_x
_atom_site_fract_y
_atom_site_fract_z
Si Si1 0.421680 0.414378 0.106035
Si Si2 0.920080 0.827294 0.714134
Si Si3 0.582404 0.056128 0.804123
Si Si4 0.917394 0.046095 0.580823
Si Si5 0.084021 0.168091 0.506406
Si Si6 0.921584 0.668452 0.086213
O O1 0.250000 0.408932 0.108055
O O2 0.489510 0.376112 0.201976
O O3 0.466705 0.496593 0.115582
O O4 0.480477 0.373882 0.009737
O O5 0.750000 0.820687 0.730826
O O6 0.990402 0.750000 0.723348
O O7 0.948525 0.858251 0.605215
O O8 0.750000 0.075778 0.817354
O O9 0.557036 0.023256 0.694650
O O10 0.490612 0.127459 0.820748
O O11 0.750000 0.043141 0.552830
O O12 0.976497 0.125862 0.576905
O O13 0.000000 0.000000 0.500000
O O14 0.250000 0.151883 0.534396
O O15 0.050679 0.250000 0.518335
O O16 0.750000 0.664877 0.095101
O O17 0.972542 0.750000 0.083059
#
# Coordination Sequence:
#
# PCOD8245054 Si02
#       6
#     8   8   8   8   8   8
#     4   9  16  30  53  79 107 137 174 220 266 315
#     4   8  13  24  47  78 108 138 174 218 266 315
#     4  10  22  38  56  78 106 143 181 218 265 324
#     4  11  23  38  57  81 109 143 185 230 277 329
#     4   9  18  33  54  80 110 146 187 228 273 327
#     4  10  21  36  56  83 110 137 174 220 267 315
#
# _framework density 20.175563
#
# number of rings (size 3 to 8) (size 9 to 14) (size 15 to 20)
#    0.000    2.500    0.000    3.500    0.000    7.333 
#    0.000    3.333    0.000    1.000    0.000    4.667 
#    0.000    0.000    0.000    0.000    0.000    0.000 
#
# Total GULP energy -594908.780367 kJ/mol
# GULP energy per Si atom -12393.932924 kJ/mol
# Density = 2.012964 g / cm^3
# Si number density = 20.175563 Si / 1000 Ang^3
#
#
#
# Elastic Constant Matrix: (Units=GPa)
#
#
# Indices 1 2 3 4 5 6 
#
# 1 53.4669 43.2858 36.5084 0.0000 0.0000 0.0000
# 2 43.2858 116.4030 48.7076 0.0000 0.0000 0.0000
# 3 36.5084 48.7076 76.0302 0.0000 0.0000 0.0000
# 4 0.0000 0.0000 0.0000 37.1227 0.0000 0.0000
# 5 0.0000 0.0000 0.0000 0.0000 24.2423 0.0000
# 6 0.0000 0.0000 0.0000 0.0000 0.0000 29.5251
#
#
#
# Elastic Compliance Matrix: (Units=1/GPa)
#
#
# Indices 1 2 3 4 5 6 
#
# 1 0.031960 -0.007464 -0.010565 0.000000 0.000000 0.000000
# 2 -0.007464 0.013480 -0.005052 0.000000 0.000000 0.000000
# 3 -0.010565 -0.005052 0.021462 0.000000 0.000000 0.000000
# 4 0.000000 0.000000 0.000000 0.026938 0.000000 0.000000
# 5 0.000000 0.000000 0.000000 0.000000 0.041250 0.000000
# 6 0.000000 0.000000 0.000000 0.000000 0.000000 0.033869
#
#
# Mechanical properties :
#
#
# Convention : Reuss Voigt Hill
#
# Bulk Modulus (GPa) = 48.21408 55.87819 52.04613
# Shear Modulus (GPa) = 22.51906 26.00460 24.26183
#
# Velocity S-wave (km/s) = 3.34452 3.59404 3.47152
# Velocity P-wave (km/s) = 6.23406 6.70663 6.47466
#
# Compressibility (1/GPa) = 0.02074083
#
# Stress axis : x y z
#
# Youngs Moduli (GPa) = 31.28951 74.18249 46.59355
#
# Poissons Ratio (x) = 0.55368 0.49226
# Poissons Ratio (y) = 0.23354 0.23539
# Poissons Ratio (z) = 0.33057 0.37477
#
# Static dielectric constant tensor:
#      x y z
#    x 3.191330 0.000000 0.000000 
#    y 0.000000 3.852620 0.000000 
#    z 0.000000 0.000000 3.796660 
# 
# 
# High freq. dielectric constant tensor:
#      x y z
#    x 1.737010 0.000000 0.000000 
#    y 0.000000 1.801590 0.000000 
#    z 0.000000 0.000000 1.790960 
# 
# From -- ./inp_files/20425.got.cif
#   From: 2010.03.12/outbox.cif.g09.slc.cpg/sg59_11_cif.got.tgz:20425.got - 2010.04.16 16:29:54.
