data_PCOD8245058
_publ_section_title
;
Structure prediction by ZEFSAII (Michael W. Deem and Ramdas Pophale) SiO2 
 PCOD8245058
Probable space group: P M M N
;
_chemical_formula_sum "Si O2"
_cell_formula_units_Z 56
_cell_length_a 19.406937
_cell_length_b 9.062572
_cell_length_c 15.737191
_cell_angle_alpha 90.000000
_cell_angle_beta 90.000000
_cell_angle_gamma 90.000000
_cell_volume 2767.806225
_symmetry_space_group_name_H-M "P M M N"
_symmetry_group_IT_number 59
_space_group.IT_coordinate_system_code '2'
_symmetry_cell_setting 'orthorhombic'
loop_
_space_group_symop_operation_xyz
x,y,z
1/2-x,1/2-y,z
1/2+x,-y,-z
-x,1/2+y,-z
-x,-y,-z
1/2+x,1/2+y,-z
1/2-x,y,z
x,1/2-y,z
loop_
_atom_site_type_symbol
_atom_site_label
_atom_site_fract_x
_atom_site_fract_y
_atom_site_fract_z
Si Si1 0.670563 0.418473 0.676633
Si Si2 0.918530 0.423716 0.836959
Si Si3 0.544277 0.078646 0.238801
Si Si4 0.329309 0.077908 0.494591
Si Si5 0.828176 0.920334 0.971905
Si Si6 0.548565 0.422059 0.431892
Si Si7 0.671598 0.919899 0.169801
O O1 0.750000 0.436216 0.701261
O O2 0.653214 0.250000 0.651234
O O3 0.627979 0.471595 0.757533
O O4 0.650214 0.524095 0.599339
O O5 0.927142 0.250000 0.844695
O O6 0.883049 0.481563 0.922095
O O7 0.993672 0.493744 0.825141
O O8 0.541454 0.250000 0.216578
O O9 0.521831 0.049422 0.336417
O O10 0.621713 0.021738 0.225073
O O11 0.250000 0.042577 0.514976
O O12 0.345932 0.250000 0.500437
O O13 0.374882 0.990254 0.562469
O O14 0.750000 0.968245 0.948956
O O15 0.839194 0.750000 0.947756
O O16 0.842157 0.947175 0.070698
O O17 0.500000 0.500000 0.500000
O O18 0.551464 0.250000 0.453333
O O19 0.750000 0.962459 0.193012
O O20 0.657668 0.750000 0.193174
#
# Coordination Sequence:
#
# PCOD8245058 Si02
#       7
#     8   8   8   8   8   8   8
#     4   9  18  33  53  79 113 151 190 234 283 333
#     4  11  22  35  55  84 117 153 193 234 278 333
#     4  11  25  41  58  84 115 149 189 233 285 340
#     4  10  21  36  56  83 112 145 187 232 281 339
#     4   9  19  37  61  88 118 152 188 229 279 332
#     4  11  24  41  61  84 112 148 190 236 287 342
#     4   9  20  41  66  89 114 147 189 235 283 336
#
# _framework density 20.232631000000001
#
# number of rings (size 3 to 8) (size 9 to 14) (size 15 to 20)
#    0.000    2.000    0.000    3.857    0.000    9.429 
#    0.000    5.714    0.000    0.000    0.000    0.000 
#    0.000    0.000    0.000    0.000    0.000    0.000 
#
# Total GULP energy -694638.506162 kJ/mol
# GULP energy per Si atom -12404.259039 kJ/mol
# Density = 2.018658 g / cm^3
# Si number density = 20.232631 Si / 1000 Ang^3
#
#
#
# Elastic Constant Matrix: (Units=GPa)
#
#
# Indices 1 2 3 4 5 6 
#
# 1 101.2218 53.7457 40.2460 0.0000 0.0000 0.0000
# 2 53.7457 107.5773 46.5267 0.0000 0.0000 0.0000
# 3 40.2460 46.5267 59.6697 0.0000 0.0000 0.0000
# 4 0.0000 0.0000 0.0000 33.0207 0.0000 0.0000
# 5 0.0000 0.0000 0.0000 0.0000 38.2810 0.0000
# 6 0.0000 0.0000 0.0000 0.0000 0.0000 36.7824
#
#
#
# Elastic Compliance Matrix: (Units=1/GPa)
#
#
# Indices 1 2 3 4 5 6 
#
# 1 0.014912 -0.004677 -0.006411 0.000000 0.000000 0.000000
# 2 -0.004677 0.015493 -0.008925 0.000000 0.000000 0.000000
# 3 -0.006411 -0.008925 0.028042 0.000000 0.000000 0.000000
# 4 0.000000 0.000000 0.000000 0.030284 0.000000 0.000000
# 5 0.000000 0.000000 0.000000 0.000000 0.026123 0.000000
# 6 0.000000 0.000000 0.000000 0.000000 0.000000 0.027187
#
#
# Mechanical properties :
#
#
# Convention : Reuss Voigt Hill
#
# Bulk Modulus (GPa) = 54.28907 61.05617 57.67262
# Shear Modulus (GPa) = 26.56656 30.14685 28.35671
#
# Velocity S-wave (km/s) = 3.62754 3.86425 3.74777
# Velocity P-wave (km/s) = 6.66604 7.08185 6.87709
#
# Compressibility (1/GPa) = 0.01841991
#
# Stress axis : x y z
#
# Youngs Moduli (GPa) = 67.06157 64.54676 35.66063
#
# Poissons Ratio (x) = 0.30191 0.22860
# Poissons Ratio (y) = 0.31367 0.31828
# Poissons Ratio (z) = 0.42990 0.57610
#
# Static dielectric constant tensor:
#      x y z
#    x 3.760240 0.000000 0.000000 
#    y 0.000000 3.619490 0.000000 
#    z 0.000000 0.000000 3.547060 
# 
# 
# High freq. dielectric constant tensor:
#      x y z
#    x 1.799270 0.000000 0.000000 
#    y 0.000000 1.791590 0.000000 
#    z 0.000000 0.000000 1.783890 
# 
# From -- ./inp_files/24187.got.cif
#   From: 2010.03.12/outbox.cif.g09.slc.cpg/sg59_13_cif.got.tgz:24187.got - 2010.04.16 16:29:54.
