data_PCOD8245182
_publ_section_title
;
Structure prediction by ZEFSAII (Michael W. Deem and Ramdas Pophale) SiO2 
 PCOD8245182
Probable space group: P M M N
;
_chemical_formula_sum "Si O2"
_cell_formula_units_Z 64
_cell_length_a 18.489976
_cell_length_b 8.881944
_cell_length_c 20.071118
_cell_angle_alpha 90.000000
_cell_angle_beta 90.000000
_cell_angle_gamma 90.000000
_cell_volume 3296.218119
_symmetry_space_group_name_H-M "P M M N"
_symmetry_group_IT_number 59
_space_group.IT_coordinate_system_code '2'
_symmetry_cell_setting 'orthorhombic'
loop_
_space_group_symop_operation_xyz
x,y,z
1/2-x,1/2-y,z
1/2+x,-y,-z
-x,1/2+y,-z
-x,-y,-z
1/2+x,1/2+y,-z
1/2-x,y,z
x,1/2-y,z
loop_
_atom_site_type_symbol
_atom_site_label
_atom_site_fract_x
_atom_site_fract_y
_atom_site_fract_z
Si Si1 0.577412 0.072270 0.078018
Si Si2 0.332860 0.421853 0.414986
Si Si3 0.414981 0.424933 0.056910
Si Si4 0.429633 0.928078 0.675902
Si Si5 0.834550 0.921595 0.811676
Si Si6 0.168346 0.928945 0.797272
Si Si7 0.079573 0.925604 0.301399
Si Si8 0.432743 0.077533 0.535681
O O1 0.584079 0.250000 0.078224
O O2 0.493742 0.020112 0.082775
O O3 0.622147 0.005362 0.140557
O O4 0.610695 0.011418 0.009140
O O5 0.250000 0.474332 0.414353
O O6 0.340489 0.250000 0.389109
O O7 0.378504 0.530902 0.368333
O O8 0.362024 0.435743 0.489895
O O9 0.417824 0.250000 0.039124
O O10 0.356671 0.462593 0.113312
O O11 0.432161 0.750000 0.667442
O O12 0.368175 0.979977 0.727980
O O13 0.505968 0.982087 0.704298
O O14 0.412366 0.999806 0.604774
O O15 0.750000 0.943722 0.803547
O O16 0.857758 0.750000 0.794912
O O17 0.872331 0.036498 0.762176
O O18 0.250000 0.993370 0.800105
O O19 0.169127 0.750000 0.801297
O O20 0.062006 0.750000 0.303236
O O21 0.454113 0.250000 0.549246
O O22 0.500000 0.000000 0.500000
#
# Coordination Sequence:
#
# PCOD8245182 Si02
#       8
#     8   8   8   8   8   8   8   8
#     4   9  17  32  55  80 108 145 188 238 285 331
#     4  10  22  40  61  84 114 153 190 227 282 347
#     4   9  18  33  53  79 110 146 190 233 279 341
#     4  11  22  38  62  86 114 152 192 236 284 340
#     4  10  21  37  56  78 110 151 189 227 279 342
#     4   9  19  36  58  85 115 150 195 241 289 345
#     4  12  24  37  57  84 114 147 189 239 284 335
#     4  11  22  38  61  88 117 150 190 234 282 338
#
# _framework density 19.416191000000001
#
# number of rings (size 3 to 8) (size 9 to 14) (size 15 to 20)
#    0.000    1.875    1.250    3.000    0.000    6.000 
#    0.000    3.750    0.000    2.625    0.000    0.000 
#    0.000    0.000    0.000    0.000    0.000    0.000 
#
# Total GULP energy -793789.577550 kJ/mol
# GULP energy per Si atom -12402.962149 kJ/mol
# Density = 1.937200 g / cm^3
# Si number density = 19.416191 Si / 1000 Ang^3
#
#
#
# Elastic Constant Matrix: (Units=GPa)
#
#
# Indices 1 2 3 4 5 6 
#
# 1 94.3614 26.6000 48.7380 0.0000 0.0000 0.0000
# 2 26.6000 65.7462 39.8270 0.0000 0.0000 0.0000
# 3 48.7380 39.8270 134.3893 0.0000 0.0000 0.0000
# 4 0.0000 0.0000 0.0000 35.3648 0.0000 0.0000
# 5 0.0000 0.0000 0.0000 0.0000 11.1298 0.0000
# 6 0.0000 0.0000 0.0000 0.0000 0.0000 15.8293
#
#
#
# Elastic Compliance Matrix: (Units=1/GPa)
#
#
# Indices 1 2 3 4 5 6 
#
# 1 0.013523 -0.003048 -0.004001 0.000000 0.000000 0.000000
# 2 -0.003048 0.019225 -0.004592 0.000000 0.000000 0.000000
# 3 -0.004001 -0.004592 0.010253 0.000000 0.000000 0.000000
# 4 0.000000 0.000000 0.000000 0.028277 0.000000 0.000000
# 5 0.000000 0.000000 0.000000 0.000000 0.089849 0.000000
# 6 0.000000 0.000000 0.000000 0.000000 0.000000 0.063174
#
#
# Mechanical properties :
#
#
# Convention : Reuss Voigt Hill
#
# Bulk Modulus (GPa) = 50.71169 58.31411 54.51290
# Shear Modulus (GPa) = 19.67299 24.42024 22.04661
#
# Velocity S-wave (km/s) = 3.18657 3.55029 3.37334
# Velocity P-wave (km/s) = 6.30190 6.84873 6.58099
#
# Compressibility (1/GPa) = 0.01971932
#
# Stress axis : x y z
#
# Youngs Moduli (GPa) = 73.94652 52.01630 97.53165
#
# Poissons Ratio (x) = 0.15852 0.39025
# Poissons Ratio (y) = 0.22535 0.44788
# Poissons Ratio (z) = 0.29588 0.23887
#
# Static dielectric constant tensor:
#      x y z
#    x 3.646240 0.000000 0.000000 
#    y 0.000000 3.406750 0.000000 
#    z 0.000000 0.000000 3.678930 
# 
# 
# High freq. dielectric constant tensor:
#      x y z
#    x 1.756050 0.000000 0.000000 
#    y 0.000000 1.738710 0.000000 
#    z 0.000000 0.000000 1.768750 
# 
# From -- ./inp_files/30748.got.cif
#   From: 2010.03.12/outbox.cif.g09.slc.cpg/sg59_16_cif.got.tgz:30748.got - 2010.04.16 16:29:54.
