data_PCOD8245884
_publ_section_title
;
Structure prediction by ZEFSAII (Michael W. Deem and Ramdas Pophale) SiO2 
 PCOD8245884
Probable space group: P M M N
;
_chemical_formula_sum "Si O2"
_cell_formula_units_Z 40
_cell_length_a 8.953981
_cell_length_b 25.218823
_cell_length_c 9.164923
_cell_angle_alpha 90.000000
_cell_angle_beta 90.000000
_cell_angle_gamma 90.000000
_cell_volume 2069.520833
_symmetry_space_group_name_H-M "P M M N"
_symmetry_group_IT_number 59
_space_group.IT_coordinate_system_code '2'
_symmetry_cell_setting 'orthorhombic'
loop_
_space_group_symop_operation_xyz
x,y,z
1/2-x,1/2-y,z
1/2+x,-y,-z
-x,1/2+y,-z
-x,-y,-z
1/2+x,1/2+y,-z
1/2-x,y,z
x,1/2-y,z
loop_
_atom_site_type_symbol
_atom_site_label
_atom_site_fract_x
_atom_site_fract_y
_atom_site_fract_z
Si Si1 0.077735 0.311637 0.332016
Si Si2 0.925395 0.690419 0.335930
Si Si3 0.075166 0.901470 0.162743
Si Si4 0.425063 0.902569 0.827299
Si Si5 0.572842 0.996929 0.656896
O O1 0.250000 0.326348 0.301997
O O2 0.049739 0.250000 0.300795
O O3 0.034748 0.325823 0.498507
O O4 0.970118 0.343978 0.225067
O O5 0.750000 0.687593 0.312200
O O6 0.982879 0.750000 0.304518
O O7 0.001510 0.651526 0.222610
O O8 0.250000 0.894427 0.181238
O O9 0.017349 0.952544 0.250671
O O10 0.029696 0.909231 0.995317
O O11 0.250000 0.911933 0.801909
O O12 0.519453 0.944128 0.735510
O O13 0.750000 0.995494 0.641104
O O14 0.500000 0.000000 0.500000
#
# Coordination Sequence:
#
# PCOD8245884 Si02
#       5
#     8   8   8   8   8
#     4   9  19  37  59  83 112 147 188 232 277 326
#     4   9  19  36  58  83 110 143 185 229 272 323
#     4  10  23  39  55  80 114 148 182 225 276 329
#     4  11  23  38  56  82 115 148 184 226 275 330
#     4  11  23  40  61  84 110 143 185 230 278 331
#
# _framework density 19.328144999999999
#
# number of rings (size 3 to 8) (size 9 to 14) (size 15 to 20)
#    0.000    2.000    0.000    4.200    0.000    8.800 
#    0.000    6.000    0.000    0.000    0.000    0.000 
#    0.000    0.000    0.000    0.000    0.000    0.000 
#
# Total GULP energy -496162.583774 kJ/mol
# GULP energy per Si atom -12404.064594 kJ/mol
# Density = 1.928415 g / cm^3
# Si number density = 19.328145 Si / 1000 Ang^3
#
#
#
# Elastic Constant Matrix: (Units=GPa)
#
#
# Indices 1 2 3 4 5 6 
#
# 1 52.2606 41.6175 58.4956 0.0000 0.0000 0.0000
# 2 41.6175 112.7025 71.7950 0.0000 0.0000 0.0000
# 3 58.4956 71.7950 143.9638 0.0000 0.0000 0.0000
# 4 0.0000 0.0000 0.0000 25.7139 0.0000 0.0000
# 5 0.0000 0.0000 0.0000 0.0000 35.5142 0.0000
# 6 0.0000 0.0000 0.0000 0.0000 0.0000 36.5555
#
#
#
# Elastic Compliance Matrix: (Units=1/GPa)
#
#
# Indices 1 2 3 4 5 6 
#
# 1 0.037767 -0.006112 -0.012297 0.000000 0.000000 0.000000
# 2 -0.006112 0.013993 -0.004495 0.000000 0.000000 0.000000
# 3 -0.012297 -0.004495 0.014184 0.000000 0.000000 0.000000
# 4 0.000000 0.000000 0.000000 0.038889 0.000000 0.000000
# 5 0.000000 0.000000 0.000000 0.000000 0.028158 0.000000
# 6 0.000000 0.000000 0.000000 0.000000 0.000000 0.027356
#
#
# Mechanical properties :
#
#
# Convention : Reuss Voigt Hill
#
# Bulk Modulus (GPa) = 49.66334 72.52702 61.09518
# Shear Modulus (GPa) = 23.48868 28.69132 26.09000
#
# Velocity S-wave (km/s) = 3.48984 3.85701 3.67801
# Velocity P-wave (km/s) = 6.47991 7.57898 7.05089
#
# Compressibility (1/GPa) = 0.02013558
#
# Stress axis : x y z
#
# Youngs Moduli (GPa) = 26.47832 71.46196 70.49963
#
# Poissons Ratio (x) = 0.43680 0.86695
# Poissons Ratio (y) = 0.16185 0.31689
# Poissons Ratio (z) = 0.32561 0.32122
#
# Static dielectric constant tensor:
#      x y z
#    x 3.424830 0.000000 0.000000 
#    y 0.000000 3.694210 0.000000 
#    z 0.000000 0.000000 3.946920 
# 
# 
# High freq. dielectric constant tensor:
#      x y z
#    x 1.748620 0.000000 0.000000 
#    y 0.000000 1.766170 0.000000 
#    z 0.000000 0.000000 1.759350 
# 
# From -- ./inp_files/5635.got.cif
#   From: 2010.03.12/outbox.cif.g09.slc.cpg/sg59_3_cif.got.tgz:5635.got - 2010.04.16 16:29:54.
