data_PCOD8245137
_publ_section_title
;
Structure prediction by ZEFSAII (Michael W. Deem and Ramdas Pophale) SiO2 
 PCOD8245137
Probable space group: P M M N
;
_chemical_formula_sum "Si O2"
_cell_formula_units_Z 64
_cell_length_a 14.872672
_cell_length_b 9.178540
_cell_length_c 24.466067
_cell_angle_alpha 90.000000
_cell_angle_beta 90.000000
_cell_angle_gamma 90.000000
_cell_volume 3339.848490
_symmetry_space_group_name_H-M "P M M N"
_symmetry_group_IT_number 59
_space_group.IT_coordinate_system_code '2'
_symmetry_cell_setting 'orthorhombic'
loop_
_space_group_symop_operation_xyz
x,y,z
1/2-x,1/2-y,z
1/2+x,-y,-z
-x,1/2+y,-z
-x,-y,-z
1/2+x,1/2+y,-z
1/2-x,y,z
x,1/2-y,z
loop_
_atom_site_type_symbol
_atom_site_label
_atom_site_fract_x
_atom_site_fract_y
_atom_site_fract_z
Si Si1 0.648237 0.590088 0.104902
Si Si2 0.354836 0.580225 0.791135
Si Si3 0.646875 0.408227 0.882161
Si Si4 0.145043 0.921063 0.492080
Si Si5 0.405975 0.576630 0.999115
Si Si6 0.993065 0.422398 0.298067
Si Si7 0.496831 0.421596 0.420253
Si Si8 0.647936 0.578928 0.779535
O O1 0.750000 0.616787 0.121150
O O2 0.601720 0.750000 0.096073
O O3 0.604893 0.504887 0.156159
O O4 0.648218 0.491880 0.050820
O O5 0.250000 0.550143 0.780646
O O6 0.373376 0.750000 0.802084
O O7 0.408196 0.523715 0.737738
O O8 0.750000 0.390176 0.867989
O O9 0.598696 0.250000 0.878444
O O10 0.607044 0.514523 0.836071
O O11 0.638541 0.469473 0.943501
O O12 0.250000 0.972285 0.497494
O O13 0.141941 0.750000 0.479901
O O14 0.088486 0.958981 0.546892
O O15 0.093452 0.003005 0.443260
O O16 0.410629 0.750000 0.991490
O O17 0.500000 0.500000 0.000000
O O18 0.991003 0.250000 0.301530
O O19 0.987535 0.484890 0.359360
O O20 0.086017 0.475727 0.270268
O O21 0.477895 0.250000 0.420898
O O22 0.750000 0.529170 0.766992
O O23 0.641790 0.750000 0.787151
#
# Coordination Sequence:
#
# PCOD8245137 Si02
#       8
#     8   8   8   8   8   8   8   8
#     4  10  21  37  55  75 101 133 171 215 264 321
#     4   9  18  33  53  76 102 135 174 216 264 318
#     4   9  19  36  54  71  94 125 163 207 255 311
#     4   9  18  33  53  78 111 147 180 219 268 315
#     4  11  23  36  52  76 103 130 166 213 267 325
#     4   9  18  32  52  78 105 135 174 219 261 306
#     4   9  18  33  53  79 109 142 184 225 264 313
#     4   9  18  32  50  72  99 131 167 208 256 308
#
# _framework density 19.162547
#
# number of rings (size 3 to 8) (size 9 to 14) (size 15 to 20)
#    0.000    2.625    0.000    1.125    1.750    3.500 
#    0.000    6.250    0.000    1.500    0.000    1.750 
#    0.000    0.000    0.000    0.000    0.000    0.000 
#
# Total GULP energy -793105.650515 kJ/mol
# GULP energy per Si atom -12392.275789 kJ/mol
# Density = 1.911893 g / cm^3
# Si number density = 19.162547 Si / 1000 Ang^3
#
#
#
# Elastic Constant Matrix: (Units=GPa)
#
#
# Indices 1 2 3 4 5 6 
#
# 1 94.9156 27.0593 47.9302 0.0000 0.0000 0.0000
# 2 27.0593 56.1906 43.4111 0.0000 0.0000 0.0000
# 3 47.9302 43.4111 169.7382 0.0000 0.0000 0.0000
# 4 0.0000 0.0000 0.0000 27.3395 0.0000 0.0000
# 5 0.0000 0.0000 0.0000 0.0000 36.1445 0.0000
# 6 0.0000 0.0000 0.0000 0.0000 0.0000 18.8377
#
#
#
# Elastic Compliance Matrix: (Units=1/GPa)
#
#
# Indices 1 2 3 4 5 6 
#
# 1 0.013068 -0.004290 -0.002593 0.000000 0.000000 0.000000
# 2 -0.004290 0.023587 -0.004821 0.000000 0.000000 0.000000
# 3 -0.002593 -0.004821 0.007857 0.000000 0.000000 0.000000
# 4 0.000000 0.000000 0.000000 0.036577 0.000000 0.000000
# 5 0.000000 0.000000 0.000000 0.000000 0.027667 0.000000
# 6 0.000000 0.000000 0.000000 0.000000 0.000000 0.053085
#
#
# Mechanical properties :
#
#
# Convention : Reuss Voigt Hill
#
# Bulk Modulus (GPa) = 47.38468 61.96064 54.67266
# Shear Modulus (GPa) = 26.00331 29.96058 27.98194
#
# Velocity S-wave (km/s) = 3.68773 3.95840 3.82546
# Velocity P-wave (km/s) = 6.55087 7.30043 6.93578
#
# Compressibility (1/GPa) = 0.02110387
#
# Stress axis : x y z
#
# Youngs Moduli (GPa) = 76.52250 42.39620 127.28093
#
# Poissons Ratio (x) = 0.18187 0.33004
# Poissons Ratio (y) = 0.32827 0.61363
# Poissons Ratio (z) = 0.19842 0.20440
#
# Static dielectric constant tensor:
#      x y z
#    x 3.501530 0.000000 0.000000 
#    y 0.000000 3.723640 0.000000 
#    z 0.000000 0.000000 3.120250 
# 
# 
# High freq. dielectric constant tensor:
#      x y z
#    x 1.746730 0.000000 0.000000 
#    y 0.000000 1.727730 0.000000 
#    z 0.000000 0.000000 1.745300 
# 
# From -- ./inp_files/32175.got.cif
#   From: 2010.03.12/outbox.cif.g09.slc.cpg/sg59_17_cif.got.tgz:32175.got - 2010.04.16 16:29:54.
