data_PCOD8245161
_publ_section_title
;
Structure prediction by ZEFSAII (Michael W. Deem and Ramdas Pophale) SiO2 
 PCOD8245161
Probable space group: P M M N
;
_chemical_formula_sum "Si O2"
_cell_formula_units_Z 64
_cell_length_a 8.905006
_cell_length_b 20.106976
_cell_length_c 19.854503
_cell_angle_alpha 90.000000
_cell_angle_beta 90.000000
_cell_angle_gamma 90.000000
_cell_volume 3555.003202
_symmetry_space_group_name_H-M "P M M N"
_symmetry_group_IT_number 59
_space_group.IT_coordinate_system_code '2'
_symmetry_cell_setting 'orthorhombic'
loop_
_space_group_symop_operation_xyz
x,y,z
1/2-x,1/2-y,z
1/2+x,-y,-z
-x,1/2+y,-z
-x,-y,-z
1/2+x,1/2+y,-z
1/2-x,y,z
x,1/2-y,z
loop_
_atom_site_type_symbol
_atom_site_label
_atom_site_fract_x
_atom_site_fract_y
_atom_site_fract_z
Si Si1 0.926947 0.577254 0.164674
Si Si2 0.424812 0.826722 0.058604
Si Si3 0.079652 0.897056 0.301278
Si Si4 0.926685 0.939275 0.816535
Si Si5 0.927356 0.435006 0.468645
Si Si6 0.080720 0.451730 0.333371
Si Si7 0.071313 0.676482 0.430932
Si Si8 0.576755 0.674468 0.919081
O O1 0.750000 0.571449 0.161847
O O2 0.980926 0.626573 0.107002
O O3 0.975418 0.607568 0.236163
O O4 0.994417 0.504054 0.152380
O O5 0.250000 0.843046 0.066346
O O6 0.459768 0.750000 0.076423
O O7 0.473672 0.842406 0.982543
O O8 0.250000 0.879811 0.279107
O O9 0.015957 0.846226 0.356944
O O10 0.074840 0.968817 0.335942
O O11 0.750000 0.954360 0.817224
O O12 0.978618 0.926724 0.739468
O O13 0.971241 0.874421 0.858887
O O14 0.750000 0.442618 0.473496
O O15 0.988099 0.372003 0.510731
O O16 0.000000 0.500000 0.500000
O O17 0.974249 0.422936 0.391357
O O18 0.250000 0.426525 0.346387
O O19 0.250000 0.675427 0.430666
O O20 0.007756 0.750000 0.445355
O O21 0.750000 0.663292 0.939450
O O22 0.550106 0.750000 0.894206
#
# Coordination Sequence:
#
# PCOD8245161 Si02
#       8
#     8   8   8   8   8   8   8   8
#     4  11  22  34  52  80 111 140 175 221 266 309
#     4  10  21  37  56  77 104 142 182 217 262 324
#     4   9  17  33  53  73 100 135 175 214 259 316
#     4   9  19  36  56  78 109 143 176 216 264 322
#     4  11  20  32  53  78 101 133 175 216 260 310
#     4   9  17  32  52  77 104 133 173 213 253 306
#     4   9  18  33  52  74 101 135 175 215 257 311
#     4   9  18  35  59  83 105 135 178 226 272 314
#
# _framework density 18.002796
#
# number of rings (size 3 to 8) (size 9 to 14) (size 15 to 20)
#    0.000    2.375    1.250    2.625    0.000    4.250 
#    0.000    1.875    0.000    3.750    0.000    0.000 
#    0.000    0.000    0.000    0.000    0.000    0.000 
#
# Total GULP energy -793628.725588 kJ/mol
# GULP energy per Si atom -12400.448837 kJ/mol
# Density = 1.796182 g / cm^3
# Si number density = 18.002796 Si / 1000 Ang^3
#
#
#
# Elastic Constant Matrix: (Units=GPa)
#
#
# Indices 1 2 3 4 5 6 
#
# 1 69.7943 41.4451 44.0322 0.0000 0.0000 0.0000
# 2 41.4451 121.6528 83.6087 0.0000 0.0000 0.0000
# 3 44.0322 83.6087 121.7284 0.0000 0.0000 0.0000
# 4 0.0000 0.0000 0.0000 34.2593 0.0000 0.0000
# 5 0.0000 0.0000 0.0000 0.0000 33.0627 0.0000
# 6 0.0000 0.0000 0.0000 0.0000 0.0000 18.1201
#
#
#
# Elastic Compliance Matrix: (Units=1/GPa)
#
#
# Indices 1 2 3 4 5 6 
#
# 1 0.019263 -0.003360 -0.004660 0.000000 0.000000 0.000000
# 2 -0.003360 0.016156 -0.009881 0.000000 0.000000 0.000000
# 3 -0.004660 -0.009881 0.016688 0.000000 0.000000 0.000000
# 4 0.000000 0.000000 0.000000 0.029189 0.000000 0.000000
# 5 0.000000 0.000000 0.000000 0.000000 0.030246 0.000000
# 6 0.000000 0.000000 0.000000 0.000000 0.000000 0.055187
#
#
# Mechanical properties :
#
#
# Convention : Reuss Voigt Hill
#
# Bulk Modulus (GPa) = 61.33492 72.37195 66.85344
# Shear Modulus (GPa) = 24.04242 26.69438 25.36840
#
# Velocity S-wave (km/s) = 3.65839 3.85488 3.75792
# Velocity P-wave (km/s) = 7.21032 7.75249 7.48632
#
# Compressibility (1/GPa) = 0.01630393
#
# Stress axis : x y z
#
# Youngs Moduli (GPa) = 51.91308 61.89705 59.92435
#
# Poissons Ratio (x) = 0.20795 0.27927
# Poissons Ratio (y) = 0.17441 0.59213
# Poissons Ratio (z) = 0.24193 0.61162
#
# Static dielectric constant tensor:
#      x y z
#    x 3.195210 0.000000 0.000000 
#    y 0.000000 3.360300 0.000000 
#    z 0.000000 0.000000 3.458210 
# 
# 
# High freq. dielectric constant tensor:
#      x y z
#    x 1.683240 0.000000 0.000000 
#    y 0.000000 1.687080 0.000000 
#    z 0.000000 0.000000 1.703860 
# 
# From -- ./inp_files/29500.got.cif
#   From: 2010.03.12/outbox.cif.g09.slc.cpg/sg59_15_cif.got.tgz:29500.got - 2010.04.16 16:29:54.
