data_PCOD8245920
_publ_section_title
;
Structure prediction by ZEFSAII (Michael W. Deem and Ramdas Pophale) SiO2 
 PCOD8245920
Probable space group: P M M N
;
_chemical_formula_sum "Si O2"
_cell_formula_units_Z 40
_cell_length_a 17.994910
_cell_length_b 17.673482
_cell_length_c 5.465750
_cell_angle_alpha 90.000000
_cell_angle_beta 90.000000
_cell_angle_gamma 90.000000
_cell_volume 1738.287328
_symmetry_space_group_name_H-M "P M M N"
_symmetry_group_IT_number 59
_space_group.IT_coordinate_system_code '2'
_symmetry_cell_setting 'orthorhombic'
loop_
_space_group_symop_operation_xyz
x,y,z
1/2-x,1/2-y,z
1/2+x,-y,-z
-x,1/2+y,-z
-x,-y,-z
1/2+x,1/2+y,-z
1/2-x,y,z
x,1/2-y,z
loop_
_atom_site_type_symbol
_atom_site_label
_atom_site_fract_x
_atom_site_fract_y
_atom_site_fract_z
Si Si1 0.663768 0.164590 0.341141
Si Si2 0.060779 0.947364 0.367954
Si Si3 0.399158 0.401034 0.221221
Si Si4 0.532580 0.166031 0.018257
Si Si5 0.837164 0.664983 0.283792
O O1 0.750000 0.145338 0.295961
O O2 0.655337 0.250000 0.458166
O O3 0.625494 0.097679 0.491763
O O4 0.620244 0.165349 0.082282
O O5 0.014689 0.886289 0.213531
O O6 0.103423 0.007820 0.195184
O O7 0.000000 0.000000 0.500000
O O8 0.357662 0.380278 0.471165
O O9 0.484103 0.367978 0.244568
O O10 0.366727 0.368436 0.970691
O O11 0.505129 0.250000 0.955157
O O12 0.750000 0.663361 0.258725
O O13 0.867358 0.750000 0.312639
#
# Coordination Sequence:
#
# PCOD8245920 Si02
#       5
#     8   8   8   8   8
#     4  10  24  46  71 101 141 191 247 304 367 444
#     4  12  25  44  69 104 145 185 236 308 377 443
#     4  12  25  42  73 108 143 188 243 304 371 442
#     4  11  24  44  72 102 137 187 244 302 366 443
#     4  11  25  46  69 101 146 193 244 299 362 442
#
# _framework density 23.011156
#
# number of rings (size 3 to 8) (size 9 to 14) (size 15 to 20)
#    0.000    0.800    2.000    4.800    2.800    4.000 
#    0.000    2.000    0.000    0.000    0.000    0.000 
#    0.000    0.000    0.000    0.000    0.000    0.000 
#
# Total GULP energy -495643.640377 kJ/mol
# GULP energy per Si atom -12391.091009 kJ/mol
# Density = 2.295878 g / cm^3
# Si number density = 23.011156 Si / 1000 Ang^3
#
#
#
# Elastic Constant Matrix: (Units=GPa)
#
#
# Indices 1 2 3 4 5 6 
#
# 1 125.5505 44.6259 33.2482 0.0000 0.0000 0.0000
# 2 44.6259 190.9552 55.3157 0.0000 0.0000 0.0000
# 3 33.2482 55.3157 111.2842 0.0000 0.0000 0.0000
# 4 0.0000 0.0000 0.0000 39.8568 0.0000 0.0000
# 5 0.0000 0.0000 0.0000 0.0000 25.8462 0.0000
# 6 0.0000 0.0000 0.0000 0.0000 0.0000 27.9629
#
#
#
# Elastic Compliance Matrix: (Units=1/GPa)
#
#
# Indices 1 2 3 4 5 6 
#
# 1 0.009026 -0.001552 -0.001926 0.000000 0.000000 0.000000
# 2 -0.001552 0.006384 -0.002710 0.000000 0.000000 0.000000
# 3 -0.001926 -0.002710 0.010908 0.000000 0.000000 0.000000
# 4 0.000000 0.000000 0.000000 0.025090 0.000000 0.000000
# 5 0.000000 0.000000 0.000000 0.000000 0.038690 0.000000
# 6 0.000000 0.000000 0.000000 0.000000 0.000000 0.035762
#
#
# Mechanical properties :
#
#
# Convention : Reuss Voigt Hill
#
# Bulk Modulus (GPa) = 71.71063 77.12994 74.42029
# Shear Modulus (GPa) = 34.99354 38.37318 36.68336
#
# Velocity S-wave (km/s) = 3.90387 4.08804 3.99702
# Velocity P-wave (km/s) = 7.17993 7.47490 7.32890
#
# Compressibility (1/GPa) = 0.01394493
#
# Stress axis : x y z
#
# Youngs Moduli (GPa) = 110.78658 156.63035 91.67335
#
# Poissons Ratio (x) = 0.24304 0.17652
# Poissons Ratio (y) = 0.17190 0.24843
# Poissons Ratio (z) = 0.21332 0.42446
#
# Static dielectric constant tensor:
#      x y z
#    x 4.333840 0.000000 0.000000 
#    y 0.000000 4.800860 0.000000 
#    z 0.000000 0.000000 3.964660 
# 
# 
# High freq. dielectric constant tensor:
#      x y z
#    x 1.917000 0.000000 0.000000 
#    y 0.000000 1.936040 0.000000 
#    z 0.000000 0.000000 1.898990 
# 
# From -- ./inp_files/2623.got.cif
#   From: 2010.03.12/outbox.cif.g09.slc.cpg/sg59_2_cif.got.tgz:2623.got - 2010.04.16 16:29:54.
