data_PCOD8245907
_publ_section_title
;
Structure prediction by ZEFSAII (Michael W. Deem and Ramdas Pophale) SiO2 
 PCOD8245907
Probable space group: P M M N
;
_chemical_formula_sum "Si O2"
_cell_formula_units_Z 64
_cell_length_a 28.354621
_cell_length_b 8.803988
_cell_length_c 12.513155
_cell_angle_alpha 90.000000
_cell_angle_beta 90.000000
_cell_angle_gamma 90.000000
_cell_volume 3123.705720
_symmetry_space_group_name_H-M "P M M N"
_symmetry_group_IT_number 59
_space_group.IT_coordinate_system_code '2'
_symmetry_cell_setting 'orthorhombic'
loop_
_space_group_symop_operation_xyz
x,y,z
1/2-x,1/2-y,z
1/2+x,-y,-z
-x,1/2+y,-z
-x,-y,-z
1/2+x,1/2+y,-z
1/2-x,y,z
x,1/2-y,z
loop_
_atom_site_type_symbol
_atom_site_label
_atom_site_fract_x
_atom_site_fract_y
_atom_site_fract_z
Si Si1 0.303108 0.575681 0.993522
Si Si2 0.434388 0.572844 0.752058
Si Si3 0.658173 0.928387 0.208703
Si Si4 0.879374 0.071204 0.832885
Si Si5 0.805568 0.074819 0.425657
Si Si6 0.047986 0.076111 0.533734
Si Si7 0.363861 0.076374 0.389906
Si Si8 0.978469 0.927763 0.894750
O O1 0.250000 0.555975 0.037705
O O2 0.313120 0.750000 0.961609
O O3 0.339152 0.520421 0.084074
O O4 0.308036 0.472917 0.888482
O O5 0.423184 0.750000 0.757703
O O6 0.394650 0.485175 0.820575
O O7 0.429852 0.515826 0.631293
O O8 0.486087 0.536203 0.797400
O O9 0.658879 0.750000 0.227010
O O10 0.675005 0.007132 0.316473
O O11 0.887128 0.250000 0.833000
O O12 0.861457 0.019978 0.717640
O O13 0.928084 0.994562 0.865931
O O14 0.750000 0.053222 0.428690
O O15 0.820572 0.250000 0.432163
O O16 0.826399 0.987431 0.526681
O O17 0.039281 0.250000 0.567975
O O18 0.083268 0.065138 0.434768
O O19 0.000000 0.000000 0.500000
O O20 0.350842 0.250000 0.364381
O O21 0.972902 0.750000 0.913802
O O22 0.000000 0.000000 0.000000
#
# Coordination Sequence:
#
# PCOD8245907 Si02
#       8
#     8   8   8   8   8   8   8   8
#     4  10  23  44  67  91 122 163 212 264 318 382
#     4  11  23  39  61  88 123 166 212 259 312 377
#     4  12  24  39  63  97 131 163 206 264 327 387
#     4  11  24  42  66  94 127 170 217 266 321 384
#     4  11  24  42  66  94 126 169 217 263 318 384
#     4  11  23  38  59  89 123 163 209 257 313 374
#     4  11  24  42  63  92 129 167 212 264 319 379
#     4  11  24  41  62  92 127 168 216 266 322 384
#
# _framework density 20.488486000000002
#
# number of rings (size 3 to 8) (size 9 to 14) (size 15 to 20)
#    0.000    1.000    1.250    5.250    0.000   13.750 
#    0.000    1.250    0.000    0.000    0.000    0.000 
#    0.000    0.000    0.000    0.000    0.000    0.000 
#
# Total GULP energy -794012.773586 kJ/mol
# GULP energy per Si atom -12406.449587 kJ/mol
# Density = 2.044185 g / cm^3
# Si number density = 20.488486 Si / 1000 Ang^3
#
#
#
# Elastic Constant Matrix: (Units=GPa)
#
#
# Indices 1 2 3 4 5 6 
#
# 1 115.4719 38.0022 35.7880 0.0000 0.0000 0.0000
# 2 38.0022 60.0724 14.3539 0.0000 0.0000 0.0000
# 3 35.7880 14.3539 107.0312 0.0000 0.0000 0.0000
# 4 0.0000 0.0000 0.0000 35.8560 0.0000 0.0000
# 5 0.0000 0.0000 0.0000 0.0000 31.0399 0.0000
# 6 0.0000 0.0000 0.0000 0.0000 0.0000 35.1170
#
#
#
# Elastic Compliance Matrix: (Units=1/GPa)
#
#
# Indices 1 2 3 4 5 6 
#
# 1 0.011828 -0.006754 -0.003049 0.000000 0.000000 0.000000
# 2 -0.006754 0.021054 -0.000565 0.000000 0.000000 0.000000
# 3 -0.003049 -0.000565 0.010438 0.000000 0.000000 0.000000
# 4 0.000000 0.000000 0.000000 0.027889 0.000000 0.000000
# 5 0.000000 0.000000 0.000000 0.000000 0.032217 0.000000
# 6 0.000000 0.000000 0.000000 0.000000 0.000000 0.028476
#
#
# Mechanical properties :
#
#
# Convention : Reuss Voigt Hill
#
# Bulk Modulus (GPa) = 44.27922 50.98485 47.63203
# Shear Modulus (GPa) = 31.21744 33.36468 32.29106
#
# Velocity S-wave (km/s) = 3.90764 4.03980 3.97427
# Velocity P-wave (km/s) = 6.48215 6.83364 6.66021
#
# Compressibility (1/GPa) = 0.02258396
#
# Stress axis : x y z
#
# Youngs Moduli (GPa) = 84.54649 47.49664 95.79999
#
# Poissons Ratio (x) = 0.32078 0.29210
# Poissons Ratio (y) = 0.57101 0.05416
# Poissons Ratio (z) = 0.25779 0.02685
#
# Static dielectric constant tensor:
#      x y z
#    x 3.902460 0.000000 0.000000 
#    y 0.000000 3.891550 0.000000 
#    z 0.000000 0.000000 5.313070 
# 
# 
# High freq. dielectric constant tensor:
#      x y z
#    x 1.815910 0.000000 0.000000 
#    y 0.000000 1.813520 0.000000 
#    z 0.000000 0.000000 1.805290 
# 
# From -- ./inp_files/19203.got.cif
#   From: 2010.03.12/outbox.cif.g09.slc.cpg/sg59_10_cif.got.tgz:19203.got - 2010.04.16 16:29:54.
