data_PCOD8245997
_publ_section_title
;
Structure prediction by ZEFSAII (Michael W. Deem and Ramdas Pophale) SiO2 
 PCOD8245997
Probable space group: P M M N
;
_chemical_formula_sum "Si O2"
_cell_formula_units_Z 48
_cell_length_a 15.111515
_cell_length_b 14.271993
_cell_length_c 11.744487
_cell_angle_alpha 90.000000
_cell_angle_beta 90.000000
_cell_angle_gamma 90.000000
_cell_volume 2532.950380
_symmetry_space_group_name_H-M "P M M N"
_symmetry_group_IT_number 59
_space_group.IT_coordinate_system_code '2'
_symmetry_cell_setting 'orthorhombic'
loop_
_space_group_symop_operation_xyz
x,y,z
1/2-x,1/2-y,z
1/2+x,-y,-z
-x,1/2+y,-z
-x,-y,-z
1/2+x,1/2+y,-z
1/2-x,y,z
x,1/2-y,z
loop_
_atom_site_type_symbol
_atom_site_label
_atom_site_fract_x
_atom_site_fract_y
_atom_site_fract_z
Si Si1 0.988911 0.359616 0.842170
Si Si2 0.575661 0.437630 0.445826
Si Si3 0.058514 0.643682 0.900962
Si Si4 0.350345 0.017286 0.777048
Si Si5 0.064041 0.147245 0.301840
Si Si6 0.650200 0.453823 0.675604
O O1 0.989082 0.250000 0.816980
O O2 0.916117 0.408467 0.764272
O O3 0.085718 0.398867 0.814717
O O4 0.965477 0.384185 0.971146
O O5 0.500000 0.500000 0.500000
O O6 0.634119 0.495286 0.355790
O O7 0.524527 0.353915 0.381087
O O8 0.637582 0.405623 0.551022
O O9 0.094700 0.750000 0.893781
O O10 0.133859 0.574691 0.854216
O O11 0.968599 0.631918 0.827769
O O12 0.250000 0.051028 0.794578
O O13 0.108589 0.250000 0.316024
O O14 0.133324 0.066010 0.333404
O O15 0.750000 0.435976 0.716878
#
# Coordination Sequence:
#
# PCOD8245997 Si02
#       6
#     8   8   8   8   8   8
#     4  11  23  40  58  81 120 157 191 234 284 342
#     4   9  17  37  57  81 115 151 185 232 283 338
#     4   9  19  38  61  83 113 150 187 232 286 339
#     4  11  21  36  62  89 115 149 193 241 290 337
#     4   9  18  35  61  85 109 146 189 236 287 335
#     4  11  22  37  58  84 117 152 190 233 285 343
#
# _framework density 18.950233000000001
#
# number of rings (size 3 to 8) (size 9 to 14) (size 15 to 20)
#    0.000    2.000    5.000    1.000    0.000    2.667 
#    0.000    1.667    0.000    8.000    0.000    0.000 
#    0.000    0.000    0.000    0.000    0.000    0.000 
#
# Total GULP energy -595007.807234 kJ/mol
# GULP energy per Si atom -12395.995984 kJ/mol
# Density = 1.890710 g / cm^3
# Si number density = 18.950233 Si / 1000 Ang^3
#
#
#
# Elastic Constant Matrix: (Units=GPa)
#
#
# Indices 1 2 3 4 5 6 
#
# 1 132.5269 42.5317 39.8379 0.0000 0.0000 0.0000
# 2 42.5317 85.0037 37.2822 0.0000 0.0000 0.0000
# 3 39.8379 37.2822 128.2675 0.0000 0.0000 0.0000
# 4 0.0000 0.0000 0.0000 15.5478 0.0000 0.0000
# 5 0.0000 0.0000 0.0000 0.0000 10.7267 0.0000
# 6 0.0000 0.0000 0.0000 0.0000 0.0000 10.6722
#
#
#
# Elastic Compliance Matrix: (Units=1/GPa)
#
#
# Indices 1 2 3 4 5 6 
#
# 1 0.009325 -0.003892 -0.001765 0.000000 0.000000 0.000000
# 2 -0.003892 0.015107 -0.003182 0.000000 0.000000 0.000000
# 3 -0.001765 -0.003182 0.009269 0.000000 0.000000 0.000000
# 4 0.000000 0.000000 0.000000 0.064318 0.000000 0.000000
# 5 0.000000 0.000000 0.000000 0.000000 0.093225 0.000000
# 6 0.000000 0.000000 0.000000 0.000000 0.000000 0.093702
#
#
# Mechanical properties :
#
#
# Convention : Reuss Voigt Hill
#
# Bulk Modulus (GPa) = 62.40845 65.01128 63.70987
# Shear Modulus (GPa) = 16.23560 22.46578 19.35069
#
# Velocity S-wave (km/s) = 2.93020 3.44687 3.19898
# Velocity P-wave (km/s) = 6.66727 7.08675 6.88020
#
# Compressibility (1/GPa) = 0.01602347
#
# Stress axis : x y z
#
# Youngs Moduli (GPa) = 107.23641 66.19372 107.88190
#
# Poissons Ratio (x) = 0.25761 0.19042
# Poissons Ratio (y) = 0.41733 0.34332
# Poissons Ratio (z) = 0.18928 0.21065
#
# Static dielectric constant tensor:
#      x y z
#    x 3.303050 0.000000 0.000000 
#    y 0.000000 3.538680 0.000000 
#    z 0.000000 0.000000 3.989770 
# 
# 
# High freq. dielectric constant tensor:
#      x y z
#    x 1.712040 0.000000 0.000000 
#    y 0.000000 1.728480 0.000000 
#    z 0.000000 0.000000 1.754460 
# 
# From -- ./inp_files/16807.got.cif
#   From: 2010.03.12/outbox.cif.g09.slc.cpg/sg59_9_cif.got.tgz:16807.got - 2010.04.16 16:29:54.
