data_PCOD8245091
_publ_section_title
;
Structure prediction by ZEFSAII (Michael W. Deem and Ramdas Pophale) SiO2 
 PCOD8245091
Probable space group: P M M N
;
_chemical_formula_sum "Si O2"
_cell_formula_units_Z 64
_cell_length_a 8.881349
_cell_length_b 25.243541
_cell_length_c 14.318653
_cell_angle_alpha 90.000000
_cell_angle_beta 90.000000
_cell_angle_gamma 90.000000
_cell_volume 3210.194717
_symmetry_space_group_name_H-M "P M M N"
_symmetry_group_IT_number 59
_space_group.IT_coordinate_system_code '2'
_symmetry_cell_setting 'orthorhombic'
loop_
_space_group_symop_operation_xyz
x,y,z
1/2-x,1/2-y,z
1/2+x,-y,-z
-x,1/2+y,-z
-x,-y,-z
1/2+x,1/2+y,-z
1/2-x,y,z
x,1/2-y,z
loop_
_atom_site_type_symbol
_atom_site_label
_atom_site_fract_x
_atom_site_fract_y
_atom_site_fract_z
Si Si1 0.074469 0.188448 0.212610
Si Si2 0.428626 0.005390 0.217115
Si Si3 0.573146 0.401021 0.102000
Si Si4 0.424454 0.689048 0.594973
Si Si5 0.927461 0.690041 0.228705
Si Si6 0.577360 0.982058 0.405808
Si Si7 0.426217 0.900161 0.113507
Si Si8 0.922159 0.858797 0.420622
O O1 0.250000 0.175141 0.204172
O O2 0.040432 0.250000 0.194673
O O3 0.981834 0.156535 0.135207
O O4 0.019519 0.171308 0.315233
O O5 0.250000 0.006913 0.223064
O O6 0.483995 0.054484 0.157284
O O7 0.495697 0.010962 0.320320
O O8 0.487026 0.951254 0.169323
O O9 0.750000 0.407223 0.119777
O O10 0.530835 0.407538 0.994052
O O11 0.250000 0.679159 0.616981
O O12 0.457352 0.750000 0.569714
O O13 0.473461 0.653131 0.508630
O O14 0.750000 0.682790 0.223266
O O15 0.977838 0.750000 0.207723
O O16 0.982454 0.674653 0.332563
O O17 0.998552 0.653114 0.150438
O O18 0.750000 0.000280 0.407523
O O19 0.561585 0.919576 0.392759
O O20 0.500000 0.000000 0.500000
O O21 0.250000 0.893848 0.127945
O O22 0.750000 0.843902 0.445455
#
# Coordination Sequence:
#
# PCOD8245091 Si02
#       8
#     8   8   8   8   8   8   8   8
#     4  10  22  41  63  88 121 160 202 250 302 358
#     4  11  23  42  66  92 123 159 202 252 303 365
#     4  11  24  41  64  92 121 158 202 250 305 366
#     4  10  21  36  57  86 118 155 198 243 294 353
#     4  10  21  38  62  91 123 162 207 254 304 362
#     4  11  24  41  62  90 124 164 202 247 303 361
#     4  10  23  42  63  90 123 159 200 251 309 361
#     4  10  21  38  60  85 119 161 204 247 298 360
#
# _framework density 19.936485000000001
#
# number of rings (size 3 to 8) (size 9 to 14) (size 15 to 20)
#    0.000    1.625    1.250    2.625    1.750    5.750 
#    0.000    2.500    0.000    0.000    0.000    0.000 
#    0.000    0.000    0.000    0.000    0.000    0.000 
#
# Total GULP energy -794015.669891 kJ/mol
# GULP energy per Si atom -12406.494842 kJ/mol
# Density = 1.989111 g / cm^3
# Si number density = 19.936485 Si / 1000 Ang^3
#
#
#
# Elastic Constant Matrix: (Units=GPa)
#
#
# Indices 1 2 3 4 5 6 
#
# 1 76.3184 36.8155 57.0929 0.0000 0.0000 0.0000
# 2 36.8155 95.2731 56.2954 0.0000 0.0000 0.0000
# 3 57.0929 56.2954 137.3386 0.0000 0.0000 0.0000
# 4 0.0000 0.0000 0.0000 35.9192 0.0000 0.0000
# 5 0.0000 0.0000 0.0000 0.0000 37.2697 0.0000
# 6 0.0000 0.0000 0.0000 0.0000 0.0000 35.0656
#
#
#
# Elastic Compliance Matrix: (Units=1/GPa)
#
#
# Indices 1 2 3 4 5 6 
#
# 1 0.019963 -0.003709 -0.006779 0.000000 0.000000 0.000000
# 2 -0.003709 0.014540 -0.004418 0.000000 0.000000 0.000000
# 3 -0.006779 -0.004418 0.011910 0.000000 0.000000 0.000000
# 4 0.000000 0.000000 0.000000 0.027840 0.000000 0.000000
# 5 0.000000 0.000000 0.000000 0.000000 0.026831 0.000000
# 6 0.000000 0.000000 0.000000 0.000000 0.000000 0.028518
#
#
# Mechanical properties :
#
#
# Convention : Reuss Voigt Hill
#
# Bulk Modulus (GPa) = 60.23326 67.70418 63.96872
# Shear Modulus (GPa) = 30.31259 32.23266 31.27262
#
# Velocity S-wave (km/s) = 3.90354 4.02527 3.96487
# Velocity P-wave (km/s) = 7.11301 7.45905 7.28808
#
# Compressibility (1/GPa) = 0.01660212
#
# Stress axis : x y z
#
# Youngs Moduli (GPa) = 50.09252 68.77618 83.96156
#
# Poissons Ratio (x) = 0.25507 0.56914
# Poissons Ratio (y) = 0.18578 0.37096
# Poissons Ratio (z) = 0.33956 0.30387
#
# Static dielectric constant tensor:
#      x y z
#    x 3.712090 0.000000 0.000000 
#    y 0.000000 3.747940 0.000000 
#    z 0.000000 0.000000 3.596000 
# 
# 
# High freq. dielectric constant tensor:
#      x y z
#    x 1.780990 0.000000 0.000000 
#    y 0.000000 1.785230 0.000000 
#    z 0.000000 0.000000 1.785680 
# 
# From -- ./inp_files/21473.got.cif
#   From: 2010.03.12/outbox.cif.g09.slc.cpg/sg59_11_cif.got.tgz:21473.got - 2010.04.16 16:29:54.
