data_PCOD8245745
_publ_section_title
;
Structure prediction by ZEFSAII (Michael W. Deem and Ramdas Pophale) SiO2 
 PCOD8245745
Probable space group: P M M N
;
_chemical_formula_sum "Si O2"
_cell_formula_units_Z 64
_cell_length_a 14.867310
_cell_length_b 23.261854
_cell_length_c 9.311363
_cell_angle_alpha 90.000000
_cell_angle_beta 90.000000
_cell_angle_gamma 90.000000
_cell_volume 3220.252903
_symmetry_space_group_name_H-M "P M M N"
_symmetry_group_IT_number 59
_space_group.IT_coordinate_system_code '2'
_symmetry_cell_setting 'orthorhombic'
loop_
_space_group_symop_operation_xyz
x,y,z
1/2-x,1/2-y,z
1/2+x,-y,-z
-x,1/2+y,-z
-x,-y,-z
1/2+x,1/2+y,-z
1/2-x,y,z
x,1/2-y,z
loop_
_atom_site_type_symbol
_atom_site_label
_atom_site_fract_x
_atom_site_fract_y
_atom_site_fract_z
Si Si1 0.346556 0.313821 0.603604
Si Si2 0.650624 0.403051 0.578297
Si Si3 0.009843 0.376766 0.784819
Si Si4 0.351796 0.138812 0.314933
Si Si5 0.644079 0.390533 0.250928
Si Si6 0.463467 0.997024 0.842937
Si Si7 0.416400 0.021167 0.402775
Si Si8 0.999664 0.819197 0.904153
O O1 0.250000 0.343996 0.638919
O O2 0.343248 0.250000 0.663808
O O3 0.429413 0.341741 0.679806
O O4 0.359525 0.310325 0.430646
O O5 0.750000 0.377379 0.605695
O O6 0.586711 0.381156 0.705850
O O7 0.616142 0.385983 0.418820
O O8 0.659291 0.472498 0.581324
O O9 0.060090 0.438244 0.795270
O O10 0.999370 0.344967 0.936053
O O11 0.250000 0.131393 0.254372
O O12 0.376753 0.084721 0.421910
O O13 0.415951 0.152610 0.180682
O O14 0.750000 0.381667 0.229416
O O15 0.618954 0.452993 0.183067
O O16 0.592081 0.339072 0.171125
O O17 0.549697 0.973850 0.759540
O O18 0.500000 0.000000 0.000000
O O19 0.500000 0.000000 0.500000
O O20 0.993697 0.750000 0.907766
#
# Coordination Sequence:
#
# PCOD8245745 Si02
#       8
#     8   8   8   8   8   8   8   8
#     4  10  22  39  59  88 123 160 206 256 305 363
#     4  10  22  38  62  95 129 163 203 258 320 382
#     4  11  23  39  66  91 123 163 207 259 322 384
#     4  11  22  38  63  94 127 168 216 262 314 377
#     4  11  23  42  66  95 129 168 215 265 321 389
#     4  11  20  38  60  90 126 159 196 250 317 377
#     4  11  18  34  60  91 129 164 203 249 311 379
#     4  12  25  44  65  88 125 172 219 270 322 380
#
# _framework density 19.874216000000001
#
# number of rings (size 3 to 8) (size 9 to 14) (size 15 to 20)
#    0.000    1.125    3.750    3.375    0.000    2.500 
#    0.000    2.500    0.000    2.625    0.000    0.000 
#    0.000    0.000    0.000    0.000    0.000    0.000 
#
# Total GULP energy -792966.314498 kJ/mol
# GULP energy per Si atom -12390.098664 kJ/mol
# Density = 1.982898 g / cm^3
# Si number density = 19.874216 Si / 1000 Ang^3
#
#
#
# Elastic Constant Matrix: (Units=GPa)
#
#
# Indices 1 2 3 4 5 6 
#
# 1 120.0609 43.8627 62.0014 0.0000 0.0000 0.0000
# 2 43.8627 109.9518 37.3937 0.0000 0.0000 0.0000
# 3 62.0014 37.3937 121.0453 0.0000 0.0000 0.0000
# 4 0.0000 0.0000 0.0000 24.5008 0.0000 0.0000
# 5 0.0000 0.0000 0.0000 0.0000 18.0132 0.0000
# 6 0.0000 0.0000 0.0000 0.0000 0.0000 20.1709
#
#
#
# Elastic Compliance Matrix: (Units=1/GPa)
#
#
# Indices 1 2 3 4 5 6 
#
# 1 0.012181 -0.003059 -0.005294 0.000000 0.000000 0.000000
# 2 -0.003059 0.010931 -0.001810 0.000000 0.000000 0.000000
# 3 -0.005294 -0.001810 0.011532 0.000000 0.000000 0.000000
# 4 0.000000 0.000000 0.000000 0.040815 0.000000 0.000000
# 5 0.000000 0.000000 0.000000 0.000000 0.055515 0.000000
# 6 0.000000 0.000000 0.000000 0.000000 0.000000 0.049576
#
#
# Mechanical properties :
#
#
# Convention : Reuss Voigt Hill
#
# Bulk Modulus (GPa) = 69.84337 70.84152 70.34244
# Shear Modulus (GPa) = 24.31337 26.39032 25.35185
#
# Velocity S-wave (km/s) = 3.50145 3.64794 3.57545
# Velocity P-wave (km/s) = 7.18094 7.31202 7.24678
#
# Compressibility (1/GPa) = 0.01431775
#
# Stress axis : x y z
#
# Youngs Moduli (GPa) = 82.09812 91.48594 86.71294
#
# Poissons Ratio (x) = 0.27982 0.45908
# Poissons Ratio (y) = 0.25111 0.15695
# Poissons Ratio (z) = 0.43464 0.16559
#
# Static dielectric constant tensor:
#      x y z
#    x 3.423140 0.000000 0.000000 
#    y 0.000000 3.717310 0.000000 
#    z 0.000000 0.000000 3.710820 
# 
# 
# High freq. dielectric constant tensor:
#      x y z
#    x 1.772610 0.000000 0.000000 
#    y 0.000000 1.774100 0.000000 
#    z 0.000000 0.000000 1.782120 
# 
# From -- ./inp_files/9600.got.cif
#   From: 2010.03.12/outbox.cif.g09.slc.cpg/sg59_5_cif.got.tgz:9600.got - 2010.04.16 16:29:54.
