data_PCOD8245022
_publ_section_title
;
Structure prediction by ZEFSAII (Michael W. Deem and Ramdas Pophale) SiO2 
 PCOD8245022
Probable space group: P M M N
;
_chemical_formula_sum "Si O2"
_cell_formula_units_Z 48
_cell_length_a 9.181471
_cell_length_b 8.967478
_cell_length_c 30.619005
_cell_angle_alpha 90.000000
_cell_angle_beta 90.000000
_cell_angle_gamma 90.000000
_cell_volume 2521.004729
_symmetry_space_group_name_H-M "P M M N"
_symmetry_group_IT_number 59
_space_group.IT_coordinate_system_code '2'
_symmetry_cell_setting 'orthorhombic'
loop_
_space_group_symop_operation_xyz
x,y,z
1/2-x,1/2-y,z
1/2+x,-y,-z
-x,1/2+y,-z
-x,-y,-z
1/2+x,1/2+y,-z
1/2-x,y,z
x,1/2-y,z
loop_
_atom_site_type_symbol
_atom_site_label
_atom_site_fract_x
_atom_site_fract_y
_atom_site_fract_z
Si Si1 0.420678 0.422069 0.460387
Si Si2 0.417133 0.575488 0.371784
Si Si3 0.919285 0.074883 0.040085
Si Si4 0.578877 0.078652 0.294293
Si Si5 0.417682 0.078844 0.207301
Si Si6 0.581223 0.423920 0.881746
O O1 0.500000 0.500000 0.500000
O O2 0.250000 0.447000 0.466631
O O3 0.464477 0.250000 0.459577
O O4 0.474337 0.494081 0.415183
O O5 0.250000 0.532100 0.362119
O O6 0.436264 0.750000 0.379197
O O7 0.514371 0.524934 0.331579
O O8 0.750000 0.034205 0.037301
O O9 0.946037 0.250000 0.037651
O O10 0.982037 0.014521 0.085182
O O11 0.000000 0.000000 0.000000
O O12 0.750000 0.055172 0.292571
O O13 0.536099 0.250000 0.303791
O O14 0.514066 0.026820 0.248065
O O15 0.250000 0.056195 0.220413
O O16 0.449765 0.250000 0.194532
O O17 0.461178 0.975341 0.166774
O O18 0.750000 0.459726 0.891583
O O19 0.547986 0.250000 0.886726
#
# Coordination Sequence:
#
# PCOD8245022 Si02
#       6
#     8   8   8   8   8   8
#     4  10  21  37  58  83 110 142 180 222 270 324
#     4  10  21  37  57  80 107 142 184 227 271 322
#     4  11  24  40  59  84 113 146 185 228 274 325
#     4  10  21  36  55  81 112 145 182 226 275 325
#     4   9  18  34  56  80 109 148 189 227 270 322
#     4  10  21  37  58  85 115 146 183 226 272 325
#
# _framework density 19.040026999999998
#
# number of rings (size 3 to 8) (size 9 to 14) (size 15 to 20)
#    0.000    2.000    0.000    3.000    0.000    9.333 
#    0.000    3.333    0.000    0.000    0.000    0.000 
#    0.000    0.000    0.000    0.000    0.000    0.000 
#
# Total GULP energy -595463.558181 kJ/mol
# GULP energy per Si atom -12405.490795 kJ/mol
# Density = 1.899669 g / cm^3
# Si number density = 19.040027 Si / 1000 Ang^3
#
#
#
# Elastic Constant Matrix: (Units=GPa)
#
#
# Indices 1 2 3 4 5 6 
#
# 1 90.5676 62.5040 78.3846 0.0000 0.0000 0.0000
# 2 62.5040 94.6142 69.1007 0.0000 0.0000 0.0000
# 3 78.3846 69.1007 147.8451 0.0000 0.0000 0.0000
# 4 0.0000 0.0000 0.0000 42.1701 0.0000 0.0000
# 5 0.0000 0.0000 0.0000 0.0000 39.4161 0.0000
# 6 0.0000 0.0000 0.0000 0.0000 0.0000 29.9153
#
#
#
# Elastic Compliance Matrix: (Units=1/GPa)
#
#
# Indices 1 2 3 4 5 6 
#
# 1 0.026129 -0.010846 -0.008784 0.000000 0.000000 0.000000
# 2 -0.010846 0.020549 -0.003854 0.000000 0.000000 0.000000
# 3 -0.008784 -0.003854 0.013222 0.000000 0.000000 0.000000
# 4 0.000000 0.000000 0.000000 0.023713 0.000000 0.000000
# 5 0.000000 0.000000 0.000000 0.000000 0.025370 0.000000
# 6 0.000000 0.000000 0.000000 0.000000 0.000000 0.033428
#
#
# Mechanical properties :
#
#
# Convention : Reuss Voigt Hill
#
# Bulk Modulus (GPa) = 77.32463 83.66727 80.49595
# Shear Modulus (GPa) = 25.81441 30.50280 28.15861
#
# Velocity S-wave (km/s) = 3.68611 4.00689 3.84984
# Velocity P-wave (km/s) = 7.66918 8.08981 7.88230
#
# Compressibility (1/GPa) = 0.01293249
#
# Stress axis : x y z
#
# Youngs Moduli (GPa) = 38.27167 48.66384 75.63115
#
# Poissons Ratio (x) = 0.52782 0.66432
# Poissons Ratio (y) = 0.41510 0.29148
# Poissons Ratio (z) = 0.33617 0.18755
#
# Static dielectric constant tensor:
#      x y z
#    x 3.509850 0.000000 0.000000 
#    y 0.000000 3.571230 0.000000 
#    z 0.000000 0.000000 3.585560 
# 
# 
# High freq. dielectric constant tensor:
#      x y z
#    x 1.737030 0.000000 0.000000 
#    y 0.000000 1.747670 0.000000 
#    z 0.000000 0.000000 1.753640 
# 
# From -- ./inp_files/32803.got.cif
#   From: 2010.03.12/outbox.cif.g09.slc.cpg/sg59_17_cif.got.tgz:32803.got - 2010.04.16 16:29:54.
