data_PCOD8245431
_publ_section_title
;
Structure prediction by ZEFSAII (Michael W. Deem and Ramdas Pophale) SiO2 
 PCOD8245431
Probable space group: P M M N
;
_chemical_formula_sum "Si O2"
_cell_formula_units_Z 64
_cell_length_a 30.701408
_cell_length_b 8.923275
_cell_length_c 11.969873
_cell_angle_alpha 90.000000
_cell_angle_beta 90.000000
_cell_angle_gamma 90.000000
_cell_volume 3279.231772
_symmetry_space_group_name_H-M "P M M N"
_symmetry_group_IT_number 59
_space_group.IT_coordinate_system_code '2'
_symmetry_cell_setting 'orthorhombic'
loop_
_space_group_symop_operation_xyz
x,y,z
1/2-x,1/2-y,z
1/2+x,-y,-z
-x,1/2+y,-z
-x,-y,-z
1/2+x,1/2+y,-z
1/2-x,y,z
x,1/2-y,z
loop_
_atom_site_type_symbol
_atom_site_label
_atom_site_fract_x
_atom_site_fract_y
_atom_site_fract_z
Si Si1 0.298797 0.078857 0.780135
Si Si2 0.948530 0.578312 0.755061
Si Si3 0.454458 0.576076 0.790874
Si Si4 0.419757 0.425336 0.997569
Si Si5 0.376711 0.927510 0.388474
Si Si6 0.373218 0.927071 0.640930
Si Si7 0.672213 0.072315 0.004284
Si Si8 0.701544 0.071768 0.761946
O O1 0.250000 0.068308 0.730899
O O2 0.313726 0.250000 0.795431
O O3 0.330781 0.999131 0.694391
O O4 0.298211 0.999008 0.900140
O O5 0.935719 0.750000 0.733728
O O6 0.920588 0.477825 0.672170
O O7 0.999385 0.548857 0.730007
O O8 0.939332 0.533135 0.882698
O O9 0.449569 0.750000 0.824738
O O10 0.453642 0.475964 0.902533
O O11 0.416624 0.524175 0.706472
O O12 0.409527 0.250000 0.986840
O O13 0.376863 0.521411 0.975658
O O14 0.375748 0.750000 0.385893
O O15 0.377028 0.987797 0.514706
O O16 0.333827 0.992379 0.325584
O O17 0.367016 0.750000 0.643828
O O18 0.675059 0.250000 0.013375
O O19 0.689284 0.013076 0.885127
O O20 0.750000 0.013930 0.729814
O O21 0.700475 0.250000 0.761656
#
# Coordination Sequence:
#
# PCOD8245431 Si02
#       8
#     8   8   8   8   8   8   8   8
#     4  11  24  40  59  86 120 153 188 234 286 341
#     4  10  22  38  57  83 118 153 188 237 291 346
#     4  10  21  38  58  83 115 153 194 236 286 343
#     4  11  21  34  56  86 116 148 188 234 292 349
#     4  10  21  38  59  84 113 148 195 245 286 333
#     4  10  22  39  60  84 112 151 199 244 284 333
#     4  11  20  34  59  86 114 149 186 229 282 344
#     4   9  18  33  55  83 112 143 182 230 283 335
#
# _framework density 19.516767000000002
#
# number of rings (size 3 to 8) (size 9 to 14) (size 15 to 20)
#    0.000    1.750    2.500    1.875    0.000    4.000 
#    0.000    1.250    0.000    1.125    0.000    0.000 
#    0.000    0.000    0.000    0.000    0.000    0.000 
#
# Total GULP energy -793782.187142 kJ/mol
# GULP energy per Si atom -12402.846674 kJ/mol
# Density = 1.947235 g / cm^3
# Si number density = 19.516767 Si / 1000 Ang^3
#
#
#
# Elastic Constant Matrix: (Units=GPa)
#
#
# Indices 1 2 3 4 5 6 
#
# 1 122.8300 20.4983 57.0851 0.0000 0.0000 0.0000
# 2 20.4983 32.1566 35.0684 0.0000 0.0000 0.0000
# 3 57.0851 35.0684 150.4169 0.0000 0.0000 0.0000
# 4 0.0000 0.0000 0.0000 19.0467 0.0000 0.0000
# 5 0.0000 0.0000 0.0000 0.0000 14.7957 0.0000
# 6 0.0000 0.0000 0.0000 0.0000 0.0000 29.3077
#
#
#
# Elastic Compliance Matrix: (Units=1/GPa)
#
#
# Indices 1 2 3 4 5 6 
#
# 1 0.010100 -0.003028 -0.003127 0.000000 0.000000 0.000000
# 2 -0.003028 0.042608 -0.008785 0.000000 0.000000 0.000000
# 3 -0.003127 -0.008785 0.009883 0.000000 0.000000 0.000000
# 4 0.000000 0.000000 0.000000 0.052503 0.000000 0.000000
# 5 0.000000 0.000000 0.000000 0.000000 0.067587 0.000000
# 6 0.000000 0.000000 0.000000 0.000000 0.000000 0.034121
#
#
# Mechanical properties :
#
#
# Convention : Reuss Voigt Hill
#
# Bulk Modulus (GPa) = 30.57011 58.96746 44.76879
# Shear Modulus (GPa) = 19.41109 25.48012 22.44560
#
# Velocity S-wave (km/s) = 3.15713 3.61716 3.39494
# Velocity P-wave (km/s) = 5.38400 6.90829 6.19322
#
# Compressibility (1/GPa) = 0.03271169
#
# Stress axis : x y z
#
# Youngs Moduli (GPa) = 99.01013 23.46980 101.18384
#
# Poissons Ratio (x) = 0.07107 0.31641
# Poissons Ratio (y) = 0.29980 0.88885
# Poissons Ratio (z) = 0.30962 0.20617
#
# Static dielectric constant tensor:
#      x y z
#    x 3.703390 0.000000 0.000000 
#    y 0.000000 3.368770 0.000000 
#    z 0.000000 0.000000 3.680840 
# 
# 
# High freq. dielectric constant tensor:
#      x y z
#    x 1.773250 0.000000 0.000000 
#    y 0.000000 1.742730 0.000000 
#    z 0.000000 0.000000 1.758030 
# 
# From -- ./inp_files/19344.got.cif
#   From: 2010.03.12/outbox.cif.g09.slc.cpg/sg59_10_cif.got.tgz:19344.got - 2010.04.16 16:29:54.
