data_PCOD8245176
_publ_section_title
;
Structure prediction by ZEFSAII (Michael W. Deem and Ramdas Pophale) SiO2 
 PCOD8245176
Probable space group: P M M N
;
_chemical_formula_sum "Si O2"
_cell_formula_units_Z 56
_cell_length_a 8.963393
_cell_length_b 14.257001
_cell_length_c 21.578243
_cell_angle_alpha 90.000000
_cell_angle_beta 90.000000
_cell_angle_gamma 90.000000
_cell_volume 2757.507473
_symmetry_space_group_name_H-M "P M M N"
_symmetry_group_IT_number 59
_space_group.IT_coordinate_system_code '2'
_symmetry_cell_setting 'orthorhombic'
loop_
_space_group_symop_operation_xyz
x,y,z
1/2-x,1/2-y,z
1/2+x,-y,-z
-x,1/2+y,-z
-x,-y,-z
1/2+x,1/2+y,-z
1/2-x,y,z
x,1/2-y,z
loop_
_atom_site_type_symbol
_atom_site_label
_atom_site_fract_x
_atom_site_fract_y
_atom_site_fract_z
Si Si1 0.076939 0.011694 0.409114
Si Si2 0.419143 0.361798 0.041093
Si Si3 0.077891 0.639327 0.834958
Si Si4 0.075111 0.358193 0.795222
Si Si5 0.424344 0.019967 0.268388
Si Si6 0.426277 0.144149 0.518960
Si Si7 0.582241 0.138635 0.919731
O O1 0.250000 0.989567 0.418681
O O2 0.990727 0.915208 0.423714
O O3 0.043207 0.045783 0.339614
O O4 0.023863 0.095182 0.454550
O O5 0.250000 0.398584 0.038510
O O6 0.424254 0.250000 0.039731
O O7 0.495148 0.399811 0.103843
O O8 0.508832 0.402728 0.982138
O O9 0.250000 0.609986 0.839436
O O10 0.057737 0.750000 0.829755
O O11 0.006800 0.595665 0.773768
O O12 0.250000 0.377529 0.792016
O O13 0.036030 0.250000 0.784014
O O14 0.990007 0.416271 0.742703
O O15 0.016449 0.394252 0.861640
O O16 0.250000 0.021142 0.252983
O O17 0.250000 0.146252 0.525516
O O18 0.490621 0.250000 0.520278
O O19 0.750000 0.099000 0.913086
O O20 0.584461 0.250000 0.923215
#
# Coordination Sequence:
#
# PCOD8245176 Si02
#       7
#     8   8   8   8   8   8   8
#     4   9  20  37  56  82 115 148 182 222 267 317
#     4   9  16  28  49  76 105 139 181 228 280 337
#     4  10  21  37  56  79 109 145 186 232 281 333
#     4  10  21  37  56  78 107 145 188 233 282 336
#     4  11  23  38  57  81 112 150 188 227 273 326
#     4   9  18  35  60  87 114 145 181 221 265 314
#     4   9  16  28  49  76 105 138 179 229 284 338
#
# _framework density 20.308194
#
# number of rings (size 3 to 8) (size 9 to 14) (size 15 to 20)
#    0.000    2.429    0.000    2.143    0.000    7.714 
#    0.000    5.000    0.000    0.000    0.000    0.000 
#    0.000    0.000    0.000    0.000    0.000    0.000 
#
# Total GULP energy -694516.325117 kJ/mol
# GULP energy per Si atom -12402.077234 kJ/mol
# Density = 2.026197 g / cm^3
# Si number density = 20.308194 Si / 1000 Ang^3
#
#
#
# Elastic Constant Matrix: (Units=GPa)
#
#
# Indices 1 2 3 4 5 6 
#
# 1 98.6323 5.1977 32.0458 0.0000 0.0000 0.0000
# 2 5.1977 34.6193 -7.3272 0.0000 0.0000 0.0000
# 3 32.0458 -7.3272 81.0401 0.0000 0.0000 0.0000
# 4 0.0000 0.0000 0.0000 35.1183 0.0000 0.0000
# 5 0.0000 0.0000 0.0000 0.0000 35.2530 0.0000
# 6 0.0000 0.0000 0.0000 0.0000 0.0000 24.9879
#
#
#
# Elastic Compliance Matrix: (Units=1/GPa)
#
#
# Indices 1 2 3 4 5 6 
#
# 1 0.011900 -0.002837 -0.004962 0.000000 0.000000 0.000000
# 2 -0.002837 0.030125 0.003846 0.000000 0.000000 0.000000
# 3 -0.004962 0.003846 0.014650 0.000000 0.000000 0.000000
# 4 0.000000 0.000000 0.000000 0.028475 0.000000 0.000000
# 5 0.000000 0.000000 0.000000 0.000000 0.028366 0.000000
# 6 0.000000 0.000000 0.000000 0.000000 0.000000 0.040019
#
#
# Mechanical properties :
#
#
# Convention : Reuss Voigt Hill
#
# Bulk Modulus (GPa) = 20.50522 30.45827 25.48174
# Shear Modulus (GPa) = 28.13736 31.36355 29.75046
#
# Velocity S-wave (km/s) = 3.72629 3.93412 3.83162
# Velocity P-wave (km/s) = 5.35094 5.97219 5.67008
#
# Compressibility (1/GPa) = 0.04876807
#
# Stress axis : x y z
#
# Youngs Moduli (GPa) = 84.03056 33.19449 68.26163
#
# Poissons Ratio (x) = 0.09417 0.33874
# Poissons Ratio (y) = 0.23839 -0.26251
# Poissons Ratio (z) = 0.41699 -0.12765
#
# Static dielectric constant tensor:
#      x y z
#    x 3.763280 0.000000 0.000000 
#    y 0.000000 3.616790 0.000000 
#    z 0.000000 0.000000 3.711770 
# 
# 
# High freq. dielectric constant tensor:
#      x y z
#    x 1.799360 0.000000 0.000000 
#    y 0.000000 1.790310 0.000000 
#    z 0.000000 0.000000 1.790020 
# 
# From -- ./inp_files/29087.got.cif
#   From: 2010.03.12/outbox.cif.g09.slc.cpg/sg59_15_cif.got.tgz:29087.got - 2010.04.16 16:29:54.
