data_PCOD8245547
_publ_section_title
;
Structure prediction by ZEFSAII (Michael W. Deem and Ramdas Pophale) SiO2 
 PCOD8245547
Probable space group: P M M N
;
_chemical_formula_sum "Si O2"
_cell_formula_units_Z 48
_cell_length_a 17.969598
_cell_length_b 8.442239
_cell_length_c 15.772652
_cell_angle_alpha 90.000000
_cell_angle_beta 90.000000
_cell_angle_gamma 90.000000
_cell_volume 2392.768737
_symmetry_space_group_name_H-M "P M M N"
_symmetry_group_IT_number 59
_space_group.IT_coordinate_system_code '2'
_symmetry_cell_setting 'orthorhombic'
loop_
_space_group_symop_operation_xyz
x,y,z
1/2-x,1/2-y,z
1/2+x,-y,-z
-x,1/2+y,-z
-x,-y,-z
1/2+x,1/2+y,-z
1/2-x,y,z
x,1/2-y,z
loop_
_atom_site_type_symbol
_atom_site_label
_atom_site_fract_x
_atom_site_fract_y
_atom_site_fract_z
Si Si1 0.100278 0.565060 0.465445
Si Si2 0.250000 0.438533 0.410115
Si Si3 0.750000 0.562678 0.781014
Si Si4 0.835556 0.064360 0.067411
Si Si5 0.461324 0.067216 0.818381
Si Si6 0.023774 0.566842 0.638238
Si Si7 0.387999 0.435901 0.107721
O O1 0.086593 0.750000 0.450335
O O2 0.184295 0.514467 0.462679
O O3 0.073656 0.513848 0.558736
O O4 0.060684 0.467892 0.389856
O O5 0.250000 0.250000 0.413821
O O6 0.250000 0.504198 0.314089
O O7 0.750000 0.750000 0.778824
O O8 0.824719 0.501839 0.827445
O O9 0.750000 0.001352 0.067704
O O10 0.836841 0.250000 0.084416
O O11 0.882617 0.980199 0.140825
O O12 0.875993 0.028398 0.979183
O O13 0.477662 0.250000 0.836288
O O14 0.453488 0.037196 0.718508
O O15 0.529927 0.967657 0.856329
O O16 0.032908 0.750000 0.662613
O O17 0.379159 0.250000 0.090413
#
# Coordination Sequence:
#
# PCOD8245547 Si02
#       7
#     8   4   4   8   8   8   8
#     4  10  21  38  61  88 121 159 199 248 303 360
#     4  11  21  35  57  88 123 160 201 243 296 359
#     4   9  20  35  57  88 121 158 195 243 298 353
#     4  11  24  43  64  88 121 161 204 252 309 362
#     4  12  25  40  62  92 122 158 207 253 301 362
#     4  10  21  40  63  87 118 158 202 249 303 359
#     4  11  21  39  64  90 123 160 203 249 304 361
#
# _framework density 20.060441999999998
#
# number of rings (size 3 to 8) (size 9 to 14) (size 15 to 20)
#    0.000    1.333    0.833    5.250    0.000    4.333 
#    1.500    2.500    0.000    0.000    0.000    0.000 
#    0.000    0.000    0.000    0.000    0.000    0.000 
#
# Total GULP energy -595400.015506 kJ/mol
# GULP energy per Si atom -12404.166990 kJ/mol
# Density = 2.001478 g / cm^3
# Si number density = 20.060442 Si / 1000 Ang^3
#
#
#
# Elastic Constant Matrix: (Units=GPa)
#
#
# Indices 1 2 3 4 5 6 
#
# 1 113.8960 16.3496 56.8351 0.0000 0.0000 0.0000
# 2 16.3496 51.3793 18.9061 0.0000 0.0000 0.0000
# 3 56.8351 18.9061 108.1919 0.0000 0.0000 0.0000
# 4 0.0000 0.0000 0.0000 33.3840 0.0000 0.0000
# 5 0.0000 0.0000 0.0000 0.0000 27.6170 0.0000
# 6 0.0000 0.0000 0.0000 0.0000 0.0000 30.8028
#
#
#
# Elastic Compliance Matrix: (Units=1/GPa)
#
#
# Indices 1 2 3 4 5 6 
#
# 1 0.012022 -0.001605 -0.006035 0.000000 0.000000 0.000000
# 2 -0.001605 0.021015 -0.002829 0.000000 0.000000 0.000000
# 3 -0.006035 -0.002829 0.012907 0.000000 0.000000 0.000000
# 4 0.000000 0.000000 0.000000 0.029954 0.000000 0.000000
# 5 0.000000 0.000000 0.000000 0.000000 0.036210 0.000000
# 6 0.000000 0.000000 0.000000 0.000000 0.000000 0.032465
#
#
# Mechanical properties :
#
#
# Convention : Reuss Voigt Hill
#
# Bulk Modulus (GPa) = 39.98993 50.84988 45.41990
# Shear Modulus (GPa) = 28.76114 30.45252 29.60683
#
# Velocity S-wave (km/s) = 3.79056 3.90043 3.84589
# Velocity P-wave (km/s) = 6.25586 6.75928 6.51244
#
# Compressibility (1/GPa) = 0.02500630
#
# Stress axis : x y z
#
# Youngs Moduli (GPa) = 83.18270 47.58542 77.47484
#
# Poissons Ratio (x) = 0.07637 0.46754
# Poissons Ratio (y) = 0.13350 0.21919
# Poissons Ratio (z) = 0.50199 0.13463
#
# Static dielectric constant tensor:
#      x y z
#    x 3.761630 0.000000 0.000000 
#    y 0.000000 3.579470 0.000000 
#    z 0.000000 0.000000 3.709670 
# 
# 
# High freq. dielectric constant tensor:
#      x y z
#    x 1.789420 0.000000 0.000000 
#    y 0.000000 1.783910 0.000000 
#    z 0.000000 0.000000 1.788230 
# 
# From -- ./inp_files/23758.got.cif
#   From: 2010.03.12/outbox.cif.g09.slc.cpg/sg59_12_cif.got.tgz:23758.got - 2010.04.16 16:29:54.
