data_PCOD8245762
_publ_section_title
;
Structure prediction by ZEFSAII (Michael W. Deem and Ramdas Pophale) SiO2 
 PCOD8245762
Probable space group: P M M N
;
_chemical_formula_sum "Si O2"
_cell_formula_units_Z 64
_cell_length_a 29.170308
_cell_length_b 8.853936
_cell_length_c 12.580971
_cell_angle_alpha 90.000000
_cell_angle_beta 90.000000
_cell_angle_gamma 90.000000
_cell_volume 3249.313047
_symmetry_space_group_name_H-M "P M M N"
_symmetry_group_IT_number 59
_space_group.IT_coordinate_system_code '2'
_symmetry_cell_setting 'orthorhombic'
loop_
_space_group_symop_operation_xyz
x,y,z
1/2-x,1/2-y,z
1/2+x,-y,-z
-x,1/2+y,-z
-x,-y,-z
1/2+x,1/2+y,-z
1/2-x,y,z
x,1/2-y,z
loop_
_atom_site_type_symbol
_atom_site_label
_atom_site_fract_x
_atom_site_fract_y
_atom_site_fract_z
Si Si1 0.954724 0.429063 0.450293
Si Si2 0.603946 0.073092 0.040410
Si Si3 0.557943 0.075230 0.821798
Si Si4 0.299769 0.428223 0.443978
Si Si5 0.196346 0.085293 0.675351
Si Si6 0.546190 0.574529 0.222350
Si Si7 0.199400 0.925699 0.884387
Si Si8 0.895245 0.572986 0.624204
O O1 0.959472 0.250000 0.452928
O O2 0.946746 0.482620 0.330452
O O3 0.912477 0.481355 0.522265
O O4 0.000000 0.500000 0.500000
O O5 0.595223 0.250000 0.061340
O O6 0.658840 0.037180 0.031391
O O7 0.582814 0.979109 0.136560
O O8 0.580281 0.020635 0.931658
O O9 0.569062 0.250000 0.798326
O O10 0.503967 0.044465 0.826487
O O11 0.579163 0.974193 0.729959
O O12 0.250000 0.493775 0.405400
O O13 0.294517 0.250000 0.458658
O O14 0.313740 0.491854 0.560874
O O15 0.340845 0.466459 0.362616
O O16 0.250000 0.106889 0.687460
O O17 0.172143 0.250000 0.685047
O O18 0.179358 0.981180 0.771358
O O19 0.553405 0.750000 0.247800
O O20 0.250000 0.995943 0.915203
O O21 0.206391 0.750000 0.873666
O O22 0.903231 0.750000 0.604247
#
# Coordination Sequence:
#
# PCOD8245762 Si02
#       8
#     8   8   8   8   8   8   8   8
#     4  12  24  40  61  88 122 156 191 233 286 350
#     4  10  22  39  59  84 113 150 196 243 292 345
#     4  10  22  41  60  80 114 156 195 242 297 350
#     4   8  16  32  53  80 114 151 192 237 286 340
#     4   8  14  27  48  72 101 139 178 220 275 334
#     4  11  23  39  61  87 116 152 193 241 295 350
#     4   9  18  33  52  77 110 145 183 231 288 344
#     4  11  22  36  60  89 118 156 199 242 291 345
#
# _framework density 19.696472
#
# number of rings (size 3 to 8) (size 9 to 14) (size 15 to 20)
#    0.000    2.125    1.250    3.000    1.750    1.500 
#    0.000    1.250    0.000    3.000    0.000    0.000 
#    0.000    0.000    0.000    0.000    0.000    0.000 
#
# Total GULP energy -793215.893288 kJ/mol
# GULP energy per Si atom -12393.998333 kJ/mol
# Density = 1.965164 g / cm^3
# Si number density = 19.696472 Si / 1000 Ang^3
#
#
#
# Elastic Constant Matrix: (Units=GPa)
#
#
# Indices 1 2 3 4 5 6 
#
# 1 123.5427 44.0316 42.4156 0.0000 0.0000 0.0000
# 2 44.0316 76.2193 39.7859 0.0000 0.0000 0.0000
# 3 42.4156 39.7859 84.2063 0.0000 0.0000 0.0000
# 4 0.0000 0.0000 0.0000 23.8917 0.0000 0.0000
# 5 0.0000 0.0000 0.0000 0.0000 18.1865 0.0000
# 6 0.0000 0.0000 0.0000 0.0000 0.0000 16.4444
#
#
#
# Elastic Compliance Matrix: (Units=1/GPa)
#
#
# Indices 1 2 3 4 5 6 
#
# 1 0.010851 -0.004534 -0.003324 0.000000 0.000000 0.000000
# 2 -0.004534 0.019309 -0.006840 0.000000 0.000000 0.000000
# 3 -0.003324 -0.006840 0.016781 0.000000 0.000000 0.000000
# 4 0.000000 0.000000 0.000000 0.041856 0.000000 0.000000
# 5 0.000000 0.000000 0.000000 0.000000 0.054986 0.000000
# 6 0.000000 0.000000 0.000000 0.000000 0.000000 0.060811
#
#
# Mechanical properties :
#
#
# Convention : Reuss Voigt Hill
#
# Bulk Modulus (GPa) = 56.98732 59.60384 58.29558
# Shear Modulus (GPa) = 20.84735 22.22019 21.53377
#
# Velocity S-wave (km/s) = 3.25688 3.36241 3.31007
# Velocity P-wave (km/s) = 6.56800 6.73805 6.65357
#
# Compressibility (1/GPa) = 0.01754776
#
# Stress axis : x y z
#
# Youngs Moduli (GPa) = 92.15392 51.78818 59.58969
#
# Poissons Ratio (x) = 0.23480 0.19807
# Poissons Ratio (y) = 0.41781 0.40757
# Poissons Ratio (z) = 0.30630 0.35421
#
# Static dielectric constant tensor:
#      x y z
#    x 3.951900 0.000000 0.000000 
#    y 0.000000 3.589170 0.000000 
#    z 0.000000 0.000000 3.612650 
# 
# 
# High freq. dielectric constant tensor:
#      x y z
#    x 1.783110 0.000000 0.000000 
#    y 0.000000 1.751490 0.000000 
#    z 0.000000 0.000000 1.749600 
# 
# From -- ./inp_files/19331.got.cif
#   From: 2010.03.12/outbox.cif.g09.slc.cpg/sg59_10_cif.got.tgz:19331.got - 2010.04.16 16:29:54.
