data_PCOD8245476
_publ_section_title
;
Structure prediction by ZEFSAII (Michael W. Deem and Ramdas Pophale) SiO2 
 PCOD8245476
Probable space group: P M M N
;
_chemical_formula_sum "Si O2"
_cell_formula_units_Z 64
_cell_length_a 14.150428
_cell_length_b 9.113180
_cell_length_c 25.207265
_cell_angle_alpha 90.000000
_cell_angle_beta 90.000000
_cell_angle_gamma 90.000000
_cell_volume 3250.612876
_symmetry_space_group_name_H-M "P M M N"
_symmetry_group_IT_number 59
_space_group.IT_coordinate_system_code '2'
_symmetry_cell_setting 'orthorhombic'
loop_
_space_group_symop_operation_xyz
x,y,z
1/2-x,1/2-y,z
1/2+x,-y,-z
-x,1/2+y,-z
-x,-y,-z
1/2+x,1/2+y,-z
1/2-x,y,z
x,1/2-y,z
loop_
_atom_site_type_symbol
_atom_site_label
_atom_site_fract_x
_atom_site_fract_y
_atom_site_fract_z
Si Si1 0.535129 0.077277 0.273212
Si Si2 0.971861 0.578220 0.076185
Si Si3 0.353412 0.593419 0.419281
Si Si4 0.903705 0.922941 0.485272
Si Si5 0.642719 0.084235 0.378855
Si Si6 0.859406 0.921060 0.180495
Si Si7 0.141402 0.077008 0.027985
Si Si8 0.857841 0.076680 0.695137
O O1 0.527555 0.250000 0.265308
O O2 0.576645 0.035444 0.330773
O O3 0.606795 0.013685 0.230425
O O4 0.430538 0.007086 0.266078
O O5 0.992549 0.750000 0.074619
O O6 0.921682 0.529823 0.130321
O O7 0.073354 0.497565 0.071747
O O8 0.899592 0.532752 0.029497
O O9 0.250000 0.636132 0.399399
O O10 0.402220 0.750000 0.437657
O O11 0.339415 0.476115 0.466088
O O12 0.397697 0.533699 0.364349
O O13 0.908257 0.750000 0.485234
O O14 0.869398 0.975518 0.428306
O O15 0.000000 0.000000 0.500000
O O16 0.750000 0.074120 0.358791
O O17 0.618764 0.250000 0.397716
O O18 0.750000 0.956360 0.168615
O O19 0.873555 0.750000 0.192945
O O20 0.250000 0.020568 0.033063
O O21 0.138090 0.250000 0.036836
O O22 0.750000 0.022733 0.706210
O O23 0.866364 0.250000 0.704661
#
# Coordination Sequence:
#
# PCOD8245476 Si02
#       8
#     8   8   8   8   8   8   8   8
#     4  11  23  38  58  84 111 140 179 229 282 331
#     4   9  18  33  54  82 114 149 192 236 276 323
#     4   9  18  34  55  77 101 128 159 201 256 316
#     4  12  24  35  50  74 103 135 173 215 261 317
#     4  10  22  40  58  77 107 144 177 216 272 331
#     4  10  21  38  60  83 109 146 190 233 277 326
#     4   9  17  31  53  82 118 156 190 228 276 327
#     4   9  19  37  60  83 107 139 179 221 269 329
#
# _framework density 19.688596
#
# number of rings (size 3 to 8) (size 9 to 14) (size 15 to 20)
#    0.000    2.125    0.000    4.125    0.000    8.750 
#    0.000    1.875    0.000    3.000    0.000    0.000 
#    0.000    0.000    0.000    0.000    0.000    0.000 
#
# Total GULP energy -793120.326033 kJ/mol
# GULP energy per Si atom -12392.505094 kJ/mol
# Density = 1.964378 g / cm^3
# Si number density = 19.688596 Si / 1000 Ang^3
#
#
#
# Elastic Constant Matrix: (Units=GPa)
#
#
# Indices 1 2 3 4 5 6 
#
# 1 137.8436 46.8037 44.4994 0.0000 0.0000 0.0000
# 2 46.8037 84.7618 41.5489 0.0000 0.0000 0.0000
# 3 44.4994 41.5489 69.9257 0.0000 0.0000 0.0000
# 4 0.0000 0.0000 0.0000 29.8630 0.0000 0.0000
# 5 0.0000 0.0000 0.0000 0.0000 31.8582 0.0000
# 6 0.0000 0.0000 0.0000 0.0000 0.0000 29.0105
#
#
#
# Elastic Compliance Matrix: (Units=1/GPa)
#
#
# Indices 1 2 3 4 5 6 
#
# 1 0.009744 -0.003303 -0.004239 0.000000 0.000000 0.000000
# 2 -0.003303 0.017766 -0.008454 0.000000 0.000000 0.000000
# 3 -0.004239 -0.008454 0.022022 0.000000 0.000000 0.000000
# 4 0.000000 0.000000 0.000000 0.033486 0.000000 0.000000
# 5 0.000000 0.000000 0.000000 0.000000 0.031389 0.000000
# 6 0.000000 0.000000 0.000000 0.000000 0.000000 0.034470
#
#
# Mechanical properties :
#
#
# Convention : Reuss Voigt Hill
#
# Bulk Modulus (GPa) = 57.01175 62.02612 59.51894
# Shear Modulus (GPa) = 26.77870 28.79161 27.78516
#
# Velocity S-wave (km/s) = 3.69197 3.82822 3.76071
# Velocity P-wave (km/s) = 6.86977 7.14929 7.01092
#
# Compressibility (1/GPa) = 0.01754024
#
# Stress axis : x y z
#
# Youngs Moduli (GPa) = 102.62280 56.28825 45.41002
#
# Poissons Ratio (x) = 0.18592 0.19247
# Poissons Ratio (y) = 0.33896 0.38390
# Poissons Ratio (z) = 0.43497 0.47587
#
# Static dielectric constant tensor:
#      x y z
#    x 3.771900 0.000000 0.000000 
#    y 0.000000 3.517810 0.000000 
#    z 0.000000 0.000000 3.460780 
# 
# 
# High freq. dielectric constant tensor:
#      x y z
#    x 1.781910 0.000000 0.000000 
#    y 0.000000 1.759810 0.000000 
#    z 0.000000 0.000000 1.749710 
# 
# From -- ./inp_files/32139.got.cif
#   From: 2010.03.12/outbox.cif.g09.slc.cpg/sg59_17_cif.got.tgz:32139.got - 2010.04.16 16:29:54.
