data_PCOD8246329
_publ_section_title
;
Structure prediction by ZEFSAII (Michael W. Deem and Ramdas Pophale) SiO2 
 PCOD8246329
Probable space group: P B C N
;
_chemical_formula_sum "Si O2"
_cell_formula_units_Z 44
_cell_length_a 12.362074
_cell_length_b 22.509225
_cell_length_c 8.645575
_cell_angle_alpha 90.000000
_cell_angle_beta 90.000000
_cell_angle_gamma 90.000000
_cell_volume 2405.723796
_symmetry_space_group_name_H-M "P B C N"
_symmetry_group_IT_number 60
_symmetry_cell_setting 'orthorhombic'
loop_
_space_group_symop_operation_xyz
x,y,z
1/2-x,1/2-y,1/2+z
1/2+x,1/2-y,-z
-x,y,1/2-z
-x,-y,-z
1/2+x,1/2+y,1/2-z
1/2-x,1/2+y,z
x,-y,1/2+z
loop_
_atom_site_type_symbol
_atom_site_label
_atom_site_fract_x
_atom_site_fract_y
_atom_site_fract_z
Si Si1 0.716133 0.672266 0.044081
Si Si2 0.506267 0.309535 0.067796
Si Si3 0.719522 0.294323 0.897587
Si Si4 0.454557 0.822923 0.578215
Si Si5 0.500000 0.000823 0.750000
Si Si6 0.900333 0.579467 0.994015
O O1 0.708490 0.699513 0.214538
O O2 0.785914 0.612424 0.022202
O O3 0.593807 0.653150 0.000452
O O4 0.765382 0.724357 0.935474
O O5 0.500000 0.319371 0.250000
O O6 0.489315 0.241463 0.020410
O O7 0.621578 0.326139 0.991356
O O8 0.826600 0.331215 0.939634
O O9 0.500000 0.833839 0.750000
O O10 0.507310 0.871228 0.467583
O O11 0.409327 0.039194 0.658649
O O12 0.574756 0.960751 0.641920
#
# Coordination Sequence:
#
# PCOD8246329 Si02
#       6
#     8   8   8   8   4   8
#     4  11  21  33  57  76 124 149 189 225 290 341
#     4  10  21  34  50  85 118 157 189 218 272 376
#     4  11  19  33  53  85 115 164 180 219 280 372
#     4  10  17  33  55  75 121 148 178 225 287 331
#     4  10  24  34  60  78 112 138 220 234 304 318
#     4  11  20  40  53  87 107 156 182 260 278 337
#
# _framework density 18.289714
#
# number of rings (size 3 to 8) (size 9 to 14) (size 15 to 20)
#    0.000    1.455    4.545    2.727    0.000    4.364 
#    0.000    0.000    0.000    0.000    0.000   31.818 
#    0.000    0.000    0.000    0.000    0.000    0.000 
#
# Total GULP energy -545326.917578 kJ/mol
# GULP energy per Si atom -12393.793581 kJ/mol
# Density = 1.824809 g / cm^3
# Si number density = 18.289714 Si / 1000 Ang^3
#
#
#
# Elastic Constant Matrix: (Units=GPa)
#
#
# Indices 1 2 3 4 5 6 
#
# 1 175.8781 44.6324 51.2742 0.0000 0.0000 0.0000
# 2 44.6324 69.6778 39.4040 0.0000 0.0000 0.0000
# 3 51.2742 39.4040 93.9210 0.0000 0.0000 0.0000
# 4 0.0000 0.0000 0.0000 9.5559 0.0000 0.0000
# 5 0.0000 0.0000 0.0000 0.0000 27.3919 0.0000
# 6 0.0000 0.0000 0.0000 0.0000 0.0000 146.1118
#
#
#
# Elastic Compliance Matrix: (Units=1/GPa)
#
#
# Indices 1 2 3 4 5 6 
#
# 1 0.007255 -0.003156 -0.002637 0.000000 0.000000 0.000000
# 2 -0.003156 0.020189 -0.006747 0.000000 0.000000 0.000000
# 3 -0.002637 -0.006747 0.014917 0.000000 0.000000 0.000000
# 4 0.000000 0.000000 0.000000 0.104647 0.000000 0.000000
# 5 0.000000 0.000000 0.000000 0.000000 0.036507 0.000000
# 6 0.000000 0.000000 0.000000 0.000000 0.000000 0.006844
#
#
# Mechanical properties :
#
#
# Convention : Reuss Voigt Hill
#
# Bulk Modulus (GPa) = 57.86479 67.78866 62.82672
# Shear Modulus (GPa) = 22.60387 50.22303 36.41345
#
# Velocity S-wave (km/s) = 3.51932 5.24589 4.46682
# Velocity P-wave (km/s) = 6.94411 8.59283 7.81209
#
# Compressibility (1/GPa) = 0.01728167
#
# Stress axis : x y z
#
# Youngs Moduli (GPa) = 137.82766 49.53138 67.03586
#
# Poissons Ratio (x) = 0.15634 0.17675
# Poissons Ratio (y) = 0.43504 0.45230
# Poissons Ratio (z) = 0.36341 0.33419
#
# Static dielectric constant tensor:
#      x y z
#    x 3.730690 0.000000 0.000000 
#    y 0.000000 3.243010 0.000000 
#    z 0.000000 0.000000 3.416070 
# 
# 
# High freq. dielectric constant tensor:
#      x y z
#    x 1.715730 0.000000 0.000000 
#    y 0.000000 1.670330 0.000000 
#    z 0.000000 0.000000 1.715760 
# 
# From -- ./inp_files/4985.got.cif
#   From: 2010.03.12/outbox.cif.g09.slc.cpg/sg60_3_cif.got.tgz:4985.got - 2010.04.10 18:46:24.
