data_PCOD8246942
_publ_section_title
;
Structure prediction by ZEFSAII (Michael W. Deem and Ramdas Pophale) SiO2 
 PCOD8246942
Probable space group: P B C N
;
_chemical_formula_sum "Si O2"
_cell_formula_units_Z 48
_cell_length_a 27.144011
_cell_length_b 8.626900
_cell_length_c 8.998846
_cell_angle_alpha 90.000000
_cell_angle_beta 90.000000
_cell_angle_gamma 90.000000
_cell_volume 2107.247786
_symmetry_space_group_name_H-M "P B C N"
_symmetry_group_IT_number 60
_symmetry_cell_setting 'orthorhombic'
loop_
_space_group_symop_operation_xyz
x,y,z
1/2-x,1/2-y,1/2+z
1/2+x,1/2-y,-z
-x,y,1/2-z
-x,-y,-z
1/2+x,1/2+y,1/2-z
1/2-x,1/2+y,z
x,-y,1/2+z
loop_
_atom_site_type_symbol
_atom_site_label
_atom_site_fract_x
_atom_site_fract_y
_atom_site_fract_z
Si Si1 0.706279 0.334463 0.156107
Si Si2 0.454085 0.718860 0.677653
Si Si3 0.207020 0.664848 0.630556
Si Si4 0.456517 0.418058 0.856403
Si Si5 0.851553 0.358326 0.877958
Si Si6 0.347130 0.645297 0.354109
O O1 0.749176 0.398610 0.264528
O O2 0.672258 0.206021 0.229834
O O3 0.671237 0.473843 0.102068
O O4 0.730161 0.240516 0.018022
O O5 0.500000 0.815495 0.750000
O O6 0.443812 0.595641 0.810472
O O7 0.468947 0.613094 0.532071
O O8 0.410705 0.839697 0.641767
O O9 0.166127 0.533749 0.597658
O O10 0.179535 0.808763 0.703812
O O11 0.500000 0.350724 0.750000
O O12 0.405073 0.332377 0.826528
O O13 0.831410 0.259917 0.014892
#
# Coordination Sequence:
#
# PCOD8246942 Si02
#       6
#     8   8   8   8   8   8
#     4  12  25  45  70  94 130 176 226 273 330 403
#     4  10  20  37  65  98 137 173 222 271 329 389
#     4  12  27  44  70  96 135 171 220 281 340 400
#     4  10  20  36  65 100 133 168 228 277 318 383
#     4  11  24  43  65 102 136 175 221 276 337 394
#     4  11  24  43  67 100 131 175 225 272 328 397
#
# _framework density 22.778525999999999
#
# number of rings (size 3 to 8) (size 9 to 14) (size 15 to 20)
#    0.000    1.000    1.667    6.000    2.333    5.333 
#    0.000    2.500    0.000    5.000    0.000    0.000 
#    0.000    0.000    0.000    0.000    0.000    0.000 
#
# Total GULP energy -594826.199205 kJ/mol
# GULP energy per Si atom -12392.212483 kJ/mol
# Density = 2.272668 g / cm^3
# Si number density = 22.778526 Si / 1000 Ang^3
#
#
#
# Elastic Constant Matrix: (Units=GPa)
#
#
# Indices 1 2 3 4 5 6 
#
# 1 128.4272 41.2493 55.8681 0.0000 0.0000 0.0000
# 2 41.2493 89.2410 43.8130 0.0000 0.0000 0.0000
# 3 55.8681 43.8130 126.3102 0.0000 0.0000 0.0000
# 4 0.0000 0.0000 0.0000 31.7337 0.0000 0.0000
# 5 0.0000 0.0000 0.0000 0.0000 36.1418 0.0000
# 6 0.0000 0.0000 0.0000 0.0000 0.0000 22.4751
#
#
#
# Elastic Compliance Matrix: (Units=1/GPa)
#
#
# Indices 1 2 3 4 5 6 
#
# 1 0.010282 -0.003037 -0.003494 0.000000 0.000000 0.000000
# 2 -0.003037 0.014403 -0.003652 0.000000 0.000000 0.000000
# 3 -0.003494 -0.003652 0.010730 0.000000 0.000000 0.000000
# 4 0.000000 0.000000 0.000000 0.031512 0.000000 0.000000
# 5 0.000000 0.000000 0.000000 0.000000 0.027669 0.000000
# 6 0.000000 0.000000 0.000000 0.000000 0.000000 0.044494
#
#
# Mechanical properties :
#
#
# Convention : Reuss Voigt Hill
#
# Bulk Modulus (GPa) = 66.46122 69.53768 67.99945
# Shear Modulus (GPa) = 30.40023 31.60664 31.00344
#
# Velocity S-wave (km/s) = 3.65718 3.72904 3.69329
# Velocity P-wave (km/s) = 6.86103 7.00964 6.93573
#
# Compressibility (1/GPa) = 0.01504637
#
# Stress axis : x y z
#
# Youngs Moduli (GPa) = 97.25626 69.43192 93.20043
#
# Poissons Ratio (x) = 0.21087 0.32568
# Poissons Ratio (y) = 0.29537 0.34041
# Poissons Ratio (z) = 0.33985 0.25360
#
# Static dielectric constant tensor:
#      x y z
#    x 4.416180 0.000000 0.000000 
#    y 0.000000 3.711730 0.000000 
#    z 0.000000 0.000000 4.317620 
# 
# 
# High freq. dielectric constant tensor:
#      x y z
#    x 1.916590 0.000000 0.000000 
#    y 0.000000 1.864840 0.000000 
#    z 0.000000 0.000000 1.913670 
# 
# From -- ./inp_files/8419.got.cif
#   From: 2010.03.12/outbox.cif.g09.slc.cpg/sg60_5_cif.got.tgz:8419.got - 2010.04.10 18:46:24.
