data_PCOD8246369
_publ_section_title
;
Structure prediction by ZEFSAII (Michael W. Deem and Ramdas Pophale) SiO2 
 PCOD8246369
Probable space group: P B C N
;
_chemical_formula_sum "Si O2"
_cell_formula_units_Z 48
_cell_length_a 15.871585
_cell_length_b 18.666808
_cell_length_c 8.685416
_cell_angle_alpha 90.000000
_cell_angle_beta 90.000000
_cell_angle_gamma 90.000000
_cell_volume 2573.244091
_symmetry_space_group_name_H-M "P B C N"
_symmetry_group_IT_number 60
_symmetry_cell_setting 'orthorhombic'
loop_
_space_group_symop_operation_xyz
x,y,z
1/2-x,1/2-y,1/2+z
1/2+x,1/2-y,-z
-x,y,1/2-z
-x,-y,-z
1/2+x,1/2+y,1/2-z
1/2-x,1/2+y,z
x,-y,1/2+z
loop_
_atom_site_type_symbol
_atom_site_label
_atom_site_fract_x
_atom_site_fract_y
_atom_site_fract_z
Si Si1 0.421250 0.181807 0.546195
Si Si2 0.364092 0.034076 0.199444
Si Si3 0.000000 0.428246 0.250000
Si Si4 0.000000 0.973735 0.250000
Si Si5 0.000000 0.644304 0.250000
Si Si6 0.500000 0.297363 0.750000
Si Si7 0.220862 0.421124 0.988856
Si Si8 0.585295 0.586081 0.045332
O O1 0.483838 0.119336 0.600575
O O2 0.450964 0.195783 0.370546
O O3 0.431342 0.250985 0.654598
O O4 0.326152 0.150156 0.553867
O O5 0.431978 0.095623 0.155030
O O6 0.295085 0.070677 0.308010
O O7 0.418037 0.974860 0.293065
O O8 0.312859 0.995331 0.063334
O O9 0.964373 0.924663 0.386006
O O10 0.071971 0.022734 0.329985
O O11 0.446239 0.341661 0.873454
O O12 0.319171 0.408825 0.010633
#
# Coordination Sequence:
#
# PCOD8246369 Si02
#       8
#     8   8   4   4   4   4   8   8
#     4   9  18  32  49  71 102 138 173 202 236 291
#     4   9  16  26  47  78 109 133 159 201 253 299
#     4   8  14  27  46  71 106 142 164 188 240 304
#     4   9  20  38  60  80  98 123 160 210 268 321
#     4   9  16  28  48  76 106 139 168 194 242 307
#     4  10  22  39  52  65  98 144 176 202 244 302
#     4  10  18  30  51  80 106 129 164 211 253 291
#     4  10  20  37  58  78  99 127 166 212 261 305
#
# _framework density 18.653497000000002
#
# number of rings (size 3 to 8) (size 9 to 14) (size 15 to 20)
#    0.000    2.667    0.000    2.000    0.000    4.667 
#    0.000    5.000    0.000    4.000    0.000    0.000 
#    0.000    0.000    0.000    0.000    0.000    0.000 
#
# Total GULP energy -594655.982296 kJ/mol
# GULP energy per Si atom -12388.666298 kJ/mol
# Density = 1.861104 g / cm^3
# Si number density = 18.653497 Si / 1000 Ang^3
#
#
#
# Elastic Constant Matrix: (Units=GPa)
#
#
# Indices 1 2 3 4 5 6 
#
# 1 110.8889 41.2012 42.4648 0.0000 0.0000 0.0000
# 2 41.2012 84.2193 48.8421 0.0000 0.0000 0.0000
# 3 42.4648 48.8421 94.3235 0.0000 0.0000 0.0000
# 4 0.0000 0.0000 0.0000 31.6885 0.0000 0.0000
# 5 0.0000 0.0000 0.0000 0.0000 23.7655 0.0000
# 6 0.0000 0.0000 0.0000 0.0000 0.0000 14.0420
#
#
#
# Elastic Compliance Matrix: (Units=1/GPa)
#
#
# Indices 1 2 3 4 5 6 
#
# 1 0.011695 -0.003813 -0.003291 0.000000 0.000000 0.000000
# 2 -0.003813 0.018213 -0.007714 0.000000 0.000000 0.000000
# 3 -0.003291 -0.007714 0.016078 0.000000 0.000000 0.000000
# 4 0.000000 0.000000 0.000000 0.031557 0.000000 0.000000
# 5 0.000000 0.000000 0.000000 0.000000 0.042078 0.000000
# 6 0.000000 0.000000 0.000000 0.000000 0.000000 0.071215
#
#
# Mechanical properties :
#
#
# Convention : Reuss Voigt Hill
#
# Bulk Modulus (GPa) = 61.16268 61.60531 61.38400
# Shear Modulus (GPa) = 22.13159 24.36078 23.24619
#
# Velocity S-wave (km/s) = 3.44824 3.61773 3.53400
# Velocity P-wave (km/s) = 6.97953 7.10975 7.04494
#
# Compressibility (1/GPa) = 0.01634984
#
# Stress axis : x y z
#
# Youngs Moduli (GPa) = 85.50730 54.90600 62.19710
#
# Poissons Ratio (x) = 0.20935 0.20467
# Poissons Ratio (y) = 0.32603 0.47981
# Poissons Ratio (z) = 0.28138 0.42356
#
# Static dielectric constant tensor:
#      x y z
#    x 3.234820 0.000000 0.000000 
#    y 0.000000 3.239100 0.000000 
#    z 0.000000 0.000000 3.408540 
# 
# 
# High freq. dielectric constant tensor:
#      x y z
#    x 1.708650 0.000000 0.000000 
#    y 0.000000 1.696810 0.000000 
#    z 0.000000 0.000000 1.730190 
# 
# From -- ./inp_files/5979.got.cif
#   From: 2010.03.12/outbox.cif.g09.slc.cpg/sg60_3_cif.got.tgz:5979.got - 2010.04.10 18:46:24.
