data_PCOD8246606
_publ_section_title
;
Structure prediction by ZEFSAII (Michael W. Deem and Ramdas Pophale) SiO2 
 PCOD8246606
Probable space group: P B C N
;
_chemical_formula_sum "Si O2"
_cell_formula_units_Z 60
_cell_length_a 5.185173
_cell_length_b 17.890484
_cell_length_c 30.379828
_cell_angle_alpha 90.000000
_cell_angle_beta 90.000000
_cell_angle_gamma 90.000000
_cell_volume 2818.192479
_symmetry_space_group_name_H-M "P B C N"
_symmetry_group_IT_number 60
_symmetry_cell_setting 'orthorhombic'
loop_
_space_group_symop_operation_xyz
x,y,z
1/2-x,1/2-y,1/2+z
1/2+x,1/2-y,-z
-x,y,1/2-z
-x,-y,-z
1/2+x,1/2+y,1/2-z
1/2-x,1/2+y,z
x,-y,1/2+z
loop_
_atom_site_type_symbol
_atom_site_label
_atom_site_fract_x
_atom_site_fract_y
_atom_site_fract_z
Si Si1 0.202285 0.518302 0.822186
Si Si2 0.981058 0.666059 0.839190
Si Si3 0.400203 0.833701 0.968246
Si Si4 0.110579 0.374619 0.869639
Si Si5 0.969896 0.876452 0.117694
Si Si6 0.901621 0.159301 0.522741
Si Si7 0.626639 0.676078 0.323536
Si Si8 0.000000 0.067337 0.250000
O O1 0.047241 0.456913 0.850322
O O2 0.436447 0.547347 0.853637
O O3 0.303234 0.485044 0.776332
O O4 0.013630 0.589004 0.811097
O O5 0.748418 0.658719 0.873813
O O6 0.932527 0.738344 0.808292
O O7 0.241235 0.680794 0.867538
O O8 0.415416 0.875671 0.921898
O O9 0.411962 0.744940 0.961091
O O10 0.133882 0.858780 0.990015
O O11 0.635394 0.860734 0.998751
O O12 0.397376 0.351940 0.854939
O O13 0.893714 0.320066 0.849932
O O14 0.935446 0.892477 0.065834
O O15 0.661578 0.621750 0.281907
#
# Coordination Sequence:
#
# PCOD8246606 Si02
#       8
#     8   8   8   8   8   8   8   4
#     4   9  25  42  68  91 132 177 209 258 334 390
#     4  10  21  40  65  93 121 173 211 259 317 386
#     4  10  20  33  58  89 126 163 215 265 320 367
#     4  11  23  41  64  92 131 170 215 260 331 385
#     4  10  21  39  65  89 130 168 218 252 321 387
#     4  10  19  34  56  92 122 166 212 273 310 367
#     4  11  23  41  66  95 123 167 214 270 316 374
#     4  10  24  48  64 102 128 166 212 272 318 394
#
# _framework density 21.290243
#
# number of rings (size 3 to 8) (size 9 to 14) (size 15 to 20)
#    0.800    1.067    0.000    4.000    3.733    4.267 
#    2.400    1.333    0.000    0.000    0.000    0.000 
#    0.000    0.000    0.000    0.000    0.000    0.000 
#
# Total GULP energy -743755.797249 kJ/mol
# GULP energy per Si atom -12395.929954 kJ/mol
# Density = 2.124179 g / cm^3
# Si number density = 21.290243 Si / 1000 Ang^3
#
#
#
# Elastic Constant Matrix: (Units=GPa)
#
#
# Indices 1 2 3 4 5 6 
#
# 1 111.6421 18.4629 34.1942 0.0000 0.0000 0.0000
# 2 18.4629 111.5135 52.5339 0.0000 0.0000 0.0000
# 3 34.1942 52.5339 133.2420 0.0000 0.0000 0.0000
# 4 0.0000 0.0000 0.0000 25.8065 0.0000 0.0000
# 5 0.0000 0.0000 0.0000 0.0000 25.1490 0.0000
# 6 0.0000 0.0000 0.0000 0.0000 0.0000 17.1173
#
#
#
# Elastic Compliance Matrix: (Units=1/GPa)
#
#
# Indices 1 2 3 4 5 6 
#
# 1 0.009747 -0.000535 -0.002291 0.000000 0.000000 0.000000
# 2 -0.000535 0.011042 -0.004217 0.000000 0.000000 0.000000
# 3 -0.002291 -0.004217 0.009755 0.000000 0.000000 0.000000
# 4 0.000000 0.000000 0.000000 0.038750 0.000000 0.000000
# 5 0.000000 0.000000 0.000000 0.000000 0.039763 0.000000
# 6 0.000000 0.000000 0.000000 0.000000 0.000000 0.058420
#
#
# Mechanical properties :
#
#
# Convention : Reuss Voigt Hill
#
# Bulk Modulus (GPa) = 60.74820 62.97552 61.86186
# Shear Modulus (GPa) = 26.73093 30.36168 28.54630
#
# Velocity S-wave (km/s) = 3.54722 3.78045 3.66569
# Velocity P-wave (km/s) = 6.73590 6.97850 6.85827
#
# Compressibility (1/GPa) = 0.01646139
#
# Stress axis : x y z
#
# Youngs Moduli (GPa) = 102.59356 90.55956 102.50669
#
# Poissons Ratio (x) = 0.04842 0.23480
# Poissons Ratio (y) = 0.05486 0.43222
# Poissons Ratio (z) = 0.23500 0.38185
#
# Static dielectric constant tensor:
#      x y z
#    x 3.821580 0.000000 0.000000 
#    y 0.000000 3.826000 0.000000 
#    z 0.000000 0.000000 3.621870 
# 
# 
# High freq. dielectric constant tensor:
#      x y z
#    x 1.843880 0.000000 0.000000 
#    y 0.000000 1.822580 0.000000 
#    z 0.000000 0.000000 1.822030 
# 
# From -- ./inp_files/25839.got.cif
#   From: 2010.03.12/outbox.cif.g09.slc.cpg/sg60_13_cif.got.tgz:25839.got - 2010.04.10 18:46:24.
