data_PCOD8246178
_publ_section_title
;
Structure prediction by ZEFSAII (Michael W. Deem and Ramdas Pophale) SiO2 
 PCOD8246178
Probable space group: P M M N
;
_chemical_formula_sum "Si O2"
_cell_formula_units_Z 48
_cell_length_a 19.963731
_cell_length_b 9.446033
_cell_length_c 15.188445
_cell_angle_alpha 90.000000
_cell_angle_beta 90.000000
_cell_angle_gamma 90.000000
_cell_volume 2864.207520
_symmetry_space_group_name_H-M "P M M N"
_symmetry_group_IT_number 59
_space_group.IT_coordinate_system_code '2'
_symmetry_cell_setting 'orthorhombic'
loop_
_space_group_symop_operation_xyz
x,y,z
1/2-x,1/2-y,z
1/2+x,-y,-z
-x,1/2+y,-z
-x,-y,-z
1/2+x,1/2+y,-z
1/2-x,y,z
x,1/2-y,z
loop_
_atom_site_type_symbol
_atom_site_label
_atom_site_fract_x
_atom_site_fract_y
_atom_site_fract_z
Si Si1 0.329771 0.090641 0.407717
Si Si2 0.670416 0.407631 0.431871
Si Si3 0.675642 0.081587 0.237182
Si Si4 0.934406 0.413338 0.902635
Si Si5 0.435821 0.584175 0.896024
Si Si6 0.826778 0.413580 0.759175
O O1 0.250000 0.090945 0.411250
O O2 0.358257 0.250000 0.404638
O O3 0.359080 0.013321 0.494476
O O4 0.354217 0.007031 0.321443
O O5 0.750000 0.399777 0.438911
O O6 0.640846 0.250000 0.447747
O O7 0.650901 0.465065 0.334680
O O8 0.750000 0.019991 0.217140
O O9 0.679298 0.250000 0.234249
O O10 0.623995 0.023689 0.164561
O O11 0.954947 0.250000 0.892933
O O12 0.869346 0.450817 0.845507
O O13 0.996223 0.506001 0.868427
O O14 0.916496 0.450266 0.003371
O O15 0.446913 0.750000 0.880338
O O16 0.750000 0.450509 0.781722
O O17 0.834292 0.250000 0.731721
#
# Coordination Sequence:
#
# PCOD8246178 Si02
#       6
#     8   8   8   8   8   8
#     4   9  16  25  39  62  90 116 142 175 216 260
#     4   8  13  23  40  61  86 115 143 172 210 256
#     4   8  14  25  44  70  93 113 144 184 219 252
#     4   9  18  31  46  65  89 117 148 181 218 261
#     4   9  17  30  48  67  88 117 149 179 215 261
#     4   9  17  29  45  65  88 115 148 184 220 256
#
# _framework density 16.758562000000001
#
# number of rings (size 3 to 8) (size 9 to 14) (size 15 to 20)
#    0.000    3.333    0.000    1.500    0.000    3.333 
#    0.000    4.167    0.000    2.500    0.000    4.667 
#    0.000    0.000    0.000    0.000    0.000    0.000 
#
# Total GULP energy -595028.377824 kJ/mol
# GULP energy per Si atom -12396.424538 kJ/mol
# Density = 1.672042 g / cm^3
# Si number density = 16.758562 Si / 1000 Ang^3
#
#
#
# Elastic Constant Matrix: (Units=GPa)
#
#
# Indices 1 2 3 4 5 6 
#
# 1 72.7875 36.7211 66.2489 0.0000 0.0000 0.0000
# 2 36.7211 66.8446 55.1558 0.0000 0.0000 0.0000
# 3 66.2489 55.1558 128.2198 0.0000 0.0000 0.0000
# 4 0.0000 0.0000 0.0000 18.3719 0.0000 0.0000
# 5 0.0000 0.0000 0.0000 0.0000 7.8636 0.0000
# 6 0.0000 0.0000 0.0000 0.0000 0.0000 18.7450
#
#
#
# Elastic Compliance Matrix: (Units=1/GPa)
#
#
# Indices 1 2 3 4 5 6 
#
# 1 0.027035 -0.005156 -0.011750 0.000000 0.000000 0.000000
# 2 -0.005156 0.024175 -0.007735 0.000000 0.000000 0.000000
# 3 -0.011750 -0.007735 0.017198 0.000000 0.000000 0.000000
# 4 0.000000 0.000000 0.000000 0.054431 0.000000 0.000000
# 5 0.000000 0.000000 0.000000 0.000000 0.127168 0.000000
# 6 0.000000 0.000000 0.000000 0.000000 0.000000 0.053348
#
#
# Mechanical properties :
#
#
# Convention : Reuss Voigt Hill
#
# Bulk Modulus (GPa) = 52.28940 64.90038 58.59489
# Shear Modulus (GPa) = 13.92709 16.31118 15.11913
#
# Velocity S-wave (km/s) = 2.88591 3.12317 3.00688
# Velocity P-wave (km/s) = 6.50953 7.19836 6.86259
#
# Compressibility (1/GPa) = 0.01912433
#
# Stress axis : x y z
#
# Youngs Moduli (GPa) = 36.98965 41.36481 58.14665
#
# Poissons Ratio (x) = 0.21327 0.68325
# Poissons Ratio (y) = 0.19071 0.44979
# Poissons Ratio (z) = 0.43465 0.31998
#
# Static dielectric constant tensor:
#      x y z
#    x 2.915860 0.000000 0.000000 
#    y 0.000000 3.110010 0.000000 
#    z 0.000000 0.000000 3.365970 
# 
# 
# High freq. dielectric constant tensor:
#      x y z
#    x 1.605120 0.000000 0.000000 
#    y 0.000000 1.628710 0.000000 
#    z 0.000000 0.000000 1.655470 
# 
# From -- ./inp_files/14369.got.cif
#   From: 2010.03.12/outbox.cif.g09.slc.cpg/sg59_8_cif.got.tgz:14369.got - 2010.04.16 16:29:54.
