data_PCOD8246856
_publ_section_title
;
Structure prediction by ZEFSAII (Michael W. Deem and Ramdas Pophale) SiO2 
 PCOD8246856
Probable space group: P B C N
;
_chemical_formula_sum "Si O2"
_cell_formula_units_Z 64
_cell_length_a 32.822654
_cell_length_b 13.532467
_cell_length_c 9.048895
_cell_angle_alpha 90.000000
_cell_angle_beta 90.000000
_cell_angle_gamma 90.000000
_cell_volume 4019.261104
_symmetry_space_group_name_H-M "P B C N"
_symmetry_group_IT_number 60
_symmetry_cell_setting 'orthorhombic'
loop_
_space_group_symop_operation_xyz
x,y,z
1/2-x,1/2-y,1/2+z
1/2+x,1/2-y,-z
-x,y,1/2-z
-x,-y,-z
1/2+x,1/2+y,1/2-z
1/2-x,1/2+y,z
x,-y,1/2+z
loop_
_atom_site_type_symbol
_atom_site_label
_atom_site_fract_x
_atom_site_fract_y
_atom_site_fract_z
Si Si1 0.469048 0.606061 0.641708
Si Si2 0.381481 0.397997 0.192955
Si Si3 0.313339 0.721431 0.192348
Si Si4 0.474151 0.614504 0.127961
Si Si5 0.311381 0.717986 0.535523
Si Si6 0.885189 0.109667 0.457504
Si Si7 0.731168 0.105255 0.310102
Si Si8 0.229482 0.603057 0.533427
O O1 0.500000 0.663707 0.750000
O O2 0.424302 0.653571 0.646729
O O3 0.489303 0.605434 0.485275
O O4 0.462599 0.492661 0.696381
O O5 0.348552 0.324740 0.127354
O O6 0.377209 0.405826 0.369274
O O7 0.377280 0.505933 0.122170
O O8 0.322939 0.736828 0.365105
O O9 0.353864 0.687505 0.109170
O O10 0.277639 0.641203 0.171292
O O11 0.301133 0.824528 0.118159
O O12 0.500000 0.677655 0.250000
O O13 0.430961 0.655840 0.068172
O O14 0.299453 0.820933 0.609263
O O15 0.275379 0.639604 0.551413
O O16 0.726013 0.002054 0.390551
O O17 0.718170 0.096688 0.139215
#
# Coordination Sequence:
#
# PCOD8246856 Si02
#       8
#     8   8   8   8   8   8   8   8
#     4   9  16  29  41  61  88 124 161 193 232 279
#     4  11  21  30  46  66  97 130 163 200 237 282
#     4  10  21  34  50  72  98 124 161 200 234 282
#     4   9  18  27  43  61  88 124 161 195 232 282
#     4  10  21  34  50  73  96 126 161 198 237 280
#     4  11  21  31  44  68  96 130 163 200 239 279
#     4  10  20  35  53  71  95 127 159 195 241 283
#     4  10  20  35  53  71  96 126 159 197 238 285
#
# _framework density 15.923325
#
# number of rings (size 3 to 8) (size 9 to 14) (size 15 to 20)
#    0.000    2.000    1.250    3.000    7.000    5.000 
#    0.000    0.000    0.000    0.000    0.000    0.000 
#    0.000    2.000    0.000    0.125    0.000    0.125 
#
# Total GULP energy -793093.587858 kJ/mol
# GULP energy per Si atom -12392.087310 kJ/mol
# Density = 1.588708 g / cm^3
# Si number density = 15.923325 Si / 1000 Ang^3
#
#
#
# Elastic Constant Matrix: (Units=GPa)
#
#
# Indices 1 2 3 4 5 6 
#
# 1 115.3902 46.7173 66.8699 0.0000 0.0000 0.0000
# 2 46.7173 83.3510 54.3105 0.0000 0.0000 0.0000
# 3 66.8699 54.3105 143.7845 0.0000 0.0000 0.0000
# 4 0.0000 0.0000 0.0000 25.4100 0.0000 0.0000
# 5 0.0000 0.0000 0.0000 0.0000 30.2658 0.0000
# 6 0.0000 0.0000 0.0000 0.0000 0.0000 28.6897
#
#
#
# Elastic Compliance Matrix: (Units=1/GPa)
#
#
# Indices 1 2 3 4 5 6 
#
# 1 0.012993 -0.004437 -0.004367 0.000000 0.000000 0.000000
# 2 -0.004437 0.017430 -0.004520 0.000000 0.000000 0.000000
# 3 -0.004367 -0.004520 0.010693 0.000000 0.000000 0.000000
# 4 0.000000 0.000000 0.000000 0.039355 0.000000 0.000000
# 5 0.000000 0.000000 0.000000 0.000000 0.033041 0.000000
# 6 0.000000 0.000000 0.000000 0.000000 0.000000 0.034856
#
#
# Mechanical properties :
#
#
# Convention : Reuss Voigt Hill
#
# Bulk Modulus (GPa) = 69.11786 75.36901 72.24344
# Shear Modulus (GPa) = 27.80292 28.51498 28.15895
#
# Velocity S-wave (km/s) = 4.18311 4.23634 4.20981
# Velocity P-wave (km/s) = 8.17509 8.44772 8.31252
#
# Compressibility (1/GPa) = 0.01446804
#
# Stress axis : x y z
#
# Youngs Moduli (GPa) = 76.96262 57.37360 93.51946
#
# Poissons Ratio (x) = 0.25458 0.40838
# Poissons Ratio (y) = 0.34151 0.42270
# Poissons Ratio (z) = 0.33608 0.25932
#
# Static dielectric constant tensor:
#      x y z
#    x 3.265240 0.000000 0.000000 
#    y 0.000000 2.693460 0.000000 
#    z 0.000000 0.000000 12.760090 
# 
# 
# High freq. dielectric constant tensor:
#      x y z
#    x 1.618150 0.000000 0.000000 
#    y 0.000000 1.558640 0.000000 
#    z 0.000000 0.000000 1.638890 
# 
# From -- ./inp_files/8487.got.cif
#   From: 2010.03.12/outbox.cif.g09.slc.cpg/sg60_5_cif.got.tgz:8487.got - 2010.04.10 18:46:24.
