data_PCOD8246499
_publ_section_title
;
Structure prediction by ZEFSAII (Michael W. Deem and Ramdas Pophale) SiO2 
 PCOD8246499
Probable space group: P B C N
;
_chemical_formula_sum "Si O2"
_cell_formula_units_Z 48
_cell_length_a 20.923505
_cell_length_b 9.947415
_cell_length_c 8.650419
_cell_angle_alpha 90.000000
_cell_angle_beta 90.000000
_cell_angle_gamma 90.000000
_cell_volume 1800.453120
_symmetry_space_group_name_H-M "P B C N"
_symmetry_group_IT_number 60
_symmetry_cell_setting 'orthorhombic'
loop_
_space_group_symop_operation_xyz
x,y,z
1/2-x,1/2-y,1/2+z
1/2+x,1/2-y,-z
-x,y,1/2-z
-x,-y,-z
1/2+x,1/2+y,1/2-z
1/2-x,1/2+y,z
x,-y,1/2+z
loop_
_atom_site_type_symbol
_atom_site_label
_atom_site_fract_x
_atom_site_fract_y
_atom_site_fract_z
Si Si1 0.590544 0.640569 0.504576
Si Si2 0.586880 0.175220 0.510531
Si Si3 0.202203 0.242073 0.648797
Si Si4 0.000000 0.759770 0.250000
Si Si5 0.160542 0.596065 0.430660
Si Si6 0.278705 0.572886 0.941608
Si Si7 0.000000 0.814768 0.750000
O O1 0.550722 0.644107 0.663531
O O2 0.625323 0.785419 0.474999
O O3 0.647944 0.531972 0.519854
O O4 0.542485 0.596236 0.368048
O O5 0.643159 0.283444 0.469725
O O6 0.535923 0.162601 0.370808
O O7 0.549842 0.223711 0.660128
O O8 0.616679 0.033356 0.557396
O O9 0.170193 0.360593 0.753336
O O10 0.224385 0.118980 0.760284
O O11 0.261740 0.298240 0.549353
O O12 0.233871 0.554419 0.483512
#
# Coordination Sequence:
#
# PCOD8246499 Si02
#       7
#     8   8   8   4   8   8   4
#     4  10  22  39  60  95 128 163 209 248 316 377
#     4  10  21  35  54  83 125 164 201 246 306 374
#     4  10  22  40  56  86 121 165 206 261 307 371
#     4  10  18  39  58  84 125 168 198 245 306 378
#     4  10  22  36  58  87 129 160 203 252 313 368
#     4  10  22  38  63  82 128 165 209 260 306 374
#     4  10  24  33  62  90 129 172 196 257 310 388
#
# _framework density 26.659956000000001
#
# number of rings (size 3 to 8) (size 9 to 14) (size 15 to 20)
#    0.000    2.000    3.333    0.000    9.333    6.667 
#    0.000    0.000    0.000    0.000    0.000    3.500 
#    0.000    0.000    0.000    0.000    0.000    0.000 
#
# Total GULP energy -594705.096803 kJ/mol
# GULP energy per Si atom -12389.689517 kJ/mol
# Density = 2.659928 g / cm^3
# Si number density = 26.659956 Si / 1000 Ang^3
#
#
#
# Elastic Constant Matrix: (Units=GPa)
#
#
# Indices 1 2 3 4 5 6 
#
# 1 166.5489 3.0668 49.4399 0.0000 0.0000 0.0000
# 2 3.0668 50.4617 10.6126 0.0000 0.0000 0.0000
# 3 49.4399 10.6126 119.5751 0.0000 0.0000 0.0000
# 4 0.0000 0.0000 0.0000 11.3871 0.0000 0.0000
# 5 0.0000 0.0000 0.0000 0.0000 54.6096 0.0000
# 6 0.0000 0.0000 0.0000 0.0000 0.0000 18.4849
#
#
#
# Elastic Compliance Matrix: (Units=1/GPa)
#
#
# Indices 1 2 3 4 5 6 
#
# 1 0.006846 0.000183 -0.002847 0.000000 0.000000 0.000000
# 2 0.000183 0.020199 -0.001868 0.000000 0.000000 0.000000
# 3 -0.002847 -0.001868 0.009706 0.000000 0.000000 0.000000
# 4 0.000000 0.000000 0.000000 0.087818 0.000000 0.000000
# 5 0.000000 0.000000 0.000000 0.000000 0.018312 0.000000
# 6 0.000000 0.000000 0.000000 0.000000 0.000000 0.054098
#
#
# Mechanical properties :
#
#
# Convention : Reuss Voigt Hill
#
# Bulk Modulus (GPa) = 36.11947 51.42491 43.77219
# Shear Modulus (GPa) = 23.22642 35.12744 29.17693
#
# Velocity S-wave (km/s) = 2.95483 3.63383 3.31178
# Velocity P-wave (km/s) = 5.02185 6.07761 5.57478
#
# Compressibility (1/GPa) = 0.02768590
#
# Stress axis : x y z
#
# Youngs Moduli (GPa) = 146.07209 49.50785 103.03142
#
# Poissons Ratio (x) = -0.00904 0.29330
# Poissons Ratio (y) = -0.02668 0.19248
# Poissons Ratio (z) = 0.41583 0.09249
#
# Static dielectric constant tensor:
#      x y z
#    x 5.538770 0.000000 0.000000 
#    y 0.000000 4.181380 0.000000 
#    z 0.000000 0.000000 5.011780 
# 
# 
# High freq. dielectric constant tensor:
#      x y z
#    x 2.105030 0.000000 0.000000 
#    y 0.000000 2.038310 0.000000 
#    z 0.000000 0.000000 2.075480 
# 
# From -- ./inp_files/7332.got.cif
#   From: 2010.03.12/outbox.cif.g09.slc.cpg/sg60_4_cif.got.tgz:7332.got - 2010.04.10 18:46:24.
