data_PCOD8246662
_publ_section_title
;
Structure prediction by ZEFSAII (Michael W. Deem and Ramdas Pophale) SiO2 
 PCOD8246662
Probable space group: P B C N
;
_chemical_formula_sum "Si O2"
_cell_formula_units_Z 32
_cell_length_a 7.896449
_cell_length_b 34.084114
_cell_length_c 4.976846
_cell_angle_alpha 90.000000
_cell_angle_beta 90.000000
_cell_angle_gamma 90.000000
_cell_volume 1339.485592
_symmetry_space_group_name_H-M "P B C N"
_symmetry_group_IT_number 60
_symmetry_cell_setting 'orthorhombic'
loop_
_space_group_symop_operation_xyz
x,y,z
1/2-x,1/2-y,1/2+z
1/2+x,1/2-y,-z
-x,y,1/2-z
-x,-y,-z
1/2+x,1/2+y,1/2-z
1/2-x,1/2+y,z
x,-y,1/2+z
loop_
_atom_site_type_symbol
_atom_site_label
_atom_site_fract_x
_atom_site_fract_y
_atom_site_fract_z
Si Si1 0.688218 0.481762 0.522377
Si Si2 0.816975 0.350708 0.120218
Si Si3 0.811193 0.229128 0.359328
Si Si4 0.319607 0.609685 0.366884
O O1 0.500000 0.500000 0.500000
O O2 0.787058 0.504953 0.756507
O O3 0.687886 0.435615 0.558201
O O4 0.697979 0.365330 0.361719
O O5 0.000000 0.346354 0.250000
O O6 0.753889 0.309898 0.001472
O O7 0.817629 0.380999 0.867789
O O8 0.804442 0.261893 0.596180
O O9 0.000000 0.224954 0.250000
O O10 0.500000 0.621994 0.250000
#
# Coordination Sequence:
#
# PCOD8246662 Si02
#       4
#     8   8   8   8
#     4  10  19  35  63 105 136 178 243 309 376 422
#     4  12  28  49  70 104 155 201 239 296 389 444
#     4  12  27  51  79 111 147 191 247 300 365 444
#     4  12  24  42  74 108 141 188 256 318 357 438
#
# _framework density 23.889766000000002
#
# number of rings (size 3 to 8) (size 9 to 14) (size 15 to 20)
#    0.000    0.500    2.500    6.750    3.500    4.000 
#    0.000    1.250    0.000   15.000    0.000    0.000 
#    0.000    0.000    0.000    0.000    0.000    0.000 
#
# Total GULP energy -396592.468232 kJ/mol
# GULP energy per Si atom -12393.514632 kJ/mol
# Density = 2.383539 g / cm^3
# Si number density = 23.889766 Si / 1000 Ang^3
#
#
#
# Elastic Constant Matrix: (Units=GPa)
#
#
# Indices 1 2 3 4 5 6 
#
# 1 93.3492 73.3049 55.6505 0.0000 0.0000 0.0000
# 2 73.3049 165.0959 87.7642 0.0000 0.0000 0.0000
# 3 55.6505 87.7642 234.7957 0.0000 0.0000 0.0000
# 4 0.0000 0.0000 0.0000 27.7809 0.0000 0.0000
# 5 0.0000 0.0000 0.0000 0.0000 47.0771 0.0000
# 6 0.0000 0.0000 0.0000 0.0000 0.0000 19.0423
#
#
#
# Elastic Compliance Matrix: (Units=1/GPa)
#
#
# Indices 1 2 3 4 5 6 
#
# 1 0.016857 -0.006690 -0.001495 0.000000 0.000000 0.000000
# 2 -0.006690 0.010214 -0.002232 0.000000 0.000000 0.000000
# 3 -0.001495 -0.002232 0.005448 0.000000 0.000000 0.000000
# 4 0.000000 0.000000 0.000000 0.035996 0.000000 0.000000
# 5 0.000000 0.000000 0.000000 0.000000 0.021242 0.000000
# 6 0.000000 0.000000 0.000000 0.000000 0.000000 0.052515
#
#
# Mechanical properties :
#
#
# Convention : Reuss Voigt Hill
#
# Bulk Modulus (GPa) = 85.58177 102.96445 94.27311
# Shear Modulus (GPa) = 29.93991 37.21481 33.57736
#
# Velocity S-wave (km/s) = 3.54397 3.95114 3.75308
# Velocity P-wave (km/s) = 7.25587 8.00055 7.63729
#
# Compressibility (1/GPa) = 0.01168473
#
# Stress axis : x y z
#
# Youngs Moduli (GPa) = 59.32171 97.90152 183.56362
#
# Poissons Ratio (x) = 0.65499 0.27437
# Poissons Ratio (y) = 0.39688 0.40977
# Poissons Ratio (z) = 0.08867 0.21855
#
# Static dielectric constant tensor:
#      x y z
#    x 4.089090 0.000000 0.000000 
#    y 0.000000 4.356450 0.000000 
#    z 0.000000 0.000000 5.427260 
# 
# 
# High freq. dielectric constant tensor:
#      x y z
#    x 1.915910 0.000000 0.000000 
#    y 0.000000 1.955860 0.000000 
#    z 0.000000 0.000000 1.998720 
# 
# From -- ./inp_files/365.got.cif
#   From: 2010.03.12/outbox.cif.g09.slc.cpg/sg60_1_cif.got.tgz:365.got - 2010.04.10 18:46:24.
