data_PCOD8246053
_publ_section_title
;
Structure prediction by ZEFSAII (Michael W. Deem and Ramdas Pophale) SiO2 
 PCOD8246053
Probable space group: P M M N
;
_chemical_formula_sum "Si O2"
_cell_formula_units_Z 64
_cell_length_a 8.580398
_cell_length_b 29.605370
_cell_length_c 12.681777
_cell_angle_alpha 90.000000
_cell_angle_beta 90.000000
_cell_angle_gamma 90.000000
_cell_volume 3221.499278
_symmetry_space_group_name_H-M "P M M N"
_symmetry_group_IT_number 59
_space_group.IT_coordinate_system_code '2'
_symmetry_cell_setting 'orthorhombic'
loop_
_space_group_symop_operation_xyz
x,y,z
1/2-x,1/2-y,z
1/2+x,-y,-z
-x,1/2+y,-z
-x,-y,-z
1/2+x,1/2+y,-z
1/2-x,y,z
x,1/2-y,z
loop_
_atom_site_type_symbol
_atom_site_label
_atom_site_fract_x
_atom_site_fract_y
_atom_site_fract_z
Si Si1 0.427930 0.827954 0.337837
Si Si2 0.566246 0.607400 0.616600
Si Si3 0.434759 0.031966 0.807407
Si Si4 0.569796 0.200488 0.432014
Si Si5 0.434449 0.894119 0.036405
Si Si6 0.566308 0.935821 0.832080
Si Si7 0.069251 0.081958 0.607444
Si Si8 0.432234 0.798304 0.110874
O O1 0.250000 0.845598 0.334662
O O2 0.459317 0.799018 0.442443
O O3 0.539768 0.871021 0.334207
O O4 0.466577 0.798391 0.235889
O O5 0.750000 0.603987 0.610964
O O6 0.523142 0.660314 0.624657
O O7 0.504089 0.580917 0.718385
O O8 0.492198 0.584002 0.510406
O O9 0.250000 0.023678 0.812841
O O10 0.477142 0.072819 0.884267
O O11 0.491557 0.042853 0.686835
O O12 0.526157 0.988192 0.846848
O O13 0.750000 0.192813 0.405780
O O14 0.515269 0.250000 0.390157
O O15 0.250000 0.897364 0.057526
O O16 0.500154 0.843099 0.054857
O O17 0.473746 0.906672 0.917105
O O18 0.750000 0.928420 0.846411
O O19 0.250000 0.074407 0.592142
O O20 0.250000 0.798179 0.088692
O O21 0.502057 0.750000 0.068560
#
# Coordination Sequence:
#
# PCOD8246053 Si02
#       8
#     8   8   8   8   8   8   8   8
#     4   9  15  27  49  78 112 145 176 214 264 322
#     4   9  20  38  56  77 109 149 186 225 274 330
#     4  11  22  37  60  87 114 141 177 227 283 336
#     4   9  17  29  50  81 112 143 182 228 272 319
#     4  11  22  38  60  84 113 146 186 228 273 325
#     4  11  24  41  59  78 106 145 191 235 277 325
#     4   9  18  33  54  81 114 144 172 216 272 326
#     4   9  17  30  52  82 112 142 177 218 267 323
#
# _framework density 19.866527000000001
#
# number of rings (size 3 to 8) (size 9 to 14) (size 15 to 20)
#    0.000    2.250    1.250    1.875    0.000    3.750 
#    0.000    0.625    0.000    6.375    0.000    0.000 
#    0.000    0.000    0.000    0.000    0.000    0.000 
#
# Total GULP energy -793147.785161 kJ/mol
# GULP energy per Si atom -12392.934143 kJ/mol
# Density = 1.982131 g / cm^3
# Si number density = 19.866527 Si / 1000 Ang^3
#
#
#
# Elastic Constant Matrix: (Units=GPa)
#
#
# Indices 1 2 3 4 5 6 
#
# 1 20.5734 7.1760 14.0241 0.0000 0.0000 0.0000
# 2 7.1760 132.5118 56.2756 0.0000 0.0000 0.0000
# 3 14.0241 56.2756 93.4005 0.0000 0.0000 0.0000
# 4 0.0000 0.0000 0.0000 18.5100 0.0000 0.0000
# 5 0.0000 0.0000 0.0000 0.0000 20.6073 0.0000
# 6 0.0000 0.0000 0.0000 0.0000 0.0000 23.2026
#
#
#
# Elastic Compliance Matrix: (Units=1/GPa)
#
#
# Indices 1 2 3 4 5 6 
#
# 1 0.054197 0.000700 -0.008560 0.000000 0.000000 0.000000
# 2 0.000700 0.010151 -0.006221 0.000000 0.000000 0.000000
# 3 -0.008560 -0.006221 0.015740 0.000000 0.000000 0.000000
# 4 0.000000 0.000000 0.000000 0.054025 0.000000 0.000000
# 5 0.000000 0.000000 0.000000 0.000000 0.048526 0.000000
# 6 0.000000 0.000000 0.000000 0.000000 0.000000 0.043099
#
#
# Mechanical properties :
#
#
# Convention : Reuss Voigt Hill
#
# Bulk Modulus (GPa) = 19.25792 44.60413 31.93102
# Shear Modulus (GPa) = 18.43611 23.73135 21.08373
#
# Velocity S-wave (km/s) = 3.04961 3.45996 3.26125
# Velocity P-wave (km/s) = 4.70265 6.20181 5.50351
#
# Compressibility (1/GPa) = 0.05192669
#
# Stress axis : x y z
#
# Youngs Moduli (GPa) = 18.45125 98.51680 63.53207
#
# Poissons Ratio (x) = -0.06898 0.54380
# Poissons Ratio (y) = -0.01292 0.39524
# Poissons Ratio (z) = 0.15793 0.61288
#
# Static dielectric constant tensor:
#      x y z
#    x 3.357320 0.000000 0.000000 
#    y 0.000000 3.832520 0.000000 
#    z 0.000000 0.000000 3.837510 
# 
# 
# High freq. dielectric constant tensor:
#      x y z
#    x 1.749550 0.000000 0.000000 
#    y 0.000000 1.778460 0.000000 
#    z 0.000000 0.000000 1.766320 
# 
# From -- ./inp_files/15029.got.cif
#   From: 2010.03.12/outbox.cif.g09.slc.cpg/sg59_8_cif.got.tgz:15029.got - 2010.04.16 16:29:54.
