data_PCOD8246315
_publ_section_title
;
Structure prediction by ZEFSAII (Michael W. Deem and Ramdas Pophale) SiO2 
 PCOD8246315
Probable space group: P B C N
;
_chemical_formula_sum "Si O2"
_cell_formula_units_Z 52
_cell_length_a 23.102113
_cell_length_b 25.830260
_cell_length_c 5.388098
_cell_angle_alpha 90.000000
_cell_angle_beta 90.000000
_cell_angle_gamma 90.000000
_cell_volume 3215.259038
_symmetry_space_group_name_H-M "P B C N"
_symmetry_group_IT_number 60
_symmetry_cell_setting 'orthorhombic'
loop_
_space_group_symop_operation_xyz
x,y,z
1/2-x,1/2-y,1/2+z
1/2+x,1/2-y,-z
-x,y,1/2-z
-x,-y,-z
1/2+x,1/2+y,1/2-z
1/2-x,1/2+y,z
x,-y,1/2+z
loop_
_atom_site_type_symbol
_atom_site_label
_atom_site_fract_x
_atom_site_fract_y
_atom_site_fract_z
Si Si1 0.452029 0.123339 0.433744
Si Si2 0.879480 0.757292 0.684510
Si Si3 0.209414 0.665487 0.807009
Si Si4 0.500000 0.212841 0.750000
Si Si5 0.826816 0.349677 0.695130
Si Si6 0.172139 0.773056 0.313265
Si Si7 0.935766 0.478136 0.293851
O O1 0.500000 0.098355 0.250000
O O2 0.476733 0.177584 0.527314
O O3 0.393493 0.134258 0.283797
O O4 0.438230 0.083706 0.659114
O O5 0.847829 0.701679 0.691301
O O6 0.861188 0.789603 0.438954
O O7 0.948091 0.749246 0.659330
O O8 0.863559 0.788529 0.937794
O O9 0.203919 0.629742 0.558842
O O10 0.266486 0.699383 0.812372
O O11 0.205465 0.629831 0.055559
O O12 0.816853 0.288002 0.689368
O O13 0.904582 0.507045 0.530556
O O14 0.000000 0.501041 0.250000
#
# Coordination Sequence:
#
# PCOD8246315 Si02
#       7
#     8   8   8   4   8   8   8
#     4  12  22  31  46  58  82 103 124 167 214 254
#     4  10  19  28  39  56  77 100 125 149 196 240
#     4  10  17  30  43  57  76  96 127 154 183 239
#     4  12  22  30  40  62  86 102 126 168 212 260
#     4  10  19  28  40  62  73  93 123 149 198 239
#     4  10  17  30  43  55  75 100 127 153 182 240
#     4  10  21  35  46  58  72  98 135 164 198 253
#
# _framework density 16.172878999999998
#
# number of rings (size 3 to 8) (size 9 to 14) (size 15 to 20)
#    0.000    1.538    3.846    7.846    0.000    0.000 
#    0.000    0.000    0.000    0.000    0.000    0.000 
#    0.000    0.000    0.000    0.000    0.000    0.000 
#
# Total GULP energy -644323.821775 kJ/mol
# GULP energy per Si atom -12390.842726 kJ/mol
# Density = 1.613607 g / cm^3
# Si number density = 16.172879 Si / 1000 Ang^3
#
#
#
# Elastic Constant Matrix: (Units=GPa)
#
#
# Indices 1 2 3 4 5 6 
#
# 1 84.7653 22.9012 37.4416 0.0000 0.0000 0.0000
# 2 22.9012 15.8332 15.7999 0.0000 0.0000 0.0000
# 3 37.4416 15.7999 171.0046 0.0000 0.0000 0.0000
# 4 0.0000 0.0000 0.0000 10.2487 0.0000 0.0000
# 5 0.0000 0.0000 0.0000 0.0000 23.0101 0.0000
# 6 0.0000 0.0000 0.0000 0.0000 0.0000 1.6895
#
#
#
# Elastic Compliance Matrix: (Units=1/GPa)
#
#
# Indices 1 2 3 4 5 6 
#
# 1 0.019893 -0.026907 -0.001869 0.000000 0.000000 0.000000
# 2 -0.026907 0.105968 -0.003900 0.000000 0.000000 0.000000
# 3 -0.001869 -0.003900 0.006617 0.000000 0.000000 0.000000
# 4 0.000000 0.000000 0.000000 0.097574 0.000000 0.000000
# 5 0.000000 0.000000 0.000000 0.000000 0.043459 0.000000
# 6 0.000000 0.000000 0.000000 0.000000 0.000000 0.591888
#
#
# Mechanical properties :
#
#
# Convention : Reuss Voigt Hill
#
# Bulk Modulus (GPa) = 14.89739 47.09875 30.99807
# Shear Modulus (GPa) = 5.24589 20.02035 12.63312
#
# Velocity S-wave (km/s) = 1.80296 3.52219 2.79790
# Velocity P-wave (km/s) = 3.68315 6.76213 5.44481
#
# Compressibility (1/GPa) = 0.06712587
#
# Stress axis : x y z
#
# Youngs Moduli (GPa) = 50.26996 9.43679 151.11672
#
# Poissons Ratio (x) = 0.25392 0.28250
# Poissons Ratio (y) = 1.35262 0.58929
# Poissons Ratio (z) = 0.09398 0.03680
#
# Static dielectric constant tensor:
#      x y z
#    x 2.915610 0.000000 0.000000 
#    y 0.000000 2.431870 0.000000 
#    z 0.000000 0.000000 4.611990 
# 
# 
# High freq. dielectric constant tensor:
#      x y z
#    x 1.593760 0.000000 0.000000 
#    y 0.000000 1.530250 0.000000 
#    z 0.000000 0.000000 1.667040 
# 
# From -- ./inp_files/1818.got.cif
#   From: 2010.03.12/outbox.cif.g09.slc.cpg/sg60_1_cif.got.tgz:1818.got - 2010.04.10 18:46:24.
