data_PCOD8246742
_publ_section_title
;
Structure prediction by ZEFSAII (Michael W. Deem and Ramdas Pophale) SiO2 
 PCOD8246742
Probable space group: P B C N
;
_chemical_formula_sum "Si O2"
_cell_formula_units_Z 64
_cell_length_a 15.873124
_cell_length_b 22.220352
_cell_length_c 8.821175
_cell_angle_alpha 90.000000
_cell_angle_beta 90.000000
_cell_angle_gamma 90.000000
_cell_volume 3111.284901
_symmetry_space_group_name_H-M "P B C N"
_symmetry_group_IT_number 60
_symmetry_cell_setting 'orthorhombic'
loop_
_space_group_symop_operation_xyz
x,y,z
1/2-x,1/2-y,1/2+z
1/2+x,1/2-y,-z
-x,y,1/2-z
-x,-y,-z
1/2+x,1/2+y,1/2-z
1/2-x,1/2+y,z
x,-y,1/2+z
loop_
_atom_site_type_symbol
_atom_site_label
_atom_site_fract_x
_atom_site_fract_y
_atom_site_fract_z
Si Si1 0.140930 0.468161 0.907829
Si Si2 0.247265 0.684660 0.167619
Si Si3 0.197366 0.087010 0.516464
Si Si4 0.200355 0.694932 0.518828
Si Si5 0.460083 0.127125 0.582234
Si Si6 0.091932 0.124589 0.251949
Si Si7 0.437828 0.492842 0.136704
Si Si8 0.116503 0.586849 0.082292
O O1 0.106177 0.448972 0.741975
O O2 0.240361 0.452352 0.909900
O O3 0.094327 0.432368 0.043663
O O4 0.128717 0.538835 0.944632
O O5 0.210717 0.691404 0.337036
O O6 0.344377 0.665097 0.157280
O O7 0.193030 0.634127 0.082173
O O8 0.250117 0.747271 0.079059
O O9 0.251328 0.138804 0.599207
O O10 0.124601 0.120381 0.422880
O O11 0.149510 0.043024 0.629804
O O12 0.100955 0.686221 0.561160
O O13 0.500000 0.125602 0.750000
O O14 0.534591 0.127161 0.456859
O O15 0.000000 0.155518 0.250000
O O16 0.089565 0.058170 0.187468
O O17 0.500000 0.458066 0.250000
O O18 0.500000 0.500000 0.000000
#
# Coordination Sequence:
#
# PCOD8246742 Si02
#       8
#     8   8   8   8   8   8   8   8
#     4  11  23  40  68 102 137 181 217 281 356 421
#     4  11  24  47  67  96 132 186 224 289 331 393
#     4  10  20  41  61  89 135 170 217 269 330 397
#     4  10  25  47  69  92 134 178 235 277 330 398
#     4  11  24  44  69 103 136 178 228 283 345 417
#     4  10  19  38  63  90 126 168 210 268 334 385
#     4  11  20  35  60  93 130 164 207 268 329 397
#     4  12  23  43  71 101 143 177 225 286 351 413
#
# _framework density 20.57028
#
# number of rings (size 3 to 8) (size 9 to 14) (size 15 to 20)
#    0.000    1.250    6.250    2.250    1.750    0.500 
#    4.500    0.000    0.000    0.000    0.000    0.000 
#    0.000    0.000    0.000    0.000    0.000    0.000 
#
# Total GULP energy -792873.472226 kJ/mol
# GULP energy per Si atom -12388.648004 kJ/mol
# Density = 2.052346 g / cm^3
# Si number density = 20.570280 Si / 1000 Ang^3
#
#
#
# Elastic Constant Matrix: (Units=GPa)
#
#
# Indices 1 2 3 4 5 6 
#
# 1 145.6298 42.5352 55.3611 0.0000 0.0000 0.0000
# 2 42.5352 101.7995 35.6996 0.0000 0.0000 0.0000
# 3 55.3611 35.6996 93.0930 0.0000 0.0000 0.0000
# 4 0.0000 0.0000 0.0000 26.9028 0.0000 0.0000
# 5 0.0000 0.0000 0.0000 0.0000 30.4912 0.0000
# 6 0.0000 0.0000 0.0000 0.0000 0.0000 33.9596
#
#
#
# Elastic Compliance Matrix: (Units=1/GPa)
#
#
# Indices 1 2 3 4 5 6 
#
# 1 0.009298 -0.002248 -0.004667 0.000000 0.000000 0.000000
# 2 -0.002248 0.011893 -0.003224 0.000000 0.000000 0.000000
# 3 -0.004667 -0.003224 0.014754 0.000000 0.000000 0.000000
# 4 0.000000 0.000000 0.000000 0.037171 0.000000 0.000000
# 5 0.000000 0.000000 0.000000 0.000000 0.032796 0.000000
# 6 0.000000 0.000000 0.000000 0.000000 0.000000 0.029447
#
#
# Mechanical properties :
#
#
# Convention : Reuss Voigt Hill
#
# Bulk Modulus (GPa) = 63.83135 67.52378 65.67756
# Shear Modulus (GPa) = 31.08324 32.06581 31.57452
#
# Velocity S-wave (km/s) = 3.89147 3.95250 3.92210
# Velocity P-wave (km/s) = 7.16168 7.32986 7.24626
#
# Compressibility (1/GPa) = 0.01566628
#
# Stress axis : x y z
#
# Youngs Moduli (GPa) = 107.55568 84.08193 67.77997
#
# Poissons Ratio (x) = 0.18903 0.31633
# Poissons Ratio (y) = 0.24180 0.21851
# Poissons Ratio (z) = 0.50196 0.27107
#
# Static dielectric constant tensor:
#      x y z
#    x 4.066220 0.000000 0.000000 
#    y 0.000000 3.632590 0.000000 
#    z 0.000000 0.000000 3.455990 
# 
# 
# High freq. dielectric constant tensor:
#      x y z
#    x 1.827250 0.000000 0.000000 
#    y 0.000000 1.787680 0.000000 
#    z 0.000000 0.000000 1.790310 
# 
# From -- ./inp_files/6311.got.cif
#   From: 2010.03.12/outbox.cif.g09.slc.cpg/sg60_4_cif.got.tgz:6311.got - 2010.04.10 18:46:24.
