data_PCOD8246780
_publ_section_title
;
Structure prediction by ZEFSAII (Michael W. Deem and Ramdas Pophale) SiO2 
 PCOD8246780
Probable space group: P B C N
;
_chemical_formula_sum "Si O2"
_cell_formula_units_Z 36
_cell_length_a 9.538121
_cell_length_b 11.578452
_cell_length_c 14.184100
_cell_angle_alpha 90.000000
_cell_angle_beta 90.000000
_cell_angle_gamma 90.000000
_cell_volume 1566.444858
_symmetry_space_group_name_H-M "P B C N"
_symmetry_group_IT_number 60
_symmetry_cell_setting 'orthorhombic'
loop_
_space_group_symop_operation_xyz
x,y,z
1/2-x,1/2-y,1/2+z
1/2+x,1/2-y,-z
-x,y,1/2-z
-x,-y,-z
1/2+x,1/2+y,1/2-z
1/2-x,1/2+y,z
x,-y,1/2+z
loop_
_atom_site_type_symbol
_atom_site_label
_atom_site_fract_x
_atom_site_fract_y
_atom_site_fract_z
Si Si1 0.500000 0.354850 0.250000
Si Si2 0.874262 0.045684 0.377289
Si Si3 0.189237 0.635057 0.561959
Si Si4 0.284185 0.255953 0.751280
Si Si5 0.068761 0.238368 0.446441
O O1 0.458011 0.434051 0.161034
O O2 0.375727 0.268653 0.281107
O O3 0.746890 0.996156 0.443995
O O4 0.808252 0.114523 0.288576
O O5 0.975251 0.121450 0.442893
O O6 0.170124 0.665832 0.671632
O O7 0.301499 0.724524 0.516636
O O8 0.034558 0.657458 0.517091
O O9 0.381051 0.236132 0.841039
#
# Coordination Sequence:
#
# PCOD8246780 Si02
#       5
#     4   8   8   8   8
#     4  10  20  38  70  94 124 176 218 266 332 382
#     4  10  19  42  62  93 129 179 216 266 335 385
#     4  10  23  38  66  95 129 175 221 266 332 390
#     4  10  22  41  66  92 133 171 225 264 330 395
#     4  11  22  43  66  94 136 176 218 279 326 393
#
# _framework density 22.981977000000001
#
# number of rings (size 3 to 8) (size 9 to 14) (size 15 to 20)
#    0.000    1.778    2.222    2.667    6.222    0.000 
#    8.000    4.444    0.000    0.000    0.000    0.000 
#    0.000    0.000    0.000    0.000    0.000    0.000 
#
# Total GULP energy -446161.417074 kJ/mol
# GULP energy per Si atom -12393.372697 kJ/mol
# Density = 2.292967 g / cm^3
# Si number density = 22.981977 Si / 1000 Ang^3
#
#
#
# Elastic Constant Matrix: (Units=GPa)
#
#
# Indices 1 2 3 4 5 6 
#
# 1 126.5019 36.4936 4.5675 0.0000 0.0000 0.0000
# 2 36.4936 41.0636 3.7582 0.0000 0.0000 0.0000
# 3 4.5675 3.7582 42.1727 0.0000 0.0000 0.0000
# 4 0.0000 0.0000 0.0000 17.1408 0.0000 0.0000
# 5 0.0000 0.0000 0.0000 0.0000 30.5927 0.0000
# 6 0.0000 0.0000 0.0000 0.0000 0.0000 35.7383
#
#
#
# Elastic Compliance Matrix: (Units=1/GPa)
#
#
# Indices 1 2 3 4 5 6 
#
# 1 0.010634 -0.009422 -0.000312 0.000000 0.000000 0.000000
# 2 -0.009422 0.032901 -0.001911 0.000000 0.000000 0.000000
# 3 -0.000312 -0.001911 0.023916 0.000000 0.000000 0.000000
# 4 0.000000 0.000000 0.000000 0.058340 0.000000 0.000000
# 5 0.000000 0.000000 0.000000 0.000000 0.032688 0.000000
# 6 0.000000 0.000000 0.000000 0.000000 0.000000 0.027981
#
#
# Mechanical properties :
#
#
# Convention : Reuss Voigt Hill
#
# Bulk Modulus (GPa) = 22.64498 33.26408 27.95453
# Shear Modulus (GPa) = 22.27442 27.68897 24.98170
#
# Velocity S-wave (km/s) = 3.11660 3.47481 3.30056
# Velocity P-wave (km/s) = 4.77762 5.53213 5.16866
#
# Compressibility (1/GPa) = 0.04415990
#
# Stress axis : x y z
#
# Youngs Moduli (GPa) = 94.03363 30.39404 41.81268
#
# Poissons Ratio (x) = 0.28639 0.01305
# Poissons Ratio (y) = 0.88602 0.07992
# Poissons Ratio (z) = 0.02935 0.05810
#
# Static dielectric constant tensor:
#      x y z
#    x 4.792220 0.000000 0.000000 
#    y 0.000000 4.162230 0.000000 
#    z 0.000000 0.000000 3.862140 
# 
# 
# High freq. dielectric constant tensor:
#      x y z
#    x 1.924100 0.000000 0.000000 
#    y 0.000000 1.887920 0.000000 
#    z 0.000000 0.000000 1.891200 
# 
# From -- ./inp_files/19124.got.cif
#   From: 2010.03.12/outbox.cif.g09.slc.cpg/sg60_10_cif.got.tgz:19124.got - 2010.04.10 18:46:24.
