data_PCOD8246145
_publ_section_title
;
Structure prediction by ZEFSAII (Michael W. Deem and Ramdas Pophale) SiO2 
 PCOD8246145
Probable space group: P M M N
;
_chemical_formula_sum "Si O2"
_cell_formula_units_Z 64
_cell_length_a 9.609736
_cell_length_b 13.957085
_cell_length_c 29.236588
_cell_angle_alpha 90.000000
_cell_angle_beta 90.000000
_cell_angle_gamma 90.000000
_cell_volume 3921.325269
_symmetry_space_group_name_H-M "P M M N"
_symmetry_group_IT_number 59
_space_group.IT_coordinate_system_code '2'
_symmetry_cell_setting 'orthorhombic'
loop_
_space_group_symop_operation_xyz
x,y,z
1/2-x,1/2-y,z
1/2+x,-y,-z
-x,1/2+y,-z
-x,-y,-z
1/2+x,1/2+y,-z
1/2-x,y,z
x,1/2-y,z
loop_
_atom_site_type_symbol
_atom_site_label
_atom_site_fract_x
_atom_site_fract_y
_atom_site_fract_z
Si Si1 0.592993 0.636568 0.069904
Si Si2 0.584583 0.642539 0.349443
Si Si3 0.415517 0.462375 0.839391
Si Si4 0.915327 0.145393 0.112255
Si Si5 0.405099 0.635615 0.988494
Si Si6 0.588987 0.638939 0.522936
Si Si7 0.587950 0.518751 0.433160
Si Si8 0.915460 0.642301 0.248308
O O1 0.750000 0.598146 0.064075
O O2 0.587242 0.750000 0.069465
O O3 0.530687 0.602213 0.118422
O O4 0.506109 0.592882 0.027503
O O5 0.750000 0.646056 0.352336
O O6 0.527434 0.750000 0.359300
O O7 0.529100 0.567141 0.386781
O O8 0.535436 0.608444 0.298824
O O9 0.250000 0.455152 0.836820
O O10 0.465126 0.571527 0.848600
O O11 0.479537 0.425953 0.791234
O O12 0.750000 0.154305 0.111889
O O13 0.981318 0.250000 0.122609
O O14 0.959641 0.105478 0.062119
O O15 0.250000 0.596206 0.997703
O O16 0.404354 0.750000 0.990276
O O17 0.750000 0.628496 0.536783
O O18 0.542637 0.750000 0.523537
O O19 0.562063 0.596694 0.472673
O O20 0.497138 0.579075 0.558960
O O21 0.750000 0.491324 0.429549
O O22 0.750000 0.640212 0.246438
O O23 0.968281 0.750000 0.239017
#
# Coordination Sequence:
#
# PCOD8246145 Si02
#       8
#     8   8   8   8   8   8   8   8
#     4   9  16  24  35  54  78  98 116 144 183 223
#     4   8  13  22  38  59  81 106 136 168 202 242
#     4   9  15  22  34  52  74  98 122 151 188 227
#     4   8  14  24  36  48  63  89 126 159 183 214
#     4   8  14  25  38  50  68  96 126 151 176 214
#     4   9  17  28  41  59  86 118 148 177 210 249
#     4   9  16  26  42  63  85 111 145 181 212 243
#     4   8  13  21  34  54  79 103 126 154 191 236
#
# _framework density 16.321014000000002
#
# number of rings (size 3 to 8) (size 9 to 14) (size 15 to 20)
#    0.000    3.500    0.000    2.250    0.000    3.750 
#    0.000    0.000    0.000    1.875    0.000    4.375 
#    0.000    1.000    0.000    3.500    0.000    3.250 
#
# Total GULP energy -793049.288018 kJ/mol
# GULP energy per Si atom -12391.395125 kJ/mol
# Density = 1.628387 g / cm^3
# Si number density = 16.321014 Si / 1000 Ang^3
#
#
#
# Elastic Constant Matrix: (Units=GPa)
#
#
# Indices 1 2 3 4 5 6 
#
# 1 26.7811 26.9119 28.6928 0.0000 0.0000 0.0000
# 2 26.9119 94.5619 71.6996 0.0000 0.0000 0.0000
# 3 28.6928 71.6996 138.6212 0.0000 0.0000 0.0000
# 4 0.0000 0.0000 0.0000 31.6642 0.0000 0.0000
# 5 0.0000 0.0000 0.0000 0.0000 14.1820 0.0000
# 6 0.0000 0.0000 0.0000 0.0000 0.0000 13.6773
#
#
#
# Elastic Compliance Matrix: (Units=1/GPa)
#
#
# Indices 1 2 3 4 5 6 
#
# 1 0.054624 -0.011472 -0.005373 0.000000 0.000000 0.000000
# 2 -0.011472 0.019808 -0.007871 0.000000 0.000000 0.000000
# 3 -0.005373 -0.007871 0.012397 0.000000 0.000000 0.000000
# 4 0.000000 0.000000 0.000000 0.031581 0.000000 0.000000
# 5 0.000000 0.000000 0.000000 0.000000 0.070512 0.000000
# 6 0.000000 0.000000 0.000000 0.000000 0.000000 0.073114
#
#
# Mechanical properties :
#
#
# Convention : Reuss Voigt Hill
#
# Bulk Modulus (GPa) = 26.73948 57.17476 41.95712
# Shear Modulus (GPa) = 15.43530 20.74870 18.09200
#
# Velocity S-wave (km/s) = 3.07861 3.56938 3.33304
# Velocity P-wave (km/s) = 5.39038 7.21767 6.36989
#
# Compressibility (1/GPa) = 0.03739788
#
# Stress axis : x y z
#
# Youngs Moduli (GPa) = 18.30696 50.48530 80.66478
#
# Poissons Ratio (x) = 0.57917 0.43339
# Poissons Ratio (y) = 0.21002 0.63489
# Poissons Ratio (z) = 0.09836 0.39735
#
# Static dielectric constant tensor:
#      x y z
#    x 2.699640 0.000000 0.000000 
#    y 0.000000 3.176760 0.000000 
#    z 0.000000 0.000000 3.336750 
# 
# 
# High freq. dielectric constant tensor:
#      x y z
#    x 1.568140 0.000000 0.000000 
#    y 0.000000 1.627560 0.000000 
#    z 0.000000 0.000000 1.621620 
# 
# From -- ./inp_files/33248.got.cif
#   From: 2010.03.12/outbox.cif.g09.slc.cpg/sg59_17_cif.got.tgz:33248.got - 2010.04.16 16:29:54.
