data_PCOD8246653
_publ_section_title
;
Structure prediction by ZEFSAII (Michael W. Deem and Ramdas Pophale) SiO2 
 PCOD8246653
Probable space group: P B C N
;
_chemical_formula_sum "Si O2"
_cell_formula_units_Z 52
_cell_length_a 6.303903
_cell_length_b 17.238425
_cell_length_c 25.774013
_cell_angle_alpha 90.000000
_cell_angle_beta 90.000000
_cell_angle_gamma 90.000000
_cell_volume 2800.845473
_symmetry_space_group_name_H-M "P B C N"
_symmetry_group_IT_number 60
_symmetry_cell_setting 'orthorhombic'
loop_
_space_group_symop_operation_xyz
x,y,z
1/2-x,1/2-y,1/2+z
1/2+x,1/2-y,-z
-x,y,1/2-z
-x,-y,-z
1/2+x,1/2+y,1/2-z
1/2-x,1/2+y,z
x,-y,1/2+z
loop_
_atom_site_type_symbol
_atom_site_label
_atom_site_fract_x
_atom_site_fract_y
_atom_site_fract_z
Si Si1 0.282357 0.595683 0.347516
Si Si2 0.980015 0.849431 0.039987
Si Si3 0.111300 0.028605 0.615379
Si Si4 0.500000 0.602549 0.250000
Si Si5 0.159669 0.560813 0.024605
Si Si6 0.110380 0.512531 0.201114
Si Si7 0.816435 0.319531 0.549918
O O1 0.406345 0.515390 0.361010
O O2 0.400464 0.644794 0.300951
O O3 0.288853 0.652097 0.396785
O O4 0.046362 0.572134 0.329094
O O5 0.856468 0.771578 0.053779
O O6 0.064928 0.885838 0.093467
O O7 0.822917 0.915363 0.019597
O O8 0.166051 0.835837 0.998809
O O9 0.211422 0.974014 0.571834
O O10 0.289920 0.045788 0.659146
O O11 0.304613 0.555499 0.227504
O O12 0.038843 0.637314 0.043424
O O13 0.000000 0.500000 0.000000
O O14 0.000000 0.468524 0.250000
#
# Coordination Sequence:
#
# PCOD8246653 Si02
#       7
#     8   8   8   4   8   8   8
#     4  10  19  35  60  90 111 150 197 248 296 353
#     4  12  25  38  53  87 128 160 198 238 296 369
#     4  11  21  34  59  88 112 155 200 245 294 359
#     4   8  18  34  58  92 110 136 200 258 294 344
#     4  12  22  36  59  83 118 158 200 240 284 354
#     4   9  18  34  58  91 111 139 195 260 301 343
#     4  12  23  38  56  85 125 162 194 238 301 356
#
# _framework density 18.565822000000001
#
# number of rings (size 3 to 8) (size 9 to 14) (size 15 to 20)
#    0.000    1.231    6.154    1.385    0.000    0.000 
#    0.000    0.000    0.000    0.000   48.000    0.000 
#    0.000    0.000    0.000    0.000    0.000    0.000 
#
# Total GULP energy -644271.715246 kJ/mol
# GULP energy per Si atom -12389.840678 kJ/mol
# Density = 1.852357 g / cm^3
# Si number density = 18.565822 Si / 1000 Ang^3
#
#
#
# Elastic Constant Matrix: (Units=GPa)
#
#
# Indices 1 2 3 4 5 6 
#
# 1 94.0157 31.1241 37.3491 0.0000 0.0000 0.0000
# 2 31.1241 76.3341 37.1875 0.0000 0.0000 0.0000
# 3 37.3491 37.1875 117.2289 0.0000 0.0000 0.0000
# 4 0.0000 0.0000 0.0000 10.5650 0.0000 0.0000
# 5 0.0000 0.0000 0.0000 0.0000 37.1587 0.0000
# 6 0.0000 0.0000 0.0000 0.0000 0.0000 15.0320
#
#
#
# Elastic Compliance Matrix: (Units=1/GPa)
#
#
# Indices 1 2 3 4 5 6 
#
# 1 0.013096 -0.003912 -0.002932 0.000000 0.000000 0.000000
# 2 -0.003912 0.016663 -0.004040 0.000000 0.000000 0.000000
# 3 -0.002932 -0.004040 0.010746 0.000000 0.000000 0.000000
# 4 0.000000 0.000000 0.000000 0.094652 0.000000 0.000000
# 5 0.000000 0.000000 0.000000 0.000000 0.026912 0.000000
# 6 0.000000 0.000000 0.000000 0.000000 0.000000 0.066525
#
#
# Mechanical properties :
#
#
# Convention : Reuss Voigt Hill
#
# Bulk Modulus (GPa) = 53.36350 55.43333 54.39842
# Shear Modulus (GPa) = 19.48516 24.67901 22.08208
#
# Velocity S-wave (km/s) = 3.24314 3.64987 3.45250
# Velocity P-wave (km/s) = 6.54440 6.90541 6.72733
#
# Compressibility (1/GPa) = 0.01873940
#
# Stress axis : x y z
#
# Youngs Moduli (GPa) = 76.35888 60.01248 93.05966
#
# Poissons Ratio (x) = 0.23474 0.27281
# Poissons Ratio (y) = 0.29868 0.37593
# Poissons Ratio (z) = 0.22385 0.24243
#
# Static dielectric constant tensor:
#      x y z
#    x 1.631430 0.000000 0.000000 
#    y 0.000000 3.076330 0.000000 
#    z 0.000000 0.000000 4.190580 
# 
# 
# High freq. dielectric constant tensor:
#      x y z
#    x 1.747780 0.000000 0.000000 
#    y 0.000000 1.665850 0.000000 
#    z 0.000000 0.000000 1.744510 
# 
# From -- ./inp_files/24944.got.cif
#   From: 2010.03.12/outbox.cif.g09.slc.cpg/sg60_13_cif.got.tgz:24944.got - 2010.04.10 18:46:24.
