data_PCOD8246386
_publ_section_title
;
Structure prediction by ZEFSAII (Michael W. Deem and Ramdas Pophale) SiO2 
 PCOD8246386
Probable space group: P B C N
;
_chemical_formula_sum "Si O2"
_cell_formula_units_Z 56
_cell_length_a 18.523485
_cell_length_b 8.840019
_cell_length_c 19.617876
_cell_angle_alpha 90.000000
_cell_angle_beta 90.000000
_cell_angle_gamma 90.000000
_cell_volume 3212.387162
_symmetry_space_group_name_H-M "P B C N"
_symmetry_group_IT_number 60
_symmetry_cell_setting 'orthorhombic'
loop_
_space_group_symop_operation_xyz
x,y,z
1/2-x,1/2-y,1/2+z
1/2+x,1/2-y,-z
-x,y,1/2-z
-x,-y,-z
1/2+x,1/2+y,1/2-z
1/2-x,1/2+y,z
x,-y,1/2+z
loop_
_atom_site_type_symbol
_atom_site_label
_atom_site_fract_x
_atom_site_fract_y
_atom_site_fract_z
Si Si1 0.053448 0.309243 0.391885
Si Si2 0.419581 0.674902 0.669685
Si Si3 0.322940 0.165970 0.274018
Si Si4 0.670479 0.811709 0.222018
Si Si5 0.969680 0.157794 0.973744
Si Si6 0.942914 0.835618 0.804628
Si Si7 0.049878 0.660612 0.373092
O O1 0.120769 0.271481 0.343073
O O2 0.071500 0.253285 0.468021
O O3 0.038008 0.486020 0.389381
O O4 0.979046 0.217319 0.375383
O O5 0.350859 0.754804 0.704481
O O6 0.410521 0.643644 0.587896
O O7 0.433572 0.514072 0.704480
O O8 0.488504 0.785175 0.680821
O O9 0.245647 0.231418 0.292733
O O10 0.373786 0.200086 0.338886
O O11 0.317708 0.987395 0.263621
O O12 0.633876 0.744035 0.290434
O O13 0.039891 0.247639 0.943892
O O14 0.000000 0.000000 0.000000
O O15 0.000000 0.772283 0.750000
#
# Coordination Sequence:
#
# PCOD8246386 Si02
#       7
#     8   8   8   8   8   8   8
#     4  10  18  37  54  81 110 137 189 217 276 325
#     4  10  20  31  56  79 112 139 176 228 264 325
#     4  11  20  38  52  83 108 140 188 219 282 317
#     4  10  23  33  59  76 109 146 178 232 269 328
#     4  10  20  33  54  83 108 143 177 219 273 320
#     4  10  18  31  53  81 104 139 178 227 267 313
#     4   9  20  32  58  80 106 144 174 237 263 327
#
# _framework density 17.432518000000002
#
# number of rings (size 3 to 8) (size 9 to 14) (size 15 to 20)
#    0.857    1.143    1.429    3.429    0.000    4.571 
#    0.000    0.000    3.143    1.714    0.000    0.000 
#    0.000    0.000    0.000    0.000    0.000    0.000 
#
# Total GULP energy -694000.850242 kJ/mol
# GULP energy per Si atom -12392.872326 kJ/mol
# Density = 1.739284 g / cm^3
# Si number density = 17.432518 Si / 1000 Ang^3
#
#
#
# Elastic Constant Matrix: (Units=GPa)
#
#
# Indices 1 2 3 4 5 6 
#
# 1 102.8104 56.2230 42.6178 0.0000 0.0000 0.0000
# 2 56.2230 124.9732 44.3568 0.0000 0.0000 0.0000
# 3 42.6178 44.3568 88.3975 0.0000 0.0000 0.0000
# 4 0.0000 0.0000 0.0000 32.4796 0.0000 0.0000
# 5 0.0000 0.0000 0.0000 0.0000 15.6105 0.0000
# 6 0.0000 0.0000 0.0000 0.0000 0.0000 30.1532
#
#
#
# Elastic Compliance Matrix: (Units=1/GPa)
#
#
# Indices 1 2 3 4 5 6 
#
# 1 0.014195 -0.004814 -0.004428 0.000000 0.000000 0.000000
# 2 -0.004814 0.011369 -0.003383 0.000000 0.000000 0.000000
# 3 -0.004428 -0.003383 0.015145 0.000000 0.000000 0.000000
# 4 0.000000 0.000000 0.000000 0.030789 0.000000 0.000000
# 5 0.000000 0.000000 0.000000 0.000000 0.064060 0.000000
# 6 0.000000 0.000000 0.000000 0.000000 0.000000 0.033164
#
#
# Mechanical properties :
#
#
# Convention : Reuss Voigt Hill
#
# Bulk Modulus (GPa) = 64.69522 66.95295 65.82408
# Shear Modulus (GPa) = 25.10995 27.18089 26.14542
#
# Velocity S-wave (km/s) = 3.79939 3.95296 3.87694
# Velocity P-wave (km/s) = 7.51262 7.70226 7.60803
#
# Compressibility (1/GPa) = 0.01545709
#
# Stress axis : x y z
#
# Youngs Moduli (GPa) = 70.44773 87.96194 66.02837
#
# Poissons Ratio (x) = 0.42349 0.29236
# Poissons Ratio (y) = 0.33917 0.22341
# Poissons Ratio (z) = 0.31192 0.29762
#
# Static dielectric constant tensor:
#      x y z
#    x 3.036290 0.000000 0.000000 
#    y 0.000000 3.283720 0.000000 
#    z 0.000000 0.000000 3.267510 
# 
# 
# High freq. dielectric constant tensor:
#      x y z
#    x 1.644400 0.000000 0.000000 
#    y 0.000000 1.693690 0.000000 
#    z 0.000000 0.000000 1.666320 
# 
# From -- ./inp_files/24525.got.cif
#   From: 2010.03.12/outbox.cif.g09.slc.cpg/sg60_13_cif.got.tgz:24525.got - 2010.04.10 18:46:24.
