data_PCOD8246966
_publ_section_title
;
Structure prediction by ZEFSAII (Michael W. Deem and Ramdas Pophale) SiO2 
 PCOD8246966
Probable space group: P B C N
;
_chemical_formula_sum "Si O2"
_cell_formula_units_Z 64
_cell_length_a 10.978637
_cell_length_b 33.179747
_cell_length_c 8.679808
_cell_angle_alpha 90.000000
_cell_angle_beta 90.000000
_cell_angle_gamma 90.000000
_cell_volume 3161.779756
_symmetry_space_group_name_H-M "P B C N"
_symmetry_group_IT_number 60
_symmetry_cell_setting 'orthorhombic'
loop_
_space_group_symop_operation_xyz
x,y,z
1/2-x,1/2-y,1/2+z
1/2+x,1/2-y,-z
-x,y,1/2-z
-x,-y,-z
1/2+x,1/2+y,1/2-z
1/2-x,1/2+y,z
x,-y,1/2+z
loop_
_atom_site_type_symbol
_atom_site_label
_atom_site_fract_x
_atom_site_fract_y
_atom_site_fract_z
Si Si1 0.119609 0.452198 0.956940
Si Si2 0.714887 0.394717 0.032672
Si Si3 0.919248 0.224532 0.392450
Si Si4 0.343196 0.034222 0.106062
Si Si5 0.520464 0.348942 0.422344
Si Si6 0.930953 0.691165 0.023551
Si Si7 0.680943 0.176316 0.347107
Si Si8 0.213119 0.625760 0.625955
O O1 0.173236 0.459523 0.787560
O O2 0.973749 0.450789 0.954212
O O3 0.170911 0.487106 0.068361
O O4 0.161095 0.410261 0.025405
O O5 0.570277 0.386388 0.043359
O O6 0.778147 0.385539 0.195539
O O7 0.739133 0.440804 0.984425
O O8 0.770441 0.367102 0.898258
O O9 0.995268 0.188796 0.469476
O O10 0.896052 0.262102 0.504992
O O11 0.786310 0.209541 0.345119
O O12 0.000000 0.240043 0.250000
O O13 0.500000 0.333062 0.250000
O O14 0.656899 0.363621 0.449178
O O15 0.872402 0.672571 0.177121
O O16 0.077025 0.689195 0.031663
O O17 0.877405 0.664132 0.884614
#
# Coordination Sequence:
#
# PCOD8246966 Si02
#       8
#     8   8   8   8   8   8   8   8
#     4  10  21  36  60  91 123 160 190 248 297 360
#     4  10  21  39  62  86 119 159 200 246 296 367
#     4  11  25  39  62  84 115 154 206 247 304 364
#     4  10  20  37  60  89 126 154 198 238 303 355
#     4   9  22  42  61  84 117 163 200 249 302 358
#     4  11  25  38  59  83 116 153 193 254 299 357
#     4  10  24  41  56  84 116 154 195 244 304 355
#     4  11  22  38  62  88 121 154 204 247 302 357
#
# _framework density 20.241764
#
# number of rings (size 3 to 8) (size 9 to 14) (size 15 to 20)
#    0.000    1.750    0.000    3.000    7.000    6.500 
#    0.000    0.625    0.000    0.000    0.000    0.000 
#    0.000    0.000    0.000    0.000    0.000    0.000 
#
# Total GULP energy -793841.790097 kJ/mol
# GULP energy per Si atom -12403.777970 kJ/mol
# Density = 2.019569 g / cm^3
# Si number density = 20.241764 Si / 1000 Ang^3
#
#
#
# Elastic Constant Matrix: (Units=GPa)
#
#
# Indices 1 2 3 4 5 6 
#
# 1 96.1007 32.1203 21.2841 0.0000 0.0000 0.0000
# 2 32.1203 95.3444 19.9378 0.0000 0.0000 0.0000
# 3 21.2841 19.9378 68.8124 0.0000 0.0000 0.0000
# 4 0.0000 0.0000 0.0000 9.8769 0.0000 0.0000
# 5 0.0000 0.0000 0.0000 0.0000 26.8777 0.0000
# 6 0.0000 0.0000 0.0000 0.0000 0.0000 25.4454
#
#
#
# Elastic Compliance Matrix: (Units=1/GPa)
#
#
# Indices 1 2 3 4 5 6 
#
# 1 0.012196 -0.003534 -0.002748 0.000000 0.000000 0.000000
# 2 -0.003534 0.012189 -0.002439 0.000000 0.000000 0.000000
# 3 -0.002748 -0.002439 0.016089 0.000000 0.000000 0.000000
# 4 0.000000 0.000000 0.000000 0.101246 0.000000 0.000000
# 5 0.000000 0.000000 0.000000 0.000000 0.037206 0.000000
# 6 0.000000 0.000000 0.000000 0.000000 0.000000 0.039300
#
#
# Mechanical properties :
#
#
# Convention : Reuss Voigt Hill
#
# Bulk Modulus (GPa) = 43.41808 45.21576 44.31692
# Shear Modulus (GPa) = 20.54709 24.90100 22.72405
#
# Velocity S-wave (km/s) = 3.18949 3.51120 3.35420
# Velocity P-wave (km/s) = 5.92116 6.23092 6.07801
#
# Compressibility (1/GPa) = 0.02303188
#
# Stress axis : x y z
#
# Youngs Moduli (GPa) = 81.99701 82.04300 62.15479
#
# Poissons Ratio (x) = 0.28993 0.17082
# Poissons Ratio (y) = 0.28976 0.15157
# Poissons Ratio (z) = 0.22535 0.20007
#
# Static dielectric constant tensor:
#      x y z
#    x 3.788360 0.000000 0.000000 
#    y 0.000000 3.550490 0.000000 
#    z 0.000000 0.000000 3.700520 
# 
# 
# High freq. dielectric constant tensor:
#      x y z
#    x 1.787910 0.000000 0.000000 
#    y 0.000000 1.788710 0.000000 
#    z 0.000000 0.000000 1.800270 
# 
# From -- ./inp_files/5352.got.cif
#   From: 2010.03.12/outbox.cif.g09.slc.cpg/sg60_3_cif.got.tgz:5352.got - 2010.04.10 18:46:24.
