data_PCOD8246330
_publ_section_title
;
Structure prediction by ZEFSAII (Michael W. Deem and Ramdas Pophale) SiO2 
 PCOD8246330
Probable space group: P B C N
;
_chemical_formula_sum "Si O2"
_cell_formula_units_Z 60
_cell_length_a 14.181197
_cell_length_b 12.727610
_cell_length_c 18.471554
_cell_angle_alpha 90.000000
_cell_angle_beta 90.000000
_cell_angle_gamma 90.000000
_cell_volume 3333.981481
_symmetry_space_group_name_H-M "P B C N"
_symmetry_group_IT_number 60
_symmetry_cell_setting 'orthorhombic'
loop_
_space_group_symop_operation_xyz
x,y,z
1/2-x,1/2-y,1/2+z
1/2+x,1/2-y,-z
-x,y,1/2-z
-x,-y,-z
1/2+x,1/2+y,1/2-z
1/2-x,1/2+y,z
x,-y,1/2+z
loop_
_atom_site_type_symbol
_atom_site_label
_atom_site_fract_x
_atom_site_fract_y
_atom_site_fract_z
Si Si1 0.855618 0.624877 0.226539
Si Si2 0.356802 0.317504 0.374299
Si Si3 0.835022 0.054077 0.173200
Si Si4 0.668586 0.740113 0.070743
Si Si5 0.968967 0.442404 0.857146
Si Si6 0.987665 0.724906 0.470494
Si Si7 0.514643 0.179665 0.875236
Si Si8 0.500000 0.329107 0.750000
O O1 0.847566 0.744192 0.196941
O O2 0.756625 0.564669 0.223664
O O3 0.893338 0.622339 0.308902
O O4 0.927404 0.560878 0.176645
O O5 0.353887 0.435535 0.348434
O O6 0.271468 0.293604 0.430450
O O7 0.456850 0.299302 0.414579
O O8 0.821157 0.121923 0.100461
O O9 0.922929 0.094217 0.218039
O O10 0.600695 0.811742 0.122935
O O11 0.617649 0.731970 0.991585
O O12 0.971903 0.390505 0.936311
O O13 0.943116 0.564753 0.861067
O O14 0.049609 0.715474 0.544549
O O15 0.549739 0.256480 0.811437
#
# Coordination Sequence:
#
# PCOD8246330 Si02
#       8
#     8   8   8   8   8   8   8   4
#     4   9  20  32  54  85 103 135 186 224 273 329
#     4  10  19  36  59  75 109 144 181 228 273 324
#     4  10  20  36  57  75 103 153 185 217 275 328
#     4   8  19  36  52  80 104 140 188 215 261 342
#     4  10  17  33  57  83 111 135 176 234 285 315
#     4   9  20  34  54  84 111 142 181 227 272 330
#     4   9  18  34  55  77 109 145 173 226 272 319
#     4  10  20  36  52  76 110 144 198 218 248 340
#
# _framework density 17.996500999999999
#
# number of rings (size 3 to 8) (size 9 to 14) (size 15 to 20)
#    0.800    1.867    0.000    2.000    0.000    4.800 
#    2.400    0.000    2.933    0.000    0.000    0.000 
#    0.000    0.000    0.000    0.000    0.000    0.000 
#
# Total GULP energy -743497.028236 kJ/mol
# GULP energy per Si atom -12391.617137 kJ/mol
# Density = 1.795554 g / cm^3
# Si number density = 17.996501 Si / 1000 Ang^3
#
#
#
# Elastic Constant Matrix: (Units=GPa)
#
#
# Indices 1 2 3 4 5 6 
#
# 1 85.9710 44.5648 27.8716 0.0000 0.0000 0.0000
# 2 44.5648 136.8667 54.8720 0.0000 0.0000 0.0000
# 3 27.8716 54.8720 90.1389 0.0000 0.0000 0.0000
# 4 0.0000 0.0000 0.0000 19.5480 0.0000 0.0000
# 5 0.0000 0.0000 0.0000 0.0000 22.7557 0.0000
# 6 0.0000 0.0000 0.0000 0.0000 0.0000 19.2001
#
#
#
# Elastic Compliance Matrix: (Units=1/GPa)
#
#
# Indices 1 2 3 4 5 6 
#
# 1 0.014287 -0.003811 -0.002098 0.000000 0.000000 0.000000
# 2 -0.003811 0.010682 -0.005324 0.000000 0.000000 0.000000
# 3 -0.002098 -0.005324 0.014984 0.000000 0.000000 0.000000
# 4 0.000000 0.000000 0.000000 0.051156 0.000000 0.000000
# 5 0.000000 0.000000 0.000000 0.000000 0.043945 0.000000
# 6 0.000000 0.000000 0.000000 0.000000 0.000000 0.052083
#
#
# Mechanical properties :
#
#
# Convention : Reuss Voigt Hill
#
# Bulk Modulus (GPa) = 57.18541 63.06595 60.12568
# Shear Modulus (GPa) = 23.20914 24.67863 23.94389
#
# Velocity S-wave (km/s) = 3.59506 3.70713 3.65152
# Velocity P-wave (km/s) = 7.00553 7.31049 7.15963
#
# Compressibility (1/GPa) = 0.01748698
#
# Stress axis : x y z
#
# Youngs Moduli (GPa) = 69.99138 93.61700 66.73907
#
# Poissons Ratio (x) = 0.35678 0.14001
# Poissons Ratio (y) = 0.26674 0.35533
# Poissons Ratio (z) = 0.14683 0.49843
#
# Static dielectric constant tensor:
#      x y z
#    x 3.229690 0.000000 0.000000 
#    y 0.000000 3.173440 0.000000 
#    z 0.000000 0.000000 3.270740 
# 
# 
# High freq. dielectric constant tensor:
#      x y z
#    x 1.683480 0.000000 0.000000 
#    y 0.000000 1.690460 0.000000 
#    z 0.000000 0.000000 1.686230 
# 
# From -- ./inp_files/22985.got.cif
#   From: 2010.03.12/outbox.cif.g09.slc.cpg/sg60_12_cif.got.tgz:22985.got - 2010.04.10 18:46:24.
