data_PCOD8246451
_publ_section_title
;
Structure prediction by ZEFSAII (Michael W. Deem and Ramdas Pophale) SiO2 
 PCOD8246451
Probable space group: P B C N
;
_chemical_formula_sum "Si O2"
_cell_formula_units_Z 64
_cell_length_a 9.756260
_cell_length_b 15.468893
_cell_length_c 21.503730
_cell_angle_alpha 90.000000
_cell_angle_beta 90.000000
_cell_angle_gamma 90.000000
_cell_volume 3245.311580
_symmetry_space_group_name_H-M "P B C N"
_symmetry_group_IT_number 60
_symmetry_cell_setting 'orthorhombic'
loop_
_space_group_symop_operation_xyz
x,y,z
1/2-x,1/2-y,1/2+z
1/2+x,1/2-y,-z
-x,y,1/2-z
-x,-y,-z
1/2+x,1/2+y,1/2-z
1/2-x,1/2+y,z
x,-y,1/2+z
loop_
_atom_site_type_symbol
_atom_site_label
_atom_site_fract_x
_atom_site_fract_y
_atom_site_fract_z
Si Si1 0.263594 0.560969 0.042966
Si Si2 0.077065 0.530927 0.866750
Si Si3 0.365010 0.680742 0.214097
Si Si4 0.755255 0.918594 0.555459
Si Si5 0.000079 0.365055 0.483954
Si Si6 0.296966 0.983868 0.678597
Si Si7 0.483135 0.312140 0.579315
Si Si8 0.339465 0.138532 0.760716
O O1 0.270203 0.514273 0.110120
O O2 0.373691 0.637065 0.037899
O O3 0.307428 0.494320 0.989824
O O4 0.114269 0.603782 0.032984
O O5 0.183453 0.457362 0.884130
O O6 0.167863 0.605491 0.832227
O O7 0.998188 0.566600 0.927475
O O8 0.962844 0.485318 0.823375
O O9 0.500000 0.648624 0.250000
O O10 0.256211 0.602323 0.213308
O O11 0.414605 0.710386 0.145498
O O12 0.289302 0.763004 0.247569
O O13 0.647600 0.860839 0.516699
O O14 0.879184 0.866983 0.585578
O O15 0.032054 0.271909 0.457108
O O16 0.256445 0.071267 0.716361
O O17 0.500000 0.141744 0.750000
#
# Coordination Sequence:
#
# PCOD8246451 Si02
#       8
#     8   8   8   8   8   8   8   8
#     4  10  20  37  54  83 117 152 193 225 295 351
#     4  10  19  37  61  85 106 157 200 239 285 348
#     4  10  22  37  56  85 115 148 195 241 293 358
#     4  11  21  35  60  84 122 151 193 242 285 360
#     4  11  19  37  60  82 119 150 202 235 280 356
#     4  10  18  35  60  82 111 149 196 240 280 345
#     4  11  23  34  56  88 118 151 185 246 305 336
#     4   9  19  35  59  84 104 148 201 236 283 338
#
# _framework density 19.720756999999999
#
# number of rings (size 3 to 8) (size 9 to 14) (size 15 to 20)
#    0.000    1.750    2.500    4.125    1.750    0.000 
#    0.000    0.000    0.000    2.250    0.000    0.000 
#    0.000    0.000    0.000    0.000    0.000    0.000 
#
# Total GULP energy -793287.940474 kJ/mol
# GULP energy per Si atom -12395.124070 kJ/mol
# Density = 1.967587 g / cm^3
# Si number density = 19.720757 Si / 1000 Ang^3
#
#
#
# Elastic Constant Matrix: (Units=GPa)
#
#
# Indices 1 2 3 4 5 6 
#
# 1 69.2174 47.8364 26.7442 0.0000 0.0000 0.0000
# 2 47.8364 113.4197 18.5305 0.0000 0.0000 0.0000
# 3 26.7442 18.5305 52.6948 0.0000 0.0000 0.0000
# 4 0.0000 0.0000 0.0000 19.8524 0.0000 0.0000
# 5 0.0000 0.0000 0.0000 0.0000 -2.4225 0.0000
# 6 0.0000 0.0000 0.0000 0.0000 0.0000 -34.9410
#
#
#
# Elastic Compliance Matrix: (Units=1/GPa)
#
#
# Indices 1 2 3 4 5 6 
#
# 1 0.023908 -0.008595 -0.009111 0.000000 0.000000 0.000000
# 2 -0.008595 0.012444 -0.000014 0.000000 0.000000 0.000000
# 3 -0.009111 -0.000014 0.023606 0.000000 0.000000 0.000000
# 4 0.000000 0.000000 0.000000 0.050372 0.000000 0.000000
# 5 0.000000 0.000000 0.000000 0.000000 -0.412803 0.000000
# 6 0.000000 0.000000 0.000000 0.000000 0.000000 -0.028620
#
#
# Mechanical properties :
#
#
# Convention : Reuss Voigt Hill
#
# Bulk Modulus (GPa) = 40.78664 46.83935 43.81300
# Shear Modulus (GPa) = -17.39250 5.97916 -5.70667
#
# Velocity S-wave (km/s) = -2.97297 1.74313 -1.70294
# Velocity P-wave (km/s) = 2.99036 5.27771 4.28932
#
# Compressibility (1/GPa) = 0.02451783
#
# Stress axis : x y z
#
# Youngs Moduli (GPa) = 41.82781 80.35974 42.36133
#
# Poissons Ratio (x) = 0.69067 0.38597
# Poissons Ratio (y) = 0.35950 0.00059
# Poissons Ratio (z) = 0.38111 0.00112
#
# Static dielectric constant tensor:
#      x y z
#    x 3.366650 0.000000 0.000000 
#    y 0.000000 3.804990 0.000000 
#    z 0.000000 0.000000 3.800680 
# 
# 
# High freq. dielectric constant tensor:
#      x y z
#    x 1.740740 0.000000 0.000000 
#    y 0.000000 1.770340 0.000000 
#    z 0.000000 0.000000 1.774740 
# 
# From -- ./inp_files/22363.got.cif
#   From: 2010.03.12/outbox.cif.g09.slc.cpg/sg60_12_cif.got.tgz:22363.got - 2010.04.10 18:46:24.
