data_PCOD8246455
_publ_section_title
;
Structure prediction by ZEFSAII (Michael W. Deem and Ramdas Pophale) SiO2 
 PCOD8246455
Probable space group: P B C N
;
_chemical_formula_sum "Si O2"
_cell_formula_units_Z 64
_cell_length_a 18.323462
_cell_length_b 9.892825
_cell_length_c 19.246323
_cell_angle_alpha 90.000000
_cell_angle_beta 90.000000
_cell_angle_gamma 90.000000
_cell_volume 3488.796424
_symmetry_space_group_name_H-M "P B C N"
_symmetry_group_IT_number 60
_symmetry_cell_setting 'orthorhombic'
loop_
_space_group_symop_operation_xyz
x,y,z
1/2-x,1/2-y,1/2+z
1/2+x,1/2-y,-z
-x,y,1/2-z
-x,-y,-z
1/2+x,1/2+y,1/2-z
1/2-x,1/2+y,z
x,-y,1/2+z
loop_
_atom_site_type_symbol
_atom_site_label
_atom_site_fract_x
_atom_site_fract_y
_atom_site_fract_z
Si Si1 0.689551 0.519033 0.254469
Si Si2 0.324612 0.209419 0.406743
Si Si3 0.466901 0.384136 0.954427
Si Si4 0.962746 0.971441 0.819122
Si Si5 0.685770 0.526217 0.095356
Si Si6 0.036621 0.718609 0.180370
Si Si7 0.685851 0.781614 0.752803
Si Si8 0.980148 0.364198 0.538766
O O1 0.624036 0.537822 0.308906
O O2 0.665237 0.552370 0.175839
O O3 0.753723 0.615394 0.278955
O O4 0.720631 0.367269 0.255438
O O5 0.303768 0.366452 0.421072
O O6 0.257943 0.109798 0.426347
O O7 0.343939 0.188897 0.325150
O O8 0.393631 0.166362 0.454043
O O9 0.510398 0.378188 0.881761
O O10 0.381024 0.411913 0.947401
O O11 0.500000 0.500000 0.000000
O O12 0.477700 0.245353 0.993678
O O13 0.000000 0.914701 0.750000
O O14 0.988704 0.126133 0.832915
O O15 0.122803 0.708694 0.190447
O O16 0.000000 0.660996 0.250000
O O17 0.013924 0.627647 0.115663
O O18 0.000000 0.500000 0.500000
#
# Coordination Sequence:
#
# PCOD8246455 Si02
#       8
#     8   8   8   8   8   8   8   8
#     4   9  18  34  57  89 118 149 197 254 300 357
#     4  10  20  38  61  90 119 159 204 250 304 373
#     4  12  22  40  64  90 121 161 206 253 304 365
#     4  10  18  35  64  89 112 149 209 251 290 357
#     4  10  20  36  62  89 120 160 204 248 306 372
#     4  10  18  37  65  85 111 158 205 241 298 366
#     4   9  18  34  61  87 115 150 200 251 300 360
#     4  12  26  42  60  92 130 163 209 259 309 364
#
# _framework density 18.344436000000002
#
# number of rings (size 3 to 8) (size 9 to 14) (size 15 to 20)
#    0.000    1.750    5.000    0.000    1.750    0.000 
#    2.250    3.125    0.000    0.000    0.000    0.000 
#    0.000    0.000    0.000    0.000    0.000    0.000 
#
# Total GULP energy -793583.743295 kJ/mol
# GULP energy per Si atom -12399.745989 kJ/mol
# Density = 1.830268 g / cm^3
# Si number density = 18.344436 Si / 1000 Ang^3
#
#
#
# Elastic Constant Matrix: (Units=GPa)
#
#
# Indices 1 2 3 4 5 6 
#
# 1 116.0976 63.0877 45.7533 0.0000 0.0000 0.0000
# 2 63.0877 115.5083 49.3854 0.0000 0.0000 0.0000
# 3 45.7533 49.3854 98.9187 0.0000 0.0000 0.0000
# 4 0.0000 0.0000 0.0000 25.9210 0.0000 0.0000
# 5 0.0000 0.0000 0.0000 0.0000 28.6504 0.0000
# 6 0.0000 0.0000 0.0000 0.0000 0.0000 33.5397
#
#
#
# Elastic Compliance Matrix: (Units=1/GPa)
#
#
# Indices 1 2 3 4 5 6 
#
# 1 0.012969 -0.005745 -0.003130 0.000000 0.000000 0.000000
# 2 -0.005745 0.013552 -0.004109 0.000000 0.000000 0.000000
# 3 -0.003130 -0.004109 0.013608 0.000000 0.000000 0.000000
# 4 0.000000 0.000000 0.000000 0.038579 0.000000 0.000000
# 5 0.000000 0.000000 0.000000 0.000000 0.034904 0.000000
# 6 0.000000 0.000000 0.000000 0.000000 0.000000 0.029815
#
#
# Mechanical properties :
#
#
# Convention : Reuss Voigt Hill
#
# Bulk Modulus (GPa) = 70.61450 71.88637 71.25043
# Shear Modulus (GPa) = 28.71669 29.10876 28.91272
#
# Velocity S-wave (km/s) = 3.96083 3.98777 3.97432
# Velocity P-wave (km/s) = 7.71329 7.77658 7.74500
#
# Compressibility (1/GPa) = 0.01416140
#
# Stress axis : x y z
#
# Youngs Moduli (GPa) = 77.10756 73.79159 73.48388
#
# Poissons Ratio (x) = 0.42392 0.23004
# Poissons Ratio (y) = 0.44297 0.30191
# Poissons Ratio (z) = 0.24138 0.30317
#
# Static dielectric constant tensor:
#      x y z
#    x 3.238620 0.000000 0.000000 
#    y 0.000000 3.238960 0.000000 
#    z 0.000000 0.000000 3.340050 
# 
# 
# High freq. dielectric constant tensor:
#      x y z
#    x 1.716850 0.000000 0.000000 
#    y 0.000000 1.698480 0.000000 
#    z 0.000000 0.000000 1.700180 
# 
# From -- ./inp_files/23091.got.cif
#   From: 2010.03.12/outbox.cif.g09.slc.cpg/sg60_12_cif.got.tgz:23091.got - 2010.04.10 18:46:24.
