data_PCOD8246871
_publ_section_title
;
Structure prediction by ZEFSAII (Michael W. Deem and Ramdas Pophale) SiO2 
 PCOD8246871
Probable space group: P B C N
;
_chemical_formula_sum "Si O2"
_cell_formula_units_Z 48
_cell_length_a 8.748300
_cell_length_b 25.521895
_cell_length_c 11.854024
_cell_angle_alpha 90.000000
_cell_angle_beta 90.000000
_cell_angle_gamma 90.000000
_cell_volume 2646.685801
_symmetry_space_group_name_H-M "P B C N"
_symmetry_group_IT_number 60
_symmetry_cell_setting 'orthorhombic'
loop_
_space_group_symop_operation_xyz
x,y,z
1/2-x,1/2-y,1/2+z
1/2+x,1/2-y,-z
-x,y,1/2-z
-x,-y,-z
1/2+x,1/2+y,1/2-z
1/2-x,1/2+y,z
x,-y,1/2+z
loop_
_atom_site_type_symbol
_atom_site_label
_atom_site_fract_x
_atom_site_fract_y
_atom_site_fract_z
Si Si1 0.755426 0.211315 0.136187
Si Si2 0.598586 0.035469 0.358020
Si Si3 0.000000 0.781756 0.250000
Si Si4 0.749150 0.828975 0.394523
Si Si5 0.680976 0.062042 0.000504
Si Si6 0.324969 0.403118 0.784639
Si Si7 0.500000 0.775753 0.250000
O O1 0.617399 0.244323 0.186380
O O2 0.756523 0.153820 0.190194
O O3 0.916775 0.239024 0.159181
O O4 0.734895 0.208110 0.002773
O O5 0.500000 0.015018 0.250000
O O6 0.488868 0.066291 0.445436
O O7 0.729424 0.075432 0.320715
O O8 0.686905 0.988640 0.421042
O O9 0.914846 0.819761 0.338462
O O10 0.724399 0.889466 0.422182
O O11 0.618755 0.813677 0.308437
O O12 0.802364 0.059963 0.104479
O O13 0.500000 0.400958 0.750000
#
# Coordination Sequence:
#
# PCOD8246871 Si02
#       7
#     8   8   4   8   8   8   4
#     4  10  20  36  57  79 111 145 185 230 268 340
#     4   9  19  37  60  83 110 147 186 227 277 338
#     4  10  22  36  56  82 112 148 188 226 294 322
#     4  10  21  36  55  81 112 145 185 229 277 340
#     4   9  20  37  58  81 112 144 187 229 277 338
#     4  10  20  35  57  85 112 143 185 231 280 329
#     4  10  20  36  54  80 110 144 180 226 278 320
#
# _framework density 18.13589
#
# number of rings (size 3 to 8) (size 9 to 14) (size 15 to 20)
#    0.000    2.333    0.833    1.000    7.000    0.667 
#    1.500    3.333    0.000    0.000    0.000    0.000 
#    0.000    0.000    0.000    0.000    0.000    0.000 
#
# Total GULP energy -595150.610387 kJ/mol
# GULP energy per Si atom -12398.971050 kJ/mol
# Density = 1.809461 g / cm^3
# Si number density = 18.135890 Si / 1000 Ang^3
#
#
#
# Elastic Constant Matrix: (Units=GPa)
#
#
# Indices 1 2 3 4 5 6 
#
# 1 103.8959 51.7583 46.1801 0.0000 0.0000 0.0000
# 2 51.7583 88.6220 51.3006 0.0000 0.0000 0.0000
# 3 46.1801 51.3006 92.4166 0.0000 0.0000 0.0000
# 4 0.0000 0.0000 0.0000 36.6896 0.0000 0.0000
# 5 0.0000 0.0000 0.0000 0.0000 27.2306 0.0000
# 6 0.0000 0.0000 0.0000 0.0000 0.0000 13.2904
#
#
#
# Elastic Compliance Matrix: (Units=1/GPa)
#
#
# Indices 1 2 3 4 5 6 
#
# 1 0.014394 -0.006252 -0.003722 0.000000 0.000000 0.000000
# 2 -0.006252 0.019342 -0.007613 0.000000 0.000000 0.000000
# 3 -0.003722 -0.007613 0.016906 0.000000 0.000000 0.000000
# 4 0.000000 0.000000 0.000000 0.027256 0.000000 0.000000
# 5 0.000000 0.000000 0.000000 0.000000 0.036723 0.000000
# 6 0.000000 0.000000 0.000000 0.000000 0.000000 0.075242
#
#
# Mechanical properties :
#
#
# Convention : Reuss Voigt Hill
#
# Bulk Modulus (GPa) = 64.64656 64.82362 64.73509
# Shear Modulus (GPa) = 21.72084 24.48848 23.10466
#
# Velocity S-wave (km/s) = 3.46449 3.67860 3.57315
# Velocity P-wave (km/s) = 7.19212 7.33919 7.26603
#
# Compressibility (1/GPa) = 0.01546873
#
# Stress axis : x y z
#
# Youngs Moduli (GPa) = 69.47330 51.70094 59.14940
#
# Poissons Ratio (x) = 0.32323 0.22016
# Poissons Ratio (y) = 0.43434 0.45029
# Poissons Ratio (z) = 0.25859 0.39358
#
# Static dielectric constant tensor:
#      x y z
#    x 3.400200 0.000000 0.000000 
#    y 0.000000 3.270940 0.000000 
#    z 0.000000 0.000000 3.600900 
# 
# 
# High freq. dielectric constant tensor:
#      x y z
#    x 1.704790 0.000000 0.000000 
#    y 0.000000 1.695070 0.000000 
#    z 0.000000 0.000000 1.713100 
# 
# From -- ./inp_files/10160.got.cif
#   From: 2010.03.12/outbox.cif.g09.slc.cpg/sg60_6_cif.got.tgz:10160.got - 2010.04.10 18:46:24.
