data_PCOD8246089
_publ_section_title
;
Structure prediction by ZEFSAII (Michael W. Deem and Ramdas Pophale) SiO2 
 PCOD8246089
Probable space group: P M M N
;
_chemical_formula_sum "Si O2"
_cell_formula_units_Z 40
_cell_length_a 14.324645
_cell_length_b 8.672484
_cell_length_c 17.153379
_cell_angle_alpha 90.000000
_cell_angle_beta 90.000000
_cell_angle_gamma 90.000000
_cell_volume 2130.968640
_symmetry_space_group_name_H-M "P M M N"
_symmetry_group_IT_number 59
_space_group.IT_coordinate_system_code '2'
_symmetry_cell_setting 'orthorhombic'
loop_
_space_group_symop_operation_xyz
x,y,z
1/2-x,1/2-y,z
1/2+x,-y,-z
-x,1/2+y,-z
-x,-y,-z
1/2+x,1/2+y,-z
1/2-x,y,z
x,1/2-y,z
loop_
_atom_site_type_symbol
_atom_site_label
_atom_site_fract_x
_atom_site_fract_y
_atom_site_fract_z
Si Si1 0.557364 0.431397 0.292187
Si Si2 0.021484 0.569669 0.884720
Si Si3 0.941759 0.432122 0.570593
Si Si4 0.750000 0.931946 0.525304
Si Si5 0.750000 0.567142 0.343983
Si Si6 0.853939 0.567799 0.989910
O O1 0.554984 0.250000 0.309907
O O2 0.522498 0.471689 0.205907
O O3 0.487427 0.520030 0.348481
O O4 0.661247 0.493812 0.302523
O O5 0.033667 0.750000 0.899020
O O6 0.923372 0.510238 0.921256
O O7 0.108293 0.487568 0.926541
O O8 0.941135 0.250000 0.562475
O O9 0.838082 0.497365 0.568877
O O10 0.000000 0.500000 0.500000
O O11 0.750000 0.750000 0.535846
O O12 0.750000 0.978802 0.434757
O O13 0.750000 0.750000 0.333099
O O14 0.750000 0.499596 0.975553
O O15 0.849154 0.750000 0.991038
#
# Coordination Sequence:
#
# PCOD8246089 Si02
#       6
#     8   8   8   4   4   8
#     4  11  23  39  59  86 119 155 192 240 294 348
#     4   9  20  37  56  83 116 149 188 232 283 343
#     4  12  24  40  62  87 118 155 196 244 291 346
#     4  11  23  41  63  87 113 154 201 242 294 351
#     4  11  23  37  59  87 115 150 195 244 292 347
#     4   9  18  35  59  84 111 147 189 232 282 340
#
# _framework density 18.770807999999999
#
# number of rings (size 3 to 8) (size 9 to 14) (size 15 to 20)
#    0.000    1.600    2.000    3.000    1.400    2.800 
#    1.800    0.000    0.000    0.000    0.000    0.000 
#    0.000    0.000    0.000    0.000    0.000    0.000 
#
# Total GULP energy -496140.254560 kJ/mol
# GULP energy per Si atom -12403.506364 kJ/mol
# Density = 1.872808 g / cm^3
# Si number density = 18.770808 Si / 1000 Ang^3
#
#
#
# Elastic Constant Matrix: (Units=GPa)
#
#
# Indices 1 2 3 4 5 6 
#
# 1 174.3950 44.1710 67.2426 0.0000 0.0000 0.0000
# 2 44.1710 75.2109 38.5661 0.0000 0.0000 0.0000
# 3 67.2426 38.5661 114.5610 0.0000 0.0000 0.0000
# 4 0.0000 0.0000 0.0000 30.8078 0.0000 0.0000
# 5 0.0000 0.0000 0.0000 0.0000 20.2972 0.0000
# 6 0.0000 0.0000 0.0000 0.0000 0.0000 27.7720
#
#
#
# Elastic Compliance Matrix: (Units=1/GPa)
#
#
# Indices 1 2 3 4 5 6 
#
# 1 0.007845 -0.002715 -0.003691 0.000000 0.000000 0.000000
# 2 -0.002715 0.017009 -0.004133 0.000000 0.000000 0.000000
# 3 -0.003691 -0.004133 0.012286 0.000000 0.000000 0.000000
# 4 0.000000 0.000000 0.000000 0.032459 0.000000 0.000000
# 5 0.000000 0.000000 0.000000 0.000000 0.049268 0.000000
# 6 0.000000 0.000000 0.000000 0.000000 0.000000 0.036007
#
#
# Mechanical properties :
#
#
# Convention : Reuss Voigt Hill
#
# Bulk Modulus (GPa) = 62.24885 73.79181 68.02033
# Shear Modulus (GPa) = 27.57766 30.05455 28.81610
#
# Velocity S-wave (km/s) = 3.83714 4.00576 3.92236
# Velocity P-wave (km/s) = 7.27091 7.79693 7.53851
#
# Compressibility (1/GPa) = 0.01606455
#
# Stress axis : x y z
#
# Youngs Moduli (GPa) = 127.47422 58.79102 81.39035
#
# Poissons Ratio (x) = 0.15960 0.30038
# Poissons Ratio (y) = 0.34606 0.33636
# Poissons Ratio (z) = 0.47046 0.24296
#
# Static dielectric constant tensor:
#      x y z
#    x 3.850710 0.000000 0.000000 
#    y 0.000000 3.503040 0.000000 
#    z 0.000000 0.000000 3.497050 
# 
# 
# High freq. dielectric constant tensor:
#      x y z
#    x 1.741980 0.000000 0.000000 
#    y 0.000000 1.735050 0.000000 
#    z 0.000000 0.000000 1.727330 
# 
# From -- ./inp_files/22994.got.cif
#   From: 2010.03.12/outbox.cif.g09.slc.cpg/sg59_12_cif.got.tgz:22994.got - 2010.04.16 16:29:54.
