data_PCOD8246576
_publ_section_title
;
Structure prediction by ZEFSAII (Michael W. Deem and Ramdas Pophale) SiO2 
 PCOD8246576
Probable space group: P B C N
;
_chemical_formula_sum "Si O2"
_cell_formula_units_Z 64
_cell_length_a 27.418940
_cell_length_b 20.871326
_cell_length_c 5.344812
_cell_angle_alpha 90.000000
_cell_angle_beta 90.000000
_cell_angle_gamma 90.000000
_cell_volume 3058.673614
_symmetry_space_group_name_H-M "P B C N"
_symmetry_group_IT_number 60
_symmetry_cell_setting 'orthorhombic'
loop_
_space_group_symop_operation_xyz
x,y,z
1/2-x,1/2-y,1/2+z
1/2+x,1/2-y,-z
-x,y,1/2-z
-x,-y,-z
1/2+x,1/2+y,1/2-z
1/2-x,1/2+y,z
x,-y,1/2+z
loop_
_atom_site_type_symbol
_atom_site_label
_atom_site_fract_x
_atom_site_fract_y
_atom_site_fract_z
Si Si1 0.915771 0.819577 0.250489
Si Si2 0.642413 0.165705 0.703154
Si Si3 0.314437 0.270925 0.162948
Si Si4 0.057458 0.962990 0.248493
Si Si5 0.232594 0.526925 0.281629
Si Si6 0.730331 0.161361 0.057283
Si Si7 0.054346 0.248311 0.232076
Si Si8 0.124588 0.525239 0.871950
O O1 0.860391 0.798913 0.189247
O O2 0.916265 0.895357 0.278896
O O3 0.933872 0.788256 0.509479
O O4 0.946893 0.799336 0.007064
O O5 0.666790 0.220661 0.540325
O O6 0.593184 0.195189 0.824573
O O7 0.626726 0.100908 0.558916
O O8 0.683239 0.141687 0.896150
O O9 0.278301 0.232266 0.340597
O O10 0.283182 0.331907 0.071396
O O11 0.000000 0.951206 0.250000
O O12 0.073848 0.995355 0.508862
O O13 0.258908 0.505655 0.541604
O O14 0.235445 0.603846 0.242743
O O15 0.177287 0.503726 0.303308
O O16 0.000000 0.277876 0.250000
O O17 0.097512 0.510775 0.604792
#
# Coordination Sequence:
#
# PCOD8246576 Si02
#       8
#     8   8   8   8   8   8   8   8
#     4  11  23  41  62  89 126 158 199 252 305 359
#     4  11  22  37  59  86 119 154 196 250 293 353
#     4  11  24  37  58  90 120 164 200 246 305 358
#     4  10  20  36  61  87 114 155 203 247 297 362
#     4  10  20  34  55  80 109 148 201 240 279 335
#     4  12  21  37  59  84 121 156 200 248 289 358
#     4  11  23  39  63  92 122 156 196 248 311 364
#     4  10  19  33  56  81 109 148 197 238 280 337
#
# _framework density 20.924101
#
# number of rings (size 3 to 8) (size 9 to 14) (size 15 to 20)
#    0.000    1.250    5.000    3.375    0.000    1.000 
#    0.000    1.250    0.000    0.750    0.000    0.000 
#    0.000    0.000    0.000    0.000    0.000    0.000 
#
# Total GULP energy -793114.650931 kJ/mol
# GULP energy per Si atom -12392.416421 kJ/mol
# Density = 2.087648 g / cm^3
# Si number density = 20.924101 Si / 1000 Ang^3
#
#
#
# Elastic Constant Matrix: (Units=GPa)
#
#
# Indices 1 2 3 4 5 6 
#
# 1 74.7770 38.2193 19.2956 0.0000 0.0000 0.0000
# 2 38.2193 126.6565 31.0556 0.0000 0.0000 0.0000
# 3 19.2956 31.0556 139.9026 0.0000 0.0000 0.0000
# 4 0.0000 0.0000 0.0000 22.5711 0.0000 0.0000
# 5 0.0000 0.0000 0.0000 0.0000 14.7565 0.0000
# 6 0.0000 0.0000 0.0000 0.0000 0.0000 -1.0532
#
#
#
# Elastic Compliance Matrix: (Units=1/GPa)
#
#
# Indices 1 2 3 4 5 6 
#
# 1 0.016000 -0.004534 -0.001200 0.000000 0.000000 0.000000
# 2 -0.004534 0.009635 -0.001513 0.000000 0.000000 0.000000
# 3 -0.001200 -0.001513 0.007649 0.000000 0.000000 0.000000
# 4 0.000000 0.000000 0.000000 0.044304 0.000000 0.000000
# 5 0.000000 0.000000 0.000000 0.000000 0.067767 0.000000
# 6 0.000000 0.000000 0.000000 0.000000 0.000000 -0.949446
#
#
# Mechanical properties :
#
#
# Convention : Reuss Voigt Hill
#
# Bulk Modulus (GPa) = 53.22282 57.60859 55.41571
# Shear Modulus (GPa) = -6.38298 24.10591 8.86146
#
# Velocity S-wave (km/s) = -1.74847 3.39789 2.06016
# Velocity P-wave (km/s) = 4.62765 6.55638 5.67456
#
# Compressibility (1/GPa) = 0.01878893
#
# Stress axis : x y z
#
# Youngs Moduli (GPa) = 62.49952 103.79320 130.73050
#
# Poissons Ratio (x) = 0.47058 0.15692
# Poissons Ratio (y) = 0.28336 0.19784
# Poissons Ratio (z) = 0.07502 0.15708
#
# Static dielectric constant tensor:
#      x y z
#    x 3.595260 0.000000 0.000000 
#    y 0.000000 3.783640 0.000000 
#    z 0.000000 0.000000 4.329970 
# 
# 
# High freq. dielectric constant tensor:
#      x y z
#    x 1.778760 0.000000 0.000000 
#    y 0.000000 1.825830 0.000000 
#    z 0.000000 0.000000 1.829750 
# 
# From -- ./inp_files/2657.got.cif
#   From: 2010.03.12/outbox.cif.g09.slc.cpg/sg60_2_cif.got.tgz:2657.got - 2010.04.10 18:46:24.
