data_PCOD8246511
_publ_section_title
;
Structure prediction by ZEFSAII (Michael W. Deem and Ramdas Pophale) SiO2 
 PCOD8246511
Probable space group: P B C N
;
_chemical_formula_sum "Si O2"
_cell_formula_units_Z 28
_cell_length_a 7.693813
_cell_length_b 12.983263
_cell_length_c 10.056281
_cell_angle_alpha 90.000000
_cell_angle_beta 90.000000
_cell_angle_gamma 90.000000
_cell_volume 1004.529931
_symmetry_space_group_name_H-M "P B C N"
_symmetry_group_IT_number 60
_symmetry_cell_setting 'orthorhombic'
loop_
_space_group_symop_operation_xyz
x,y,z
1/2-x,1/2-y,1/2+z
1/2+x,1/2-y,-z
-x,y,1/2-z
-x,-y,-z
1/2+x,1/2+y,1/2-z
1/2-x,1/2+y,z
x,-y,1/2+z
loop_
_atom_site_type_symbol
_atom_site_label
_atom_site_fract_x
_atom_site_fract_y
_atom_site_fract_z
Si Si1 0.522159 0.194410 0.477316
Si Si2 0.500000 0.107499 0.750000
Si Si3 0.356984 0.406389 0.968625
Si Si4 0.224182 0.941342 0.681064
O O1 0.579224 0.174417 0.629890
O O2 0.340954 0.136293 0.457496
O O3 0.517506 0.318739 0.467349
O O4 0.661808 0.156436 0.366862
O O5 0.343245 0.039417 0.700636
O O6 0.395323 0.421129 0.810991
O O7 0.383015 0.515288 0.051789
#
# Coordination Sequence:
#
# PCOD8246511 Si02
#       4
#     8   4   8   8
#     4  11  23  39  68  98 127 169 222 268 319 385
#     4  10  18  40  64  88 124 172 218 250 306 396
#     4  11  24  41  72  94 132 170 223 266 323 384
#     4  11  20  42  65  95 126 176 218 258 315 403
#
# _framework density 27.873736000000001
#
# number of rings (size 3 to 8) (size 9 to 14) (size 15 to 20)
#    0.000    1.143    5.714    1.714    8.000    0.000 
#    0.000    1.429    6.286    0.000    0.000    0.000 
#    0.000    0.000    0.000    0.000    0.000    0.000 
#
# Total GULP energy -347051.528447 kJ/mol
# GULP energy per Si atom -12394.697445 kJ/mol
# Density = 2.781029 g / cm^3
# Si number density = 27.873736 Si / 1000 Ang^3
#
#
#
# Elastic Constant Matrix: (Units=GPa)
#
#
# Indices 1 2 3 4 5 6 
#
# 1 75.7013 21.0412 53.1056 0.0000 0.0000 0.0000
# 2 21.0412 170.1783 61.0007 0.0000 0.0000 0.0000
# 3 53.1056 61.0007 185.7580 0.0000 0.0000 0.0000
# 4 0.0000 0.0000 0.0000 35.0489 0.0000 0.0000
# 5 0.0000 0.0000 0.0000 0.0000 50.3136 0.0000
# 6 0.0000 0.0000 0.0000 0.0000 0.0000 35.2042
#
#
#
# Elastic Compliance Matrix: (Units=1/GPa)
#
#
# Indices 1 2 3 4 5 6 
#
# 1 0.016547 -0.000397 -0.004600 0.000000 0.000000 0.000000
# 2 -0.000397 0.006670 -0.002077 0.000000 0.000000 0.000000
# 3 -0.004600 -0.002077 0.007380 0.000000 0.000000 0.000000
# 4 0.000000 0.000000 0.000000 0.028532 0.000000 0.000000
# 5 0.000000 0.000000 0.000000 0.000000 0.019875 0.000000
# 6 0.000000 0.000000 0.000000 0.000000 0.000000 0.028406
#
#
# Mechanical properties :
#
#
# Convention : Reuss Voigt Hill
#
# Bulk Modulus (GPa) = 60.79220 77.99250 69.39235
# Shear Modulus (GPa) = 39.35729 43.87935 41.61832
#
# Velocity S-wave (km/s) = 3.76172 3.97195 3.86826
# Velocity P-wave (km/s) = 6.38158 7.00546 6.70079
#
# Compressibility (1/GPa) = 0.01644948
#
# Stress axis : x y z
#
# Youngs Moduli (GPa) = 60.43274 149.93204 135.49243
#
# Poissons Ratio (x) = 0.05952 0.62330
# Poissons Ratio (y) = 0.02399 0.28139
# Poissons Ratio (z) = 0.27801 0.31137
#
# Static dielectric constant tensor:
#      x y z
#    x 6.054830 0.000000 0.000000 
#    y 0.000000 5.021700 0.000000 
#    z 0.000000 0.000000 6.226420 
# 
# 
# High freq. dielectric constant tensor:
#      x y z
#    x 2.174290 0.000000 0.000000 
#    y 0.000000 2.125020 0.000000 
#    z 0.000000 0.000000 2.152410 
# 
# From -- ./inp_files/4455.got.cif
#   From: 2010.03.12/outbox.cif.g09.slc.cpg/sg60_3_cif.got.tgz:4455.got - 2010.04.10 18:46:24.
