data_PCOD8246358
_publ_section_title
;
Structure prediction by ZEFSAII (Michael W. Deem and Ramdas Pophale) SiO2 
 PCOD8246358
Probable space group: P B C N
;
_chemical_formula_sum "Si O2"
_cell_formula_units_Z 64
_cell_length_a 17.201688
_cell_length_b 18.049318
_cell_length_c 10.922938
_cell_angle_alpha 90.000000
_cell_angle_beta 90.000000
_cell_angle_gamma 90.000000
_cell_volume 3391.339993
_symmetry_space_group_name_H-M "P B C N"
_symmetry_group_IT_number 60
_symmetry_cell_setting 'orthorhombic'
loop_
_space_group_symop_operation_xyz
x,y,z
1/2-x,1/2-y,1/2+z
1/2+x,1/2-y,-z
-x,y,1/2-z
-x,-y,-z
1/2+x,1/2+y,1/2-z
1/2-x,1/2+y,z
x,-y,1/2+z
loop_
_atom_site_type_symbol
_atom_site_label
_atom_site_fract_x
_atom_site_fract_y
_atom_site_fract_z
Si Si1 0.643447 0.616603 0.564068
Si Si2 0.184610 0.361887 0.844068
Si Si3 0.014985 0.668860 0.392803
Si Si4 0.750000 0.738013 0.500000
Si Si5 0.485015 0.331140 0.107197
Si Si6 0.356553 0.116603 0.064068
Si Si7 0.815390 0.138113 0.844069
Si Si8 0.750000 0.986403 0.500000
O O1 0.676917 0.682285 0.477234
O O2 0.549898 0.613418 0.550586
O O3 0.671714 0.638777 0.700010
O O4 0.674994 0.536364 0.528289
O O5 0.102320 0.359059 0.918228
O O6 0.171714 0.361223 0.700010
O O7 0.230138 0.436027 0.882752
O O8 0.235421 0.290180 0.881866
O O9 0.000000 0.673405 0.250000
O O10 1.000000 0.750000 0.450392
O O11 0.950102 0.613418 0.449414
O O12 0.823083 0.682284 0.522766
O O13 0.764580 0.790180 0.381866
O O14 0.500000 0.326595 0.250000
O O15 0.397680 0.359060 0.081772
O O16 0.325006 0.036364 0.028289
O O17 0.769862 0.063974 0.882752
#
# Coordination Sequence:
#
# PCOD8246358 Si02
#       8
#     8   8   8   8   8   8   8   8
#     4  10  19  33  50  74 103 129 167 208 242 293
#     4  10  19  33  50  74 103 129 167 208 242 293
#     4   9  16  29  52  74  94 126 166 209 247 279
#     4  10  18  28  50  76  94 124 162 204 256 284
#     4   9  16  29  52  74  94 126 166 209 247 279
#     4  10  19  33  50  74 103 129 167 208 242 293
#     4  10  19  33  50  74 103 129 167 208 242 293
#     4  10  22  32  48  76 104 140 162 190 256 302
#
# _framework density 18.871596
#
# number of rings (size 3 to 8) (size 9 to 14) (size 15 to 20)
#    0.000    2.250    2.500    1.500    0.000    1.000 
#    0.000    0.000    0.000    0.000    0.000   63.000 
#    0.000    0.000    0.000    0.000    0.000    0.000 
#
# Total GULP energy -793148.221343 kJ/mol
# GULP energy per Si atom -12392.940958 kJ/mol
# Density = 1.882864 g / cm^3
# Si number density = 18.871596 Si / 1000 Ang^3
#
#
#
# Elastic Constant Matrix: (Units=GPa)
#
#
# Indices 1 2 3 4 5 6 
#
# 1 106.9149 47.7617 17.8773 0.0000 0.0000 0.0000
# 2 47.7617 121.2405 10.8377 0.0000 0.0000 0.0000
# 3 17.8773 10.8377 29.6353 0.0000 0.0000 0.0000
# 4 0.0000 0.0000 0.0000 17.7657 0.0000 0.0000
# 5 0.0000 0.0000 0.0000 0.0000 21.7222 0.0000
# 6 0.0000 0.0000 0.0000 0.0000 0.0000 27.9897
#
#
#
# Elastic Compliance Matrix: (Units=1/GPa)
#
#
# Indices 1 2 3 4 5 6 
#
# 1 0.012249 -0.004306 -0.005814 0.000000 0.000000 0.000000
# 2 -0.004306 0.010040 -0.001074 0.000000 0.000000 0.000000
# 3 -0.005814 -0.001074 0.037644 0.000000 0.000000 0.000000
# 4 0.000000 0.000000 0.000000 0.056288 0.000000 0.000000
# 5 0.000000 0.000000 0.000000 0.000000 0.046036 0.000000
# 6 0.000000 0.000000 0.000000 0.000000 0.000000 0.035727
#
#
# Mechanical properties :
#
#
# Convention : Reuss Voigt Hill
#
# Bulk Modulus (GPa) = 26.63532 45.63823 36.13677
# Shear Modulus (GPa) = 21.46950 25.58312 23.52631
#
# Velocity S-wave (km/s) = 3.37658 3.68590 3.53463
# Velocity P-wave (km/s) = 5.41723 6.50773 5.98736
#
# Compressibility (1/GPa) = 0.03754414
#
# Stress axis : x y z
#
# Youngs Moduli (GPa) = 81.64004 99.59897 26.56464
#
# Poissons Ratio (x) = 0.42883 0.15446
# Poissons Ratio (y) = 0.35151 0.02854
# Poissons Ratio (z) = 0.47470 0.10701
#
# Static dielectric constant tensor:
#      x y z
#    x 3.833160 0.000000 0.000000 
#    y 0.000000 3.511280 0.000000 
#    z 0.000000 0.000000 3.053280 
# 
# 
# High freq. dielectric constant tensor:
#      x y z
#    x 1.737030 0.000000 0.000000 
#    y 0.000000 1.740420 0.000000 
#    z 0.000000 0.000000 1.685050 
# 
# From -- ./inp_files/12630.got.cif
#   From: 2010.03.12/outbox.cif.g09.slc.cpg/sg60_7_cif.got.tgz:12630.got - 2010.04.10 18:46:24.
