data_PCOD8246317
_publ_section_title
;
Structure prediction by ZEFSAII (Michael W. Deem and Ramdas Pophale) SiO2 
 PCOD8246317
Probable space group: P B C N
;
_chemical_formula_sum "Si O2"
_cell_formula_units_Z 56
_cell_length_a 11.947278
_cell_length_b 29.194697
_cell_length_c 9.980618
_cell_angle_alpha 90.000000
_cell_angle_beta 90.000000
_cell_angle_gamma 90.000000
_cell_volume 3481.211225
_symmetry_space_group_name_H-M "P B C N"
_symmetry_group_IT_number 60
_symmetry_cell_setting 'orthorhombic'
loop_
_space_group_symop_operation_xyz
x,y,z
1/2-x,1/2-y,1/2+z
1/2+x,1/2-y,-z
-x,y,1/2-z
-x,-y,-z
1/2+x,1/2+y,1/2-z
1/2-x,1/2+y,z
x,-y,1/2+z
loop_
_atom_site_type_symbol
_atom_site_label
_atom_site_fract_x
_atom_site_fract_y
_atom_site_fract_z
Si Si1 0.091788 0.097674 0.365690
Si Si2 0.418314 0.226770 0.866820
Si Si3 0.567066 0.600228 0.615992
Si Si4 0.578055 0.499530 0.125841
Si Si5 0.718721 0.685792 0.209355
Si Si6 0.934538 0.263510 0.615669
Si Si7 0.707799 0.681712 0.526689
O O1 0.151908 0.046648 0.368619
O O2 0.187217 0.135827 0.347554
O O3 0.000000 0.103393 0.250000
O O4 0.028117 0.103664 0.504463
O O5 0.500000 0.209300 0.750000
O O6 0.378808 0.278718 0.833956
O O7 0.310370 0.194544 0.876451
O O8 0.478448 0.218126 0.007624
O O9 0.500000 0.613484 0.750000
O O10 0.633212 0.550987 0.628364
O O11 0.669346 0.632623 0.578241
O O12 0.500000 0.504215 0.250000
O O13 0.500000 0.500000 0.000000
O O14 0.835718 0.700037 0.141342
O O15 0.735824 0.683317 0.369073
O O16 0.891638 0.216796 0.552019
O O17 0.000000 0.251763 0.750000
#
# Coordination Sequence:
#
# PCOD8246317 Si02
#       7
#     8   8   8   8   8   8   8
#     4  10  17  30  52  72 101 133 162 199 246 300
#     4  11  22  36  51  71 104 132 164 208 247 284
#     4  10  19  31  47  76 107 127 161 203 246 298
#     4   8  16  28  45  71 101 130 153 194 252 298
#     4  11  21  33  53  76  94 133 176 196 242 299
#     4  11  22  35  49  71 104 130 163 212 246 282
#     4  11  21  33  53  75  95 134 172 199 244 295
#
# _framework density 16.086354
#
# number of rings (size 3 to 8) (size 9 to 14) (size 15 to 20)
#    0.000    1.714    4.286    1.714    0.000    1.143 
#    0.000    0.000    0.000    0.000    0.000    2.000 
#    0.000    0.000    0.000    0.000    0.000    0.000 
#
# Total GULP energy -693770.691491 kJ/mol
# GULP energy per Si atom -12388.762348 kJ/mol
# Density = 1.604974 g / cm^3
# Si number density = 16.086354 Si / 1000 Ang^3
#
#
#
# Elastic Constant Matrix: (Units=GPa)
#
#
# Indices 1 2 3 4 5 6 
#
# 1 46.9280 34.3397 12.1567 0.0000 0.0000 0.0000
# 2 34.3397 126.5619 21.3377 0.0000 0.0000 0.0000
# 3 12.1567 21.3377 102.0490 0.0000 0.0000 0.0000
# 4 0.0000 0.0000 0.0000 22.0411 0.0000 0.0000
# 5 0.0000 0.0000 0.0000 0.0000 30.3867 0.0000
# 6 0.0000 0.0000 0.0000 0.0000 0.0000 21.1737
#
#
#
# Elastic Compliance Matrix: (Units=1/GPa)
#
#
# Indices 1 2 3 4 5 6 
#
# 1 0.026883 -0.007001 -0.001739 0.000000 0.000000 0.000000
# 2 -0.007001 0.010013 -0.001260 0.000000 0.000000 0.000000
# 3 -0.001739 -0.001260 0.010270 0.000000 0.000000 0.000000
# 4 0.000000 0.000000 0.000000 0.045370 0.000000 0.000000
# 5 0.000000 0.000000 0.000000 0.000000 0.032909 0.000000
# 6 0.000000 0.000000 0.000000 0.000000 0.000000 0.047228
#
#
# Mechanical properties :
#
#
# Convention : Reuss Voigt Hill
#
# Bulk Modulus (GPa) = 36.80915 45.68967 41.24941
# Shear Modulus (GPa) = 24.78602 28.56729 26.67666
#
# Velocity S-wave (km/s) = 3.92957 4.21868 4.07669
# Velocity P-wave (km/s) = 6.59702 7.22455 6.91790
#
# Compressibility (1/GPa) = 0.02716716
#
# Stress axis : x y z
#
# Youngs Moduli (GPa) = 37.19888 99.86851 97.37362
#
# Poissons Ratio (x) = 0.69916 0.16929
# Poissons Ratio (y) = 0.26042 0.12266
# Poissons Ratio (z) = 0.06467 0.12580
#
# Static dielectric constant tensor:
#      x y z
#    x 2.788280 0.000000 0.000000 
#    y 0.000000 3.515310 0.000000 
#    z 0.000000 0.000000 3.442290 
# 
# 
# High freq. dielectric constant tensor:
#      x y z
#    x 1.578430 0.000000 0.000000 
#    y 0.000000 1.620240 0.000000 
#    z 0.000000 0.000000 1.645130 
# 
# From -- ./inp_files/11392.got.cif
#   From: 2010.03.12/outbox.cif.g09.slc.cpg/sg60_6_cif.got.tgz:11392.got - 2010.04.10 18:46:24.
