data_PCOD8246116
_publ_section_title
;
Structure prediction by ZEFSAII (Michael W. Deem and Ramdas Pophale) SiO2 
 PCOD8246116
Probable space group: P M M N
;
_chemical_formula_sum "Si O2"
_cell_formula_units_Z 48
_cell_length_a 9.876601
_cell_length_b 8.523486
_cell_length_c 29.385884
_cell_angle_alpha 90.000000
_cell_angle_beta 90.000000
_cell_angle_gamma 90.000000
_cell_volume 2473.793940
_symmetry_space_group_name_H-M "P M M N"
_symmetry_group_IT_number 59
_space_group.IT_coordinate_system_code '2'
_symmetry_cell_setting 'orthorhombic'
loop_
_space_group_symop_operation_xyz
x,y,z
1/2-x,1/2-y,z
1/2+x,-y,-z
-x,1/2+y,-z
-x,-y,-z
1/2+x,1/2+y,-z
1/2-x,y,z
x,1/2-y,z
loop_
_atom_site_type_symbol
_atom_site_label
_atom_site_fract_x
_atom_site_fract_y
_atom_site_fract_z
Si Si1 0.899365 0.064277 0.136740
Si Si2 0.095651 0.564838 0.961427
Si Si3 0.471120 0.431913 0.404521
Si Si4 0.089311 0.567735 0.764808
Si Si5 0.750000 0.933901 0.433539
Si Si6 0.750000 0.068725 0.531762
Si Si7 0.597785 0.428916 0.689617
O O1 0.750000 0.991037 0.135884
O O2 0.887488 0.250000 0.138079
O O3 0.966564 0.012876 0.088410
O O4 0.966784 0.013450 0.184854
O O5 0.250000 0.502428 0.967396
O O6 0.096338 0.750000 0.965076
O O7 0.000000 0.500000 0.000000
O O8 0.453449 0.250000 0.416916
O O9 0.624361 0.484860 0.409284
O O10 0.382989 0.533935 0.439154
O O11 0.424136 0.458153 0.353093
O O12 0.250000 0.536683 0.760733
O O13 0.057333 0.750000 0.755922
O O14 0.009887 0.464691 0.728659
O O15 0.750000 0.750000 0.423374
O O16 0.750000 0.961679 0.487311
O O17 0.750000 0.250000 0.517020
O O18 0.750000 0.455405 0.708387
O O19 0.577124 0.250000 0.673535
#
# Coordination Sequence:
#
# PCOD8246116 Si02
#       7
#     8   8   8   8   4   4   8
#     4   7  12  27  50  74 101 136 178 226 276 329
#     4   9  17  30  49  73 103 140 182 226 276 331
#     4  12  25  43  66  92 120 156 200 242 284 337
#     4   9  18  34  59  86 108 135 181 236 285 334
#     4  12  26  44  66  94 126 158 194 240 289 336
#     4  12  24  44  68  94 126 160 196 236 287 344
#     4  11  24  41  59  81 115 155 190 226 281 344
#
# _framework density 19.403393999999999
#
# number of rings (size 3 to 8) (size 9 to 14) (size 15 to 20)
#    0.000    2.000    0.833    6.000    1.167    1.667 
#    0.000    1.667    0.000    8.000    0.000    0.000 
#    0.000    0.000    0.000    0.000    0.000    0.000 
#
# Total GULP energy -594857.265270 kJ/mol
# GULP energy per Si atom -12392.859693 kJ/mol
# Density = 1.935923 g / cm^3
# Si number density = 19.403394 Si / 1000 Ang^3
#
#
#
# Elastic Constant Matrix: (Units=GPa)
#
#
# Indices 1 2 3 4 5 6 
#
# 1 89.0447 24.1126 34.0240 0.0000 0.0000 0.0000
# 2 24.1126 59.4044 20.3685 0.0000 0.0000 0.0000
# 3 34.0240 20.3685 116.3954 0.0000 0.0000 0.0000
# 4 0.0000 0.0000 0.0000 29.2743 0.0000 0.0000
# 5 0.0000 0.0000 0.0000 0.0000 33.8202 0.0000
# 6 0.0000 0.0000 0.0000 0.0000 0.0000 29.3475
#
#
#
# Elastic Compliance Matrix: (Units=1/GPa)
#
#
# Indices 1 2 3 4 5 6 
#
# 1 0.013662 -0.004443 -0.003216 0.000000 0.000000 0.000000
# 2 -0.004443 0.019353 -0.002088 0.000000 0.000000 0.000000
# 3 -0.003216 -0.002088 0.009897 0.000000 0.000000 0.000000
# 4 0.000000 0.000000 0.000000 0.034160 0.000000 0.000000
# 5 0.000000 0.000000 0.000000 0.000000 0.029568 0.000000
# 6 0.000000 0.000000 0.000000 0.000000 0.000000 0.034074
#
#
# Mechanical properties :
#
#
# Convention : Reuss Voigt Hill
#
# Bulk Modulus (GPa) = 42.70172 46.87275 44.78724
# Shear Modulus (GPa) = 29.75932 30.91104 30.33518
#
# Velocity S-wave (km/s) = 3.92052 3.99566 3.95827
# Velocity P-wave (km/s) = 6.52297 6.74511 6.63497
#
# Compressibility (1/GPa) = 0.02341826
#
# Stress axis : x y z
#
# Youngs Moduli (GPa) = 73.19404 51.67137 101.04144
#
# Poissons Ratio (x) = 0.22957 0.32497
# Poissons Ratio (y) = 0.32519 0.21097
# Poissons Ratio (z) = 0.23541 0.10789
#
# Static dielectric constant tensor:
#      x y z
#    x 3.669420 0.000000 0.000000 
#    y 0.000000 3.370960 0.000000 
#    z 0.000000 0.000000 3.276420 
# 
# 
# High freq. dielectric constant tensor:
#      x y z
#    x 1.737470 0.000000 0.000000 
#    y 0.000000 1.741520 0.000000 
#    z 0.000000 0.000000 1.772720 
# 
# From -- ./inp_files/33099.got.cif
#   From: 2010.03.12/outbox.cif.g09.slc.cpg/sg59_17_cif.got.tgz:33099.got - 2010.04.16 16:29:54.
