data_PCOD8246674
_publ_section_title
;
Structure prediction by ZEFSAII (Michael W. Deem and Ramdas Pophale) SiO2 
 PCOD8246674
Probable space group: P B C N
;
_chemical_formula_sum "Si O2"
_cell_formula_units_Z 60
_cell_length_a 8.238713
_cell_length_b 25.170440
_cell_length_c 15.105517
_cell_angle_alpha 90.000000
_cell_angle_beta 90.000000
_cell_angle_gamma 90.000000
_cell_volume 3132.461743
_symmetry_space_group_name_H-M "P B C N"
_symmetry_group_IT_number 60
_symmetry_cell_setting 'orthorhombic'
loop_
_space_group_symop_operation_xyz
x,y,z
1/2-x,1/2-y,1/2+z
1/2+x,1/2-y,-z
-x,y,1/2-z
-x,-y,-z
1/2+x,1/2+y,1/2-z
1/2-x,1/2+y,z
x,-y,1/2+z
loop_
_atom_site_type_symbol
_atom_site_label
_atom_site_fract_x
_atom_site_fract_y
_atom_site_fract_z
Si Si1 0.387723 0.862403 0.542952
Si Si2 0.590014 0.578024 0.519064
Si Si3 0.888837 0.823205 0.508070
Si Si4 0.675049 0.181548 0.274919
Si Si5 0.193831 0.603958 0.367292
Si Si6 0.551216 0.518162 0.145120
Si Si7 0.926351 0.723287 0.934372
Si Si8 0.500000 0.744979 0.250000
O O1 0.269124 0.898180 0.484780
O O2 0.301199 0.828883 0.621063
O O3 0.526731 0.901899 0.579175
O O4 0.461809 0.818445 0.481275
O O5 0.463947 0.625378 0.540480
O O6 0.567182 0.550308 0.422038
O O7 0.571431 0.540305 0.604409
O O8 0.798829 0.847016 0.593329
O O9 0.763443 0.790495 0.446787
O O10 0.034870 0.783573 0.534501
O O11 0.500000 0.210263 0.250000
O O12 0.664136 0.122943 0.232351
O O13 0.833580 0.211578 0.239054
O O14 0.275732 0.546678 0.364053
O O15 0.500000 0.517211 0.250000
O O16 0.974522 0.716777 0.832651
#
# Coordination Sequence:
#
# PCOD8246674 Si02
#       8
#     8   8   8   8   8   8   8   4
#     4  10  21  37  58  86 120 151 194 248 299 358
#     4  10  21  38  59  86 117 154 193 245 303 352
#     4  10  19  36  56  81 116 153 193 238 284 352
#     4  10  20  35  57  89 120 145 201 261 297 344
#     4   9  19  34  59  86 110 143 194 256 298 336
#     4  10  21  37  61  87 113 150 199 242 301 368
#     4  11  22  36  58  84 116 159 201 233 295 357
#     4  12  22  36  56  86 118 164 200 246 296 356
#
# _framework density 19.154264000000001
#
# number of rings (size 3 to 8) (size 9 to 14) (size 15 to 20)
#    0.000    1.867    1.333    3.200    2.800    0.533 
#    4.800    0.000    0.000    0.000    0.000    0.000 
#    0.000    0.000    0.000    0.000    0.000    0.000 
#
# Total GULP energy -743403.926846 kJ/mol
# GULP energy per Si atom -12390.065447 kJ/mol
# Density = 1.911067 g / cm^3
# Si number density = 19.154264 Si / 1000 Ang^3
#
#
#
# Elastic Constant Matrix: (Units=GPa)
#
#
# Indices 1 2 3 4 5 6 
#
# 1 121.3531 53.2046 34.6581 0.0000 0.0000 0.0000
# 2 53.2046 91.2251 47.2416 0.0000 0.0000 0.0000
# 3 34.6581 47.2416 105.8582 0.0000 0.0000 0.0000
# 4 0.0000 0.0000 0.0000 21.3872 0.0000 0.0000
# 5 0.0000 0.0000 0.0000 0.0000 23.9563 0.0000
# 6 0.0000 0.0000 0.0000 0.0000 0.0000 20.8667
#
#
#
# Elastic Compliance Matrix: (Units=1/GPa)
#
#
# Indices 1 2 3 4 5 6 
#
# 1 0.011148 -0.005998 -0.000973 0.000000 0.000000 0.000000
# 2 -0.005998 0.017484 -0.005839 0.000000 0.000000 0.000000
# 3 -0.000973 -0.005839 0.012371 0.000000 0.000000 0.000000
# 4 0.000000 0.000000 0.000000 0.046757 0.000000 0.000000
# 5 0.000000 0.000000 0.000000 0.000000 0.041743 0.000000
# 6 0.000000 0.000000 0.000000 0.000000 0.000000 0.047923
#
#
# Mechanical properties :
#
#
# Convention : Reuss Voigt Hill
#
# Bulk Modulus (GPa) = 65.00699 65.40499 65.20599
# Shear Modulus (GPa) = 24.01856 25.46419 24.74137
#
# Velocity S-wave (km/s) = 3.54496 3.65009 3.59791
# Velocity P-wave (km/s) = 7.12517 7.21004 7.16773
#
# Compressibility (1/GPa) = 0.01538296
#
# Stress axis : x y z
#
# Youngs Moduli (GPa) = 89.70261 57.19659 80.83480
#
# Poissons Ratio (x) = 0.34305 0.07867
# Poissons Ratio (y) = 0.53801 0.47197
# Poissons Ratio (z) = 0.08730 0.33396
#
# Static dielectric constant tensor:
#      x y z
#    x 3.761720 0.000000 0.000000 
#    y 0.000000 3.329560 0.000000 
#    z 0.000000 0.000000 3.566480 
# 
# 
# High freq. dielectric constant tensor:
#      x y z
#    x 1.758790 0.000000 0.000000 
#    y 0.000000 1.724850 0.000000 
#    z 0.000000 0.000000 1.739050 
# 
# From -- ./inp_files/15382.got.cif
#   From: 2010.03.12/outbox.cif.g09.slc.cpg/sg60_8_cif.got.tgz:15382.got - 2010.04.10 18:46:24.
