data_PCOD8247526
_publ_section_title
;
Structure prediction by ZEFSAII (Michael W. Deem and Ramdas Pophale) SiO2 
 PCOD8247526
Probable space group: P B C N
;
_chemical_formula_sum "Si O2"
_cell_formula_units_Z 56
_cell_length_a 13.637343
_cell_length_b 9.588719
_cell_length_c 20.065002
_cell_angle_alpha 90.000000
_cell_angle_beta 90.000000
_cell_angle_gamma 90.000000
_cell_volume 2623.792962
_symmetry_space_group_name_H-M "P B C N"
_symmetry_group_IT_number 60
_symmetry_cell_setting 'orthorhombic'
loop_
_space_group_symop_operation_xyz
x,y,z
1/2-x,1/2-y,1/2+z
1/2+x,1/2-y,-z
-x,y,1/2-z
-x,-y,-z
1/2+x,1/2+y,1/2-z
1/2-x,1/2+y,z
x,-y,1/2+z
loop_
_atom_site_type_symbol
_atom_site_label
_atom_site_fract_x
_atom_site_fract_y
_atom_site_fract_z
Si Si1 0.658368 0.339793 0.156323
Si Si2 0.500000 0.233829 0.250000
Si Si3 0.948065 0.329940 0.552809
Si Si4 0.000000 0.275332 0.250000
Si Si5 0.299917 0.983903 0.037708
Si Si6 0.855109 0.771357 0.508382
Si Si7 0.070851 0.512546 0.155873
Si Si8 0.161191 0.841245 0.841110
O O1 0.563106 0.333053 0.202921
O O2 0.629646 0.277913 0.084189
O O3 0.693715 0.498528 0.151392
O O4 0.747095 0.248211 0.185146
O O5 0.576954 0.137254 0.290483
O O6 0.894877 0.407423 0.492700
O O7 0.040378 0.241859 0.527197
O O8 0.981276 0.447567 0.606082
O O9 0.949154 0.368123 0.306871
O O10 0.923138 0.174848 0.213616
O O11 0.325678 0.000108 0.116366
O O12 0.199204 0.902635 0.025643
O O13 0.288460 0.135026 0.004002
O O14 0.873188 0.788666 0.586638
#
# Coordination Sequence:
#
# PCOD8247526 Si02
#       8
#     8   4   8   4   8   8   8   8
#     4  11  25  43  65  92 127 172 217 260 322 385
#     4   9  21  44  66  88 132 176 216 260 326 382
#     4  10  21  41  67  90 129 170 209 260 329 390
#     4  11  23  42  64  94 128 166 220 270 316 378
#     4  11  21  41  63  99 126 165 215 267 321 394
#     4  11  23  40  67  95 132 168 212 267 333 386
#     4   9  20  39  67  92 125 169 210 262 325 385
#     4  12  25  42  67  97 128 170 219 268 321 388
#
# _framework density 21.343146999999998
#
# number of rings (size 3 to 8) (size 9 to 14) (size 15 to 20)
#    0.000    1.429    1.429    4.714    6.000    0.571 
#   10.286    0.000    0.000    0.000    0.000    0.000 
#    0.000    0.000    0.000    0.000    0.000    0.000 
#
# Total GULP energy -694570.358296 kJ/mol
# GULP energy per Si atom -12403.042112 kJ/mol
# Density = 2.129457 g / cm^3
# Si number density = 21.343147 Si / 1000 Ang^3
#
#
#
# Elastic Constant Matrix: (Units=GPa)
#
#
# Indices 1 2 3 4 5 6 
#
# 1 72.2728 29.4438 29.4251 0.0000 0.0000 0.0000
# 2 29.4438 129.2507 32.8920 0.0000 0.0000 0.0000
# 3 29.4251 32.8920 103.4584 0.0000 0.0000 0.0000
# 4 0.0000 0.0000 0.0000 16.4376 0.0000 0.0000
# 5 0.0000 0.0000 0.0000 0.0000 28.7638 0.0000
# 6 0.0000 0.0000 0.0000 0.0000 0.0000 28.9508
#
#
#
# Elastic Compliance Matrix: (Units=1/GPa)
#
#
# Indices 1 2 3 4 5 6 
#
# 1 0.016527 -0.002795 -0.003812 0.000000 0.000000 0.000000
# 2 -0.002795 0.008891 -0.002032 0.000000 0.000000 0.000000
# 3 -0.003812 -0.002032 0.011396 0.000000 0.000000 0.000000
# 4 0.000000 0.000000 0.000000 0.060836 0.000000 0.000000
# 5 0.000000 0.000000 0.000000 0.000000 0.034766 0.000000
# 6 0.000000 0.000000 0.000000 0.000000 0.000000 0.034541
#
#
# Mechanical properties :
#
#
# Convention : Reuss Voigt Hill
#
# Bulk Modulus (GPa) = 51.18618 54.27819 52.73219
# Shear Modulus (GPa) = 26.21285 29.04517 27.62901
#
# Velocity S-wave (km/s) = 3.50832 3.69299 3.60184
# Velocity P-wave (km/s) = 6.35969 6.60838 6.48523
#
# Compressibility (1/GPa) = 0.01953652
#
# Stress axis : x y z
#
# Youngs Moduli (GPa) = 60.50670 112.47838 87.75145
#
# Poissons Ratio (x) = 0.31436 0.33451
# Poissons Ratio (y) = 0.16911 0.17828
# Poissons Ratio (z) = 0.23065 0.22852
#
# Static dielectric constant tensor:
#      x y z
#    x 3.637210 0.000000 0.000000 
#    y 0.000000 3.823610 0.000000 
#    z 0.000000 0.000000 4.018830 
# 
# 
# High freq. dielectric constant tensor:
#      x y z
#    x 1.824660 0.000000 0.000000 
#    y 0.000000 1.839020 0.000000 
#    z 0.000000 0.000000 1.843920 
# 
# From -- ./inp_files/22937.got.cif
#   From: 2010.03.12/outbox.cif.g09.slc.cpg/sg60_12_cif.got.tgz:22937.got - 2010.04.10 18:46:24.
