data_PCOD8247279
_publ_section_title
;
Structure prediction by ZEFSAII (Michael W. Deem and Ramdas Pophale) SiO2 
 PCOD8247279
Probable space group: P B C N
;
_chemical_formula_sum "Si O2"
_cell_formula_units_Z 48
_cell_length_a 8.937193
_cell_length_b 16.008027
_cell_length_c 15.405490
_cell_angle_alpha 90.000000
_cell_angle_beta 90.000000
_cell_angle_gamma 90.000000
_cell_volume 2204.014570
_symmetry_space_group_name_H-M "P B C N"
_symmetry_group_IT_number 60
_symmetry_cell_setting 'orthorhombic'
loop_
_space_group_symop_operation_xyz
x,y,z
1/2-x,1/2-y,1/2+z
1/2+x,1/2-y,-z
-x,y,1/2-z
-x,-y,-z
1/2+x,1/2+y,1/2-z
1/2-x,1/2+y,z
x,-y,1/2+z
loop_
_atom_site_type_symbol
_atom_site_label
_atom_site_fract_x
_atom_site_fract_y
_atom_site_fract_z
Si Si1 0.164579 0.228005 0.253881
Si Si2 0.692304 0.711181 0.914624
Si Si3 0.368632 0.972063 0.897135
Si Si4 0.804044 0.528464 0.914306
Si Si5 0.135325 0.724414 0.409661
Si Si6 0.338460 0.461646 0.746296
O O1 0.245838 0.230918 0.161769
O O2 0.270856 0.264683 0.329737
O O3 0.140329 0.132015 0.280113
O O4 0.000000 0.271771 0.250000
O O5 0.735364 0.617342 0.888702
O O6 0.514635 0.722129 0.921231
O O7 0.765772 0.737538 0.004998
O O8 0.406616 0.873001 0.893943
O O9 0.275546 0.004625 0.814199
O O10 0.518409 0.026931 0.897718
O O11 0.273299 0.992123 0.984490
O O12 0.724908 0.462025 0.851488
O O13 0.500000 0.507177 0.750000
#
# Coordination Sequence:
#
# PCOD8247279 Si02
#       6
#     8   8   8   8   8   8
#     4  10  21  38  59  84 116 156 196 233 287 356
#     4  11  22  37  59  87 115 148 194 246 292 339
#     4   9  20  40  61  81 112 156 194 228 285 354
#     4  10  21  37  58  86 113 145 195 243 286 336
#     4  10  21  39  61  84 118 158 193 234 291 355
#     4  10  21  37  58  84 116 153 190 231 284 348
#
# _framework density 21.778438999999999
#
# number of rings (size 3 to 8) (size 9 to 14) (size 15 to 20)
#    0.000    2.000    0.000    3.000    0.000    7.333 
#    0.000    8.333    0.000    0.000    0.000    0.000 
#    0.000    0.000    0.000    0.000    0.000    0.000 
#
# Total GULP energy -595190.742180 kJ/mol
# GULP energy per Si atom -12399.807129 kJ/mol
# Density = 2.172887 g / cm^3
# Si number density = 21.778439 Si / 1000 Ang^3
#
#
#
# Elastic Constant Matrix: (Units=GPa)
#
#
# Indices 1 2 3 4 5 6 
#
# 1 168.2629 39.7987 72.0623 0.0000 0.0000 0.0000
# 2 39.7987 38.7492 28.0871 0.0000 0.0000 0.0000
# 3 72.0623 28.0871 141.7342 0.0000 0.0000 0.0000
# 4 0.0000 0.0000 0.0000 26.2662 0.0000 0.0000
# 5 0.0000 0.0000 0.0000 0.0000 44.0791 0.0000
# 6 0.0000 0.0000 0.0000 0.0000 0.0000 24.8759
#
#
#
# Elastic Compliance Matrix: (Units=1/GPa)
#
#
# Indices 1 2 3 4 5 6 
#
# 1 0.008929 -0.006866 -0.003179 0.000000 0.000000 0.000000
# 2 -0.006866 0.035416 -0.003527 0.000000 0.000000 0.000000
# 3 -0.003179 -0.003527 0.009371 0.000000 0.000000 0.000000
# 4 0.000000 0.000000 0.000000 0.038072 0.000000 0.000000
# 5 0.000000 0.000000 0.000000 0.000000 0.022686 0.000000
# 6 0.000000 0.000000 0.000000 0.000000 0.000000 0.040200
#
#
# Mechanical properties :
#
#
# Convention : Reuss Voigt Hill
#
# Bulk Modulus (GPa) = 37.63585 69.84917 53.74251
# Shear Modulus (GPa) = 26.22268 32.96410 29.59339
#
# Velocity S-wave (km/s) = 3.47373 3.89474 3.69024
# Velocity P-wave (km/s) = 5.77995 7.23654 6.54887
#
# Compressibility (1/GPa) = 0.02657041
#
# Stress axis : x y z
#
# Youngs Moduli (GPa) = 112.00020 28.23590 106.71533
#
# Poissons Ratio (x) = 0.19387 0.33924
# Poissons Ratio (y) = 0.76901 0.37642
# Poissons Ratio (z) = 0.35604 0.09960
#
# Static dielectric constant tensor:
#      x y z
#    x 4.042110 0.000000 0.000000 
#    y 0.000000 3.522830 0.000000 
#    z 0.000000 0.000000 4.087580 
# 
# 
# High freq. dielectric constant tensor:
#      x y z
#    x 1.863880 0.000000 0.000000 
#    y 0.000000 1.821780 0.000000 
#    z 0.000000 0.000000 1.872140 
# 
# From -- ./inp_files/14972.got.cif
#   From: 2010.03.12/outbox.cif.g09.slc.cpg/sg60_8_cif.got.tgz:14972.got - 2010.04.10 18:46:24.
