data_PCOD8247488
_publ_section_title
;
Structure prediction by ZEFSAII (Michael W. Deem and Ramdas Pophale) SiO2 
 PCOD8247488
Probable space group: P B C N
;
_chemical_formula_sum "Si O2"
_cell_formula_units_Z 40
_cell_length_a 13.245087
_cell_length_b 11.663684
_cell_length_c 11.867000
_cell_angle_alpha 90.000000
_cell_angle_beta 90.000000
_cell_angle_gamma 90.000000
_cell_volume 1833.291406
_symmetry_space_group_name_H-M "P B C N"
_symmetry_group_IT_number 60
_symmetry_cell_setting 'orthorhombic'
loop_
_space_group_symop_operation_xyz
x,y,z
1/2-x,1/2-y,1/2+z
1/2+x,1/2-y,-z
-x,y,1/2-z
-x,-y,-z
1/2+x,1/2+y,1/2-z
1/2-x,1/2+y,z
x,-y,1/2+z
loop_
_atom_site_type_symbol
_atom_site_label
_atom_site_fract_x
_atom_site_fract_y
_atom_site_fract_z
Si Si1 0.790616 0.539702 0.849928
Si Si2 0.132368 0.732858 0.490235
Si Si3 0.606571 0.393404 0.803293
Si Si4 0.945780 0.611194 0.455427
Si Si5 0.685468 0.797295 0.149049
O O1 0.805341 0.625747 0.955318
O O2 0.673354 0.502896 0.840894
O O3 0.860529 0.425030 0.864791
O O4 0.825519 0.598416 0.735470
O O5 0.088688 0.813737 0.588395
O O6 0.204564 0.802444 0.407375
O O7 0.037900 0.691301 0.412482
O O8 0.500000 0.433974 0.750000
O O9 0.668911 0.324245 0.708853
O O10 0.898479 0.683743 0.556077
O O11 0.000000 0.500000 0.500000
#
# Coordination Sequence:
#
# PCOD8247488 Si02
#       5
#     8   8   8   8   8
#     4  10  24  41  64  97 127 166 220 264 318 396
#     4  10  22  43  65  95 128 170 217 268 328 378
#     4  11  22  41  64  93 133 170 210 262 328 391
#     4  10  21  40  68  91 123 167 221 266 318 380
#     4  11  23  42  63  95 130 168 211 276 321 379
#
# _framework density 21.818680000000001
#
# number of rings (size 3 to 8) (size 9 to 14) (size 15 to 20)
#    0.000    1.600    4.000    0.000    5.600    0.000 
#    3.600    2.000    0.000    0.000    0.000    0.000 
#    0.000    0.000    0.000    0.000    0.000    0.000 
#
# Total GULP energy -495850.594474 kJ/mol
# GULP energy per Si atom -12396.264862 kJ/mol
# Density = 2.176902 g / cm^3
# Si number density = 21.818680 Si / 1000 Ang^3
#
#
#
# Elastic Constant Matrix: (Units=GPa)
#
#
# Indices 1 2 3 4 5 6 
#
# 1 125.5605 20.7314 36.7614 0.0000 0.0000 0.0000
# 2 20.7314 46.2467 17.3870 0.0000 0.0000 0.0000
# 3 36.7614 17.3870 76.6432 0.0000 0.0000 0.0000
# 4 0.0000 0.0000 0.0000 11.8252 0.0000 0.0000
# 5 0.0000 0.0000 0.0000 0.0000 32.3519 0.0000
# 6 0.0000 0.0000 0.0000 0.0000 0.0000 44.1434
#
#
#
# Elastic Compliance Matrix: (Units=1/GPa)
#
#
# Indices 1 2 3 4 5 6 
#
# 1 0.009588 -0.002809 -0.003962 0.000000 0.000000 0.000000
# 2 -0.002809 0.024462 -0.004202 0.000000 0.000000 0.000000
# 3 -0.003962 -0.004202 0.015901 0.000000 0.000000 0.000000
# 4 0.000000 0.000000 0.000000 0.084565 0.000000 0.000000
# 5 0.000000 0.000000 0.000000 0.000000 0.030910 0.000000
# 6 0.000000 0.000000 0.000000 0.000000 0.000000 0.022653
#
#
# Mechanical properties :
#
#
# Convention : Reuss Voigt Hill
#
# Bulk Modulus (GPa) = 35.70669 44.24555 39.97612
# Shear Modulus (GPa) = 22.79361 29.23546 26.01453
#
# Velocity S-wave (km/s) = 3.23566 3.66447 3.45672
# Velocity P-wave (km/s) = 5.51000 6.18282 5.85608
#
# Compressibility (1/GPa) = 0.02800595
#
# Stress axis : x y z
#
# Youngs Moduli (GPa) = 104.29807 40.87960 62.88934
#
# Poissons Ratio (x) = 0.11482 0.24914
# Poissons Ratio (y) = 0.29293 0.26428
# Poissons Ratio (z) = 0.41319 0.17179
#
# Static dielectric constant tensor:
#      x y z
#    x 4.256220 0.000000 0.000000 
#    y 0.000000 3.635790 0.000000 
#    z 0.000000 0.000000 3.808640 
# 
# 
# High freq. dielectric constant tensor:
#      x y z
#    x 1.869980 0.000000 0.000000 
#    y 0.000000 1.844700 0.000000 
#    z 0.000000 0.000000 1.840940 
# 
# From -- ./inp_files/10812.got.cif
#   From: 2010.03.12/outbox.cif.g09.slc.cpg/sg60_6_cif.got.tgz:10812.got - 2010.04.10 18:46:24.
