data_PCOD8247523
_publ_section_title
;
Structure prediction by ZEFSAII (Michael W. Deem and Ramdas Pophale) SiO2 
 PCOD8247523
Probable space group: P B C N
;
_chemical_formula_sum "Si O2"
_cell_formula_units_Z 64
_cell_length_a 8.429160
_cell_length_b 14.457868
_cell_length_c 24.199202
_cell_angle_alpha 90.000000
_cell_angle_beta 90.000000
_cell_angle_gamma 90.000000
_cell_volume 2949.100669
_symmetry_space_group_name_H-M "P B C N"
_symmetry_group_IT_number 60
_symmetry_cell_setting 'orthorhombic'
loop_
_space_group_symop_operation_xyz
x,y,z
1/2-x,1/2-y,1/2+z
1/2+x,1/2-y,-z
-x,y,1/2-z
-x,-y,-z
1/2+x,1/2+y,1/2-z
1/2-x,1/2+y,z
x,-y,1/2+z
loop_
_atom_site_type_symbol
_atom_site_label
_atom_site_fract_x
_atom_site_fract_y
_atom_site_fract_z
Si Si1 0.677434 0.028373 0.626553
Si Si2 0.128763 0.418298 0.172734
Si Si3 0.825325 0.875819 0.222837
Si Si4 0.563402 0.259870 0.692923
Si Si5 0.593626 0.609379 0.097574
Si Si6 0.694956 0.880500 0.011970
Si Si7 0.465493 0.703810 0.508389
Si Si8 0.174499 0.967767 0.067457
O O1 0.522718 0.014154 0.665015
O O2 0.823956 0.063495 0.666405
O O3 0.638647 0.094715 0.574106
O O4 0.728496 0.930343 0.601340
O O5 0.212047 0.426470 0.232214
O O6 0.251972 0.446976 0.126406
O O7 0.053963 0.316172 0.166238
O O8 0.742054 0.779729 0.203208
O O9 0.000000 0.859921 0.250000
O O10 0.500000 0.297661 0.750000
O O11 0.550429 0.351415 0.656934
O O12 0.583476 0.693575 0.055578
O O13 0.486668 0.524583 0.075723
O O14 0.570192 0.812497 0.980317
O O15 0.852846 0.819519 0.018645
O O16 0.714304 0.972111 0.973878
O O17 0.357471 0.632986 0.542746
#
# Coordination Sequence:
#
# PCOD8247523 Si02
#       8
#     8   8   8   8   8   8   8   8
#     4  11  21  40  64  90 131 165 217 266 326 384
#     4  10  23  40  64  93 127 169 211 269 324 385
#     4  10  21  41  66  93 123 170 217 265 330 392
#     4   9  21  41  64  94 128 168 214 265 331 386
#     4  11  21  41  62  89 130 172 212 267 327 387
#     4  11  24  41  63  96 129 176 217 266 324 394
#     4  11  23  40  62  91 131 172 212 269 323 388
#     4  11  23  41  63  94 130 173 222 265 322 399
#
# _framework density 21.701532
#
# number of rings (size 3 to 8) (size 9 to 14) (size 15 to 20)
#    0.000    1.500    2.500    4.125    5.250    3.000 
#    0.000    3.750    0.000    0.000    0.000    0.000 
#    0.000    0.000    0.000    0.000    0.000    0.000 
#
# Total GULP energy -792993.539665 kJ/mol
# GULP energy per Si atom -12390.524057 kJ/mol
# Density = 2.165214 g / cm^3
# Si number density = 21.701532 Si / 1000 Ang^3
#
#
#
# Elastic Constant Matrix: (Units=GPa)
#
#
# Indices 1 2 3 4 5 6 
#
# 1 47.4991 6.1950 10.5635 0.0000 0.0000 0.0000
# 2 6.1950 37.3350 16.9305 0.0000 0.0000 0.0000
# 3 10.5635 16.9305 102.3484 0.0000 0.0000 0.0000
# 4 0.0000 0.0000 0.0000 31.6530 0.0000 0.0000
# 5 0.0000 0.0000 0.0000 0.0000 28.9607 0.0000
# 6 0.0000 0.0000 0.0000 0.0000 0.0000 23.8998
#
#
#
# Elastic Compliance Matrix: (Units=1/GPa)
#
#
# Indices 1 2 3 4 5 6 
#
# 1 0.021817 -0.002810 -0.001787 0.000000 0.000000 0.000000
# 2 -0.002810 0.029319 -0.004560 0.000000 0.000000 0.000000
# 3 -0.001787 -0.004560 0.010709 0.000000 0.000000 0.000000
# 4 0.000000 0.000000 0.000000 0.031593 0.000000 0.000000
# 5 0.000000 0.000000 0.000000 0.000000 0.034529 0.000000
# 6 0.000000 0.000000 0.000000 0.000000 0.000000 0.041841
#
#
# Mechanical properties :
#
#
# Convention : Reuss Voigt Hill
#
# Bulk Modulus (GPa) = 22.97184 28.28451 25.62817
# Shear Modulus (GPa) = 24.67527 27.13559 25.90543
#
# Velocity S-wave (km/s) = 3.37564 3.53994 3.45877
# Velocity P-wave (km/s) = 5.07953 5.45618 5.27122
#
# Compressibility (1/GPa) = 0.04353156
#
# Stress axis : x y z
#
# Youngs Moduli (GPa) = 45.83605 34.10807 93.37687
#
# Poissons Ratio (x) = 0.09583 0.16686
# Poissons Ratio (y) = 0.12879 0.42579
# Poissons Ratio (z) = 0.08191 0.15553
#
# Static dielectric constant tensor:
#      x y z
#    x 3.944250 0.000000 0.000000 
#    y 0.000000 3.780340 0.000000 
#    z 0.000000 0.000000 4.165860 
# 
# 
# High freq. dielectric constant tensor:
#      x y z
#    x 1.845890 0.000000 0.000000 
#    y 0.000000 1.834160 0.000000 
#    z 0.000000 0.000000 1.870450 
# 
# From -- ./inp_files/24098.got.cif
#   From: 2010.03.12/outbox.cif.g09.slc.cpg/sg60_13_cif.got.tgz:24098.got - 2010.04.10 18:46:24.
