data_PCOD8247485
_publ_section_title
;
Structure prediction by ZEFSAII (Michael W. Deem and Ramdas Pophale) SiO2 
 PCOD8247485
Probable space group: P B C N
;
_chemical_formula_sum "Si O2"
_cell_formula_units_Z 52
_cell_length_a 6.752730
_cell_length_b 17.677096
_cell_length_c 19.937847
_cell_angle_alpha 90.000000
_cell_angle_beta 90.000000
_cell_angle_gamma 90.000000
_cell_volume 2379.954009
_symmetry_space_group_name_H-M "P B C N"
_symmetry_group_IT_number 60
_symmetry_cell_setting 'orthorhombic'
loop_
_space_group_symop_operation_xyz
x,y,z
1/2-x,1/2-y,1/2+z
1/2+x,1/2-y,-z
-x,y,1/2-z
-x,-y,-z
1/2+x,1/2+y,1/2-z
1/2-x,1/2+y,z
x,-y,1/2+z
loop_
_atom_site_type_symbol
_atom_site_label
_atom_site_fract_x
_atom_site_fract_y
_atom_site_fract_z
Si Si1 0.357250 0.027289 0.336963
Si Si2 0.258294 0.212399 0.575218
Si Si3 0.864401 0.787908 0.572761
Si Si4 0.258085 0.057221 0.638306
Si Si5 0.522261 0.546803 0.066317
Si Si6 0.500000 0.471050 0.250000
Si Si7 0.480352 0.807789 0.826954
O O1 0.244761 0.029078 0.407819
O O2 0.494537 0.100925 0.324854
O O3 0.514116 0.957389 0.339096
O O4 0.180172 0.021209 0.281947
O O5 0.240912 0.234737 0.496863
O O6 0.486517 0.222366 0.593848
O O7 0.224546 0.122820 0.583775
O O8 0.136728 0.266633 0.624904
O O9 0.993596 0.863349 0.558350
O O10 0.729880 0.791895 0.638479
O O11 0.115878 0.083935 0.699230
O O12 0.159195 0.978661 0.613775
O O13 0.500000 0.500000 0.000000
O O14 0.500000 0.777544 0.750000
#
# Coordination Sequence:
#
# PCOD8247485 Si02
#       7
#     8   8   8   8   8   4   8
#     4  10  23  43  71  98 132 178 227 284 342 398
#     4  12  25  42  67  98 142 180 223 279 353 413
#     4  11  24  44  67  99 137 181 224 284 344 408
#     4  11  23  40  66  98 131 176 220 280 340 406
#     4  10  21  40  66  99 131 170 227 277 331 405
#     4  10  22  42  66  96 138 166 224 286 336 398
#     4  11  25  46  70  98 135 180 232 282 341 414
#
# _framework density 21.849160000000001
#
# number of rings (size 3 to 8) (size 9 to 14) (size 15 to 20)
#    0.000    1.231    3.077    2.308    1.077    7.385 
#    2.769    0.000    0.000    0.000    0.000    0.000 
#    0.000    0.000    0.000    0.000    0.000    0.000 
#
# Total GULP energy -644183.725910 kJ/mol
# GULP energy per Si atom -12388.148575 kJ/mol
# Density = 2.179943 g / cm^3
# Si number density = 21.849160 Si / 1000 Ang^3
#
#
#
# Elastic Constant Matrix: (Units=GPa)
#
#
# Indices 1 2 3 4 5 6 
#
# 1 105.4718 40.2278 34.8873 0.0000 0.0000 0.0000
# 2 40.2278 60.7154 27.6847 0.0000 0.0000 0.0000
# 3 34.8873 27.6847 125.1239 0.0000 0.0000 0.0000
# 4 0.0000 0.0000 0.0000 23.2566 0.0000 0.0000
# 5 0.0000 0.0000 0.0000 0.0000 36.8483 0.0000
# 6 0.0000 0.0000 0.0000 0.0000 0.0000 32.2825
#
#
#
# Elastic Compliance Matrix: (Units=1/GPa)
#
#
# Indices 1 2 3 4 5 6 
#
# 1 0.013092 -0.007796 -0.001925 0.000000 0.000000 0.000000
# 2 -0.007796 0.022961 -0.002907 0.000000 0.000000 0.000000
# 3 -0.001925 -0.002907 0.009172 0.000000 0.000000 0.000000
# 4 0.000000 0.000000 0.000000 0.042999 0.000000 0.000000
# 5 0.000000 0.000000 0.000000 0.000000 0.027138 0.000000
# 6 0.000000 0.000000 0.000000 0.000000 0.000000 0.030977
#
#
# Mechanical properties :
#
#
# Convention : Reuss Voigt Hill
#
# Bulk Modulus (GPa) = 50.07850 55.21230 52.64540
# Shear Modulus (GPa) = 28.05047 31.04489 29.54768
#
# Velocity S-wave (km/s) = 3.58694 3.77354 3.68142
# Velocity P-wave (km/s) = 6.33440 6.65663 6.49751
#
# Compressibility (1/GPa) = 0.01996865
#
# Stress axis : x y z
#
# Youngs Moduli (GPa) = 76.38532 43.55203 109.02755
#
# Poissons Ratio (x) = 0.33954 0.20991
# Poissons Ratio (y) = 0.59551 0.31690
# Poissons Ratio (z) = 0.14706 0.12659
#
# Static dielectric constant tensor:
#      x y z
#    x 4.138530 0.000000 0.000000 
#    y 0.000000 3.889810 0.000000 
#    z 0.000000 0.000000 4.272740 
# 
# 
# High freq. dielectric constant tensor:
#      x y z
#    x 1.867430 0.000000 0.000000 
#    y 0.000000 1.841200 0.000000 
#    z 0.000000 0.000000 1.869990 
# 
# From -- ./inp_files/21648.got.cif
#   From: 2010.03.12/outbox.cif.g09.slc.cpg/sg60_11_cif.got.tgz:21648.got - 2010.04.10 18:46:24.
