data_PCOD8247708
_publ_section_title
;
Structure prediction by ZEFSAII (Michael W. Deem and Ramdas Pophale) SiO2 
 PCOD8247708
Probable space group: P B C N
;
_chemical_formula_sum "Si O2"
_cell_formula_units_Z 32
_cell_length_a 9.446715
_cell_length_b 16.452985
_cell_length_c 9.103595
_cell_angle_alpha 90.000000
_cell_angle_beta 90.000000
_cell_angle_gamma 90.000000
_cell_volume 1414.941367
_symmetry_space_group_name_H-M "P B C N"
_symmetry_group_IT_number 60
_symmetry_cell_setting 'orthorhombic'
loop_
_space_group_symop_operation_xyz
x,y,z
1/2-x,1/2-y,1/2+z
1/2+x,1/2-y,-z
-x,y,1/2-z
-x,-y,-z
1/2+x,1/2+y,1/2-z
1/2-x,1/2+y,z
x,-y,1/2+z
loop_
_atom_site_type_symbol
_atom_site_label
_atom_site_fract_x
_atom_site_fract_y
_atom_site_fract_z
Si Si1 0.862233 0.320194 0.157856
Si Si2 0.878752 0.226409 0.859542
Si Si3 0.144970 0.050188 0.514465
Si Si4 0.836073 0.502069 0.229790
O O1 0.754572 0.268635 0.254132
O O2 0.829862 0.415519 0.147506
O O3 0.000000 0.303961 0.250000
O O4 0.868347 0.290367 0.990926
O O5 0.903356 0.136704 0.923817
O O6 0.000000 0.254160 0.750000
O O7 0.259276 0.004486 0.614915
O O8 0.235069 0.062481 0.364277
O O9 0.000000 0.000000 0.500000
O O10 0.000000 0.531998 0.250000
#
# Coordination Sequence:
#
# PCOD8247708 Si02
#       4
#     8   8   8   8
#     4  10  22  40  61  89 124 163 207 255 306 368
#     4  11  23  41  63  92 125 160 206 258 310 372
#     4  11  22  39  63  92 125 162 206 259 313 371
#     4  10  22  40  60  87 124 163 208 256 307 371
#
# _framework density 22.615780000000001
#
# number of rings (size 3 to 8) (size 9 to 14) (size 15 to 20)
#    0.000    1.500    0.000    6.000    0.000    4.000 
#    0.000    2.500    0.000    0.000    0.000    0.000 
#    0.000    0.000    0.000    0.000    0.000    0.000 
#
# Total GULP energy -396638.711460 kJ/mol
# GULP energy per Si atom -12394.959733 kJ/mol
# Density = 2.256431 g / cm^3
# Si number density = 22.615780 Si / 1000 Ang^3
#
#
#
# Elastic Constant Matrix: (Units=GPa)
#
#
# Indices 1 2 3 4 5 6 
#
# 1 128.1615 25.5693 24.1025 0.0000 0.0000 0.0000
# 2 25.5693 46.6196 35.1565 0.0000 0.0000 0.0000
# 3 24.1025 35.1565 104.9858 0.0000 0.0000 0.0000
# 4 0.0000 0.0000 0.0000 42.4979 0.0000 0.0000
# 5 0.0000 0.0000 0.0000 0.0000 55.0675 0.0000
# 6 0.0000 0.0000 0.0000 0.0000 0.0000 26.6187
#
#
#
# Elastic Compliance Matrix: (Units=1/GPa)
#
#
# Indices 1 2 3 4 5 6 
#
# 1 0.008784 -0.004411 -0.000540 0.000000 0.000000 0.000000
# 2 -0.004411 0.030912 -0.009339 0.000000 0.000000 0.000000
# 3 -0.000540 -0.009339 0.012776 0.000000 0.000000 0.000000
# 4 0.000000 0.000000 0.000000 0.023531 0.000000 0.000000
# 5 0.000000 0.000000 0.000000 0.000000 0.018160 0.000000
# 6 0.000000 0.000000 0.000000 0.000000 0.000000 0.037568
#
#
# Mechanical properties :
#
#
# Convention : Reuss Voigt Hill
#
# Bulk Modulus (GPa) = 41.85190 49.93595 45.89392
# Shear Modulus (GPa) = 29.71356 37.83271 33.77313
#
# Velocity S-wave (km/s) = 3.62863 4.09448 3.86857
# Velocity P-wave (km/s) = 6.00847 6.66942 6.34755
#
# Compressibility (1/GPa) = 0.02389378
#
# Stress axis : x y z
#
# Youngs Moduli (GPa) = 113.84156 32.34991 78.27018
#
# Poissons Ratio (x) = 0.14269 0.04223
# Poissons Ratio (y) = 0.50214 0.73095
# Poissons Ratio (z) = 0.06143 0.30211
#
# Static dielectric constant tensor:
#      x y z
#    x 4.324060 0.000000 0.000000 
#    y 0.000000 4.005290 0.000000 
#    z 0.000000 0.000000 4.441500 
# 
# 
# High freq. dielectric constant tensor:
#      x y z
#    x 1.912650 0.000000 0.000000 
#    y 0.000000 1.872500 0.000000 
#    z 0.000000 0.000000 1.911280 
# 
# From -- ./inp_files/3573.got.cif
#   From: 2010.03.12/outbox.cif.g09.slc.cpg/sg60_2_cif.got.tgz:3573.got - 2010.04.10 18:46:24.
