data_PCOD8247516
_publ_section_title
;
Structure prediction by ZEFSAII (Michael W. Deem and Ramdas Pophale) SiO2 
 PCOD8247516
Probable space group: P B C N
;
_chemical_formula_sum "Si O2"
_cell_formula_units_Z 56
_cell_length_a 5.309534
_cell_length_b 14.720876
_cell_length_c 29.338840
_cell_angle_alpha 90.000000
_cell_angle_beta 90.000000
_cell_angle_gamma 90.000000
_cell_volume 2293.152828
_symmetry_space_group_name_H-M "P B C N"
_symmetry_group_IT_number 60
_symmetry_cell_setting 'orthorhombic'
loop_
_space_group_symop_operation_xyz
x,y,z
1/2-x,1/2-y,1/2+z
1/2+x,1/2-y,-z
-x,y,1/2-z
-x,-y,-z
1/2+x,1/2+y,1/2-z
1/2-x,1/2+y,z
x,-y,1/2+z
loop_
_atom_site_type_symbol
_atom_site_label
_atom_site_fract_x
_atom_site_fract_y
_atom_site_fract_z
Si Si1 0.166808 0.304439 0.792203
Si Si2 0.723929 0.468162 0.653491
Si Si3 0.255735 0.912240 0.606982
Si Si4 0.194764 0.218053 0.636685
Si Si5 0.862871 0.633601 0.491788
Si Si6 0.632743 0.659181 0.961690
Si Si7 0.926390 0.628076 0.703601
O O1 0.333233 0.390173 0.808673
O O2 0.329943 0.221636 0.773983
O O3 0.000000 0.338599 0.750000
O O4 0.040231 0.258881 0.836553
O O5 0.497832 0.470310 0.616842
O O6 0.721097 0.567283 0.676957
O O7 0.006371 0.447636 0.635794
O O8 0.165152 0.808840 0.618065
O O9 0.337595 0.923748 0.554651
O O10 0.122267 0.157363 0.593066
O O11 0.353096 0.151837 0.668607
O O12 0.870157 0.739637 0.480982
O O13 0.620917 0.608497 0.522374
O O14 0.119298 0.607076 0.518806
O O15 0.000000 0.573017 0.750000
#
# Coordination Sequence:
#
# PCOD8247516 Si02
#       7
#     8   8   8   8   8   8   8
#     4  11  23  43  65  94 130 173 220 275 325 390
#     4  11  25  41  68  96 131 172 216 270 323 391
#     4  10  21  41  65  96 130 172 216 267 327 381
#     4  10  22  38  63  93 130 172 217 269 327 385
#     4   9  17  32  57  90 127 161 210 264 314 382
#     4   9  18  30  56  93 124 162 212 262 315 383
#     4  12  25  43  65  96 130 172 218 270 330 386
#
# _framework density 24.420528999999998
#
# number of rings (size 3 to 8) (size 9 to 14) (size 15 to 20)
#    0.000    1.714    2.857    1.286    4.000    3.429 
#    0.000    2.143    0.000    5.143    0.000    0.000 
#    0.000    0.000    0.000    0.000    0.000    0.000 
#
# Total GULP energy -694041.606078 kJ/mol
# GULP energy per Si atom -12393.600109 kJ/mol
# Density = 2.436495 g / cm^3
# Si number density = 24.420529 Si / 1000 Ang^3
#
#
#
# Elastic Constant Matrix: (Units=GPa)
#
#
# Indices 1 2 3 4 5 6 
#
# 1 118.9121 4.1158 24.3458 0.0000 0.0000 0.0000
# 2 4.1158 62.1514 0.5296 0.0000 0.0000 0.0000
# 3 24.3458 0.5296 129.5703 0.0000 0.0000 0.0000
# 4 0.0000 0.0000 0.0000 11.5585 0.0000 0.0000
# 5 0.0000 0.0000 0.0000 0.0000 40.0903 0.0000
# 6 0.0000 0.0000 0.0000 0.0000 0.0000 -59.7736
#
#
#
# Elastic Compliance Matrix: (Units=1/GPa)
#
#
# Indices 1 2 3 4 5 6 
#
# 1 0.008766 -0.000566 -0.001645 0.000000 0.000000 0.000000
# 2 -0.000566 0.016127 0.000041 0.000000 0.000000 0.000000
# 3 -0.001645 0.000041 0.008027 0.000000 0.000000 0.000000
# 4 0.000000 0.000000 0.000000 0.086517 0.000000 0.000000
# 5 0.000000 0.000000 0.000000 0.000000 0.024944 0.000000
# 6 0.000000 0.000000 0.000000 0.000000 0.000000 -0.016730
#
#
# Mechanical properties :
#
#
# Convention : Reuss Voigt Hill
#
# Bulk Modulus (GPa) = 34.99185 40.95735 37.97460
# Shear Modulus (GPa) = 35.33133 17.15122 26.24127
#
# Velocity S-wave (km/s) = 3.80779 2.65302 3.28160
# Velocity P-wave (km/s) = 5.80451 5.11789 5.47198
#
# Compressibility (1/GPa) = 0.02857808
#
# Stress axis : x y z
#
# Youngs Moduli (GPa) = 114.07808 62.00816 124.58417
#
# Poissons Ratio (x) = 0.03513 0.20491
# Poissons Ratio (y) = 0.06462 -0.00505
# Poissons Ratio (z) = 0.18763 -0.00251
#
# Static dielectric constant tensor:
#      x y z
#    x 4.281390 0.000000 0.000000 
#    y 0.000000 4.387100 0.000000 
#    z 0.000000 0.000000 4.671960 
# 
# 
# High freq. dielectric constant tensor:
#      x y z
#    x 1.958670 0.000000 0.000000 
#    y 0.000000 1.963470 0.000000 
#    z 0.000000 0.000000 1.981460 
# 
# From -- ./inp_files/25694.got.cif
#   From: 2010.03.12/outbox.cif.g09.slc.cpg/sg60_13_cif.got.tgz:25694.got - 2010.04.10 18:46:24.
