data_PCOD8247254
_publ_section_title
;
Structure prediction by ZEFSAII (Michael W. Deem and Ramdas Pophale) SiO2 
 PCOD8247254
Probable space group: P B C N
;
_chemical_formula_sum "Si O2"
_cell_formula_units_Z 56
_cell_length_a 13.672372
_cell_length_b 14.424234
_cell_length_c 13.735044
_cell_angle_alpha 90.000000
_cell_angle_beta 90.000000
_cell_angle_gamma 90.000000
_cell_volume 2708.736005
_symmetry_space_group_name_H-M "P B C N"
_symmetry_group_IT_number 60
_symmetry_cell_setting 'orthorhombic'
loop_
_space_group_symop_operation_xyz
x,y,z
1/2-x,1/2-y,1/2+z
1/2+x,1/2-y,-z
-x,y,1/2-z
-x,-y,-z
1/2+x,1/2+y,1/2-z
1/2-x,1/2+y,z
x,-y,1/2+z
loop_
_atom_site_type_symbol
_atom_site_label
_atom_site_fract_x
_atom_site_fract_y
_atom_site_fract_z
Si Si1 0.706567 0.902150 0.031493
Si Si2 0.013506 0.885300 0.861782
Si Si3 0.315516 0.519931 0.141066
Si Si4 0.603691 0.670589 0.793473
Si Si5 0.778237 0.941535 0.653346
Si Si6 0.830239 0.735553 0.100569
Si Si7 0.461929 0.226849 0.017019
O O1 0.780934 0.815872 0.036528
O O2 0.716605 0.966068 0.127319
O O3 0.737144 0.971313 0.944474
O O4 0.596087 0.865442 0.017296
O O5 0.106637 0.954283 0.873399
O O6 0.000000 0.853156 0.750000
O O7 0.919068 0.941292 0.898021
O O8 0.032078 0.795084 0.925913
O O9 0.328327 0.415503 0.178873
O O10 0.271048 0.577474 0.231285
O O11 0.500000 0.635106 0.750000
O O12 0.655750 0.732337 0.711686
O O13 0.593696 0.729806 0.891127
O O14 0.740730 0.851808 0.597104
O O15 0.929564 0.700578 0.050616
#
# Coordination Sequence:
#
# PCOD8247254 Si02
#       7
#     8   8   8   8   8   8   8
#     4  12  24  40  64  97 128 172 221 266 331 395
#     4  10  21  36  61  94 128 157 211 277 323 366
#     4  11  22  37  64  97 127 161 218 278 333 379
#     4  10  21  39  66  95 127 166 213 274 342 386
#     4  11  23  41  62  91 131 167 215 269 320 397
#     4  11  23  42  65  91 131 175 214 271 333 393
#     4  11  23  41  62  95 131 172 213 266 327 404
#
# _framework density 20.673849000000001
#
# number of rings (size 3 to 8) (size 9 to 14) (size 15 to 20)
#    0.000    1.143    4.286    3.000    2.000    1.714 
#    0.000    1.429    0.000    2.571    0.000    0.000 
#    0.000    0.000    0.000    0.000    0.000    0.000 
#
# Total GULP energy -694467.268739 kJ/mol
# GULP energy per Si atom -12401.201227 kJ/mol
# Density = 2.062679 g / cm^3
# Si number density = 20.673849 Si / 1000 Ang^3
#
#
#
# Elastic Constant Matrix: (Units=GPa)
#
#
# Indices 1 2 3 4 5 6 
#
# 1 88.6433 42.6317 34.2540 0.0000 0.0000 0.0000
# 2 42.6317 86.2361 19.6958 0.0000 0.0000 0.0000
# 3 34.2540 19.6958 73.8629 0.0000 0.0000 0.0000
# 4 0.0000 0.0000 0.0000 25.3163 0.0000 0.0000
# 5 0.0000 0.0000 0.0000 0.0000 28.3810 0.0000
# 6 0.0000 0.0000 0.0000 0.0000 0.0000 35.5917
#
#
#
# Elastic Compliance Matrix: (Units=1/GPa)
#
#
# Indices 1 2 3 4 5 6 
#
# 1 0.016977 -0.007022 -0.006001 0.000000 0.000000 0.000000
# 2 -0.007022 0.015253 -0.000811 0.000000 0.000000 0.000000
# 3 -0.006001 -0.000811 0.016538 0.000000 0.000000 0.000000
# 4 0.000000 0.000000 0.000000 0.039500 0.000000 0.000000
# 5 0.000000 0.000000 0.000000 0.000000 0.035235 0.000000
# 6 0.000000 0.000000 0.000000 0.000000 0.000000 0.028096
#
#
# Mechanical properties :
#
#
# Convention : Reuss Voigt Hill
#
# Bulk Modulus (GPa) = 47.39261 49.10062 48.24661
# Shear Modulus (GPa) = 26.83843 28.00185 27.42014
#
# Velocity S-wave (km/s) = 3.60694 3.68429 3.64582
# Velocity P-wave (km/s) = 6.34983 6.47304 6.41174
#
# Compressibility (1/GPa) = 0.02110034
#
# Stress axis : x y z
#
# Youngs Moduli (GPa) = 58.90218 65.56181 60.46840
#
# Poissons Ratio (x) = 0.46040 0.36285
# Poissons Ratio (y) = 0.41363 0.04901
# Poissons Ratio (z) = 0.35345 0.05314
#
# Static dielectric constant tensor:
#      x y z
#    x 3.726330 0.000000 0.000000 
#    y 0.000000 3.512900 0.000000 
#    z 0.000000 0.000000 3.911930 
# 
# 
# High freq. dielectric constant tensor:
#      x y z
#    x 1.798370 0.000000 0.000000 
#    y 0.000000 1.794030 0.000000 
#    z 0.000000 0.000000 1.822400 
# 
# From -- ./inp_files/11959.got.cif
#   From: 2010.03.12/outbox.cif.g09.slc.cpg/sg60_6_cif.got.tgz:11959.got - 2010.04.10 18:46:24.
