data_PCOD8247139
_publ_section_title
;
Structure prediction by ZEFSAII (Michael W. Deem and Ramdas Pophale) SiO2 
 PCOD8247139
Probable space group: P B C N
;
_chemical_formula_sum "Si O2"
_cell_formula_units_Z 48
_cell_length_a 16.165254
_cell_length_b 9.813518
_cell_length_c 14.912478
_cell_angle_alpha 90.000000
_cell_angle_beta 90.000000
_cell_angle_gamma 90.000000
_cell_volume 2365.685851
_symmetry_space_group_name_H-M "P B C N"
_symmetry_group_IT_number 60
_symmetry_cell_setting 'orthorhombic'
loop_
_space_group_symop_operation_xyz
x,y,z
1/2-x,1/2-y,1/2+z
1/2+x,1/2-y,-z
-x,y,1/2-z
-x,-y,-z
1/2+x,1/2+y,1/2-z
1/2-x,1/2+y,z
x,-y,1/2+z
loop_
_atom_site_type_symbol
_atom_site_label
_atom_site_fract_x
_atom_site_fract_y
_atom_site_fract_z
Si Si1 0.891417 0.448670 0.062919
Si Si2 0.557248 0.330713 0.332652
Si Si3 0.626158 0.374401 0.850754
Si Si4 0.460035 0.779526 0.995295
Si Si5 0.095039 0.392385 0.243668
Si Si6 0.318676 0.895127 0.622083
O O1 0.856730 0.422555 0.162936
O O2 0.977678 0.365444 0.058109
O O3 0.903007 0.610952 0.055328
O O4 0.829234 0.395972 0.985945
O O5 0.500000 0.286279 0.250000
O O6 0.583611 0.486023 0.322452
O O7 0.507658 0.313167 0.424491
O O8 0.638690 0.236570 0.333852
O O9 0.594903 0.322906 0.946906
O O10 0.601801 0.268289 0.773560
O O11 0.723649 0.394898 0.853890
O O12 0.138319 0.469444 0.161012
O O13 0.000000 0.441474 0.250000
#
# Coordination Sequence:
#
# PCOD8247139 Si02
#       6
#     8   8   8   8   8   8
#     4  10  20  40  71  95 116 178 229 258 313 409
#     4  11  24  41  66  99 131 174 219 268 330 400
#     4  12  24  42  64  97 141 165 211 289 340 370
#     4  10  20  41  68  93 124 170 221 263 326 392
#     4  12  21  42  74  93 124 176 230 266 314 411
#     4  11  24  44  64  95 139 172 217 279 331 386
#
# _framework density 20.290099000000001
#
# number of rings (size 3 to 8) (size 9 to 14) (size 15 to 20)
#    0.000    1.000    3.333    5.500    0.000    0.000 
#    9.000    0.000    0.000    0.000    0.000    0.000 
#    0.000    0.000    0.000    0.000    0.000    0.000 
#
# Total GULP energy -595449.319894 kJ/mol
# GULP energy per Si atom -12405.194164 kJ/mol
# Density = 2.024392 g / cm^3
# Si number density = 20.290099 Si / 1000 Ang^3
#
#
#
# Elastic Constant Matrix: (Units=GPa)
#
#
# Indices 1 2 3 4 5 6 
#
# 1 81.4754 4.4820 15.9813 0.0000 0.0000 0.0000
# 2 4.4820 95.1049 14.9262 0.0000 0.0000 0.0000
# 3 15.9813 14.9262 109.1662 0.0000 0.0000 0.0000
# 4 0.0000 0.0000 0.0000 31.3341 0.0000 0.0000
# 5 0.0000 0.0000 0.0000 0.0000 19.1536 0.0000
# 6 0.0000 0.0000 0.0000 0.0000 0.0000 25.8209
#
#
#
# Elastic Compliance Matrix: (Units=1/GPa)
#
#
# Indices 1 2 3 4 5 6 
#
# 1 0.012646 -0.000312 -0.001809 0.000000 0.000000 0.000000
# 2 -0.000312 0.010753 -0.001425 0.000000 0.000000 0.000000
# 3 -0.001809 -0.001425 0.009620 0.000000 0.000000 0.000000
# 4 0.000000 0.000000 0.000000 0.031914 0.000000 0.000000
# 5 0.000000 0.000000 0.000000 0.000000 0.052209 0.000000
# 6 0.000000 0.000000 0.000000 0.000000 0.000000 0.038728
#
#
# Mechanical properties :
#
#
# Convention : Reuss Voigt Hill
#
# Bulk Modulus (GPa) = 38.56836 39.61395 39.09116
# Shear Modulus (GPa) = 29.13696 31.95219 30.54458
#
# Velocity S-wave (km/s) = 3.79359 3.97264 3.88415
# Velocity P-wave (km/s) = 6.18371 6.37249 6.27881
#
# Compressibility (1/GPa) = 0.02592799
#
# Stress axis : x y z
#
# Youngs Moduli (GPa) = 79.07914 92.99736 103.95137
#
# Poissons Ratio (x) = 0.02902 0.18800
# Poissons Ratio (y) = 0.02468 0.14808
# Poissons Ratio (z) = 0.14302 0.13248
#
# Static dielectric constant tensor:
#      x y z
#    x 3.496780 0.000000 0.000000 
#    y 0.000000 3.704530 0.000000 
#    z 0.000000 0.000000 3.733790 
# 
# 
# High freq. dielectric constant tensor:
#      x y z
#    x 1.772050 0.000000 0.000000 
#    y 0.000000 1.801850 0.000000 
#    z 0.000000 0.000000 1.801630 
# 
# From -- ./inp_files/17355.got.cif
#   From: 2010.03.12/outbox.cif.g09.slc.cpg/sg60_9_cif.got.tgz:17355.got - 2010.04.10 18:46:24.
