data_PCOD8247766
_publ_section_title
;
Structure prediction by ZEFSAII (Michael W. Deem and Ramdas Pophale) SiO2 
 PCOD8247766
Probable space group: P B C N
;
_chemical_formula_sum "Si O2"
_cell_formula_units_Z 32
_cell_length_a 5.147619
_cell_length_b 27.643945
_cell_length_c 8.664011
_cell_angle_alpha 90.000000
_cell_angle_beta 90.000000
_cell_angle_gamma 90.000000
_cell_volume 1232.893067
_symmetry_space_group_name_H-M "P B C N"
_symmetry_group_IT_number 60
_symmetry_cell_setting 'orthorhombic'
loop_
_space_group_symop_operation_xyz
x,y,z
1/2-x,1/2-y,1/2+z
1/2+x,1/2-y,-z
-x,y,1/2-z
-x,-y,-z
1/2+x,1/2+y,1/2-z
1/2-x,1/2+y,z
x,-y,1/2+z
loop_
_atom_site_type_symbol
_atom_site_label
_atom_site_fract_x
_atom_site_fract_y
_atom_site_fract_z
Si Si1 0.742843 0.574250 0.351929
Si Si2 0.541917 0.127042 0.930227
Si Si3 0.243013 0.032968 0.649008
Si Si4 0.938358 0.726775 0.068636
O O1 0.500000 0.589030 0.250000
O O2 0.707878 0.520186 0.429147
O O3 0.000000 0.576896 0.250000
O O4 0.765564 0.613051 0.491068
O O5 0.500000 0.137819 0.750000
O O6 0.724196 0.079130 0.965823
O O7 0.658202 0.173602 0.016428
O O8 0.500000 0.031516 0.750000
O O9 0.000000 0.046371 0.750000
O O10 0.000000 0.729579 0.250000
O O11 0.199145 0.738019 0.971229
#
# Coordination Sequence:
#
# PCOD8247766 Si02
#       4
#     8   8   8   8
#     4  10  22  41  65  97 141 189 238 287 340 409
#     4  11  24  43  70 103 139 184 236 292 358 427
#     4   9  20  38  62  97 140 186 234 285 340 410
#     4  12  28  52  78 107 141 183 237 304 370 436
#
# _framework density 25.955213000000001
#
# number of rings (size 3 to 8) (size 9 to 14) (size 15 to 20)
#    0.000    1.500    0.000    3.750    0.000   13.000 
#    0.000   16.250    0.000    0.000    0.000    0.000 
#    0.000    0.000    0.000    0.000    0.000    0.000 
#
# Total GULP energy -396629.846535 kJ/mol
# GULP energy per Si atom -12394.682704 kJ/mol
# Density = 2.589614 g / cm^3
# Si number density = 25.955213 Si / 1000 Ang^3
#
#
#
# Elastic Constant Matrix: (Units=GPa)
#
#
# Indices 1 2 3 4 5 6 
#
# 1 129.6053 19.4192 47.2305 0.0000 0.0000 0.0000
# 2 19.4192 141.0063 49.9027 0.0000 0.0000 0.0000
# 3 47.2305 49.9027 150.4863 0.0000 0.0000 0.0000
# 4 0.0000 0.0000 0.0000 21.1537 0.0000 0.0000
# 5 0.0000 0.0000 0.0000 0.0000 23.9302 0.0000
# 6 0.0000 0.0000 0.0000 0.0000 0.0000 13.0613
#
#
#
# Elastic Compliance Matrix: (Units=1/GPa)
#
#
# Indices 1 2 3 4 5 6 
#
# 1 0.008721 -0.000263 -0.002650 0.000000 0.000000 0.000000
# 2 -0.000263 0.008043 -0.002584 0.000000 0.000000 0.000000
# 3 -0.002650 -0.002584 0.008334 0.000000 0.000000 0.000000
# 4 0.000000 0.000000 0.000000 0.047273 0.000000 0.000000
# 5 0.000000 0.000000 0.000000 0.000000 0.041788 0.000000
# 6 0.000000 0.000000 0.000000 0.000000 0.000000 0.076562
#
#
# Mechanical properties :
#
#
# Convention : Reuss Voigt Hill
#
# Bulk Modulus (GPa) = 70.90958 72.68917 71.79938
# Shear Modulus (GPa) = 24.22291 31.93209 28.07750
#
# Velocity S-wave (km/s) = 3.05824 3.51133 3.29259
# Velocity P-wave (km/s) = 6.31267 6.67126 6.49444
#
# Compressibility (1/GPa) = 0.01410247
#
# Stress axis : x y z
#
# Youngs Moduli (GPa) = 114.66853 124.33510 119.99364
#
# Poissons Ratio (x) = 0.03273 0.31795
# Poissons Ratio (y) = 0.03019 0.31012
# Poissons Ratio (z) = 0.30384 0.32134
#
# Static dielectric constant tensor:
#      x y z
#    x 4.878860 0.000000 0.000000 
#    y 0.000000 5.132370 0.000000 
#    z 0.000000 0.000000 4.709140 
# 
# 
# High freq. dielectric constant tensor:
#      x y z
#    x 2.049020 0.000000 0.000000 
#    y 0.000000 2.035740 0.000000 
#    z 0.000000 0.000000 2.049090 
# 
# From -- ./inp_files/3124.got.cif
#   From: 2010.03.12/outbox.cif.g09.slc.cpg/sg60_2_cif.got.tgz:3124.got - 2010.04.10 18:46:24.
