data_PCOD8247603
_publ_section_title
;
Structure prediction by ZEFSAII (Michael W. Deem and Ramdas Pophale) SiO2 
 PCOD8247603
Probable space group: P B C N
;
_chemical_formula_sum "Si O2"
_cell_formula_units_Z 36
_cell_length_a 11.596734
_cell_length_b 26.622623
_cell_length_c 5.645943
_cell_angle_alpha 90.000000
_cell_angle_beta 90.000000
_cell_angle_gamma 90.000000
_cell_volume 1743.102907
_symmetry_space_group_name_H-M "P B C N"
_symmetry_group_IT_number 60
_symmetry_cell_setting 'orthorhombic'
loop_
_space_group_symop_operation_xyz
x,y,z
1/2-x,1/2-y,1/2+z
1/2+x,1/2-y,-z
-x,y,1/2-z
-x,-y,-z
1/2+x,1/2+y,1/2-z
1/2-x,1/2+y,z
x,-y,1/2+z
loop_
_atom_site_type_symbol
_atom_site_label
_atom_site_fract_x
_atom_site_fract_y
_atom_site_fract_z
Si Si1 0.805027 0.125870 0.439588
Si Si2 0.136008 0.026016 0.251554
Si Si3 0.676285 0.705746 0.069526
Si Si4 0.865366 0.684077 0.721763
Si Si5 0.500000 0.350081 0.250000
O O1 0.796302 0.079601 0.256856
O O2 0.839173 0.178757 0.320125
O O3 0.687209 0.135611 0.584643
O O4 0.914439 0.112723 0.608368
O O5 0.000000 0.034502 0.250000
O O6 0.174103 0.002131 0.505049
O O7 0.661949 0.765342 0.077565
O O8 0.803239 0.690197 0.975292
O O9 0.576312 0.687242 0.901131
O O10 0.000000 0.674284 0.750000
#
# Coordination Sequence:
#
# PCOD8247603 Si02
#       5
#     8   8   8   8   4
#     4  11  23  39  60  90 128 168 204 262 320 381
#     4  10  23  39  65  97 130 167 216 275 336 391
#     4  11  22  38  58  90 123 166 203 257 310 376
#     4  11  24  38  60  90 124 166 214 252 316 384
#     4  10  22  34  62  88 128 158 210 246 316 384
#
# _framework density 20.652826999999998
#
# number of rings (size 3 to 8) (size 9 to 14) (size 15 to 20)
#    0.000    1.333    2.222    3.333   14.000    0.889 
#    0.000    0.000    0.000    1.333    0.000    0.000 
#    0.000    0.000    0.000    0.000    0.000    0.000 
#
# Total GULP energy -446192.887618 kJ/mol
# GULP energy per Si atom -12394.246878 kJ/mol
# Density = 2.060582 g / cm^3
# Si number density = 20.652827 Si / 1000 Ang^3
#
#
#
# Elastic Constant Matrix: (Units=GPa)
#
#
# Indices 1 2 3 4 5 6 
#
# 1 138.8862 26.6528 39.6827 0.0000 0.0000 0.0000
# 2 26.6528 91.0772 29.7555 0.0000 0.0000 0.0000
# 3 39.6827 29.7555 99.7017 0.0000 0.0000 0.0000
# 4 0.0000 0.0000 0.0000 29.9220 0.0000 0.0000
# 5 0.0000 0.0000 0.0000 0.0000 5.0170 0.0000
# 6 0.0000 0.0000 0.0000 0.0000 0.0000 14.3870
#
#
#
# Elastic Compliance Matrix: (Units=1/GPa)
#
#
# Indices 1 2 3 4 5 6 
#
# 1 0.008304 -0.001496 -0.002859 0.000000 0.000000 0.000000
# 2 -0.001496 0.012435 -0.003116 0.000000 0.000000 0.000000
# 3 -0.002859 -0.003116 0.012098 0.000000 0.000000 0.000000
# 4 0.000000 0.000000 0.000000 0.033420 0.000000 0.000000
# 5 0.000000 0.000000 0.000000 0.000000 0.199322 0.000000
# 6 0.000000 0.000000 0.000000 0.000000 0.000000 0.069507
#
#
# Mechanical properties :
#
#
# Convention : Reuss Voigt Hill
#
# Bulk Modulus (GPa) = 55.87860 57.98300 56.93080
# Shear Modulus (GPa) = 14.04523 25.43683 19.74103
#
# Velocity S-wave (km/s) = 2.61063 3.51328 3.09504
# Velocity P-wave (km/s) = 6.01682 6.67784 6.35593
#
# Compressibility (1/GPa) = 0.01789594
#
# Stress axis : x y z
#
# Youngs Moduli (GPa) = 120.42363 80.41503 82.66118
#
# Poissons Ratio (x) = 0.12031 0.23629
# Poissons Ratio (y) = 0.18017 0.25756
# Poissons Ratio (z) = 0.34424 0.25056
#
# Static dielectric constant tensor:
#      x y z
#    x 3.636250 0.000000 0.000000 
#    y 0.000000 3.686170 0.000000 
#    z 0.000000 0.000000 4.148640 
# 
# 
# High freq. dielectric constant tensor:
#      x y z
#    x 1.779060 0.000000 0.000000 
#    y 0.000000 1.795190 0.000000 
#    z 0.000000 0.000000 1.824770 
# 
# From -- ./inp_files/732.got.cif
#   From: 2010.03.12/outbox.cif.g09.slc.cpg/sg60_1_cif.got.tgz:732.got - 2010.04.10 18:46:24.
