data_PCOD8247101
_publ_section_title
;
Structure prediction by ZEFSAII (Michael W. Deem and Ramdas Pophale) SiO2 
 PCOD8247101
Probable space group: P B C N
;
_chemical_formula_sum "Si O2"
_cell_formula_units_Z 60
_cell_length_a 14.076425
_cell_length_b 13.366209
_cell_length_c 14.153726
_cell_angle_alpha 90.000000
_cell_angle_beta 90.000000
_cell_angle_gamma 90.000000
_cell_volume 2663.001446
_symmetry_space_group_name_H-M "P B C N"
_symmetry_group_IT_number 60
_symmetry_cell_setting 'orthorhombic'
loop_
_space_group_symop_operation_xyz
x,y,z
1/2-x,1/2-y,1/2+z
1/2+x,1/2-y,-z
-x,y,1/2-z
-x,-y,-z
1/2+x,1/2+y,1/2-z
1/2-x,1/2+y,z
x,-y,1/2+z
loop_
_atom_site_type_symbol
_atom_site_label
_atom_site_fract_x
_atom_site_fract_y
_atom_site_fract_z
Si Si1 0.010222 0.707130 0.442521
Si Si2 0.767776 0.258762 0.274703
Si Si3 0.000000 0.400554 0.750000
Si Si4 0.837726 0.590903 0.514787
Si Si5 0.704545 0.444823 0.852186
Si Si6 0.332926 0.963832 0.283785
Si Si7 0.723730 0.216832 0.067400
Si Si8 0.137310 0.133561 0.573473
O O1 0.944646 0.632651 0.503716
O O2 0.965345 0.819031 0.448586
O O3 0.013140 0.673368 0.335705
O O4 0.118628 0.707163 0.479105
O O5 0.824041 0.170674 0.332664
O O6 0.841303 0.345203 0.242410
O O7 0.720511 0.206845 0.181845
O O8 0.685554 0.300155 0.343131
O O9 0.912328 0.473645 0.769696
O O10 0.798078 0.542073 0.419175
O O11 0.842299 0.514667 0.603519
O O12 0.760848 0.673847 0.542096
O O13 0.731553 0.496462 0.752500
O O14 0.622827 0.516483 0.897062
O O15 0.794202 0.136499 0.018815
#
# Coordination Sequence:
#
# PCOD8247101 Si02
#       8
#     8   8   4   8   8   8   8   8
#     4  11  21  38  62  95 129 158 214 264 310 374
#     4  10  20  40  61  86 124 165 205 257 316 377
#     4  12  22  38  66 100 126 156 210 270 328 372
#     4  10  22  40  59  95 126 164 210 254 320 375
#     4  11  20  39  63  85 122 168 207 250 313 379
#     4  10  23  37  60  94 124 158 207 261 319 378
#     4  10  21  38  65  91 124 166 203 264 309 371
#     4  10  22  38  60  93 124 165 213 254 315 380
#
# _framework density 22.530967
#
# number of rings (size 3 to 8) (size 9 to 14) (size 15 to 20)
#    0.000    1.600    4.000    1.600    3.733    2.667 
#    0.000    0.667    0.000    5.600    0.000    0.000 
#    0.000    0.000    0.000    0.000    0.000    0.000 
#
# Total GULP energy -743577.327898 kJ/mol
# GULP energy per Si atom -12392.955465 kJ/mol
# Density = 2.247969 g / cm^3
# Si number density = 22.530967 Si / 1000 Ang^3
#
#
#
# Elastic Constant Matrix: (Units=GPa)
#
#
# Indices 1 2 3 4 5 6 
#
# 1 71.4976 9.0908 -5.3434 0.0000 0.0000 0.0000
# 2 9.0908 81.4042 1.0264 0.0000 0.0000 0.0000
# 3 -5.3434 1.0264 75.0736 0.0000 0.0000 0.0000
# 4 0.0000 0.0000 0.0000 32.8236 0.0000 0.0000
# 5 0.0000 0.0000 0.0000 0.0000 17.5047 0.0000
# 6 0.0000 0.0000 0.0000 0.0000 0.0000 16.1418
#
#
#
# Elastic Compliance Matrix: (Units=1/GPa)
#
#
# Indices 1 2 3 4 5 6 
#
# 1 0.014268 -0.001606 0.001038 0.000000 0.000000 0.000000
# 2 -0.001606 0.012467 -0.000285 0.000000 0.000000 0.000000
# 3 0.001038 -0.000285 0.013398 0.000000 0.000000 0.000000
# 4 0.000000 0.000000 0.000000 0.030466 0.000000 0.000000
# 5 0.000000 0.000000 0.000000 0.000000 0.057128 0.000000
# 6 0.000000 0.000000 0.000000 0.000000 0.000000 0.061951
#
#
# Mechanical properties :
#
#
# Convention : Reuss Voigt Hill
#
# Bulk Modulus (GPa) = 26.02397 26.39145 26.20771
# Shear Modulus (GPa) = 24.48648 28.17413 26.33031
#
# Velocity S-wave (km/s) = 3.30023 3.54002 3.42223
# Velocity P-wave (km/s) = 5.10856 5.33365 5.22232
#
# Compressibility (1/GPa) = 0.03842612
#
# Stress axis : x y z
#
# Youngs Moduli (GPa) = 70.08552 80.20938 74.63802
#
# Poissons Ratio (x) = 0.12886 -0.07744
# Poissons Ratio (y) = 0.11259 0.02126
# Poissons Ratio (z) = -0.07271 0.02284
#
# Static dielectric constant tensor:
#      x y z
#    x 3.715220 0.000000 0.000000 
#    y 0.000000 4.150090 0.000000 
#    z 0.000000 0.000000 4.486050 
# 
# 
# High freq. dielectric constant tensor:
#      x y z
#    x 1.840260 0.000000 0.000000 
#    y 0.000000 1.894720 0.000000 
#    z 0.000000 0.000000 1.901280 
# 
# From -- ./inp_files/17010.got.cif
#   From: 2010.03.12/outbox.cif.g09.slc.cpg/sg60_9_cif.got.tgz:17010.got - 2010.04.10 18:46:24.
