data_PCOD8247047
_publ_section_title
;
Structure prediction by ZEFSAII (Michael W. Deem and Ramdas Pophale) SiO2 
 PCOD8247047
Probable space group: P B C N
;
_chemical_formula_sum "Si O2"
_cell_formula_units_Z 48
_cell_length_a 8.032386
_cell_length_b 17.755401
_cell_length_c 13.919559
_cell_angle_alpha 90.000000
_cell_angle_beta 90.000000
_cell_angle_gamma 90.000000
_cell_volume 1985.182928
_symmetry_space_group_name_H-M "P B C N"
_symmetry_group_IT_number 60
_symmetry_cell_setting 'orthorhombic'
loop_
_space_group_symop_operation_xyz
x,y,z
1/2-x,1/2-y,1/2+z
1/2+x,1/2-y,-z
-x,y,1/2-z
-x,-y,-z
1/2+x,1/2+y,1/2-z
1/2-x,1/2+y,z
x,-y,1/2+z
loop_
_atom_site_type_symbol
_atom_site_label
_atom_site_fract_x
_atom_site_fract_y
_atom_site_fract_z
Si Si1 0.439292 0.471047 0.642660
Si Si2 0.942771 0.265600 0.854003
Si Si3 0.161238 0.429406 0.190623
Si Si4 0.639535 0.385785 0.127185
Si Si5 0.937272 0.194475 0.357543
Si Si6 0.031709 0.665874 0.956456
O O1 0.500000 0.458971 0.750000
O O2 0.246525 0.497297 0.644372
O O3 0.553977 0.535470 0.593576
O O4 0.446648 0.388681 0.592674
O O5 0.744498 0.268440 0.862068
O O6 0.000000 0.294248 0.750000
O O7 0.007860 0.181792 0.878014
O O8 0.017222 0.325544 0.931566
O O9 0.293499 0.388526 0.262087
O O10 0.000000 0.455239 0.250000
O O11 0.112688 0.375027 0.103196
O O12 0.791710 0.375702 0.054027
O O13 0.000000 0.191985 0.250000
O O14 0.059480 0.249444 0.415714
#
# Coordination Sequence:
#
# PCOD8247047 Si02
#       6
#     8   8   8   8   8   8
#     4   9  19  37  62  94 130 166 199 242 304 369
#     4  12  24  40  63  90 121 163 211 256 307 362
#     4   9  18  36  63  92 125 167 207 242 295 371
#     4  10  20  38  65  92 122 165 207 242 300 378
#     4  11  23  40  64  97 129 157 199 259 312 355
#     4  11  22  39  63  93 123 162 209 255 300 361
#
# _framework density 24.179131999999999
#
# number of rings (size 3 to 8) (size 9 to 14) (size 15 to 20)
#    0.000    1.667    0.000    7.000    0.000    0.667 
#    0.000    9.167    0.000    6.000    0.000    1.167 
#    0.000    0.000    0.000    0.000    0.000    0.000 
#
# Total GULP energy -595143.486527 kJ/mol
# GULP energy per Si atom -12398.822636 kJ/mol
# Density = 2.412410 g / cm^3
# Si number density = 24.179132 Si / 1000 Ang^3
#
#
#
# Elastic Constant Matrix: (Units=GPa)
#
#
# Indices 1 2 3 4 5 6 
#
# 1 107.5969 58.6822 -0.8589 0.0000 0.0000 0.0000
# 2 58.6822 134.9768 29.7011 0.0000 0.0000 0.0000
# 3 -0.8589 29.7011 69.7513 0.0000 0.0000 0.0000
# 4 0.0000 0.0000 0.0000 9.4845 0.0000 0.0000
# 5 0.0000 0.0000 0.0000 0.0000 21.3782 0.0000
# 6 0.0000 0.0000 0.0000 0.0000 0.0000 -13.0803
#
#
#
# Elastic Compliance Matrix: (Units=1/GPa)
#
#
# Indices 1 2 3 4 5 6 
#
# 1 0.012645 -0.006104 0.002755 0.000000 0.000000 0.000000
# 2 -0.006104 0.011121 -0.004811 0.000000 0.000000 0.000000
# 3 0.002755 -0.004811 0.016419 0.000000 0.000000 0.000000
# 4 0.000000 0.000000 0.000000 0.105435 0.000000 0.000000
# 5 0.000000 0.000000 0.000000 0.000000 0.046777 0.000000
# 6 0.000000 0.000000 0.000000 0.000000 0.000000 -0.076451
#
#
# Mechanical properties :
#
#
# Convention : Reuss Voigt Hill
#
# Bulk Modulus (GPa) = 41.90119 54.15265 48.02692
# Shear Modulus (GPa) = 35.65835 18.54319 27.10077
#
# Velocity S-wave (km/s) = 3.84442 2.77232 3.35152
# Velocity P-wave (km/s) = 6.08878 5.71775 5.90618
#
# Compressibility (1/GPa) = 0.02386567
#
# Stress axis : x y z
#
# Youngs Moduli (GPa) = 79.08419 89.92163 60.90512
#
# Poissons Ratio (x) = 0.54884 -0.16777
# Poissons Ratio (y) = 0.48270 0.29299
# Poissons Ratio (z) = -0.21785 0.43257
#
# Static dielectric constant tensor:
#      x y z
#    x 4.696280 0.000000 0.000000 
#    y 0.000000 4.644040 0.000000 
#    z 0.000000 0.000000 4.443500 
# 
# 
# High freq. dielectric constant tensor:
#      x y z
#    x 1.961540 0.000000 0.000000 
#    y 0.000000 1.953960 0.000000 
#    z 0.000000 0.000000 1.959430 
# 
# From -- ./inp_files/14996.got.cif
#   From: 2010.03.12/outbox.cif.g09.slc.cpg/sg60_8_cif.got.tgz:14996.got - 2010.04.10 18:46:24.
