data_PCOD8247763
_publ_section_title
;
Structure prediction by ZEFSAII (Michael W. Deem and Ramdas Pophale) SiO2 
 PCOD8247763
Probable space group: P B C N
;
_chemical_formula_sum "Si O2"
_cell_formula_units_Z 48
_cell_length_a 14.207283
_cell_length_b 8.144136
_cell_length_c 16.631065
_cell_angle_alpha 90.000000
_cell_angle_beta 90.000000
_cell_angle_gamma 90.000000
_cell_volume 1924.314754
_symmetry_space_group_name_H-M "P B C N"
_symmetry_group_IT_number 60
_symmetry_cell_setting 'orthorhombic'
loop_
_space_group_symop_operation_xyz
x,y,z
1/2-x,1/2-y,1/2+z
1/2+x,1/2-y,-z
-x,y,1/2-z
-x,-y,-z
1/2+x,1/2+y,1/2-z
1/2-x,1/2+y,z
x,-y,1/2+z
loop_
_atom_site_type_symbol
_atom_site_label
_atom_site_fract_x
_atom_site_fract_y
_atom_site_fract_z
Si Si1 0.940822 0.677980 0.409217
Si Si2 0.944463 0.654836 0.592611
Si Si3 0.712469 0.383574 0.337745
Si Si4 0.726691 0.996220 0.167480
Si Si5 0.867628 0.197953 0.591824
Si Si6 0.872046 0.194867 0.409612
O O1 0.905453 0.676940 0.501743
O O2 0.854417 0.720246 0.347930
O O3 0.990276 0.504889 0.393291
O O4 0.021002 0.816277 0.391073
O O5 0.854466 0.642358 0.651458
O O6 0.016438 0.803449 0.613730
O O7 0.720248 0.471096 0.251929
O O8 0.817969 0.331388 0.358045
O O9 0.668268 0.512717 0.400168
O O10 0.813193 0.973627 0.104156
O O11 0.683000 0.175380 0.154506
O O12 0.857933 0.258592 0.500562
#
# Coordination Sequence:
#
# PCOD8247763 Si02
#       6
#     8   8   8   8   8   8
#     4   9  20  40  66  96 127 167 217 266 320 389
#     4   9  20  41  67  91 125 172 218 264 319 387
#     4  12  24  39  62  97 135 167 213 273 335 389
#     4  11  23  40  62  93 132 170 211 267 332 392
#     4  10  22  41  65  91 126 173 217 259 316 388
#     4  11  23  40  66  95 127 172 220 268 318 388
#
# _framework density 24.943943999999998
#
# number of rings (size 3 to 8) (size 9 to 14) (size 15 to 20)
#    0.000    1.667    0.000    5.000    0.000    5.333 
#    0.000    5.000    0.000    0.000    0.000    0.000 
#    0.000    0.000    0.000    0.000    0.000    0.000 
#
# Total GULP energy -594832.521031 kJ/mol
# GULP energy per Si atom -12392.344188 kJ/mol
# Density = 2.488717 g / cm^3
# Si number density = 24.943944 Si / 1000 Ang^3
#
#
#
# Elastic Constant Matrix: (Units=GPa)
#
#
# Indices 1 2 3 4 5 6 
#
# 1 105.1918 -10.7643 44.3527 0.0000 0.0000 0.0000
# 2 -10.7643 26.3200 14.0880 0.0000 0.0000 0.0000
# 3 44.3527 14.0880 87.7611 0.0000 0.0000 0.0000
# 4 0.0000 0.0000 0.0000 35.0538 0.0000 0.0000
# 5 0.0000 0.0000 0.0000 0.0000 33.5993 0.0000
# 6 0.0000 0.0000 0.0000 0.0000 0.0000 41.0690
#
#
#
# Elastic Compliance Matrix: (Units=1/GPa)
#
#
# Indices 1 2 3 4 5 6 
#
# 1 0.014392 0.010699 -0.008991 0.000000 0.000000 0.000000
# 2 0.010699 0.049518 -0.013356 0.000000 0.000000 0.000000
# 3 -0.008991 -0.013356 0.018082 0.000000 0.000000 0.000000
# 4 0.000000 0.000000 0.000000 0.028528 0.000000 0.000000
# 5 0.000000 0.000000 0.000000 0.000000 0.029762 0.000000
# 6 0.000000 0.000000 0.000000 0.000000 0.000000 0.024349
#
#
# Mechanical properties :
#
#
# Convention : Reuss Voigt Hill
#
# Bulk Modulus (GPa) = 17.03687 34.95843 25.99765
# Shear Modulus (GPa) = 24.09711 33.38420 28.74065
#
# Velocity S-wave (km/s) = 3.11151 3.66234 3.39810
# Velocity P-wave (km/s) = 4.44449 5.65056 5.08342
#
# Compressibility (1/GPa) = 0.05869624
#
# Stress axis : x y z
#
# Youngs Moduli (GPa) = 69.48251 20.19460 55.30252
#
# Poissons Ratio (x) = -0.21605 0.49722
# Poissons Ratio (y) = -0.74336 0.73861
# Poissons Ratio (z) = 0.62471 0.26972
#
# Static dielectric constant tensor:
#      x y z
#    x 4.992420 0.000000 0.000000 
#    y 0.000000 4.465430 0.000000 
#    z 0.000000 0.000000 4.100190 
# 
# 
# High freq. dielectric constant tensor:
#      x y z
#    x 2.013090 0.000000 0.000000 
#    y 0.000000 1.986010 0.000000 
#    z 0.000000 0.000000 1.965130 
# 
# From -- ./inp_files/20475.got.cif
#   From: 2010.03.12/outbox.cif.g09.slc.cpg/sg60_11_cif.got.tgz:20475.got - 2010.04.10 18:46:24.
