data_PCOD8247769
_publ_section_title
;
Structure prediction by ZEFSAII (Michael W. Deem and Ramdas Pophale) SiO2 
 PCOD8247769
Probable space group: P B C N
;
_chemical_formula_sum "Si O2"
_cell_formula_units_Z 48
_cell_length_a 8.980839
_cell_length_b 16.879430
_cell_length_c 15.246338
_cell_angle_alpha 90.000000
_cell_angle_beta 90.000000
_cell_angle_gamma 90.000000
_cell_volume 2311.214382
_symmetry_space_group_name_H-M "P B C N"
_symmetry_group_IT_number 60
_symmetry_cell_setting 'orthorhombic'
loop_
_space_group_symop_operation_xyz
x,y,z
1/2-x,1/2-y,1/2+z
1/2+x,1/2-y,-z
-x,y,1/2-z
-x,-y,-z
1/2+x,1/2+y,1/2-z
1/2-x,1/2+y,z
x,-y,1/2+z
loop_
_atom_site_type_symbol
_atom_site_label
_atom_site_fract_x
_atom_site_fract_y
_atom_site_fract_z
Si Si1 0.178206 0.248996 0.892912
Si Si2 0.340257 0.784997 0.563619
Si Si3 0.334205 0.567662 0.849092
Si Si4 0.836475 0.182022 0.270124
Si Si5 0.338880 0.033258 0.013429
Si Si6 0.660982 0.499887 0.325270
O O1 0.194660 0.160131 0.859238
O O2 0.233631 0.308969 0.816873
O O3 0.006185 0.259510 0.914763
O O4 0.274910 0.264422 0.981156
O O5 0.237606 0.770051 0.649214
O O6 0.342041 0.875982 0.538755
O O7 0.255635 0.518581 0.926012
O O8 0.260865 0.544082 0.756334
O O9 0.505186 0.541255 0.848050
O O10 0.857740 0.091403 0.299068
O O11 0.000000 0.218102 0.250000
O O12 0.264242 0.984387 0.091655
O O13 0.500000 0.000000 0.000000
#
# Coordination Sequence:
#
# PCOD8247769 Si02
#       6
#     8   8   8   8   8   8
#     4  11  24  43  64  96 131 168 218 265 320 386
#     4  10  24  41  64  93 130 169 211 261 326 382
#     4  10  22  42  64  93 123 170 219 255 313 388
#     4  11  22  41  66  93 127 168 215 267 319 378
#     4  10  23  40  62  96 127 163 207 266 322 367
#     4  10  22  41  66  91 123 170 217 253 313 385
#
# _framework density 20.768304000000001
#
# number of rings (size 3 to 8) (size 9 to 14) (size 15 to 20)
#    0.000    1.667    1.667    2.000    7.000    2.000 
#    6.000    0.000    0.000    0.000    0.000    0.000 
#    0.000    0.000    0.000    0.000    0.000    0.000 
#
# Total GULP energy -595164.998790 kJ/mol
# GULP energy per Si atom -12399.270808 kJ/mol
# Density = 2.072103 g / cm^3
# Si number density = 20.768304 Si / 1000 Ang^3
#
#
#
# Elastic Constant Matrix: (Units=GPa)
#
#
# Indices 1 2 3 4 5 6 
#
# 1 114.7614 14.1664 72.9028 0.0000 0.0000 0.0000
# 2 14.1664 19.1676 17.4761 0.0000 0.0000 0.0000
# 3 72.9028 17.4761 173.5839 0.0000 0.0000 0.0000
# 4 0.0000 0.0000 0.0000 32.1209 0.0000 0.0000
# 5 0.0000 0.0000 0.0000 0.0000 25.2820 0.0000
# 6 0.0000 0.0000 0.0000 0.0000 0.0000 25.3673
#
#
#
# Elastic Compliance Matrix: (Units=1/GPa)
#
#
# Indices 1 2 3 4 5 6 
#
# 1 0.012275 -0.004814 -0.004671 0.000000 0.000000 0.000000
# 2 -0.004814 0.059332 -0.003952 0.000000 0.000000 0.000000
# 3 -0.004671 -0.003952 0.008120 0.000000 0.000000 0.000000
# 4 0.000000 0.000000 0.000000 0.031132 0.000000 0.000000
# 5 0.000000 0.000000 0.000000 0.000000 0.039554 0.000000
# 6 0.000000 0.000000 0.000000 0.000000 0.000000 0.039421
#
#
# Mechanical properties :
#
#
# Convention : Reuss Voigt Hill
#
# Bulk Modulus (GPa) = 18.91960 57.40038 38.15999
# Shear Modulus (GPa) = 21.33785 30.08521 25.71153
#
# Velocity S-wave (km/s) = 3.20882 3.81019 3.52237
# Velocity P-wave (km/s) = 4.78104 6.85968 5.91243
#
# Compressibility (1/GPa) = 0.05285525
#
# Stress axis : x y z
#
# Youngs Moduli (GPa) = 81.46614 16.85427 123.14677
#
# Poissons Ratio (x) = 0.08113 0.57518
# Poissons Ratio (y) = 0.39215 0.48665
# Poissons Ratio (z) = 0.38050 0.06660
#
# Static dielectric constant tensor:
#      x y z
#    x 3.536170 0.000000 0.000000 
#    y 0.000000 3.576270 0.000000 
#    z 0.000000 0.000000 4.565550 
# 
# 
# High freq. dielectric constant tensor:
#      x y z
#    x 1.814020 0.000000 0.000000 
#    y 0.000000 1.799320 0.000000 
#    z 0.000000 0.000000 1.840800 
# 
# From -- ./inp_files/15007.got.cif
#   From: 2010.03.12/outbox.cif.g09.slc.cpg/sg60_8_cif.got.tgz:15007.got - 2010.04.10 18:46:24.
