data_PCOD8247993
_publ_section_title
;
Structure prediction by ZEFSAII (Michael W. Deem and Ramdas Pophale) SiO2 
 PCOD8247993
Probable space group: P B C N
;
_chemical_formula_sum "Si O2"
_cell_formula_units_Z 56
_cell_length_a 21.119582
_cell_length_b 8.472971
_cell_length_c 15.157810
_cell_angle_alpha 90.000000
_cell_angle_beta 90.000000
_cell_angle_gamma 90.000000
_cell_volume 2712.423493
_symmetry_space_group_name_H-M "P B C N"
_symmetry_group_IT_number 60
_symmetry_cell_setting 'orthorhombic'
loop_
_space_group_symop_operation_xyz
x,y,z
1/2-x,1/2-y,1/2+z
1/2+x,1/2-y,-z
-x,y,1/2-z
-x,-y,-z
1/2+x,1/2+y,1/2-z
1/2-x,1/2+y,z
x,-y,1/2+z
loop_
_atom_site_type_symbol
_atom_site_label
_atom_site_fract_x
_atom_site_fract_y
_atom_site_fract_z
Si Si1 0.179542 0.480948 0.330577
Si Si2 0.789120 0.798731 0.089293
Si Si3 0.065824 0.789180 0.643719
Si Si4 0.113225 0.016815 0.506156
Si Si5 0.075599 0.226775 0.346099
Si Si6 0.207774 0.749511 0.065451
Si Si7 0.680474 0.078502 0.865603
O O1 0.171453 0.659577 0.364243
O O2 0.250520 0.412553 0.344521
O O3 0.124989 0.366125 0.370089
O O4 0.168426 0.500388 0.227687
O O5 0.834384 0.892396 0.023867
O O6 0.737433 0.709872 0.029572
O O7 0.064202 0.935405 0.574609
O O8 0.086131 0.836570 0.745025
O O9 0.116617 0.666324 0.604776
O O10 0.996350 0.710060 0.645139
O O11 0.082383 0.085335 0.416739
O O12 0.143434 0.151120 0.569233
O O13 0.193998 0.563104 0.066758
O O14 0.259350 0.802567 0.138910
#
# Coordination Sequence:
#
# PCOD8247993 Si02
#       7
#     8   8   8   8   8   8   8
#     4  11  22  38  62  89 121 160 202 252 309 363
#     4  12  21  37  60  90 125 154 195 249 310 368
#     4  10  23  43  63  88 124 165 210 254 298 358
#     4  12  23  38  68  88 127 162 202 250 314 360
#     4  10  23  43  63  88 124 165 210 254 298 358
#     4  12  21  37  60  90 125 154 195 249 310 368
#     4  11  22  38  62  89 121 160 202 252 309 363
#
# _framework density 20.645744000000001
#
# number of rings (size 3 to 8) (size 9 to 14) (size 15 to 20)
#    0.000    0.857    5.714    1.286    0.000    4.571 
#    0.000    4.286    0.000    3.429    0.000    0.000 
#    0.000    0.000    0.000    0.000    0.000    0.000 
#
# Total GULP energy -694159.266839 kJ/mol
# GULP energy per Si atom -12395.701194 kJ/mol
# Density = 2.059875 g / cm^3
# Si number density = 20.645744 Si / 1000 Ang^3
#
#
#
# Elastic Constant Matrix: (Units=GPa)
#
#
# Indices 1 2 3 4 5 6 
#
# 1 96.8356 36.9724 26.3635 0.0000 0.0000 0.0000
# 2 36.9724 100.0523 33.5912 0.0000 0.0000 0.0000
# 3 26.3635 33.5912 66.0797 0.0000 0.0000 0.0000
# 4 0.0000 0.0000 0.0000 33.2288 0.0000 0.0000
# 5 0.0000 0.0000 0.0000 0.0000 28.5916 0.0000
# 6 0.0000 0.0000 0.0000 0.0000 0.0000 21.5304
#
#
#
# Elastic Compliance Matrix: (Units=1/GPa)
#
#
# Indices 1 2 3 4 5 6 
#
# 1 0.012559 -0.003568 -0.003197 0.000000 0.000000 0.000000
# 2 -0.003568 0.013065 -0.005218 0.000000 0.000000 0.000000
# 3 -0.003197 -0.005218 0.019061 0.000000 0.000000 0.000000
# 4 0.000000 0.000000 0.000000 0.030094 0.000000 0.000000
# 5 0.000000 0.000000 0.000000 0.000000 0.034975 0.000000
# 6 0.000000 0.000000 0.000000 0.000000 0.000000 0.046446
#
#
# Mechanical properties :
#
#
# Convention : Reuss Voigt Hill
#
# Bulk Modulus (GPa) = 48.26284 50.75798 49.51041
# Shear Modulus (GPa) = 26.72738 27.73952 27.23345
#
# Velocity S-wave (km/s) = 3.60192 3.66949 3.63586
# Velocity P-wave (km/s) = 6.38168 6.52626 6.45437
#
# Compressibility (1/GPa) = 0.02071988
#
# Stress axis : x y z
#
# Youngs Moduli (GPa) = 79.62183 76.53993 52.46198
#
# Poissons Ratio (x) = 0.27307 0.16773
# Poissons Ratio (y) = 0.28407 0.27376
# Poissons Ratio (z) = 0.25456 0.39940
#
# Static dielectric constant tensor:
#      x y z
#    x 3.763480 0.000000 0.000000 
#    y 0.000000 3.605680 0.000000 
#    z 0.000000 0.000000 3.771400 
# 
# 
# High freq. dielectric constant tensor:
#      x y z
#    x 1.797630 0.000000 0.000000 
#    y 0.000000 1.798170 0.000000 
#    z 0.000000 0.000000 1.815770 
# 
# From -- ./inp_files/17698.got.cif
#   From: 2010.03.12/outbox.cif.g09.slc.cpg/sg60_9_cif.got.tgz:17698.got - 2010.04.10 18:46:24.
