data_PCOD8247582
_publ_section_title
;
Structure prediction by ZEFSAII (Michael W. Deem and Ramdas Pophale) SiO2 
 PCOD8247582
Probable space group: P B C N
;
_chemical_formula_sum "Si O2"
_cell_formula_units_Z 32
_cell_length_a 9.858580
_cell_length_b 14.980614
_cell_length_c 8.897646
_cell_angle_alpha 90.000000
_cell_angle_beta 90.000000
_cell_angle_gamma 90.000000
_cell_volume 1314.071819
_symmetry_space_group_name_H-M "P B C N"
_symmetry_group_IT_number 60
_symmetry_cell_setting 'orthorhombic'
loop_
_space_group_symop_operation_xyz
x,y,z
1/2-x,1/2-y,1/2+z
1/2+x,1/2-y,-z
-x,y,1/2-z
-x,-y,-z
1/2+x,1/2+y,1/2-z
1/2-x,1/2+y,z
x,-y,1/2+z
loop_
_atom_site_type_symbol
_atom_site_label
_atom_site_fract_x
_atom_site_fract_y
_atom_site_fract_z
Si Si1 0.851339 0.056767 0.214856
Si Si2 0.002580 0.326469 0.928077
Si Si3 0.213303 0.778800 0.588762
Si Si4 0.723848 0.084376 0.909427
O O1 0.837068 0.156494 0.279804
O O2 0.000000 0.017747 0.250000
O O3 0.735758 0.991730 0.283957
O O4 0.834171 0.060954 0.037063
O O5 0.849052 0.318552 0.989821
O O6 0.000000 0.341271 0.750000
O O7 0.092828 0.237591 0.967176
O O8 0.073993 0.410896 0.011997
O O9 0.254458 0.682447 0.661445
#
# Coordination Sequence:
#
# PCOD8247582 Si02
#       4
#     8   8   8   8
#     4  12  24  46  73 115 151 198 257 302 382 449
#     4  10  21  44  68 100 146 190 247 302 377 433
#     4  10  22  43  70 100 148 196 247 303 371 438
#     4  10  26  42  73 108 146 200 241 320 363 453
#
# _framework density 24.351790000000001
#
# number of rings (size 3 to 8) (size 9 to 14) (size 15 to 20)
#    1.500    0.000    2.500    2.250    0.000    6.000 
#    0.000    0.000    0.000    0.000    0.000    0.000 
#    0.000    0.000    0.000    0.000    0.000    0.000 
#
# Total GULP energy -396497.322913 kJ/mol
# GULP energy per Si atom -12390.541341 kJ/mol
# Density = 2.429636 g / cm^3
# Si number density = 24.351790 Si / 1000 Ang^3
#
#
#
# Elastic Constant Matrix: (Units=GPa)
#
#
# Indices 1 2 3 4 5 6 
#
# 1 119.1193 -12.2432 8.7031 0.0000 0.0000 0.0000
# 2 -12.2432 109.7307 39.9583 0.0000 0.0000 0.0000
# 3 8.7031 39.9583 49.1913 0.0000 0.0000 0.0000
# 4 0.0000 0.0000 0.0000 27.1779 0.0000 0.0000
# 5 0.0000 0.0000 0.0000 0.0000 37.0327 0.0000
# 6 0.0000 0.0000 0.0000 0.0000 0.0000 33.5658
#
#
#
# Elastic Compliance Matrix: (Units=1/GPa)
#
#
# Indices 1 2 3 4 5 6 
#
# 1 0.008869 0.002217 -0.003370 0.000000 0.000000 0.000000
# 2 0.002217 0.013495 -0.011354 0.000000 0.000000 0.000000
# 3 -0.003370 -0.011354 0.030148 0.000000 0.000000 0.000000
# 4 0.000000 0.000000 0.000000 0.036795 0.000000 0.000000
# 5 0.000000 0.000000 0.000000 0.000000 0.027003 0.000000
# 6 0.000000 0.000000 0.000000 0.000000 0.000000 0.029792
#
#
# Mechanical properties :
#
#
# Convention : Reuss Voigt Hill
#
# Bulk Modulus (GPa) = 36.36701 38.98641 37.67671
# Shear Modulus (GPa) = 27.73414 35.66349 31.69882
#
# Velocity S-wave (km/s) = 3.37841 3.83105 3.61183
# Velocity P-wave (km/s) = 5.49406 5.96772 5.73578
#
# Compressibility (1/GPa) = 0.02749745
#
# Stress axis : x y z
#
# Youngs Moduli (GPa) = 112.75269 74.10023 33.16944
#
# Poissons Ratio (x) = -0.16425 0.11177
# Poissons Ratio (y) = -0.24993 0.37662
# Poissons Ratio (z) = 0.37994 0.84136
#
# Static dielectric constant tensor:
#      x y z
#    x 4.758020 0.000000 0.000000 
#    y 0.000000 4.225150 0.000000 
#    z 0.000000 0.000000 3.885710 
# 
# 
# High freq. dielectric constant tensor:
#      x y z
#    x 1.974510 0.000000 0.000000 
#    y 0.000000 1.955260 0.000000 
#    z 0.000000 0.000000 1.941300 
# 
# From -- ./inp_files/4624.got.cif
#   From: 2010.03.12/outbox.cif.g09.slc.cpg/sg60_3_cif.got.tgz:4624.got - 2010.04.10 18:46:24.
