data_PCOD8248701
_publ_section_title
;
Structure prediction by ZEFSAII (Michael W. Deem and Ramdas Pophale) SiO2 
 PCOD8248701
Probable space group: P B C A
;
_chemical_formula_sum "Si O2"
_cell_formula_units_Z 48
_cell_length_a 5.203793
_cell_length_b 29.485373
_cell_length_c 14.721543
_cell_angle_alpha 90.000000
_cell_angle_beta 90.000000
_cell_angle_gamma 90.000000
_cell_volume 2258.811398
_symmetry_space_group_name_H-M "P B C A"
_symmetry_group_IT_number 61
_symmetry_cell_setting 'orthorhombic'
loop_
_space_group_symop_operation_xyz
x,y,z
1/2-x,-y,1/2+z
1/2+x,1/2-y,-z
-x,1/2+y,1/2-z
-x,-y,-z
1/2+x,y,1/2-z
1/2-x,1/2+y,z
x,1/2-y,1/2+z
loop_
_atom_site_type_symbol
_atom_site_label
_atom_site_fract_x
_atom_site_fract_y
_atom_site_fract_z
Si Si1 0.464421 0.520325 0.806656
Si Si2 0.947020 0.884964 0.653989
Si Si3 0.044265 0.703217 0.068876
Si Si4 0.544352 0.696080 0.953784
Si Si5 0.039454 0.880730 0.191137
Si Si6 0.445944 0.576406 0.142084
O O1 0.668798 0.516551 0.724379
O O2 0.510025 0.569047 0.854535
O O3 0.517040 0.477429 0.871486
O O4 0.994705 0.830528 0.654533
O O5 0.910666 0.906623 0.753153
O O6 0.177606 0.908807 0.596758
O O7 0.685869 0.896752 0.598403
O O8 0.017903 0.755545 0.099060
O O9 0.329694 0.693811 0.031856
O O10 0.830626 0.691504 0.993119
O O11 0.487812 0.656497 0.883921
O O12 0.325272 0.875097 0.230751
#
# Coordination Sequence:
#
# PCOD8248701 Si02
#       6
#     8   8   8   8   8   8
#     4  10  16  30  51  77 102 142 168 208 274 319
#     4  10  18  30  50  80 102 140 176 215 258 316
#     4  10  21  37  59  74 106 154 176 208 270 323
#     4  10  21  40  56  77 107 143 185 214 261 333
#     4  10  21  35  58  85 103 136 179 230 267 299
#     4  10  17  30  50  79 111 130 171 226 262 309
#
# _framework density 21.250114
#
# number of rings (size 3 to 8) (size 9 to 14) (size 15 to 20)
#    0.000    2.000    3.333    2.000    0.000    0.000 
#    6.000    0.000    0.000    6.000    0.000    0.000 
#    0.000    0.000    0.000    0.000    0.000    0.000 
#
# Total GULP energy -594706.621068 kJ/mol
# GULP energy per Si atom -12389.721272 kJ/mol
# Density = 2.120175 g / cm^3
# Si number density = 21.250114 Si / 1000 Ang^3
#
#
#
# Elastic Constant Matrix: (Units=GPa)
#
#
# Indices 1 2 3 4 5 6 
#
# 1 134.2902 0.4664 -7.1098 0.0000 0.0000 0.0000
# 2 0.4664 130.7381 16.4877 0.0000 0.0000 0.0000
# 3 -7.1098 16.4877 10.8019 0.0000 0.0000 0.0000
# 4 0.0000 0.0000 0.0000 7.1027 0.0000 0.0000
# 5 0.0000 0.0000 0.0000 0.0000 11.1517 0.0000
# 6 0.0000 0.0000 0.0000 0.0000 0.0000 33.4374
#
#
#
# Elastic Compliance Matrix: (Units=1/GPa)
#
#
# Indices 1 2 3 4 5 6 
#
# 1 0.007788 -0.000835 0.006401 0.000000 0.000000 0.000000
# 2 -0.000835 0.009562 -0.015144 0.000000 0.000000 0.000000
# 3 0.006401 -0.015144 0.119906 0.000000 0.000000 0.000000
# 4 0.000000 0.000000 0.000000 0.140791 0.000000 0.000000
# 5 0.000000 0.000000 0.000000 0.000000 0.089673 0.000000
# 6 0.000000 0.000000 0.000000 0.000000 0.000000 0.029907
#
#
# Mechanical properties :
#
#
# Convention : Reuss Voigt Hill
#
# Bulk Modulus (GPa) = 8.46751 32.83542 20.65146
# Shear Modulus (GPa) = 10.96133 28.07077 19.51605
#
# Velocity S-wave (km/s) = 2.27364 3.63846 3.03379
# Velocity P-wave (km/s) = 3.29938 5.75644 4.69162
#
# Compressibility (1/GPa) = 0.11809843
#
# Stress axis : x y z
#
# Youngs Moduli (GPa) = 128.39707 104.58323 8.33990
#
# Poissons Ratio (x) = 0.08733 -0.05338
# Poissons Ratio (y) = 0.10721 0.12630
# Poissons Ratio (z) = -0.82185 1.58385
#
# Static dielectric constant tensor:
#      x y z
#    x 5.080410 0.000000 0.000000 
#    y 0.000000 4.303260 0.000000 
#    z 0.000000 0.000000 2.924070 
# 
# 
# High freq. dielectric constant tensor:
#      x y z
#    x 1.874960 0.000000 0.000000 
#    y 0.000000 1.859400 0.000000 
#    z 0.000000 0.000000 1.738830 
# 
# From -- ./inp_files/1196.got.cif
#   From: 2010.03.12/outbox.cif.g09.slc.cpg/sg61_1_cif.got.tgz:1196.got - 2010.04.10 19:05:03.
