data_PCOD8248025
_publ_section_title
;
Structure prediction by ZEFSAII (Michael W. Deem and Ramdas Pophale) SiO2 
 PCOD8248025
Probable space group: P B C N
;
_chemical_formula_sum "Si O2"
_cell_formula_units_Z 64
_cell_length_a 9.174689
_cell_length_b 21.250697
_cell_length_c 15.310207
_cell_angle_alpha 90.000000
_cell_angle_beta 90.000000
_cell_angle_gamma 90.000000
_cell_volume 2985.008645
_symmetry_space_group_name_H-M "P B C N"
_symmetry_group_IT_number 60
_symmetry_cell_setting 'orthorhombic'
loop_
_space_group_symop_operation_xyz
x,y,z
1/2-x,1/2-y,1/2+z
1/2+x,1/2-y,-z
-x,y,1/2-z
-x,-y,-z
1/2+x,1/2+y,1/2-z
1/2-x,1/2+y,z
x,-y,1/2+z
loop_
_atom_site_type_symbol
_atom_site_label
_atom_site_fract_x
_atom_site_fract_y
_atom_site_fract_z
Si Si1 0.347490 0.320871 0.851173
Si Si2 0.085904 0.965907 0.170886
Si Si3 0.205388 0.329880 0.665646
Si Si4 0.619171 0.361536 0.114156
Si Si5 0.067176 0.718105 0.424780
Si Si6 0.418917 0.225951 0.620764
Si Si7 0.091392 0.086823 0.076601
Si Si8 0.660192 0.891874 0.263101
O O1 0.244138 0.329851 0.767444
O O2 0.231154 0.309269 0.927417
O O3 0.446626 0.259869 0.829324
O O4 0.449062 0.378444 0.882670
O O5 0.252161 0.949639 0.194295
O O6 0.000000 0.000914 0.250000
O O7 0.012486 0.897885 0.159798
O O8 0.073329 0.011247 0.086442
O O9 0.287311 0.275269 0.610858
O O10 0.265259 0.396748 0.632728
O O11 0.035349 0.321110 0.642271
O O12 0.570266 0.289848 0.107615
O O13 0.766910 0.368836 0.171578
O O14 0.633833 0.394261 0.020587
O O15 0.015986 0.710604 0.524702
O O16 0.358083 0.166147 0.670908
O O17 0.500000 0.920404 0.250000
#
# Coordination Sequence:
#
# PCOD8248025 Si02
#       8
#     8   8   8   8   8   8   8   8
#     4  11  23  39  63  94 131 180 208 263 330 391
#     4  10  23  44  67  92 122 172 222 267 315 382
#     4  11  22  37  60  92 128 173 212 264 322 387
#     4  11  23  41  66  97 129 169 217 274 314 387
#     4  12  23  37  62 100 139 161 218 268 325 393
#     4  11  21  37  62  90 132 170 209 260 334 396
#     4  11  23  43  66  90 129 169 227 261 320 388
#     4  11  24  40  67  92 129 166 212 268 336 382
#
# _framework density 21.440473999999998
#
# number of rings (size 3 to 8) (size 9 to 14) (size 15 to 20)
#    0.000    1.000    2.500    6.750    3.500    2.000 
#    0.000    4.375    0.000    0.000    0.000    0.000 
#    0.000    0.000    0.000    0.000    0.000    0.000 
#
# Total GULP energy -793276.867067 kJ/mol
# GULP energy per Si atom -12394.951048 kJ/mol
# Density = 2.139167 g / cm^3
# Si number density = 21.440474 Si / 1000 Ang^3
#
#
#
# Elastic Constant Matrix: (Units=GPa)
#
#
# Indices 1 2 3 4 5 6 
#
# 1 137.3334 49.0145 38.8615 0.0000 0.0000 0.0000
# 2 49.0145 83.2977 29.9828 0.0000 0.0000 0.0000
# 3 38.8615 29.9828 113.6836 0.0000 0.0000 0.0000
# 4 0.0000 0.0000 0.0000 27.0487 0.0000 0.0000
# 5 0.0000 0.0000 0.0000 0.0000 37.4616 0.0000
# 6 0.0000 0.0000 0.0000 0.0000 0.0000 10.3586
#
#
#
# Elastic Compliance Matrix: (Units=1/GPa)
#
#
# Indices 1 2 3 4 5 6 
#
# 1 0.009605 -0.004939 -0.001981 0.000000 0.000000 0.000000
# 2 -0.004939 0.015804 -0.002480 0.000000 0.000000 0.000000
# 3 -0.001981 -0.002480 0.010127 0.000000 0.000000 0.000000
# 4 0.000000 0.000000 0.000000 0.036970 0.000000 0.000000
# 5 0.000000 0.000000 0.000000 0.000000 0.026694 0.000000
# 6 0.000000 0.000000 0.000000 0.000000 0.000000 0.096538
#
#
# Mechanical properties :
#
#
# Convention : Reuss Voigt Hill
#
# Bulk Modulus (GPa) = 59.74636 63.33693 61.54165
# Shear Modulus (GPa) = 22.71530 29.40417 26.05973
#
# Velocity S-wave (km/s) = 3.25846 3.70730 3.49011
# Velocity P-wave (km/s) = 6.48717 6.92318 6.70872
#
# Compressibility (1/GPa) = 0.01673742
#
# Stress axis : x y z
#
# Youngs Moduli (GPa) = 104.11612 63.27602 98.74139
#
# Poissons Ratio (x) = 0.31250 0.19558
# Poissons Ratio (y) = 0.51419 0.24486
# Poissons Ratio (z) = 0.20623 0.15691
#
# Static dielectric constant tensor:
#      x y z
#    x 3.966820 0.000000 0.000000 
#    y 0.000000 3.656580 0.000000 
#    z 0.000000 0.000000 3.988490 
# 
# 
# High freq. dielectric constant tensor:
#      x y z
#    x 1.845730 0.000000 0.000000 
#    y 0.000000 1.816570 0.000000 
#    z 0.000000 0.000000 1.855860 
# 
# From -- ./inp_files/15436.got.cif
#   From: 2010.03.12/outbox.cif.g09.slc.cpg/sg60_8_cif.got.tgz:15436.got - 2010.04.10 18:46:24.
