data_PCOD8248382
_publ_section_title
;
Structure prediction by ZEFSAII (Michael W. Deem and Ramdas Pophale) SiO2 
 PCOD8248382
Probable space group: P B C N
;
_chemical_formula_sum "Si O2"
_cell_formula_units_Z 64
_cell_length_a 15.594404
_cell_length_b 11.461302
_cell_length_c 17.182001
_cell_angle_alpha 90.000000
_cell_angle_beta 90.000000
_cell_angle_gamma 90.000000
_cell_volume 3070.976388
_symmetry_space_group_name_H-M "P B C N"
_symmetry_group_IT_number 60
_symmetry_cell_setting 'orthorhombic'
loop_
_space_group_symop_operation_xyz
x,y,z
1/2-x,1/2-y,1/2+z
1/2+x,1/2-y,-z
-x,y,1/2-z
-x,-y,-z
1/2+x,1/2+y,1/2-z
1/2-x,1/2+y,z
x,-y,1/2+z
loop_
_atom_site_type_symbol
_atom_site_label
_atom_site_fract_x
_atom_site_fract_y
_atom_site_fract_z
Si Si1 0.940546 0.335368 0.824248
Si Si2 0.076648 0.629129 0.451047
Si Si3 0.192916 0.160484 0.619770
Si Si4 0.460295 0.231589 0.618862
Si Si5 0.717603 0.288849 0.021957
Si Si6 0.371399 0.891703 0.383138
Si Si7 0.584302 0.538908 0.455126
Si Si8 0.848197 0.429037 0.289947
O O1 0.862027 0.245197 0.824791
O O2 0.901363 0.464023 0.824806
O O3 0.000000 0.312667 0.750000
O O4 0.997550 0.320364 0.901694
O O5 0.064509 0.660590 0.541022
O O6 0.166489 0.691416 0.427899
O O7 0.086802 0.491059 0.437878
O O8 0.248960 0.236730 0.559805
O O9 0.254172 0.080275 0.672664
O O10 0.126006 0.077215 0.577704
O O11 0.559405 0.207503 0.636600
O O12 0.444832 0.369880 0.611535
O O13 0.401895 0.187162 0.689940
O O14 0.795969 0.329392 0.072698
O O15 0.654421 0.398316 0.009459
O O16 0.338546 0.946812 0.302478
O O17 0.500000 0.500000 0.500000
#
# Coordination Sequence:
#
# PCOD8248382 Si02
#       8
#     8   8   8   8   8   8   8   8
#     4  12  25  45  69  98 141 183 233 283 344 422
#     4  11  22  41  67  99 131 176 234 283 333 412
#     4  12  25  44  72 100 138 183 224 287 348 413
#     4  11  23  43  69  99 131 179 228 278 350 415
#     4  11  24  42  70 104 132 177 239 281 345 411
#     4  12  24  40  69 100 135 177 226 293 342 407
#     4  11  23  45  68  98 137 172 229 288 337 407
#     4  12  25  44  66 103 141 172 227 288 349 409
#
# _framework density 20.840277
#
# number of rings (size 3 to 8) (size 9 to 14) (size 15 to 20)
#    0.000    0.500    5.000    5.250    3.500    0.000 
#    0.000    1.250    0.000    0.000    0.000    0.000 
#    0.000    0.000    0.000    0.000    0.000    0.000 
#
# Total GULP energy -793783.555677 kJ/mol
# GULP energy per Si atom -12402.868057 kJ/mol
# Density = 2.079284 g / cm^3
# Si number density = 20.840277 Si / 1000 Ang^3
#
#
#
# Elastic Constant Matrix: (Units=GPa)
#
#
# Indices 1 2 3 4 5 6 
#
# 1 110.6142 19.9578 27.0437 0.0000 0.0000 0.0000
# 2 19.9578 73.6353 16.1944 0.0000 0.0000 0.0000
# 3 27.0437 16.1944 72.3211 0.0000 0.0000 0.0000
# 4 0.0000 0.0000 0.0000 20.2341 0.0000 0.0000
# 5 0.0000 0.0000 0.0000 0.0000 35.0672 0.0000
# 6 0.0000 0.0000 0.0000 0.0000 0.0000 57.6765
#
#
#
# Elastic Compliance Matrix: (Units=1/GPa)
#
#
# Indices 1 2 3 4 5 6 
#
# 1 0.010231 -0.002032 -0.003371 0.000000 0.000000 0.000000
# 2 -0.002032 0.014687 -0.002529 0.000000 0.000000 0.000000
# 3 -0.003371 -0.002529 0.015654 0.000000 0.000000 0.000000
# 4 0.000000 0.000000 0.000000 0.049421 0.000000 0.000000
# 5 0.000000 0.000000 0.000000 0.000000 0.028517 0.000000
# 6 0.000000 0.000000 0.000000 0.000000 0.000000 0.017338
#
#
# Mechanical properties :
#
#
# Convention : Reuss Voigt Hill
#
# Bulk Modulus (GPa) = 40.47077 42.55137 41.51107
# Shear Modulus (GPa) = 31.26008 35.48721 33.37365
#
# Velocity S-wave (km/s) = 3.87716 4.13100 4.00609
# Velocity P-wave (km/s) = 6.28529 6.57387 6.43120
#
# Compressibility (1/GPa) = 0.02470919
#
# Stress axis : x y z
#
# Youngs Moduli (GPa) = 97.74093 68.08593 63.88121
#
# Poissons Ratio (x) = 0.13833 0.21534
# Poissons Ratio (y) = 0.19858 0.16156
# Poissons Ratio (z) = 0.32947 0.17220
#
# Static dielectric constant tensor:
#      x y z
#    x 4.134610 0.000000 0.000000 
#    y 0.000000 3.964720 0.000000 
#    z 0.000000 0.000000 3.625580 
# 
# 
# High freq. dielectric constant tensor:
#      x y z
#    x 1.840340 0.000000 0.000000 
#    y 0.000000 1.816130 0.000000 
#    z 0.000000 0.000000 1.802370 
# 
# From -- ./inp_files/20656.got.cif
#   From: 2010.03.12/outbox.cif.g09.slc.cpg/sg60_11_cif.got.tgz:20656.got - 2010.04.10 18:46:24.
