data_PCOD8248673
_publ_section_title
;
Structure prediction by ZEFSAII (Michael W. Deem and Ramdas Pophale) SiO2 
 PCOD8248673
Probable space group: P B C N
;
_chemical_formula_sum "Si O2"
_cell_formula_units_Z 40
_cell_length_a 7.789730
_cell_length_b 23.966439
_cell_length_c 9.070980
_cell_angle_alpha 90.000000
_cell_angle_beta 90.000000
_cell_angle_gamma 90.000000
_cell_volume 1693.480204
_symmetry_space_group_name_H-M "P B C N"
_symmetry_group_IT_number 60
_symmetry_cell_setting 'orthorhombic'
loop_
_space_group_symop_operation_xyz
x,y,z
1/2-x,1/2-y,1/2+z
1/2+x,1/2-y,-z
-x,y,1/2-z
-x,-y,-z
1/2+x,1/2+y,1/2-z
1/2-x,1/2+y,z
x,-y,1/2+z
loop_
_atom_site_type_symbol
_atom_site_label
_atom_site_fract_x
_atom_site_fract_y
_atom_site_fract_z
Si Si1 0.683241 0.697643 0.317365
Si Si2 0.918025 0.404672 0.109176
Si Si3 0.827418 0.193419 0.666210
Si Si4 0.152367 0.407859 0.833826
Si Si5 0.375085 0.512021 0.873977
O O1 0.500000 0.687591 0.250000
O O2 0.649145 0.704236 0.491844
O O3 0.776190 0.751579 0.254316
O O4 0.799660 0.645277 0.268646
O O5 0.830626 0.349078 0.174786
O O6 0.768397 0.446711 0.057879
O O7 0.000000 0.435360 0.250000
O O8 0.071378 0.391526 0.993502
O O9 0.000000 0.170980 0.750000
O O10 0.306240 0.450922 0.833916
O O11 0.000000 0.439574 0.750000
O O12 0.500000 0.538763 0.750000
O O13 0.500000 0.500000 0.000000
#
# Coordination Sequence:
#
# PCOD8248673 Si02
#       5
#     8   8   8   8   8
#     4  12  28  47  78 112 150 198 251 310 375 447
#     4  12  27  46  73 110 149 195 248 311 373 444
#     4  12  28  49  78 111 154 197 250 309 375 446
#     4  12  25  48  76 107 150 196 248 304 377 446
#     4  12  26  47  75 108 147 193 249 310 374 448
#
# _framework density 23.619997000000001
#
# number of rings (size 3 to 8) (size 9 to 14) (size 15 to 20)
#    0.000    0.000    2.000    7.200   11.200    0.000 
#    0.000    0.000    0.000    0.000    0.000    0.000 
#    0.000    0.000    0.000    0.000    0.000    0.000 
#
# Total GULP energy -495602.954967 kJ/mol
# GULP energy per Si atom -12390.073874 kJ/mol
# Density = 2.356624 g / cm^3
# Si number density = 23.619997 Si / 1000 Ang^3
#
#
#
# Elastic Constant Matrix: (Units=GPa)
#
#
# Indices 1 2 3 4 5 6 
#
# 1 110.5398 16.4015 39.3375 0.0000 0.0000 0.0000
# 2 16.4015 100.4837 6.5165 0.0000 0.0000 0.0000
# 3 39.3375 6.5165 163.0531 0.0000 0.0000 0.0000
# 4 0.0000 0.0000 0.0000 22.0897 0.0000 0.0000
# 5 0.0000 0.0000 0.0000 0.0000 64.0378 0.0000
# 6 0.0000 0.0000 0.0000 0.0000 0.0000 36.6728
#
#
#
# Elastic Compliance Matrix: (Units=1/GPa)
#
#
# Indices 1 2 3 4 5 6 
#
# 1 0.010116 -0.001497 -0.002381 0.000000 0.000000 0.000000
# 2 -0.001497 0.010199 -0.000047 0.000000 0.000000 0.000000
# 3 -0.002381 -0.000047 0.006709 0.000000 0.000000 0.000000
# 4 0.000000 0.000000 0.000000 0.045270 0.000000 0.000000
# 5 0.000000 0.000000 0.000000 0.000000 0.015616 0.000000
# 6 0.000000 0.000000 0.000000 0.000000 0.000000 0.027268
#
#
# Mechanical properties :
#
#
# Convention : Reuss Voigt Hill
#
# Bulk Modulus (GPa) = 52.14780 55.39863 53.77321
# Shear Modulus (GPa) = 38.63449 45.34815 41.99132
#
# Velocity S-wave (km/s) = 4.04873 4.38643 4.22096
# Velocity P-wave (km/s) = 6.63189 7.01137 6.82427
#
# Compressibility (1/GPa) = 0.01917626
#
# Stress axis : x y z
#
# Youngs Moduli (GPa) = 98.85519 98.04703 149.04943
#
# Poissons Ratio (x) = 0.14675 0.35484
# Poissons Ratio (y) = 0.14796 0.00693
# Poissons Ratio (z) = 0.23534 0.00456
#
# Static dielectric constant tensor:
#      x y z
#    x 6.197980 0.000000 0.000000 
#    y 0.000000 5.007120 0.000000 
#    z 0.000000 0.000000 4.853040 
# 
# 
# High freq. dielectric constant tensor:
#      x y z
#    x 1.962940 0.000000 0.000000 
#    y 0.000000 1.932460 0.000000 
#    z 0.000000 0.000000 1.956000 
# 
# From -- ./inp_files/3814.got.cif
#   From: 2010.03.12/outbox.cif.g09.slc.cpg/sg60_2_cif.got.tgz:3814.got - 2010.04.10 18:46:24.
