data_PCOD8248898
_publ_section_title
;
Structure prediction by ZEFSAII (Michael W. Deem and Ramdas Pophale) SiO2 
 PCOD8248898
Probable space group: P B C A
;
_chemical_formula_sum "Si O2"
_cell_formula_units_Z 40
_cell_length_a 14.400464
_cell_length_b 16.784816
_cell_length_c 7.739093
_cell_angle_alpha 90.000000
_cell_angle_beta 90.000000
_cell_angle_gamma 90.000000
_cell_volume 1870.609502
_symmetry_space_group_name_H-M "P B C A"
_symmetry_group_IT_number 61
_symmetry_cell_setting 'orthorhombic'
loop_
_space_group_symop_operation_xyz
x,y,z
1/2-x,-y,1/2+z
1/2+x,1/2-y,-z
-x,1/2+y,1/2-z
-x,-y,-z
1/2+x,y,1/2-z
1/2-x,1/2+y,z
x,1/2-y,1/2+z
loop_
_atom_site_type_symbol
_atom_site_label
_atom_site_fract_x
_atom_site_fract_y
_atom_site_fract_z
Si Si1 0.768720 0.652665 0.802383
Si Si2 0.567968 0.903398 0.351399
Si Si3 0.166574 0.194609 0.057542
Si Si4 0.044294 0.160862 0.550638
Si Si5 0.968682 0.584051 0.293025
O O1 0.678658 0.604431 0.857637
O O2 0.785149 0.648389 0.598274
O O3 0.859506 0.614754 0.896363
O O4 0.759236 0.747297 0.849243
O O5 0.524467 0.840006 0.216382
O O6 0.532998 0.890068 0.546347
O O7 0.539582 0.989709 0.281128
O O8 0.075037 0.248067 0.003483
O O9 0.132661 0.124982 0.185773
O O10 0.992982 0.117867 0.389573
#
# Coordination Sequence:
#
# PCOD8248898 Si02
#       5
#     8   8   8   8   8
#     4  10  22  42  64  96 125 175 217 267 322 400
#     4  11  25  41  67  99 134 166 230 261 333 400
#     4  10  19  43  65  86 134 168 213 269 329 375
#     4  10  21  44  66  92 133 172 213 270 325 386
#     4  11  22  44  67  95 132 175 206 286 326 380
#
# _framework density 21.383403000000001
#
# number of rings (size 3 to 8) (size 9 to 14) (size 15 to 20)
#    1.200    0.400    4.000    0.600    0.000    3.200 
#    7.200    0.000    0.000    0.000    0.000    0.000 
#    0.000    0.000    0.000    0.000    0.000    0.000 
#
# Total GULP energy -495654.207054 kJ/mol
# GULP energy per Si atom -12391.355176 kJ/mol
# Density = 2.133473 g / cm^3
# Si number density = 21.383403 Si / 1000 Ang^3
#
#
#
# Elastic Constant Matrix: (Units=GPa)
#
#
# Indices 1 2 3 4 5 6 
#
# 1 66.9662 9.7412 28.6503 0.0000 0.0000 0.0000
# 2 9.7412 33.3876 0.3926 0.0000 0.0000 0.0000
# 3 28.6503 0.3926 109.0816 0.0000 0.0000 0.0000
# 4 0.0000 0.0000 0.0000 24.2336 0.0000 0.0000
# 5 0.0000 0.0000 0.0000 0.0000 19.5770 0.0000
# 6 0.0000 0.0000 0.0000 0.0000 0.0000 25.3855
#
#
#
# Elastic Compliance Matrix: (Units=1/GPa)
#
#
# Indices 1 2 3 4 5 6 
#
# 1 0.017650 -0.005095 -0.004617 0.000000 0.000000 0.000000
# 2 -0.005095 0.031423 0.001225 0.000000 0.000000 0.000000
# 3 -0.004617 0.001225 0.010376 0.000000 0.000000 0.000000
# 4 0.000000 0.000000 0.000000 0.041265 0.000000 0.000000
# 5 0.000000 0.000000 0.000000 0.000000 0.051080 0.000000
# 6 0.000000 0.000000 0.000000 0.000000 0.000000 0.039393
#
#
# Mechanical properties :
#
#
# Convention : Reuss Voigt Hill
#
# Bulk Modulus (GPa) = 23.54379 31.88929 27.71654
# Shear Modulus (GPa) = 22.49018 25.21597 23.85308
#
# Velocity S-wave (km/s) = 3.24660 3.43772 3.34353
# Velocity P-wave (km/s) = 5.00880 5.54100 5.28161
#
# Compressibility (1/GPa) = 0.04247405
#
# Stress axis : x y z
#
# Youngs Moduli (GPa) = 56.65880 31.82343 96.37829
#
# Poissons Ratio (x) = 0.16215 0.44501
# Poissons Ratio (y) = 0.28869 -0.11808
# Poissons Ratio (z) = 0.26161 -0.03899
#
# Static dielectric constant tensor:
#      x y z
#    x 3.448380 0.000000 0.000000 
#    y 0.000000 3.629240 0.000000 
#    z 0.000000 0.000000 3.828780 
# 
# 
# High freq. dielectric constant tensor:
#      x y z
#    x 1.802880 0.000000 0.000000 
#    y 0.000000 1.820440 0.000000 
#    z 0.000000 0.000000 1.853310 
# 
# From -- ./inp_files/2129.got.cif
#   From: 2010.03.12/outbox.cif.g09.slc.cpg/sg61_2_cif.got.tgz:2129.got - 2010.04.10 19:05:03.
