data_PCOD8248262
_publ_section_title
;
Structure prediction by ZEFSAII (Michael W. Deem and Ramdas Pophale) SiO2 
 PCOD8248262
Probable space group: P B C N
;
_chemical_formula_sum "Si O2"
_cell_formula_units_Z 48
_cell_length_a 17.402963
_cell_length_b 27.374473
_cell_length_c 5.104530
_cell_angle_alpha 90.000000
_cell_angle_beta 90.000000
_cell_angle_gamma 90.000000
_cell_volume 2431.782476
_symmetry_space_group_name_H-M "P B C N"
_symmetry_group_IT_number 60
_symmetry_cell_setting 'orthorhombic'
loop_
_space_group_symop_operation_xyz
x,y,z
1/2-x,1/2-y,1/2+z
1/2+x,1/2-y,-z
-x,y,1/2-z
-x,-y,-z
1/2+x,1/2+y,1/2-z
1/2-x,1/2+y,z
x,-y,1/2+z
loop_
_atom_site_type_symbol
_atom_site_label
_atom_site_fract_x
_atom_site_fract_y
_atom_site_fract_z
Si Si1 0.875940 0.372851 0.075499
Si Si2 0.547991 0.225719 0.513794
Si Si3 0.760212 0.023814 0.272851
Si Si4 0.417225 0.024442 0.102460
Si Si5 0.273772 0.873079 0.915934
Si Si6 0.790401 0.771286 0.505202
O O1 0.823692 0.385379 0.326603
O O2 0.931012 0.327509 0.131596
O O3 0.925967 0.420661 0.004381
O O4 0.826875 0.355994 0.823947
O O5 0.500000 0.220513 0.250000
O O6 0.621840 0.258249 0.446235
O O7 0.500000 0.251044 0.750000
O O8 0.671163 0.011564 0.332046
O O9 0.772926 0.079123 0.176082
O O10 0.798453 0.012284 0.555185
O O11 0.452969 0.015847 0.394808
O O12 0.214212 0.829839 0.973055
O O13 0.734898 0.754984 0.271401
#
# Coordination Sequence:
#
# PCOD8248262 Si02
#       6
#     8   8   8   8   8   8
#     4  11  20  33  54  76 105 142 184 227 272 322
#     4  12  25  40  57  80 112 146 186 233 284 332
#     4   9  16  26  43  74 111 135 162 216 278 320
#     4   9  16  27  45  72 100 135 177 223 271 312
#     4  11  19  32  55  80 105 142 184 222 269 327
#     4  12  22  40  60  83 111 145 188 236 275 330
#
# _framework density 19.738606999999998
#
# number of rings (size 3 to 8) (size 9 to 14) (size 15 to 20)
#    0.000    1.333    3.333    7.000    0.000    0.000 
#    0.000    0.000    0.000    3.000    0.000    0.000 
#    0.000    4.000    0.000    0.000    0.000    0.000 
#
# Total GULP energy -595124.826757 kJ/mol
# GULP energy per Si atom -12398.433891 kJ/mol
# Density = 1.969368 g / cm^3
# Si number density = 19.738607 Si / 1000 Ang^3
#
#
#
# Elastic Constant Matrix: (Units=GPa)
#
#
# Indices 1 2 3 4 5 6 
#
# 1 44.5641 34.3359 5.0484 0.0000 0.0000 0.0000
# 2 34.3359 113.0547 33.4652 0.0000 0.0000 0.0000
# 3 5.0484 33.4652 103.4262 0.0000 0.0000 0.0000
# 4 0.0000 0.0000 0.0000 29.9578 0.0000 0.0000
# 5 0.0000 0.0000 0.0000 0.0000 20.4267 0.0000
# 6 0.0000 0.0000 0.0000 0.0000 0.0000 10.7784
#
#
#
# Elastic Compliance Matrix: (Units=1/GPa)
#
#
# Indices 1 2 3 4 5 6 
#
# 1 0.029537 -0.009449 0.001616 0.000000 0.000000 0.000000
# 2 -0.009449 0.012805 -0.003682 0.000000 0.000000 0.000000
# 3 0.001616 -0.003682 0.010781 0.000000 0.000000 0.000000
# 4 0.000000 0.000000 0.000000 0.033380 0.000000 0.000000
# 5 0.000000 0.000000 0.000000 0.000000 0.048956 0.000000
# 6 0.000000 0.000000 0.000000 0.000000 0.000000 0.092778
#
#
# Mechanical properties :
#
#
# Convention : Reuss Voigt Hill
#
# Bulk Modulus (GPa) = 33.23104 45.19378 39.21241
# Shear Modulus (GPa) = 19.13523 24.77895 21.95709
#
# Velocity S-wave (km/s) = 3.11695 3.54694 3.33887
# Velocity P-wave (km/s) = 5.46131 6.30240 5.89687
#
# Compressibility (1/GPa) = 0.03009235
#
# Stress axis : x y z
#
# Youngs Moduli (GPa) = 33.85607 78.09505 92.75368
#
# Poissons Ratio (x) = 0.73791 -0.14985
# Poissons Ratio (y) = 0.31990 0.34152
# Poissons Ratio (z) = -0.05470 0.28755
#
# Static dielectric constant tensor:
#      x y z
#    x 3.141500 0.000000 0.000000 
#    y 0.000000 3.557780 0.000000 
#    z 0.000000 0.000000 4.200180 
# 
# 
# High freq. dielectric constant tensor:
#      x y z
#    x 1.706320 0.000000 0.000000 
#    y 0.000000 1.765490 0.000000 
#    z 0.000000 0.000000 1.812140 
# 
# From -- ./inp_files/1862.got.cif
#   From: 2010.03.12/outbox.cif.g09.slc.cpg/sg60_1_cif.got.tgz:1862.got - 2010.04.10 18:46:24.
