data_PCOD8248355
_publ_section_title
;
Structure prediction by ZEFSAII (Michael W. Deem and Ramdas Pophale) SiO2 
 PCOD8248355
Probable space group: P B C N
;
_chemical_formula_sum "Si O2"
_cell_formula_units_Z 32
_cell_length_a 18.769685
_cell_length_b 5.059732
_cell_length_c 13.353332
_cell_angle_alpha 90.000000
_cell_angle_beta 90.000000
_cell_angle_gamma 90.000000
_cell_volume 1268.160276
_symmetry_space_group_name_H-M "P B C N"
_symmetry_group_IT_number 60
_symmetry_cell_setting 'orthorhombic'
loop_
_space_group_symop_operation_xyz
x,y,z
1/2-x,1/2-y,1/2+z
1/2+x,1/2-y,-z
-x,y,1/2-z
-x,-y,-z
1/2+x,1/2+y,1/2-z
1/2-x,1/2+y,z
x,-y,1/2+z
loop_
_atom_site_type_symbol
_atom_site_label
_atom_site_fract_x
_atom_site_fract_y
_atom_site_fract_z
Si Si1 0.068478 0.908946 0.189937
Si Si2 0.213033 0.789737 0.506450
Si Si3 0.787088 0.109296 0.257548
Si Si4 0.068204 0.590745 0.560128
O O1 0.096216 0.655892 0.126796
O O2 0.000000 0.808766 0.250000
O O3 0.132324 0.008677 0.262396
O O4 0.043703 0.156136 0.123402
O O5 0.269855 0.578109 0.459487
O O6 0.223546 0.840655 0.624363
O O7 0.132820 0.683316 0.487326
O O8 0.766594 0.391102 0.209386
O O9 0.000000 0.500000 0.500000
#
# Coordination Sequence:
#
# PCOD8248355 Si02
#       4
#     8   8   8   8
#     4  11  22  36  56  81 110 142 176 219 268 318
#     4   9  16  29  51  77 100 129 177 225 255 293
#     4   9  16  29  51  77 100 129 177 225 255 293
#     4  11  22  36  56  81 110 142 176 219 268 318
#
# _framework density 25.233402000000002
#
# number of rings (size 3 to 8) (size 9 to 14) (size 15 to 20)
#    0.000    2.000    0.000    9.000    0.000    0.000 
#    0.000    0.000    0.000    9.000    0.000    0.000 
#    0.000    0.000    0.000    0.000    0.000    0.000 
#
# Total GULP energy -396565.913670 kJ/mol
# GULP energy per Si atom -12392.684802 kJ/mol
# Density = 2.517597 g / cm^3
# Si number density = 25.233402 Si / 1000 Ang^3
#
#
#
# Elastic Constant Matrix: (Units=GPa)
#
#
# Indices 1 2 3 4 5 6 
#
# 1 174.5984 38.1406 8.1304 0.0000 0.0000 0.0000
# 2 38.1406 143.4392 9.6445 0.0000 0.0000 0.0000
# 3 8.1304 9.6445 8.0191 0.0000 0.0000 0.0000
# 4 0.0000 0.0000 0.0000 30.8161 0.0000 0.0000
# 5 0.0000 0.0000 0.0000 0.0000 21.8881 0.0000
# 6 0.0000 0.0000 0.0000 0.0000 0.0000 47.7354
#
#
#
# Elastic Compliance Matrix: (Units=1/GPa)
#
#
# Indices 1 2 3 4 5 6 
#
# 1 0.006240 -0.001342 -0.004712 0.000000 0.000000 0.000000
# 2 -0.001342 0.007874 -0.008109 0.000000 0.000000 0.000000
# 3 -0.004712 -0.008109 0.139231 0.000000 0.000000 0.000000
# 4 0.000000 0.000000 0.000000 0.032451 0.000000 0.000000
# 5 0.000000 0.000000 0.000000 0.000000 0.045687 0.000000
# 6 0.000000 0.000000 0.000000 0.000000 0.000000 0.020949
#
#
# Mechanical properties :
#
#
# Convention : Reuss Voigt Hill
#
# Bulk Modulus (GPa) = 7.99880 48.65421 28.32650
# Shear Modulus (GPa) = 15.50720 38.09732 26.80226
#
# Velocity S-wave (km/s) = 2.48170 3.88983 3.26264
# Velocity P-wave (km/s) = 3.37470 6.28473 5.04413
#
# Compressibility (1/GPa) = 0.12501881
#
# Stress axis : x y z
#
# Youngs Moduli (GPa) = 160.25365 127.00433 7.18229
#
# Poissons Ratio (x) = 0.17049 0.03384
# Poissons Ratio (y) = 0.21513 0.05824
# Poissons Ratio (z) = 0.75515 1.02983
#
# Static dielectric constant tensor:
#      x y z
#    x 4.449970 0.000000 0.000000 
#    y 0.000000 5.261190 0.000000 
#    z 0.000000 0.000000 3.997490 
# 
# 
# High freq. dielectric constant tensor:
#      x y z
#    x 2.004620 0.000000 0.000000 
#    y 0.000000 2.041980 0.000000 
#    z 0.000000 0.000000 1.966860 
# 
# From -- ./inp_files/17144.got.cif
#   From: 2010.03.12/outbox.cif.g09.slc.cpg/sg60_9_cif.got.tgz:17144.got - 2010.04.10 18:46:24.
