data_PCOD8248117
_publ_section_title
;
Structure prediction by ZEFSAII (Michael W. Deem and Ramdas Pophale) SiO2 
 PCOD8248117
Probable space group: P B C N
;
_chemical_formula_sum "Si O2"
_cell_formula_units_Z 44
_cell_length_a 14.632300
_cell_length_b 18.302462
_cell_length_c 8.269825
_cell_angle_alpha 90.000000
_cell_angle_beta 90.000000
_cell_angle_gamma 90.000000
_cell_volume 2214.717973
_symmetry_space_group_name_H-M "P B C N"
_symmetry_group_IT_number 60
_symmetry_cell_setting 'orthorhombic'
loop_
_space_group_symop_operation_xyz
x,y,z
1/2-x,1/2-y,1/2+z
1/2+x,1/2-y,-z
-x,y,1/2-z
-x,-y,-z
1/2+x,1/2+y,1/2-z
1/2-x,1/2+y,z
x,-y,1/2+z
loop_
_atom_site_type_symbol
_atom_site_label
_atom_site_fract_x
_atom_site_fract_y
_atom_site_fract_z
Si Si1 0.863362 0.096989 0.394516
Si Si2 0.895096 0.053965 0.743931
Si Si3 0.197428 0.677071 0.259621
Si Si4 0.190663 0.821263 0.060147
Si Si5 0.992340 0.224753 0.078638
Si Si6 0.500000 0.189538 0.250000
O O1 0.850272 0.063931 0.570701
O O2 0.765495 0.128411 0.343871
O O3 0.942601 0.156049 0.394873
O O4 0.892648 0.031867 0.276890
O O5 0.833178 0.100067 0.867094
O O6 0.000000 0.082654 0.750000
O O7 0.200328 0.761565 0.201780
O O8 0.217879 0.674205 0.451770
O O9 0.094384 0.644712 0.228246
O O10 0.112448 0.800092 0.932116
O O11 0.000000 0.270534 0.250000
O O12 0.020449 0.263981 0.912641
#
# Coordination Sequence:
#
# PCOD8248117 Si02
#       6
#     8   8   8   8   8   4
#     4  12  23  39  59  94 131 171 205 254 324 399
#     4  12  24  38  63  95 136 164 198 259 339 398
#     4  11  23  39  60  87 125 169 218 262 311 371
#     4  11  22  37  61  89 126 168 207 260 316 388
#     4  11  20  36  60  90 127 165 202 256 323 389
#     4  10  24  42  60  88 126 168 224 280 302 358
#
# _framework density 19.867089
#
# number of rings (size 3 to 8) (size 9 to 14) (size 15 to 20)
#    0.000    0.727    3.636    6.545    1.273    0.000 
#    0.000    0.000    0.000    4.364    0.000    0.000 
#    0.000    0.000    0.000    0.000    0.000    0.000 
#
# Total GULP energy -545446.895064 kJ/mol
# GULP energy per Si atom -12396.520342 kJ/mol
# Density = 1.982187 g / cm^3
# Si number density = 19.867089 Si / 1000 Ang^3
#
#
#
# Elastic Constant Matrix: (Units=GPa)
#
#
# Indices 1 2 3 4 5 6 
#
# 1 132.9149 41.8263 38.2021 0.0000 0.0000 0.0000
# 2 41.8263 59.0456 31.8475 0.0000 0.0000 0.0000
# 3 38.2021 31.8475 128.7686 0.0000 0.0000 0.0000
# 4 0.0000 0.0000 0.0000 10.0056 0.0000 0.0000
# 5 0.0000 0.0000 0.0000 0.0000 36.5814 0.0000
# 6 0.0000 0.0000 0.0000 0.0000 0.0000 26.9330
#
#
#
# Elastic Compliance Matrix: (Units=1/GPa)
#
#
# Indices 1 2 3 4 5 6 
#
# 1 0.009892 -0.006259 -0.001387 0.000000 0.000000 0.000000
# 2 -0.006259 0.023504 -0.003956 0.000000 0.000000 0.000000
# 3 -0.001387 -0.003956 0.009156 0.000000 0.000000 0.000000
# 4 0.000000 0.000000 0.000000 0.099944 0.000000 0.000000
# 5 0.000000 0.000000 0.000000 0.000000 0.027336 0.000000
# 6 0.000000 0.000000 0.000000 0.000000 0.000000 0.037129
#
#
# Mechanical properties :
#
#
# Convention : Reuss Voigt Hill
#
# Bulk Modulus (GPa) = 51.68644 60.49790 56.09217
# Shear Modulus (GPa) = 21.13153 28.62755 24.87954
#
# Velocity S-wave (km/s) = 3.26490 3.80011 3.54262
# Velocity P-wave (km/s) = 6.34707 7.05492 6.71033
#
# Compressibility (1/GPa) = 0.01934743
#
# Stress axis : x y z
#
# Youngs Moduli (GPa) = 101.09365 42.54645 109.22204
#
# Poissons Ratio (x) = 0.26631 0.15145
# Poissons Ratio (y) = 0.63277 0.43209
# Poissons Ratio (z) = 0.14017 0.16832
#
# Static dielectric constant tensor:
#      x y z
#    x 3.843180 0.000000 0.000000 
#    y 0.000000 3.333830 0.000000 
#    z 0.000000 0.000000 4.205950 
# 
# 
# High freq. dielectric constant tensor:
#      x y z
#    x 1.776650 0.000000 0.000000 
#    y 0.000000 1.728240 0.000000 
#    z 0.000000 0.000000 1.806160 
# 
# From -- ./inp_files/5826.got.cif
#   From: 2010.03.12/outbox.cif.g09.slc.cpg/sg60_3_cif.got.tgz:5826.got - 2010.04.10 18:46:24.
