data_PCOD8248184
_publ_section_title
;
Structure prediction by ZEFSAII (Michael W. Deem and Ramdas Pophale) SiO2 
 PCOD8248184
Probable space group: P B C N
;
_chemical_formula_sum "Si O2"
_cell_formula_units_Z 36
_cell_length_a 19.750980
_cell_length_b 8.090546
_cell_length_c 9.095840
_cell_angle_alpha 90.000000
_cell_angle_beta 90.000000
_cell_angle_gamma 90.000000
_cell_volume 1453.480779
_symmetry_space_group_name_H-M "P B C N"
_symmetry_group_IT_number 60
_symmetry_cell_setting 'orthorhombic'
loop_
_space_group_symop_operation_xyz
x,y,z
1/2-x,1/2-y,1/2+z
1/2+x,1/2-y,-z
-x,y,1/2-z
-x,-y,-z
1/2+x,1/2+y,1/2-z
1/2-x,1/2+y,z
x,-y,1/2+z
loop_
_atom_site_type_symbol
_atom_site_label
_atom_site_fract_x
_atom_site_fract_y
_atom_site_fract_z
Si Si1 0.836259 0.319958 0.076518
Si Si2 0.114281 0.904958 0.705651
Si Si3 0.000000 0.838874 0.250000
Si Si4 0.894331 0.328042 0.561657
Si Si5 0.212650 0.823274 0.217610
O O1 0.886106 0.169280 0.126729
O O2 0.883589 0.476612 0.043183
O O3 0.788080 0.344900 0.219672
O O4 0.790904 0.279273 0.934335
O O5 0.105675 0.752293 0.597745
O O6 0.056951 0.042918 0.680054
O O7 0.187051 0.991691 0.681297
O O8 0.967120 0.715750 0.131195
O O9 0.834175 0.258311 0.659937
#
# Coordination Sequence:
#
# PCOD8248184 Si02
#       5
#     8   8   4   8   8
#     4  12  25  43  70 103 136 175 225 280 335 401
#     4  11  24  45  70  96 135 182 224 274 340 403
#     4  10  24  46  70  98 134 180 226 278 334 396
#     4  11  24  43  69 101 136 177 228 279 330 395
#     4  11  24  43  67 100 139 177 219 274 343 406
#
# _framework density 24.768131
#
# number of rings (size 3 to 8) (size 9 to 14) (size 15 to 20)
#    0.000    0.889    0.000    7.333    0.000    8.000 
#    0.000    8.889    0.000    0.000    0.000    0.000 
#    0.000    0.000    0.000    0.000    0.000    0.000 
#
# Total GULP energy -446398.598084 kJ/mol
# GULP energy per Si atom -12399.961058 kJ/mol
# Density = 2.471176 g / cm^3
# Si number density = 24.768131 Si / 1000 Ang^3
#
#
#
# Elastic Constant Matrix: (Units=GPa)
#
#
# Indices 1 2 3 4 5 6 
#
# 1 71.7466 29.6427 24.6295 0.0000 0.0000 0.0000
# 2 29.6427 143.5546 32.5665 0.0000 0.0000 0.0000
# 3 24.6295 32.5665 107.9272 0.0000 0.0000 0.0000
# 4 0.0000 0.0000 0.0000 44.6885 0.0000 0.0000
# 5 0.0000 0.0000 0.0000 0.0000 30.6755 0.0000
# 6 0.0000 0.0000 0.0000 0.0000 0.0000 27.0265
#
#
#
# Elastic Compliance Matrix: (Units=1/GPa)
#
#
# Indices 1 2 3 4 5 6 
#
# 1 0.016016 -0.002660 -0.002852 0.000000 0.000000 0.000000
# 2 -0.002660 0.007920 -0.001783 0.000000 0.000000 0.000000
# 3 -0.002852 -0.001783 0.010454 0.000000 0.000000 0.000000
# 4 0.000000 0.000000 0.000000 0.022377 0.000000 0.000000
# 5 0.000000 0.000000 0.000000 0.000000 0.032599 0.000000
# 6 0.000000 0.000000 0.000000 0.000000 0.000000 0.037001
#
#
# Mechanical properties :
#
#
# Convention : Reuss Voigt Hill
#
# Bulk Modulus (GPa) = 50.50506 55.21177 52.85841
# Shear Modulus (GPa) = 33.88510 36.23741 35.06126
#
# Velocity S-wave (km/s) = 3.70279 3.82915 3.76650
# Velocity P-wave (km/s) = 6.22224 6.47223 6.34846
#
# Compressibility (1/GPa) = 0.01980000
#
# Stress axis : x y z
#
# Youngs Moduli (GPa) = 62.43700 126.26743 95.65420
#
# Poissons Ratio (x) = 0.33589 0.27283
# Poissons Ratio (y) = 0.16609 0.17052
# Poissons Ratio (z) = 0.17809 0.22509
#
# Static dielectric constant tensor:
#      x y z
#    x 4.615910 0.000000 0.000000 
#    y 0.000000 4.691900 0.000000 
#    z 0.000000 0.000000 4.381550 
# 
# 
# High freq. dielectric constant tensor:
#      x y z
#    x 1.977970 0.000000 0.000000 
#    y 0.000000 1.997850 0.000000 
#    z 0.000000 0.000000 1.990860 
# 
# From -- ./inp_files/7172.got.cif
#   From: 2010.03.12/outbox.cif.g09.slc.cpg/sg60_4_cif.got.tgz:7172.got - 2010.04.10 18:46:24.
