data_PCOD8248133
_publ_section_title
;
Structure prediction by ZEFSAII (Michael W. Deem and Ramdas Pophale) SiO2 
 PCOD8248133
Probable space group: P B C N
;
_chemical_formula_sum "Si O2"
_cell_formula_units_Z 56
_cell_length_a 11.054233
_cell_length_b 14.021823
_cell_length_c 16.161610
_cell_angle_alpha 90.000000
_cell_angle_beta 90.000000
_cell_angle_gamma 90.000000
_cell_volume 2505.057607
_symmetry_space_group_name_H-M "P B C N"
_symmetry_group_IT_number 60
_symmetry_cell_setting 'orthorhombic'
loop_
_space_group_symop_operation_xyz
x,y,z
1/2-x,1/2-y,1/2+z
1/2+x,1/2-y,-z
-x,y,1/2-z
-x,-y,-z
1/2+x,1/2+y,1/2-z
1/2-x,1/2+y,z
x,-y,1/2+z
loop_
_atom_site_type_symbol
_atom_site_label
_atom_site_fract_x
_atom_site_fract_y
_atom_site_fract_z
Si Si1 0.331470 0.589952 0.328316
Si Si2 0.966280 0.029610 0.907846
Si Si3 0.681904 0.798521 0.204549
Si Si4 0.727167 0.965608 0.312618
Si Si5 0.553442 0.278507 0.157966
Si Si6 0.996171 0.420719 0.396589
Si Si7 0.117904 0.394186 0.940368
O O1 0.455374 0.534054 0.344529
O O2 0.355806 0.688609 0.279434
O O3 0.246569 0.524272 0.271315
O O4 0.259790 0.613122 0.414331
O O5 0.826969 0.011815 0.882765
O O6 0.988252 0.141747 0.896862
O O7 0.000000 0.000000 0.000000
O O8 0.715409 0.852373 0.290080
O O9 0.804561 0.803466 0.151339
O O10 0.567271 0.844893 0.158783
O O11 0.594317 0.990096 0.345726
O O12 0.500000 0.279570 0.250000
O O13 0.536022 0.173837 0.118432
O O14 0.914148 0.364448 0.465235
O O15 0.091019 0.493228 0.435992
#
# Coordination Sequence:
#
# PCOD8248133 Si02
#       7
#     8   8   8   8   8   8   8
#     4  11  24  45  69 103 134 188 235 289 353 429
#     4  12  25  43  69  99 142 179 232 297 357 421
#     4  11  24  42  70  97 141 180 234 291 344 430
#     4  12  24  42  69  97 134 183 231 283 352 424
#     4  11  22  44  72  98 133 186 240 286 351 430
#     4  11  24  43  65 102 139 180 227 297 358 414
#     4  10  24  42  70  98 138 176 233 292 354 420
#
# _framework density 22.354775
#
# number of rings (size 3 to 8) (size 9 to 14) (size 15 to 20)
#    0.000    0.857    4.286    1.714    6.000    3.429 
#    0.000    0.000    0.000    0.000    0.000    0.000 
#    0.000    0.000    0.000    0.000    0.000    0.000 
#
# Total GULP energy -694095.355253 kJ/mol
# GULP energy per Si atom -12394.559915 kJ/mol
# Density = 2.230389 g / cm^3
# Si number density = 22.354775 Si / 1000 Ang^3
#
#
#
# Elastic Constant Matrix: (Units=GPa)
#
#
# Indices 1 2 3 4 5 6 
#
# 1 116.7597 22.3304 31.8321 0.0000 0.0000 0.0000
# 2 22.3304 105.3677 25.7537 0.0000 0.0000 0.0000
# 3 31.8321 25.7537 106.8860 0.0000 0.0000 0.0000
# 4 0.0000 0.0000 0.0000 31.2569 0.0000 0.0000
# 5 0.0000 0.0000 0.0000 0.0000 42.0195 0.0000
# 6 0.0000 0.0000 0.0000 0.0000 0.0000 18.3592
#
#
#
# Elastic Compliance Matrix: (Units=1/GPa)
#
#
# Indices 1 2 3 4 5 6 
#
# 1 0.009514 -0.001407 -0.002494 0.000000 0.000000 0.000000
# 2 -0.001407 0.010292 -0.002061 0.000000 0.000000 0.000000
# 3 -0.002494 -0.002061 0.010595 0.000000 0.000000 0.000000
# 4 0.000000 0.000000 0.000000 0.031993 0.000000 0.000000
# 5 0.000000 0.000000 0.000000 0.000000 0.023798 0.000000
# 6 0.000000 0.000000 0.000000 0.000000 0.000000 0.054469
#
#
# Mechanical properties :
#
#
# Convention : Reuss Voigt Hill
#
# Bulk Modulus (GPa) = 54.12028 54.31621 54.21824
# Shear Modulus (GPa) = 31.49716 34.93359 33.21538
#
# Velocity S-wave (km/s) = 3.75769 3.95738 3.85883
# Velocity P-wave (km/s) = 6.56424 6.72542 6.64532
#
# Compressibility (1/GPa) = 0.01847736
#
# Stress axis : x y z
#
# Youngs Moduli (GPa) = 105.11214 97.15900 94.38213
#
# Poissons Ratio (x) = 0.13666 0.23543
# Poissons Ratio (y) = 0.14784 0.19452
# Poissons Ratio (z) = 0.26219 0.20025
#
# Static dielectric constant tensor:
#      x y z
#    x 4.116290 0.000000 0.000000 
#    y 0.000000 4.143130 0.000000 
#    z 0.000000 0.000000 4.054800 
# 
# 
# High freq. dielectric constant tensor:
#      x y z
#    x 1.888440 0.000000 0.000000 
#    y 0.000000 1.880010 0.000000 
#    z 0.000000 0.000000 1.868360 
# 
# From -- ./inp_files/16185.got.cif
#   From: 2010.03.12/outbox.cif.g09.slc.cpg/sg60_9_cif.got.tgz:16185.got - 2010.04.10 18:46:24.
