data_PCOD8248979
_publ_section_title
;
Structure prediction by ZEFSAII (Michael W. Deem and Ramdas Pophale) SiO2 
 PCOD8248979
Probable space group: P B C A
;
_chemical_formula_sum "Si O2"
_cell_formula_units_Z 64
_cell_length_a 17.325911
_cell_length_b 9.506138
_cell_length_c 20.873602
_cell_angle_alpha 90.000000
_cell_angle_beta 90.000000
_cell_angle_gamma 90.000000
_cell_volume 3437.934453
_symmetry_space_group_name_H-M "P B C A"
_symmetry_group_IT_number 61
_symmetry_cell_setting 'orthorhombic'
loop_
_space_group_symop_operation_xyz
x,y,z
1/2-x,-y,1/2+z
1/2+x,1/2-y,-z
-x,1/2+y,1/2-z
-x,-y,-z
1/2+x,y,1/2-z
1/2-x,1/2+y,z
x,1/2-y,1/2+z
loop_
_atom_site_type_symbol
_atom_site_label
_atom_site_fract_x
_atom_site_fract_y
_atom_site_fract_z
Si Si1 0.555890 0.180788 0.839020
Si Si2 0.727140 0.637738 0.634041
Si Si3 0.764484 0.110407 0.046056
Si Si4 0.832869 0.038862 0.922768
Si Si5 0.971444 0.500830 0.336866
Si Si6 0.416660 0.494964 0.305053
Si Si7 0.694073 0.216412 0.925329
Si Si8 0.389319 0.816076 0.303646
O O1 0.515164 0.332981 0.845985
O O2 0.615495 0.152140 0.896451
O O3 0.602426 0.169340 0.772466
O O4 0.490153 0.062744 0.844212
O O5 0.709399 0.789922 0.603892
O O6 0.730248 0.531443 0.574840
O O7 0.658233 0.597309 0.680798
O O8 0.804207 0.638151 0.676254
O O9 0.836957 0.071301 0.999475
O O10 0.697451 0.182965 0.001848
O O11 0.768683 0.143168 0.891585
O O12 0.916462 0.062656 0.892139
O O13 0.802894 0.881189 0.910292
O O14 0.929726 0.472777 0.269870
O O15 0.052133 0.419261 0.340770
O O16 0.405111 0.656304 0.325459
#
# Coordination Sequence:
#
# PCOD8248979 Si02
#       8
#     8   8   8   8   8   8   8   8
#     4   9  20  39  59  85 112 144 185 231 285 325
#     4  12  22  37  58  81 113 153 185 223 285 328
#     4  10  20  37  56  79 115 147 190 232 264 331
#     4   9  18  35  59  80 109 145 184 232 271 322
#     4   9  20  39  59  85 111 143 188 230 281 329
#     4  10  22  38  57  84 117 144 183 232 277 341
#     4   9  18  35  59  80 110 144 184 233 269 322
#     4  10  22  38  57  84 118 144 182 234 276 339
#
# _framework density 18.615828
#
# number of rings (size 3 to 8) (size 9 to 14) (size 15 to 20)
#    0.750    1.500    2.500    0.000    3.500    1.000 
#    0.000    2.500    0.000    0.000    0.000    0.000 
#    0.000    0.000    0.000    0.000    0.000    0.000 
#
# Total GULP energy -793393.071991 kJ/mol
# GULP energy per Si atom -12396.766750 kJ/mol
# Density = 1.857346 g / cm^3
# Si number density = 18.615828 Si / 1000 Ang^3
#
#
#
# Elastic Constant Matrix: (Units=GPa)
#
#
# Indices 1 2 3 4 5 6 
#
# 1 84.5617 28.4132 27.6756 0.0000 0.0000 0.0000
# 2 28.4132 62.4854 12.7213 0.0000 0.0000 0.0000
# 3 27.6756 12.7213 42.1058 0.0000 0.0000 0.0000
# 4 0.0000 0.0000 0.0000 27.2364 0.0000 0.0000
# 5 0.0000 0.0000 0.0000 0.0000 20.6008 0.0000
# 6 0.0000 0.0000 0.0000 0.0000 0.0000 29.2347
#
#
#
# Elastic Compliance Matrix: (Units=1/GPa)
#
#
# Indices 1 2 3 4 5 6 
#
# 1 0.016803 -0.005745 -0.009308 0.000000 0.000000 0.000000
# 2 -0.005745 0.019017 -0.001969 0.000000 0.000000 0.000000
# 3 -0.009308 -0.001969 0.030463 0.000000 0.000000 0.000000
# 4 0.000000 0.000000 0.000000 0.036716 0.000000 0.000000
# 5 0.000000 0.000000 0.000000 0.000000 0.048542 0.000000
# 6 0.000000 0.000000 0.000000 0.000000 0.000000 0.034206
#
#
# Mechanical properties :
#
#
# Convention : Reuss Voigt Hill
#
# Bulk Modulus (GPa) = 31.02038 36.30810 33.66424
# Shear Modulus (GPa) = 21.68844 23.43722 22.56283
#
# Velocity S-wave (km/s) = 3.41699 3.55208 3.48519
# Velocity P-wave (km/s) = 5.68044 6.03069 5.85818
#
# Compressibility (1/GPa) = 0.03223687
#
# Stress axis : x y z
#
# Youngs Moduli (GPa) = 59.51459 52.58402 32.82680
#
# Poissons Ratio (x) = 0.30211 0.30556
# Poissons Ratio (y) = 0.34193 0.06464
# Poissons Ratio (z) = 0.55398 0.10355
#
# Static dielectric constant tensor:
#      x y z
#    x 3.256090 0.000000 0.000000 
#    y 0.000000 3.527940 0.000000 
#    z 0.000000 0.000000 3.292480 
# 
# 
# High freq. dielectric constant tensor:
#      x y z
#    x 1.708390 0.000000 0.000000 
#    y 0.000000 1.733070 0.000000 
#    z 0.000000 0.000000 1.712400 
# 
# From -- ./inp_files/11129.got.cif
#   From: 2010.03.12/outbox.cif.g09.slc.cpg/sg61_6_cif.got.tgz:11129.got - 2010.04.10 19:05:03.
