data_PCOD8248774
_publ_section_title
;
Structure prediction by ZEFSAII (Michael W. Deem and Ramdas Pophale) SiO2 
 PCOD8248774
Probable space group: P B C A
;
_chemical_formula_sum "Si O2"
_cell_formula_units_Z 48
_cell_length_a 19.806060
_cell_length_b 5.114785
_cell_length_c 25.574875
_cell_angle_alpha 90.000000
_cell_angle_beta 90.000000
_cell_angle_gamma 90.000000
_cell_volume 2590.830452
_symmetry_space_group_name_H-M "P B C A"
_symmetry_group_IT_number 61
_symmetry_cell_setting 'orthorhombic'
loop_
_space_group_symop_operation_xyz
x,y,z
1/2-x,-y,1/2+z
1/2+x,1/2-y,-z
-x,1/2+y,1/2-z
-x,-y,-z
1/2+x,y,1/2-z
1/2-x,1/2+y,z
x,1/2-y,1/2+z
loop_
_atom_site_type_symbol
_atom_site_label
_atom_site_fract_x
_atom_site_fract_y
_atom_site_fract_z
Si Si1 0.793444 0.396907 0.422746
Si Si2 0.088455 0.749901 0.000814
Si Si3 0.519162 0.248437 0.171622
Si Si4 0.413962 0.955182 0.230147
Si Si5 0.120494 0.946788 0.178820
Si Si6 0.949130 0.742316 0.056863
O O1 0.767696 0.693056 0.428125
O O2 0.845144 0.331025 0.468477
O O3 0.827688 0.374178 0.366365
O O4 0.097553 0.470454 0.972551
O O5 0.075379 0.967403 0.956704
O O6 0.027303 0.716972 0.041258
O O7 0.487300 0.991738 0.200796
O O8 0.572935 0.387871 0.209662
O O9 0.456695 0.441104 0.157211
O O10 0.558124 0.181380 0.118412
O O11 0.368068 0.732644 0.202870
O O12 0.371925 0.225349 0.224317
#
# Coordination Sequence:
#
# PCOD8248774 Si02
#       6
#     8   8   8   8   8   8
#     4  12  24  39  60  79 109 152 195 230 278 333
#     4  10  21  37  48  84 105 146 173 236 273 327
#     4  10  19  31  53  86 111 154 164 216 283 344
#     4  10  19  30  53  79 123 138 172 212 276 332
#     4  10  20  34  50  80 113 143 177 232 264 335
#     4  10  21  31  58  74 121 135 175 222 293 335
#
# _framework density 18.526879000000001
#
# number of rings (size 3 to 8) (size 9 to 14) (size 15 to 20)
#    1.000    0.667    3.333    2.000    2.333    1.333 
#    0.000    0.000    0.000    0.000    0.000   23.333 
#    0.000    0.000    0.000    0.000    0.000    0.000 
#
# Total GULP energy -594934.605730 kJ/mol
# GULP energy per Si atom -12394.470953 kJ/mol
# Density = 1.848471 g / cm^3
# Si number density = 18.526879 Si / 1000 Ang^3
#
#
#
# Elastic Constant Matrix: (Units=GPa)
#
#
# Indices 1 2 3 4 5 6 
#
# 1 41.8508 1.1350 23.0894 0.0000 0.0000 0.0000
# 2 1.1350 93.7406 25.7700 0.0000 0.0000 0.0000
# 3 23.0894 25.7700 124.0232 0.0000 0.0000 0.0000
# 4 0.0000 0.0000 0.0000 19.0587 0.0000 0.0000
# 5 0.0000 0.0000 0.0000 0.0000 28.7804 0.0000
# 6 0.0000 0.0000 0.0000 0.0000 0.0000 26.4436
#
#
#
# Elastic Compliance Matrix: (Units=1/GPa)
#
#
# Indices 1 2 3 4 5 6 
#
# 1 0.026738 0.001108 -0.005208 0.000000 0.000000 0.000000
# 2 0.001108 0.011360 -0.002567 0.000000 0.000000 0.000000
# 3 -0.005208 -0.002567 0.009566 0.000000 0.000000 0.000000
# 4 0.000000 0.000000 0.000000 0.052470 0.000000 0.000000
# 5 0.000000 0.000000 0.000000 0.000000 0.034746 0.000000
# 6 0.000000 0.000000 0.000000 0.000000 0.000000 0.037816
#
#
# Mechanical properties :
#
#
# Convention : Reuss Voigt Hill
#
# Bulk Modulus (GPa) = 29.12896 39.95594 34.54245
# Shear Modulus (GPa) = 25.32007 28.83123 27.07565
#
# Velocity S-wave (km/s) = 3.70086 3.94913 3.82701
# Velocity P-wave (km/s) = 5.83253 6.51210 6.18166
#
# Compressibility (1/GPa) = 0.03433010
#
# Stress axis : x y z
#
# Youngs Moduli (GPa) = 37.40048 88.02877 104.53810
#
# Poissons Ratio (x) = -0.09753 0.54443
# Poissons Ratio (y) = -0.04144 0.26832
# Poissons Ratio (z) = 0.19478 0.22594
#
# Static dielectric constant tensor:
#      x y z
#    x 3.016610 0.000000 0.000000 
#    y 0.000000 3.530290 0.000000 
#    z 0.000000 0.000000 3.209100 
# 
# 
# High freq. dielectric constant tensor:
#      x y z
#    x 1.668840 0.000000 0.000000 
#    y 0.000000 1.733790 0.000000 
#    z 0.000000 0.000000 1.711080 
# 
# From -- ./inp_files/11531.got.cif
#   From: 2010.03.12/outbox.cif.g09.slc.cpg/sg61_6_cif.got.tgz:11531.got - 2010.04.10 19:05:03.
