data_PCOD8248386
_publ_section_title
;
Structure prediction by ZEFSAII (Michael W. Deem and Ramdas Pophale) SiO2 
 PCOD8248386
Probable space group: P B C N
;
_chemical_formula_sum "Si O2"
_cell_formula_units_Z 40
_cell_length_a 9.681759
_cell_length_b 14.685724
_cell_length_c 10.900707
_cell_angle_alpha 90.000000
_cell_angle_beta 90.000000
_cell_angle_gamma 90.000000
_cell_volume 1549.902205
_symmetry_space_group_name_H-M "P B C N"
_symmetry_group_IT_number 60
_symmetry_cell_setting 'orthorhombic'
loop_
_space_group_symop_operation_xyz
x,y,z
1/2-x,1/2-y,1/2+z
1/2+x,1/2-y,-z
-x,y,1/2-z
-x,-y,-z
1/2+x,1/2+y,1/2-z
1/2-x,1/2+y,z
x,-y,1/2+z
loop_
_atom_site_type_symbol
_atom_site_label
_atom_site_fract_x
_atom_site_fract_y
_atom_site_fract_z
Si Si1 0.128046 0.886454 0.335281
Si Si2 0.776537 0.201745 0.243155
Si Si3 0.004493 0.186478 0.059189
Si Si4 0.437242 0.136420 0.075787
Si Si5 0.115963 0.515860 0.845822
O O1 0.203661 0.790482 0.310391
O O2 0.075016 0.892850 0.477488
O O3 0.228683 0.970899 0.296774
O O4 0.000000 0.901548 0.250000
O O5 0.883035 0.231017 0.350223
O O6 0.664650 0.131865 0.304724
O O7 0.867615 0.154340 0.134161
O O8 0.962956 0.259457 0.955107
O O9 0.581916 0.086891 0.110663
O O10 0.374556 0.084549 0.960878
O O11 0.000000 0.550476 0.750000
#
# Coordination Sequence:
#
# PCOD8248386 Si02
#       5
#     8   8   8   8   8
#     4  12  24  42  74 114 155 203 263 333 392 469
#     4  11  22  41  74 115 154 194 263 335 391 470
#     4  11  22  41  73 117 152 191 268 332 391 464
#     4  11  23  43  73 114 150 209 260 317 400 486
#     4  11  25  47  72 106 161 209 260 318 408 486
#
# _framework density 25.808081000000001
#
# number of rings (size 3 to 8) (size 9 to 14) (size 15 to 20)
#    0.000    0.800    6.000    1.200    2.800    0.000 
#    0.000    0.000    4.400   13.200    0.000    0.000 
#    0.000    0.000    0.000    0.000    0.000    0.000 
#
# Total GULP energy -495814.884405 kJ/mol
# GULP energy per Si atom -12395.372110 kJ/mol
# Density = 2.574934 g / cm^3
# Si number density = 25.808081 Si / 1000 Ang^3
#
#
#
# Elastic Constant Matrix: (Units=GPa)
#
#
# Indices 1 2 3 4 5 6 
#
# 1 190.6226 41.2186 72.0054 0.0000 0.0000 0.0000
# 2 41.2186 58.5841 23.1205 0.0000 0.0000 0.0000
# 3 72.0054 23.1205 150.3953 0.0000 0.0000 0.0000
# 4 0.0000 0.0000 0.0000 34.2126 0.0000 0.0000
# 5 0.0000 0.0000 0.0000 0.0000 63.7023 0.0000
# 6 0.0000 0.0000 0.0000 0.0000 0.0000 -194.1818
#
#
#
# Elastic Compliance Matrix: (Units=1/GPa)
#
#
# Indices 1 2 3 4 5 6 
#
# 1 0.007162 -0.003924 -0.002826 0.000000 0.000000 0.000000
# 2 -0.003924 0.020322 -0.001246 0.000000 0.000000 0.000000
# 3 -0.002826 -0.001246 0.008193 0.000000 0.000000 0.000000
# 4 0.000000 0.000000 0.000000 0.029229 0.000000 0.000000
# 5 0.000000 0.000000 0.000000 0.000000 0.015698 0.000000
# 6 0.000000 0.000000 0.000000 0.000000 0.000000 -0.005150
#
#
# Mechanical properties :
#
#
# Convention : Reuss Voigt Hill
#
# Bulk Modulus (GPa) = 50.79459 74.69899 62.74679
# Shear Modulus (GPa) = 51.01713 -1.70289 24.65712
#
# Velocity S-wave (km/s) = 4.45093 -0.81318 3.09431
# Velocity P-wave (km/s) = 6.79255 5.30332 6.09360
#
# Compressibility (1/GPa) = 0.01968714
#
# Stress axis : x y z
#
# Youngs Moduli (GPa) = 139.63046 49.20851 122.04830
#
# Poissons Ratio (x) = 0.19308 0.34487
# Poissons Ratio (y) = 0.54787 0.15201
# Poissons Ratio (z) = 0.39455 0.06129
#
# Static dielectric constant tensor:
#      x y z
#    x 5.224070 0.000000 0.000000 
#    y 0.000000 4.197600 0.000000 
#    z 0.000000 0.000000 5.122670 
# 
# 
# High freq. dielectric constant tensor:
#      x y z
#    x 2.054930 0.000000 0.000000 
#    y 0.000000 1.992460 0.000000 
#    z 0.000000 0.000000 2.059730 
# 
# From -- ./inp_files/9758.got.cif
#   From: 2010.03.12/outbox.cif.g09.slc.cpg/sg60_5_cif.got.tgz:9758.got - 2010.04.10 18:46:24.
