data_PCOD8248759
_publ_section_title
;
Structure prediction by ZEFSAII (Michael W. Deem and Ramdas Pophale) SiO2 
 PCOD8248759
Probable space group: P B C A
;
_chemical_formula_sum "Si O2"
_cell_formula_units_Z 64
_cell_length_a 18.034108
_cell_length_b 22.066365
_cell_length_c 8.681188
_cell_angle_alpha 90.000000
_cell_angle_beta 90.000000
_cell_angle_gamma 90.000000
_cell_volume 3454.654540
_symmetry_space_group_name_H-M "P B C A"
_symmetry_group_IT_number 61
_symmetry_cell_setting 'orthorhombic'
loop_
_space_group_symop_operation_xyz
x,y,z
1/2-x,-y,1/2+z
1/2+x,1/2-y,-z
-x,1/2+y,1/2-z
-x,-y,-z
1/2+x,y,1/2-z
1/2-x,1/2+y,z
x,1/2-y,1/2+z
loop_
_atom_site_type_symbol
_atom_site_label
_atom_site_fract_x
_atom_site_fract_y
_atom_site_fract_z
Si Si1 0.395089 0.360070 0.246739
Si Si2 0.988855 0.294572 0.475798
Si Si3 0.646328 0.729063 0.198918
Si Si4 0.218777 0.151435 0.365243
Si Si5 0.581744 0.625478 0.401097
Si Si6 0.220306 0.938231 0.080617
Si Si7 0.301370 0.046328 0.244478
Si Si8 0.946485 0.682953 0.213426
O O1 0.347770 0.297779 0.242443
O O2 0.422941 0.376269 0.415710
O O3 0.465979 0.351466 0.132881
O O4 0.344690 0.415589 0.191576
O O5 0.915404 0.273774 0.566158
O O6 0.019179 0.242657 0.364363
O O7 0.051718 0.311945 0.600452
O O8 0.726203 0.708997 0.134640
O O9 0.624045 0.685313 0.340207
O O10 0.226608 0.118077 0.531260
O O11 0.242578 0.102511 0.233027
O O12 0.136578 0.174543 0.341190
O O13 0.622257 0.565189 0.338781
O O14 0.497222 0.625935 0.337780
O O15 0.183184 0.966662 0.925830
O O16 0.269718 0.986979 0.166496
#
# Coordination Sequence:
#
# PCOD8248759 Si02
#       8
#     8   8   8   8   8   8   8   8
#     4  12  18  32  61  90 106 156 205 231 281 359
#     4  11  19  33  57  81 119 162 189 219 286 374
#     4  10  18  36  54  89 114 149 203 237 281 361
#     4   9  22  36  58  87 120 147 189 259 307 328
#     4  10  19  32  61  78 116 154 197 232 290 364
#     4  10  20  36  63  81 117 143 210 251 294 333
#     4   9  20  40  58  88 105 156 202 253 292 340
#     4  11  20  37  53  85 124 155 182 242 301 360
#
# _framework density 18.525732000000001
#
# number of rings (size 3 to 8) (size 9 to 14) (size 15 to 20)
#    0.750    1.000    5.000    1.500    0.000    1.000 
#    2.250    0.625    5.500    1.500    0.000    0.000 
#    0.000    0.000    0.000    0.000    0.000    0.000 
#
# Total GULP energy -793118.040779 kJ/mol
# GULP energy per Si atom -12392.469387 kJ/mol
# Density = 1.848357 g / cm^3
# Si number density = 18.525732 Si / 1000 Ang^3
#
#
#
# Elastic Constant Matrix: (Units=GPa)
#
#
# Indices 1 2 3 4 5 6 
#
# 1 79.3735 1.4231 2.2756 0.0000 0.0000 0.0000
# 2 1.4231 27.5682 3.6107 0.0000 0.0000 0.0000
# 3 2.2756 3.6107 99.1805 0.0000 0.0000 0.0000
# 4 0.0000 0.0000 0.0000 31.7523 0.0000 0.0000
# 5 0.0000 0.0000 0.0000 0.0000 14.7108 0.0000
# 6 0.0000 0.0000 0.0000 0.0000 0.0000 15.6244
#
#
#
# Elastic Compliance Matrix: (Units=1/GPa)
#
#
# Indices 1 2 3 4 5 6 
#
# 1 0.012617 -0.000616 -0.000267 0.000000 0.000000 0.000000
# 2 -0.000616 0.036478 -0.001314 0.000000 0.000000 0.000000
# 3 -0.000267 -0.001314 0.010137 0.000000 0.000000 0.000000
# 4 0.000000 0.000000 0.000000 0.031494 0.000000 0.000000
# 5 0.000000 0.000000 0.000000 0.000000 0.067977 0.000000
# 6 0.000000 0.000000 0.000000 0.000000 0.000000 0.064002
#
#
# Mechanical properties :
#
#
# Convention : Reuss Voigt Hill
#
# Bulk Modulus (GPa) = 18.23584 24.52678 21.38131
# Shear Modulus (GPa) = 20.37670 25.67170 23.02420
#
# Velocity S-wave (km/s) = 3.32009 3.72658 3.52919
# Velocity P-wave (km/s) = 4.95603 5.63778 5.30786
#
# Compressibility (1/GPa) = 0.05483707
#
# Stress axis : x y z
#
# Youngs Moduli (GPa) = 79.25585 27.41407 98.65259
#
# Poissons Ratio (x) = 0.01690 0.02635
# Poissons Ratio (y) = 0.04885 0.12961
# Poissons Ratio (z) = 0.02117 0.03602
#
# Static dielectric constant tensor:
#      x y z
#    x 3.263070 0.000000 0.000000 
#    y 0.000000 3.203250 0.000000 
#    z 0.000000 0.000000 3.578630 
# 
# 
# High freq. dielectric constant tensor:
#      x y z
#    x 1.692820 0.000000 0.000000 
#    y 0.000000 1.692540 0.000000 
#    z 0.000000 0.000000 1.733320 
# 
# From -- ./inp_files/3754.got.cif
#   From: 2010.03.12/outbox.cif.g09.slc.cpg/sg61_2_cif.got.tgz:3754.got - 2010.04.10 19:05:03.
