data_PCOD8248746
_publ_section_title
;
Structure prediction by ZEFSAII (Michael W. Deem and Ramdas Pophale) SiO2 
 PCOD8248746
Probable space group: P B C A
;
_chemical_formula_sum "Si O2"
_cell_formula_units_Z 56
_cell_length_a 16.832853
_cell_length_b 33.249435
_cell_length_c 4.903047
_cell_angle_alpha 90.000000
_cell_angle_beta 90.000000
_cell_angle_gamma 90.000000
_cell_volume 2744.151327
_symmetry_space_group_name_H-M "P B C A"
_symmetry_group_IT_number 61
_symmetry_cell_setting 'orthorhombic'
loop_
_space_group_symop_operation_xyz
x,y,z
1/2-x,-y,1/2+z
1/2+x,1/2-y,-z
-x,1/2+y,1/2-z
-x,-y,-z
1/2+x,y,1/2-z
1/2-x,1/2+y,z
x,1/2-y,1/2+z
loop_
_atom_site_type_symbol
_atom_site_label
_atom_site_fract_x
_atom_site_fract_y
_atom_site_fract_z
Si Si1 0.179531 0.462116 0.392943
Si Si2 0.061519 0.653615 0.838304
Si Si3 0.951944 0.722992 0.036709
Si Si4 0.337759 0.654716 0.404469
Si Si5 0.661453 0.864745 0.648161
Si Si6 0.785790 0.451188 0.605064
Si Si7 0.591467 0.386031 0.109486
O O1 0.157915 0.509361 0.434926
O O2 0.251123 0.448262 0.590050
O O3 0.102620 0.433828 0.443921
O O4 0.209410 0.455855 0.086450
O O5 0.117815 0.662403 0.579273
O O6 0.994243 0.622603 0.737339
O O7 0.025518 0.694792 0.954816
O O8 0.112894 0.633367 0.073489
O O9 0.955819 0.737628 0.348119
O O10 0.868731 0.698939 0.008368
O O11 0.247732 0.655023 0.296882
O O12 0.340940 0.627079 0.673723
O O13 0.397664 0.638276 0.172056
O O14 0.665916 0.910697 0.541074
#
# Coordination Sequence:
#
# PCOD8248746 Si02
#       7
#     8   8   8   8   8   8   8
#     4  10  18  34  56  87 116 163 212 253 299 346
#     4  11  25  37  62  88 126 161 196 241 318 379
#     4  11  23  45  65  87 115 154 196 240 293 372
#     4  11  22  37  67  88 115 152 208 253 295 350
#     4  12  21  40  57  96 124 157 200 257 306 360
#     4  10  20  32  57  87 121 158 204 263 303 338
#     4  11  19  39  58  89 116 167 211 247 286 369
#
# _framework density 20.407036000000002
#
# number of rings (size 3 to 8) (size 9 to 14) (size 15 to 20)
#    0.000    1.143    2.857    6.000    0.000    0.000 
#    0.000    5.714    0.000    0.000    0.000    0.000 
#    0.000    0.000    0.000    0.000    0.000    0.000 
#
# Total GULP energy -694397.519680 kJ/mol
# GULP energy per Si atom -12399.955709 kJ/mol
# Density = 2.036059 g / cm^3
# Si number density = 20.407036 Si / 1000 Ang^3
#
#
#
# Elastic Constant Matrix: (Units=GPa)
#
#
# Indices 1 2 3 4 5 6 
#
# 1 93.3540 36.8410 19.4942 0.0000 0.0000 0.0000
# 2 36.8410 84.4352 12.6845 0.0000 0.0000 0.0000
# 3 19.4942 12.6845 91.0508 0.0000 0.0000 0.0000
# 4 0.0000 0.0000 0.0000 31.6078 0.0000 0.0000
# 5 0.0000 0.0000 0.0000 0.0000 30.2956 0.0000
# 6 0.0000 0.0000 0.0000 0.0000 0.0000 16.0789
#
#
#
# Elastic Compliance Matrix: (Units=1/GPa)
#
#
# Indices 1 2 3 4 5 6 
#
# 1 0.013317 -0.005497 -0.002085 0.000000 0.000000 0.000000
# 2 -0.005497 0.014366 -0.000824 0.000000 0.000000 0.000000
# 3 -0.002085 -0.000824 0.011544 0.000000 0.000000 0.000000
# 4 0.000000 0.000000 0.000000 0.031638 0.000000 0.000000
# 5 0.000000 0.000000 0.000000 0.000000 0.033008 0.000000
# 6 0.000000 0.000000 0.000000 0.000000 0.000000 0.062193
#
#
# Mechanical properties :
#
#
# Convention : Reuss Voigt Hill
#
# Bulk Modulus (GPa) = 44.61691 45.20885 44.91288
# Shear Modulus (GPa) = 26.26729 28.91779 27.59254
#
# Velocity S-wave (km/s) = 3.59161 3.76846 3.68109
# Velocity P-wave (km/s) = 6.25384 6.41379 6.33432
#
# Compressibility (1/GPa) = 0.02241303
#
# Stress axis : x y z
#
# Youngs Moduli (GPa) = 75.09344 69.60992 86.62359
#
# Poissons Ratio (x) = 0.38265 0.18064
# Poissons Ratio (y) = 0.41280 0.07141
# Poissons Ratio (z) = 0.15659 0.05739
#
# Static dielectric constant tensor:
#      x y z
#    x 3.425590 0.000000 0.000000 
#    y 0.000000 3.773170 0.000000 
#    z 0.000000 0.000000 3.875700 
# 
# 
# High freq. dielectric constant tensor:
#      x y z
#    x 1.766550 0.000000 0.000000 
#    y 0.000000 1.794130 0.000000 
#    z 0.000000 0.000000 1.821600 
# 
# From -- ./inp_files/618.got.cif
#   From: 2010.03.12/outbox.cif.g09.slc.cpg/sg61_1_cif.got.tgz:618.got - 2010.04.10 19:05:03.
