data_PCOD8248499
_publ_section_title
;
Structure prediction by ZEFSAII (Michael W. Deem and Ramdas Pophale) SiO2 
 PCOD8248499
Probable space group: P B C N
;
_chemical_formula_sum "Si O2"
_cell_formula_units_Z 40
_cell_length_a 6.518719
_cell_length_b 10.384058
_cell_length_c 25.969751
_cell_angle_alpha 90.000000
_cell_angle_beta 90.000000
_cell_angle_gamma 90.000000
_cell_volume 1757.912083
_symmetry_space_group_name_H-M "P B C N"
_symmetry_group_IT_number 60
_symmetry_cell_setting 'orthorhombic'
loop_
_space_group_symop_operation_xyz
x,y,z
1/2-x,1/2-y,1/2+z
1/2+x,1/2-y,-z
-x,y,1/2-z
-x,-y,-z
1/2+x,1/2+y,1/2-z
1/2-x,1/2+y,z
x,-y,1/2+z
loop_
_atom_site_type_symbol
_atom_site_label
_atom_site_fract_x
_atom_site_fract_y
_atom_site_fract_z
Si Si1 0.299362 0.073694 0.519663
Si Si2 0.841609 0.706169 0.877480
Si Si3 0.556727 0.240547 0.191547
Si Si4 0.549874 0.577795 0.074366
Si Si5 0.685519 0.033408 0.654571
O O1 0.322962 0.187756 0.560707
O O2 0.190861 0.139664 0.470312
O O3 0.500000 0.000000 0.500000
O O4 0.156971 0.970660 0.548365
O O5 0.634869 0.734739 0.846539
O O6 0.994557 0.828208 0.877701
O O7 0.951873 0.581052 0.853671
O O8 0.500000 0.217489 0.250000
O O9 0.704065 0.365185 0.192247
O O10 0.675889 0.111351 0.175611
O O11 0.685013 0.464712 0.101140
#
# Coordination Sequence:
#
# PCOD8248499 Si02
#       5
#     8   8   8   8   8
#     4  11  24  41  68 108 158 206 249 305 374 459
#     4  12  26  45  75 107 154 197 260 315 384 463
#     4  12  31  50  80 110 148 200 262 330 397 462
#     4  11  25  42  70 110 149 201 250 302 377 459
#     4  12  26  52  75 110 152 198 252 324 390 458
#
# _framework density 22.754265
#
# number of rings (size 3 to 8) (size 9 to 14) (size 15 to 20)
#    0.000    0.400    6.000    1.200    5.600    0.000 
#    0.000    0.000    0.000    0.000    0.000    0.000 
#    0.000    0.000    0.000    0.000    0.000    0.000 
#
# Total GULP energy -495749.277680 kJ/mol
# GULP energy per Si atom -12393.731942 kJ/mol
# Density = 2.270248 g / cm^3
# Si number density = 22.754265 Si / 1000 Ang^3
#
#
#
# Elastic Constant Matrix: (Units=GPa)
#
#
# Indices 1 2 3 4 5 6 
#
# 1 126.9458 65.2726 55.3667 0.0000 0.0000 0.0000
# 2 65.2726 112.0585 39.0303 0.0000 0.0000 0.0000
# 3 55.3667 39.0303 110.3541 0.0000 0.0000 0.0000
# 4 0.0000 0.0000 0.0000 27.8393 0.0000 0.0000
# 5 0.0000 0.0000 0.0000 0.0000 34.5790 0.0000
# 6 0.0000 0.0000 0.0000 0.0000 0.0000 40.4400
#
#
#
# Elastic Compliance Matrix: (Units=1/GPa)
#
#
# Indices 1 2 3 4 5 6 
#
# 1 0.012834 -0.005968 -0.004328 0.000000 0.000000 0.000000
# 2 -0.005968 0.012953 -0.001587 0.000000 0.000000 0.000000
# 3 -0.004328 -0.001587 0.011795 0.000000 0.000000 0.000000
# 4 0.000000 0.000000 0.000000 0.035920 0.000000 0.000000
# 5 0.000000 0.000000 0.000000 0.000000 0.028919 0.000000
# 6 0.000000 0.000000 0.000000 0.000000 0.000000 0.024728
#
#
# Mechanical properties :
#
#
# Convention : Reuss Voigt Hill
#
# Bulk Modulus (GPa) = 72.38518 74.29973 73.34245
# Shear Modulus (GPa) = 32.15023 33.21757 32.68390
#
# Velocity S-wave (km/s) = 3.76298 3.82493 3.79408
# Velocity P-wave (km/s) = 7.12466 7.22709 7.17605
#
# Compressibility (1/GPa) = 0.01381498
#
# Stress axis : x y z
#
# Youngs Moduli (GPa) = 77.92034 77.20275 84.78507
#
# Poissons Ratio (x) = 0.46074 0.36696
# Poissons Ratio (y) = 0.46502 0.13455
# Poissons Ratio (z) = 0.33725 0.12252
#
# Static dielectric constant tensor:
#      x y z
#    x 4.364460 0.000000 0.000000 
#    y 0.000000 4.080920 0.000000 
#    z 0.000000 0.000000 4.132420 
# 
# 
# High freq. dielectric constant tensor:
#      x y z
#    x 1.915740 0.000000 0.000000 
#    y 0.000000 1.898560 0.000000 
#    z 0.000000 0.000000 1.892950 
# 
# From -- ./inp_files/24760.got.cif
#   From: 2010.03.12/outbox.cif.g09.slc.cpg/sg60_13_cif.got.tgz:24760.got - 2010.04.10 18:46:24.
