data_PCOD8248834
_publ_section_title
;
Structure prediction by ZEFSAII (Michael W. Deem and Ramdas Pophale) SiO2 
 PCOD8248834
Probable space group: P B C A
;
_chemical_formula_sum "Si O2"
_cell_formula_units_Z 64
_cell_length_a 23.680410
_cell_length_b 14.218464
_cell_length_c 9.030500
_cell_angle_alpha 90.000000
_cell_angle_beta 90.000000
_cell_angle_gamma 90.000000
_cell_volume 3040.560835
_symmetry_space_group_name_H-M "P B C A"
_symmetry_group_IT_number 61
_symmetry_cell_setting 'orthorhombic'
loop_
_space_group_symop_operation_xyz
x,y,z
1/2-x,-y,1/2+z
1/2+x,1/2-y,-z
-x,1/2+y,1/2-z
-x,-y,-z
1/2+x,y,1/2-z
1/2-x,1/2+y,z
x,1/2-y,1/2+z
loop_
_atom_site_type_symbol
_atom_site_label
_atom_site_fract_x
_atom_site_fract_y
_atom_site_fract_z
Si Si1 0.960771 0.626044 0.852633
Si Si2 0.173708 0.336360 0.760910
Si Si3 0.950295 0.799410 0.670219
Si Si4 0.585104 0.865218 0.121265
Si Si5 0.136640 0.000253 0.729563
Si Si6 0.809743 0.479360 0.073055
Si Si7 0.798981 0.858041 0.079928
Si Si8 0.575118 0.677070 0.285745
O O1 0.948464 0.688490 0.707458
O O2 0.917826 0.540010 0.859080
O O3 0.024371 0.585305 0.851848
O O4 0.951127 0.693856 0.993151
O O5 0.105973 0.349096 0.768400
O O6 0.204212 0.420300 0.851580
O O7 0.192048 0.337729 0.591588
O O8 0.194518 0.238023 0.829320
O O9 0.008012 0.842355 0.741306
O O10 0.632890 0.942416 0.149110
O O11 0.593583 0.778857 0.231546
O O12 0.590258 0.823925 0.957700
O O13 0.155427 0.065802 0.863869
O O14 0.185416 0.990985 0.605180
O O15 0.114552 0.900920 0.795230
O O16 0.762091 0.402827 0.108173
#
# Coordination Sequence:
#
# PCOD8248834 Si02
#       8
#     8   8   8   8   8   8   8   8
#     4  10  19  35  63  90 127 156 207 260 313 375
#     4  12  24  43  66  92 124 164 210 261 306 372
#     4  10  19  36  62  93 121 162 201 254 315 371
#     4   9  21  38  61  92 122 166 205 258 320 366
#     4  11  22  41  63  94 126 166 210 257 317 369
#     4  11  25  43  66  90 123 166 217 253 309 375
#     4  12  27  43  63  94 125 169 209 261 309 363
#     4   9  21  37  64  90 129 160 202 257 319 378
#
# _framework density 21.048749999999998
#
# number of rings (size 3 to 8) (size 9 to 14) (size 15 to 20)
#    0.000    1.500    2.500    2.250    1.750    5.500 
#    0.000    0.625    0.000    0.000    0.000    0.000 
#    0.000    0.000    0.000    0.000    0.000    0.000 
#
# Total GULP energy -793602.724816 kJ/mol
# GULP energy per Si atom -12400.042575 kJ/mol
# Density = 2.100084 g / cm^3
# Si number density = 21.048750 Si / 1000 Ang^3
#
#
#
# Elastic Constant Matrix: (Units=GPa)
#
#
# Indices 1 2 3 4 5 6 
#
# 1 94.2298 36.5775 28.4413 0.0000 0.0000 0.0000
# 2 36.5775 83.5959 26.3206 0.0000 0.0000 0.0000
# 3 28.4413 26.3206 58.4235 0.0000 0.0000 0.0000
# 4 0.0000 0.0000 0.0000 30.4445 0.0000 0.0000
# 5 0.0000 0.0000 0.0000 0.0000 23.5670 0.0000
# 6 0.0000 0.0000 0.0000 0.0000 0.0000 37.4396
#
#
#
# Elastic Compliance Matrix: (Units=1/GPa)
#
#
# Indices 1 2 3 4 5 6 
#
# 1 0.013791 -0.004568 -0.004655 0.000000 0.000000 0.000000
# 2 -0.004568 0.015453 -0.004738 0.000000 0.000000 0.000000
# 3 -0.004655 -0.004738 0.021517 0.000000 0.000000 0.000000
# 4 0.000000 0.000000 0.000000 0.032847 0.000000 0.000000
# 5 0.000000 0.000000 0.000000 0.000000 0.042432 0.000000
# 6 0.000000 0.000000 0.000000 0.000000 0.000000 0.026710
#
#
# Mechanical properties :
#
#
# Convention : Reuss Voigt Hill
#
# Bulk Modulus (GPa) = 43.78732 46.54756 45.16744
# Shear Modulus (GPa) = 26.55545 27.95088 27.25316
#
# Velocity S-wave (km/s) = 3.55578 3.64801 3.60219
# Velocity P-wave (km/s) = 6.14052 6.31713 6.22945
#
# Compressibility (1/GPa) = 0.02283766
#
# Stress axis : x y z
#
# Youngs Moduli (GPa) = 72.51198 64.71253 46.47452
#
# Poissons Ratio (x) = 0.29563 0.21636
# Poissons Ratio (y) = 0.33126 0.22019
# Poissons Ratio (z) = 0.33757 0.30660
#
# Static dielectric constant tensor:
#      x y z
#    x 4.007660 0.000000 0.000000 
#    y 0.000000 3.810950 0.000000 
#    z 0.000000 0.000000 3.666470 
# 
# 
# High freq. dielectric constant tensor:
#      x y z
#    x 1.830390 0.000000 0.000000 
#    y 0.000000 1.826060 0.000000 
#    z 0.000000 0.000000 1.812660 
# 
# From -- ./inp_files/4322.got.cif
#   From: 2010.03.12/outbox.cif.g09.slc.cpg/sg61_3_cif.got.tgz:4322.got - 2010.04.10 19:05:03.
