data_PCOD8248293
_publ_section_title
;
Structure prediction by ZEFSAII (Michael W. Deem and Ramdas Pophale) SiO2 
 PCOD8248293
Probable space group: P B C N
;
_chemical_formula_sum "Si O2"
_cell_formula_units_Z 40
_cell_length_a 16.290630
_cell_length_b 7.804240
_cell_length_c 13.349638
_cell_angle_alpha 90.000000
_cell_angle_beta 90.000000
_cell_angle_gamma 90.000000
_cell_volume 1697.219393
_symmetry_space_group_name_H-M "P B C N"
_symmetry_group_IT_number 60
_symmetry_cell_setting 'orthorhombic'
loop_
_space_group_symop_operation_xyz
x,y,z
1/2-x,1/2-y,1/2+z
1/2+x,1/2-y,-z
-x,y,1/2-z
-x,-y,-z
1/2+x,1/2+y,1/2-z
1/2-x,1/2+y,z
x,-y,1/2+z
loop_
_atom_site_type_symbol
_atom_site_label
_atom_site_fract_x
_atom_site_fract_y
_atom_site_fract_z
Si Si1 0.993184 0.694261 0.864453
Si Si2 0.826253 0.230475 0.656620
Si Si3 0.670939 0.920922 0.073039
Si Si4 0.490667 0.432830 0.367375
Si Si5 0.885390 0.640362 0.372581
O O1 0.078486 0.618211 0.897951
O O2 0.000000 0.745169 0.750000
O O3 0.922308 0.552643 0.876731
O O4 0.979220 0.884421 0.916887
O O5 0.822839 0.375680 0.573065
O O6 0.735886 0.147696 0.654921
O O7 0.893017 0.094511 0.616451
O O8 0.846400 0.309957 0.766133
O O9 0.685168 0.854917 0.958599
O O10 0.500000 0.431361 0.250000
O O11 0.543774 0.272847 0.407770
#
# Coordination Sequence:
#
# PCOD8248293 Si02
#       5
#     8   8   8   8   8
#     4  11  20  42  73 102 133 188 237 291 355 430
#     4  11  24  46  65 102 151 179 237 311 359 429
#     4  12  25  42  69 103 140 189 239 291 372 425
#     4   9  20  40  72 100 132 181 237 283 354 427
#     4  11  23  46  70  98 140 190 235 299 352 434
#
# _framework density 23.567962000000001
#
# number of rings (size 3 to 8) (size 9 to 14) (size 15 to 20)
#    0.000    1.200    4.000    2.400    0.000    2.400 
#    3.600    0.000    0.000    0.000    0.000    0.000 
#    0.000    0.000    0.000    0.000    0.000    0.000 
#
# Total GULP energy -495569.929184 kJ/mol
# GULP energy per Si atom -12389.248230 kJ/mol
# Density = 2.351432 g / cm^3
# Si number density = 23.567962 Si / 1000 Ang^3
#
#
#
# Elastic Constant Matrix: (Units=GPa)
#
#
# Indices 1 2 3 4 5 6 
#
# 1 103.2890 38.5937 47.5267 0.0000 0.0000 0.0000
# 2 38.5937 156.8578 25.7538 0.0000 0.0000 0.0000
# 3 47.5267 25.7538 77.4627 0.0000 0.0000 0.0000
# 4 0.0000 0.0000 0.0000 19.7729 0.0000 0.0000
# 5 0.0000 0.0000 0.0000 0.0000 26.5455 0.0000
# 6 0.0000 0.0000 0.0000 0.0000 0.0000 12.3699
#
#
#
# Elastic Compliance Matrix: (Units=1/GPa)
#
#
# Indices 1 2 3 4 5 6 
#
# 1 0.014159 -0.002176 -0.007964 0.000000 0.000000 0.000000
# 2 -0.002176 0.007078 -0.001018 0.000000 0.000000 0.000000
# 3 -0.007964 -0.001018 0.018134 0.000000 0.000000 0.000000
# 4 0.000000 0.000000 0.000000 0.050574 0.000000 0.000000
# 5 0.000000 0.000000 0.000000 0.000000 0.037671 0.000000
# 6 0.000000 0.000000 0.000000 0.000000 0.000000 0.080841
#
#
# Mechanical properties :
#
#
# Convention : Reuss Voigt Hill
#
# Bulk Modulus (GPa) = 58.63339 62.37310 60.50325
# Shear Modulus (GPa) = 21.14540 26.78670 23.96605
#
# Velocity S-wave (km/s) = 2.99860 3.37497 3.19233
# Velocity P-wave (km/s) = 6.07628 6.45832 6.27021
#
# Compressibility (1/GPa) = 0.01705513
#
# Stress axis : x y z
#
# Youngs Moduli (GPa) = 70.62612 141.28746 55.14530
#
# Poissons Ratio (x) = 0.30747 0.43916
# Poissons Ratio (y) = 0.15370 0.05613
# Poissons Ratio (z) = 0.56244 0.14382
#
# Static dielectric constant tensor:
#      x y z
#    x 4.556180 0.000000 0.000000 
#    y 0.000000 4.910470 0.000000 
#    z 0.000000 0.000000 3.624810 
# 
# 
# High freq. dielectric constant tensor:
#      x y z
#    x 1.908380 0.000000 0.000000 
#    y 0.000000 1.953380 0.000000 
#    z 0.000000 0.000000 1.944780 
# 
# From -- ./inp_files/16617.got.cif
#   From: 2010.03.12/outbox.cif.g09.slc.cpg/sg60_9_cif.got.tgz:16617.got - 2010.04.10 18:46:24.
