data_PCOD8248610
_publ_section_title
;
Structure prediction by ZEFSAII (Michael W. Deem and Ramdas Pophale) SiO2 
 PCOD8248610
Probable space group: P B C N
;
_chemical_formula_sum "Si O2"
_cell_formula_units_Z 40
_cell_length_a 12.394905
_cell_length_b 17.222710
_cell_length_c 8.589709
_cell_angle_alpha 90.000000
_cell_angle_beta 90.000000
_cell_angle_gamma 90.000000
_cell_volume 1833.678287
_symmetry_space_group_name_H-M "P B C N"
_symmetry_group_IT_number 60
_symmetry_cell_setting 'orthorhombic'
loop_
_space_group_symop_operation_xyz
x,y,z
1/2-x,1/2-y,1/2+z
1/2+x,1/2-y,-z
-x,y,1/2-z
-x,-y,-z
1/2+x,1/2+y,1/2-z
1/2-x,1/2+y,z
x,-y,1/2+z
loop_
_atom_site_type_symbol
_atom_site_label
_atom_site_fract_x
_atom_site_fract_y
_atom_site_fract_z
Si Si1 0.277773 0.178273 0.987512
Si Si2 0.420015 0.034602 0.874677
Si Si3 0.386531 0.705092 0.703732
Si Si4 0.104854 0.049398 0.534963
Si Si5 0.267390 0.435672 0.737211
O O1 0.351365 0.107531 0.930781
O O2 0.193209 0.202569 0.853418
O O3 0.340092 0.254369 0.048142
O O4 0.228621 0.146799 0.149394
O O5 0.500000 0.071415 0.750000
O O6 0.347378 0.963815 0.806502
O O7 0.500000 0.000000 0.000000
O O8 0.500000 0.746424 0.750000
O O9 0.419660 0.618878 0.652061
O O10 0.145561 0.078683 0.369642
O O11 0.199487 0.999686 0.611348
O O12 0.000000 0.000000 0.500000
#
# Coordination Sequence:
#
# PCOD8248610 Si02
#       5
#     8   8   8   8   8
#     4  12  27  48  74 106 148 189 243 303 368 441
#     4  12  24  42  73 108 140 183 240 302 360 424
#     4  12  28  49  70 107 150 195 240 303 372 436
#     4  12  23  43  74 104 144 188 239 292 355 436
#     4  12  22  43  71 105 138 181 241 296 353 426
#
# _framework density 21.814077999999999
#
# number of rings (size 3 to 8) (size 9 to 14) (size 15 to 20)
#    0.000    0.000    6.000    4.200    2.800    1.600 
#    0.000    4.000    0.000    0.000    0.000    0.000 
#    0.000    0.000    0.000    0.000    0.000    0.000 
#
# Total GULP energy -495773.190057 kJ/mol
# GULP energy per Si atom -12394.329751 kJ/mol
# Density = 2.176443 g / cm^3
# Si number density = 21.814078 Si / 1000 Ang^3
#
#
#
# Elastic Constant Matrix: (Units=GPa)
#
#
# Indices 1 2 3 4 5 6 
#
# 1 136.3459 40.2598 74.1789 0.0000 0.0000 0.0000
# 2 40.2598 81.6318 29.7172 0.0000 0.0000 0.0000
# 3 74.1789 29.7172 125.6171 0.0000 0.0000 0.0000
# 4 0.0000 0.0000 0.0000 54.7062 0.0000 0.0000
# 5 0.0000 0.0000 0.0000 0.0000 48.0758 0.0000
# 6 0.0000 0.0000 0.0000 0.0000 0.0000 29.6206
#
#
#
# Elastic Compliance Matrix: (Units=1/GPa)
#
#
# Indices 1 2 3 4 5 6 
#
# 1 0.011678 -0.003555 -0.006055 0.000000 0.000000 0.000000
# 2 -0.003555 0.014487 -0.001328 0.000000 0.000000 0.000000
# 3 -0.006055 -0.001328 0.011851 0.000000 0.000000 0.000000
# 4 0.000000 0.000000 0.000000 0.018279 0.000000 0.000000
# 5 0.000000 0.000000 0.000000 0.000000 0.020800 0.000000
# 6 0.000000 0.000000 0.000000 0.000000 0.000000 0.033760
#
#
# Mechanical properties :
#
#
# Convention : Reuss Voigt Hill
#
# Bulk Modulus (GPa) = 61.96029 70.21186 66.08607
# Shear Modulus (GPa) = 36.20240 39.77643 37.98941
#
# Velocity S-wave (km/s) = 4.07822 4.27480 4.17767
# Velocity P-wave (km/s) = 7.11627 7.52473 7.32335
#
# Compressibility (1/GPa) = 0.01613937
#
# Stress axis : x y z
#
# Youngs Moduli (GPa) = 85.62785 69.02782 84.38460
#
# Poissons Ratio (x) = 0.24542 0.51097
# Poissons Ratio (y) = 0.30444 0.11204
# Poissons Ratio (z) = 0.51850 0.09165
#
# Static dielectric constant tensor:
#      x y z
#    x 4.172140 0.000000 0.000000 
#    y 0.000000 4.115430 0.000000 
#    z 0.000000 0.000000 5.560100 
# 
# 
# High freq. dielectric constant tensor:
#      x y z
#    x 1.866390 0.000000 0.000000 
#    y 0.000000 1.846820 0.000000 
#    z 0.000000 0.000000 1.888300 
# 
# From -- ./inp_files/4720.got.cif
#   From: 2010.03.12/outbox.cif.g09.slc.cpg/sg60_3_cif.got.tgz:4720.got - 2010.04.10 18:46:24.
