data_PCOD8248132
_publ_section_title
;
Structure prediction by ZEFSAII (Michael W. Deem and Ramdas Pophale) SiO2 
 PCOD8248132
Probable space group: P B C N
;
_chemical_formula_sum "Si O2"
_cell_formula_units_Z 48
_cell_length_a 8.536410
_cell_length_b 27.619367
_cell_length_c 9.333885
_cell_angle_alpha 90.000000
_cell_angle_beta 90.000000
_cell_angle_gamma 90.000000
_cell_volume 2200.652313
_symmetry_space_group_name_H-M "P B C N"
_symmetry_group_IT_number 60
_symmetry_cell_setting 'orthorhombic'
loop_
_space_group_symop_operation_xyz
x,y,z
1/2-x,1/2-y,1/2+z
1/2+x,1/2-y,-z
-x,y,1/2-z
-x,-y,-z
1/2+x,1/2+y,1/2-z
1/2-x,1/2+y,z
x,-y,1/2+z
loop_
_atom_site_type_symbol
_atom_site_label
_atom_site_fract_x
_atom_site_fract_y
_atom_site_fract_z
Si Si1 0.000000 0.854226 0.750000
Si Si2 0.235736 0.785227 0.896668
Si Si3 0.740560 0.910367 0.913739
Si Si4 0.000000 0.655004 0.250000
Si Si5 0.814103 0.908966 0.244946
Si Si6 0.882409 0.510412 0.870908
Si Si7 0.818075 0.200632 0.785233
O O1 0.905068 0.820420 0.643538
O O2 0.899653 0.887709 0.854779
O O3 0.395423 0.810268 0.847208
O O4 0.220161 0.731712 0.829669
O O5 0.227108 0.775636 0.064449
O O6 0.595164 0.877515 0.863428
O O7 0.721414 0.962942 0.841506
O O8 0.748975 0.917976 0.084631
O O9 0.737195 0.943760 0.367640
O O10 0.764190 0.854791 0.285607
O O11 0.000000 0.917135 0.250000
O O12 0.000000 0.524295 0.750000
O O13 0.000000 0.500000 0.000000
O O14 0.000000 0.204767 0.750000
#
# Coordination Sequence:
#
# PCOD8248132 Si02
#       7
#     4   8   8   4   8   8   8
#     4  10  24  42  70 108 140 190 232 296 358 432
#     4  11  25  44  73 103 146 186 244 294 359 427
#     4  11  24  46  72 102 144 185 240 294 362 429
#     4  10  24  44  74 106 138 190 240 296 362 418
#     4  11  27  47  72 103 146 189 242 298 360 429
#     4  12  26  46  72 106 141 185 242 296 362 433
#     4  11  26  45  71 104 148 187 242 293 357 429
#
# _framework density 21.811713999999998
#
# number of rings (size 3 to 8) (size 9 to 14) (size 15 to 20)
#    0.000    1.000    3.333    2.000   10.500    2.000 
#    1.500    0.000    0.000    0.000    0.000    0.000 
#    0.000    0.000    0.000    0.000    0.000    0.000 
#
# Total GULP energy -595086.301480 kJ/mol
# GULP energy per Si atom -12397.631281 kJ/mol
# Density = 2.176207 g / cm^3
# Si number density = 21.811714 Si / 1000 Ang^3
#
#
#
# Elastic Constant Matrix: (Units=GPa)
#
#
# Indices 1 2 3 4 5 6 
#
# 1 114.8028 63.8725 42.7831 0.0000 0.0000 0.0000
# 2 63.8725 176.8172 39.8716 0.0000 0.0000 0.0000
# 3 42.7831 39.8716 108.5866 0.0000 0.0000 0.0000
# 4 0.0000 0.0000 0.0000 36.3550 0.0000 0.0000
# 5 0.0000 0.0000 0.0000 0.0000 31.3250 0.0000
# 6 0.0000 0.0000 0.0000 0.0000 0.0000 83.1063
#
#
#
# Elastic Compliance Matrix: (Units=1/GPa)
#
#
# Indices 1 2 3 4 5 6 
#
# 1 0.011956 -0.003551 -0.003407 0.000000 0.000000 0.000000
# 2 -0.003551 0.007221 -0.001252 0.000000 0.000000 0.000000
# 3 -0.003407 -0.001252 0.011011 0.000000 0.000000 0.000000
# 4 0.000000 0.000000 0.000000 0.027507 0.000000 0.000000
# 5 0.000000 0.000000 0.000000 0.000000 0.031923 0.000000
# 6 0.000000 0.000000 0.000000 0.000000 0.000000 0.012033
#
#
# Mechanical properties :
#
#
# Convention : Reuss Voigt Hill
#
# Bulk Modulus (GPa) = 72.63179 77.02902 74.83040
# Shear Modulus (GPa) = 40.76342 47.06922 43.91632
#
# Velocity S-wave (km/s) = 4.32774 4.65044 4.49199
# Velocity P-wave (km/s) = 7.63834 8.01421 7.82853
#
# Compressibility (1/GPa) = 0.01376808
#
# Stress axis : x y z
#
# Youngs Moduli (GPa) = 83.64283 138.49365 90.81525
#
# Poissons Ratio (x) = 0.49173 0.30939
# Poissons Ratio (y) = 0.29698 0.11373
# Poissons Ratio (z) = 0.28495 0.17345
#
# Static dielectric constant tensor:
#      x y z
#    x 3.947340 0.000000 0.000000 
#    y 0.000000 4.276690 0.000000 
#    z 0.000000 0.000000 3.735780 
# 
# 
# High freq. dielectric constant tensor:
#      x y z
#    x 1.864620 0.000000 0.000000 
#    y 0.000000 1.876020 0.000000 
#    z 0.000000 0.000000 1.859050 
# 
# From -- ./inp_files/4255.got.cif
#   From: 2010.03.12/outbox.cif.g09.slc.cpg/sg60_3_cif.got.tgz:4255.got - 2010.04.10 18:46:24.
