data_PCOD8248393
_publ_section_title
;
Structure prediction by ZEFSAII (Michael W. Deem and Ramdas Pophale) SiO2 
 PCOD8248393
Probable space group: P B C N
;
_chemical_formula_sum "Si O2"
_cell_formula_units_Z 56
_cell_length_a 11.477074
_cell_length_b 21.257557
_cell_length_c 11.014036
_cell_angle_alpha 90.000000
_cell_angle_beta 90.000000
_cell_angle_gamma 90.000000
_cell_volume 2687.144529
_symmetry_space_group_name_H-M "P B C N"
_symmetry_group_IT_number 60
_symmetry_cell_setting 'orthorhombic'
loop_
_space_group_symop_operation_xyz
x,y,z
1/2-x,1/2-y,1/2+z
1/2+x,1/2-y,-z
-x,y,1/2-z
-x,-y,-z
1/2+x,1/2+y,1/2-z
1/2-x,1/2+y,z
x,-y,1/2+z
loop_
_atom_site_type_symbol
_atom_site_label
_atom_site_fract_x
_atom_site_fract_y
_atom_site_fract_z
Si Si1 0.500000 0.720517 0.250000
Si Si2 0.797701 0.163648 0.980767
Si Si3 0.955162 0.669568 0.919180
Si Si4 0.263337 0.339995 0.756712
Si Si5 0.567619 0.229122 0.368964
Si Si6 0.259263 0.014382 0.253707
Si Si7 0.000000 0.560029 0.750000
Si Si8 0.133352 0.978642 0.002865
O O1 0.485326 0.768454 0.362041
O O2 0.603038 0.671947 0.277573
O O3 0.684297 0.164765 0.893045
O O4 0.903824 0.206315 0.937097
O O5 0.856454 0.096263 0.000743
O O6 0.746917 0.188413 0.108626
O O7 0.009849 0.605130 0.867972
O O8 0.989357 0.677658 0.059826
O O9 0.190267 0.302615 0.658520
O O10 0.223076 0.411526 0.754938
O O11 0.500000 0.249481 0.250000
O O12 0.195732 0.993365 0.380460
O O13 0.385757 0.982763 0.246684
O O14 0.188350 0.999607 0.131009
O O15 0.000000 0.000000 0.000000
#
# Coordination Sequence:
#
# PCOD8248393 Si02
#       8
#     4   8   8   8   8   8   4   8
#     4  11  22  42  68  94 138 185 216 276 358 415
#     4  11  23  46  64 100 142 175 231 287 348 427
#     4  11  23  43  69  99 140 179 232 289 350 421
#     4  11  25  40  66  99 136 179 229 281 348 415
#     4  12  25  40  69 106 135 177 229 291 350 418
#     4  11  27  45  72 102 140 190 240 293 356 426
#     4  11  26  48  72 100 142 191 240 296 360 429
#     4  11  26  48  71 102 143 185 237 294 355 428
#
# _framework density 20.839963999999998
#
# number of rings (size 3 to 8) (size 9 to 14) (size 15 to 20)
#    0.000    0.857    5.714    0.429    7.000    1.714 
#    0.000    0.000    0.000    0.000    0.000    0.000 
#    0.000    0.000    0.000    0.000    0.000    0.000 
#
# Total GULP energy -694062.060309 kJ/mol
# GULP energy per Si atom -12393.965363 kJ/mol
# Density = 2.079253 g / cm^3
# Si number density = 20.839964 Si / 1000 Ang^3
#
#
#
# Elastic Constant Matrix: (Units=GPa)
#
#
# Indices 1 2 3 4 5 6 
#
# 1 158.2933 59.8092 53.6446 0.0000 0.0000 0.0000
# 2 59.8092 106.6278 46.9467 0.0000 0.0000 0.0000
# 3 53.6446 46.9467 134.4845 0.0000 0.0000 0.0000
# 4 0.0000 0.0000 0.0000 18.9089 0.0000 0.0000
# 5 0.0000 0.0000 0.0000 0.0000 35.2059 0.0000
# 6 0.0000 0.0000 0.0000 0.0000 0.0000 35.3758
#
#
#
# Elastic Compliance Matrix: (Units=1/GPa)
#
#
# Indices 1 2 3 4 5 6 
#
# 1 0.008461 -0.003852 -0.002030 0.000000 0.000000 0.000000
# 2 -0.003852 0.012835 -0.002944 0.000000 0.000000 0.000000
# 3 -0.002030 -0.002944 0.009273 0.000000 0.000000 0.000000
# 4 0.000000 0.000000 0.000000 0.052885 0.000000 0.000000
# 5 0.000000 0.000000 0.000000 0.000000 0.028404 0.000000
# 6 0.000000 0.000000 0.000000 0.000000 0.000000 0.028268
#
#
# Mechanical properties :
#
#
# Convention : Reuss Voigt Hill
#
# Bulk Modulus (GPa) = 77.41818 80.02297 78.72057
# Shear Modulus (GPa) = 30.84797 33.83178 32.33988
#
# Velocity S-wave (km/s) = 3.85155 4.03353 3.94359
# Velocity P-wave (km/s) = 7.55042 7.75723 7.65452
#
# Compressibility (1/GPa) = 0.01291686
#
# Stress axis : x y z
#
# Youngs Moduli (GPa) = 118.19156 77.91036 107.83504
#
# Poissons Ratio (x) = 0.30010 0.21894
# Poissons Ratio (y) = 0.45526 0.31748
# Poissons Ratio (z) = 0.23997 0.22938
#
# Static dielectric constant tensor:
#      x y z
#    x 3.816140 0.000000 0.000000 
#    y 0.000000 3.712280 0.000000 
#    z 0.000000 0.000000 4.181900 
# 
# 
# High freq. dielectric constant tensor:
#      x y z
#    x 1.824340 0.000000 0.000000 
#    y 0.000000 1.813900 0.000000 
#    z 0.000000 0.000000 1.828100 
# 
# From -- ./inp_files/11217.got.cif
#   From: 2010.03.12/outbox.cif.g09.slc.cpg/sg60_6_cif.got.tgz:11217.got - 2010.04.10 18:46:24.
