data_PCOD8248045
_publ_section_title
;
Structure prediction by ZEFSAII (Michael W. Deem and Ramdas Pophale) SiO2 
 PCOD8248045
Probable space group: P B C N
;
_chemical_formula_sum "Si O2"
_cell_formula_units_Z 36
_cell_length_a 12.765701
_cell_length_b 4.928107
_cell_length_c 23.409113
_cell_angle_alpha 90.000000
_cell_angle_beta 90.000000
_cell_angle_gamma 90.000000
_cell_volume 1472.684632
_symmetry_space_group_name_H-M "P B C N"
_symmetry_group_IT_number 60
_symmetry_cell_setting 'orthorhombic'
loop_
_space_group_symop_operation_xyz
x,y,z
1/2-x,1/2-y,1/2+z
1/2+x,1/2-y,-z
-x,y,1/2-z
-x,-y,-z
1/2+x,1/2+y,1/2-z
1/2-x,1/2+y,z
x,-y,1/2+z
loop_
_atom_site_type_symbol
_atom_site_label
_atom_site_fract_x
_atom_site_fract_y
_atom_site_fract_z
Si Si1 0.500000 0.134974 0.250000
Si Si2 0.178434 0.688787 0.717103
Si Si3 0.820924 0.912737 0.583524
Si Si4 0.468442 0.471658 0.643107
Si Si5 0.320536 0.582938 0.546210
O O1 0.522842 0.322942 0.304022
O O2 0.401280 0.932701 0.264564
O O3 0.280585 0.498671 0.719604
O O4 0.103806 0.709680 0.660581
O O5 0.772726 0.205900 0.596217
O O6 0.862063 0.884466 0.518474
O O7 0.917735 0.862073 0.625559
O O8 0.416698 0.629081 0.589508
O O9 0.226471 0.788069 0.558082
#
# Coordination Sequence:
#
# PCOD8248045 Si02
#       5
#     4   8   8   8   8
#     4  12  30  48  70 114 146 196 256 294 368 436
#     4  12  27  49  72 103 146 190 244 303 355 430
#     4  10  25  46  72 109 150 189 242 310 380 436
#     4  12  26  48  76 108 147 200 253 300 368 445
#     4  10  23  44  74 111 143 187 244 308 375 442
#
# _framework density 24.445153000000001
#
# number of rings (size 3 to 8) (size 9 to 14) (size 15 to 20)
#    0.000    0.889    2.222    2.667    6.222    1.778 
#    0.000    6.667    0.000    0.000    0.000    0.000 
#    0.000    0.000    0.000    0.000    0.000    0.000 
#
# Total GULP energy -446091.954745 kJ/mol
# GULP energy per Si atom -12391.443187 kJ/mol
# Density = 2.438952 g / cm^3
# Si number density = 24.445153 Si / 1000 Ang^3
#
#
#
# Elastic Constant Matrix: (Units=GPa)
#
#
# Indices 1 2 3 4 5 6 
#
# 1 114.0008 19.1513 43.6302 0.0000 0.0000 0.0000
# 2 19.1513 92.8753 33.1833 0.0000 0.0000 0.0000
# 3 43.6302 33.1833 67.7857 0.0000 0.0000 0.0000
# 4 0.0000 0.0000 0.0000 21.9156 0.0000 0.0000
# 5 0.0000 0.0000 0.0000 0.0000 57.8215 0.0000
# 6 0.0000 0.0000 0.0000 0.0000 0.0000 28.8788
#
#
#
# Elastic Compliance Matrix: (Units=1/GPa)
#
#
# Indices 1 2 3 4 5 6 
#
# 1 0.011648 0.000335 -0.007661 0.000000 0.000000 0.000000
# 2 0.000335 0.013059 -0.006609 0.000000 0.000000 0.000000
# 3 -0.007661 -0.006609 0.022919 0.000000 0.000000 0.000000
# 4 0.000000 0.000000 0.000000 0.045630 0.000000 0.000000
# 5 0.000000 0.000000 0.000000 0.000000 0.017295 0.000000
# 6 0.000000 0.000000 0.000000 0.000000 0.000000 0.034628
#
#
# Mechanical properties :
#
#
# Convention : Reuss Voigt Hill
#
# Bulk Modulus (GPa) = 50.61645 51.84352 51.22998
# Shear Modulus (GPa) = 27.83473 33.63631 30.73552
#
# Velocity S-wave (km/s) = 3.37806 3.71346 3.54973
# Velocity P-wave (km/s) = 5.99718 6.29607 6.14844
#
# Compressibility (1/GPa) = 0.01975642
#
# Stress axis : x y z
#
# Youngs Moduli (GPa) = 85.85468 76.57433 43.63247
#
# Poissons Ratio (x) = -0.02569 0.33428
# Poissons Ratio (y) = -0.02880 0.28836
# Poissons Ratio (z) = 0.65775 0.50607
#
# Static dielectric constant tensor:
#      x y z
#    x 4.513270 0.000000 0.000000 
#    y 0.000000 4.418050 0.000000 
#    z 0.000000 0.000000 4.504460 
# 
# 
# High freq. dielectric constant tensor:
#      x y z
#    x 1.985130 0.000000 0.000000 
#    y 0.000000 1.977190 0.000000 
#    z 0.000000 0.000000 1.961000 
# 
# From -- ./inp_files/24173.got.cif
#   From: 2010.03.12/outbox.cif.g09.slc.cpg/sg60_13_cif.got.tgz:24173.got - 2010.04.10 18:46:24.
