data_PCOD8248828
_publ_section_title
;
Structure prediction by ZEFSAII (Michael W. Deem and Ramdas Pophale) SiO2 
 PCOD8248828
Probable space group: P B C A
;
_chemical_formula_sum "Si O2"
_cell_formula_units_Z 40
_cell_length_a 17.040151
_cell_length_b 13.744108
_cell_length_c 8.353684
_cell_angle_alpha 90.000000
_cell_angle_beta 90.000000
_cell_angle_gamma 90.000000
_cell_volume 1956.446791
_symmetry_space_group_name_H-M "P B C A"
_symmetry_group_IT_number 61
_symmetry_cell_setting 'orthorhombic'
loop_
_space_group_symop_operation_xyz
x,y,z
1/2-x,-y,1/2+z
1/2+x,1/2-y,-z
-x,1/2+y,1/2-z
-x,-y,-z
1/2+x,y,1/2-z
1/2-x,1/2+y,z
x,1/2-y,1/2+z
loop_
_atom_site_type_symbol
_atom_site_label
_atom_site_fract_x
_atom_site_fract_y
_atom_site_fract_z
Si Si1 0.061198 0.039244 0.127703
Si Si2 0.651885 0.553903 0.594241
Si Si3 0.359815 0.654679 0.559153
Si Si4 0.987642 0.107565 0.428256
Si Si5 0.182991 0.153870 0.916539
O O1 0.006850 0.108300 0.239469
O O2 0.104823 0.957243 0.236899
O O3 0.131321 0.097484 0.045718
O O4 0.000000 0.000000 0.000000
O O5 0.666260 0.448405 0.514675
O O6 0.603044 0.627601 0.475169
O O7 0.734739 0.603360 0.619426
O O8 0.450214 0.679980 0.511862
O O9 0.303503 0.737287 0.484117
O O10 0.361347 0.654892 0.749178
O O11 0.000000 0.000000 0.500000
#
# Coordination Sequence:
#
# PCOD8248828 Si02
#       5
#     8   8   8   8   8
#     4  10  19  35  61  86 114 157 196 239 302 363
#     4  10  21  39  62  88 118 155 202 257 300 351
#     4  10  21  38  58  84 116 155 197 240 298 362
#     4   8  17  37  59  79 109 147 194 240 285 347
#     4  12  22  37  60  87 121 156 197 250 306 361
#
# _framework density 20.445228
#
# number of rings (size 3 to 8) (size 9 to 14) (size 15 to 20)
#    0.000    2.400    0.000    7.200    0.000    0.000 
#    0.000   10.000    0.000    2.400    0.000    0.000 
#    0.000    0.000    0.000    0.000    0.000    0.000 
#
# Total GULP energy -495586.916112 kJ/mol
# GULP energy per Si atom -12389.672903 kJ/mol
# Density = 2.039869 g / cm^3
# Si number density = 20.445228 Si / 1000 Ang^3
#
#
#
# Elastic Constant Matrix: (Units=GPa)
#
#
# Indices 1 2 3 4 5 6 
#
# 1 121.4514 43.7724 73.2765 0.0000 0.0000 0.0000
# 2 43.7724 60.1742 27.4693 0.0000 0.0000 0.0000
# 3 73.2765 27.4693 163.2311 0.0000 0.0000 0.0000
# 4 0.0000 0.0000 0.0000 22.2544 0.0000 0.0000
# 5 0.0000 0.0000 0.0000 0.0000 34.4393 0.0000
# 6 0.0000 0.0000 0.0000 0.0000 0.0000 16.9858
#
#
#
# Elastic Compliance Matrix: (Units=1/GPa)
#
#
# Indices 1 2 3 4 5 6 
#
# 1 0.014132 -0.007998 -0.004998 0.000000 0.000000 0.000000
# 2 -0.007998 0.022528 -0.000201 0.000000 0.000000 0.000000
# 3 -0.004998 -0.000201 0.008404 0.000000 0.000000 0.000000
# 4 0.000000 0.000000 0.000000 0.044935 0.000000 0.000000
# 5 0.000000 0.000000 0.000000 0.000000 0.029037 0.000000
# 6 0.000000 0.000000 0.000000 0.000000 0.000000 0.058873
#
#
# Mechanical properties :
#
#
# Convention : Reuss Voigt Hill
#
# Bulk Modulus (GPa) = 53.56206 70.43257 61.99731
# Shear Modulus (GPa) = 23.75010 28.09180 25.92095
#
# Velocity S-wave (km/s) = 3.41199 3.71078 3.56451
# Velocity P-wave (km/s) = 6.46351 7.27214 6.87971
#
# Compressibility (1/GPa) = 0.01866993
#
# Stress axis : x y z
#
# Youngs Moduli (GPa) = 70.76171 44.38874 118.99520
#
# Poissons Ratio (x) = 0.35504 0.59474
# Poissons Ratio (y) = 0.56598 0.02387
# Poissons Ratio (z) = 0.35367 0.00890
#
# Static dielectric constant tensor:
#      x y z
#    x 4.348970 0.000000 0.000000 
#    y 0.000000 3.467340 0.000000 
#    z 0.000000 0.000000 3.959750 
# 
# 
# High freq. dielectric constant tensor:
#      x y z
#    x 1.800670 0.000000 0.000000 
#    y 0.000000 1.764100 0.000000 
#    z 0.000000 0.000000 1.817800 
# 
# From -- ./inp_files/3345.got.cif
#   From: 2010.03.12/outbox.cif.g09.slc.cpg/sg61_2_cif.got.tgz:3345.got - 2010.04.10 19:05:03.
