data_PCOD8248095
_publ_section_title
;
Structure prediction by ZEFSAII (Michael W. Deem and Ramdas Pophale) SiO2 
 PCOD8248095
Probable space group: P B C N
;
_chemical_formula_sum "Si O2"
_cell_formula_units_Z 52
_cell_length_a 15.838591
_cell_length_b 9.678609
_cell_length_c 17.020053
_cell_angle_alpha 90.000000
_cell_angle_beta 90.000000
_cell_angle_gamma 90.000000
_cell_volume 2609.098035
_symmetry_space_group_name_H-M "P B C N"
_symmetry_group_IT_number 60
_symmetry_cell_setting 'orthorhombic'
loop_
_space_group_symop_operation_xyz
x,y,z
1/2-x,1/2-y,1/2+z
1/2+x,1/2-y,-z
-x,y,1/2-z
-x,-y,-z
1/2+x,1/2+y,1/2-z
1/2-x,1/2+y,z
x,-y,1/2+z
loop_
_atom_site_type_symbol
_atom_site_label
_atom_site_fract_x
_atom_site_fract_y
_atom_site_fract_z
Si Si1 0.000000 0.402812 0.750000
Si Si2 0.885582 0.768365 0.017192
Si Si3 0.673580 0.963322 0.224611
Si Si4 0.849185 0.936065 0.489818
Si Si5 0.555870 0.196951 0.409703
Si Si6 0.179028 0.450178 0.092921
Si Si7 0.263588 0.700809 0.367960
O O1 0.074516 0.499563 0.784366
O O2 0.036444 0.302591 0.683074
O O3 0.817327 0.758552 0.086445
O O4 0.970401 0.689605 0.040947
O O5 0.851852 0.699007 0.937322
O O6 0.907111 0.929124 0.002830
O O7 0.696988 0.940148 0.315150
O O8 0.690196 0.823338 0.177748
O O9 0.733311 0.084640 0.192820
O O10 0.892820 0.835344 0.427728
O O11 0.762707 0.993819 0.453252
O O12 0.832889 0.860134 0.572381
O O13 0.610245 0.063388 0.431470
#
# Coordination Sequence:
#
# PCOD8248095 Si02
#       7
#     4   8   8   8   8   8   8
#     4  10  24  44  66 102 126 174 222 268 334 386
#     4  11  22  41  63  95 128 171 215 272 320 397
#     4  11  24  42  68  94 131 174 216 275 323 391
#     4  11  24  40  63  98 127 171 220 265 324 397
#     4  11  23  41  68  91 133 167 218 271 329 388
#     4  10  24  39  65  91 126 173 220 260 324 394
#     4  11  23  42  68  93 133 174 219 263 337 387
#
# _framework density 19.930257999999998
#
# number of rings (size 3 to 8) (size 9 to 14) (size 15 to 20)
#    0.000    1.231    3.077    2.769    8.615    2.462 
#    0.000    0.000    0.000    1.846    0.000    0.000 
#    0.000    0.000    0.000    0.000    0.000    0.000 
#
# Total GULP energy -645046.318386 kJ/mol
# GULP energy per Si atom -12404.736892 kJ/mol
# Density = 1.988490 g / cm^3
# Si number density = 19.930258 Si / 1000 Ang^3
#
#
#
# Elastic Constant Matrix: (Units=GPa)
#
#
# Indices 1 2 3 4 5 6 
#
# 1 75.3814 42.5231 50.7318 0.0000 0.0000 0.0000
# 2 42.5231 147.3847 77.7052 0.0000 0.0000 0.0000
# 3 50.7318 77.7052 139.2287 0.0000 0.0000 0.0000
# 4 0.0000 0.0000 0.0000 35.0540 0.0000 0.0000
# 5 0.0000 0.0000 0.0000 0.0000 32.0406 0.0000
# 6 0.0000 0.0000 0.0000 0.0000 0.0000 29.3684
#
#
#
# Elastic Compliance Matrix: (Units=1/GPa)
#
#
# Indices 1 2 3 4 5 6 
#
# 1 0.018197 -0.002486 -0.005243 0.000000 0.000000 0.000000
# 2 -0.002486 0.009953 -0.004649 0.000000 0.000000 0.000000
# 3 -0.005243 -0.004649 0.011688 0.000000 0.000000 0.000000
# 4 0.000000 0.000000 0.000000 0.028527 0.000000 0.000000
# 5 0.000000 0.000000 0.000000 0.000000 0.031210 0.000000
# 6 0.000000 0.000000 0.000000 0.000000 0.000000 0.034050
#
#
# Mechanical properties :
#
#
# Convention : Reuss Voigt Hill
#
# Bulk Modulus (GPa) = 66.30685 78.21278 72.25981
# Shear Modulus (GPa) = 30.59794 32.02824 31.31309
#
# Velocity S-wave (km/s) = 3.92248 4.01311 3.96805
# Velocity P-wave (km/s) = 7.33867 7.79755 7.57159
#
# Compressibility (1/GPa) = 0.01508140
#
# Stress axis : x y z
#
# Youngs Moduli (GPa) = 54.95482 100.46803 85.55943
#
# Poissons Ratio (x) = 0.24974 0.44860
# Poissons Ratio (y) = 0.13660 0.39780
# Poissons Ratio (z) = 0.28814 0.46711
#
# Static dielectric constant tensor:
#      x y z
#    x 3.728140 0.000000 0.000000 
#    y 0.000000 3.595660 0.000000 
#    z 0.000000 0.000000 3.681540 
# 
# 
# High freq. dielectric constant tensor:
#      x y z
#    x 1.782480 0.000000 0.000000 
#    y 0.000000 1.781630 0.000000 
#    z 0.000000 0.000000 1.782850 
# 
# From -- ./inp_files/20841.got.cif
#   From: 2010.03.12/outbox.cif.g09.slc.cpg/sg60_11_cif.got.tgz:20841.got - 2010.04.10 18:46:24.
