data_PCOD8248905
_publ_section_title
;
Structure prediction by ZEFSAII (Michael W. Deem and Ramdas Pophale) SiO2 
 PCOD8248905
Probable space group: P B C A
;
_chemical_formula_sum "Si O2"
_cell_formula_units_Z 48
_cell_length_a 13.862892
_cell_length_b 9.386297
_cell_length_c 18.126995
_cell_angle_alpha 90.000000
_cell_angle_beta 90.000000
_cell_angle_gamma 90.000000
_cell_volume 2358.706733
_symmetry_space_group_name_H-M "P B C A"
_symmetry_group_IT_number 61
_symmetry_cell_setting 'orthorhombic'
loop_
_space_group_symop_operation_xyz
x,y,z
1/2-x,-y,1/2+z
1/2+x,1/2-y,-z
-x,1/2+y,1/2-z
-x,-y,-z
1/2+x,y,1/2-z
1/2-x,1/2+y,z
x,1/2-y,1/2+z
loop_
_atom_site_type_symbol
_atom_site_label
_atom_site_fract_x
_atom_site_fract_y
_atom_site_fract_z
Si Si1 0.106556 0.056447 0.203255
Si Si2 0.860687 0.546948 0.951527
Si Si3 0.819959 0.372042 0.817470
Si Si4 0.450408 0.219641 0.792162
Si Si5 0.151755 0.618663 0.570921
Si Si6 0.453758 0.202935 0.959226
O O1 0.219612 0.077411 0.218474
O O2 0.057019 0.210505 0.214073
O O3 0.058074 0.937341 0.256491
O O4 0.098817 0.005372 0.117679
O O5 0.869060 0.497731 0.865707
O O6 0.748852 0.571574 0.971608
O O7 0.929688 0.684705 0.960032
O O8 0.898818 0.432585 0.008978
O O9 0.883932 0.334384 0.748057
O O10 0.810419 0.239192 0.872833
O O11 0.415613 0.218357 0.876331
O O12 0.073489 0.663403 0.510151
#
# Coordination Sequence:
#
# PCOD8248905 Si02
#       6
#     8   8   8   8   8   8
#     4  10  22  39  59  83 114 154 191 225 283 349
#     4   9  18  36  56  76 110 150 186 224 277 347
#     4   9  19  37  58  78 109 154 192 222 273 344
#     4  11  22  36  58  87 114 142 187 242 282 323
#     4   9  19  37  58  79 108 152 192 224 275 345
#     4  10  20  33  55  84 109 141 186 237 284 324
#
# _framework density 20.350135000000002
#
# number of rings (size 3 to 8) (size 9 to 14) (size 15 to 20)
#    0.000    2.333    0.000    2.000    0.000    6.000 
#    0.000    1.667    0.000    0.000    0.000    0.000 
#    0.000    0.000    0.000    0.000    0.000    0.000 
#
# Total GULP energy -594937.999657 kJ/mol
# GULP energy per Si atom -12394.541660 kJ/mol
# Density = 2.030382 g / cm^3
# Si number density = 20.350135 Si / 1000 Ang^3
#
#
#
# Elastic Constant Matrix: (Units=GPa)
#
#
# Indices 1 2 3 4 5 6 
#
# 1 91.6463 25.8769 52.4732 0.0000 0.0000 0.0000
# 2 25.8769 41.2844 16.6752 0.0000 0.0000 0.0000
# 3 52.4732 16.6752 109.1520 0.0000 0.0000 0.0000
# 4 0.0000 0.0000 0.0000 31.6717 0.0000 0.0000
# 5 0.0000 0.0000 0.0000 0.0000 29.3628 0.0000
# 6 0.0000 0.0000 0.0000 0.0000 0.0000 37.1172
#
#
#
# Elastic Compliance Matrix: (Units=1/GPa)
#
#
# Indices 1 2 3 4 5 6 
#
# 1 0.017186 -0.007924 -0.007052 0.000000 0.000000 0.000000
# 2 -0.007924 0.029469 -0.000693 0.000000 0.000000 0.000000
# 3 -0.007052 -0.000693 0.012657 0.000000 0.000000 0.000000
# 4 0.000000 0.000000 0.000000 0.031574 0.000000 0.000000
# 5 0.000000 0.000000 0.000000 0.000000 0.034057 0.000000
# 6 0.000000 0.000000 0.000000 0.000000 0.000000 0.026942
#
#
# Mechanical properties :
#
#
# Convention : Reuss Voigt Hill
#
# Bulk Modulus (GPa) = 35.74495 48.01481 41.87988
# Shear Modulus (GPa) = 25.96773 29.43415 27.70094
#
# Velocity S-wave (km/s) = 3.57606 3.80726 3.69347
# Velocity P-wave (km/s) = 5.88677 6.55535 6.23003
#
# Compressibility (1/GPa) = 0.02797598
#
# Stress axis : x y z
#
# Youngs Moduli (GPa) = 58.18554 33.93419 79.00606
#
# Poissons Ratio (x) = 0.26890 0.55711
# Poissons Ratio (y) = 0.46107 0.05471
# Poissons Ratio (z) = 0.41030 0.02350
#
# Static dielectric constant tensor:
#      x y z
#    x 3.633550 0.000000 0.000000 
#    y 0.000000 3.826400 0.000000 
#    z 0.000000 0.000000 3.694670 
# 
# 
# High freq. dielectric constant tensor:
#      x y z
#    x 1.792490 0.000000 0.000000 
#    y 0.000000 1.798300 0.000000 
#    z 0.000000 0.000000 1.786610 
# 
# From -- ./inp_files/5227.got.cif
#   From: 2010.03.12/outbox.cif.g09.slc.cpg/sg61_3_cif.got.tgz:5227.got - 2010.04.10 19:05:03.
