data_PCOD8248247
_publ_section_title
;
Structure prediction by ZEFSAII (Michael W. Deem and Ramdas Pophale) SiO2 
 PCOD8248247
Probable space group: P B C N
;
_chemical_formula_sum "Si O2"
_cell_formula_units_Z 52
_cell_length_a 13.126821
_cell_length_b 9.211920
_cell_length_c 19.276029
_cell_angle_alpha 90.000000
_cell_angle_beta 90.000000
_cell_angle_gamma 90.000000
_cell_volume 2330.919590
_symmetry_space_group_name_H-M "P B C N"
_symmetry_group_IT_number 60
_symmetry_cell_setting 'orthorhombic'
loop_
_space_group_symop_operation_xyz
x,y,z
1/2-x,1/2-y,1/2+z
1/2+x,1/2-y,-z
-x,y,1/2-z
-x,-y,-z
1/2+x,1/2+y,1/2-z
1/2-x,1/2+y,z
x,-y,1/2+z
loop_
_atom_site_type_symbol
_atom_site_label
_atom_site_fract_x
_atom_site_fract_y
_atom_site_fract_z
Si Si1 0.000000 0.248515 0.250000
Si Si2 0.788169 0.968068 0.585373
Si Si3 0.757141 0.721182 0.486415
Si Si4 0.996997 0.973797 0.862920
Si Si5 0.428117 0.962041 0.357767
Si Si6 0.457472 0.762489 0.037201
Si Si7 0.445226 0.781406 0.606743
O O1 0.049519 0.139110 0.193798
O O2 0.921926 0.353860 0.208581
O O3 0.808243 0.811673 0.549371
O O4 0.879828 0.994108 0.640235
O O5 0.787624 0.076623 0.520736
O O6 0.683424 0.973274 0.628876
O O7 0.661253 0.807788 0.453023
O O8 0.834460 0.682876 0.424384
O O9 0.971695 0.902925 0.937060
O O10 0.942097 0.128516 0.851919
O O11 0.468377 0.877000 0.425572
O O12 0.510485 0.091276 0.343769
O O13 0.474796 0.764828 0.955404
#
# Coordination Sequence:
#
# PCOD8248247 Si02
#       7
#     4   8   8   8   8   8   8
#     4  10  26  48  60  80 122 182 224 264 294 354
#     4  12  20  36  64  96 120 166 214 254 308 402
#     4  12  22  32  61 101 136 159 199 248 337 403
#     4  11  23  41  64  90 130 169 217 259 314 369
#     4  11  23  41  64  90 130 169 217 259 314 369
#     4  11  20  38  59  96 137 160 189 267 326 386
#     4  12  21  37  62  99 130 160 202 268 322 385
#
# _framework density 22.308792
#
# number of rings (size 3 to 8) (size 9 to 14) (size 15 to 20)
#    0.000    0.615    6.154    3.692    0.000    0.615 
#    0.000    6.154    0.000    0.000    0.000    0.000 
#    0.000    0.000    0.000    0.000    0.000    0.000 
#
# Total GULP energy -644612.842000 kJ/mol
# GULP energy per Si atom -12396.400808 kJ/mol
# Density = 2.225802 g / cm^3
# Si number density = 22.308792 Si / 1000 Ang^3
#
#
#
# Elastic Constant Matrix: (Units=GPa)
#
#
# Indices 1 2 3 4 5 6 
#
# 1 93.1083 -0.9378 25.2995 0.0000 0.0000 0.0000
# 2 -0.9378 116.7042 32.0775 0.0000 0.0000 0.0000
# 3 25.2995 32.0775 67.6558 0.0000 0.0000 0.0000
# 4 0.0000 0.0000 0.0000 35.9912 0.0000 0.0000
# 5 0.0000 0.0000 0.0000 0.0000 12.4939 0.0000
# 6 0.0000 0.0000 0.0000 0.0000 0.0000 26.6851
#
#
#
# Elastic Compliance Matrix: (Units=1/GPa)
#
#
# Indices 1 2 3 4 5 6 
#
# 1 0.012195 0.001554 -0.005297 0.000000 0.000000 0.000000
# 2 0.001554 0.010051 -0.005346 0.000000 0.000000 0.000000
# 3 -0.005297 -0.005346 0.019296 0.000000 0.000000 0.000000
# 4 0.000000 0.000000 0.000000 0.027785 0.000000 0.000000
# 5 0.000000 0.000000 0.000000 0.000000 0.080039 0.000000
# 6 0.000000 0.000000 0.000000 0.000000 0.000000 0.037474
#
#
# Mechanical properties :
#
#
# Convention : Reuss Voigt Hill
#
# Bulk Modulus (GPa) = 42.80239 43.37186 43.08713
# Shear Modulus (GPa) = 23.49552 29.76933 26.63243
#
# Velocity S-wave (km/s) = 3.24882 3.65694 3.45890
# Velocity P-wave (km/s) = 5.77071 6.10858 5.94204
#
# Compressibility (1/GPa) = 0.02336318
#
# Stress axis : x y z
#
# Youngs Moduli (GPa) = 81.99976 99.49577 51.82313
#
# Poissons Ratio (x) = -0.15461 0.27451
# Poissons Ratio (y) = -0.12742 0.27707
# Poissons Ratio (z) = 0.43436 0.53194
#
# Static dielectric constant tensor:
#      x y z
#    x 3.995150 0.000000 0.000000 
#    y 0.000000 4.364010 0.000000 
#    z 0.000000 0.000000 3.680800 
# 
# 
# High freq. dielectric constant tensor:
#      x y z
#    x 1.873750 0.000000 0.000000 
#    y 0.000000 1.897190 0.000000 
#    z 0.000000 0.000000 1.831940 
# 
# From -- ./inp_files/22851.got.cif
#   From: 2010.03.12/outbox.cif.g09.slc.cpg/sg60_12_cif.got.tgz:22851.got - 2010.04.10 18:46:24.
