data_PCOD8248081
_publ_section_title
;
Structure prediction by ZEFSAII (Michael W. Deem and Ramdas Pophale) SiO2 
 PCOD8248081
Probable space group: P B C N
;
_chemical_formula_sum "Si O2"
_cell_formula_units_Z 48
_cell_length_a 17.149837
_cell_length_b 13.375322
_cell_length_c 9.947385
_cell_angle_alpha 90.000000
_cell_angle_beta 90.000000
_cell_angle_gamma 90.000000
_cell_volume 2281.776851
_symmetry_space_group_name_H-M "P B C N"
_symmetry_group_IT_number 60
_symmetry_cell_setting 'orthorhombic'
loop_
_space_group_symop_operation_xyz
x,y,z
1/2-x,1/2-y,1/2+z
1/2+x,1/2-y,-z
-x,y,1/2-z
-x,-y,-z
1/2+x,1/2+y,1/2-z
1/2-x,1/2+y,z
x,-y,1/2+z
loop_
_atom_site_type_symbol
_atom_site_label
_atom_site_fract_x
_atom_site_fract_y
_atom_site_fract_z
Si Si1 0.996558 0.697295 0.966522
Si Si2 0.500000 0.643254 0.250000
Si Si3 0.000000 0.367870 0.750000
Si Si4 0.253745 0.534770 0.477929
Si Si5 0.168275 0.091508 0.203462
Si Si6 0.171617 0.685717 0.634171
Si Si7 0.894212 0.462543 0.150147
O O1 0.030121 0.593362 0.908861
O O2 0.028851 0.788321 0.876070
O O3 0.903469 0.697750 0.960243
O O4 0.019810 0.704541 0.123550
O O5 0.574501 0.576870 0.287817
O O6 0.075523 0.436115 0.780444
O O7 0.306555 0.463275 0.567990
O O8 0.291890 0.542008 0.331947
O O9 0.244553 0.643970 0.547490
O O10 0.166206 0.490228 0.468070
O O11 0.193868 0.207282 0.196312
O O12 0.153800 0.607304 0.750551
#
# Coordination Sequence:
#
# PCOD8248081 Si02
#       7
#     8   4   4   8   8   8   8
#     4  11  20  37  64  97 131 173 210 259 331 396
#     4  10  23  50  68  83 124 178 234 277 326 385
#     4  12  21  30  62 107 138 166 206 263 334 411
#     4  12  26  42  65 103 134 172 220 272 337 402
#     4  11  27  46  70  91 127 178 225 284 336 388
#     4  11  22  42  64  97 139 172 214 267 332 396
#     4  12  20  37  63  99 138 173 205 260 331 407
#
# _framework density 21.036237
#
# number of rings (size 3 to 8) (size 9 to 14) (size 15 to 20)
#    0.000    0.667    8.333    1.500    2.333    0.667 
#    0.000    3.333    0.000    0.000    0.000    0.000 
#    0.000    0.000    0.000    0.000    0.000    0.000 
#
# Total GULP energy -595245.525612 kJ/mol
# GULP energy per Si atom -12400.948450 kJ/mol
# Density = 2.098836 g / cm^3
# Si number density = 21.036237 Si / 1000 Ang^3
#
#
#
# Elastic Constant Matrix: (Units=GPa)
#
#
# Indices 1 2 3 4 5 6 
#
# 1 86.6551 39.6415 26.2338 0.0000 0.0000 0.0000
# 2 39.6415 65.6211 42.7486 0.0000 0.0000 0.0000
# 3 26.2338 42.7486 143.9223 0.0000 0.0000 0.0000
# 4 0.0000 0.0000 0.0000 19.2183 0.0000 0.0000
# 5 0.0000 0.0000 0.0000 0.0000 30.7589 0.0000
# 6 0.0000 0.0000 0.0000 0.0000 0.0000 32.7304
#
#
#
# Elastic Compliance Matrix: (Units=1/GPa)
#
#
# Indices 1 2 3 4 5 6 
#
# 1 0.015947 -0.009597 -0.000056 0.000000 0.000000 0.000000
# 2 -0.009597 0.024671 -0.005578 0.000000 0.000000 0.000000
# 3 -0.000056 -0.005578 0.008615 0.000000 0.000000 0.000000
# 4 0.000000 0.000000 0.000000 0.052034 0.000000 0.000000
# 5 0.000000 0.000000 0.000000 0.000000 0.032511 0.000000
# 6 0.000000 0.000000 0.000000 0.000000 0.000000 0.030553
#
#
# Mechanical properties :
#
#
# Convention : Reuss Voigt Hill
#
# Bulk Modulus (GPa) = 53.27726 57.04960 55.16343
# Shear Modulus (GPa) = 24.86932 29.04649 26.95790
#
# Velocity S-wave (km/s) = 3.44206 3.71992 3.58369
# Velocity P-wave (km/s) = 6.41704 6.75492 6.58815
#
# Compressibility (1/GPa) = 0.01876973
#
# Stress axis : x y z
#
# Youngs Moduli (GPa) = 62.70637 40.53398 116.07120
#
# Poissons Ratio (x) = 0.38901 0.00653
# Poissons Ratio (y) = 0.60180 0.64750
# Poissons Ratio (z) = 0.00353 0.22612
#
# Static dielectric constant tensor:
#      x y z
#    x 3.749730 0.000000 0.000000 
#    y 0.000000 3.696850 0.000000 
#    z 0.000000 0.000000 3.975190 
# 
# 
# High freq. dielectric constant tensor:
#      x y z
#    x 1.817110 0.000000 0.000000 
#    y 0.000000 1.799840 0.000000 
#    z 0.000000 0.000000 1.834770 
# 
# From -- ./inp_files/12439.got.cif
#   From: 2010.03.12/outbox.cif.g09.slc.cpg/sg60_7_cif.got.tgz:12439.got - 2010.04.10 18:46:24.
