data_PCOD8248127
_publ_section_title
;
Structure prediction by ZEFSAII (Michael W. Deem and Ramdas Pophale) SiO2 
 PCOD8248127
Probable space group: P B C N
;
_chemical_formula_sum "Si O2"
_cell_formula_units_Z 36
_cell_length_a 18.708481
_cell_length_b 9.551536
_cell_length_c 8.566877
_cell_angle_alpha 90.000000
_cell_angle_beta 90.000000
_cell_angle_gamma 90.000000
_cell_volume 1530.855771
_symmetry_space_group_name_H-M "P B C N"
_symmetry_group_IT_number 60
_symmetry_cell_setting 'orthorhombic'
loop_
_space_group_symop_operation_xyz
x,y,z
1/2-x,1/2-y,1/2+z
1/2+x,1/2-y,-z
-x,y,1/2-z
-x,-y,-z
1/2+x,1/2+y,1/2-z
1/2-x,1/2+y,z
x,-y,1/2+z
loop_
_atom_site_type_symbol
_atom_site_label
_atom_site_fract_x
_atom_site_fract_y
_atom_site_fract_z
Si Si1 0.500000 0.527937 0.250000
Si Si2 0.053665 0.564525 0.378543
Si Si3 0.087265 0.858120 0.479021
Si Si4 0.729912 0.630649 0.369410
Si Si5 0.306930 0.904150 0.321398
O O1 0.473124 0.626634 0.111057
O O2 0.435776 0.433545 0.318494
O O3 0.099270 0.693604 0.446970
O O4 0.109934 0.450057 0.312830
O O5 0.000000 0.625256 0.250000
O O6 0.000000 0.500000 0.500000
O O7 0.160376 0.927716 0.539876
O O8 0.791926 0.642132 0.500114
O O9 0.708451 0.779373 0.297590
O O10 0.755404 0.531106 0.229971
#
# Coordination Sequence:
#
# PCOD8248127 Si02
#       5
#     4   8   8   8   8
#     4  10  24  42  68 104 142 190 238 294 376 430
#     4  12  26  46  72 101 144 188 243 298 364 444
#     4  11  23  44  68 103 142 187 235 302 360 442
#     4  12  25  46  73 105 148 188 252 298 379 435
#     4  12  27  48  74 109 145 201 240 314 367 447
#
# _framework density 23.516259000000002
#
# number of rings (size 3 to 8) (size 9 to 14) (size 15 to 20)
#    0.000    0.444    1.111    8.000    4.667    0.000 
#    4.000    0.000    0.000    0.000    0.000    0.000 
#    0.000    0.000    0.000    0.000    0.000    0.000 
#
# Total GULP energy -446504.363695 kJ/mol
# GULP energy per Si atom -12402.898992 kJ/mol
# Density = 2.346273 g / cm^3
# Si number density = 23.516259 Si / 1000 Ang^3
#
#
#
# Elastic Constant Matrix: (Units=GPa)
#
#
# Indices 1 2 3 4 5 6 
#
# 1 126.5925 49.4169 30.5340 0.0000 0.0000 0.0000
# 2 49.4169 109.4512 48.4473 0.0000 0.0000 0.0000
# 3 30.5340 48.4473 113.8145 0.0000 0.0000 0.0000
# 4 0.0000 0.0000 0.0000 39.9191 0.0000 0.0000
# 5 0.0000 0.0000 0.0000 0.0000 58.1227 0.0000
# 6 0.0000 0.0000 0.0000 0.0000 0.0000 31.8415
#
#
#
# Elastic Compliance Matrix: (Units=1/GPa)
#
#
# Indices 1 2 3 4 5 6 
#
# 1 0.009665 -0.003963 -0.000906 0.000000 0.000000 0.000000
# 2 -0.003963 0.012882 -0.004421 0.000000 0.000000 0.000000
# 3 -0.000906 -0.004421 0.010911 0.000000 0.000000 0.000000
# 4 0.000000 0.000000 0.000000 0.025051 0.000000 0.000000
# 5 0.000000 0.000000 0.000000 0.000000 0.017205 0.000000
# 6 0.000000 0.000000 0.000000 0.000000 0.000000 0.031406
#
#
# Mechanical properties :
#
#
# Convention : Reuss Voigt Hill
#
# Bulk Modulus (GPa) = 67.20579 67.40607 67.30593
# Shear Modulus (GPa) = 38.26806 40.74069 39.50437
#
# Velocity S-wave (km/s) = 4.03836 4.16678 4.10307
# Velocity P-wave (km/s) = 7.09824 7.20245 7.15053
#
# Compressibility (1/GPa) = 0.01487967
#
# Stress axis : x y z
#
# Youngs Moduli (GPa) = 103.46898 77.62620 91.65071
#
# Poissons Ratio (x) = 0.30760 0.08305
# Poissons Ratio (y) = 0.41000 0.40514
# Poissons Ratio (z) = 0.09376 0.34315
#
# Static dielectric constant tensor:
#      x y z
#    x 4.184600 0.000000 0.000000 
#    y 0.000000 4.087000 0.000000 
#    z 0.000000 0.000000 4.132270 
# 
# 
# High freq. dielectric constant tensor:
#      x y z
#    x 1.937650 0.000000 0.000000 
#    y 0.000000 1.921440 0.000000 
#    z 0.000000 0.000000 1.951350 
# 
# From -- ./inp_files/7185.got.cif
#   From: 2010.03.12/outbox.cif.g09.slc.cpg/sg60_4_cif.got.tgz:7185.got - 2010.04.10 18:46:24.
