data_PCOD8249734
_publ_section_title
;
Structure prediction by ZEFSAII (Michael W. Deem and Ramdas Pophale) SiO2 
 PCOD8249734
Probable space group: P B C A
;
_chemical_formula_sum "Si O2"
_cell_formula_units_Z 40
_cell_length_a 7.380690
_cell_length_b 17.017393
_cell_length_c 15.392408
_cell_angle_alpha 90.000000
_cell_angle_beta 90.000000
_cell_angle_gamma 90.000000
_cell_volume 1933.288020
_symmetry_space_group_name_H-M "P B C A"
_symmetry_group_IT_number 61
_symmetry_cell_setting 'orthorhombic'
loop_
_space_group_symop_operation_xyz
x,y,z
1/2-x,-y,1/2+z
1/2+x,1/2-y,-z
-x,1/2+y,1/2-z
-x,-y,-z
1/2+x,y,1/2-z
1/2-x,1/2+y,z
x,1/2-y,1/2+z
loop_
_atom_site_type_symbol
_atom_site_label
_atom_site_fract_x
_atom_site_fract_y
_atom_site_fract_z
Si Si1 0.955367 0.161405 0.059209
Si Si2 0.240907 0.467788 0.150912
Si Si3 0.884310 0.676044 0.936536
Si Si4 0.363232 0.484908 0.839191
Si Si5 0.795508 0.073012 0.509500
O O1 0.050767 0.239193 0.098196
O O2 0.887422 0.107292 0.138667
O O3 0.787590 0.185548 0.999121
O O4 0.100007 0.112454 0.003655
O O5 0.167721 0.378167 0.146479
O O6 0.188210 0.511416 0.238839
O O7 0.456002 0.465981 0.143040
O O8 0.156829 0.512797 0.067957
O O9 0.049874 0.638367 0.989835
O O10 0.209477 0.524334 0.899821
#
# Coordination Sequence:
#
# PCOD8249734 Si02
#       5
#     8   8   8   8   8
#     4  11  23  41  65  99 135 168 224 275 334 388
#     4  11  23  40  67  97 132 176 228 265 329 394
#     4  12  22  41  68  97 132 177 218 276 335 387
#     4  11  23  43  65 100 133 174 229 274 317 410
#     4  11  22  42  68  93 130 179 226 276 322 397
#
# _framework density 20.690142000000002
#
# number of rings (size 3 to 8) (size 9 to 14) (size 15 to 20)
#    0.000    0.800    6.000    3.000    2.800    0.000 
#    0.000   10.000    0.000    0.000    0.000    0.000 
#    0.000    0.000    0.000    0.000    0.000    0.000 
#
# Total GULP energy -496073.241368 kJ/mol
# GULP energy per Si atom -12401.831034 kJ/mol
# Density = 2.064305 g / cm^3
# Si number density = 20.690142 Si / 1000 Ang^3
#
#
#
# Elastic Constant Matrix: (Units=GPa)
#
#
# Indices 1 2 3 4 5 6 
#
# 1 70.2579 41.9203 12.8412 0.0000 0.0000 0.0000
# 2 41.9203 157.4318 55.4260 0.0000 0.0000 0.0000
# 3 12.8412 55.4260 118.9361 0.0000 0.0000 0.0000
# 4 0.0000 0.0000 0.0000 22.2843 0.0000 0.0000
# 5 0.0000 0.0000 0.0000 0.0000 24.5725 0.0000
# 6 0.0000 0.0000 0.0000 0.0000 0.0000 36.3621
#
#
#
# Elastic Compliance Matrix: (Units=1/GPa)
#
#
# Indices 1 2 3 4 5 6 
#
# 1 0.016932 -0.004624 0.000327 0.000000 0.000000 0.000000
# 2 -0.004624 0.008861 -0.003630 0.000000 0.000000 0.000000
# 3 0.000327 -0.003630 0.010064 0.000000 0.000000 0.000000
# 4 0.000000 0.000000 0.000000 0.044875 0.000000 0.000000
# 5 0.000000 0.000000 0.000000 0.000000 0.040696 0.000000
# 6 0.000000 0.000000 0.000000 0.000000 0.000000 0.027501
#
#
# Mechanical properties :
#
#
# Convention : Reuss Voigt Hill
#
# Bulk Modulus (GPa) = 49.99193 63.00010 56.49602
# Shear Modulus (GPa) = 29.16269 32.40635 30.78452
#
# Velocity S-wave (km/s) = 3.75840 3.96191 3.86149
# Velocity P-wave (km/s) = 6.56115 7.17247 6.87361
#
# Compressibility (1/GPa) = 0.02000323
#
# Stress axis : x y z
#
# Youngs Moduli (GPa) = 59.05858 112.85154 99.36039
#
# Poissons Ratio (x) = 0.52179 -0.03245
# Poissons Ratio (y) = 0.27307 0.36070
# Poissons Ratio (z) = -0.01929 0.40968
#
# Static dielectric constant tensor:
#      x y z
#    x 3.985960 0.000000 0.000000 
#    y 0.000000 3.913650 0.000000 
#    z 0.000000 0.000000 3.554040 
# 
# 
# High freq. dielectric constant tensor:
#      x y z
#    x 1.837780 0.000000 0.000000 
#    y 0.000000 1.809640 0.000000 
#    z 0.000000 0.000000 1.780610 
# 
# From -- ./inp_files/3356.got.cif
#   From: 2010.03.12/outbox.cif.g09.slc.cpg/sg61_2_cif.got.tgz:3356.got - 2010.04.10 19:05:03.
