data_PCOD8249401
_publ_section_title
;
Structure prediction by ZEFSAII (Michael W. Deem and Ramdas Pophale) SiO2 
 PCOD8249401
Probable space group: P B C A
;
_chemical_formula_sum "Si O2"
_cell_formula_units_Z 40
_cell_length_a 7.945135
_cell_length_b 11.314631
_cell_length_c 19.264101
_cell_angle_alpha 90.000000
_cell_angle_beta 90.000000
_cell_angle_gamma 90.000000
_cell_volume 1731.770840
_symmetry_space_group_name_H-M "P B C A"
_symmetry_group_IT_number 61
_symmetry_cell_setting 'orthorhombic'
loop_
_space_group_symop_operation_xyz
x,y,z
1/2-x,-y,1/2+z
1/2+x,1/2-y,-z
-x,1/2+y,1/2-z
-x,-y,-z
1/2+x,y,1/2-z
1/2-x,1/2+y,z
x,1/2-y,1/2+z
loop_
_atom_site_type_symbol
_atom_site_label
_atom_site_fract_x
_atom_site_fract_y
_atom_site_fract_z
Si Si1 0.077029 0.239876 0.643617
Si Si2 0.730883 0.561019 0.946562
Si Si3 0.362981 0.037720 0.790936
Si Si4 0.320564 0.420555 0.675371
Si Si5 0.114002 0.530175 0.407452
O O1 0.163284 0.174448 0.578354
O O2 0.230133 0.295473 0.689769
O O3 0.969141 0.156045 0.694349
O O4 0.958373 0.342453 0.613982
O O5 0.811412 0.448034 0.906965
O O6 0.530997 0.563390 0.928834
O O7 0.747102 0.547162 0.029495
O O8 0.487254 0.923417 0.799141
O O9 0.285047 0.027679 0.713779
O O10 0.209449 0.028708 0.843774
#
# Coordination Sequence:
#
# PCOD8249401 Si02
#       5
#     8   8   8   8   8
#     4  10  23  40  62  88 123 168 203 249 317 364
#     4   9  21  40  61  89 125 159 203 253 299 366
#     4  11  24  41  63  90 123 158 205 258 304 365
#     4  10  22  40  61  90 123 159 207 257 307 370
#     4  10  22  40  63  94 126 160 208 256 303 367
#
# _framework density 23.097743999999999
#
# number of rings (size 3 to 8) (size 9 to 14) (size 15 to 20)
#    0.000    2.000    0.000    2.400    0.000   17.600 
#    0.000    0.000    0.000    0.000    0.000    0.000 
#    0.000    0.000    0.000    0.000    0.000    0.000 
#
# Total GULP energy -495720.973423 kJ/mol
# GULP energy per Si atom -12393.024336 kJ/mol
# Density = 2.304517 g / cm^3
# Si number density = 23.097744 Si / 1000 Ang^3
#
#
#
# Elastic Constant Matrix: (Units=GPa)
#
#
# Indices 1 2 3 4 5 6 
#
# 1 51.6726 1.7773 -17.9565 0.0000 0.0000 0.0000
# 2 1.7773 78.7278 -5.6539 0.0000 0.0000 0.0000
# 3 -17.9565 -5.6539 48.2543 0.0000 0.0000 0.0000
# 4 0.0000 0.0000 0.0000 16.5261 0.0000 0.0000
# 5 0.0000 0.0000 0.0000 0.0000 36.3542 0.0000
# 6 0.0000 0.0000 0.0000 0.0000 0.0000 49.1589
#
#
#
# Elastic Compliance Matrix: (Units=1/GPa)
#
#
# Indices 1 2 3 4 5 6 
#
# 1 0.022228 0.000093 0.008282 0.000000 0.000000 0.000000
# 2 0.000093 0.012810 0.001536 0.000000 0.000000 0.000000
# 3 0.008282 0.001536 0.023985 0.000000 0.000000 0.000000
# 4 0.000000 0.000000 0.000000 0.060510 0.000000 0.000000
# 5 0.000000 0.000000 0.000000 0.000000 0.027507 0.000000
# 6 0.000000 0.000000 0.000000 0.000000 0.000000 0.020342
#
#
# Mechanical properties :
#
#
# Convention : Reuss Voigt Hill
#
# Bulk Modulus (GPa) = 12.68313 14.99871 13.84092
# Shear Modulus (GPa) = 28.76164 33.77370 31.26767
#
# Velocity S-wave (km/s) = 3.53259 3.82803 3.68327
# Velocity P-wave (km/s) = 4.70552 5.10354 4.90856
#
# Compressibility (1/GPa) = 0.07884487
#
# Stress axis : x y z
#
# Youngs Moduli (GPa) = 44.98924 78.06292 41.69188
#
# Poissons Ratio (x) = -0.00726 -0.34530
# Poissons Ratio (y) = -0.00418 -0.06402
# Poissons Ratio (z) = -0.37261 -0.11987
#
# Static dielectric constant tensor:
#      x y z
#    x 4.403910 0.000000 0.000000 
#    y 0.000000 4.012460 0.000000 
#    z 0.000000 0.000000 4.151740 
# 
# 
# High freq. dielectric constant tensor:
#      x y z
#    x 1.924000 0.000000 0.000000 
#    y 0.000000 1.889370 0.000000 
#    z 0.000000 0.000000 1.912730 
# 
# From -- ./inp_files/2142.got.cif
#   From: 2010.03.12/outbox.cif.g09.slc.cpg/sg61_2_cif.got.tgz:2142.got - 2010.04.10 19:05:03.
