data_PCOD8249479
_publ_section_title
;
Structure prediction by ZEFSAII (Michael W. Deem and Ramdas Pophale) SiO2 
 PCOD8249479
Probable space group: P B C A
;
_chemical_formula_sum "Si O2"
_cell_formula_units_Z 40
_cell_length_a 8.842958
_cell_length_b 9.084771
_cell_length_c 17.528493
_cell_angle_alpha 90.000000
_cell_angle_beta 90.000000
_cell_angle_gamma 90.000000
_cell_volume 1408.173368
_symmetry_space_group_name_H-M "P B C A"
_symmetry_group_IT_number 61
_symmetry_cell_setting 'orthorhombic'
loop_
_space_group_symop_operation_xyz
x,y,z
1/2-x,-y,1/2+z
1/2+x,1/2-y,-z
-x,1/2+y,1/2-z
-x,-y,-z
1/2+x,y,1/2-z
1/2-x,1/2+y,z
x,1/2-y,1/2+z
loop_
_atom_site_type_symbol
_atom_site_label
_atom_site_fract_x
_atom_site_fract_y
_atom_site_fract_z
Si Si1 0.349505 0.362750 0.665557
Si Si2 0.080440 0.916012 0.346300
Si Si3 0.031414 0.444398 0.698518
Si Si4 0.513000 0.137479 0.561300
Si Si5 0.217821 0.844783 0.931036
O O1 0.409661 0.524457 0.635765
O O2 0.169866 0.348671 0.667044
O O3 0.421743 0.341056 0.750497
O O4 0.402284 0.242452 0.606652
O O5 0.106097 0.929880 0.254226
O O6 0.192028 0.027314 0.389722
O O7 0.107285 0.748616 0.373814
O O8 0.941110 0.514104 0.625783
O O9 0.398966 0.079313 0.493267
O O10 0.662146 0.227034 0.533237
#
# Coordination Sequence:
#
# PCOD8249479 Si02
#       5
#     8   8   8   8   8
#     4   9  23  42  69  96 138 184 238 293 350 414
#     4   9  24  44  71  95 147 182 237 296 345 420
#     4  10  22  43  70  99 135 190 245 282 353 415
#     4  11  26  43  70 104 144 190 236 293 364 424
#     4  11  25  47  68 105 148 186 235 298 361 424
#
# _framework density 28.405591000000001
#
# number of rings (size 3 to 8) (size 9 to 14) (size 15 to 20)
#    1.200    0.800    0.000    1.200    8.400    4.000 
#    3.600    0.000    0.000    0.000    0.000    0.000 
#    0.000    0.000    0.000    0.000    0.000    0.000 
#
# Total GULP energy -495694.166043 kJ/mol
# GULP energy per Si atom -12392.354151 kJ/mol
# Density = 2.834094 g / cm^3
# Si number density = 28.405591 Si / 1000 Ang^3
#
#
#
# Elastic Constant Matrix: (Units=GPa)
#
#
# Indices 1 2 3 4 5 6 
#
# 1 147.5266 -1.6400 31.4570 0.0000 0.0000 0.0000
# 2 -1.6400 107.6680 27.1541 0.0000 0.0000 0.0000
# 3 31.4570 27.1541 133.9805 0.0000 0.0000 0.0000
# 4 0.0000 0.0000 0.0000 30.8607 0.0000 0.0000
# 5 0.0000 0.0000 0.0000 0.0000 57.1304 0.0000
# 6 0.0000 0.0000 0.0000 0.0000 0.0000 44.2149
#
#
#
# Elastic Compliance Matrix: (Units=1/GPa)
#
#
# Indices 1 2 3 4 5 6 
#
# 1 0.007168 0.000562 -0.001797 0.000000 0.000000 0.000000
# 2 0.000562 0.009832 -0.002125 0.000000 0.000000 0.000000
# 3 -0.001797 -0.002125 0.008316 0.000000 0.000000 0.000000
# 4 0.000000 0.000000 0.000000 0.032404 0.000000 0.000000
# 5 0.000000 0.000000 0.000000 0.000000 0.017504 0.000000
# 6 0.000000 0.000000 0.000000 0.000000 0.000000 0.022617
#
#
# Mechanical properties :
#
#
# Convention : Reuss Voigt Hill
#
# Bulk Modulus (GPa) = 53.76980 55.90191 54.83585
# Shear Modulus (GPa) = 45.14323 48.58812 46.86567
#
# Velocity S-wave (km/s) = 3.99085 4.14032 4.06627
# Velocity P-wave (km/s) = 6.34084 6.52526 6.43371
#
# Compressibility (1/GPa) = 0.01859780
#
# Stress axis : x y z
#
# Youngs Moduli (GPa) = 139.51203 101.70611 120.24590
#
# Poissons Ratio (x) = -0.05720 0.21607
# Poissons Ratio (y) = -0.07846 0.25549
# Poissons Ratio (z) = 0.25069 0.21610
#
# Static dielectric constant tensor:
#      x y z
#    x 5.354020 0.000000 0.000000 
#    y 0.000000 5.690580 0.000000 
#    z 0.000000 0.000000 5.394700 
# 
# 
# High freq. dielectric constant tensor:
#      x y z
#    x 2.169650 0.000000 0.000000 
#    y 0.000000 2.177590 0.000000 
#    z 0.000000 0.000000 2.155760 
# 
# From -- ./inp_files/7366.got.cif
#   From: 2010.03.12/outbox.cif.g09.slc.cpg/sg61_4_cif.got.tgz:7366.got - 2010.04.10 19:05:03.
