data_PCOD8249730
_publ_section_title
;
Structure prediction by ZEFSAII (Michael W. Deem and Ramdas Pophale) SiO2 
 PCOD8249730
Probable space group: P B C A
;
_chemical_formula_sum "Si O2"
_cell_formula_units_Z 48
_cell_length_a 18.648792
_cell_length_b 13.425729
_cell_length_c 8.466762
_cell_angle_alpha 90.000000
_cell_angle_beta 90.000000
_cell_angle_gamma 90.000000
_cell_volume 2119.853916
_symmetry_space_group_name_H-M "P B C A"
_symmetry_group_IT_number 61
_symmetry_cell_setting 'orthorhombic'
loop_
_space_group_symop_operation_xyz
x,y,z
1/2-x,-y,1/2+z
1/2+x,1/2-y,-z
-x,1/2+y,1/2-z
-x,-y,-z
1/2+x,y,1/2-z
1/2-x,1/2+y,z
x,1/2-y,1/2+z
loop_
_atom_site_type_symbol
_atom_site_label
_atom_site_fract_x
_atom_site_fract_y
_atom_site_fract_z
Si Si1 0.923542 0.088250 0.587455
Si Si2 0.305959 0.972072 0.770602
Si Si3 0.981090 0.733748 0.410873
Si Si4 0.960972 0.454317 0.749618
Si Si5 0.373878 0.767123 0.837922
Si Si6 0.168118 0.056836 0.904752
O O1 0.957053 0.191602 0.647600
O O2 0.916586 0.090388 0.397031
O O3 0.844220 0.069479 0.654540
O O4 0.970034 0.000325 0.665087
O O5 0.331573 0.871151 0.860775
O O6 0.321772 0.969782 0.586294
O O7 0.222012 0.990665 0.800175
O O8 0.012071 0.623964 0.381936
O O9 0.899669 0.744595 0.342470
O O10 0.955807 0.762478 0.588145
O O11 0.912500 0.532286 0.653137
O O12 0.321592 0.675692 0.882638
#
# Coordination Sequence:
#
# PCOD8249730 Si02
#       6
#     8   8   8   8   8   8
#     4  11  22  41  68 101 136 174 228 286 340 404
#     4  12  28  46  70 102 139 189 232 286 353 414
#     4  12  23  41  71 105 138 179 227 288 344 410
#     4  11  23  41  69 102 134 176 229 284 340 407
#     4  12  24  45  70 100 136 182 228 281 351 411
#     4  12  28  45  71 100 141 185 233 287 347 424
#
# _framework density 22.643070000000002
#
# number of rings (size 3 to 8) (size 9 to 14) (size 15 to 20)
#    0.000    0.333    6.667    2.000    4.667    2.667 
#    0.000    0.000    0.000    0.000    0.000    0.000 
#    0.000    0.000    0.000    0.000    0.000    0.000 
#
# Total GULP energy -594998.313016 kJ/mol
# GULP energy per Si atom -12395.798188 kJ/mol
# Density = 2.259153 g / cm^3
# Si number density = 22.643070 Si / 1000 Ang^3
#
#
#
# Elastic Constant Matrix: (Units=GPa)
#
#
# Indices 1 2 3 4 5 6 
#
# 1 72.2040 36.6112 21.8906 0.0000 0.0000 0.0000
# 2 36.6112 119.7513 14.7987 0.0000 0.0000 0.0000
# 3 21.8906 14.7987 59.6046 0.0000 0.0000 0.0000
# 4 0.0000 0.0000 0.0000 28.9890 0.0000 0.0000
# 5 0.0000 0.0000 0.0000 0.0000 37.9863 0.0000
# 6 0.0000 0.0000 0.0000 0.0000 0.0000 42.4491
#
#
#
# Elastic Compliance Matrix: (Units=1/GPa)
#
#
# Indices 1 2 3 4 5 6 
#
# 1 0.017924 -0.004814 -0.005388 0.000000 0.000000 0.000000
# 2 -0.004814 0.009908 -0.000692 0.000000 0.000000 0.000000
# 3 -0.005388 -0.000692 0.018928 0.000000 0.000000 0.000000
# 4 0.000000 0.000000 0.000000 0.034496 0.000000 0.000000
# 5 0.000000 0.000000 0.000000 0.000000 0.026325 0.000000
# 6 0.000000 0.000000 0.000000 0.000000 0.000000 0.023558
#
#
# Mechanical properties :
#
#
# Convention : Reuss Voigt Hill
#
# Bulk Modulus (GPa) = 40.04407 44.24008 42.14208
# Shear Modulus (GPa) = 31.00780 33.76882 32.38831
#
# Velocity S-wave (km/s) = 3.70458 3.86599 3.78615
# Velocity P-wave (km/s) = 6.00182 6.28556 6.14533
#
# Compressibility (1/GPa) = 0.02497249
#
# Stress axis : x y z
#
# Youngs Moduli (GPa) = 55.79104 100.92925 52.83265
#
# Poissons Ratio (x) = 0.48588 0.28464
# Poissons Ratio (y) = 0.26858 0.03656
# Poissons Ratio (z) = 0.30058 0.06984
#
# Static dielectric constant tensor:
#      x y z
#    x 3.901810 0.000000 0.000000 
#    y 0.000000 3.957810 0.000000 
#    z 0.000000 0.000000 4.131490 
# 
# 
# High freq. dielectric constant tensor:
#      x y z
#    x 1.873100 0.000000 0.000000 
#    y 0.000000 1.889110 0.000000 
#    z 0.000000 0.000000 1.912430 
# 
# From -- ./inp_files/3464.got.cif
#   From: 2010.03.12/outbox.cif.g09.slc.cpg/sg61_2_cif.got.tgz:3464.got - 2010.04.10 19:05:03.
