data_PCOD8249389
_publ_section_title
;
Structure prediction by ZEFSAII (Michael W. Deem and Ramdas Pophale) SiO2 
 PCOD8249389
Probable space group: P B C A
;
_chemical_formula_sum "Si O2"
_cell_formula_units_Z 64
_cell_length_a 13.885779
_cell_length_b 12.196502
_cell_length_c 18.215443
_cell_angle_alpha 90.000000
_cell_angle_beta 90.000000
_cell_angle_gamma 90.000000
_cell_volume 3084.929745
_symmetry_space_group_name_H-M "P B C A"
_symmetry_group_IT_number 61
_symmetry_cell_setting 'orthorhombic'
loop_
_space_group_symop_operation_xyz
x,y,z
1/2-x,-y,1/2+z
1/2+x,1/2-y,-z
-x,1/2+y,1/2-z
-x,-y,-z
1/2+x,y,1/2-z
1/2-x,1/2+y,z
x,1/2-y,1/2+z
loop_
_atom_site_type_symbol
_atom_site_label
_atom_site_fract_x
_atom_site_fract_y
_atom_site_fract_z
Si Si1 0.183913 0.055978 0.708448
Si Si2 0.604073 0.544233 0.016347
Si Si3 0.905990 0.261344 0.928411
Si Si4 0.393422 0.129986 0.713145
Si Si5 0.454532 0.046261 0.324914
Si Si6 0.709461 0.527173 0.451936
Si Si7 0.474682 0.713798 0.665747
Si Si8 0.950020 0.616508 0.992461
O O1 0.289784 0.084253 0.737943
O O2 0.126869 0.170478 0.697650
O O3 0.120746 0.974945 0.759215
O O4 0.201922 0.991678 0.634124
O O5 0.621297 0.659859 0.978716
O O6 0.682674 0.461028 0.982466
O O7 0.500000 0.500000 0.000000
O O8 0.613929 0.549663 0.103933
O O9 0.885875 0.233798 0.842907
O O10 0.840636 0.356428 0.963828
O O11 0.017413 0.303489 0.940306
O O12 0.437827 0.157747 0.791365
O O13 0.462170 0.045178 0.669899
O O14 0.515907 0.157536 0.318879
O O15 0.662154 0.419241 0.492109
O O16 0.482695 0.680874 0.580835
O O17 0.000000 0.500000 0.000000
#
# Coordination Sequence:
#
# PCOD8249389 Si02
#       8
#     8   8   8   8   8   8   8   8
#     4  10  22  41  61  93 124 165 217 261 315 397
#     4  12  23  40  63  97 130 167 213 269 329 385
#     4  11  21  39  66  91 126 173 209 265 330 385
#     4  11  23  42  64  95 127 171 220 263 329 393
#     4  11  23  41  63  94 132 165 213 275 324 386
#     4  10  22  40  63  95 127 169 218 261 323 397
#     4  10  22  39  64  88 124 168 207 264 328 379
#     4   9  20  39  63  90 123 164 213 265 321 383
#
# _framework density 20.746016000000001
#
# number of rings (size 3 to 8) (size 9 to 14) (size 15 to 20)
#    0.000    1.500    3.750    0.750    0.000    7.000 
#    0.000    1.250    0.000    0.000    0.000    0.000 
#    0.000    0.000    0.000    0.000    0.000    0.000 
#
# Total GULP energy -793135.685118 kJ/mol
# GULP energy per Si atom -12392.745080 kJ/mol
# Density = 2.069880 g / cm^3
# Si number density = 20.746016 Si / 1000 Ang^3
#
#
#
# Elastic Constant Matrix: (Units=GPa)
#
#
# Indices 1 2 3 4 5 6 
#
# 1 125.8278 33.4284 39.2776 0.0000 0.0000 0.0000
# 2 33.4284 88.9751 22.5590 0.0000 0.0000 0.0000
# 3 39.2776 22.5590 62.8643 0.0000 0.0000 0.0000
# 4 0.0000 0.0000 0.0000 33.8009 0.0000 0.0000
# 5 0.0000 0.0000 0.0000 0.0000 31.9421 0.0000
# 6 0.0000 0.0000 0.0000 0.0000 0.0000 25.6450
#
#
#
# Elastic Compliance Matrix: (Units=1/GPa)
#
#
# Indices 1 2 3 4 5 6 
#
# 1 0.010345 -0.002473 -0.005576 0.000000 0.000000 0.000000
# 2 -0.002473 0.012955 -0.003104 0.000000 0.000000 0.000000
# 3 -0.005576 -0.003104 0.020505 0.000000 0.000000 0.000000
# 4 0.000000 0.000000 0.000000 0.029585 0.000000 0.000000
# 5 0.000000 0.000000 0.000000 0.000000 0.031307 0.000000
# 6 0.000000 0.000000 0.000000 0.000000 0.000000 0.038994
#
#
# Mechanical properties :
#
#
# Convention : Reuss Voigt Hill
#
# Bulk Modulus (GPa) = 46.51308 52.02191 49.26750
# Shear Modulus (GPa) = 28.87454 30.43777 29.65615
#
# Velocity S-wave (km/s) = 3.73475 3.83451 3.78496
# Velocity P-wave (km/s) = 6.40833 6.68840 6.54986
#
# Compressibility (1/GPa) = 0.02149933
#
# Stress axis : x y z
#
# Youngs Moduli (GPa) = 96.66572 77.18939 48.76842
#
# Poissons Ratio (x) = 0.19088 0.27194
# Poissons Ratio (y) = 0.23904 0.15137
# Poissons Ratio (z) = 0.53902 0.23959
#
# Static dielectric constant tensor:
#      x y z
#    x 4.202540 0.000000 0.000000 
#    y 0.000000 4.092490 0.000000 
#    z 0.000000 0.000000 3.823050 
# 
# 
# High freq. dielectric constant tensor:
#      x y z
#    x 1.811880 0.000000 0.000000 
#    y 0.000000 1.817390 0.000000 
#    z 0.000000 0.000000 1.807770 
# 
# From -- ./inp_files/9532.got.cif
#   From: 2010.03.12/outbox.cif.g09.slc.cpg/sg61_5_cif.got.tgz:9532.got - 2010.04.10 19:05:03.
