data_PCOD8249114
_publ_section_title
;
Structure prediction by ZEFSAII (Michael W. Deem and Ramdas Pophale) SiO2 
 PCOD8249114
Probable space group: P B C A
;
_chemical_formula_sum "Si O2"
_cell_formula_units_Z 56
_cell_length_a 19.141608
_cell_length_b 24.733665
_cell_length_c 4.948970
_cell_angle_alpha 90.000000
_cell_angle_beta 90.000000
_cell_angle_gamma 90.000000
_cell_volume 2343.050848
_symmetry_space_group_name_H-M "P B C A"
_symmetry_group_IT_number 61
_symmetry_cell_setting 'orthorhombic'
loop_
_space_group_symop_operation_xyz
x,y,z
1/2-x,-y,1/2+z
1/2+x,1/2-y,-z
-x,1/2+y,1/2-z
-x,-y,-z
1/2+x,y,1/2-z
1/2-x,1/2+y,z
x,1/2-y,1/2+z
loop_
_atom_site_type_symbol
_atom_site_label
_atom_site_fract_x
_atom_site_fract_y
_atom_site_fract_z
Si Si1 0.671822 0.131965 0.300773
Si Si2 0.915581 0.478900 0.781815
Si Si3 0.429768 0.786802 0.523069
Si Si4 0.268045 0.211962 0.490264
Si Si5 0.938158 0.951546 0.783932
Si Si6 0.265496 0.464781 0.601242
Si Si7 0.920249 0.284858 0.432787
O O1 0.634576 0.171729 0.517943
O O2 0.713805 0.163711 0.066924
O O3 0.606477 0.099034 0.171792
O O4 0.723548 0.090628 0.453654
O O5 0.909900 0.529884 0.577267
O O6 0.841645 0.448111 0.786097
O O7 0.978488 0.438440 0.693952
O O8 0.930347 0.498342 0.084070
O O9 0.422146 0.736443 0.324282
O O10 0.506337 0.816172 0.492191
O O11 0.256131 0.239019 0.780403
O O12 0.347014 0.185968 0.486791
O O13 0.273848 0.498833 0.325857
O O14 0.921100 0.269716 0.116391
#
# Coordination Sequence:
#
# PCOD8249114 Si02
#       7
#     8   8   8   8   8   8   8
#     4  12  24  38  64  92 120 166 206 250 320 370
#     4  10  20  43  59  85 122 153 205 253 311 349
#     4  10  22  39  60  88 124 156 202 254 301 365
#     4  10  22  39  60  90 127 159 200 252 308 370
#     4  10  22  37  65  85 114 163 200 257 298 367
#     4  12  24  41  62  89 124 159 204 260 312 367
#     4   8  16  35  58  79 113 158 191 240 300 354
#
# _framework density 23.900463999999999
#
# number of rings (size 3 to 8) (size 9 to 14) (size 15 to 20)
#    0.000    1.714    2.857    0.857    0.000    5.714 
#    0.000    0.000    0.000   13.714    0.000    0.000 
#    0.000    0.000    0.000    0.000    0.000    0.000 
#
# Total GULP energy -693880.155786 kJ/mol
# GULP energy per Si atom -12390.717068 kJ/mol
# Density = 2.384607 g / cm^3
# Si number density = 23.900464 Si / 1000 Ang^3
#
#
#
# Elastic Constant Matrix: (Units=GPa)
#
#
# Indices 1 2 3 4 5 6 
#
# 1 199.1621 61.6777 6.9048 0.0000 0.0000 0.0000
# 2 61.6777 68.8979 1.4534 0.0000 0.0000 0.0000
# 3 6.9048 1.4534 71.8333 0.0000 0.0000 0.0000
# 4 0.0000 0.0000 0.0000 5.2969 0.0000 0.0000
# 5 0.0000 0.0000 0.0000 0.0000 23.4616 0.0000
# 6 0.0000 0.0000 0.0000 0.0000 0.0000 47.2772
#
#
#
# Elastic Compliance Matrix: (Units=1/GPa)
#
#
# Indices 1 2 3 4 5 6 
#
# 1 0.006968 -0.006226 -0.000544 0.000000 0.000000 0.000000
# 2 -0.006226 0.020084 0.000192 0.000000 0.000000 0.000000
# 3 -0.000544 0.000192 0.013970 0.000000 0.000000 0.000000
# 4 0.000000 0.000000 0.000000 0.188789 0.000000 0.000000
# 5 0.000000 0.000000 0.000000 0.000000 0.042623 0.000000
# 6 0.000000 0.000000 0.000000 0.000000 0.000000 0.021152
#
#
# Mechanical properties :
#
#
# Convention : Reuss Voigt Hill
#
# Bulk Modulus (GPa) = 35.88661 53.32946 44.60804
# Shear Modulus (GPa) = 15.82130 33.19764 24.50947
#
# Velocity S-wave (km/s) = 2.57566 3.73097 3.20579
# Velocity P-wave (km/s) = 4.88805 6.39701 5.69275
#
# Compressibility (1/GPa) = 0.02786555
#
# Stress axis : x y z
#
# Youngs Moduli (GPa) = 143.51051 49.79058 71.58446
#
# Poissons Ratio (x) = 0.31002 0.03893
# Poissons Ratio (y) = 0.89356 -0.01375
# Poissons Ratio (z) = 0.07804 -0.00957
#
# Static dielectric constant tensor:
#      x y z
#    x 5.149100 0.000000 0.000000 
#    y 0.000000 3.665800 0.000000 
#    z 0.000000 0.000000 4.065310 
# 
# 
# High freq. dielectric constant tensor:
#      x y z
#    x 1.991460 0.000000 0.000000 
#    y 0.000000 1.883510 0.000000 
#    z 0.000000 0.000000 1.942020 
# 
# From -- ./inp_files/1035.got.cif
#   From: 2010.03.12/outbox.cif.g09.slc.cpg/sg61_1_cif.got.tgz:1035.got - 2010.04.10 19:05:03.
