data_PCOD8249717
_publ_section_title
;
Structure prediction by ZEFSAII (Michael W. Deem and Ramdas Pophale) SiO2 
 PCOD8249717
Probable space group: P B C A
;
_chemical_formula_sum "Si O2"
_cell_formula_units_Z 40
_cell_length_a 7.713393
_cell_length_b 16.151845
_cell_length_c 14.293247
_cell_angle_alpha 90.000000
_cell_angle_beta 90.000000
_cell_angle_gamma 90.000000
_cell_volume 1780.731727
_symmetry_space_group_name_H-M "P B C A"
_symmetry_group_IT_number 61
_symmetry_cell_setting 'orthorhombic'
loop_
_space_group_symop_operation_xyz
x,y,z
1/2-x,-y,1/2+z
1/2+x,1/2-y,-z
-x,1/2+y,1/2-z
-x,-y,-z
1/2+x,y,1/2-z
1/2-x,1/2+y,z
x,1/2-y,1/2+z
loop_
_atom_site_type_symbol
_atom_site_label
_atom_site_fract_x
_atom_site_fract_y
_atom_site_fract_z
Si Si1 0.893748 0.098920 0.838525
Si Si2 0.941905 0.258109 0.717028
Si Si3 0.230529 0.532866 0.849925
Si Si4 0.566467 0.146121 0.933803
Si Si5 0.870594 0.652302 0.138939
O O1 0.805775 0.041474 0.759980
O O2 0.754296 0.101414 0.923155
O O3 0.923368 0.189461 0.796704
O O4 0.074838 0.061743 0.875384
O O5 0.072246 0.224763 0.636904
O O6 0.999088 0.342077 0.771933
O O7 0.766499 0.275858 0.661809
O O8 0.212743 0.437055 0.874497
O O9 0.091786 0.585281 0.908996
O O10 0.540109 0.176118 0.040323
#
# Coordination Sequence:
#
# PCOD8249717 Si02
#       5
#     8   8   8   8   8
#     4  11  21  45  71  92 140 194 217 268 362 406
#     4  11  23  45  67  97 141 180 222 285 344 407
#     4  11  22  44  71  99 140 180 229 284 338 408
#     4  11  25  45  71  98 141 185 225 282 352 410
#     4  12  26  43  70 108 133 175 239 292 333 405
#
# _framework density 22.462678
#
# number of rings (size 3 to 8) (size 9 to 14) (size 15 to 20)
#    0.000    0.800    6.000    3.000    2.800    0.800 
#    3.600    0.000    0.000    0.000    0.000    0.000 
#    0.000    0.000    0.000    0.000    0.000    0.000 
#
# Total GULP energy -495917.327525 kJ/mol
# GULP energy per Si atom -12397.933188 kJ/mol
# Density = 2.241155 g / cm^3
# Si number density = 22.462678 Si / 1000 Ang^3
#
#
#
# Elastic Constant Matrix: (Units=GPa)
#
#
# Indices 1 2 3 4 5 6 
#
# 1 110.5700 1.9542 27.0730 0.0000 0.0000 0.0000
# 2 1.9542 60.2943 32.5653 0.0000 0.0000 0.0000
# 3 27.0730 32.5653 112.8714 0.0000 0.0000 0.0000
# 4 0.0000 0.0000 0.0000 23.2556 0.0000 0.0000
# 5 0.0000 0.0000 0.0000 0.0000 20.4961 0.0000
# 6 0.0000 0.0000 0.0000 0.0000 0.0000 29.8661
#
#
#
# Elastic Compliance Matrix: (Units=1/GPa)
#
#
# Indices 1 2 3 4 5 6 
#
# 1 0.009671 0.001113 -0.002641 0.000000 0.000000 0.000000
# 2 0.001113 0.019775 -0.005972 0.000000 0.000000 0.000000
# 3 -0.002641 -0.005972 0.011216 0.000000 0.000000 0.000000
# 4 0.000000 0.000000 0.000000 0.043000 0.000000 0.000000
# 5 0.000000 0.000000 0.000000 0.000000 0.048790 0.000000
# 6 0.000000 0.000000 0.000000 0.000000 0.000000 0.033483
#
#
# Mechanical properties :
#
#
# Convention : Reuss Voigt Hill
#
# Bulk Modulus (GPa) = 38.96873 45.21341 42.09107
# Shear Modulus (GPa) = 26.38674 29.53312 27.95993
#
# Velocity S-wave (km/s) = 3.43110 3.62990 3.53190
# Velocity P-wave (km/s) = 5.75173 6.14330 5.95074
#
# Compressibility (1/GPa) = 0.02566160
#
# Stress axis : x y z
#
# Youngs Moduli (GPa) = 103.40241 50.56912 89.15721
#
# Poissons Ratio (x) = -0.05627 0.23544
# Poissons Ratio (y) = -0.11507 0.53247
# Poissons Ratio (z) = 0.27306 0.30201
#
# Static dielectric constant tensor:
#      x y z
#    x 4.181730 0.000000 0.000000 
#    y 0.000000 3.887180 0.000000 
#    z 0.000000 0.000000 4.100940 
# 
# 
# High freq. dielectric constant tensor:
#      x y z
#    x 1.894160 0.000000 0.000000 
#    y 0.000000 1.874180 0.000000 
#    z 0.000000 0.000000 1.878070 
# 
# From -- ./inp_files/2661.got.cif
#   From: 2010.03.12/outbox.cif.g09.slc.cpg/sg61_2_cif.got.tgz:2661.got - 2010.04.10 19:05:03.
