data_PCOD8249807
_publ_section_title
;
Structure prediction by ZEFSAII (Michael W. Deem and Ramdas Pophale) SiO2 
 PCOD8249807
Probable space group: P B C A
;
_chemical_formula_sum "Si O2"
_cell_formula_units_Z 64
_cell_length_a 23.220360
_cell_length_b 8.851624
_cell_length_c 13.300364
_cell_angle_alpha 90.000000
_cell_angle_beta 90.000000
_cell_angle_gamma 90.000000
_cell_volume 2733.728831
_symmetry_space_group_name_H-M "P B C A"
_symmetry_group_IT_number 61
_symmetry_cell_setting 'orthorhombic'
loop_
_space_group_symop_operation_xyz
x,y,z
1/2-x,-y,1/2+z
1/2+x,1/2-y,-z
-x,1/2+y,1/2-z
-x,-y,-z
1/2+x,y,1/2-z
1/2-x,1/2+y,z
x,1/2-y,1/2+z
loop_
_atom_site_type_symbol
_atom_site_label
_atom_site_fract_x
_atom_site_fract_y
_atom_site_fract_z
Si Si1 0.209997 0.136078 0.653872
Si Si2 0.876247 0.110466 0.284723
Si Si3 0.986205 0.747117 0.393558
Si Si4 0.938508 0.324816 0.422148
Si Si5 0.986025 0.974605 0.229283
Si Si6 0.763925 0.499164 0.541188
Si Si7 0.792073 0.274512 0.168324
Si Si8 0.130894 0.374049 0.561348
O O1 0.248220 0.101083 0.555490
O O2 0.250781 0.167302 0.745637
O O3 0.168479 0.282451 0.643906
O O4 0.177192 0.981118 0.673689
O O5 0.910221 0.172276 0.381709
O O6 0.856108 0.252434 0.214807
O O7 0.917551 0.001886 0.219580
O O8 0.039952 0.700825 0.463891
O O9 0.981956 0.632676 0.297433
O O10 0.997556 0.911751 0.343347
O O11 0.925856 0.732488 0.456757
O O12 0.892203 0.459680 0.409676
O O13 0.994962 0.355468 0.354968
O O14 0.711278 0.610493 0.573819
O O15 0.773281 0.391282 0.634985
O O16 0.823164 0.597860 0.528663
#
# Coordination Sequence:
#
# PCOD8249807 Si02
#       8
#     8   8   8   8   8   8   8   8
#     4  12  26  49  69 109 150 183 249 309 361 444
#     4  12  26  46  74 103 147 195 240 305 364 434
#     4  11  25  47  74 106 147 192 240 306 363 436
#     4  11  27  45  74 106 146 194 237 306 370 437
#     4  11  23  48  69 107 143 185 247 295 351 450
#     4  12  27  47  73 109 144 194 243 303 369 451
#     4  12  28  46  75 106 145 194 246 298 368 439
#     4  11  24  46  72 102 145 189 235 302 371 418
#
# _framework density 23.411246999999999
#
# number of rings (size 3 to 8) (size 9 to 14) (size 15 to 20)
#    0.000    0.500    5.000    3.000    7.000    0.500 
#    0.000    0.000    0.000    0.000    0.000    0.000 
#    0.000    0.000    0.000    0.000    0.000    0.000 
#
# Total GULP energy -792898.108613 kJ/mol
# GULP energy per Si atom -12389.032947 kJ/mol
# Density = 2.335796 g / cm^3
# Si number density = 23.411247 Si / 1000 Ang^3
#
#
#
# Elastic Constant Matrix: (Units=GPa)
#
#
# Indices 1 2 3 4 5 6 
#
# 1 98.1850 37.0583 51.8937 0.0000 0.0000 0.0000
# 2 37.0583 86.5528 50.3547 0.0000 0.0000 0.0000
# 3 51.8937 50.3547 103.4540 0.0000 0.0000 0.0000
# 4 0.0000 0.0000 0.0000 32.4027 0.0000 0.0000
# 5 0.0000 0.0000 0.0000 0.0000 30.8083 0.0000
# 6 0.0000 0.0000 0.0000 0.0000 0.0000 46.0210
#
#
#
# Elastic Compliance Matrix: (Units=1/GPa)
#
#
# Indices 1 2 3 4 5 6 
#
# 1 0.014304 -0.002720 -0.005851 0.000000 0.000000 0.000000
# 2 -0.002720 0.016635 -0.006732 0.000000 0.000000 0.000000
# 3 -0.005851 -0.006732 0.015878 0.000000 0.000000 0.000000
# 4 0.000000 0.000000 0.000000 0.030862 0.000000 0.000000
# 5 0.000000 0.000000 0.000000 0.000000 0.032459 0.000000
# 6 0.000000 0.000000 0.000000 0.000000 0.000000 0.021729
#
#
# Mechanical properties :
#
#
# Convention : Reuss Voigt Hill
#
# Bulk Modulus (GPa) = 61.69147 62.97836 62.33492
# Shear Modulus (GPa) = 29.78366 31.77208 30.77787
#
# Velocity S-wave (km/s) = 3.57065 3.68792 3.62976
# Velocity P-wave (km/s) = 6.58846 6.71518 6.65212
#
# Compressibility (1/GPa) = 0.01620970
#
# Stress axis : x y z
#
# Youngs Moduli (GPa) = 69.91031 60.11371 62.98062
#
# Poissons Ratio (x) = 0.16353 0.36850
# Poissons Ratio (y) = 0.19019 0.42401
# Poissons Ratio (z) = 0.40904 0.40470
#
# Static dielectric constant tensor:
#      x y z
#    x 4.479620 0.000000 0.000000 
#    y 0.000000 4.391050 0.000000 
#    z 0.000000 0.000000 4.146830 
# 
# 
# High freq. dielectric constant tensor:
#      x y z
#    x 1.926580 0.000000 0.000000 
#    y 0.000000 1.932330 0.000000 
#    z 0.000000 0.000000 1.914640 
# 
# From -- ./inp_files/8507.got.cif
#   From: 2010.03.12/outbox.cif.g09.slc.cpg/sg61_5_cif.got.tgz:8507.got - 2010.04.10 19:05:03.
