data_PCOD8249152
_publ_section_title
;
Structure prediction by ZEFSAII (Michael W. Deem and Ramdas Pophale) SiO2 
 PCOD8249152
Probable space group: P B C A
;
_chemical_formula_sum "Si O2"
_cell_formula_units_Z 56
_cell_length_a 34.314227
_cell_length_b 5.120555
_cell_length_c 15.016710
_cell_angle_alpha 90.000000
_cell_angle_beta 90.000000
_cell_angle_gamma 90.000000
_cell_volume 2638.554378
_symmetry_space_group_name_H-M "P B C A"
_symmetry_group_IT_number 61
_symmetry_cell_setting 'orthorhombic'
loop_
_space_group_symop_operation_xyz
x,y,z
1/2-x,-y,1/2+z
1/2+x,1/2-y,-z
-x,1/2+y,1/2-z
-x,-y,-z
1/2+x,y,1/2-z
1/2-x,1/2+y,z
x,1/2-y,1/2+z
loop_
_atom_site_type_symbol
_atom_site_label
_atom_site_fract_x
_atom_site_fract_y
_atom_site_fract_z
Si Si1 0.724774 0.823378 0.964384
Si Si2 0.552194 0.018547 0.702556
Si Si3 0.336608 0.190988 0.388712
Si Si4 0.018277 0.811356 0.627753
Si Si5 0.612741 0.186498 0.116228
Si Si6 0.774673 0.190669 0.259708
Si Si7 0.549521 0.637822 0.552872
O O1 0.757132 0.605217 0.986594
O O2 0.687081 0.773393 0.023800
O O3 0.711117 0.821619 0.861792
O O4 0.508145 0.091572 0.673329
O O5 0.584564 0.248644 0.701822
O O6 0.550446 0.902198 0.800951
O O7 0.568774 0.827179 0.626048
O O8 0.360743 0.442671 0.357564
O O9 0.309998 0.118306 0.304739
O O10 0.361952 0.935990 0.414204
O O11 0.041982 0.712503 0.540679
O O12 0.991689 0.049364 0.594296
O O13 0.581177 0.097198 0.039616
O O14 0.759145 0.480558 0.239803
#
# Coordination Sequence:
#
# PCOD8249152 Si02
#       7
#     8   8   8   8   8   8   8
#     4  10  21  39  66  95 119 153 211 262 296 357
#     4  11  20  41  62  93 124 160 217 264 317 374
#     4  12  22  42  62  89 129 173 194 248 319 368
#     4  10  21  36  70  90 116 163 208 276 318 352
#     4  11  25  41  58  87 135 167 204 249 300 400
#     4  10  21  39  66  97 121 155 212 261 298 357
#     4  10  21  42  59  95 120 161 213 263 312 371
#
# _framework density 21.223745000000001
#
# number of rings (size 3 to 8) (size 9 to 14) (size 15 to 20)
#    0.000    1.429    2.857    3.000    0.000    0.000 
#    5.143    0.000    0.000    0.000    0.000    0.000 
#    0.000    0.000    0.000    0.000    0.000    0.000 
#
# Total GULP energy -694130.864144 kJ/mol
# GULP energy per Si atom -12395.194003 kJ/mol
# Density = 2.117544 g / cm^3
# Si number density = 21.223745 Si / 1000 Ang^3
#
#
#
# Elastic Constant Matrix: (Units=GPa)
#
#
# Indices 1 2 3 4 5 6 
#
# 1 91.3957 25.1048 46.7210 0.0000 0.0000 0.0000
# 2 25.1048 91.0459 27.4295 0.0000 0.0000 0.0000
# 3 46.7210 27.4295 121.0278 0.0000 0.0000 0.0000
# 4 0.0000 0.0000 0.0000 22.3577 0.0000 0.0000
# 5 0.0000 0.0000 0.0000 0.0000 13.3032 0.0000
# 6 0.0000 0.0000 0.0000 0.0000 0.0000 41.1412
#
#
#
# Elastic Compliance Matrix: (Units=1/GPa)
#
#
# Indices 1 2 3 4 5 6 
#
# 1 0.014109 -0.002414 -0.004899 0.000000 0.000000 0.000000
# 2 -0.002414 0.012202 -0.001833 0.000000 0.000000 0.000000
# 3 -0.004899 -0.001833 0.010569 0.000000 0.000000 0.000000
# 4 0.000000 0.000000 0.000000 0.044727 0.000000 0.000000
# 5 0.000000 0.000000 0.000000 0.000000 0.075170 0.000000
# 6 0.000000 0.000000 0.000000 0.000000 0.000000 0.024307
#
#
# Mechanical properties :
#
#
# Convention : Reuss Voigt Hill
#
# Bulk Modulus (GPa) = 53.80427 55.77556 54.78992
# Shear Modulus (GPa) = 24.32221 28.97468 26.64845
#
# Velocity S-wave (km/s) = 3.38892 3.69887 3.54728
# Velocity P-wave (km/s) = 6.38115 6.67675 6.53062
#
# Compressibility (1/GPa) = 0.01858588
#
# Stress axis : x y z
#
# Youngs Moduli (GPa) = 70.87572 81.95694 94.61254
#
# Poissons Ratio (x) = 0.19788 0.46355
# Poissons Ratio (y) = 0.17112 0.17345
# Poissons Ratio (z) = 0.34725 0.15025
#
# Static dielectric constant tensor:
#      x y z
#    x 3.808380 0.000000 0.000000 
#    y 0.000000 3.973670 0.000000 
#    z 0.000000 0.000000 3.836610 
# 
# 
# High freq. dielectric constant tensor:
#      x y z
#    x 1.825930 0.000000 0.000000 
#    y 0.000000 1.842770 0.000000 
#    z 0.000000 0.000000 1.816990 
# 
# From -- ./inp_files/8669.got.cif
#   From: 2010.03.12/outbox.cif.g09.slc.cpg/sg61_5_cif.got.tgz:8669.got - 2010.04.10 19:05:03.
