data_PCOD8249797
_publ_section_title
;
Structure prediction by ZEFSAII (Michael W. Deem and Ramdas Pophale) SiO2 
 PCOD8249797
Probable space group: P B C A
;
_chemical_formula_sum "Si O2"
_cell_formula_units_Z 64
_cell_length_a 10.563744
_cell_length_b 29.678367
_cell_length_c 9.472922
_cell_angle_alpha 90.000000
_cell_angle_beta 90.000000
_cell_angle_gamma 90.000000
_cell_volume 2969.900027
_symmetry_space_group_name_H-M "P B C A"
_symmetry_group_IT_number 61
_symmetry_cell_setting 'orthorhombic'
loop_
_space_group_symop_operation_xyz
x,y,z
1/2-x,-y,1/2+z
1/2+x,1/2-y,-z
-x,1/2+y,1/2-z
-x,-y,-z
1/2+x,y,1/2-z
1/2-x,1/2+y,z
x,1/2-y,1/2+z
loop_
_atom_site_type_symbol
_atom_site_label
_atom_site_fract_x
_atom_site_fract_y
_atom_site_fract_z
Si Si1 0.643606 0.086065 0.864027
Si Si2 0.301965 0.181586 0.219453
Si Si3 0.247075 0.175861 0.532987
Si Si4 0.371403 0.548741 0.333469
Si Si5 0.448141 0.271419 0.148896
Si Si6 0.357478 0.414478 0.646882
Si Si7 0.598708 0.256341 0.887669
Si Si8 0.871280 0.055801 0.668148
O O1 0.651613 0.137803 0.913957
O O2 0.758414 0.076731 0.758916
O O3 0.506481 0.078625 0.791344
O O4 0.654654 0.053672 0.999664
O O5 0.298338 0.162621 0.379032
O O6 0.394125 0.223767 0.202938
O O7 0.351649 0.139644 0.126958
O O8 0.164370 0.197627 0.164605
O O9 0.354735 0.185364 0.653648
O O10 0.185312 0.225333 0.512088
O O11 0.255469 0.569929 0.248035
O O12 0.504590 0.572292 0.290457
O O13 0.382172 0.496560 0.295783
O O14 0.564299 0.277297 0.256646
O O15 0.480571 0.269887 0.983357
O O16 0.338715 0.437350 0.495479
#
# Coordination Sequence:
#
# PCOD8249797 Si02
#       8
#     8   8   8   8   8   8   8   8
#     4  11  25  44  71  99 140 182 226 289 342 417
#     4  11  24  43  64  99 129 174 230 275 339 401
#     4  11  24  42  62  98 129 176 226 272 338 400
#     4  11  23  46  71 102 138 182 226 286 356 416
#     4  11  24  40  67  91 133 173 219 277 333 398
#     4  11  25  41  75 100 136 183 230 283 344 418
#     4  11  24  40  68  90 133 174 216 279 331 401
#     4  11  25  46  68 104 140 178 229 291 351 411
#
# _framework density 21.549547
#
# number of rings (size 3 to 8) (size 9 to 14) (size 15 to 20)
#    0.000    1.000    3.750    3.000    7.000    2.000 
#    0.000    2.500    0.000    0.000    0.000    0.000 
#    0.000    0.000    0.000    0.000    0.000    0.000 
#
# Total GULP energy -793413.710993 kJ/mol
# GULP energy per Si atom -12397.089234 kJ/mol
# Density = 2.150050 g / cm^3
# Si number density = 21.549547 Si / 1000 Ang^3
#
#
#
# Elastic Constant Matrix: (Units=GPa)
#
#
# Indices 1 2 3 4 5 6 
#
# 1 144.4982 25.2461 53.4912 0.0000 0.0000 0.0000
# 2 25.2461 98.8641 14.2409 0.0000 0.0000 0.0000
# 3 53.4912 14.2409 73.1534 0.0000 0.0000 0.0000
# 4 0.0000 0.0000 0.0000 22.8859 0.0000 0.0000
# 5 0.0000 0.0000 0.0000 0.0000 43.6505 0.0000
# 6 0.0000 0.0000 0.0000 0.0000 0.0000 38.7835
#
#
#
# Elastic Compliance Matrix: (Units=1/GPa)
#
#
# Indices 1 2 3 4 5 6 
#
# 1 0.009700 -0.001497 -0.006801 0.000000 0.000000 0.000000
# 2 -0.001497 0.010638 -0.000976 0.000000 0.000000 0.000000
# 3 -0.006801 -0.000976 0.018833 0.000000 0.000000 0.000000
# 4 0.000000 0.000000 0.000000 0.043695 0.000000 0.000000
# 5 0.000000 0.000000 0.000000 0.000000 0.022909 0.000000
# 6 0.000000 0.000000 0.000000 0.000000 0.000000 0.025784
#
#
# Mechanical properties :
#
#
# Convention : Reuss Voigt Hill
#
# Bulk Modulus (GPa) = 48.49271 55.83024 52.16148
# Shear Modulus (GPa) = 31.85074 35.96647 33.90861
#
# Velocity S-wave (km/s) = 3.84868 4.08979 3.97106
# Velocity P-wave (km/s) = 6.50396 6.94737 6.72932
#
# Compressibility (1/GPa) = 0.02062166
#
# Stress axis : x y z
#
# Youngs Moduli (GPa) = 103.09475 94.00411 53.09801
#
# Poissons Ratio (x) = 0.14075 0.36113
# Poissons Ratio (y) = 0.15436 0.05183
# Poissons Ratio (z) = 0.70117 0.09175
#
# Static dielectric constant tensor:
#      x y z
#    x 4.113970 0.000000 0.000000 
#    y 0.000000 3.845350 0.000000 
#    z 0.000000 0.000000 3.821120 
# 
# 
# High freq. dielectric constant tensor:
#      x y z
#    x 1.858560 0.000000 0.000000 
#    y 0.000000 1.847350 0.000000 
#    z 0.000000 0.000000 1.840250 
# 
# From -- ./inp_files/2457.got.cif
#   From: 2010.03.12/outbox.cif.g09.slc.cpg/sg61_2_cif.got.tgz:2457.got - 2010.04.10 19:05:03.
