data_PCOD8249516
_publ_section_title
;
Structure prediction by ZEFSAII (Michael W. Deem and Ramdas Pophale) SiO2 
 PCOD8249516
Probable space group: P B C A
;
_chemical_formula_sum "Si O2"
_cell_formula_units_Z 48
_cell_length_a 7.412345
_cell_length_b 16.380226
_cell_length_c 17.130993
_cell_angle_alpha 90.000000
_cell_angle_beta 90.000000
_cell_angle_gamma 90.000000
_cell_volume 2079.974698
_symmetry_space_group_name_H-M "P B C A"
_symmetry_group_IT_number 61
_symmetry_cell_setting 'orthorhombic'
loop_
_space_group_symop_operation_xyz
x,y,z
1/2-x,-y,1/2+z
1/2+x,1/2-y,-z
-x,1/2+y,1/2-z
-x,-y,-z
1/2+x,y,1/2-z
1/2-x,1/2+y,z
x,1/2-y,1/2+z
loop_
_atom_site_type_symbol
_atom_site_label
_atom_site_fract_x
_atom_site_fract_y
_atom_site_fract_z
Si Si1 0.298295 0.506815 0.600548
Si Si2 0.882014 0.705257 0.164827
Si Si3 0.735495 0.345797 0.833248
Si Si4 0.049895 0.736160 0.441906
Si Si5 0.489737 0.140598 0.602992
Si Si6 0.649677 0.922894 0.063312
O O1 0.191289 0.441461 0.654410
O O2 0.299498 0.474733 0.512538
O O3 0.507371 0.529454 0.618940
O O4 0.192292 0.591137 0.612193
O O5 0.785705 0.679699 0.244221
O O6 0.731886 0.701016 0.097316
O O7 0.976048 0.794908 0.172967
O O8 0.052226 0.649135 0.143447
O O9 0.622913 0.284036 0.887509
O O10 0.069711 0.832817 0.456300
O O11 0.014466 0.691578 0.522743
O O12 0.661396 0.080984 0.608061
#
# Coordination Sequence:
#
# PCOD8249516 Si02
#       6
#     8   8   8   8   8   8
#     4  11  24  40  68 104 147 176 236 303 363 414
#     4  11  26  44  71 101 138 194 247 284 363 446
#     4  12  24  46  68  99 144 195 235 295 362 442
#     4  11  24  43  73 103 140 187 245 298 357 435
#     4  11  24  42  72 107 138 184 244 303 349 425
#     4  10  23  39  65 106 137 182 231 297 362 417
#
# _framework density 23.077203999999998
#
# number of rings (size 3 to 8) (size 9 to 14) (size 15 to 20)
#    0.000    1.000    3.333    2.500   11.667    0.000 
#    0.000    3.333    0.000    0.000    0.000    0.000 
#    0.000    0.000    0.000    0.000    0.000    0.000 
#
# Total GULP energy -594871.093711 kJ/mol
# GULP energy per Si atom -12393.147786 kJ/mol
# Density = 2.302468 g / cm^3
# Si number density = 23.077204 Si / 1000 Ang^3
#
#
#
# Elastic Constant Matrix: (Units=GPa)
#
#
# Indices 1 2 3 4 5 6 
#
# 1 116.0170 21.3901 17.5876 0.0000 0.0000 0.0000
# 2 21.3901 75.7578 22.9286 0.0000 0.0000 0.0000
# 3 17.5876 22.9286 57.8269 0.0000 0.0000 0.0000
# 4 0.0000 0.0000 0.0000 23.2173 0.0000 0.0000
# 5 0.0000 0.0000 0.0000 0.0000 27.4970 0.0000
# 6 0.0000 0.0000 0.0000 0.0000 0.0000 47.7421
#
#
#
# Elastic Compliance Matrix: (Units=1/GPa)
#
#
# Indices 1 2 3 4 5 6 
#
# 1 0.009298 -0.002011 -0.002031 0.000000 0.000000 0.000000
# 2 -0.002011 0.015435 -0.005508 0.000000 0.000000 0.000000
# 3 -0.002031 -0.005508 0.020095 0.000000 0.000000 0.000000
# 4 0.000000 0.000000 0.000000 0.043071 0.000000 0.000000
# 5 0.000000 0.000000 0.000000 0.000000 0.036368 0.000000
# 6 0.000000 0.000000 0.000000 0.000000 0.000000 0.020946
#
#
# Mechanical properties :
#
#
# Convention : Reuss Voigt Hill
#
# Bulk Modulus (GPa) = 38.86820 41.49046 40.17933
# Shear Modulus (GPa) = 28.92048 32.20431 30.56239
#
# Velocity S-wave (km/s) = 3.54390 3.73970 3.64312
# Velocity P-wave (km/s) = 5.79870 6.05517 5.92832
#
# Compressibility (1/GPa) = 0.02572798
#
# Stress axis : x y z
#
# Youngs Moduli (GPa) = 107.55037 64.78853 49.76435
#
# Poissons Ratio (x) = 0.13027 0.10105
# Poissons Ratio (y) = 0.21625 0.27412
# Poissons Ratio (z) = 0.21840 0.35688
#
# Static dielectric constant tensor:
#      x y z
#    x 4.630870 0.000000 0.000000 
#    y 0.000000 4.439610 0.000000 
#    z 0.000000 0.000000 3.793990 
# 
# 
# High freq. dielectric constant tensor:
#      x y z
#    x 1.939470 0.000000 0.000000 
#    y 0.000000 1.920510 0.000000 
#    z 0.000000 0.000000 1.874230 
# 
# From -- ./inp_files/8905.got.cif
#   From: 2010.03.12/outbox.cif.g09.slc.cpg/sg61_5_cif.got.tgz:8905.got - 2010.04.10 19:05:03.
