data_PCOD8249909
_publ_section_title
;
Structure prediction by ZEFSAII (Michael W. Deem and Ramdas Pophale) SiO2 
 PCOD8249909
Probable space group: P B C A
;
_chemical_formula_sum "Si O2"
_cell_formula_units_Z 64
_cell_length_a 8.992290
_cell_length_b 27.932400
_cell_length_c 11.482942
_cell_angle_alpha 90.000000
_cell_angle_beta 90.000000
_cell_angle_gamma 90.000000
_cell_volume 2884.242209
_symmetry_space_group_name_H-M "P B C A"
_symmetry_group_IT_number 61
_symmetry_cell_setting 'orthorhombic'
loop_
_space_group_symop_operation_xyz
x,y,z
1/2-x,-y,1/2+z
1/2+x,1/2-y,-z
-x,1/2+y,1/2-z
-x,-y,-z
1/2+x,y,1/2-z
1/2-x,1/2+y,z
x,1/2-y,1/2+z
loop_
_atom_site_type_symbol
_atom_site_label
_atom_site_fract_x
_atom_site_fract_y
_atom_site_fract_z
Si Si1 0.920524 0.202329 0.656798
Si Si2 0.083394 0.171176 0.867353
Si Si3 0.196650 0.360648 0.783636
Si Si4 0.751371 0.067132 0.421486
Si Si5 0.448680 0.563977 0.869657
Si Si6 0.014068 0.809745 0.875833
Si Si7 0.712880 0.035883 0.846330
Si Si8 0.470332 0.884570 0.016563
O O1 0.750051 0.188425 0.650231
O O2 0.940595 0.255080 0.605540
O O3 0.973016 0.204023 0.791167
O O4 0.025334 0.166046 0.584129
O O5 0.059048 0.117764 0.820471
O O6 0.039754 0.170941 0.001221
O O7 0.216138 0.405879 0.698584
O O8 0.352229 0.342757 0.832588
O O9 0.093956 0.377487 0.888579
O O10 0.120441 0.316288 0.715566
O O11 0.599961 0.060218 0.495450
O O12 0.860830 0.097485 0.503941
O O13 0.826656 0.016047 0.397434
O O14 0.336142 0.534078 0.788400
O O15 0.612274 0.543592 0.855197
O O16 0.627582 0.077081 0.915561
#
# Coordination Sequence:
#
# PCOD8249909 Si02
#       8
#     8   8   8   8   8   8   8   8
#     4  12  28  46  77 108 144 192 251 303 365 436
#     4  12  26  50  74 104 150 194 238 307 365 429
#     4  12  27  49  72 109 149 193 241 306 368 435
#     4  12  27  49  75 104 151 192 243 301 364 442
#     4  12  24  49  70 106 145 186 243 297 364 433
#     4  12  28  48  75 107 148 194 248 299 373 440
#     4  12  28  43  78 108 142 193 245 300 366 441
#     4  12  26  48  72 105 150 190 242 304 366 430
#
# _framework density 22.189536
#
# number of rings (size 3 to 8) (size 9 to 14) (size 15 to 20)
#    0.000    0.000    5.000    3.750    8.750    0.000 
#    0.000    0.000    0.000    0.000    0.000    0.000 
#    0.000    0.000    0.000    0.000    0.000    0.000 
#
# Total GULP energy -794070.600193 kJ/mol
# GULP energy per Si atom -12407.353128 kJ/mol
# Density = 2.213903 g / cm^3
# Si number density = 22.189536 Si / 1000 Ang^3
#
#
#
# Elastic Constant Matrix: (Units=GPa)
#
#
# Indices 1 2 3 4 5 6 
#
# 1 112.5417 20.2243 54.3496 0.0000 0.0000 0.0000
# 2 20.2243 105.8498 26.7792 0.0000 0.0000 0.0000
# 3 54.3496 26.7792 127.0765 0.0000 0.0000 0.0000
# 4 0.0000 0.0000 0.0000 37.8942 0.0000 0.0000
# 5 0.0000 0.0000 0.0000 0.0000 45.8244 0.0000
# 6 0.0000 0.0000 0.0000 0.0000 0.0000 29.3329
#
#
#
# Elastic Compliance Matrix: (Units=1/GPa)
#
#
# Indices 1 2 3 4 5 6 
#
# 1 0.011296 -0.000989 -0.004623 0.000000 0.000000 0.000000
# 2 -0.000989 0.010066 -0.001698 0.000000 0.000000 0.000000
# 3 -0.004623 -0.001698 0.010204 0.000000 0.000000 0.000000
# 4 0.000000 0.000000 0.000000 0.026389 0.000000 0.000000
# 5 0.000000 0.000000 0.000000 0.000000 0.021822 0.000000
# 6 0.000000 0.000000 0.000000 0.000000 0.000000 0.034091
#
#
# Mechanical properties :
#
#
# Convention : Reuss Voigt Hill
#
# Bulk Modulus (GPa) = 59.00987 60.90826 59.95906
# Shear Modulus (GPa) = 37.27520 38.88463 38.07992
#
# Velocity S-wave (km/s) = 4.10305 4.19069 4.14710
# Velocity P-wave (km/s) = 7.00699 7.13614 7.07186
#
# Compressibility (1/GPa) = 0.01694632
#
# Stress axis : x y z
#
# Youngs Moduli (GPa) = 88.52908 99.34506 97.99809
#
# Poissons Ratio (x) = 0.09822 0.45302
# Poissons Ratio (y) = 0.08753 0.16644
# Poissons Ratio (z) = 0.40925 0.16872
#
# Static dielectric constant tensor:
#      x y z
#    x 4.052170 0.000000 0.000000 
#    y 0.000000 4.223060 0.000000 
#    z 0.000000 0.000000 4.149900 
# 
# 
# High freq. dielectric constant tensor:
#      x y z
#    x 1.883570 0.000000 0.000000 
#    y 0.000000 1.880970 0.000000 
#    z 0.000000 0.000000 1.890280 
# 
# From -- ./inp_files/4966.got.cif
#   From: 2010.03.12/outbox.cif.g09.slc.cpg/sg61_3_cif.got.tgz:4966.got - 2010.04.10 19:05:03.
