data_PCOD8249027
_publ_section_title
;
Structure prediction by ZEFSAII (Michael W. Deem and Ramdas Pophale) SiO2 
 PCOD8249027
Probable space group: P B C A
;
_chemical_formula_sum "Si O2"
_cell_formula_units_Z 40
_cell_length_a 14.210865
_cell_length_b 13.733427
_cell_length_c 9.760932
_cell_angle_alpha 90.000000
_cell_angle_beta 90.000000
_cell_angle_gamma 90.000000
_cell_volume 1904.981333
_symmetry_space_group_name_H-M "P B C A"
_symmetry_group_IT_number 61
_symmetry_cell_setting 'orthorhombic'
loop_
_space_group_symop_operation_xyz
x,y,z
1/2-x,-y,1/2+z
1/2+x,1/2-y,-z
-x,1/2+y,1/2-z
-x,-y,-z
1/2+x,y,1/2-z
1/2-x,1/2+y,z
x,1/2-y,1/2+z
loop_
_atom_site_type_symbol
_atom_site_label
_atom_site_fract_x
_atom_site_fract_y
_atom_site_fract_z
Si Si1 0.758916 0.888184 0.466988
Si Si2 0.093292 0.162769 0.751303
Si Si3 0.742481 0.390944 0.029495
Si Si4 0.384287 0.412113 0.249743
Si Si5 0.169704 0.360597 0.750263
O O1 0.854932 0.861840 0.389834
O O2 0.664680 0.861375 0.382302
O O3 0.760666 0.841658 0.619494
O O4 0.758045 0.002350 0.476976
O O5 0.149352 0.116178 0.878204
O O6 0.086428 0.280618 0.764748
O O7 0.992453 0.113428 0.749935
O O8 0.834882 0.363064 0.117184
O O9 0.728033 0.330401 0.888158
O O10 0.371852 0.530238 0.249095
#
# Coordination Sequence:
#
# PCOD8249027 Si02
#       5
#     8   8   8   8   8
#     4   9  20  40  61  83 117 157 198 246 300 350
#     4  11  21  39  61  90 124 154 201 249 291 357
#     4   9  20  40  61  83 117 157 198 246 300 350
#     4   9  21  41  63  86 118 162 199 241 301 353
#     4  10  20  38  62  88 120 156 198 250 292 346
#
# _framework density 20.997582000000001
#
# number of rings (size 3 to 8) (size 9 to 14) (size 15 to 20)
#    0.000    2.400    0.000    2.400    0.000    6.400 
#    0.000   38.000    0.000    0.000    0.000    0.000 
#    0.000    0.000    0.000    0.000    0.000    0.000 
#
# Total GULP energy -495557.834477 kJ/mol
# GULP energy per Si atom -12388.945862 kJ/mol
# Density = 2.094979 g / cm^3
# Si number density = 20.997582 Si / 1000 Ang^3
#
#
#
# Elastic Constant Matrix: (Units=GPa)
#
#
# Indices 1 2 3 4 5 6 
#
# 1 150.8990 54.2876 56.6519 0.0000 0.0000 0.0000
# 2 54.2876 88.2073 32.8387 0.0000 0.0000 0.0000
# 3 56.6519 32.8387 153.0734 0.0000 0.0000 0.0000
# 4 0.0000 0.0000 0.0000 22.1638 0.0000 0.0000
# 5 0.0000 0.0000 0.0000 0.0000 12.0718 0.0000
# 6 0.0000 0.0000 0.0000 0.0000 0.0000 24.4860
#
#
#
# Elastic Compliance Matrix: (Units=1/GPa)
#
#
# Indices 1 2 3 4 5 6 
#
# 1 0.009254 -0.004804 -0.002394 0.000000 0.000000 0.000000
# 2 -0.004804 0.014815 -0.001400 0.000000 0.000000 0.000000
# 3 -0.002394 -0.001400 0.007719 0.000000 0.000000 0.000000
# 4 0.000000 0.000000 0.000000 0.045119 0.000000 0.000000
# 5 0.000000 0.000000 0.000000 0.000000 0.082837 0.000000
# 6 0.000000 0.000000 0.000000 0.000000 0.000000 0.040840
#
#
# Mechanical properties :
#
#
# Convention : Reuss Voigt Hill
#
# Bulk Modulus (GPa) = 68.53505 75.52624 72.03065
# Shear Modulus (GPa) = 22.45725 28.30443 25.38084
#
# Velocity S-wave (km/s) = 3.27389 3.67548 3.48048
# Velocity P-wave (km/s) = 6.85577 7.35250 7.10847
#
# Compressibility (1/GPa) = 0.01459107
#
# Stress axis : x y z
#
# Youngs Moduli (GPa) = 108.05918 67.49932 129.54489
#
# Poissons Ratio (x) = 0.32428 0.31017
# Poissons Ratio (y) = 0.51913 0.18139
# Poissons Ratio (z) = 0.25873 0.09452
#
# Static dielectric constant tensor:
#      x y z
#    x 3.441140 0.000000 0.000000 
#    y 0.000000 4.053350 0.000000 
#    z 0.000000 0.000000 4.881010 
# 
# 
# High freq. dielectric constant tensor:
#      x y z
#    x 1.781680 0.000000 0.000000 
#    y 0.000000 1.835720 0.000000 
#    z 0.000000 0.000000 1.848910 
# 
# From -- ./inp_files/2652.got.cif
#   From: 2010.03.12/outbox.cif.g09.slc.cpg/sg61_2_cif.got.tgz:2652.got - 2010.04.10 19:05:03.
