data_PCOD8249245
_publ_section_title
;
Structure prediction by ZEFSAII (Michael W. Deem and Ramdas Pophale) SiO2 
 PCOD8249245
Probable space group: P B C A
;
_chemical_formula_sum "Si O2"
_cell_formula_units_Z 64
_cell_length_a 14.881210
_cell_length_b 8.954631
_cell_length_c 24.241614
_cell_angle_alpha 90.000000
_cell_angle_beta 90.000000
_cell_angle_gamma 90.000000
_cell_volume 3230.334319
_symmetry_space_group_name_H-M "P B C A"
_symmetry_group_IT_number 61
_symmetry_cell_setting 'orthorhombic'
loop_
_space_group_symop_operation_xyz
x,y,z
1/2-x,-y,1/2+z
1/2+x,1/2-y,-z
-x,1/2+y,1/2-z
-x,-y,-z
1/2+x,y,1/2-z
1/2-x,1/2+y,z
x,1/2-y,1/2+z
loop_
_atom_site_type_symbol
_atom_site_label
_atom_site_fract_x
_atom_site_fract_y
_atom_site_fract_z
Si Si1 0.754163 0.393952 0.062450
Si Si2 0.790782 0.282888 0.819821
Si Si3 0.320167 0.862751 0.011203
Si Si4 0.095166 0.234678 0.714165
Si Si5 0.137154 0.644758 0.383869
Si Si6 0.444029 0.722474 0.091875
Si Si7 0.927774 0.418405 0.737063
Si Si8 0.205078 0.510858 0.606320
O O1 0.800628 0.290398 0.108307
O O2 0.680141 0.495344 0.091925
O O3 0.827688 0.502301 0.032797
O O4 0.705897 0.292970 0.016951
O O5 0.699716 0.282003 0.782593
O O6 0.875594 0.332808 0.784821
O O7 0.814216 0.119586 0.842335
O O8 0.778211 0.391138 0.872399
O O9 0.413499 0.837257 0.043798
O O10 0.240977 0.899416 0.054041
O O11 0.070932 0.195354 0.650657
O O12 0.032111 0.368890 0.736011
O O13 0.075695 0.094323 0.752980
O O14 0.120336 0.622678 0.319753
O O15 0.046399 0.676724 0.417858
O O16 0.386775 0.570350 0.089877
#
# Coordination Sequence:
#
# PCOD8249245 Si02
#       8
#     8   8   8   8   8   8   8   8
#     4  10  23  41  60  87 120 165 210 239 307 372
#     4  11  21  36  61  90 123 156 198 245 310 375
#     4  11  18  38  67  87 120 154 194 263 308 354
#     4  10  23  39  59  95 121 157 206 246 302 374
#     4  10  25  43  58  84 126 166 207 251 291 369
#     4  10  21  39  66  93 122 149 204 262 307 368
#     4  11  24  40  62  86 129 164 201 254 298 365
#     4  11  19  36  64  95 120 148 192 257 323 355
#
# _framework density 19.812190999999999
#
# number of rings (size 3 to 8) (size 9 to 14) (size 15 to 20)
#    0.000    1.500    5.000    0.000    7.000    1.000 
#    2.250    0.000    5.500    0.000    0.000    0.000 
#    0.000    0.000    0.000    0.000    0.000    0.000 
#
# Total GULP energy -793642.799150 kJ/mol
# GULP energy per Si atom -12400.668737 kJ/mol
# Density = 1.976710 g / cm^3
# Si number density = 19.812191 Si / 1000 Ang^3
#
#
#
# Elastic Constant Matrix: (Units=GPa)
#
#
# Indices 1 2 3 4 5 6 
#
# 1 72.9056 18.6950 20.5889 0.0000 0.0000 0.0000
# 2 18.6950 90.6150 18.2596 0.0000 0.0000 0.0000
# 3 20.5889 18.2596 36.6279 0.0000 0.0000 0.0000
# 4 0.0000 0.0000 0.0000 28.6535 0.0000 0.0000
# 5 0.0000 0.0000 0.0000 0.0000 26.9898 0.0000
# 6 0.0000 0.0000 0.0000 0.0000 0.0000 26.2612
#
#
#
# Elastic Compliance Matrix: (Units=1/GPa)
#
#
# Indices 1 2 3 4 5 6 
#
# 1 0.016540 -0.001711 -0.008444 0.000000 0.000000 0.000000
# 2 -0.001711 0.012445 -0.005242 0.000000 0.000000 0.000000
# 3 -0.008444 -0.005242 0.034662 0.000000 0.000000 0.000000
# 4 0.000000 0.000000 0.000000 0.034900 0.000000 0.000000
# 5 0.000000 0.000000 0.000000 0.000000 0.037051 0.000000
# 6 0.000000 0.000000 0.000000 0.000000 0.000000 0.038079
#
#
# Mechanical properties :
#
#
# Convention : Reuss Voigt Hill
#
# Bulk Modulus (GPa) = 30.44004 35.02618 32.73311
# Shear Modulus (GPa) = 23.21028 25.88790 24.54909
#
# Velocity S-wave (km/s) = 3.42645 3.61870 3.52389
# Velocity P-wave (km/s) = 5.57241 5.93106 5.75453
#
# Compressibility (1/GPa) = 0.03285147
#
# Stress axis : x y z
#
# Youngs Moduli (GPa) = 60.46032 80.35329 28.85028
#
# Poissons Ratio (x) = 0.13747 0.24362
# Poissons Ratio (y) = 0.10343 0.15125
# Poissons Ratio (z) = 0.51055 0.42125
#
# Static dielectric constant tensor:
#      x y z
#    x 3.546780 0.000000 0.000000 
#    y 0.000000 3.788420 0.000000 
#    z 0.000000 0.000000 3.629580 
# 
# 
# High freq. dielectric constant tensor:
#      x y z
#    x 1.758850 0.000000 0.000000 
#    y 0.000000 1.784290 0.000000 
#    z 0.000000 0.000000 1.770470 
# 
# From -- ./inp_files/7241.got.cif
#   From: 2010.03.12/outbox.cif.g09.slc.cpg/sg61_4_cif.got.tgz:7241.got - 2010.04.10 19:05:03.
