data_PCOD8249616
_publ_section_title
;
Structure prediction by ZEFSAII (Michael W. Deem and Ramdas Pophale) SiO2 
 PCOD8249616
Probable space group: P B C A
;
_chemical_formula_sum "Si O2"
_cell_formula_units_Z 40
_cell_length_a 22.099283
_cell_length_b 7.675497
_cell_length_c 9.868995
_cell_angle_alpha 90.000000
_cell_angle_beta 90.000000
_cell_angle_gamma 90.000000
_cell_volume 1674.008345
_symmetry_space_group_name_H-M "P B C A"
_symmetry_group_IT_number 61
_symmetry_cell_setting 'orthorhombic'
loop_
_space_group_symop_operation_xyz
x,y,z
1/2-x,-y,1/2+z
1/2+x,1/2-y,-z
-x,1/2+y,1/2-z
-x,-y,-z
1/2+x,y,1/2-z
1/2-x,1/2+y,z
x,1/2-y,1/2+z
loop_
_atom_site_type_symbol
_atom_site_label
_atom_site_fract_x
_atom_site_fract_y
_atom_site_fract_z
Si Si1 0.292860 0.725831 0.506253
Si Si2 0.353502 0.862718 0.755753
Si Si3 0.833264 0.364755 0.037451
Si Si4 0.970435 0.841709 0.181217
Si Si5 0.542689 0.719965 0.083034
O O1 0.321602 0.862123 0.610221
O O2 0.319713 0.770987 0.358286
O O3 0.220469 0.727431 0.486415
O O4 0.315573 0.533291 0.554442
O O5 0.422817 0.797241 0.755652
O O6 0.342854 0.061568 0.808328
O O7 0.896772 0.276203 0.002102
O O8 0.022677 0.852294 0.296856
O O9 0.945148 0.035037 0.156264
O O10 0.992304 0.777473 0.034083
#
# Coordination Sequence:
#
# PCOD8249616 Si02
#       5
#     8   8   8   8   8
#     4  10  25  43  69  98 140 185 235 284 347 414
#     4  10  24  43  70 100 140 185 227 292 345 420
#     4  10  26  43  71 101 141 182 235 290 349 415
#     4  11  25  46  74 107 144 181 236 292 356 429
#     4  11  26  45  74 107 142 186 233 292 361 419
#
# _framework density 23.894745
#
# number of rings (size 3 to 8) (size 9 to 14) (size 15 to 20)
#    1.200    0.400    0.000    2.400    8.400    4.800 
#    0.000    0.000    0.000    0.000    0.000    0.000 
#    0.000    0.000    0.000    0.000    0.000    0.000 
#
# Total GULP energy -495533.310248 kJ/mol
# GULP energy per Si atom -12388.332756 kJ/mol
# Density = 2.384036 g / cm^3
# Si number density = 23.894745 Si / 1000 Ang^3
#
#
#
# Elastic Constant Matrix: (Units=GPa)
#
#
# Indices 1 2 3 4 5 6 
#
# 1 141.9723 48.4126 21.4180 0.0000 0.0000 0.0000
# 2 48.4126 85.9608 10.6961 0.0000 0.0000 0.0000
# 3 21.4180 10.6961 71.7630 0.0000 0.0000 0.0000
# 4 0.0000 0.0000 0.0000 20.5227 0.0000 0.0000
# 5 0.0000 0.0000 0.0000 0.0000 24.5825 0.0000
# 6 0.0000 0.0000 0.0000 0.0000 0.0000 41.9342
#
#
#
# Elastic Compliance Matrix: (Units=1/GPa)
#
#
# Indices 1 2 3 4 5 6 
#
# 1 0.008981 -0.004814 -0.001963 0.000000 0.000000 0.000000
# 2 -0.004814 0.014433 -0.000715 0.000000 0.000000 0.000000
# 3 -0.001963 -0.000715 0.014627 0.000000 0.000000 0.000000
# 4 0.000000 0.000000 0.000000 0.048726 0.000000 0.000000
# 5 0.000000 0.000000 0.000000 0.000000 0.040679 0.000000
# 6 0.000000 0.000000 0.000000 0.000000 0.000000 0.023847
#
#
# Mechanical properties :
#
#
# Convention : Reuss Voigt Hill
#
# Bulk Modulus (GPa) = 43.36739 51.19439 47.28089
# Shear Modulus (GPa) = 28.74164 32.01918 30.38041
#
# Velocity S-wave (km/s) = 3.47197 3.66459 3.56957
# Velocity P-wave (km/s) = 5.85333 6.27511 6.06789
#
# Compressibility (1/GPa) = 0.02305880
#
# Stress axis : x y z
#
# Youngs Moduli (GPa) = 111.34198 69.28414 68.36618
#
# Poissons Ratio (x) = 0.33353 0.13420
# Poissons Ratio (y) = 0.53600 0.04885
# Poissons Ratio (z) = 0.21856 0.04950
#
# Static dielectric constant tensor:
#      x y z
#    x 4.162580 0.000000 0.000000 
#    y 0.000000 3.995530 0.000000 
#    z 0.000000 0.000000 4.024060 
# 
# 
# High freq. dielectric constant tensor:
#      x y z
#    x 1.950800 0.000000 0.000000 
#    y 0.000000 1.932740 0.000000 
#    z 0.000000 0.000000 1.936480 
# 
# From -- ./inp_files/4154.got.cif
#   From: 2010.03.12/outbox.cif.g09.slc.cpg/sg61_3_cif.got.tgz:4154.got - 2010.04.10 19:05:03.
