data_PCOD8249349
_publ_section_title
;
Structure prediction by ZEFSAII (Michael W. Deem and Ramdas Pophale) SiO2 
 PCOD8249349
Probable space group: P B C A
;
_chemical_formula_sum "Si O2"
_cell_formula_units_Z 40
_cell_length_a 17.874926
_cell_length_b 7.902893
_cell_length_c 13.030109
_cell_angle_alpha 90.000000
_cell_angle_beta 90.000000
_cell_angle_gamma 90.000000
_cell_volume 1840.680465
_symmetry_space_group_name_H-M "P B C A"
_symmetry_group_IT_number 61
_symmetry_cell_setting 'orthorhombic'
loop_
_space_group_symop_operation_xyz
x,y,z
1/2-x,-y,1/2+z
1/2+x,1/2-y,-z
-x,1/2+y,1/2-z
-x,-y,-z
1/2+x,y,1/2-z
1/2-x,1/2+y,z
x,1/2-y,1/2+z
loop_
_atom_site_type_symbol
_atom_site_label
_atom_site_fract_x
_atom_site_fract_y
_atom_site_fract_z
Si Si1 0.414723 0.001225 0.963030
Si Si2 0.656650 0.252477 0.905642
Si Si3 0.815485 0.388800 0.872718
Si Si4 0.016202 0.470545 0.619024
Si Si5 0.417821 0.206435 0.768874
O O1 0.371588 0.143518 0.031140
O O2 0.375102 0.818149 0.984177
O O3 0.405857 0.046637 0.843937
O O4 0.500000 0.000000 0.000000
O O5 0.731929 0.360916 0.914377
O O6 0.593496 0.371698 0.858516
O O7 0.673874 0.085144 0.836472
O O8 0.838746 0.264138 0.780261
O O9 0.024236 0.648543 0.679507
O O10 0.000000 0.500000 0.500000
O O11 0.949367 0.363363 0.667331
#
# Coordination Sequence:
#
# PCOD8249349 Si02
#       5
#     8   8   8   8   8
#     4  10  21  44  70  96 145 180 244 292 362 425
#     4  10  23  47  66  97 149 184 236 317 354 427
#     4  10  23  44  66  98 144 187 240 303 366 420
#     4  12  26  42  74 106 143 186 250 297 363 431
#     4  12  23  42  71 103 136 196 236 295 362 447
#
# _framework density 21.731093999999999
#
# number of rings (size 3 to 8) (size 9 to 14) (size 15 to 20)
#    1.200    0.000    2.000    4.800    2.800    0.000 
#    7.200    0.000    0.000    0.000    0.000    0.000 
#    0.000    0.000    0.000    0.000    0.000    0.000 
#
# Total GULP energy -495642.010290 kJ/mol
# GULP energy per Si atom -12391.050257 kJ/mol
# Density = 2.168163 g / cm^3
# Si number density = 21.731094 Si / 1000 Ang^3
#
#
#
# Elastic Constant Matrix: (Units=GPa)
#
#
# Indices 1 2 3 4 5 6 
#
# 1 135.2121 17.2346 30.1623 0.0000 0.0000 0.0000
# 2 17.2346 65.7500 24.8235 0.0000 0.0000 0.0000
# 3 30.1623 24.8235 104.5117 0.0000 0.0000 0.0000
# 4 0.0000 0.0000 0.0000 42.7202 0.0000 0.0000
# 5 0.0000 0.0000 0.0000 0.0000 22.4682 0.0000
# 6 0.0000 0.0000 0.0000 0.0000 0.0000 46.9584
#
#
#
# Elastic Compliance Matrix: (Units=1/GPa)
#
#
# Indices 1 2 3 4 5 6 
#
# 1 0.008012 -0.001348 -0.001992 0.000000 0.000000 0.000000
# 2 -0.001348 0.016934 -0.003633 0.000000 0.000000 0.000000
# 3 -0.001992 -0.003633 0.011006 0.000000 0.000000 0.000000
# 4 0.000000 0.000000 0.000000 0.023408 0.000000 0.000000
# 5 0.000000 0.000000 0.000000 0.000000 0.044507 0.000000
# 6 0.000000 0.000000 0.000000 0.000000 0.000000 0.021295
#
#
# Mechanical properties :
#
#
# Convention : Reuss Voigt Hill
#
# Bulk Modulus (GPa) = 45.44258 49.99052 47.71655
# Shear Modulus (GPa) = 34.14251 37.97958 36.06104
#
# Velocity S-wave (km/s) = 3.96806 4.18509 4.07802
# Velocity P-wave (km/s) = 6.47693 6.81230 6.64673
#
# Compressibility (1/GPa) = 0.02200579
#
# Stress axis : x y z
#
# Youngs Moduli (GPa) = 124.81285 59.05229 90.85815
#
# Poissons Ratio (x) = 0.07960 0.18100
# Poissons Ratio (y) = 0.16825 0.33010
# Poissons Ratio (z) = 0.24864 0.21454
#
# Static dielectric constant tensor:
#      x y z
#    x 3.796590 0.000000 0.000000 
#    y 0.000000 3.981690 0.000000 
#    z 0.000000 0.000000 3.800730 
# 
# 
# High freq. dielectric constant tensor:
#      x y z
#    x 1.851330 0.000000 0.000000 
#    y 0.000000 1.857970 0.000000 
#    z 0.000000 0.000000 1.833160 
# 
# From -- ./inp_files/6076.got.cif
#   From: 2010.03.12/outbox.cif.g09.slc.cpg/sg61_4_cif.got.tgz:6076.got - 2010.04.10 19:05:03.
