data_PCOD8249547
_publ_section_title
;
Structure prediction by ZEFSAII (Michael W. Deem and Ramdas Pophale) SiO2 
 PCOD8249547
Probable space group: P B C A
;
_chemical_formula_sum "Si O2"
_cell_formula_units_Z 32
_cell_length_a 5.185446
_cell_length_b 14.790123
_cell_length_c 16.986344
_cell_angle_alpha 90.000000
_cell_angle_beta 90.000000
_cell_angle_gamma 90.000000
_cell_volume 1302.740206
_symmetry_space_group_name_H-M "P B C A"
_symmetry_group_IT_number 61
_symmetry_cell_setting 'orthorhombic'
loop_
_space_group_symop_operation_xyz
x,y,z
1/2-x,-y,1/2+z
1/2+x,1/2-y,-z
-x,1/2+y,1/2-z
-x,-y,-z
1/2+x,y,1/2-z
1/2-x,1/2+y,z
x,1/2-y,1/2+z
loop_
_atom_site_type_symbol
_atom_site_label
_atom_site_fract_x
_atom_site_fract_y
_atom_site_fract_z
Si Si1 0.946899 0.711050 0.212675
Si Si2 0.616198 0.771749 0.454818
Si Si3 0.253093 0.025582 0.548373
Si Si4 0.338032 0.987418 0.721050
O O1 0.675793 0.757542 0.235738
O O2 0.931383 0.605531 0.236240
O O3 0.012456 0.718646 0.121073
O O4 0.361617 0.783210 0.509914
O O5 0.735733 0.868292 0.432821
O O6 0.500000 0.000000 0.500000
O O7 0.258492 0.972418 0.630764
O O8 0.000000 0.000000 0.500000
O O9 0.611421 0.040800 0.730706
#
# Coordination Sequence:
#
# PCOD8249547 Si02
#       4
#     8   8   8   8
#     4  10  23  42  73 102 146 195 251 307 388 451
#     4  12  28  46  75 112 156 200 258 320 392 466
#     4  12  28  46  75 112 157 201 258 321 392 466
#     4  10  23  42  73 104 146 195 251 306 389 452
#
# _framework density 24.563611000000002
#
# number of rings (size 3 to 8) (size 9 to 14) (size 15 to 20)
#    0.000    1.000    0.000    4.500   21.000    2.000 
#    0.000    0.000    0.000    0.000    0.000    0.000 
#    0.000    0.000    0.000    0.000    0.000    0.000 
#
# Total GULP energy -396561.181115 kJ/mol
# GULP energy per Si atom -12392.536910 kJ/mol
# Density = 2.450770 g / cm^3
# Si number density = 24.563611 Si / 1000 Ang^3
#
#
#
# Elastic Constant Matrix: (Units=GPa)
#
#
# Indices 1 2 3 4 5 6 
#
# 1 270.2689 19.0602 93.8041 0.0000 0.0000 0.0000
# 2 19.0602 62.0202 38.3612 0.0000 0.0000 0.0000
# 3 93.8041 38.3612 195.5075 0.0000 0.0000 0.0000
# 4 0.0000 0.0000 0.0000 35.1356 0.0000 0.0000
# 5 0.0000 0.0000 0.0000 0.0000 60.9325 0.0000
# 6 0.0000 0.0000 0.0000 0.0000 0.0000 20.2307
#
#
#
# Elastic Compliance Matrix: (Units=1/GPa)
#
#
# Indices 1 2 3 4 5 6 
#
# 1 0.004439 -0.000053 -0.002120 0.000000 0.000000 0.000000
# 2 -0.000053 0.018352 -0.003575 0.000000 0.000000 0.000000
# 3 -0.002120 -0.003575 0.006833 0.000000 0.000000 0.000000
# 4 0.000000 0.000000 0.000000 0.028461 0.000000 0.000000
# 5 0.000000 0.000000 0.000000 0.000000 0.016412 0.000000
# 6 0.000000 0.000000 0.000000 0.000000 0.000000 0.049430
#
#
# Mechanical properties :
#
#
# Convention : Reuss Voigt Hill
#
# Bulk Modulus (GPa) = 55.16300 92.24974 73.70637
# Shear Modulus (GPa) = 35.34422 48.36450 41.85436
#
# Velocity S-wave (km/s) = 3.79738 4.44210 4.13233
# Velocity P-wave (km/s) = 6.46009 7.99666 7.26909
#
# Compressibility (1/GPa) = 0.01812809
#
# Stress axis : x y z
#
# Youngs Moduli (GPa) = 225.25394 54.49128 146.34064
#
# Poissons Ratio (x) = 0.00291 0.31018
# Poissons Ratio (y) = 0.01201 0.52320
# Poissons Ratio (z) = 0.47744 0.19482
#
# Static dielectric constant tensor:
#      x y z
#    x 6.050100 0.000000 0.000000 
#    y 0.000000 4.282880 0.000000 
#    z 0.000000 0.000000 4.430160 
# 
# 
# High freq. dielectric constant tensor:
#      x y z
#    x 2.025920 0.000000 0.000000 
#    y 0.000000 1.950610 0.000000 
#    z 0.000000 0.000000 1.977990 
# 
# From -- ./inp_files/340.got.cif
#   From: 2010.03.12/outbox.cif.g09.slc.cpg/sg61_1_cif.got.tgz:340.got - 2010.04.10 19:05:03.
