data_PCOD8249090
_publ_section_title
;
Structure prediction by ZEFSAII (Michael W. Deem and Ramdas Pophale) SiO2 
 PCOD8249090
Probable space group: P B C A
;
_chemical_formula_sum "Si O2"
_cell_formula_units_Z 64
_cell_length_a 11.064096
_cell_length_b 27.596453
_cell_length_c 8.766864
_cell_angle_alpha 90.000000
_cell_angle_beta 90.000000
_cell_angle_gamma 90.000000
_cell_volume 2676.784878
_symmetry_space_group_name_H-M "P B C A"
_symmetry_group_IT_number 61
_symmetry_cell_setting 'orthorhombic'
loop_
_space_group_symop_operation_xyz
x,y,z
1/2-x,-y,1/2+z
1/2+x,1/2-y,-z
-x,1/2+y,1/2-z
-x,-y,-z
1/2+x,y,1/2-z
1/2-x,1/2+y,z
x,1/2-y,1/2+z
loop_
_atom_site_type_symbol
_atom_site_label
_atom_site_fract_x
_atom_site_fract_y
_atom_site_fract_z
Si Si1 0.143482 0.526664 0.232953
Si Si2 0.553313 0.096914 0.186924
Si Si3 0.394480 0.187793 0.182575
Si Si4 0.225142 0.115236 0.082940
Si Si5 0.068757 0.185681 0.743375
Si Si6 0.753687 0.945030 0.472225
Si Si7 0.004824 0.767498 0.967671
Si Si8 0.811415 0.369803 0.245387
O O1 0.006971 0.543680 0.201055
O O2 0.223534 0.571141 0.180219
O O3 0.173591 0.521261 0.414460
O O4 0.167324 0.477545 0.142614
O O5 0.473431 0.141516 0.123888
O O6 0.586106 0.112328 0.362523
O O7 0.659286 0.091343 0.063805
O O8 0.260643 0.168428 0.149443
O O9 0.408561 0.199580 0.361841
O O10 0.414833 0.235345 0.081855
O O11 0.260818 0.106441 0.909537
O O12 0.075067 0.234056 0.642054
O O13 0.938268 0.158478 0.717654
O O14 0.193952 0.160206 0.696847
O O15 0.078218 0.198343 0.924385
O O16 0.664367 0.912059 0.368463
#
# Coordination Sequence:
#
# PCOD8249090 Si02
#       8
#     8   8   8   8   8   8   8   8
#     4  10  23  44  68 101 135 176 232 284 350 418
#     4  10  22  41  69  96 131 183 226 289 353 415
#     4  10  20  41  61  92 134 174 226 283 346 410
#     4  10  22  41  65  95 135 179 227 285 346 414
#     4  11  26  45  67 103 137 185 235 288 356 410
#     4  11  24  43  69 100 136 180 229 289 352 423
#     4  10  22  43  65  96 135 182 233 290 342 423
#     4  12  26  44  70 102 142 183 234 289 355 424
#
# _framework density 23.909279000000002
#
# number of rings (size 3 to 8) (size 9 to 14) (size 15 to 20)
#    0.000    1.500    1.250    2.625    8.750    1.000 
#   13.500    3.125    0.000    0.000    0.000    0.000 
#    0.000    0.000    0.000    0.000    0.000    0.000 
#
# Total GULP energy -792851.689934 kJ/mol
# GULP energy per Si atom -12388.307655 kJ/mol
# Density = 2.385486 g / cm^3
# Si number density = 23.909279 Si / 1000 Ang^3
#
#
#
# Elastic Constant Matrix: (Units=GPa)
#
#
# Indices 1 2 3 4 5 6 
#
# 1 53.8494 0.8166 -0.8381 0.0000 0.0000 0.0000
# 2 0.8166 64.4504 28.2656 0.0000 0.0000 0.0000
# 3 -0.8381 28.2656 135.5727 0.0000 0.0000 0.0000
# 4 0.0000 0.0000 0.0000 46.4123 0.0000 0.0000
# 5 0.0000 0.0000 0.0000 0.0000 23.6176 0.0000
# 6 0.0000 0.0000 0.0000 0.0000 0.0000 11.5598
#
#
#
# Elastic Compliance Matrix: (Units=1/GPa)
#
#
# Indices 1 2 3 4 5 6 
#
# 1 0.018578 -0.000315 0.000180 0.000000 0.000000 0.000000
# 2 -0.000315 0.017083 -0.003563 0.000000 0.000000 0.000000
# 3 0.000180 -0.003563 0.008120 0.000000 0.000000 0.000000
# 4 0.000000 0.000000 0.000000 0.021546 0.000000 0.000000
# 5 0.000000 0.000000 0.000000 0.000000 0.042341 0.000000
# 6 0.000000 0.000000 0.000000 0.000000 0.000000 0.086507
#
#
# Mechanical properties :
#
#
# Convention : Reuss Voigt Hill
#
# Bulk Modulus (GPa) = 27.48348 34.48452 30.98400
# Shear Modulus (GPa) = 23.39746 31.35985 27.37865
#
# Velocity S-wave (km/s) = 3.13164 3.62556 3.38761
# Velocity P-wave (km/s) = 4.95944 5.65514 5.31868
#
# Compressibility (1/GPa) = 0.03638549
#
# Stress axis : x y z
#
# Youngs Moduli (GPa) = 53.82742 58.53908 123.14991
#
# Poissons Ratio (x) = 0.01841 -0.02222
# Poissons Ratio (y) = 0.01693 0.43884
# Poissons Ratio (z) = -0.00971 0.20860
#
# Static dielectric constant tensor:
#      x y z
#    x 4.344760 0.000000 0.000000 
#    y 0.000000 4.261780 0.000000 
#    z 0.000000 0.000000 4.666340 
# 
# 
# High freq. dielectric constant tensor:
#      x y z
#    x 1.927180 0.000000 0.000000 
#    y 0.000000 1.946820 0.000000 
#    z 0.000000 0.000000 1.966700 
# 
# From -- ./inp_files/2432.got.cif
#   From: 2010.03.12/outbox.cif.g09.slc.cpg/sg61_2_cif.got.tgz:2432.got - 2010.04.10 19:05:03.
