data_PCOD8249065
_publ_section_title
;
Structure prediction by ZEFSAII (Michael W. Deem and Ramdas Pophale) SiO2 
 PCOD8249065
Probable space group: P B C A
;
_chemical_formula_sum "Si O2"
_cell_formula_units_Z 56
_cell_length_a 12.725954
_cell_length_b 14.109033
_cell_length_c 15.655246
_cell_angle_alpha 90.000000
_cell_angle_beta 90.000000
_cell_angle_gamma 90.000000
_cell_volume 2810.913586
_symmetry_space_group_name_H-M "P B C A"
_symmetry_group_IT_number 61
_symmetry_cell_setting 'orthorhombic'
loop_
_space_group_symop_operation_xyz
x,y,z
1/2-x,-y,1/2+z
1/2+x,1/2-y,-z
-x,1/2+y,1/2-z
-x,-y,-z
1/2+x,y,1/2-z
1/2-x,1/2+y,z
x,1/2-y,1/2+z
loop_
_atom_site_type_symbol
_atom_site_label
_atom_site_fract_x
_atom_site_fract_y
_atom_site_fract_z
Si Si1 0.476806 0.937041 0.121346
Si Si2 0.489208 0.344829 0.022145
Si Si3 0.090878 0.238788 0.141081
Si Si4 0.665481 0.958532 0.000857
Si Si5 0.625070 0.998957 0.589594
Si Si6 0.542629 0.598571 0.249526
Si Si7 0.673434 0.711480 0.381045
O O1 0.457747 0.839035 0.171907
O O2 0.571978 0.919401 0.057895
O O3 0.506690 0.022957 0.184704
O O4 0.373577 0.960506 0.064651
O O5 0.572253 0.396623 0.085032
O O6 0.404464 0.286381 0.075839
O O7 0.553306 0.278915 0.956324
O O8 0.428728 0.427017 0.974310
O O9 0.215785 0.254681 0.148110
O O10 0.052210 0.153460 0.202160
O O11 0.753765 0.997802 0.063518
O O12 0.707546 0.870971 0.945865
O O13 0.616695 0.959396 0.685075
O O14 0.615350 0.673492 0.297308
#
# Coordination Sequence:
#
# PCOD8249065 Si02
#       7
#     8   8   8   8   8   8   8
#     4  10  22  41  62  93 129 163 211 266 306 384
#     4  10  21  39  66  89 123 160 221 257 304 381
#     4  11  22  43  63  93 128 168 210 265 315 379
#     4  10  20  39  67  89 120 168 214 254 316 369
#     4  10  21  41  63  93 121 169 208 262 313 375
#     4  10  26  41  59  95 136 161 211 261 323 376
#     4  11  22  42  64  96 125 167 211 266 314 381
#
# _framework density 19.922349000000001
#
# number of rings (size 3 to 8) (size 9 to 14) (size 15 to 20)
#    0.000    1.714    2.857    0.857    4.000    0.000 
#    2.571    0.000    0.000    0.000    0.000    0.000 
#    0.000    0.000    0.000    0.000    0.000    0.000 
#
# Total GULP energy -694411.355854 kJ/mol
# GULP energy per Si atom -12400.202783 kJ/mol
# Density = 1.987701 g / cm^3
# Si number density = 19.922349 Si / 1000 Ang^3
#
#
#
# Elastic Constant Matrix: (Units=GPa)
#
#
# Indices 1 2 3 4 5 6 
#
# 1 84.7306 33.6918 29.5554 0.0000 0.0000 0.0000
# 2 33.6918 71.2527 21.4382 0.0000 0.0000 0.0000
# 3 29.5554 21.4382 84.0395 0.0000 0.0000 0.0000
# 4 0.0000 0.0000 0.0000 20.2179 0.0000 0.0000
# 5 0.0000 0.0000 0.0000 0.0000 20.4842 0.0000
# 6 0.0000 0.0000 0.0000 0.0000 0.0000 22.8807
#
#
#
# Elastic Compliance Matrix: (Units=1/GPa)
#
#
# Indices 1 2 3 4 5 6 
#
# 1 0.015640 -0.006218 -0.003914 0.000000 0.000000 0.000000
# 2 -0.006218 0.017673 -0.002322 0.000000 0.000000 0.000000
# 3 -0.003914 -0.002322 0.013868 0.000000 0.000000 0.000000
# 4 0.000000 0.000000 0.000000 0.049461 0.000000 0.000000
# 5 0.000000 0.000000 0.000000 0.000000 0.048818 0.000000
# 6 0.000000 0.000000 0.000000 0.000000 0.000000 0.043705
#
#
# Mechanical properties :
#
#
# Convention : Reuss Voigt Hill
#
# Bulk Modulus (GPa) = 44.89562 45.48817 45.19190
# Shear Modulus (GPa) = 22.57373 23.07240 22.82306
#
# Velocity S-wave (km/s) = 3.36979 3.40680 3.38834
# Velocity P-wave (km/s) = 6.14205 6.19333 6.16775
#
# Compressibility (1/GPa) = 0.02227389
#
# Stress axis : x y z
#
# Youngs Moduli (GPa) = 63.93966 56.58330 72.10850
#
# Poissons Ratio (x) = 0.35181 0.28225
# Poissons Ratio (y) = 0.39755 0.16742
# Poissons Ratio (z) = 0.25027 0.13137
#
# Static dielectric constant tensor:
#      x y z
#    x 3.503280 0.000000 0.000000 
#    y 0.000000 3.730730 0.000000 
#    z 0.000000 0.000000 3.632500 
# 
# 
# High freq. dielectric constant tensor:
#      x y z
#    x 1.774450 0.000000 0.000000 
#    y 0.000000 1.786340 0.000000 
#    z 0.000000 0.000000 1.771660 
# 
# From -- ./inp_files/7499.got.cif
#   From: 2010.03.12/outbox.cif.g09.slc.cpg/sg61_4_cif.got.tgz:7499.got - 2010.04.10 19:05:03.
