data_PCOD8249364
_publ_section_title
;
Structure prediction by ZEFSAII (Michael W. Deem and Ramdas Pophale) SiO2 
 PCOD8249364
Probable space group: P B C A
;
_chemical_formula_sum "Si O2"
_cell_formula_units_Z 48
_cell_length_a 17.361095
_cell_length_b 9.819109
_cell_length_c 14.350913
_cell_angle_alpha 90.000000
_cell_angle_beta 90.000000
_cell_angle_gamma 90.000000
_cell_volume 2446.407087
_symmetry_space_group_name_H-M "P B C A"
_symmetry_group_IT_number 61
_symmetry_cell_setting 'orthorhombic'
loop_
_space_group_symop_operation_xyz
x,y,z
1/2-x,-y,1/2+z
1/2+x,1/2-y,-z
-x,1/2+y,1/2-z
-x,-y,-z
1/2+x,y,1/2-z
1/2-x,1/2+y,z
x,1/2-y,1/2+z
loop_
_atom_site_type_symbol
_atom_site_label
_atom_site_fract_x
_atom_site_fract_y
_atom_site_fract_z
Si Si1 0.407340 0.815404 0.325136
Si Si2 0.413763 0.181030 0.649023
Si Si3 0.191905 0.140668 0.000333
Si Si4 0.329220 0.160404 0.466855
Si Si5 0.659233 0.591141 0.236009
Si Si6 0.335421 0.910019 0.706089
O O1 0.497470 0.842093 0.330599
O O2 0.373921 0.809747 0.429612
O O3 0.391042 0.673074 0.274519
O O4 0.369056 0.935708 0.264849
O O5 0.400816 0.174154 0.537690
O O6 0.385325 0.328050 0.683774
O O7 0.364809 0.064835 0.701490
O O8 0.161621 0.162020 0.105108
O O9 0.270295 0.219603 0.984707
O O10 0.213667 0.983163 0.983429
O O11 0.360833 0.165530 0.361688
O O12 0.750030 0.591456 0.252950
#
# Coordination Sequence:
#
# PCOD8249364 Si02
#       6
#     8   8   8   8   8   8
#     4  11  24  40  61  92 124 156 199 253 305 351
#     4  11  24  40  61  92 124 156 199 253 305 351
#     4  10  22  38  62  87 119 158 201 242 299 357
#     4  10  22  38  62  87 119 158 201 242 299 357
#     4  11  22  39  65  87 120 161 204 244 294 364
#     4  11  22  39  65  87 120 161 204 244 294 364
#
# _framework density 19.620609999999999
#
# number of rings (size 3 to 8) (size 9 to 14) (size 15 to 20)
#    0.000    1.333    3.333    2.000    4.667    7.333 
#    0.000    0.000    0.000    5.000    0.000    0.000 
#    0.000    0.000    0.000    0.000    0.000    0.000 
#
# Total GULP energy -595422.406872 kJ/mol
# GULP energy per Si atom -12404.633476 kJ/mol
# Density = 1.957595 g / cm^3
# Si number density = 19.620610 Si / 1000 Ang^3
#
#
#
# Elastic Constant Matrix: (Units=GPa)
#
#
# Indices 1 2 3 4 5 6 
#
# 1 58.7298 13.6895 19.6614 0.0000 0.0000 0.0000
# 2 13.6895 51.1398 18.1249 0.0000 0.0000 0.0000
# 3 19.6614 18.1249 88.2099 0.0000 0.0000 0.0000
# 4 0.0000 0.0000 0.0000 30.1445 0.0000 0.0000
# 5 0.0000 0.0000 0.0000 0.0000 21.4050 0.0000
# 6 0.0000 0.0000 0.0000 0.0000 0.0000 22.7033
#
#
#
# Elastic Compliance Matrix: (Units=1/GPa)
#
#
# Indices 1 2 3 4 5 6 
#
# 1 0.019090 -0.003885 -0.003457 0.000000 0.000000 0.000000
# 2 -0.003885 0.021881 -0.003630 0.000000 0.000000 0.000000
# 3 -0.003457 -0.003630 0.012853 0.000000 0.000000 0.000000
# 4 0.000000 0.000000 0.000000 0.033174 0.000000 0.000000
# 5 0.000000 0.000000 0.000000 0.000000 0.046718 0.000000
# 6 0.000000 0.000000 0.000000 0.000000 0.000000 0.044046
#
#
# Mechanical properties :
#
#
# Convention : Reuss Voigt Hill
#
# Bulk Modulus (GPa) = 31.36750 33.44790 32.40770
# Shear Modulus (GPa) = 23.77196 24.62415 24.19806
#
# Velocity S-wave (km/s) = 3.48455 3.54646 3.51564
# Velocity P-wave (km/s) = 5.67549 5.81844 5.74741
#
# Compressibility (1/GPa) = 0.03188013
#
# Stress axis : x y z
#
# Youngs Moduli (GPa) = 52.38362 45.70226 77.80318
#
# Poissons Ratio (x) = 0.17755 0.26895
# Poissons Ratio (y) = 0.20351 0.28242
# Poissons Ratio (z) = 0.18108 0.16590
#
# Static dielectric constant tensor:
#      x y z
#    x 3.377710 0.000000 0.000000 
#    y 0.000000 3.615510 0.000000 
#    z 0.000000 0.000000 3.919530 
# 
# 
# High freq. dielectric constant tensor:
#      x y z
#    x 1.752710 0.000000 0.000000 
#    y 0.000000 1.769980 0.000000 
#    z 0.000000 0.000000 1.778250 
# 
# From -- ./inp_files/8100.got.cif
#   From: 2010.03.12/outbox.cif.g09.slc.cpg/sg61_5_cif.got.tgz:8100.got - 2010.04.10 19:05:03.
