data_PCOD8249905
_publ_section_title
;
Structure prediction by ZEFSAII (Michael W. Deem and Ramdas Pophale) SiO2 
 PCOD8249905
Probable space group: P B C A
;
_chemical_formula_sum "Si O2"
_cell_formula_units_Z 64
_cell_length_a 17.593752
_cell_length_b 8.555920
_cell_length_c 18.852877
_cell_angle_alpha 90.000000
_cell_angle_beta 90.000000
_cell_angle_gamma 90.000000
_cell_volume 2837.937424
_symmetry_space_group_name_H-M "P B C A"
_symmetry_group_IT_number 61
_symmetry_cell_setting 'orthorhombic'
loop_
_space_group_symop_operation_xyz
x,y,z
1/2-x,-y,1/2+z
1/2+x,1/2-y,-z
-x,1/2+y,1/2-z
-x,-y,-z
1/2+x,y,1/2-z
1/2-x,1/2+y,z
x,1/2-y,1/2+z
loop_
_atom_site_type_symbol
_atom_site_label
_atom_site_fract_x
_atom_site_fract_y
_atom_site_fract_z
Si Si1 0.572311 0.660506 0.223024
Si Si2 0.347577 0.373910 0.171647
Si Si3 0.057229 0.126071 0.686227
Si Si4 0.700911 0.293954 0.786359
Si Si5 0.329574 0.415074 0.905583
Si Si6 0.483613 0.912888 0.927762
Si Si7 0.434360 0.389303 0.031445
Si Si8 0.173384 0.225158 0.379465
O O1 0.585988 0.785993 0.285524
O O2 0.494786 0.720059 0.188143
O O3 0.557808 0.480447 0.243302
O O4 0.642323 0.658631 0.168511
O O5 0.280299 0.243757 0.174512
O O6 0.313604 0.521523 0.212665
O O7 0.377482 0.440739 0.095724
O O8 0.140387 0.192207 0.669618
O O9 0.031602 0.012557 0.625799
O O10 0.690744 0.251547 0.703555
O O11 0.337797 0.602353 0.911961
O O12 0.243426 0.361825 0.917183
O O13 0.380753 0.337990 0.966915
O O14 0.520639 0.746571 0.931651
O O15 0.397653 0.887599 0.899436
O O16 0.500000 0.000000 0.000000
O O17 0.500000 0.500000 0.000000
#
# Coordination Sequence:
#
# PCOD8249905 Si02
#       8
#     8   8   8   8   8   8   8   8
#     4  12  24  46  72 113 142 201 249 322 375 452
#     4  12  27  47  75 107 159 191 255 311 387 455
#     4  12  26  42  75 107 145 192 251 312 380 448
#     4  12  26  47  77 114 148 194 252 325 381 447
#     4  12  28  46  78 103 153 193 250 307 380 452
#     4  12  28  48  74 105 151 193 258 302 375 466
#     4  12  29  51  71 107 150 206 243 308 379 461
#     4  12  26  50  74 112 143 197 250 313 377 453
#
# _framework density 22.551587999999999
#
# number of rings (size 3 to 8) (size 9 to 14) (size 15 to 20)
#    0.000    0.000    5.000    4.500    8.750    2.000 
#    0.000    0.000    0.000    0.000    0.000    0.000 
#    0.000    0.000    0.000    0.000    0.000    0.000 
#
# Total GULP energy -793267.390937 kJ/mol
# GULP energy per Si atom -12394.802983 kJ/mol
# Density = 2.250026 g / cm^3
# Si number density = 22.551588 Si / 1000 Ang^3
#
#
#
# Elastic Constant Matrix: (Units=GPa)
#
#
# Indices 1 2 3 4 5 6 
#
# 1 123.0833 19.6268 51.7634 0.0000 0.0000 0.0000
# 2 19.6268 67.5030 11.3830 0.0000 0.0000 0.0000
# 3 51.7634 11.3830 94.8064 0.0000 0.0000 0.0000
# 4 0.0000 0.0000 0.0000 22.5685 0.0000 0.0000
# 5 0.0000 0.0000 0.0000 0.0000 32.8647 0.0000
# 6 0.0000 0.0000 0.0000 0.0000 0.0000 49.9025
#
#
#
# Elastic Compliance Matrix: (Units=1/GPa)
#
#
# Indices 1 2 3 4 5 6 
#
# 1 0.010858 -0.002202 -0.005664 0.000000 0.000000 0.000000
# 2 -0.002202 0.015567 -0.000667 0.000000 0.000000 0.000000
# 3 -0.005664 -0.000667 0.013720 0.000000 0.000000 0.000000
# 4 0.000000 0.000000 0.000000 0.044310 0.000000 0.000000
# 5 0.000000 0.000000 0.000000 0.000000 0.030428 0.000000
# 6 0.000000 0.000000 0.000000 0.000000 0.000000 0.020039
#
#
# Mechanical properties :
#
#
# Convention : Reuss Voigt Hill
#
# Bulk Modulus (GPa) = 43.32807 50.10434 46.71621
# Shear Modulus (GPa) = 31.31277 34.57511 32.94394
#
# Velocity S-wave (km/s) = 3.73029 3.91980 3.82622
# Velocity P-wave (km/s) = 6.14882 6.53853 6.34667
#
# Compressibility (1/GPa) = 0.02307972
#
# Stress axis : x y z
#
# Youngs Moduli (GPa) = 92.10124 64.23924 72.88495
#
# Poissons Ratio (x) = 0.14144 0.41281
# Poissons Ratio (y) = 0.20279 0.04860
# Poissons Ratio (z) = 0.52164 0.04284
#
# Static dielectric constant tensor:
#      x y z
#    x 4.376230 0.000000 0.000000 
#    y 0.000000 3.968250 0.000000 
#    z 0.000000 0.000000 3.774070 
# 
# 
# High freq. dielectric constant tensor:
#      x y z
#    x 1.908400 0.000000 0.000000 
#    y 0.000000 1.900340 0.000000 
#    z 0.000000 0.000000 1.879940 
# 
# From -- ./inp_files/10536.got.cif
#   From: 2010.03.12/outbox.cif.g09.slc.cpg/sg61_6_cif.got.tgz:10536.got - 2010.04.10 19:05:03.
