data_PCOD8249854
_publ_section_title
;
Structure prediction by ZEFSAII (Michael W. Deem and Ramdas Pophale) SiO2 
 PCOD8249854
Probable space group: P B C A
;
_chemical_formula_sum "Si O2"
_cell_formula_units_Z 40
_cell_length_a 7.985744
_cell_length_b 17.016043
_cell_length_c 9.036419
_cell_angle_alpha 90.000000
_cell_angle_beta 90.000000
_cell_angle_gamma 90.000000
_cell_volume 1227.920693
_symmetry_space_group_name_H-M "P B C A"
_symmetry_group_IT_number 61
_symmetry_cell_setting 'orthorhombic'
loop_
_space_group_symop_operation_xyz
x,y,z
1/2-x,-y,1/2+z
1/2+x,1/2-y,-z
-x,1/2+y,1/2-z
-x,-y,-z
1/2+x,y,1/2-z
1/2-x,1/2+y,z
x,1/2-y,1/2+z
loop_
_atom_site_type_symbol
_atom_site_label
_atom_site_fract_x
_atom_site_fract_y
_atom_site_fract_z
Si Si1 0.636249 0.891216 0.517806
Si Si2 0.342123 0.239809 0.164018
Si Si3 0.568433 0.054411 0.828944
Si Si4 0.075241 0.394910 0.759812
Si Si5 0.244586 0.354530 0.405679
O O1 0.594166 0.805888 0.451352
O O2 0.744981 0.941746 0.402222
O O3 0.456938 0.922436 0.584949
O O4 0.734605 0.886343 0.679391
O O5 0.503193 0.192030 0.215409
O O6 0.236801 0.281152 0.293417
O O7 0.217988 0.178947 0.073557
O O8 0.603165 0.081925 0.656210
O O9 0.435554 0.112994 0.902028
O O10 0.505656 0.966314 0.854987
#
# Coordination Sequence:
#
# PCOD8249854 Si02
#       5
#     8   8   8   8   8
#     4  11  26  46  71 108 142 194 248 300 374 441
#     4  11  25  43  74 103 139 188 242 300 362 433
#     4  11  26  47  72 106 147 196 242 308 373 446
#     4  12  25  46  76 102 152 190 248 307 373 435
#     4  11  25  46  72 104 145 189 245 299 371 437
#
# _framework density 32.575395
#
# number of rings (size 3 to 8) (size 9 to 14) (size 15 to 20)
#    0.000    0.800    4.000    1.800    5.600    1.600 
#    3.600    5.000    0.000    0.000    0.000    0.000 
#    0.000    0.000    0.000    0.000    0.000    0.000 
#
# Total GULP energy -495682.032125 kJ/mol
# GULP energy per Si atom -12392.050803 kJ/mol
# Density = 3.250125 g / cm^3
# Si number density = 32.575395 Si / 1000 Ang^3
#
#
#
# Elastic Constant Matrix: (Units=GPa)
#
#
# Indices 1 2 3 4 5 6 
#
# 1 67.3567 36.7316 -0.4412 0.0000 0.0000 0.0000
# 2 36.7316 100.6269 17.3346 0.0000 0.0000 0.0000
# 3 -0.4412 17.3346 155.2012 0.0000 0.0000 0.0000
# 4 0.0000 0.0000 0.0000 36.3957 0.0000 0.0000
# 5 0.0000 0.0000 0.0000 0.0000 38.8758 0.0000
# 6 0.0000 0.0000 0.0000 0.0000 0.0000 64.7034
#
#
#
# Elastic Compliance Matrix: (Units=1/GPa)
#
#
# Indices 1 2 3 4 5 6 
#
# 1 0.018640 -0.006947 0.000829 0.000000 0.000000 0.000000
# 2 -0.006947 0.012722 -0.001441 0.000000 0.000000 0.000000
# 3 0.000829 -0.001441 0.006607 0.000000 0.000000 0.000000
# 4 0.000000 0.000000 0.000000 0.027476 0.000000 0.000000
# 5 0.000000 0.000000 0.000000 0.000000 0.025723 0.000000
# 6 0.000000 0.000000 0.000000 0.000000 0.000000 0.015455
#
#
# Mechanical properties :
#
#
# Convention : Reuss Voigt Hill
#
# Bulk Modulus (GPa) = 43.76186 47.82609 45.79397
# Shear Modulus (GPa) = 38.65283 45.96564 42.30923
#
# Velocity S-wave (km/s) = 3.44839 3.76047 3.60781
# Velocity P-wave (km/s) = 5.41465 5.79383 5.60744
#
# Compressibility (1/GPa) = 0.02285095
#
# Stress axis : x y z
#
# Youngs Moduli (GPa) = 53.64767 78.60575 151.36581
#
# Poissons Ratio (x) = 0.54607 -0.12547
# Poissons Ratio (y) = 0.37269 0.21807
# Poissons Ratio (z) = -0.04447 0.11324
#
# Static dielectric constant tensor:
#      x y z
#    x 6.303950 0.000000 0.000000 
#    y 0.000000 6.176750 0.000000 
#    z 0.000000 0.000000 13.232550 
# 
# 
# High freq. dielectric constant tensor:
#      x y z
#    x 2.374390 0.000000 0.000000 
#    y 0.000000 2.353460 0.000000 
#    z 0.000000 0.000000 2.400390 
# 
# From -- ./inp_files/4803.got.cif
#   From: 2010.03.12/outbox.cif.g09.slc.cpg/sg61_3_cif.got.tgz:4803.got - 2010.04.10 19:05:03.
