data_PCOD8249673
_publ_section_title
;
Structure prediction by ZEFSAII (Michael W. Deem and Ramdas Pophale) SiO2 
 PCOD8249673
Probable space group: P B C A
;
_chemical_formula_sum "Si O2"
_cell_formula_units_Z 64
_cell_length_a 17.021651
_cell_length_b 20.380633
_cell_length_c 9.048699
_cell_angle_alpha 90.000000
_cell_angle_beta 90.000000
_cell_angle_gamma 90.000000
_cell_volume 3139.102467
_symmetry_space_group_name_H-M "P B C A"
_symmetry_group_IT_number 61
_symmetry_cell_setting 'orthorhombic'
loop_
_space_group_symop_operation_xyz
x,y,z
1/2-x,-y,1/2+z
1/2+x,1/2-y,-z
-x,1/2+y,1/2-z
-x,-y,-z
1/2+x,y,1/2-z
1/2-x,1/2+y,z
x,1/2-y,1/2+z
loop_
_atom_site_type_symbol
_atom_site_label
_atom_site_fract_x
_atom_site_fract_y
_atom_site_fract_z
Si Si1 0.571220 0.760781 0.711322
Si Si2 0.014212 0.320356 0.441790
Si Si3 0.834694 0.499679 0.668859
Si Si4 0.852621 0.335909 0.977021
Si Si5 0.064977 0.953177 0.069131
Si Si6 0.911094 0.485716 0.961951
Si Si7 0.824326 0.870210 0.979456
Si Si8 0.835280 0.537984 0.227281
O O1 0.527749 0.807802 0.597423
O O2 0.617510 0.704862 0.619455
O O3 0.503020 0.732295 0.816017
O O4 0.627616 0.802355 0.819432
O O5 0.108026 0.321855 0.462503
O O6 0.977512 0.387482 0.382080
O O7 0.865868 0.444667 0.553545
O O8 0.900842 0.508072 0.793332
O O9 0.819538 0.566462 0.582745
O O10 0.756253 0.477117 0.751895
O O11 0.887214 0.409428 0.984069
O O12 0.758354 0.333804 0.984671
O O13 0.105896 0.981943 0.214079
O O14 0.000000 0.000000 0.000000
O O15 0.855822 0.536747 0.053949
O O16 0.000000 0.500000 0.000000
O O17 0.849169 0.893620 0.813390
#
# Coordination Sequence:
#
# PCOD8249673 Si02
#       8
#     8   8   8   8   8   8   8   8
#     4  10  26  44  68  86 120 170 222 258 306 354
#     4  11  23  44  66  91 121 165 213 259 305 375
#     4  11  21  38  56  99 128 161 190 244 321 379
#     4  11  23  47  62  94 125 168 212 266 305 375
#     4  11  20  37  66  91 124 162 195 248 318 375
#     4  12  24  35  65  97 135 156 202 258 324 379
#     4  11  24  40  66  88 132 161 205 255 312 379
#     4  11  21  38  56  99 128 161 190 244 321 379
#
# _framework density 20.387992000000001
#
# number of rings (size 3 to 8) (size 9 to 14) (size 15 to 20)
#    0.000    1.000    5.000    3.000    3.500    1.000 
#    0.000    0.000    0.000    0.000    0.000    0.000 
#    0.000    0.000    0.000    0.000    0.000    0.000 
#
# Total GULP energy -793436.534362 kJ/mol
# GULP energy per Si atom -12397.445849 kJ/mol
# Density = 2.034159 g / cm^3
# Si number density = 20.387992 Si / 1000 Ang^3
#
#
#
# Elastic Constant Matrix: (Units=GPa)
#
#
# Indices 1 2 3 4 5 6 
#
# 1 127.7326 26.6101 9.3683 0.0000 0.0000 0.0000
# 2 26.6101 49.2373 5.3519 0.0000 0.0000 0.0000
# 3 9.3683 5.3519 77.0493 0.0000 0.0000 0.0000
# 4 0.0000 0.0000 0.0000 21.4213 0.0000 0.0000
# 5 0.0000 0.0000 0.0000 0.0000 32.7924 0.0000
# 6 0.0000 0.0000 0.0000 0.0000 0.0000 30.0828
#
#
#
# Elastic Compliance Matrix: (Units=1/GPa)
#
#
# Indices 1 2 3 4 5 6 
#
# 1 0.008865 -0.004709 -0.000751 0.000000 0.000000 0.000000
# 2 -0.004709 0.022966 -0.001023 0.000000 0.000000 0.000000
# 3 -0.000751 -0.001023 0.013141 0.000000 0.000000 0.000000
# 4 0.000000 0.000000 0.000000 0.046682 0.000000 0.000000
# 5 0.000000 0.000000 0.000000 0.000000 0.030495 0.000000
# 6 0.000000 0.000000 0.000000 0.000000 0.000000 0.033242
#
#
# Mechanical properties :
#
#
# Convention : Reuss Voigt Hill
#
# Bulk Modulus (GPa) = 31.24367 37.40888 34.32627
# Shear Modulus (GPa) = 27.92896 31.03856 29.48376
#
# Velocity S-wave (km/s) = 3.70519 3.90602 3.80693
# Velocity P-wave (km/s) = 5.80193 6.22342 6.01637
#
# Compressibility (1/GPa) = 0.03200649
#
# Stress axis : x y z
#
# Youngs Moduli (GPa) = 112.80285 43.54229 76.09757
#
# Poissons Ratio (x) = 0.20506 0.05713
# Poissons Ratio (y) = 0.53124 0.07782
# Poissons Ratio (z) = 0.08469 0.04453
#
# Static dielectric constant tensor:
#      x y z
#    x 5.994990 0.000000 0.000000 
#    y 0.000000 2.532390 0.000000 
#    z 0.000000 0.000000 3.934160 
# 
# 
# High freq. dielectric constant tensor:
#      x y z
#    x 1.811540 0.000000 0.000000 
#    y 0.000000 1.769810 0.000000 
#    z 0.000000 0.000000 1.816760 
# 
# From -- ./inp_files/3702.got.cif
#   From: 2010.03.12/outbox.cif.g09.slc.cpg/sg61_2_cif.got.tgz:3702.got - 2010.04.10 19:05:03.
