data_PCOD8249535
_publ_section_title
;
Structure prediction by ZEFSAII (Michael W. Deem and Ramdas Pophale) SiO2 
 PCOD8249535
Probable space group: P B C A
;
_chemical_formula_sum "Si O2"
_cell_formula_units_Z 64
_cell_length_a 11.197955
_cell_length_b 9.062183
_cell_length_c 28.416985
_cell_angle_alpha 90.000000
_cell_angle_beta 90.000000
_cell_angle_gamma 90.000000
_cell_volume 2883.696458
_symmetry_space_group_name_H-M "P B C A"
_symmetry_group_IT_number 61
_symmetry_cell_setting 'orthorhombic'
loop_
_space_group_symop_operation_xyz
x,y,z
1/2-x,-y,1/2+z
1/2+x,1/2-y,-z
-x,1/2+y,1/2-z
-x,-y,-z
1/2+x,y,1/2-z
1/2-x,1/2+y,z
x,1/2-y,1/2+z
loop_
_atom_site_type_symbol
_atom_site_label
_atom_site_fract_x
_atom_site_fract_y
_atom_site_fract_z
Si Si1 0.357345 0.531409 0.950571
Si Si2 0.684615 0.696489 0.390926
Si Si3 0.029529 0.101414 0.331854
Si Si4 0.774873 0.703513 0.102583
Si Si5 0.629305 0.514861 0.941387
Si Si6 0.823428 0.788866 0.306485
Si Si7 0.421338 0.271759 0.330601
Si Si8 0.148227 0.600894 0.242104
O O1 0.338760 0.701902 0.937789
O O2 0.253307 0.452804 0.920695
O O3 0.489188 0.474396 0.935697
O O4 0.331305 0.508511 0.005106
O O5 0.575166 0.592360 0.372344
O O6 0.789131 0.589022 0.408955
O O7 0.726462 0.804354 0.348176
O O8 0.643836 0.810606 0.431016
O O9 0.137386 0.198029 0.352181
O O10 0.965592 0.173767 0.285873
O O11 0.083367 0.943654 0.315475
O O12 0.647489 0.765645 0.120064
O O13 0.777409 0.662813 0.271732
O O14 0.939964 0.730674 0.333881
O O15 0.847285 0.930067 0.273247
O O16 0.364921 0.147222 0.296160
#
# Coordination Sequence:
#
# PCOD8249535 Si02
#       8
#     8   8   8   8   8   8   8   8
#     4  11  25  42  65 100 140 169 233 271 345 408
#     4  11  21  44  73  93 136 172 224 278 345 399
#     4  10  23  44  63  95 130 172 220 274 334 401
#     4  12  23  44  66  92 136 183 212 283 331 413
#     4  11  23  42  69 103 131 178 220 290 335 412
#     4  10  23  42  62  96 123 167 221 270 329 397
#     4  11  24  40  66  92 129 175 221 265 336 402
#     4  10  24  40  64  91 130 162 219 286 316 401
#
# _framework density 22.193736999999999
#
# number of rings (size 3 to 8) (size 9 to 14) (size 15 to 20)
#    0.000    1.250    2.500    3.750    3.500    1.000 
#    2.250    0.625    0.000    0.000    0.000    0.000 
#    0.000    0.000    0.000    0.000    0.000    0.000 
#
# Total GULP energy -792913.741320 kJ/mol
# GULP energy per Si atom -12389.277208 kJ/mol
# Density = 2.214322 g / cm^3
# Si number density = 22.193737 Si / 1000 Ang^3
#
#
#
# Elastic Constant Matrix: (Units=GPa)
#
#
# Indices 1 2 3 4 5 6 
#
# 1 85.6612 24.3406 18.7976 0.0000 0.0000 0.0000
# 2 24.3406 76.9118 22.6144 0.0000 0.0000 0.0000
# 3 18.7976 22.6144 61.6728 0.0000 0.0000 0.0000
# 4 0.0000 0.0000 0.0000 34.5700 0.0000 0.0000
# 5 0.0000 0.0000 0.0000 0.0000 34.7266 0.0000
# 6 0.0000 0.0000 0.0000 0.0000 0.0000 31.1323
#
#
#
# Elastic Compliance Matrix: (Units=1/GPa)
#
#
# Indices 1 2 3 4 5 6 
#
# 1 0.013246 -0.003368 -0.002802 0.000000 0.000000 0.000000
# 2 -0.003368 0.015430 -0.004631 0.000000 0.000000 0.000000
# 3 -0.002802 -0.004631 0.018767 0.000000 0.000000 0.000000
# 4 0.000000 0.000000 0.000000 0.028927 0.000000 0.000000
# 5 0.000000 0.000000 0.000000 0.000000 0.028796 0.000000
# 6 0.000000 0.000000 0.000000 0.000000 0.000000 0.032121
#
#
# Mechanical properties :
#
#
# Convention : Reuss Voigt Hill
#
# Bulk Modulus (GPa) = 38.70073 39.52788 39.11431
# Shear Modulus (GPa) = 29.85029 30.65199 30.25114
#
# Velocity S-wave (km/s) = 3.67139 3.72036 3.69595
# Velocity P-wave (km/s) = 5.95379 6.02526 5.98963
#
# Compressibility (1/GPa) = 0.02583930
#
# Stress axis : x y z
#
# Youngs Moduli (GPa) = 75.49534 64.81090 53.28525
#
# Poissons Ratio (x) = 0.21828 0.14932
# Poissons Ratio (y) = 0.25427 0.24677
# Poissons Ratio (z) = 0.21156 0.30015
#
# Static dielectric constant tensor:
#      x y z
#    x 4.268980 0.000000 0.000000 
#    y 0.000000 3.705150 0.000000 
#    z 0.000000 0.000000 3.856690 
# 
# 
# High freq. dielectric constant tensor:
#      x y z
#    x 1.891530 0.000000 0.000000 
#    y 0.000000 1.858740 0.000000 
#    z 0.000000 0.000000 1.864700 
# 
# From -- ./inp_files/11794.got.cif
#   From: 2010.03.12/outbox.cif.g09.slc.cpg/sg61_6_cif.got.tgz:11794.got - 2010.04.10 19:05:03.
