data_PCOD8250102
_publ_section_title
;
Structure prediction by ZEFSAII (Michael W. Deem and Ramdas Pophale) SiO2 
 PCOD8250102
Probable space group: P N M A
;
_chemical_formula_sum "Si O2"
_cell_formula_units_Z 64
_cell_length_a 18.904462
_cell_length_b 21.401672
_cell_length_c 9.008582
_cell_angle_alpha 90.000000
_cell_angle_beta 90.000000
_cell_angle_gamma 90.000000
_cell_volume 3644.756022
_symmetry_space_group_name_H-M "P N M A"
_symmetry_group_IT_number 62
_symmetry_cell_setting 'orthorhombic'
loop_
_space_group_symop_operation_xyz
x,y,z
1/2-x,-y,1/2+z
1/2+x,1/2-y,1/2-z
-x,1/2+y,-z
-x,-y,-z
1/2+x,y,1/2-z
1/2-x,1/2+y,1/2+z
x,1/2-y,z
loop_
_atom_site_type_symbol
_atom_site_label
_atom_site_fract_x
_atom_site_fract_y
_atom_site_fract_z
Si Si1 0.929774 0.511892 0.842050
Si Si2 0.077859 0.390812 0.636535
Si Si3 0.642168 0.179656 0.124605
Si Si4 0.001163 0.820006 0.788242
Si Si5 0.711986 0.053071 0.188885
Si Si6 0.491750 0.898344 0.433430
Si Si7 0.671345 0.997855 0.894020
Si Si8 0.969528 0.429704 0.398378
O O1 0.853611 0.522411 0.773114
O O2 0.939497 0.438987 0.884967
O O3 0.993178 0.530144 0.730585
O O4 0.936122 0.554642 0.988820
O O5 0.107392 0.333899 0.536968
O O6 0.044162 0.365949 0.789324
O O7 0.141043 0.438483 0.677859
O O8 0.019623 0.429779 0.542377
O O9 0.674501 0.250000 0.121906
O O10 0.582420 0.174671 0.251556
O O11 0.701159 0.127611 0.163262
O O12 0.029604 0.750000 0.775384
O O13 0.043590 0.860275 0.666841
O O14 0.014975 0.843454 0.955633
O O15 0.783766 0.042071 0.277503
O O16 0.719688 0.016826 0.033525
O O17 0.606022 0.955521 0.947886
#
# Coordination Sequence:
#
# PCOD8250102 Si02
#       8
#     8   8   8   8   8   8   8   8
#     4  10  18  32  50  76 110 140 169 207 270 324
#     4  10  18  31  53  80 103 137 179 222 261 320
#     4   9  18  36  54  70 102 146 179 210 257 322
#     4   9  18  32  51  75 102 136 183 221 251 310
#     4  11  22  35  50  83 108 137 175 220 264 321
#     4  10  18  26  52  78 109 135 167 223 268 309
#     4  11  22  31  52  77 112 135 172 223 267 317
#     4  10  17  36  55  74 101 145 180 208 268 320
#
# _framework density 17.559474999999999
#
# number of rings (size 3 to 8) (size 9 to 14) (size 15 to 20)
#    0.000    2.000    6.250    1.125    1.750    0.500 
#    0.000    0.625    0.000    0.000    0.000    4.375 
#    0.000    0.000    0.000    0.000    0.000    0.000 
#
# Total GULP energy -793374.476752 kJ/mol
# GULP energy per Si atom -12396.476199 kJ/mol
# Density = 1.751951 g / cm^3
# Si number density = 17.559475 Si / 1000 Ang^3
#
#
#
# Elastic Constant Matrix: (Units=GPa)
#
#
# Indices 1 2 3 4 5 6 
#
# 1 53.8103 28.5226 18.0429 0.0000 0.0000 0.0000
# 2 28.5226 114.1033 33.3314 0.0000 0.0000 0.0000
# 3 18.0429 33.3314 88.6352 0.0000 0.0000 0.0000
# 4 0.0000 0.0000 0.0000 20.5016 0.0000 0.0000
# 5 0.0000 0.0000 0.0000 0.0000 25.2587 0.0000
# 6 0.0000 0.0000 0.0000 0.0000 0.0000 15.1471
#
#
#
# Elastic Compliance Matrix: (Units=1/GPa)
#
#
# Indices 1 2 3 4 5 6 
#
# 1 0.021985 -0.004705 -0.002706 0.000000 0.000000 0.000000
# 2 -0.004705 0.010853 -0.003123 0.000000 0.000000 0.000000
# 3 -0.002706 -0.003123 0.013008 0.000000 0.000000 0.000000
# 4 0.000000 0.000000 0.000000 0.048777 0.000000 0.000000
# 5 0.000000 0.000000 0.000000 0.000000 0.039590 0.000000
# 6 0.000000 0.000000 0.000000 0.000000 0.000000 0.066019
#
#
# Mechanical properties :
#
#
# Convention : Reuss Voigt Hill
#
# Bulk Modulus (GPa) = 40.36120 46.26030 43.31075
# Shear Modulus (GPa) = 21.78089 23.95829 22.86959
#
# Velocity S-wave (km/s) = 3.52576 3.69780 3.61280
# Velocity P-wave (km/s) = 6.29365 6.68085 6.49014
#
# Compressibility (1/GPa) = 0.02477627
#
# Stress axis : x y z
#
# Youngs Moduli (GPa) = 45.48525 92.14448 76.87838
#
# Poissons Ratio (x) = 0.43356 0.20803
# Poissons Ratio (y) = 0.21402 0.24011
# Poissons Ratio (z) = 0.12308 0.28780
#
# Static dielectric constant tensor:
#      x y z
#    x 2.886620 0.000000 0.000000 
#    y 0.000000 3.276740 0.000000 
#    z 0.000000 0.000000 3.442920 
# 
# 
# High freq. dielectric constant tensor:
#      x y z
#    x 1.638050 0.000000 0.000000 
#    y 0.000000 1.667090 0.000000 
#    z 0.000000 0.000000 1.689140 
# 
# From -- ./inp_files/8993.got.cif
#   From: 2010.03.12/outbox.cif.g09.slc.cpg/sg62_5_cif.got.tgz:8993.got - 2010.04.10 19:12:36.
