data_PCOD8250990
_publ_section_title
;
Structure prediction by ZEFSAII (Michael W. Deem and Ramdas Pophale) SiO2 
 PCOD8250990
Probable space group: P N M A
;
_chemical_formula_sum "Si O2"
_cell_formula_units_Z 64
_cell_length_a 15.294557
_cell_length_b 9.347699
_cell_length_c 24.574958
_cell_angle_alpha 90.000000
_cell_angle_beta 90.000000
_cell_angle_gamma 90.000000
_cell_volume 3513.455086
_symmetry_space_group_name_H-M "P N M A"
_symmetry_group_IT_number 62
_symmetry_cell_setting 'orthorhombic'
loop_
_space_group_symop_operation_xyz
x,y,z
1/2-x,-y,1/2+z
1/2+x,1/2-y,1/2-z
-x,1/2+y,-z
-x,-y,-z
1/2+x,y,1/2-z
1/2-x,1/2+y,1/2+z
x,1/2-y,z
loop_
_atom_site_type_symbol
_atom_site_label
_atom_site_fract_x
_atom_site_fract_y
_atom_site_fract_z
Si Si1 0.684097 0.581838 0.151648
Si Si2 0.324002 0.918946 0.434994
Si Si3 0.678129 0.582929 0.859327
Si Si4 0.487039 0.085008 0.604632
Si Si5 0.282654 0.418165 0.263132
Si Si6 0.825000 0.919446 0.942317
Si Si7 0.989742 0.586943 0.340784
Si Si8 0.450445 0.912282 0.280668
O O1 0.697305 0.750000 0.163026
O O2 0.747574 0.521671 0.104272
O O3 0.702062 0.496215 0.207490
O O4 0.584168 0.550752 0.133551
O O5 0.321569 0.750000 0.431307
O O6 0.419036 0.972668 0.415977
O O7 0.304912 0.970150 0.496359
O O8 0.660622 0.750000 0.864653
O O9 0.719305 0.543853 0.800847
O O10 0.744856 0.527496 0.905092
O O11 0.584656 0.508628 0.868487
O O12 0.472750 0.250000 0.587858
O O13 0.481514 0.065208 0.670004
O O14 0.414275 0.989649 0.576920
O O15 0.277283 0.250000 0.273489
O O16 0.371046 0.478978 0.289592
O O17 0.837322 0.750000 0.937937
O O18 0.963146 0.750000 0.351894
O O19 0.998274 0.557115 0.276150
O O20 0.412904 0.750000 0.283021
#
# Coordination Sequence:
#
# PCOD8250990 Si02
#       8
#     8   8   8   8   8   8   8   8
#     4  10  19  34  55  78 104 135 173 216 259 307
#     4   9  18  35  55  74 102 138 175 213 256 308
#     4   9  20  37  52  72 106 140 172 212 259 308
#     4  10  19  32  52  79 107 136 170 214 261 303
#     4  10  19  31  49  75 104 136 169 206 255 306
#     4  10  21  36  54  74 100 141 181 211 255 311
#     4   9  19  33  54  79 103 136 174 213 260 309
#     4   9  17  32  50  74 106 135 167 206 254 308
#
# _framework density 18.215686000000002
#
# number of rings (size 3 to 8) (size 9 to 14) (size 15 to 20)
#    0.000    2.500    1.250    0.750    1.750    2.000 
#    0.000    1.250    0.000    0.000    0.000    0.000 
#    0.000    0.000    0.000    0.000    0.000    0.000 
#
# Total GULP energy -793566.306991 kJ/mol
# GULP energy per Si atom -12399.473547 kJ/mol
# Density = 1.817423 g / cm^3
# Si number density = 18.215686 Si / 1000 Ang^3
#
#
#
# Elastic Constant Matrix: (Units=GPa)
#
#
# Indices 1 2 3 4 5 6 
#
# 1 137.0013 42.1501 67.6251 0.0000 0.0000 0.0000
# 2 42.1501 44.9821 29.5662 0.0000 0.0000 0.0000
# 3 67.6251 29.5662 96.9536 0.0000 0.0000 0.0000
# 4 0.0000 0.0000 0.0000 18.2567 0.0000 0.0000
# 5 0.0000 0.0000 0.0000 0.0000 25.3618 0.0000
# 6 0.0000 0.0000 0.0000 0.0000 0.0000 29.4479
#
#
#
# Elastic Compliance Matrix: (Units=1/GPa)
#
#
# Indices 1 2 3 4 5 6 
#
# 1 0.012996 -0.007779 -0.006692 0.000000 0.000000 0.000000
# 2 -0.007779 0.032460 -0.004473 0.000000 0.000000 0.000000
# 3 -0.006692 -0.004473 0.016346 0.000000 0.000000 0.000000
# 4 0.000000 0.000000 0.000000 0.054774 0.000000 0.000000
# 5 0.000000 0.000000 0.000000 0.000000 0.039429 0.000000
# 6 0.000000 0.000000 0.000000 0.000000 0.000000 0.033958
#
#
# Mechanical properties :
#
#
# Convention : Reuss Voigt Hill
#
# Bulk Modulus (GPa) = 41.81708 61.95777 51.88743
# Shear Modulus (GPa) = 21.20218 23.91963 22.56091
#
# Velocity S-wave (km/s) = 3.41538 3.62765 3.52311
# Velocity P-wave (km/s) = 6.20963 7.18566 6.71540
#
# Compressibility (1/GPa) = 0.02391367
#
# Stress axis : x y z
#
# Youngs Moduli (GPa) = 76.94719 30.80687 61.17587
#
# Poissons Ratio (x) = 0.23964 0.40942
# Poissons Ratio (y) = 0.59856 0.27365
# Poissons Ratio (z) = 0.51497 0.13780
#
# Static dielectric constant tensor:
#      x y z
#    x 3.316970 0.000000 0.000000 
#    y 0.000000 3.189670 0.000000 
#    z 0.000000 0.000000 3.541410 
# 
# 
# High freq. dielectric constant tensor:
#      x y z
#    x 1.701350 0.000000 0.000000 
#    y 0.000000 1.687260 0.000000 
#    z 0.000000 0.000000 1.701310 
# 
# From -- ./inp_files/29752.got.cif
#   From: 2010.03.12/outbox.cif.g09.slc.cpg/sg62_15_cif.got.tgz:29752.got - 2010.04.10 19:12:36.
