data_PCOD8250355
_publ_section_title
;
Structure prediction by ZEFSAII (Michael W. Deem and Ramdas Pophale) SiO2 
 PCOD8250355
Probable space group: P N M A
;
_chemical_formula_sum "Si O2"
_cell_formula_units_Z 64
_cell_length_a 9.315349
_cell_length_b 14.384161
_cell_length_c 28.391206
_cell_angle_alpha 90.000000
_cell_angle_beta 90.000000
_cell_angle_gamma 90.000000
_cell_volume 3804.236487
_symmetry_space_group_name_H-M "P N M A"
_symmetry_group_IT_number 62
_symmetry_cell_setting 'orthorhombic'
loop_
_space_group_symop_operation_xyz
x,y,z
1/2-x,-y,1/2+z
1/2+x,1/2-y,1/2-z
-x,1/2+y,-z
-x,-y,-z
1/2+x,y,1/2-z
1/2-x,1/2+y,1/2+z
x,1/2-y,z
loop_
_atom_site_type_symbol
_atom_site_label
_atom_site_fract_x
_atom_site_fract_y
_atom_site_fract_z
Si Si1 0.432975 0.856964 0.204392
Si Si2 0.598394 0.856510 0.296317
Si Si3 0.936047 0.908036 0.021847
Si Si4 0.402311 0.452976 0.608306
Si Si5 0.561784 0.043272 0.890187
Si Si6 0.622050 0.642187 0.032849
Si Si7 0.588022 0.152384 0.423052
Si Si8 0.074268 0.648415 0.572481
O O1 0.472712 0.750000 0.192774
O O2 0.514446 0.892743 0.250653
O O3 0.265448 0.868088 0.214144
O O4 0.483102 0.922025 0.161465
O O5 0.558459 0.750000 0.307434
O O6 0.549305 0.918200 0.340551
O O7 0.768731 0.917212 0.036270
O O8 0.028035 0.884853 0.068781
O O9 0.951633 0.836525 0.978554
O O10 0.000000 0.000000 0.000000
O O11 0.231943 0.448125 0.602004
O O12 0.467711 0.557884 0.601783
O O13 0.488516 0.109605 0.927917
O O14 0.508417 0.936255 0.896772
O O15 0.660891 0.750000 0.040794
O O16 0.545264 0.627073 0.982491
O O17 0.530497 0.250000 0.399757
O O18 0.757931 0.150836 0.418040
O O19 0.007580 0.750000 0.586299
#
# Coordination Sequence:
#
# PCOD8250355 Si02
#       8
#     8   8   8   8   8   8   8   8
#     4   9  18  32  47  66  89 115 148 186 231 279
#     4   9  18  31  46  64  88 114 145 187 231 275
#     4   9  17  29  44  65  93 124 157 188 218 262
#     4   9  18  30  47  70  91 117 155 191 227 270
#     4  10  18  30  49  70  94 121 151 194 234 270
#     4  10  19  30  45  68  97 127 156 187 225 274
#     4   8  14  27  45  65  91 121 151 184 218 262
#     4   8  15  27  44  66  92 123 156 183 216 264
#
# _framework density 16.823350999999999
#
# number of rings (size 3 to 8) (size 9 to 14) (size 15 to 20)
#    0.000    3.000    0.000    2.625    0.000    2.500 
#    0.000    1.250    0.000    6.000    0.000    0.000 
#    0.000    0.000    0.000    0.000    0.000    0.000 
#
# Total GULP energy -792920.990366 kJ/mol
# GULP energy per Si atom -12389.390474 kJ/mol
# Density = 1.678506 g / cm^3
# Si number density = 16.823351 Si / 1000 Ang^3
#
#
#
# Elastic Constant Matrix: (Units=GPa)
#
#
# Indices 1 2 3 4 5 6 
#
# 1 32.9239 30.8425 40.0698 0.0000 0.0000 0.0000
# 2 30.8425 101.2660 70.5630 0.0000 0.0000 0.0000
# 3 40.0698 70.5630 132.4923 0.0000 0.0000 0.0000
# 4 0.0000 0.0000 0.0000 22.5061 0.0000 0.0000
# 5 0.0000 0.0000 0.0000 0.0000 28.3090 0.0000
# 6 0.0000 0.0000 0.0000 0.0000 0.0000 10.6779
#
#
#
# Elastic Compliance Matrix: (Units=1/GPa)
#
#
# Indices 1 2 3 4 5 6 
#
# 1 0.051579 -0.007696 -0.011500 0.000000 0.000000 0.000000
# 2 -0.007696 0.016850 -0.006647 0.000000 0.000000 0.000000
# 3 -0.011500 -0.006647 0.014566 0.000000 0.000000 0.000000
# 4 0.000000 0.000000 0.000000 0.044432 0.000000 0.000000
# 5 0.000000 0.000000 0.000000 0.000000 0.035324 0.000000
# 6 0.000000 0.000000 0.000000 0.000000 0.000000 0.093651
#
#
# Mechanical properties :
#
#
# Convention : Reuss Voigt Hill
#
# Bulk Modulus (GPa) = 31.93970 61.07032 46.50501
# Shear Modulus (GPa) = 15.69733 20.64573 18.17153
#
# Velocity S-wave (km/s) = 3.05793 3.50695 3.29011
# Velocity P-wave (km/s) = 5.61199 7.26485 6.49124
#
# Compressibility (1/GPa) = 0.03130900
#
# Stress axis : x y z
#
# Youngs Moduli (GPa) = 19.38779 59.34575 68.65464
#
# Poissons Ratio (x) = 0.45671 0.78956
# Poissons Ratio (y) = 0.14920 0.45633
# Poissons Ratio (z) = 0.22297 0.39446
#
# Static dielectric constant tensor:
#      x y z
#    x 3.001780 0.000000 0.000000 
#    y 0.000000 3.506970 0.000000 
#    z 0.000000 0.000000 3.256390 
# 
# 
# High freq. dielectric constant tensor:
#      x y z
#    x 1.622150 0.000000 0.000000 
#    y 0.000000 1.649280 0.000000 
#    z 0.000000 0.000000 1.633060 
# 
# From -- ./inp_files/32316.got.cif
#   From: 2010.03.12/outbox.cif.g09.slc.cpg/sg62_17_cif.got.tgz:32316.got - 2010.04.10 19:12:36.
