data_PCOD8250687
_publ_section_title
;
Structure prediction by ZEFSAII (Michael W. Deem and Ramdas Pophale) SiO2 
 PCOD8250687
Probable space group: P N M A
;
_chemical_formula_sum "Si O2"
_cell_formula_units_Z 60
_cell_length_a 5.246116
_cell_length_b 31.501429
_cell_length_c 18.821231
_cell_angle_alpha 90.000000
_cell_angle_beta 90.000000
_cell_angle_gamma 90.000000
_cell_volume 3110.399471
_symmetry_space_group_name_H-M "P N M A"
_symmetry_group_IT_number 62
_symmetry_cell_setting 'orthorhombic'
loop_
_space_group_symop_operation_xyz
x,y,z
1/2-x,-y,1/2+z
1/2+x,1/2-y,1/2-z
-x,1/2+y,-z
-x,-y,-z
1/2+x,y,1/2-z
1/2-x,1/2+y,1/2+z
x,1/2-y,z
loop_
_atom_site_type_symbol
_atom_site_label
_atom_site_fract_x
_atom_site_fract_y
_atom_site_fract_z
Si Si1 0.255778 0.148716 0.929996
Si Si2 0.736018 0.902801 0.209913
Si Si3 0.753223 0.499237 0.183095
Si Si4 0.278178 0.324370 0.393913
Si Si5 0.246426 0.964750 0.662887
Si Si6 0.757512 0.298608 0.948270
Si Si7 0.332419 0.750000 0.790500
Si Si8 0.776844 0.125215 0.410233
O O1 0.264565 0.112682 0.870676
O O2 0.500255 0.178969 0.921600
O O3 0.004243 0.177075 0.918498
O O4 0.250411 0.123078 0.004288
O O5 0.486152 0.885340 0.250068
O O6 0.732050 0.953508 0.212075
O O7 0.765105 0.466880 0.250786
O O8 0.008179 0.491894 0.136847
O O9 0.510858 0.487314 0.134090
O O10 0.263255 0.298566 0.466838
O O11 0.230479 0.292382 0.331484
O O12 0.558922 0.343350 0.381614
O O13 0.060930 0.360248 0.390491
O O14 0.270961 0.918659 0.629354
O O15 0.760546 0.250000 0.921267
O O16 0.634025 0.750000 0.774838
#
# Coordination Sequence:
#
# PCOD8250687 Si02
#       8
#     8   8   8   8   8   8   4   8
#     4  10  23  36  61  97 112 151 199 243 299 347
#     4  12  21  40  64  84 122 151 195 241 287 367
#     4  10  19  35  56  81 105 155 206 221 276 362
#     4  10  21  39  57  81 111 165 193 239 303 326
#     4  10  18  35  54  80 113 145 189 242 270 332
#     4  10  19  39  66  85 117 152 200 240 285 362
#     4  12  24  40  52  80 122 150 210 242 276 350
#     4  10  21  38  58  84 123 142 199 254 294 341
#
# _framework density 19.290129
#
# number of rings (size 3 to 8) (size 9 to 14) (size 15 to 20)
#    0.000    1.600    3.333    2.800    0.000    0.000 
#   14.400    1.333    0.000    8.000    0.000    0.000 
#    0.000    0.000    0.000    0.000    0.000    0.000 
#
# Total GULP energy -743764.724894 kJ/mol
# GULP energy per Si atom -12396.078748 kJ/mol
# Density = 1.924622 g / cm^3
# Si number density = 19.290129 Si / 1000 Ang^3
#
#
#
# Elastic Constant Matrix: (Units=GPa)
#
#
# Indices 1 2 3 4 5 6 
#
# 1 148.0459 25.7760 18.0925 0.0000 0.0000 0.0000
# 2 25.7760 75.8387 45.6461 0.0000 0.0000 0.0000
# 3 18.0925 45.6461 69.3137 0.0000 0.0000 0.0000
# 4 0.0000 0.0000 0.0000 37.0271 0.0000 0.0000
# 5 0.0000 0.0000 0.0000 0.0000 16.9533 0.0000
# 6 0.0000 0.0000 0.0000 0.0000 0.0000 16.5394
#
#
#
# Elastic Compliance Matrix: (Units=1/GPa)
#
#
# Indices 1 2 3 4 5 6 
#
# 1 0.007188 -0.002176 -0.000443 0.000000 0.000000 0.000000
# 2 -0.002176 0.022503 -0.014251 0.000000 0.000000 0.000000
# 3 -0.000443 -0.014251 0.023928 0.000000 0.000000 0.000000
# 4 0.000000 0.000000 0.000000 0.027007 0.000000 0.000000
# 5 0.000000 0.000000 0.000000 0.000000 0.058986 0.000000
# 6 0.000000 0.000000 0.000000 0.000000 0.000000 0.060462
#
#
# Mechanical properties :
#
#
# Convention : Reuss Voigt Hill
#
# Bulk Modulus (GPa) = 50.30771 52.46970 51.38871
# Shear Modulus (GPa) = 20.79518 27.68287 24.23903
#
# Velocity S-wave (km/s) = 3.28689 3.79235 3.54863
# Velocity P-wave (km/s) = 6.36718 6.81434 6.59455
#
# Compressibility (1/GPa) = 0.01987767
#
# Stress axis : x y z
#
# Youngs Moduli (GPa) = 139.12633 44.43823 41.79233
#
# Poissons Ratio (x) = 0.09671 0.01851
# Poissons Ratio (y) = 0.30279 0.59559
# Poissons Ratio (z) = 0.06162 0.63330
#
# Static dielectric constant tensor:
#      x y z
#    x 4.415220 0.000000 0.000000 
#    y 0.000000 3.277590 0.000000 
#    z 0.000000 0.000000 3.193990 
# 
# 
# High freq. dielectric constant tensor:
#      x y z
#    x 1.788880 0.000000 0.000000 
#    y 0.000000 1.740000 0.000000 
#    z 0.000000 0.000000 1.713990 
# 
# From -- ./inp_files/21660.got.cif
#   From: 2010.03.12/outbox.cif.g09.slc.cpg/sg62_11_cif.got.tgz:21660.got - 2010.04.10 19:12:36.
