data_PCOD8250918
_publ_section_title
;
Structure prediction by ZEFSAII (Michael W. Deem and Ramdas Pophale) SiO2 
 PCOD8250918
Probable space group: P N M A
;
_chemical_formula_sum "Si O2"
_cell_formula_units_Z 48
_cell_length_a 14.073762
_cell_length_b 8.982483
_cell_length_c 18.945277
_cell_angle_alpha 90.000000
_cell_angle_beta 90.000000
_cell_angle_gamma 90.000000
_cell_volume 2395.011295
_symmetry_space_group_name_H-M "P N M A"
_symmetry_group_IT_number 62
_symmetry_cell_setting 'orthorhombic'
loop_
_space_group_symop_operation_xyz
x,y,z
1/2-x,-y,1/2+z
1/2+x,1/2-y,1/2-z
-x,1/2+y,-z
-x,-y,-z
1/2+x,y,1/2-z
1/2-x,1/2+y,1/2+z
x,1/2-y,z
loop_
_atom_site_type_symbol
_atom_site_label
_atom_site_fract_x
_atom_site_fract_y
_atom_site_fract_z
Si Si1 0.353308 0.925575 0.139423
Si Si2 0.551650 0.919078 0.406286
Si Si3 0.856439 0.919979 0.033410
Si Si4 0.566598 0.926368 0.142009
Si Si5 0.831450 0.574427 0.520310
Si Si6 0.823998 0.076880 0.775517
O O1 0.336892 0.750000 0.136674
O O2 0.458874 0.967097 0.165581
O O3 0.273776 0.994549 0.193063
O O4 0.337289 0.986371 0.059888
O O5 0.578375 0.750000 0.429895
O O6 0.437757 0.940290 0.407068
O O7 0.588444 0.951393 0.328236
O O8 0.601163 0.035045 0.458017
O O9 0.821440 0.750000 0.029749
O O10 0.768476 0.023720 0.054173
O O11 0.575964 0.750000 0.132823
O O12 0.641028 0.989966 0.200495
O O13 0.585154 0.002167 0.066734
O O14 0.842585 0.750000 0.523979
O O15 0.806253 0.250000 0.763435
#
# Coordination Sequence:
#
# PCOD8250918 Si02
#       6
#     8   8   8   8   8   8
#     4   9  18  34  57  81 106 144 184 223 274 329
#     4   9  17  32  53  79 111 146 180 219 277 331
#     4  10  19  30  52  85 112 139 184 233 268 316
#     4  10  21  35  56  84 108 135 186 237 271 322
#     4  11  21  36  56  76 111 152 184 225 280 335
#     4   9  17  33  57  81 109 144 180 224 279 334
#
# _framework density 20.041658000000002
#
# number of rings (size 3 to 8) (size 9 to 14) (size 15 to 20)
#    0.000    2.333    1.667    1.500    0.000    2.000 
#    0.000    6.667    0.000    2.000    0.000    0.000 
#    0.000    0.000    0.000    0.000    0.000    0.000 
#
# Total GULP energy -594994.273698 kJ/mol
# GULP energy per Si atom -12395.714035 kJ/mol
# Density = 1.999604 g / cm^3
# Si number density = 20.041658 Si / 1000 Ang^3
#
#
#
# Elastic Constant Matrix: (Units=GPa)
#
#
# Indices 1 2 3 4 5 6 
#
# 1 128.9577 25.7051 61.0727 0.0000 0.0000 0.0000
# 2 25.7051 36.1295 18.8951 0.0000 0.0000 0.0000
# 3 61.0727 18.8951 102.5860 0.0000 0.0000 0.0000
# 4 0.0000 0.0000 0.0000 21.0573 0.0000 0.0000
# 5 0.0000 0.0000 0.0000 0.0000 30.3341 0.0000
# 6 0.0000 0.0000 0.0000 0.0000 0.0000 22.8383
#
#
#
# Elastic Compliance Matrix: (Units=1/GPa)
#
#
# Indices 1 2 3 4 5 6 
#
# 1 0.011601 -0.005137 -0.005960 0.000000 0.000000 0.000000
# 2 -0.005137 0.032903 -0.003002 0.000000 0.000000 0.000000
# 3 -0.005960 -0.003002 0.013849 0.000000 0.000000 0.000000
# 4 0.000000 0.000000 0.000000 0.047490 0.000000 0.000000
# 5 0.000000 0.000000 0.000000 0.000000 0.032966 0.000000
# 6 0.000000 0.000000 0.000000 0.000000 0.000000 0.043786
#
#
# Mechanical properties :
#
#
# Convention : Reuss Voigt Hill
#
# Bulk Modulus (GPa) = 33.16239 53.22434 43.19336
# Shear Modulus (GPa) = 22.64023 25.64594 24.14308
#
# Velocity S-wave (km/s) = 3.36469 3.58107 3.47457
# Velocity P-wave (km/s) = 5.62827 6.61160 6.13966
#
# Compressibility (1/GPa) = 0.03015464
#
# Stress axis : x y z
#
# Youngs Moduli (GPa) = 86.19838 30.39238 72.20566
#
# Poissons Ratio (x) = 0.15612 0.43038
# Poissons Ratio (y) = 0.44277 0.21678
# Poissons Ratio (z) = 0.51378 0.09125
#
# Static dielectric constant tensor:
#      x y z
#    x 3.953530 0.000000 0.000000 
#    y 0.000000 3.267050 0.000000 
#    z 0.000000 0.000000 3.652300 
# 
# 
# High freq. dielectric constant tensor:
#      x y z
#    x 1.798460 0.000000 0.000000 
#    y 0.000000 1.736410 0.000000 
#    z 0.000000 0.000000 1.770390 
# 
# From -- ./inp_files/23642.got.cif
#   From: 2010.03.12/outbox.cif.g09.slc.cpg/sg62_12_cif.got.tgz:23642.got - 2010.04.10 19:12:36.
