data_PCOD8250556
_publ_section_title
;
Structure prediction by ZEFSAII (Michael W. Deem and Ramdas Pophale) SiO2 
 PCOD8250556
Probable space group: P N M A
;
_chemical_formula_sum "Si O2"
_cell_formula_units_Z 64
_cell_length_a 20.008755
_cell_length_b 9.297685
_cell_length_c 19.962760
_cell_angle_alpha 90.000000
_cell_angle_beta 90.000000
_cell_angle_gamma 90.000000
_cell_volume 3713.774077
_symmetry_space_group_name_H-M "P N M A"
_symmetry_group_IT_number 62
_symmetry_cell_setting 'orthorhombic'
loop_
_space_group_symop_operation_xyz
x,y,z
1/2-x,-y,1/2+z
1/2+x,1/2-y,1/2-z
-x,1/2+y,-z
-x,-y,-z
1/2+x,y,1/2-z
1/2-x,1/2+y,1/2+z
x,1/2-y,z
loop_
_atom_site_type_symbol
_atom_site_label
_atom_site_fract_x
_atom_site_fract_y
_atom_site_fract_z
Si Si1 0.086786 0.417375 0.549959
Si Si2 0.086013 0.586454 0.956472
Si Si3 0.268213 0.580960 0.068967
Si Si4 0.442809 0.416481 0.917876
Si Si5 0.268272 0.415965 0.421817
Si Si6 0.841602 0.079137 0.828105
Si Si7 0.674215 0.582306 0.176452
Si Si8 0.441662 0.582701 0.587629
O O1 0.087949 0.250000 0.532362
O O2 0.155158 0.459811 0.588707
O O3 0.086941 0.496533 0.479377
O O4 0.021182 0.457442 0.593985
O O5 0.084245 0.750000 0.984927
O O6 0.152105 0.563216 0.911883
O O7 0.021545 0.557039 0.910163
O O8 0.088401 0.479211 0.018930
O O9 0.256677 0.750000 0.067991
O O10 0.218084 0.518344 0.124728
O O11 0.251851 0.521166 0.994832
O O12 0.436470 0.250000 0.936810
O O13 0.399626 0.454145 0.852406
O O14 0.247030 0.250000 0.415882
O O15 0.231951 0.501658 0.363422
O O16 0.851561 0.250000 0.832879
O O17 0.824424 0.030903 0.752965
O O18 0.910186 0.002134 0.849886
O O19 0.689936 0.750000 0.170339
O O20 0.423216 0.750000 0.592276
#
# Coordination Sequence:
#
# PCOD8250556 Si02
#       8
#     8   8   8   8   8   8   8   8
#     4   9  16  28  48  71  92 118 159 201 240 288
#     4   9  18  33  52  75 103 132 165 209 263 308
#     4   9  16  29  51  73  91 126 172 205 240 297
#     4   9  17  29  45  69  98 122 152 199 249 290
#     4  10  18  32  54  75  98 132 171 210 251 302
#     4  10  20  36  52  69 103 142 172 203 255 315
#     4  10  21  34  49  73 105 138 167 208 259 304
#     4  10  19  31  51  78 102 128 168 215 254 299
#
# _framework density 17.233142999999998
#
# number of rings (size 3 to 8) (size 9 to 14) (size 15 to 20)
#    0.000    2.500    2.500    0.375    0.000    1.500 
#    0.000    1.875    0.000    3.000    0.000    0.000 
#    0.000    0.000    0.000    0.000    0.000    0.000 
#
# Total GULP energy -793378.271520 kJ/mol
# GULP energy per Si atom -12396.535492 kJ/mol
# Density = 1.719392 g / cm^3
# Si number density = 17.233143 Si / 1000 Ang^3
#
#
#
# Elastic Constant Matrix: (Units=GPa)
#
#
# Indices 1 2 3 4 5 6 
#
# 1 137.0308 40.4216 73.3289 0.0000 0.0000 0.0000
# 2 40.4216 46.1148 41.5728 0.0000 0.0000 0.0000
# 3 73.3289 41.5728 121.7840 0.0000 0.0000 0.0000
# 4 0.0000 0.0000 0.0000 22.8837 0.0000 0.0000
# 5 0.0000 0.0000 0.0000 0.0000 26.4491 0.0000
# 6 0.0000 0.0000 0.0000 0.0000 0.0000 25.4140
#
#
#
# Elastic Compliance Matrix: (Units=1/GPa)
#
#
# Indices 1 2 3 4 5 6 
#
# 1 0.011702 -0.005641 -0.005120 0.000000 0.000000 0.000000
# 2 -0.005641 0.034045 -0.008225 0.000000 0.000000 0.000000
# 3 -0.005120 -0.008225 0.014102 0.000000 0.000000 0.000000
# 4 0.000000 0.000000 0.000000 0.043699 0.000000 0.000000
# 5 0.000000 0.000000 0.000000 0.000000 0.037808 0.000000
# 6 0.000000 0.000000 0.000000 0.000000 0.000000 0.039348
#
#
# Mechanical properties :
#
#
# Convention : Reuss Voigt Hill
#
# Bulk Modulus (GPa) = 45.71296 68.39737 57.05517
# Shear Modulus (GPa) = 22.12700 24.92312 23.52506
#
# Velocity S-wave (km/s) = 3.58715 3.80706 3.69874
# Velocity P-wave (km/s) = 6.61367 7.68769 7.17082
#
# Compressibility (1/GPa) = 0.02187563
#
# Stress axis : x y z
#
# Youngs Moduli (GPa) = 85.45876 29.37329 70.91245
#
# Poissons Ratio (x) = 0.16570 0.36308
# Poissons Ratio (y) = 0.48208 0.58325
# Poissons Ratio (z) = 0.43756 0.24159
#
# Static dielectric constant tensor:
#      x y z
#    x 3.585790 0.000000 0.000000 
#    y 0.000000 3.103440 0.000000 
#    z 0.000000 0.000000 3.034960 
# 
# 
# High freq. dielectric constant tensor:
#      x y z
#    x 1.684090 0.000000 0.000000 
#    y 0.000000 1.651610 0.000000 
#    z 0.000000 0.000000 1.631460 
# 
# From -- ./inp_files/27878.got.cif
#   From: 2010.03.12/outbox.cif.g09.slc.cpg/sg62_14_cif.got.tgz:27878.got - 2010.04.10 19:12:36.
