data_PCOD8250741
_publ_section_title
;
Structure prediction by ZEFSAII (Michael W. Deem and Ramdas Pophale) SiO2 
 PCOD8250741
Probable space group: P N M A
;
_chemical_formula_sum "Si O2"
_cell_formula_units_Z 28
_cell_length_a 8.749486
_cell_length_b 10.280436
_cell_length_c 17.194368
_cell_angle_alpha 90.000000
_cell_angle_beta 90.000000
_cell_angle_gamma 90.000000
_cell_volume 1546.608141
_symmetry_space_group_name_H-M "P N M A"
_symmetry_group_IT_number 62
_symmetry_cell_setting 'orthorhombic'
loop_
_space_group_symop_operation_xyz
x,y,z
1/2-x,-y,1/2+z
1/2+x,1/2-y,1/2-z
-x,1/2+y,-z
-x,-y,-z
1/2+x,y,1/2-z
1/2-x,1/2+y,1/2+z
x,1/2-y,z
loop_
_atom_site_type_symbol
_atom_site_label
_atom_site_fract_x
_atom_site_fract_y
_atom_site_fract_z
Si Si1 0.557530 0.250000 0.929564
Si Si2 0.278977 0.750000 0.409859
Si Si3 0.980921 0.895087 0.197125
Si Si4 0.355097 0.250000 0.068033
Si Si5 0.196199 0.485803 0.654399
O O1 0.397744 0.250000 0.881297
O O2 0.655325 0.122922 0.909333
O O3 0.517738 0.250000 0.021830
O O4 0.362456 0.621167 0.375374
O O5 0.283263 0.750000 0.504217
O O6 0.035248 0.750000 0.223997
O O7 0.123664 0.980865 0.170915
O O8 0.896370 0.967142 0.266624
O O9 0.346473 0.374536 0.122065
#
# Coordination Sequence:
#
# PCOD8250741 Si02
#       5
#     4   4   8   4   8
#     4  10  18  40  59  85 115 159 200 235 285 370
#     4   8  20  38  59  93 112 154 204 247 281 365
#     4  10  20  37  64  88 109 164 209 242 272 373
#     4  10  26  36  60  94 131 147 190 264 312 343
#     4  12  21  39  64  90 120 158 201 248 298 346
#
# _framework density 18.104134999999999
#
# number of rings (size 3 to 8) (size 9 to 14) (size 15 to 20)
#    1.714    0.000    2.857    2.571    0.000    2.286 
#    0.000    0.000    0.000    0.000    0.000    0.000 
#    0.000    0.000    0.000    0.000    0.000    0.000 
#
# Total GULP energy -347032.705640 kJ/mol
# GULP energy per Si atom -12394.025201 kJ/mol
# Density = 1.806293 g / cm^3
# Si number density = 18.104135 Si / 1000 Ang^3
#
#
#
# Elastic Constant Matrix: (Units=GPa)
#
#
# Indices 1 2 3 4 5 6 
#
# 1 58.3633 22.9297 35.8889 0.0000 0.0000 0.0000
# 2 22.9297 116.1693 42.2098 0.0000 0.0000 0.0000
# 3 35.8889 42.2098 85.4754 0.0000 0.0000 0.0000
# 4 0.0000 0.0000 0.0000 25.6270 0.0000 0.0000
# 5 0.0000 0.0000 0.0000 0.0000 31.6628 0.0000
# 6 0.0000 0.0000 0.0000 0.0000 0.0000 14.9785
#
#
#
# Elastic Compliance Matrix: (Units=1/GPa)
#
#
# Indices 1 2 3 4 5 6 
#
# 1 0.023250 -0.001270 -0.009135 0.000000 0.000000 0.000000
# 2 -0.001270 0.010560 -0.004681 0.000000 0.000000 0.000000
# 3 -0.009135 -0.004681 0.017847 0.000000 0.000000 0.000000
# 4 0.000000 0.000000 0.000000 0.039021 0.000000 0.000000
# 5 0.000000 0.000000 0.000000 0.000000 0.031583 0.000000
# 6 0.000000 0.000000 0.000000 0.000000 0.000000 0.066762
#
#
# Mechanical properties :
#
#
# Convention : Reuss Voigt Hill
#
# Bulk Modulus (GPa) = 46.54669 51.34053 48.94361
# Shear Modulus (GPa) = 22.08895 25.05230 23.57062
#
# Velocity S-wave (km/s) = 3.49679 3.72397 3.61216
# Velocity P-wave (km/s) = 6.48612 6.84913 6.67009
#
# Compressibility (1/GPa) = 0.02148381
#
# Stress axis : x y z
#
# Youngs Moduli (GPa) = 43.01004 94.69884 56.03287
#
# Poissons Ratio (x) = 0.12027 0.51187
# Poissons Ratio (y) = 0.05462 0.26231
# Poissons Ratio (z) = 0.39290 0.44333
#
# Static dielectric constant tensor:
#      x y z
#    x 3.288620 0.000000 0.000000 
#    y 0.000000 3.136390 0.000000 
#    z 0.000000 0.000000 3.211310 
# 
# 
# High freq. dielectric constant tensor:
#      x y z
#    x 1.701270 0.000000 0.000000 
#    y 0.000000 1.676150 0.000000 
#    z 0.000000 0.000000 1.699170 
# 
# From -- ./inp_files/25523.got.cif
#   From: 2010.03.12/outbox.cif.g09.slc.cpg/sg62_13_cif.got.tgz:25523.got - 2010.04.10 19:12:36.
