data_PCOD8250060
_publ_section_title
;
Structure prediction by ZEFSAII (Michael W. Deem and Ramdas Pophale) SiO2 
 PCOD8250060
Probable space group: P N M A
;
_chemical_formula_sum "Si O2"
_cell_formula_units_Z 64
_cell_length_a 19.086765
_cell_length_b 13.855213
_cell_length_c 13.697636
_cell_angle_alpha 90.000000
_cell_angle_beta 90.000000
_cell_angle_gamma 90.000000
_cell_volume 3622.356203
_symmetry_space_group_name_H-M "P N M A"
_symmetry_group_IT_number 62
_symmetry_cell_setting 'orthorhombic'
loop_
_space_group_symop_operation_xyz
x,y,z
1/2-x,-y,1/2+z
1/2+x,1/2-y,1/2-z
-x,1/2+y,-z
-x,-y,-z
1/2+x,y,1/2-z
1/2-x,1/2+y,1/2+z
x,1/2-y,z
loop_
_atom_site_type_symbol
_atom_site_label
_atom_site_fract_x
_atom_site_fract_y
_atom_site_fract_z
Si Si1 0.110230 0.643737 0.478810
Si Si2 0.403154 0.138231 0.613193
Si Si3 0.184066 0.476395 0.796882
Si Si4 0.962174 0.637164 0.419521
Si Si5 0.300694 0.136603 0.446851
Si Si6 0.546849 0.136492 0.695125
Si Si7 0.177222 0.032888 0.565288
Si Si8 0.313700 0.143420 0.785457
O O1 0.116277 0.750000 0.527354
O O2 0.167079 0.576878 0.531236
O O3 0.125178 0.651834 0.364216
O O4 0.029880 0.605266 0.483669
O O5 0.406312 0.250000 0.643300
O O6 0.374464 0.123110 0.503983
O O7 0.482474 0.099374 0.626641
O O8 0.347829 0.091909 0.690082
O O9 0.114914 0.423832 0.837655
O O10 0.188705 0.472840 0.680429
O O11 0.251768 0.418563 0.833215
O O12 0.189624 0.584070 0.842397
O O13 0.950522 0.750000 0.429812
O O14 0.971939 0.609590 0.306156
O O15 0.893726 0.587690 0.464060
O O16 0.283906 0.250000 0.430294
O O17 0.240238 0.087243 0.511443
O O18 0.562926 0.250000 0.681621
O O19 0.283690 0.250000 0.758685
#
# Coordination Sequence:
#
# PCOD8250060 Si02
#       8
#     8   8   8   8   8   8   8   8
#     4  10  19  32  52  78 107 136 169 217 271 320
#     4   9  17  32  54  77 103 136 170 212 265 314
#     4  11  22  34  52  79 106 136 174 225 266 304
#     4   9  17  30  51  81 109 131 165 219 270 311
#     4  11  23  37  53  75 106 145 183 217 261 318
#     4   9  17  31  53  81 106 128 165 218 267 306
#     4  11  21  34  53  77 105 141 182 216 262 321
#     4  10  17  30  53  80 105 129 167 220 268 310
#
# _framework density 17.668057999999998
#
# number of rings (size 3 to 8) (size 9 to 14) (size 15 to 20)
#    0.000    2.000    3.750    1.125    0.000    2.000 
#    0.000    0.000    0.000    0.000    0.000    0.875 
#    0.000    0.000    0.000    0.000    0.000    0.000 
#
# Total GULP energy -793210.274882 kJ/mol
# GULP energy per Si atom -12393.910545 kJ/mol
# Density = 1.762784 g / cm^3
# Si number density = 17.668058 Si / 1000 Ang^3
#
#
#
# Elastic Constant Matrix: (Units=GPa)
#
#
# Indices 1 2 3 4 5 6 
#
# 1 106.0527 45.3421 21.4924 0.0000 0.0000 0.0000
# 2 45.3421 78.2567 25.1391 0.0000 0.0000 0.0000
# 3 21.4924 25.1391 33.2869 0.0000 0.0000 0.0000
# 4 0.0000 0.0000 0.0000 22.0831 0.0000 0.0000
# 5 0.0000 0.0000 0.0000 0.0000 19.2709 0.0000
# 6 0.0000 0.0000 0.0000 0.0000 0.0000 25.6914
#
#
#
# Elastic Compliance Matrix: (Units=1/GPa)
#
#
# Indices 1 2 3 4 5 6 
#
# 1 0.012841 -0.006307 -0.003528 0.000000 0.000000 0.000000
# 2 -0.006307 0.019969 -0.011009 0.000000 0.000000 0.000000
# 3 -0.003528 -0.011009 0.040634 0.000000 0.000000 0.000000
# 4 0.000000 0.000000 0.000000 0.045283 0.000000 0.000000
# 5 0.000000 0.000000 0.000000 0.000000 0.051892 0.000000
# 6 0.000000 0.000000 0.000000 0.000000 0.000000 0.038924
#
#
# Mechanical properties :
#
#
# Convention : Reuss Voigt Hill
#
# Bulk Modulus (GPa) = 31.48968 44.61594 38.05281
# Shear Modulus (GPa) = 19.09744 21.78393 20.44069
#
# Velocity S-wave (km/s) = 3.29127 3.51516 3.40506
# Velocity P-wave (km/s) = 5.68374 6.46392 6.08634
#
# Compressibility (1/GPa) = 0.03175644
#
# Stress axis : x y z
#
# Youngs Moduli (GPa) = 77.87829 50.07742 24.60985
#
# Poissons Ratio (x) = 0.31582 0.08682
# Poissons Ratio (y) = 0.49114 0.27094
# Poissons Ratio (z) = 0.27475 0.55131
#
# Static dielectric constant tensor:
#      x y z
#    x 3.432410 0.000000 0.000000 
#    y 0.000000 3.145160 0.000000 
#    z 0.000000 0.000000 2.987380 
# 
# 
# High freq. dielectric constant tensor:
#      x y z
#    x 1.697530 0.000000 0.000000 
#    y 0.000000 1.664900 0.000000 
#    z 0.000000 0.000000 1.657120 
# 
# From -- ./inp_files/19976.got.cif
#   From: 2010.03.12/outbox.cif.g09.slc.cpg/sg62_10_cif.got.tgz:19976.got - 2010.04.10 19:12:36.
