data_PCOD8250372
_publ_section_title
;
Structure prediction by ZEFSAII (Michael W. Deem and Ramdas Pophale) SiO2 
 PCOD8250372
Probable space group: P N M A
;
_chemical_formula_sum "Si O2"
_cell_formula_units_Z 56
_cell_length_a 22.804257
_cell_length_b 13.509095
_cell_length_c 8.478195
_cell_angle_alpha 90.000000
_cell_angle_beta 90.000000
_cell_angle_gamma 90.000000
_cell_volume 2611.834076
_symmetry_space_group_name_H-M "P N M A"
_symmetry_group_IT_number 62
_symmetry_cell_setting 'orthorhombic'
loop_
_space_group_symop_operation_xyz
x,y,z
1/2-x,-y,1/2+z
1/2+x,1/2-y,1/2-z
-x,1/2+y,-z
-x,-y,-z
1/2+x,y,1/2-z
1/2-x,1/2+y,1/2+z
x,1/2-y,z
loop_
_atom_site_type_symbol
_atom_site_label
_atom_site_fract_x
_atom_site_fract_y
_atom_site_fract_z
Si Si1 0.233667 0.509345 0.834659
Si Si2 0.580319 0.995456 0.140647
Si Si3 0.833891 0.636710 0.805025
Si Si4 0.355559 0.859267 0.325783
Si Si5 0.546917 0.014907 0.779046
Si Si6 0.676460 0.639031 0.037569
Si Si7 0.365658 0.139867 0.319628
O O1 0.275326 0.573334 0.723733
O O2 0.190003 0.434156 0.737168
O O3 0.269689 0.438383 0.952591
O O4 0.186058 0.583840 0.920348
O O5 0.612612 0.093607 0.202876
O O6 0.522854 0.977870 0.249002
O O7 0.623261 0.900004 0.148688
O O8 0.560745 0.011126 0.962929
O O9 0.823117 0.750000 0.752038
O O10 0.848216 0.630409 0.987724
O O11 0.342154 0.750000 0.263866
O O12 0.422604 0.886165 0.286398
O O13 0.573133 0.920372 0.682793
O O14 0.694741 0.750000 0.094534
O O15 0.657972 0.644055 0.857784
O O16 0.376690 0.250000 0.387320
#
# Coordination Sequence:
#
# PCOD8250372 Si02
#       7
#     8   8   8   8   8   8   8
#     4  10  18  30  50  72 100 134 174 216 256 308
#     4   9  19  35  55  80 108 139 179 223 264 311
#     4  10  21  36  55  80 110 144 179 218 269 324
#     4  10  21  36  55  80 110 144 179 218 269 324
#     4   9  19  35  55  80 108 139 179 223 264 311
#     4   9  17  30  49  71  96 130 170 210 254 305
#     4   9  17  30  49  71  96 130 170 210 254 305
#
# _framework density 21.440871999999999
#
# number of rings (size 3 to 8) (size 9 to 14) (size 15 to 20)
#    0.000    2.571    0.000    1.714    0.000    5.714 
#    0.000    2.857    0.000   40.286    0.000    0.000 
#    0.000    0.000    0.000    0.000    0.000    0.000 
#
# Total GULP energy -693803.815321 kJ/mol
# GULP energy per Si atom -12389.353845 kJ/mol
# Density = 2.139207 g / cm^3
# Si number density = 21.440872 Si / 1000 Ang^3
#
#
#
# Elastic Constant Matrix: (Units=GPa)
#
#
# Indices 1 2 3 4 5 6 
#
# 1 121.9248 49.3947 5.9785 0.0000 0.0000 0.0000
# 2 49.3947 161.3090 15.6255 0.0000 0.0000 0.0000
# 3 5.9785 15.6255 8.2772 0.0000 0.0000 0.0000
# 4 0.0000 0.0000 0.0000 22.6303 0.0000 0.0000
# 5 0.0000 0.0000 0.0000 0.0000 24.0423 0.0000
# 6 0.0000 0.0000 0.0000 0.0000 0.0000 17.8068
#
#
#
# Elastic Compliance Matrix: (Units=1/GPa)
#
#
# Indices 1 2 3 4 5 6 
#
# 1 0.009382 -0.002712 -0.001656 0.000000 0.000000 0.000000
# 2 -0.002712 0.008371 -0.013843 0.000000 0.000000 0.000000
# 3 -0.001656 -0.013843 0.148142 0.000000 0.000000 0.000000
# 4 0.000000 0.000000 0.000000 0.044189 0.000000 0.000000
# 5 0.000000 0.000000 0.000000 0.000000 0.041593 0.000000
# 6 0.000000 0.000000 0.000000 0.000000 0.000000 0.056158
#
#
# Mechanical properties :
#
#
# Convention : Reuss Voigt Hill
#
# Bulk Modulus (GPa) = 7.72369 48.16761 27.94565
# Shear Modulus (GPa) = 12.90606 27.59669 20.25137
#
# Velocity S-wave (km/s) = 2.45610 3.59152 3.07664
# Velocity P-wave (km/s) = 3.41371 6.30181 5.06785
#
# Compressibility (1/GPa) = 0.12947184
#
# Stress axis : x y z
#
# Youngs Moduli (GPa) = 106.58888 119.46291 6.75029
#
# Poissons Ratio (x) = 0.32404 0.01118
# Poissons Ratio (y) = 0.28912 0.09344
# Poissons Ratio (z) = 0.17649 1.65373
#
# Static dielectric constant tensor:
#      x y z
#    x 4.346680 0.000000 0.000000 
#    y 0.000000 4.357710 0.000000 
#    z 0.000000 0.000000 3.384160 
# 
# 
# High freq. dielectric constant tensor:
#      x y z
#    x 1.851550 0.000000 0.000000 
#    y 0.000000 1.849490 0.000000 
#    z 0.000000 0.000000 1.799100 
# 
# From -- ./inp_files/8724.got.cif
#   From: 2010.03.12/outbox.cif.g09.slc.cpg/sg62_5_cif.got.tgz:8724.got - 2010.04.10 19:12:36.
