data_PCOD8250418
_publ_section_title
;
Structure prediction by ZEFSAII (Michael W. Deem and Ramdas Pophale) SiO2 
 PCOD8250418
Probable space group: P N M A
;
_chemical_formula_sum "Si O2"
_cell_formula_units_Z 64
_cell_length_a 9.941813
_cell_length_b 20.935725
_cell_length_c 17.775812
_cell_angle_alpha 90.000000
_cell_angle_beta 90.000000
_cell_angle_gamma 90.000000
_cell_volume 3699.840853
_symmetry_space_group_name_H-M "P N M A"
_symmetry_group_IT_number 62
_symmetry_cell_setting 'orthorhombic'
loop_
_space_group_symop_operation_xyz
x,y,z
1/2-x,-y,1/2+z
1/2+x,1/2-y,1/2-z
-x,1/2+y,-z
-x,-y,-z
1/2+x,y,1/2-z
1/2-x,1/2+y,1/2+z
x,1/2-y,z
loop_
_atom_site_type_symbol
_atom_site_label
_atom_site_fract_x
_atom_site_fract_y
_atom_site_fract_z
Si Si1 0.903702 0.946346 0.467088
Si Si2 0.493137 0.476658 0.816914
Si Si3 0.202537 0.993912 0.805113
Si Si4 0.241053 0.148820 0.294777
Si Si5 0.738935 0.319592 0.371311
Si Si6 0.553308 0.676700 0.579824
Si Si7 0.875730 0.042182 0.026433
Si Si8 0.491498 0.614022 0.892669
O O1 0.945597 0.929156 0.381057
O O2 0.748806 0.970031 0.469984
O O3 0.922985 0.886876 0.524372
O O4 0.000000 0.000000 0.500000
O O5 0.582582 0.472339 0.741331
O O6 0.336375 0.461329 0.798802
O O7 0.497150 0.546132 0.852994
O O8 0.235346 0.924755 0.770446
O O9 0.161394 0.983035 0.891064
O O10 0.233198 0.187643 0.218469
O O11 0.363766 0.176088 0.343012
O O12 0.102104 0.159116 0.341047
O O13 0.766198 0.250000 0.405145
O O14 0.597871 0.345129 0.401639
O O15 0.856865 0.363635 0.401751
O O16 0.561064 0.750000 0.546343
O O17 0.601151 0.619444 0.524730
O O18 0.000000 0.000000 0.000000
#
# Coordination Sequence:
#
# PCOD8250418 Si02
#       8
#     8   8   8   8   8   8   8   8
#     4  10  19  37  49  72  97 139 177 227 271 313
#     4  10  20  31  52  68 104 132 174 218 272 314
#     4  10  20  32  47  80 100 142 174 217 274 315
#     4  10  18  31  47  67  99 139 186 219 250 309
#     4  11  22  30  46  72  99 144 186 219 261 297
#     4  10  22  36  47  70 107 138 179 227 258 311
#     4  11  23  35  56  80 104 143 189 216 279 332
#     4  10  19  33  49  66  97 138 186 219 259 309
#
# _framework density 17.298041000000001
#
# number of rings (size 3 to 8) (size 9 to 14) (size 15 to 20)
#    0.000    1.750    6.250    1.125   10.500    2.000 
#    0.000    0.000    0.000    0.000    0.000    0.000 
#    0.000    2.000    0.000    0.000    0.000    0.125 
#
# Total GULP energy -793086.652181 kJ/mol
# GULP energy per Si atom -12391.978940 kJ/mol
# Density = 1.725867 g / cm^3
# Si number density = 17.298041 Si / 1000 Ang^3
#
#
#
# Elastic Constant Matrix: (Units=GPa)
#
#
# Indices 1 2 3 4 5 6 
#
# 1 138.9015 25.8565 30.8039 0.0000 0.0000 0.0000
# 2 25.8565 41.0520 13.9134 0.0000 0.0000 0.0000
# 3 30.8039 13.9134 58.3877 0.0000 0.0000 0.0000
# 4 0.0000 0.0000 0.0000 9.6385 0.0000 0.0000
# 5 0.0000 0.0000 0.0000 0.0000 30.3374 0.0000
# 6 0.0000 0.0000 0.0000 0.0000 0.0000 13.4089
#
#
#
# Elastic Compliance Matrix: (Units=1/GPa)
#
#
# Indices 1 2 3 4 5 6 
#
# 1 0.008806 -0.004321 -0.003616 0.000000 0.000000 0.000000
# 2 -0.004321 0.028620 -0.004540 0.000000 0.000000 0.000000
# 3 -0.003616 -0.004540 0.020117 0.000000 0.000000 0.000000
# 4 0.000000 0.000000 0.000000 0.103751 0.000000 0.000000
# 5 0.000000 0.000000 0.000000 0.000000 0.032963 0.000000
# 6 0.000000 0.000000 0.000000 0.000000 0.000000 0.074577
#
#
# Mechanical properties :
#
#
# Convention : Reuss Voigt Hill
#
# Bulk Modulus (GPa) = 30.68654 42.16542 36.42598
# Shear Modulus (GPa) = 16.41233 21.86145 19.13689
#
# Velocity S-wave (km/s) = 3.08360 3.55887 3.32972
# Velocity P-wave (km/s) = 5.51874 6.42776 5.99052
#
# Compressibility (1/GPa) = 0.03258758
#
# Stress axis : x y z
#
# Youngs Moduli (GPa) = 113.56482 34.94119 49.71026
#
# Poissons Ratio (x) = 0.15097 0.17975
# Poissons Ratio (y) = 0.49067 0.22570
# Poissons Ratio (z) = 0.41065 0.15865
#
# Static dielectric constant tensor:
#      x y z
#    x 3.701980 0.000000 0.000000 
#    y 0.000000 3.034590 0.000000 
#    z 0.000000 0.000000 3.532500 
# 
# 
# High freq. dielectric constant tensor:
#      x y z
#    x 1.696400 0.000000 0.000000 
#    y 0.000000 1.616890 0.000000 
#    z 0.000000 0.000000 1.641790 
# 
# From -- ./inp_files/22636.got.cif
#   From: 2010.03.12/outbox.cif.g09.slc.cpg/sg62_12_cif.got.tgz:22636.got - 2010.04.10 19:12:36.
