data_PCOD8250804
_publ_section_title
;
Structure prediction by ZEFSAII (Michael W. Deem and Ramdas Pophale) SiO2 
 PCOD8250804
Probable space group: P N M A
;
_chemical_formula_sum "Si O2"
_cell_formula_units_Z 64
_cell_length_a 24.451532
_cell_length_b 9.427556
_cell_length_c 14.612002
_cell_angle_alpha 90.000000
_cell_angle_beta 90.000000
_cell_angle_gamma 90.000000
_cell_volume 3368.332213
_symmetry_space_group_name_H-M "P N M A"
_symmetry_group_IT_number 62
_symmetry_cell_setting 'orthorhombic'
loop_
_space_group_symop_operation_xyz
x,y,z
1/2-x,-y,1/2+z
1/2+x,1/2-y,1/2-z
-x,1/2+y,-z
-x,-y,-z
1/2+x,y,1/2-z
1/2-x,1/2+y,1/2+z
x,1/2-y,z
loop_
_atom_site_type_symbol
_atom_site_label
_atom_site_fract_x
_atom_site_fract_y
_atom_site_fract_z
Si Si1 0.342997 0.595258 0.630968
Si Si2 0.016320 0.910489 0.232213
Si Si3 0.810999 0.082644 0.563022
Si Si4 0.294878 0.917276 0.320241
Si Si5 0.925232 0.411829 0.958979
Si Si6 0.216869 0.593039 0.639087
Si Si7 0.394386 0.584971 0.822448
Si Si8 0.916047 0.585632 0.127598
O O1 0.368861 0.750000 0.606636
O O2 0.365767 0.474835 0.564938
O O3 0.279697 0.601238 0.613251
O O4 0.355386 0.559691 0.736065
O O5 0.028319 0.750000 0.265655
O O6 0.950919 0.939791 0.222084
O O7 0.045535 0.017971 0.302501
O O8 0.037098 0.933353 0.128893
O O9 0.818803 0.250000 0.579911
O O10 0.755203 0.031504 0.614928
O O11 0.811019 0.044871 0.455573
O O12 0.864238 0.998004 0.596764
O O13 0.292673 0.750000 0.306998
O O14 0.353262 0.963759 0.362082
O O15 0.292667 0.983132 0.219616
O O16 0.918844 0.250000 0.987911
O O17 0.946220 0.498040 0.047091
O O18 0.196231 0.750000 0.669006
O O19 0.401918 0.750000 0.847825
O O20 0.919753 0.750000 0.100383
#
# Coordination Sequence:
#
# PCOD8250804 Si02
#       8
#     8   8   8   8   8   8   8   8
#     4   9  17  31  49  70 102 139 171 206 257 316
#     4   9  19  34  52  74 104 141 179 219 265 319
#     4  10  20  34  54  78 108 142 175 214 264 322
#     4  10  21  36  55  79 108 143 179 216 259 315
#     4  10  19  29  47  77 106 136 178 222 259 304
#     4  10  20  35  54  77 107 143 179 217 268 321
#     4  10  19  32  53  77 102 133 173 220 261 305
#     4  10  20  35  52  72 105 146 179 212 266 326
#
# _framework density 19.000499999999999
#
# number of rings (size 3 to 8) (size 9 to 14) (size 15 to 20)
#    0.000    2.250    1.250    1.875    0.000    5.000 
#    0.000    1.250    0.000    0.750    0.000    0.000 
#    0.000    0.000    0.000    0.000    0.000    0.000 
#
# Total GULP energy -793251.050551 kJ/mol
# GULP energy per Si atom -12394.547665 kJ/mol
# Density = 1.895725 g / cm^3
# Si number density = 19.000500 Si / 1000 Ang^3
#
#
#
# Elastic Constant Matrix: (Units=GPa)
#
#
# Indices 1 2 3 4 5 6 
#
# 1 38.4669 14.3340 -1.4051 0.0000 0.0000 0.0000
# 2 14.3340 60.0840 22.8878 0.0000 0.0000 0.0000
# 3 -1.4051 22.8878 54.4751 0.0000 0.0000 0.0000
# 4 0.0000 0.0000 0.0000 26.6628 0.0000 0.0000
# 5 0.0000 0.0000 0.0000 0.0000 21.6296 0.0000
# 6 0.0000 0.0000 0.0000 0.0000 0.0000 19.6960
#
#
#
# Elastic Compliance Matrix: (Units=1/GPa)
#
#
# Indices 1 2 3 4 5 6 
#
# 1 0.029397 -0.008693 0.004411 0.000000 0.000000 0.000000
# 2 -0.008693 0.022385 -0.009630 0.000000 0.000000 0.000000
# 3 0.004411 -0.009630 0.022517 0.000000 0.000000 0.000000
# 4 0.000000 0.000000 0.000000 0.037506 0.000000 0.000000
# 5 0.000000 0.000000 0.000000 0.000000 0.046233 0.000000
# 6 0.000000 0.000000 0.000000 0.000000 0.000000 0.050772
#
#
# Mechanical properties :
#
#
# Convention : Reuss Voigt Hill
#
# Bulk Modulus (GPa) = 21.51697 24.96213 23.23955
# Shear Modulus (GPa) = 19.83144 21.41162 20.62153
#
# Velocity S-wave (km/s) = 3.23419 3.36057 3.29799
# Velocity P-wave (km/s) = 5.02948 5.31263 5.17299
#
# Compressibility (1/GPa) = 0.04647493
#
# Stress axis : x y z
#
# Youngs Moduli (GPa) = 34.01719 44.67190 44.41158
#
# Poissons Ratio (x) = 0.38834 -0.19589
# Poissons Ratio (y) = 0.29572 0.42766
# Poissons Ratio (z) = -0.15004 0.43017
#
# Static dielectric constant tensor:
#      x y z
#    x 3.542610 0.000000 0.000000 
#    y 0.000000 3.560030 0.000000 
#    z 0.000000 0.000000 3.244730 
# 
# 
# High freq. dielectric constant tensor:
#      x y z
#    x 1.730920 0.000000 0.000000 
#    y 0.000000 1.736440 0.000000 
#    z 0.000000 0.000000 1.715990 
# 
# From -- ./inp_files/20908.got.cif
#   From: 2010.03.12/outbox.cif.g09.slc.cpg/sg62_11_cif.got.tgz:20908.got - 2010.04.10 19:12:36.
