data_PCOD8250996
_publ_section_title
;
Structure prediction by ZEFSAII (Michael W. Deem and Ramdas Pophale) SiO2 
 PCOD8250996
Probable space group: P N M A
;
_chemical_formula_sum "Si O2"
_cell_formula_units_Z 64
_cell_length_a 14.508457
_cell_length_b 9.301504
_cell_length_c 24.955835
_cell_angle_alpha 90.000000
_cell_angle_beta 90.000000
_cell_angle_gamma 90.000000
_cell_volume 3367.801683
_symmetry_space_group_name_H-M "P N M A"
_symmetry_group_IT_number 62
_symmetry_cell_setting 'orthorhombic'
loop_
_space_group_symop_operation_xyz
x,y,z
1/2-x,-y,1/2+z
1/2+x,1/2-y,1/2-z
-x,1/2+y,-z
-x,-y,-z
1/2+x,y,1/2-z
1/2-x,1/2+y,1/2+z
x,1/2-y,z
loop_
_atom_site_type_symbol
_atom_site_label
_atom_site_fract_x
_atom_site_fract_y
_atom_site_fract_z
Si Si1 0.639366 0.918229 0.418803
Si Si2 0.589875 0.414879 0.202704
Si Si3 0.616433 0.410130 0.666291
Si Si4 0.117166 0.589830 0.731950
Si Si5 0.465528 0.416354 0.422154
Si Si6 0.688137 0.086001 0.312626
Si Si7 0.229485 0.586845 0.976086
Si Si8 0.187355 0.910468 0.388358
O O1 0.617932 0.750000 0.412675
O O2 0.725538 0.942083 0.459792
O O3 0.550969 0.994693 0.446597
O O4 0.659089 0.985064 0.361175
O O5 0.618959 0.250000 0.193251
O O6 0.480171 0.435463 0.203430
O O7 0.638112 0.468424 0.257887
O O8 0.621320 0.505165 0.151650
O O9 0.573427 0.250000 0.668562
O O10 0.634641 0.466825 0.725247
O O11 0.546466 0.519479 0.637811
O O12 0.711851 0.406112 0.635694
O O13 0.119326 0.750000 0.758134
O O14 0.201136 0.575586 0.690439
O O15 0.492262 0.250000 0.418085
O O16 0.373901 0.442672 0.455725
O O17 0.657137 0.250000 0.324345
O O18 0.258218 0.750000 0.963324
O O19 0.304778 0.486850 0.946660
O O20 0.147976 0.750000 0.396787
#
# Coordination Sequence:
#
# PCOD8250996 Si02
#       8
#     8   8   8   8   8   8   8   8
#     4  11  22  35  52  77 109 143 182 226 274 325
#     4  10  20  35  56  79 106 141 179 222 268 317
#     4  10  19  31  49  76 108 140 175 219 267 314
#     4  10  20  34  54  79 106 143 187 221 264 326
#     4  10  19  32  52  76 106 144 182 220 267 325
#     4  10  21  36  54  79 112 148 183 220 266 328
#     4   9  20  36  54  76 105 144 183 223 272 324
#     4  10  20  33  53  80 107 136 175 220 267 318
#
# _framework density 19.003494
#
# number of rings (size 3 to 8) (size 9 to 14) (size 15 to 20)
#    0.000    2.000    1.250    2.625    0.000    5.000 
#    0.000    0.000    0.000    0.750    0.000    0.000 
#    0.000    0.000    0.000    0.000    0.000    0.000 
#
# Total GULP energy -793426.177539 kJ/mol
# GULP energy per Si atom -12397.284024 kJ/mol
# Density = 1.896024 g / cm^3
# Si number density = 19.003494 Si / 1000 Ang^3
#
#
#
# Elastic Constant Matrix: (Units=GPa)
#
#
# Indices 1 2 3 4 5 6 
#
# 1 58.8383 25.4520 16.0063 0.0000 0.0000 0.0000
# 2 25.4520 87.5457 13.1502 0.0000 0.0000 0.0000
# 3 16.0063 13.1502 32.0950 0.0000 0.0000 0.0000
# 4 0.0000 0.0000 0.0000 28.0508 0.0000 0.0000
# 5 0.0000 0.0000 0.0000 0.0000 16.5721 0.0000
# 6 0.0000 0.0000 0.0000 0.0000 0.0000 22.4130
#
#
#
# Elastic Compliance Matrix: (Units=1/GPa)
#
#
# Indices 1 2 3 4 5 6 
#
# 1 0.021500 -0.004944 -0.008697 0.000000 0.000000 0.000000
# 2 -0.004944 0.013309 -0.002987 0.000000 0.000000 0.000000
# 3 -0.008697 -0.002987 0.036719 0.000000 0.000000 0.000000
# 4 0.000000 0.000000 0.000000 0.035650 0.000000 0.000000
# 5 0.000000 0.000000 0.000000 0.000000 0.060342 0.000000
# 6 0.000000 0.000000 0.000000 0.000000 0.000000 0.044617
#
#
# Mechanical properties :
#
#
# Convention : Reuss Voigt Hill
#
# Bulk Modulus (GPa) = 26.12926 31.96621 29.04774
# Shear Modulus (GPa) = 19.36855 21.66521 20.51688
#
# Velocity S-wave (km/s) = 3.19597 3.38015 3.28935
# Velocity P-wave (km/s) = 5.23436 5.66495 5.45390
#
# Compressibility (1/GPa) = 0.03827127
#
# Stress axis : x y z
#
# Youngs Moduli (GPa) = 46.51070 75.13832 27.23409
#
# Poissons Ratio (x) = 0.37152 0.23685
# Poissons Ratio (y) = 0.22997 0.08135
# Poissons Ratio (z) = 0.40449 0.22445
#
# Static dielectric constant tensor:
#      x y z
#    x 3.350550 0.000000 0.000000 
#    y 0.000000 3.645920 0.000000 
#    z 0.000000 0.000000 3.419900 
# 
# 
# High freq. dielectric constant tensor:
#      x y z
#    x 1.714710 0.000000 0.000000 
#    y 0.000000 1.745640 0.000000 
#    z 0.000000 0.000000 1.726830 
# 
# From -- ./inp_files/29762.got.cif
#   From: 2010.03.12/outbox.cif.g09.slc.cpg/sg62_15_cif.got.tgz:29762.got - 2010.04.10 19:12:36.
