data_PCOD8250966
_publ_section_title
;
Structure prediction by ZEFSAII (Michael W. Deem and Ramdas Pophale) SiO2 
 PCOD8250966
Probable space group: P N M A
;
_chemical_formula_sum "Si O2"
_cell_formula_units_Z 64
_cell_length_a 23.049218
_cell_length_b 9.042052
_cell_length_c 18.909032
_cell_angle_alpha 90.000000
_cell_angle_beta 90.000000
_cell_angle_gamma 90.000000
_cell_volume 3940.873483
_symmetry_space_group_name_H-M "P N M A"
_symmetry_group_IT_number 62
_symmetry_cell_setting 'orthorhombic'
loop_
_space_group_symop_operation_xyz
x,y,z
1/2-x,-y,1/2+z
1/2+x,1/2-y,1/2-z
-x,1/2+y,-z
-x,-y,-z
1/2+x,y,1/2-z
1/2-x,1/2+y,1/2+z
x,1/2-y,z
loop_
_atom_site_type_symbol
_atom_site_label
_atom_site_fract_x
_atom_site_fract_y
_atom_site_fract_z
Si Si1 0.653571 0.079638 0.736399
Si Si2 0.562946 0.923071 0.649371
Si Si3 0.752449 0.576990 0.004479
Si Si4 0.729159 0.921733 0.162524
Si Si5 0.376509 0.425178 0.494779
Si Si6 0.433223 0.579514 0.624372
Si Si7 0.724014 0.422938 0.870469
Si Si8 0.676512 0.079401 0.285134
O O1 0.640727 0.250000 0.722792
O O2 0.706769 0.026991 0.686756
O O3 0.669884 0.048547 0.818186
O O4 0.595619 0.992484 0.716568
O O5 0.569034 0.750000 0.657245
O O6 0.592192 0.977830 0.576782
O O7 0.496087 0.972686 0.651354
O O8 0.760686 0.750000 0.990238
O O9 0.721700 0.547173 0.079506
O O10 0.814773 0.502413 0.000383
O O11 0.711349 0.505414 0.944477
O O12 0.720345 0.750000 0.181672
O O13 0.681610 0.016607 0.205314
O O14 0.368133 0.250000 0.497844
O O15 0.416355 0.476463 0.559226
O O16 0.434540 0.750000 0.598562
O O17 0.389461 0.559488 0.689842
O O18 0.733610 0.250000 0.883879
O O19 0.782894 0.486854 0.837460
O O20 0.695898 0.250000 0.286804
#
# Coordination Sequence:
#
# PCOD8250966 Si02
#       8
#     8   8   8   8   8   8   8   8
#     4   9  18  33  49  68  95 127 158 198 246 285
#     4  10  21  34  48  69  97 130 170 206 237 281
#     4  11  20  32  50  72  98 131 161 195 247 295
#     4   9  19  33  49  69  97 126 157 201 247 290
#     4  11  21  31  46  70  97 131 170 203 234 280
#     4  10  21  35  48  67  98 133 167 205 241 279
#     4  10  20  33  49  71  99 125 159 203 244 289
#     4  10  19  31  49  70  94 128 164 198 243 290
#
# _framework density 16.240055000000002
#
# number of rings (size 3 to 8) (size 9 to 14) (size 15 to 20)
#    0.000    2.000    2.500    2.625    0.000    5.000 
#    0.000    0.000    0.000    0.000    0.000    0.875 
#    0.000    0.000    0.000    0.000    0.000    0.000 
#
# Total GULP energy -793707.161336 kJ/mol
# GULP energy per Si atom -12401.674396 kJ/mol
# Density = 1.620309 g / cm^3
# Si number density = 16.240055 Si / 1000 Ang^3
#
#
#
# Elastic Constant Matrix: (Units=GPa)
#
#
# Indices 1 2 3 4 5 6 
#
# 1 64.2884 29.4382 40.2829 0.0000 0.0000 0.0000
# 2 29.4382 69.3017 47.5895 0.0000 0.0000 0.0000
# 3 40.2829 47.5895 106.0472 0.0000 0.0000 0.0000
# 4 0.0000 0.0000 0.0000 30.6928 0.0000 0.0000
# 5 0.0000 0.0000 0.0000 0.0000 19.4371 0.0000
# 6 0.0000 0.0000 0.0000 0.0000 0.0000 23.0621
#
#
#
# Elastic Compliance Matrix: (Units=1/GPa)
#
#
# Indices 1 2 3 4 5 6 
#
# 1 0.021601 -0.005118 -0.005908 0.000000 0.000000 0.000000
# 2 -0.005118 0.022070 -0.007960 0.000000 0.000000 0.000000
# 3 -0.005908 -0.007960 0.015246 0.000000 0.000000 0.000000
# 4 0.000000 0.000000 0.000000 0.032581 0.000000 0.000000
# 5 0.000000 0.000000 0.000000 0.000000 0.051448 0.000000
# 6 0.000000 0.000000 0.000000 0.000000 0.000000 0.043361
#
#
# Mechanical properties :
#
#
# Convention : Reuss Voigt Hill
#
# Bulk Modulus (GPa) = 47.74689 52.69539 50.22114
# Shear Modulus (GPa) = 21.62059 22.79352 22.20706
#
# Velocity S-wave (km/s) = 3.65267 3.75045 3.70188
# Velocity P-wave (km/s) = 6.87415 7.16049 7.01878
#
# Compressibility (1/GPa) = 0.02094377
#
# Stress axis : x y z
#
# Youngs Moduli (GPa) = 46.29464 45.31067 65.59064
#
# Poissons Ratio (x) = 0.23192 0.38753
# Poissons Ratio (y) = 0.23696 0.52209
# Poissons Ratio (z) = 0.27352 0.36066
#
# Static dielectric constant tensor:
#      x y z
#    x 2.901390 0.000000 0.000000 
#    y 0.000000 3.143080 0.000000 
#    z 0.000000 0.000000 3.302780 
# 
# 
# High freq. dielectric constant tensor:
#      x y z
#    x 1.592930 0.000000 0.000000 
#    y 0.000000 1.635320 0.000000 
#    z 0.000000 0.000000 1.622840 
# 
# From -- ./inp_files/24936.got.cif
#   From: 2010.03.12/outbox.cif.g09.slc.cpg/sg62_13_cif.got.tgz:24936.got - 2010.04.10 19:12:36.
