data_PCOD8250520
_publ_section_title
;
Structure prediction by ZEFSAII (Michael W. Deem and Ramdas Pophale) SiO2 
 PCOD8250520
Probable space group: P N M A
;
_chemical_formula_sum "Si O2"
_cell_formula_units_Z 52
_cell_length_a 13.161245
_cell_length_b 15.947303
_cell_length_c 13.580447
_cell_angle_alpha 90.000000
_cell_angle_beta 90.000000
_cell_angle_gamma 90.000000
_cell_volume 2850.350613
_symmetry_space_group_name_H-M "P N M A"
_symmetry_group_IT_number 62
_symmetry_cell_setting 'orthorhombic'
loop_
_space_group_symop_operation_xyz
x,y,z
1/2-x,-y,1/2+z
1/2+x,1/2-y,1/2-z
-x,1/2+y,-z
-x,-y,-z
1/2+x,y,1/2-z
1/2-x,1/2+y,1/2+z
x,1/2-y,z
loop_
_atom_site_type_symbol
_atom_site_label
_atom_site_fract_x
_atom_site_fract_y
_atom_site_fract_z
Si Si1 0.734532 0.067443 0.566128
Si Si2 0.000006 0.913508 0.563436
Si Si3 0.009605 0.250000 0.561249
Si Si4 0.067149 0.431089 0.787664
Si Si5 0.195542 0.972009 0.637476
Si Si6 0.390620 0.750000 0.254821
Si Si7 0.869352 0.515583 0.719217
Si Si8 0.220768 0.750000 0.400182
O O1 0.627095 0.039251 0.614004
O O2 0.753687 0.009158 0.469790
O O3 0.740615 0.167033 0.540578
O O4 0.821506 0.055325 0.648880
O O5 0.915618 0.913356 0.648935
O O6 0.975715 0.833563 0.500052
O O7 0.110414 0.901184 0.615292
O O8 0.000000 0.000000 0.500000
O O9 0.900195 0.250000 0.614386
O O10 0.102715 0.250000 0.637192
O O11 0.134274 0.450796 0.688494
O O12 0.050914 0.331694 0.795015
O O13 0.957776 0.474602 0.785504
O O14 0.285096 0.941776 0.710286
O O15 0.273540 0.750000 0.291728
#
# Coordination Sequence:
#
# PCOD8250520 Si02
#       8
#     8   8   4   8   8   4   8   4
#     4  10  18  32  53  76 107 144 178 224 276 323
#     4  11  20  36  56  80 108 137 183 231 262 326
#     4  12  20  32  59  84  99 151 184 215 283 322
#     4   9  20  32  50  81 109 139 180 225 277 331
#     4  10  19  33  54  76 104 146 179 222 270 315
#     4  10  20  30  50  82 114 132 170 230 282 326
#     4  10  20  34  52  78 109 138 181 228 265 322
#     4  10  18  32  49  80 109 135 180 225 267 326
#
# _framework density 18.243369000000001
#
# number of rings (size 3 to 8) (size 9 to 14) (size 15 to 20)
#    0.000    1.846    3.077    2.769    0.000    0.615 
#    0.000    1.538    0.000    0.000    0.000    0.000 
#    0.000    0.000    0.000    0.000    0.000    0.000 
#
# Total GULP energy -644181.754609 kJ/mol
# GULP energy per Si atom -12388.110666 kJ/mol
# Density = 1.820185 g / cm^3
# Si number density = 18.243369 Si / 1000 Ang^3
#
#
#
# Elastic Constant Matrix: (Units=GPa)
#
#
# Indices 1 2 3 4 5 6 
#
# 1 103.6146 21.2831 50.1430 0.0000 0.0000 0.0000
# 2 21.2831 62.6220 22.9406 0.0000 0.0000 0.0000
# 3 50.1430 22.9406 89.9797 0.0000 0.0000 0.0000
# 4 0.0000 0.0000 0.0000 22.0585 0.0000 0.0000
# 5 0.0000 0.0000 0.0000 0.0000 45.0449 0.0000
# 6 0.0000 0.0000 0.0000 0.0000 0.0000 10.2263
#
#
#
# Elastic Compliance Matrix: (Units=1/GPa)
#
#
# Indices 1 2 3 4 5 6 
#
# 1 0.013441 -0.002012 -0.006977 0.000000 0.000000 0.000000
# 2 -0.002012 0.017915 -0.003446 0.000000 0.000000 0.000000
# 3 -0.006977 -0.003446 0.015880 0.000000 0.000000 0.000000
# 4 0.000000 0.000000 0.000000 0.045334 0.000000 0.000000
# 5 0.000000 0.000000 0.000000 0.000000 0.022200 0.000000
# 6 0.000000 0.000000 0.000000 0.000000 0.000000 0.097787
#
#
# Mechanical properties :
#
#
# Convention : Reuss Voigt Hill
#
# Bulk Modulus (GPa) = 44.71196 49.43886 47.07541
# Shear Modulus (GPa) = 20.41778 26.25591 23.33685
#
# Velocity S-wave (km/s) = 3.34906 3.79780 3.58047
# Velocity P-wave (km/s) = 6.28623 6.81098 6.55386
#
# Compressibility (1/GPa) = 0.02236538
#
# Stress axis : x y z
#
# Youngs Moduli (GPa) = 74.39903 55.81870 62.97038
#
# Poissons Ratio (x) = 0.11231 0.43936
# Poissons Ratio (y) = 0.14970 0.21701
# Poissons Ratio (z) = 0.51910 0.19236
#
# Static dielectric constant tensor:
#      x y z
#    x 3.603100 0.000000 0.000000 
#    y 0.000000 3.121570 0.000000 
#    z 0.000000 0.000000 3.516530 
# 
# 
# High freq. dielectric constant tensor:
#      x y z
#    x 1.713350 0.000000 0.000000 
#    y 0.000000 1.674370 0.000000 
#    z 0.000000 0.000000 1.699040 
# 
# From -- ./inp_files/18212.got.cif
#   From: 2010.03.12/outbox.cif.g09.slc.cpg/sg62_10_cif.got.tgz:18212.got - 2010.04.10 19:12:36.
