data_PCOD8250399
_publ_section_title
;
Structure prediction by ZEFSAII (Michael W. Deem and Ramdas Pophale) SiO2 
 PCOD8250399
Probable space group: P N M A
;
_chemical_formula_sum "Si O2"
_cell_formula_units_Z 64
_cell_length_a 22.062026
_cell_length_b 8.988339
_cell_length_c 16.725128
_cell_angle_alpha 90.000000
_cell_angle_beta 90.000000
_cell_angle_gamma 90.000000
_cell_volume 3316.609084
_symmetry_space_group_name_H-M "P N M A"
_symmetry_group_IT_number 62
_symmetry_cell_setting 'orthorhombic'
loop_
_space_group_symop_operation_xyz
x,y,z
1/2-x,-y,1/2+z
1/2+x,1/2-y,1/2-z
-x,1/2+y,-z
-x,-y,-z
1/2+x,y,1/2-z
1/2-x,1/2+y,1/2+z
x,1/2-y,z
loop_
_atom_site_type_symbol
_atom_site_label
_atom_site_fract_x
_atom_site_fract_y
_atom_site_fract_z
Si Si1 0.810932 0.926571 0.538849
Si Si2 0.209846 0.083470 0.174484
Si Si3 0.379547 0.583529 0.813769
Si Si4 0.026998 0.427160 0.187045
Si Si5 0.614112 0.920752 0.426554
Si Si6 0.677228 0.577290 0.588023
Si Si7 0.401285 0.920453 0.287056
Si Si8 0.325299 0.579855 0.140087
O O1 0.811330 0.750000 0.548233
O O2 0.859782 0.995170 0.602689
O O3 0.742331 0.982580 0.555960
O O4 0.834046 0.975678 0.451172
O O5 0.208119 0.250000 0.138399
O O6 0.181680 0.083395 0.262282
O O7 0.175430 0.972387 0.115886
O O8 0.277707 0.026118 0.183809
O O9 0.401675 0.750000 0.832363
O O10 0.434008 0.507229 0.762734
O O11 0.030949 0.250000 0.184774
O O12 0.056478 0.485180 0.104351
O O13 0.958577 0.478311 0.193639
O O14 0.602053 0.750000 0.405026
O O15 0.625036 0.942751 0.520752
O O16 0.682047 0.750000 0.613321
O O17 0.656338 0.478652 0.662942
O O18 0.414909 0.750000 0.310220
O O19 0.386633 0.933656 0.192191
O O20 0.301774 0.750000 0.139914
#
# Coordination Sequence:
#
# PCOD8250399 Si02
#       8
#     8   8   8   8   8   8   8   8
#     4   9  16  32  56  82 110 138 176 220 271 329
#     4  10  18  30  52  81 112 143 178 218 269 326
#     4   8  16  30  53  80 102 135 180 225 263 313
#     4  10  21  38  57  79 108 145 192 232 273 325
#     4  10  19  34  57  84 112 144 180 221 273 326
#     4  10  20  35  58  84 112 145 179 221 275 337
#     4  11  24  38  54  78 110 148 187 232 280 325
#     4  10  20  35  54  78 109 145 182 224 277 331
#
# _framework density 19.296817999999998
#
# number of rings (size 3 to 8) (size 9 to 14) (size 15 to 20)
#    0.000    2.250    1.250    3.000    0.000    3.500 
#    0.000    0.625    0.000    4.500    0.000    0.000 
#    0.000    0.000    0.000    0.000    0.000    0.000 
#
# Total GULP energy -793294.183247 kJ/mol
# GULP energy per Si atom -12395.221613 kJ/mol
# Density = 1.925290 g / cm^3
# Si number density = 19.296818 Si / 1000 Ang^3
#
#
#
# Elastic Constant Matrix: (Units=GPa)
#
#
# Indices 1 2 3 4 5 6 
#
# 1 49.8395 16.4271 26.6302 0.0000 0.0000 0.0000
# 2 16.4271 62.5675 30.7739 0.0000 0.0000 0.0000
# 3 26.6302 30.7739 96.2284 0.0000 0.0000 0.0000
# 4 0.0000 0.0000 0.0000 20.6057 0.0000 0.0000
# 5 0.0000 0.0000 0.0000 0.0000 21.4424 0.0000
# 6 0.0000 0.0000 0.0000 0.0000 0.0000 22.3238
#
#
#
# Elastic Compliance Matrix: (Units=1/GPa)
#
#
# Indices 1 2 3 4 5 6 
#
# 1 0.024223 -0.003634 -0.005541 0.000000 0.000000 0.000000
# 2 -0.003634 0.019511 -0.005234 0.000000 0.000000 0.000000
# 3 -0.005541 -0.005234 0.013599 0.000000 0.000000 0.000000
# 4 0.000000 0.000000 0.000000 0.048530 0.000000 0.000000
# 5 0.000000 0.000000 0.000000 0.000000 0.046637 0.000000
# 6 0.000000 0.000000 0.000000 0.000000 0.000000 0.044795
#
#
# Mechanical properties :
#
#
# Convention : Reuss Voigt Hill
#
# Bulk Modulus (GPa) = 35.06975 39.58862 37.32918
# Shear Modulus (GPa) = 21.22065 21.86132 21.54098
#
# Velocity S-wave (km/s) = 3.31977 3.36951 3.34473
# Velocity P-wave (km/s) = 5.73653 5.97480 5.85688
#
# Compressibility (1/GPa) = 0.02851460
#
# Stress axis : x y z
#
# Youngs Moduli (GPa) = 41.28298 51.25246 73.53350
#
# Poissons Ratio (x) = 0.18627 0.40747
# Poissons Ratio (y) = 0.15003 0.38487
# Poissons Ratio (z) = 0.22876 0.26825
#
# Static dielectric constant tensor:
#      x y z
#    x 3.347100 0.000000 0.000000 
#    y 0.000000 3.319620 0.000000 
#    z 0.000000 0.000000 3.703660 
# 
# 
# High freq. dielectric constant tensor:
#      x y z
#    x 1.733760 0.000000 0.000000 
#    y 0.000000 1.728770 0.000000 
#    z 0.000000 0.000000 1.755010 
# 
# From -- ./inp_files/20794.got.cif
#   From: 2010.03.12/outbox.cif.g09.slc.cpg/sg62_11_cif.got.tgz:20794.got - 2010.04.10 19:12:36.
