data_PCOD8250638
_publ_section_title
;
Structure prediction by ZEFSAII (Michael W. Deem and Ramdas Pophale) SiO2 
 PCOD8250638
Probable space group: P N M A
;
_chemical_formula_sum "Si O2"
_cell_formula_units_Z 64
_cell_length_a 23.767789
_cell_length_b 8.730509
_cell_length_c 15.410329
_cell_angle_alpha 90.000000
_cell_angle_beta 90.000000
_cell_angle_gamma 90.000000
_cell_volume 3197.718713
_symmetry_space_group_name_H-M "P N M A"
_symmetry_group_IT_number 62
_symmetry_cell_setting 'orthorhombic'
loop_
_space_group_symop_operation_xyz
x,y,z
1/2-x,-y,1/2+z
1/2+x,1/2-y,1/2-z
-x,1/2+y,-z
-x,-y,-z
1/2+x,y,1/2-z
1/2-x,1/2+y,1/2+z
x,1/2-y,z
loop_
_atom_site_type_symbol
_atom_site_label
_atom_site_fract_x
_atom_site_fract_y
_atom_site_fract_z
Si Si1 0.686873 0.069390 0.005217
Si Si2 0.497734 0.570452 0.406389
Si Si3 0.003313 0.430110 0.405329
Si Si4 0.391095 0.570143 0.153149
Si Si5 0.879896 0.569977 0.156383
Si Si6 0.880450 0.426366 0.850623
Si Si7 0.692835 0.430424 0.496916
Si Si8 0.117265 0.927405 0.345395
O O1 0.682269 0.250000 0.018678
O O2 0.666291 0.985116 0.091551
O O3 0.648927 0.014646 0.924270
O O4 0.750004 0.022450 0.984233
O O5 0.500000 0.500000 0.500000
O O6 0.491820 0.750000 0.417043
O O7 0.442780 0.503229 0.357928
O O8 0.553739 0.527832 0.353277
O O9 0.002801 0.250000 0.414842
O O10 0.950442 0.484546 0.349319
O O11 0.000000 0.500000 0.500000
O O12 0.060353 0.479153 0.358627
O O13 0.403494 0.750000 0.146955
O O14 0.361316 0.528797 0.245239
O O15 0.881357 0.750000 0.142224
O O16 0.836561 0.504656 0.084827
O O17 0.871487 0.250000 0.879294
O O18 0.846227 0.536391 0.914268
O O19 0.859956 0.452358 0.752165
O O20 0.705113 0.250000 0.502166
O O21 0.104431 0.750000 0.363611
#
# Coordination Sequence:
#
# PCOD8250638 Si02
#       8
#     8   8   8   8   8   8   8   8
#     4  11  24  41  62  88 120 159 205 257 306 360
#     4  10  18  33  58  87 119 152 191 240 296 357
#     4  12  23  37  61  93 127 160 196 243 303 367
#     4  10  21  40  64  87 118 158 201 248 301 363
#     4   9  19  37  61  88 117 156 200 244 301 362
#     4  10  22  39  62  90 122 161 202 249 307 363
#     4  11  23  40  63  88 120 162 207 255 302 361
#     4  11  23  41  65  90 122 162 204 251 304 365
#
# _framework density 20.014268000000001
#
# number of rings (size 3 to 8) (size 9 to 14) (size 15 to 20)
#    0.000    1.500    2.500    3.000    0.000    4.500 
#    0.000    5.625    0.000    0.000    0.000    0.000 
#    0.000    0.000    0.000    0.000    0.000    0.000 
#
# Total GULP energy -793729.089418 kJ/mol
# GULP energy per Si atom -12402.017022 kJ/mol
# Density = 1.996872 g / cm^3
# Si number density = 20.014268 Si / 1000 Ang^3
#
#
#
# Elastic Constant Matrix: (Units=GPa)
#
#
# Indices 1 2 3 4 5 6 
#
# 1 87.1669 17.6147 26.9562 0.0000 0.0000 0.0000
# 2 17.6147 56.5041 30.0860 0.0000 0.0000 0.0000
# 3 26.9562 30.0860 123.2148 0.0000 0.0000 0.0000
# 4 0.0000 0.0000 0.0000 28.2708 0.0000 0.0000
# 5 0.0000 0.0000 0.0000 0.0000 16.4843 0.0000
# 6 0.0000 0.0000 0.0000 0.0000 0.0000 32.4952
#
#
#
# Elastic Compliance Matrix: (Units=1/GPa)
#
#
# Indices 1 2 3 4 5 6 
#
# 1 0.012691 -0.002848 -0.002081 0.000000 0.000000 0.000000
# 2 -0.002848 0.020982 -0.004500 0.000000 0.000000 0.000000
# 3 -0.002081 -0.004500 0.009670 0.000000 0.000000 0.000000
# 4 0.000000 0.000000 0.000000 0.035372 0.000000 0.000000
# 5 0.000000 0.000000 0.000000 0.000000 0.060664 0.000000
# 6 0.000000 0.000000 0.000000 0.000000 0.000000 0.030774
#
#
# Mechanical properties :
#
#
# Convention : Reuss Voigt Hill
#
# Bulk Modulus (GPa) = 40.84261 46.24441 43.54351
# Shear Modulus (GPa) = 25.35837 28.26532 26.81184
#
# Velocity S-wave (km/s) = 3.56338 3.76208 3.66408
# Velocity P-wave (km/s) = 6.11402 6.48281 6.30112
#
# Compressibility (1/GPa) = 0.02448424
#
# Stress axis : x y z
#
# Youngs Moduli (GPa) = 78.79349 47.66017 103.41263
#
# Poissons Ratio (x) = 0.13575 0.21521
# Poissons Ratio (y) = 0.22443 0.46537
# Poissons Ratio (z) = 0.16397 0.21448
#
# Static dielectric constant tensor:
#      x y z
#    x 3.778180 0.000000 0.000000 
#    y 0.000000 3.530230 0.000000 
#    z 0.000000 0.000000 3.783590 
# 
# 
# High freq. dielectric constant tensor:
#      x y z
#    x 1.779510 0.000000 0.000000 
#    y 0.000000 1.767880 0.000000 
#    z 0.000000 0.000000 1.795070 
# 
# From -- ./inp_files/20933.got.cif
#   From: 2010.03.12/outbox.cif.g09.slc.cpg/sg62_11_cif.got.tgz:20933.got - 2010.04.10 19:12:36.
