data_PCOD8250438
_publ_section_title
;
Structure prediction by ZEFSAII (Michael W. Deem and Ramdas Pophale) SiO2 
 PCOD8250438
Probable space group: P N M A
;
_chemical_formula_sum "Si O2"
_cell_formula_units_Z 56
_cell_length_a 18.927680
_cell_length_b 9.163146
_cell_length_c 17.582239
_cell_angle_alpha 90.000000
_cell_angle_beta 90.000000
_cell_angle_gamma 90.000000
_cell_volume 3049.412461
_symmetry_space_group_name_H-M "P N M A"
_symmetry_group_IT_number 62
_symmetry_cell_setting 'orthorhombic'
loop_
_space_group_symop_operation_xyz
x,y,z
1/2-x,-y,1/2+z
1/2+x,1/2-y,1/2-z
-x,1/2+y,-z
-x,-y,-z
1/2+x,y,1/2-z
1/2-x,1/2+y,1/2+z
x,1/2-y,z
loop_
_atom_site_type_symbol
_atom_site_label
_atom_site_fract_x
_atom_site_fract_y
_atom_site_fract_z
Si Si1 0.183569 0.582745 0.197993
Si Si2 0.926579 0.581928 0.511032
Si Si3 0.425115 0.088650 0.421596
Si Si4 0.448451 0.408959 0.599338
Si Si5 0.786991 0.577368 0.061933
Si Si6 0.670152 0.079937 0.150963
Si Si7 0.285912 0.920302 0.071303
O O1 0.180930 0.750000 0.227697
O O2 0.127828 0.551541 0.131659
O O3 0.158998 0.470408 0.262744
O O4 0.261269 0.552226 0.159124
O O5 0.944247 0.750000 0.498959
O O6 0.897554 0.552196 0.596486
O O7 0.867101 0.532994 0.448082
O O8 0.000000 0.500000 0.500000
O O9 0.406503 0.250000 0.389987
O O10 0.443261 0.097310 0.509436
O O11 0.493106 0.027612 0.375731
O O12 0.362234 0.976097 0.408165
O O13 0.472374 0.250000 0.630039
O O14 0.786504 0.750000 0.055711
O O15 0.732807 0.523183 0.124661
O O16 0.767805 0.510309 0.980644
O O17 0.691319 0.250000 0.147806
O O18 0.276591 0.750000 0.049687
#
# Coordination Sequence:
#
# PCOD8250438 Si02
#       7
#     8   8   8   8   8   8   8
#     4  10  19  35  56  79 109 144 182 223 273 332
#     4   9  19  36  59  82 108 141 182 230 277 328
#     4  10  18  31  50  74 106 140 174 218 264 309
#     4   9  18  31  49  75 106 141 177 216 259 312
#     4  11  20  32  53  79 104 136 181 225 266 321
#     4  10  22  38  55  78 110 144 179 226 285 332
#     4   9  18  35  56  80 109 142 176 221 278 326
#
# _framework density 18.364193
#
# number of rings (size 3 to 8) (size 9 to 14) (size 15 to 20)
#    0.000    2.286    1.429    3.000    0.000    4.571 
#    0.000    1.429    0.000    5.143    0.000    0.000 
#    0.000    0.000    0.000    0.000    0.000    0.000 
#
# Total GULP energy -693957.581828 kJ/mol
# GULP energy per Si atom -12392.099676 kJ/mol
# Density = 1.832240 g / cm^3
# Si number density = 18.364193 Si / 1000 Ang^3
#
#
#
# Elastic Constant Matrix: (Units=GPa)
#
#
# Indices 1 2 3 4 5 6 
#
# 1 116.6335 54.6078 33.6738 0.0000 0.0000 0.0000
# 2 54.6078 102.1873 31.0423 0.0000 0.0000 0.0000
# 3 33.6738 31.0423 66.7349 0.0000 0.0000 0.0000
# 4 0.0000 0.0000 0.0000 22.7727 0.0000 0.0000
# 5 0.0000 0.0000 0.0000 0.0000 16.8846 0.0000
# 6 0.0000 0.0000 0.0000 0.0000 0.0000 36.4749
#
#
#
# Elastic Compliance Matrix: (Units=1/GPa)
#
#
# Indices 1 2 3 4 5 6 
#
# 1 0.012142 -0.005389 -0.003620 0.000000 0.000000 0.000000
# 2 -0.005389 0.013788 -0.003694 0.000000 0.000000 0.000000
# 3 -0.003620 -0.003694 0.018530 0.000000 0.000000 0.000000
# 4 0.000000 0.000000 0.000000 0.043912 0.000000 0.000000
# 5 0.000000 0.000000 0.000000 0.000000 0.059226 0.000000
# 6 0.000000 0.000000 0.000000 0.000000 0.000000 0.027416
#
#
# Mechanical properties :
#
#
# Convention : Reuss Voigt Hill
#
# Bulk Modulus (GPa) = 52.48492 58.24485 55.36488
# Shear Modulus (GPa) = 24.18123 26.30854 25.24489
#
# Velocity S-wave (km/s) = 3.63266 3.78908 3.71169
# Velocity P-wave (km/s) = 6.79978 7.13640 6.97012
#
# Compressibility (1/GPa) = 0.01905309
#
# Stress axis : x y z
#
# Youngs Moduli (GPa) = 82.35782 72.52672 53.96704
#
# Poissons Ratio (x) = 0.39084 0.19537
# Poissons Ratio (y) = 0.44382 0.19938
# Poissons Ratio (z) = 0.29814 0.26794
#
# Static dielectric constant tensor:
#      x y z
#    x 3.481310 0.000000 0.000000 
#    y 0.000000 3.515490 0.000000 
#    z 0.000000 0.000000 3.171600 
# 
# 
# High freq. dielectric constant tensor:
#      x y z
#    x 1.711690 0.000000 0.000000 
#    y 0.000000 1.716640 0.000000 
#    z 0.000000 0.000000 1.680140 
# 
# From -- ./inp_files/24626.got.cif
#   From: 2010.03.12/outbox.cif.g09.slc.cpg/sg62_13_cif.got.tgz:24626.got - 2010.04.10 19:12:36.
