data_PCOD8250773
_publ_section_title
;
Structure prediction by ZEFSAII (Michael W. Deem and Ramdas Pophale) SiO2 
 PCOD8250773
Probable space group: P N M A
;
_chemical_formula_sum "Si O2"
_cell_formula_units_Z 36
_cell_length_a 9.067708
_cell_length_b 14.280897
_cell_length_c 15.035555
_cell_angle_alpha 90.000000
_cell_angle_beta 90.000000
_cell_angle_gamma 90.000000
_cell_volume 1947.029254
_symmetry_space_group_name_H-M "P N M A"
_symmetry_group_IT_number 62
_symmetry_cell_setting 'orthorhombic'
loop_
_space_group_symop_operation_xyz
x,y,z
1/2-x,-y,1/2+z
1/2+x,1/2-y,1/2-z
-x,1/2+y,-z
-x,-y,-z
1/2+x,y,1/2-z
1/2-x,1/2+y,1/2+z
x,1/2-y,z
loop_
_atom_site_type_symbol
_atom_site_label
_atom_site_fract_x
_atom_site_fract_y
_atom_site_fract_z
Si Si1 0.818083 0.750000 0.670687
Si Si2 0.271572 0.750000 0.630278
Si Si3 0.073297 0.750000 0.955817
Si Si4 0.148021 0.049629 0.348614
Si Si5 0.820638 0.452663 0.335520
Si Si6 0.344368 0.048183 0.510672
O O1 0.850191 0.750000 0.774787
O O2 0.643313 0.750000 0.643933
O O3 0.890763 0.657825 0.629389
O O4 0.396611 0.750000 0.553914
O O5 0.178676 0.846542 0.624436
O O6 0.130944 0.840414 0.008896
O O7 0.253975 0.043188 0.263211
O O8 0.235201 0.008755 0.433357
O O9 0.986839 0.004211 0.333714
O O10 0.723182 0.521567 0.394786
O O11 0.500000 0.000000 0.500000
#
# Coordination Sequence:
#
# PCOD8250773 Si02
#       6
#     4   4   4   8   8   8
#     4   8  19  28  52  78 116 132 170 223 291 329
#     4  10  19  28  54  81 112 138 175 217 283 332
#     4  10  20  36  50  81 110 146 179 224 278 339
#     4  10  21  34  54  85 111 147 184 227 279 333
#     4  11  21  34  56  81 115 145 183 227 277 330
#     4  11  21  37  57  80 113 148 182 230 277 327
#
# _framework density 18.489706000000002
#
# number of rings (size 3 to 8) (size 9 to 14) (size 15 to 20)
#    0.000    1.778    2.222    2.667   15.556    0.000 
#    0.000    0.000    0.000    6.667    0.000    0.000 
#    0.000    0.000    0.000    0.000    0.000    0.000 
#
# Total GULP energy -446082.340723 kJ/mol
# GULP energy per Si atom -12391.176131 kJ/mol
# Density = 1.844762 g / cm^3
# Si number density = 18.489706 Si / 1000 Ang^3
#
#
#
# Elastic Constant Matrix: (Units=GPa)
#
#
# Indices 1 2 3 4 5 6 
#
# 1 111.1209 11.9267 9.2932 0.0000 0.0000 0.0000
# 2 11.9267 66.4696 20.5409 0.0000 0.0000 0.0000
# 3 9.2932 20.5409 53.4180 0.0000 0.0000 0.0000
# 4 0.0000 0.0000 0.0000 23.1886 0.0000 0.0000
# 5 0.0000 0.0000 0.0000 0.0000 35.1451 0.0000
# 6 0.0000 0.0000 0.0000 0.0000 0.0000 20.2594
#
#
#
# Elastic Compliance Matrix: (Units=1/GPa)
#
#
# Indices 1 2 3 4 5 6 
#
# 1 0.009233 -0.001317 -0.001100 0.000000 0.000000 0.000000
# 2 -0.001317 0.017261 -0.006408 0.000000 0.000000 0.000000
# 3 -0.001100 -0.006408 0.021376 0.000000 0.000000 0.000000
# 4 0.000000 0.000000 0.000000 0.043125 0.000000 0.000000
# 5 0.000000 0.000000 0.000000 0.000000 0.028453 0.000000
# 6 0.000000 0.000000 0.000000 0.000000 0.000000 0.049360
#
#
# Mechanical properties :
#
#
# Convention : Reuss Voigt Hill
#
# Bulk Modulus (GPa) = 33.09117 34.94781 34.01949
# Shear Modulus (GPa) = 25.44135 28.33514 26.88824
#
# Velocity S-wave (km/s) = 3.71344 3.91894 3.81757
# Velocity P-wave (km/s) = 6.02678 6.27851 6.15393
#
# Compressibility (1/GPa) = 0.03021954
#
# Stress axis : x y z
#
# Youngs Moduli (GPa) = 108.31284 57.93374 46.78173
#
# Poissons Ratio (x) = 0.07628 0.05145
# Poissons Ratio (y) = 0.14262 0.29980
# Poissons Ratio (z) = 0.11913 0.37126
#
# Static dielectric constant tensor:
#      x y z
#    x 3.517770 0.000000 0.000000 
#    y 0.000000 3.505380 0.000000 
#    z 0.000000 0.000000 3.229890 
# 
# 
# High freq. dielectric constant tensor:
#      x y z
#    x 1.735140 0.000000 0.000000 
#    y 0.000000 1.691170 0.000000 
#    z 0.000000 0.000000 1.694970 
# 
# From -- ./inp_files/16617.got.cif
#   From: 2010.03.12/outbox.cif.g09.slc.cpg/sg62_9_cif.got.tgz:16617.got - 2010.04.10 19:12:36.
