data_PCOD8250035
_publ_section_title
;
Structure prediction by ZEFSAII (Michael W. Deem and Ramdas Pophale) SiO2 
 PCOD8250035
Probable space group: P N M A
;
_chemical_formula_sum "Si O2"
_cell_formula_units_Z 64
_cell_length_a 12.232376
_cell_length_b 8.645301
_cell_length_c 29.559711
_cell_angle_alpha 90.000000
_cell_angle_beta 90.000000
_cell_angle_gamma 90.000000
_cell_volume 3126.015480
_symmetry_space_group_name_H-M "P N M A"
_symmetry_group_IT_number 62
_symmetry_cell_setting 'orthorhombic'
loop_
_space_group_symop_operation_xyz
x,y,z
1/2-x,-y,1/2+z
1/2+x,1/2-y,1/2-z
-x,1/2+y,-z
-x,-y,-z
1/2+x,y,1/2-z
1/2-x,1/2+y,1/2+z
x,1/2-y,z
loop_
_atom_site_type_symbol
_atom_site_label
_atom_site_fract_x
_atom_site_fract_y
_atom_site_fract_z
Si Si1 0.759884 0.929610 0.031692
Si Si2 0.617016 0.571912 0.150403
Si Si3 0.699522 0.566815 0.937072
Si Si4 0.984747 0.928941 0.811401
Si Si5 0.042652 0.070326 0.436208
Si Si6 0.557940 0.427158 0.778709
Si Si7 0.748463 0.933460 0.838089
Si Si8 0.831674 0.072266 0.120290
O O1 0.784885 0.750000 0.038577
O O2 0.632305 0.961595 0.040716
O O3 0.834749 0.022447 0.067341
O O4 0.780314 0.979439 0.978945
O O5 0.606753 0.750000 0.134698
O O6 0.550123 0.458290 0.117550
O O7 0.562407 0.548612 0.199496
O O8 0.744526 0.525152 0.149786
O O9 0.696064 0.750000 0.931692
O O10 0.577287 0.512728 0.950975
O O11 0.735671 0.494821 0.888900
O O12 0.981505 0.750000 0.797550
O O13 0.049075 0.953651 0.858581
O O14 0.862919 0.996320 0.817981
O O15 0.050198 0.018101 0.772660
O O16 0.064833 0.250000 0.447212
O O17 0.594494 0.250000 0.779847
O O18 0.650008 0.520168 0.805642
O O19 0.753593 0.750000 0.841345
O O20 0.795563 0.250000 0.122495
#
# Coordination Sequence:
#
# PCOD8250035 Si02
#       8
#     8   8   8   8   8   8   8   8
#     4  10  19  32  52  81 115 153 192 232 289 346
#     4  10  20  34  53  82 115 150 182 224 284 341
#     4   9  18  32  54  82 113 150 191 236 287 341
#     4  10  24  42  63  85 110 151 198 243 285 338
#     4  10  17  29  50  79 113 150 187 231 280 331
#     4  11  24  39  59  88 120 147 183 235 294 353
#     4  10  21  42  65  86 115 151 196 241 286 342
#     4  10  21  38  57  82 113 149 196 241 280 330
#
# _framework density 20.473345999999999
#
# number of rings (size 3 to 8) (size 9 to 14) (size 15 to 20)
#    0.000    2.000    1.250    3.750    1.750    3.000 
#    0.000    3.750    0.000    0.000    0.000    0.000 
#    0.000    0.000    0.000    0.000    0.000    0.000 
#
# Total GULP energy -793296.583370 kJ/mol
# GULP energy per Si atom -12395.259115 kJ/mol
# Density = 2.042675 g / cm^3
# Si number density = 20.473346 Si / 1000 Ang^3
#
#
#
# Elastic Constant Matrix: (Units=GPa)
#
#
# Indices 1 2 3 4 5 6 
#
# 1 73.7844 14.2096 33.4059 0.0000 0.0000 0.0000
# 2 14.2096 40.2954 11.4284 0.0000 0.0000 0.0000
# 3 33.4059 11.4284 121.4389 0.0000 0.0000 0.0000
# 4 0.0000 0.0000 0.0000 23.2359 0.0000 0.0000
# 5 0.0000 0.0000 0.0000 0.0000 17.1702 0.0000
# 6 0.0000 0.0000 0.0000 0.0000 0.0000 18.0889
#
#
#
# Elastic Compliance Matrix: (Units=1/GPa)
#
#
# Indices 1 2 3 4 5 6 
#
# 1 0.016267 -0.004590 -0.004043 0.000000 0.000000 0.000000
# 2 -0.004590 0.026792 -0.001259 0.000000 0.000000 0.000000
# 3 -0.004043 -0.001259 0.009465 0.000000 0.000000 0.000000
# 4 0.000000 0.000000 0.000000 0.043037 0.000000 0.000000
# 5 0.000000 0.000000 0.000000 0.000000 0.058241 0.000000
# 6 0.000000 0.000000 0.000000 0.000000 0.000000 0.055283
#
#
# Mechanical properties :
#
#
# Convention : Reuss Voigt Hill
#
# Bulk Modulus (GPa) = 30.54204 39.28960 34.91582
# Shear Modulus (GPa) = 20.85229 23.46398 22.15814
#
# Velocity S-wave (km/s) = 3.19487 3.38905 3.29339
# Velocity P-wave (km/s) = 5.34415 5.87762 5.61722
#
# Compressibility (1/GPa) = 0.03274175
#
# Stress axis : x y z
#
# Youngs Moduli (GPa) = 61.47279 37.32418 105.65006
#
# Poissons Ratio (x) = 0.17131 0.42714
# Poissons Ratio (y) = 0.28215 0.13299
# Poissons Ratio (z) = 0.24853 0.04698
#
# Static dielectric constant tensor:
#      x y z
#    x 3.561300 0.000000 0.000000 
#    y 0.000000 3.527040 0.000000 
#    z 0.000000 0.000000 3.908970 
# 
# 
# High freq. dielectric constant tensor:
#      x y z
#    x 1.778910 0.000000 0.000000 
#    y 0.000000 1.786480 0.000000 
#    z 0.000000 0.000000 1.808970 
# 
# From -- ./inp_files/32491.got.cif
#   From: 2010.03.12/outbox.cif.g09.slc.cpg/sg62_17_cif.got.tgz:32491.got - 2010.04.10 19:12:36.
