data_PCOD8250483
_publ_section_title
;
Structure prediction by ZEFSAII (Michael W. Deem and Ramdas Pophale) SiO2 
 PCOD8250483
Probable space group: P N M A
;
_chemical_formula_sum "Si O2"
_cell_formula_units_Z 64
_cell_length_a 28.678770
_cell_length_b 8.616958
_cell_length_c 12.778759
_cell_angle_alpha 90.000000
_cell_angle_beta 90.000000
_cell_angle_gamma 90.000000
_cell_volume 3157.934929
_symmetry_space_group_name_H-M "P N M A"
_symmetry_group_IT_number 62
_symmetry_cell_setting 'orthorhombic'
loop_
_space_group_symop_operation_xyz
x,y,z
1/2-x,-y,1/2+z
1/2+x,1/2-y,1/2-z
-x,1/2+y,-z
-x,-y,-z
1/2+x,y,1/2-z
1/2-x,1/2+y,1/2+z
x,1/2-y,z
loop_
_atom_site_type_symbol
_atom_site_label
_atom_site_fract_x
_atom_site_fract_y
_atom_site_fract_z
Si Si1 0.085103 0.063585 0.449791
Si Si2 0.924760 0.567185 0.316953
Si Si3 0.026572 0.932629 0.264330
Si Si4 0.179522 0.931617 0.004415
Si Si5 0.833281 0.919260 0.678080
Si Si6 0.099602 0.079205 0.125707
Si Si7 0.170566 0.433571 0.781218
Si Si8 0.255743 0.935919 0.677483
O O1 0.084971 0.250000 0.442406
O O2 0.075429 0.998047 0.565368
O O3 0.136910 0.998863 0.414446
O O4 0.045630 0.000178 0.372946
O O5 0.920534 0.750000 0.329198
O O6 0.880697 0.505906 0.251345
O O7 0.972113 0.519876 0.257505
O O8 0.033811 0.750000 0.266999
O O9 0.051329 0.998071 0.160096
O O10 0.185728 0.750000 0.020674
O O11 0.127372 0.980883 0.039011
O O12 0.220174 0.017600 0.068767
O O13 0.186579 0.976794 0.884398
O O14 0.817518 0.750000 0.638391
O O15 0.869143 0.902774 0.772909
O O16 0.787298 0.002684 0.724509
O O17 0.088582 0.250000 0.078796
O O18 0.171577 0.250000 0.799729
O O19 0.205727 0.482343 0.687884
O O20 0.252002 0.750000 0.681307
#
# Coordination Sequence:
#
# PCOD8250483 Si02
#       8
#     8   8   8   8   8   8   8   8
#     4   9  16  31  53  78 107 146 186 224 276 337
#     4   9  20  35  52  75 111 153 192 231 278 331
#     4  10  18  31  52  82 113 145 186 233 279 334
#     4  11  22  39  62  87 112 144 183 230 283 336
#     4   7  13  26  49  77 106 136 172 215 266 323
#     4   9  17  33  56  82 108 140 180 228 280 333
#     4  11  23  40  58  81 114 154 192 230 275 330
#     4  10  20  37  59  86 115 146 184 231 280 334
#
# _framework density 20.266408999999999
#
# number of rings (size 3 to 8) (size 9 to 14) (size 15 to 20)
#    0.000    2.500    0.000    4.500    0.000    1.000 
#    0.000    8.125    0.000    0.000    0.000    0.000 
#    0.000    0.000    0.000    0.000    0.000    0.000 
#
# Total GULP energy -793157.246415 kJ/mol
# GULP energy per Si atom -12393.081975 kJ/mol
# Density = 2.022028 g / cm^3
# Si number density = 20.266409 Si / 1000 Ang^3
#
#
#
# Elastic Constant Matrix: (Units=GPa)
#
#
# Indices 1 2 3 4 5 6 
#
# 1 128.1643 27.4698 39.2653 0.0000 0.0000 0.0000
# 2 27.4698 70.5280 14.0475 0.0000 0.0000 0.0000
# 3 39.2653 14.0475 63.7767 0.0000 0.0000 0.0000
# 4 0.0000 0.0000 0.0000 23.5458 0.0000 0.0000
# 5 0.0000 0.0000 0.0000 0.0000 27.5643 0.0000
# 6 0.0000 0.0000 0.0000 0.0000 0.0000 26.4221
#
#
#
# Elastic Compliance Matrix: (Units=1/GPa)
#
#
# Indices 1 2 3 4 5 6 
#
# 1 0.010128 -0.002827 -0.005613 0.000000 0.000000 0.000000
# 2 -0.002827 0.015618 -0.001700 0.000000 0.000000 0.000000
# 3 -0.005613 -0.001700 0.019510 0.000000 0.000000 0.000000
# 4 0.000000 0.000000 0.000000 0.042470 0.000000 0.000000
# 5 0.000000 0.000000 0.000000 0.000000 0.036279 0.000000
# 6 0.000000 0.000000 0.000000 0.000000 0.000000 0.037847
#
#
# Mechanical properties :
#
#
# Convention : Reuss Voigt Hill
#
# Bulk Modulus (GPa) = 40.03635 47.11490 43.57562
# Shear Modulus (GPa) = 26.25270 27.61889 26.93580
#
# Velocity S-wave (km/s) = 3.60304 3.69561 3.64962
# Velocity P-wave (km/s) = 6.09156 6.44269 6.26958
#
# Compressibility (1/GPa) = 0.02497730
#
# Stress axis : x y z
#
# Youngs Moduli (GPa) = 98.73681 64.02746 51.25647
#
# Poissons Ratio (x) = 0.18099 0.28769
# Poissons Ratio (y) = 0.27911 0.08712
# Poissons Ratio (z) = 0.55419 0.10883
#
# Static dielectric constant tensor:
#      x y z
#    x 3.944980 0.000000 0.000000 
#    y 0.000000 3.453970 0.000000 
#    z 0.000000 0.000000 3.586310 
# 
# 
# High freq. dielectric constant tensor:
#      x y z
#    x 1.795720 0.000000 0.000000 
#    y 0.000000 1.769730 0.000000 
#    z 0.000000 0.000000 1.775120 
# 
# From -- ./inp_files/15820.got.cif
#   From: 2010.03.12/outbox.cif.g09.slc.cpg/sg62_8_cif.got.tgz:15820.got - 2010.04.10 19:12:36.
