data_PCOD8250852
_publ_section_title
;
Structure prediction by ZEFSAII (Michael W. Deem and Ramdas Pophale) SiO2 
 PCOD8250852
Probable space group: P N M A
;
_chemical_formula_sum "Si O2"
_cell_formula_units_Z 64
_cell_length_a 28.207285
_cell_length_b 9.060783
_cell_length_c 14.375763
_cell_angle_alpha 90.000000
_cell_angle_beta 90.000000
_cell_angle_gamma 90.000000
_cell_volume 3674.158778
_symmetry_space_group_name_H-M "P N M A"
_symmetry_group_IT_number 62
_symmetry_cell_setting 'orthorhombic'
loop_
_space_group_symop_operation_xyz
x,y,z
1/2-x,-y,1/2+z
1/2+x,1/2-y,1/2-z
-x,1/2+y,-z
-x,-y,-z
1/2+x,y,1/2-z
1/2-x,1/2+y,1/2+z
x,1/2-y,z
loop_
_atom_site_type_symbol
_atom_site_label
_atom_site_fract_x
_atom_site_fract_y
_atom_site_fract_z
Si Si1 0.048567 0.075025 0.105981
Si Si2 0.362327 0.919389 0.714710
Si Si3 0.334405 0.082715 0.092259
Si Si4 0.236852 0.419092 0.850310
Si Si5 0.546703 0.076644 0.606583
Si Si6 0.138341 0.077786 0.780258
Si Si7 0.738499 0.084724 0.325431
Si Si8 0.175469 0.424118 0.412595
O O1 0.045284 0.250000 0.115462
O O2 0.091833 0.006150 0.167094
O O3 0.057443 0.028414 0.999237
O O4 0.000115 0.004805 0.144112
O O5 0.375344 0.750000 0.727899
O O6 0.316639 0.938139 0.645419
O O7 0.349742 0.982476 0.817674
O O8 0.352679 0.250000 0.085044
O O9 0.276451 0.077120 0.091410
O O10 0.355777 0.014436 0.185931
O O11 0.351618 0.994403 0.001021
O O12 0.248770 0.250000 0.874797
O O13 0.180353 0.451463 0.856116
O O14 0.248990 0.452628 0.743436
O O15 0.269404 0.523853 0.914144
O O16 0.538094 0.250000 0.613365
O O17 0.590088 0.026004 0.671054
O O18 0.137652 0.250000 0.753333
O O19 0.742006 0.250000 0.278169
O O20 0.173529 0.250000 0.421940
#
# Coordination Sequence:
#
# PCOD8250852 Si02
#       8
#     8   8   8   8   8   8   8   8
#     4   9  17  31  51  72  93 118 152 193 234 281
#     4   8  15  29  49  69  90 123 161 190 225 277
#     4  10  19  30  47  71  97 127 164 201 234 273
#     4   9  16  27  44  66  91 120 157 194 225 264
#     4   9  18  32  50  72  96 121 150 188 239 293
#     4   9  18  32  49  69  96 129 160 192 236 288
#     4   8  15  28  44  63  90 122 154 188 228 273
#     4  10  19  31  46  66  97 133 164 194 231 276
#
# _framework density 17.418952000000001
#
# number of rings (size 3 to 8) (size 9 to 14) (size 15 to 20)
#    0.000    3.000    0.000    1.875    0.000    2.500 
#    0.000    6.875    0.000    3.750    0.000    0.000 
#    0.000    0.000    0.000    0.000    0.000    0.000 
#
# Total GULP energy -792899.582744 kJ/mol
# GULP energy per Si atom -12389.055980 kJ/mol
# Density = 1.737931 g / cm^3
# Si number density = 17.418952 Si / 1000 Ang^3
#
#
#
# Elastic Constant Matrix: (Units=GPa)
#
#
# Indices 1 2 3 4 5 6 
#
# 1 130.1938 35.4082 53.6201 0.0000 0.0000 0.0000
# 2 35.4082 55.1774 32.8768 0.0000 0.0000 0.0000
# 3 53.6201 32.8768 80.5004 0.0000 0.0000 0.0000
# 4 0.0000 0.0000 0.0000 23.2893 0.0000 0.0000
# 5 0.0000 0.0000 0.0000 0.0000 23.3810 0.0000
# 6 0.0000 0.0000 0.0000 0.0000 0.0000 24.0303
#
#
#
# Elastic Compliance Matrix: (Units=1/GPa)
#
#
# Indices 1 2 3 4 5 6 
#
# 1 0.011098 -0.003591 -0.005926 0.000000 0.000000 0.000000
# 2 -0.003591 0.025114 -0.007865 0.000000 0.000000 0.000000
# 3 -0.005926 -0.007865 0.019581 0.000000 0.000000 0.000000
# 4 0.000000 0.000000 0.000000 0.042938 0.000000 0.000000
# 5 0.000000 0.000000 0.000000 0.000000 0.042770 0.000000
# 6 0.000000 0.000000 0.000000 0.000000 0.000000 0.041614
#
#
# Mechanical properties :
#
#
# Convention : Reuss Voigt Hill
#
# Bulk Modulus (GPa) = 47.55019 56.63131 52.09075
# Shear Modulus (GPa) = 22.23331 23.73789 22.98560
#
# Velocity S-wave (km/s) = 3.57653 3.69557 3.63654
# Velocity P-wave (km/s) = 6.66428 7.12682 6.89943
#
# Compressibility (1/GPa) = 0.02103041
#
# Stress axis : x y z
#
# Youngs Moduli (GPa) = 90.10687 39.81864 51.06932
#
# Poissons Ratio (x) = 0.14299 0.30262
# Poissons Ratio (y) = 0.32358 0.40164
# Poissons Ratio (z) = 0.53394 0.31316
#
# Static dielectric constant tensor:
#      x y z
#    x 3.345630 0.000000 0.000000 
#    y 0.000000 3.130480 0.000000 
#    z 0.000000 0.000000 3.117860 
# 
# 
# High freq. dielectric constant tensor:
#      x y z
#    x 1.658160 0.000000 0.000000 
#    y 0.000000 1.663790 0.000000 
#    z 0.000000 0.000000 1.654340 
# 
# From -- ./inp_files/21268.got.cif
#   From: 2010.03.12/outbox.cif.g09.slc.cpg/sg62_11_cif.got.tgz:21268.got - 2010.04.10 19:12:36.
