data_PCOD8250394
_publ_section_title
;
Structure prediction by ZEFSAII (Michael W. Deem and Ramdas Pophale) SiO2 
 PCOD8250394
Probable space group: P N M A
;
_chemical_formula_sum "Si O2"
_cell_formula_units_Z 64
_cell_length_a 22.593590
_cell_length_b 9.223561
_cell_length_c 14.552190
_cell_angle_alpha 90.000000
_cell_angle_beta 90.000000
_cell_angle_gamma 90.000000
_cell_volume 3032.579705
_symmetry_space_group_name_H-M "P N M A"
_symmetry_group_IT_number 62
_symmetry_cell_setting 'orthorhombic'
loop_
_space_group_symop_operation_xyz
x,y,z
1/2-x,-y,1/2+z
1/2+x,1/2-y,1/2-z
-x,1/2+y,-z
-x,-y,-z
1/2+x,y,1/2-z
1/2-x,1/2+y,1/2+z
x,1/2-y,z
loop_
_atom_site_type_symbol
_atom_site_label
_atom_site_fract_x
_atom_site_fract_y
_atom_site_fract_z
Si Si1 0.047381 0.085735 0.797088
Si Si2 0.289410 0.079711 0.167883
Si Si3 0.677175 0.414968 0.651557
Si Si4 0.624282 0.419266 0.971041
Si Si5 0.917018 0.418228 0.843984
Si Si6 0.603188 0.088677 0.166985
Si Si7 0.323987 0.917635 0.551142
Si Si8 0.031547 0.586771 0.620464
O O1 0.040235 0.250000 0.758464
O O2 0.105783 0.071819 0.858894
O O3 0.987027 0.045316 0.851895
O O4 0.057919 0.973648 0.715578
O O5 0.302815 0.250000 0.170332
O O6 0.224079 0.047354 0.129373
O O7 0.294407 0.017265 0.270920
O O8 0.334140 0.003440 0.098788
O O9 0.694960 0.250000 0.676422
O O10 0.700816 0.460579 0.550315
O O11 0.624328 0.250000 0.945797
O O12 0.557921 0.484318 0.959408
O O13 0.644565 0.443550 0.077719
O O14 0.903669 0.250000 0.849675
O O15 0.889113 0.473694 0.747568
O O16 0.883777 0.494478 0.927803
O O17 0.616301 0.250000 0.206698
O O18 0.538506 0.081972 0.122991
O O19 0.341497 0.750000 0.550287
O O20 0.054934 0.750000 0.606686
#
# Coordination Sequence:
#
# PCOD8250394 Si02
#       8
#     8   8   8   8   8   8   8   8
#     4   9  18  34  58  88 121 156 197 243 295 355
#     4  11  24  41  61  88 120 153 201 257 299 349
#     4  10  21  41  67  90 118 158 198 240 301 362
#     4  11  21  34  54  81 115 157 202 245 296 353
#     4  10  21  37  59  89 122 156 199 251 298 353
#     4   9  20  35  53  81 120 163 199 236 292 356
#     4  10  24  44  63  86 119 158 198 245 301 361
#     4  10  18  30  51  82 119 157 198 242 291 347
#
# _framework density 21.104144999999999
#
# number of rings (size 3 to 8) (size 9 to 14) (size 15 to 20)
#    0.000    2.000    1.250    1.875    0.000    5.000 
#    0.000    2.500    0.000    0.000    0.000    0.000 
#    0.000    0.000    0.000    0.000    0.000    0.000 
#
# Total GULP energy -793366.009021 kJ/mol
# GULP energy per Si atom -12396.343891 kJ/mol
# Density = 2.105611 g / cm^3
# Si number density = 21.104145 Si / 1000 Ang^3
#
#
#
# Elastic Constant Matrix: (Units=GPa)
#
#
# Indices 1 2 3 4 5 6 
#
# 1 47.9314 33.3837 33.2606 0.0000 0.0000 0.0000
# 2 33.3837 107.8059 52.8224 0.0000 0.0000 0.0000
# 3 33.2606 52.8224 106.1291 0.0000 0.0000 0.0000
# 4 0.0000 0.0000 0.0000 32.7281 0.0000 0.0000
# 5 0.0000 0.0000 0.0000 0.0000 19.6925 0.0000
# 6 0.0000 0.0000 0.0000 0.0000 0.0000 22.6523
#
#
#
# Elastic Compliance Matrix: (Units=1/GPa)
#
#
# Indices 1 2 3 4 5 6 
#
# 1 0.029383 -0.006066 -0.006189 0.000000 0.000000 0.000000
# 2 -0.006066 0.013520 -0.004828 0.000000 0.000000 0.000000
# 3 -0.006189 -0.004828 0.013765 0.000000 0.000000 0.000000
# 4 0.000000 0.000000 0.000000 0.030555 0.000000 0.000000
# 5 0.000000 0.000000 0.000000 0.000000 0.050781 0.000000
# 6 0.000000 0.000000 0.000000 0.000000 0.000000 0.044146
#
#
# Mechanical properties :
#
#
# Convention : Reuss Voigt Hill
#
# Bulk Modulus (GPa) = 44.44218 55.64444 50.04331
# Shear Modulus (GPa) = 22.33967 24.50791 23.42379
#
# Velocity S-wave (km/s) = 3.25706 3.41146 3.33515
# Velocity P-wave (km/s) = 5.93707 6.47621 6.21249
#
# Compressibility (1/GPa) = 0.02250114
#
# Stress axis : x y z
#
# Youngs Moduli (GPa) = 34.03310 73.96409 72.64701
#
# Poissons Ratio (x) = 0.44869 0.44963
# Poissons Ratio (y) = 0.20646 0.35074
# Poissons Ratio (z) = 0.21064 0.35710
#
# Static dielectric constant tensor:
#      x y z
#    x 3.815100 0.000000 0.000000 
#    y 0.000000 3.838150 0.000000 
#    z 0.000000 0.000000 3.787650 
# 
# 
# High freq. dielectric constant tensor:
#      x y z
#    x 1.816010 0.000000 0.000000 
#    y 0.000000 1.827290 0.000000 
#    z 0.000000 0.000000 1.825720 
# 
# From -- ./inp_files/20951.got.cif
#   From: 2010.03.12/outbox.cif.g09.slc.cpg/sg62_11_cif.got.tgz:20951.got - 2010.04.10 19:12:36.
