data_PCOD8250782
_publ_section_title
;
Structure prediction by ZEFSAII (Michael W. Deem and Ramdas Pophale) SiO2 
 PCOD8250782
Probable space group: P N M A
;
_chemical_formula_sum "Si O2"
_cell_formula_units_Z 64
_cell_length_a 13.686644
_cell_length_b 8.917155
_cell_length_c 33.973077
_cell_angle_alpha 90.000000
_cell_angle_beta 90.000000
_cell_angle_gamma 90.000000
_cell_volume 4146.275641
_symmetry_space_group_name_H-M "P N M A"
_symmetry_group_IT_number 62
_symmetry_cell_setting 'orthorhombic'
loop_
_space_group_symop_operation_xyz
x,y,z
1/2-x,-y,1/2+z
1/2+x,1/2-y,1/2-z
-x,1/2+y,-z
-x,-y,-z
1/2+x,y,1/2-z
1/2-x,1/2+y,1/2+z
x,1/2-y,z
loop_
_atom_site_type_symbol
_atom_site_label
_atom_site_fract_x
_atom_site_fract_y
_atom_site_fract_z
Si Si1 0.220147 0.079261 0.812098
Si Si2 0.301918 0.573292 0.691870
Si Si3 0.387938 0.073143 0.379411
Si Si4 0.904497 0.072304 0.879590
Si Si5 0.125095 0.422809 0.730165
Si Si6 0.621287 0.915387 0.534255
Si Si7 0.595328 0.576286 0.236961
Si Si8 0.390124 0.584084 0.540606
O O1 0.209455 0.250000 0.826666
O O2 0.147452 0.047252 0.775938
O O3 0.331048 0.044253 0.798988
O O4 0.193863 0.969151 0.847683
O O5 0.308794 0.750000 0.685994
O O6 0.327811 0.491504 0.651488
O O7 0.191521 0.527633 0.702966
O O8 0.377382 0.524028 0.725681
O O9 0.409448 0.250000 0.379012
O O10 0.347563 0.024078 0.422534
O O11 0.488342 0.989593 0.369289
O O12 0.907494 0.250000 0.877468
O O13 0.867060 0.022483 0.922570
O O14 0.148289 0.250000 0.719871
O O15 0.012713 0.464613 0.722127
O O16 0.665053 0.750000 0.527069
O O17 0.504832 0.907572 0.533591
O O18 0.660604 0.020890 0.499193
O O19 0.602505 0.750000 0.250205
O O20 0.347884 0.750000 0.548803
#
# Coordination Sequence:
#
# PCOD8250782 Si02
#       8
#     8   8   8   8   8   8   8   8
#     4   9  17  28  44  66  88 113 146 179 214 257
#     4  11  21  31  45  66  89 111 142 182 218 254
#     4  10  19  29  42  62  88 116 148 184 216 249
#     4  11  20  30  44  60  84 117 148 178 214 256
#     4   9  18  33  49  63  83 113 146 178 215 258
#     4   8  15  26  38  55  81 113 144 172 208 253
#     4   9  18  33  50  65  85 115 147 178 214 259
#     4   9  16  26  40  59  82 108 141 177 211 250
#
# _framework density 15.435539
#
# number of rings (size 3 to 8) (size 9 to 14) (size 15 to 20)
#    0.000    2.500    0.000    5.250    0.000    7.000 
#    0.000    0.000    0.000    0.000    0.000    0.000 
#    0.000    1.000    0.000    3.000    0.000    4.875 
#
# Total GULP energy -793527.502903 kJ/mol
# GULP energy per Si atom -12398.867233 kJ/mol
# Density = 1.540041 g / cm^3
# Si number density = 15.435539 Si / 1000 Ang^3
#
#
#
# Elastic Constant Matrix: (Units=GPa)
#
#
# Indices 1 2 3 4 5 6 
#
# 1 72.0746 33.7597 40.4041 0.0000 0.0000 0.0000
# 2 33.7597 103.2228 55.5304 0.0000 0.0000 0.0000
# 3 40.4041 55.5304 108.4134 0.0000 0.0000 0.0000
# 4 0.0000 0.0000 0.0000 28.6841 0.0000 0.0000
# 5 0.0000 0.0000 0.0000 0.0000 15.2205 0.0000
# 6 0.0000 0.0000 0.0000 0.0000 0.0000 16.8347
#
#
#
# Elastic Compliance Matrix: (Units=1/GPa)
#
#
# Indices 1 2 3 4 5 6 
#
# 1 0.018270 -0.003192 -0.005174 0.000000 0.000000 0.000000
# 2 -0.003192 0.013930 -0.005946 0.000000 0.000000 0.000000
# 3 -0.005174 -0.005946 0.014198 0.000000 0.000000 0.000000
# 4 0.000000 0.000000 0.000000 0.034862 0.000000 0.000000
# 5 0.000000 0.000000 0.000000 0.000000 0.065701 0.000000
# 6 0.000000 0.000000 0.000000 0.000000 0.000000 0.059401
#
#
# Mechanical properties :
#
#
# Convention : Reuss Voigt Hill
#
# Bulk Modulus (GPa) = 56.25935 60.34434 58.30185
# Shear Modulus (GPa) = 20.75456 22.41563 21.58509
#
# Velocity S-wave (km/s) = 3.67085 3.81492 3.74358
# Velocity P-wave (km/s) = 7.38200 7.65403 7.51924
#
# Compressibility (1/GPa) = 0.01777482
#
# Stress axis : x y z
#
# Youngs Moduli (GPa) = 54.73415 71.78616 70.43398
#
# Poissons Ratio (x) = 0.22913 0.36443
# Poissons Ratio (y) = 0.17470 0.41878
# Poissons Ratio (z) = 0.28320 0.42682
#
# Static dielectric constant tensor:
#      x y z
#    x 2.679690 0.000000 0.000000 
#    y 0.000000 3.047080 0.000000 
#    z 0.000000 0.000000 3.051960 
# 
# 
# High freq. dielectric constant tensor:
#      x y z
#    x 1.544980 0.000000 0.000000 
#    y 0.000000 1.601120 0.000000 
#    z 0.000000 0.000000 1.590850 
# 
# From -- ./inp_files/32723.got.cif
#   From: 2010.03.12/outbox.cif.g09.slc.cpg/sg62_17_cif.got.tgz:32723.got - 2010.04.10 19:12:36.
