data_PCOD8250299
_publ_section_title
;
Structure prediction by ZEFSAII (Michael W. Deem and Ramdas Pophale) SiO2 
 PCOD8250299
Probable space group: P N M A
;
_chemical_formula_sum "Si O2"
_cell_formula_units_Z 64
_cell_length_a 15.087592
_cell_length_b 9.414001
_cell_length_c 24.058509
_cell_angle_alpha 90.000000
_cell_angle_beta 90.000000
_cell_angle_gamma 90.000000
_cell_volume 3417.140851
_symmetry_space_group_name_H-M "P N M A"
_symmetry_group_IT_number 62
_symmetry_cell_setting 'orthorhombic'
loop_
_space_group_symop_operation_xyz
x,y,z
1/2-x,-y,1/2+z
1/2+x,1/2-y,1/2-z
-x,1/2+y,-z
-x,-y,-z
1/2+x,y,1/2-z
1/2-x,1/2+y,1/2+z
x,1/2-y,z
loop_
_atom_site_type_symbol
_atom_site_label
_atom_site_fract_x
_atom_site_fract_y
_atom_site_fract_z
Si Si1 0.802071 0.914566 0.533251
Si Si2 0.048954 0.913381 0.078361
Si Si3 0.377391 0.083025 0.695989
Si Si4 0.794383 0.087222 0.304698
Si Si5 0.649053 0.586349 0.929471
Si Si6 0.605760 0.912124 0.542895
Si Si7 0.491573 0.082321 0.228087
Si Si8 0.039113 0.081563 0.393079
O O1 0.821301 0.750000 0.520690
O O2 0.706807 0.935023 0.562085
O O3 0.874618 0.979217 0.575557
O O4 0.800672 0.994061 0.474794
O O5 0.022246 0.750000 0.077470
O O6 0.112640 0.946389 0.130173
O O7 0.098009 0.960104 0.021691
O O8 0.956583 0.997862 0.083428
O O9 0.376000 0.250000 0.710000
O O10 0.285261 0.013056 0.716785
O O11 0.462148 0.009649 0.724384
O O12 0.768411 0.250000 0.292063
O O13 0.805383 0.063680 0.370233
O O14 0.886073 0.049340 0.273133
O O15 0.653243 0.750000 0.947594
O O16 0.547730 0.530983 0.926409
O O17 0.576240 0.750000 0.549348
O O18 0.507145 0.250000 0.238096
O O19 0.535855 0.029115 0.170429
O O20 0.039221 0.250000 0.391173
#
# Coordination Sequence:
#
# PCOD8250299 Si02
#       8
#     8   8   8   8   8   8   8   8
#     4  10  18  29  48  76 106 136 169 208 259 315
#     4   9  19  35  51  70 101 136 166 207 262 311
#     4  11  22  36  57  83 109 138 173 222 280 326
#     4   9  19  36  57  79 103 139 183 224 263 312
#     4   9  17  30  50  76 104 135 174 214 255 306
#     4   9  18  32  50  73 101 133 171 208 248 305
#     4   9  19  38  58  76 104 142 184 226 263 311
#     4   8  16  32  51  71 102 138 171 213 259 306
#
# _framework density 18.729108
#
# number of rings (size 3 to 8) (size 9 to 14) (size 15 to 20)
#    0.000    2.750    0.000    3.000    0.000    3.500 
#    2.250    5.000    0.000    0.000    0.000    0.000 
#    0.000    0.000    0.000    0.000    0.000    0.000 
#
# Total GULP energy -793471.197150 kJ/mol
# GULP energy per Si atom -12397.987455 kJ/mol
# Density = 1.868648 g / cm^3
# Si number density = 18.729108 Si / 1000 Ang^3
#
#
#
# Elastic Constant Matrix: (Units=GPa)
#
#
# Indices 1 2 3 4 5 6 
#
# 1 117.8135 55.6381 28.7208 0.0000 0.0000 0.0000
# 2 55.6381 68.2389 29.2009 0.0000 0.0000 0.0000
# 3 28.7208 29.2009 40.2017 0.0000 0.0000 0.0000
# 4 0.0000 0.0000 0.0000 25.6592 0.0000 0.0000
# 5 0.0000 0.0000 0.0000 0.0000 24.4073 0.0000
# 6 0.0000 0.0000 0.0000 0.0000 0.0000 27.5144
#
#
#
# Elastic Compliance Matrix: (Units=1/GPa)
#
#
# Indices 1 2 3 4 5 6 
#
# 1 0.013971 -0.010331 -0.002477 0.000000 0.000000 0.000000
# 2 -0.010331 0.028903 -0.013613 0.000000 0.000000 0.000000
# 3 -0.002477 -0.013613 0.036532 0.000000 0.000000 0.000000
# 4 0.000000 0.000000 0.000000 0.038972 0.000000 0.000000
# 5 0.000000 0.000000 0.000000 0.000000 0.040971 0.000000
# 6 0.000000 0.000000 0.000000 0.000000 0.000000 0.036345
#
#
# Mechanical properties :
#
#
# Convention : Reuss Voigt Hill
#
# Bulk Modulus (GPa) = 37.64555 50.37485 44.01020
# Shear Modulus (GPa) = 19.42563 23.02913 21.22738
#
# Velocity S-wave (km/s) = 3.22404 3.51036 3.37024
# Velocity P-wave (km/s) = 5.83120 6.58674 6.22045
#
# Compressibility (1/GPa) = 0.02656356
#
# Stress axis : x y z
#
# Youngs Moduli (GPa) = 71.57847 34.59822 27.37297
#
# Poissons Ratio (x) = 0.35743 0.06780
# Poissons Ratio (y) = 0.73948 0.37264
# Poissons Ratio (z) = 0.17729 0.47100
#
# Static dielectric constant tensor:
#      x y z
#    x 3.554530 0.000000 0.000000 
#    y 0.000000 3.221580 0.000000 
#    z 0.000000 0.000000 3.307070 
# 
# 
# High freq. dielectric constant tensor:
#      x y z
#    x 1.735870 0.000000 0.000000 
#    y 0.000000 1.708510 0.000000 
#    z 0.000000 0.000000 1.708350 
# 
# From -- ./inp_files/29789.got.cif
#   From: 2010.03.12/outbox.cif.g09.slc.cpg/sg62_15_cif.got.tgz:29789.got - 2010.04.10 19:12:36.
