data_PCOD8250540
_publ_section_title
;
Structure prediction by ZEFSAII (Michael W. Deem and Ramdas Pophale) SiO2 
 PCOD8250540
Probable space group: P N M A
;
_chemical_formula_sum "Si O2"
_cell_formula_units_Z 56
_cell_length_a 20.175438
_cell_length_b 13.205553
_cell_length_c 11.977232
_cell_angle_alpha 90.000000
_cell_angle_beta 90.000000
_cell_angle_gamma 90.000000
_cell_volume 3191.067761
_symmetry_space_group_name_H-M "P N M A"
_symmetry_group_IT_number 62
_symmetry_cell_setting 'orthorhombic'
loop_
_space_group_symop_operation_xyz
x,y,z
1/2-x,-y,1/2+z
1/2+x,1/2-y,1/2-z
-x,1/2+y,-z
-x,-y,-z
1/2+x,y,1/2-z
1/2-x,1/2+y,1/2+z
x,1/2-y,z
loop_
_atom_site_type_symbol
_atom_site_label
_atom_site_fract_x
_atom_site_fract_y
_atom_site_fract_z
Si Si1 0.145798 0.482813 0.609524
Si Si2 0.692470 0.633096 0.568112
Si Si3 0.515925 0.134559 0.933418
Si Si4 0.459006 0.554322 0.833548
Si Si5 0.817027 0.988299 0.637536
Si Si6 0.079361 0.631469 0.771184
Si Si7 0.271425 0.130998 0.679621
O O1 0.089800 0.397740 0.598862
O O2 0.169875 0.522207 0.489228
O O3 0.121100 0.582725 0.671031
O O4 0.201752 0.426018 0.679367
O O5 0.709253 0.750000 0.586255
O O6 0.749738 0.576851 0.638860
O O7 0.619109 0.606268 0.614581
O O8 0.691379 0.606496 0.436965
O O9 0.502636 0.250000 0.899394
O O10 0.464002 0.064946 0.865418
O O11 0.507876 0.119633 0.066391
O O12 0.380722 0.577392 0.817174
O O13 0.504493 0.583671 0.725969
O O14 0.812198 0.086384 0.716530
O O15 0.074485 0.750000 0.750662
O O16 0.261335 0.250000 0.697582
#
# Coordination Sequence:
#
# PCOD8250540 Si02
#       7
#     8   8   8   8   8   8   8
#     4   9  18  31  49  74 100 127 161 201 250 298
#     4   9  19  34  52  70  95 132 168 200 240 294
#     4   9  16  29  46  68 101 131 156 195 250 305
#     4   9  19  28  44  74 100 125 162 204 248 290
#     4  10  19  32  48  73 102 127 161 204 248 290
#     4  10  18  32  52  73  98 129 163 200 246 296
#     4  10  19  32  50  72  97 130 171 204 239 289
#
# _framework density 17.548984000000001
#
# number of rings (size 3 to 8) (size 9 to 14) (size 15 to 20)
#    0.000    2.571    1.429    1.714    0.000    5.143 
#    0.000    0.714    0.000    0.000    0.000    0.000 
#    0.000    0.000    0.000    0.000    0.000    0.000 
#
# Total GULP energy -694023.393791 kJ/mol
# GULP energy per Si atom -12393.274889 kJ/mol
# Density = 1.750904 g / cm^3
# Si number density = 17.548984 Si / 1000 Ang^3
#
#
#
# Elastic Constant Matrix: (Units=GPa)
#
#
# Indices 1 2 3 4 5 6 
#
# 1 50.1671 20.1519 17.2853 0.0000 0.0000 0.0000
# 2 20.1519 87.1839 32.7358 0.0000 0.0000 0.0000
# 3 17.2853 32.7358 52.1768 0.0000 0.0000 0.0000
# 4 0.0000 0.0000 0.0000 23.8242 0.0000 0.0000
# 5 0.0000 0.0000 0.0000 0.0000 22.3407 0.0000
# 6 0.0000 0.0000 0.0000 0.0000 0.0000 18.8870
#
#
#
# Elastic Compliance Matrix: (Units=1/GPa)
#
#
# Indices 1 2 3 4 5 6 
#
# 1 0.023180 -0.003237 -0.005648 0.000000 0.000000 0.000000
# 2 -0.003237 0.015457 -0.008625 0.000000 0.000000 0.000000
# 3 -0.005648 -0.008625 0.026448 0.000000 0.000000 0.000000
# 4 0.000000 0.000000 0.000000 0.041974 0.000000 0.000000
# 5 0.000000 0.000000 0.000000 0.000000 0.044761 0.000000
# 6 0.000000 0.000000 0.000000 0.000000 0.000000 0.052947
#
#
# Mechanical properties :
#
#
# Convention : Reuss Voigt Hill
#
# Bulk Modulus (GPa) = 33.26243 36.65264 34.95754
# Shear Modulus (GPa) = 20.01527 20.96735 20.49131
#
# Velocity S-wave (km/s) = 3.38085 3.46032 3.42082
# Velocity P-wave (km/s) = 5.85110 6.07424 5.96371
#
# Compressibility (1/GPa) = 0.03006395
#
# Stress axis : x y z
#
# Youngs Moduli (GPa) = 43.14105 64.69624 37.80975
#
# Poissons Ratio (x) = 0.20943 0.21355
# Poissons Ratio (y) = 0.13965 0.32612
# Poissons Ratio (z) = 0.24366 0.55802
#
# Static dielectric constant tensor:
#      x y z
#    x 3.484420 0.000000 0.000000 
#    y 0.000000 3.100080 0.000000 
#    z 0.000000 0.000000 3.164850 
# 
# 
# High freq. dielectric constant tensor:
#      x y z
#    x 1.685130 0.000000 0.000000 
#    y 0.000000 1.668320 0.000000 
#    z 0.000000 0.000000 1.652010 
# 
# From -- ./inp_files/14783.got.cif
#   From: 2010.03.12/outbox.cif.g09.slc.cpg/sg62_8_cif.got.tgz:14783.got - 2010.04.10 19:12:36.
