data_PCOD8250258
_publ_section_title
;
Structure prediction by ZEFSAII (Michael W. Deem and Ramdas Pophale) SiO2 
 PCOD8250258
Probable space group: P N M A
;
_chemical_formula_sum "Si O2"
_cell_formula_units_Z 56
_cell_length_a 13.585638
_cell_length_b 8.833404
_cell_length_c 29.254781
_cell_angle_alpha 90.000000
_cell_angle_beta 90.000000
_cell_angle_gamma 90.000000
_cell_volume 3510.791055
_symmetry_space_group_name_H-M "P N M A"
_symmetry_group_IT_number 62
_symmetry_cell_setting 'orthorhombic'
loop_
_space_group_symop_operation_xyz
x,y,z
1/2-x,-y,1/2+z
1/2+x,1/2-y,1/2-z
-x,1/2+y,-z
-x,-y,-z
1/2+x,y,1/2-z
1/2-x,1/2+y,1/2+z
x,1/2-y,z
loop_
_atom_site_type_symbol
_atom_site_label
_atom_site_fract_x
_atom_site_fract_y
_atom_site_fract_z
Si Si1 0.218491 0.573228 0.821310
Si Si2 0.104048 0.573370 0.096781
Si Si3 0.618566 0.429099 0.593153
Si Si4 0.396867 0.073137 0.230225
Si Si5 0.220755 0.573794 0.182656
Si Si6 0.105536 0.924868 0.273778
Si Si7 0.394108 0.426883 0.496821
O O1 0.219252 0.750000 0.832052
O O2 0.186315 0.483192 0.865869
O O3 0.144100 0.532495 0.780349
O O4 0.327944 0.520942 0.808451
O O5 0.093984 0.750000 0.106791
O O6 0.173706 0.505103 0.136174
O O7 0.154290 0.543605 0.046972
O O8 0.992860 0.506933 0.099682
O O9 0.620648 0.250000 0.590082
O O10 0.663273 0.494842 0.545349
O O11 0.418595 0.250000 0.225177
O O12 0.318126 0.022781 0.192299
O O13 0.494588 0.979282 0.221449
O O14 0.249999 0.750000 0.178439
O O15 0.140226 0.548438 0.222005
O O16 0.113086 0.750000 0.287685
O O17 0.500000 0.500000 0.500000
O O18 0.403366 0.250000 0.486920
#
# Coordination Sequence:
#
# PCOD8250258 Si02
#       7
#     8   8   8   8   8   8   8
#     4  10  20  32  46  66  92 121 152 187 227 268
#     4   8  15  27  44  65  90 119 150 185 220 260
#     4  10  18  29  45  66  92 121 154 189 225 269
#     4  10  20  32  45  65  93 120 147 184 227 266
#     4   9  17  30  47  66  87 116 154 186 216 258
#     4  10  19  31  48  67  89 120 154 187 221 261
#     4   9  16  27  42  63  91 121 151 184 226 270
#
# _framework density 15.950822000000001
#
# number of rings (size 3 to 8) (size 9 to 14) (size 15 to 20)
#    0.000    2.571    0.000    3.857    0.000    3.429 
#    0.000    4.286    0.000    0.000    0.000    1.000 
#    0.000    0.000    0.000    0.000    0.000    0.000 
#
# Total GULP energy -694228.120408 kJ/mol
# GULP energy per Si atom -12396.930722 kJ/mol
# Density = 1.591452 g / cm^3
# Si number density = 15.950822 Si / 1000 Ang^3
#
#
#
# Elastic Constant Matrix: (Units=GPa)
#
#
# Indices 1 2 3 4 5 6 
#
# 1 70.6164 21.6389 37.9986 0.0000 0.0000 0.0000
# 2 21.6389 60.3674 37.6151 0.0000 0.0000 0.0000
# 3 37.9986 37.6151 121.7513 0.0000 0.0000 0.0000
# 4 0.0000 0.0000 0.0000 25.9336 0.0000 0.0000
# 5 0.0000 0.0000 0.0000 0.0000 21.9747 0.0000
# 6 0.0000 0.0000 0.0000 0.0000 0.0000 23.0787
#
#
#
# Elastic Compliance Matrix: (Units=1/GPa)
#
#
# Indices 1 2 3 4 5 6 
#
# 1 0.017622 -0.003579 -0.004394 0.000000 0.000000 0.000000
# 2 -0.003579 0.021241 -0.005446 0.000000 0.000000 0.000000
# 3 -0.004394 -0.005446 0.011267 0.000000 0.000000 0.000000
# 4 0.000000 0.000000 0.000000 0.038560 0.000000 0.000000
# 5 0.000000 0.000000 0.000000 0.000000 0.045507 0.000000
# 6 0.000000 0.000000 0.000000 0.000000 0.000000 0.043330
#
#
# Mechanical properties :
#
#
# Convention : Reuss Voigt Hill
#
# Bulk Modulus (GPa) = 42.93004 49.69335 46.31170
# Shear Modulus (GPa) = 23.57054 24.56289 24.06672
#
# Velocity S-wave (km/s) = 3.84826 3.92843 3.88855
# Velocity P-wave (km/s) = 6.83505 7.19712 7.01842
#
# Compressibility (1/GPa) = 0.02329371
#
# Stress axis : x y z
#
# Youngs Moduli (GPa) = 56.74670 47.07838 88.75229
#
# Poissons Ratio (x) = 0.16848 0.39000
# Poissons Ratio (y) = 0.20308 0.48331
# Poissons Ratio (z) = 0.24936 0.25637
#
# Static dielectric constant tensor:
#      x y z
#    x 2.812310 0.000000 0.000000 
#    y 0.000000 3.096490 0.000000 
#    z 0.000000 0.000000 3.375800 
# 
# 
# High freq. dielectric constant tensor:
#      x y z
#    x 1.578710 0.000000 0.000000 
#    y 0.000000 1.617280 0.000000 
#    z 0.000000 0.000000 1.614520 
# 
# From -- ./inp_files/32646.got.cif
#   From: 2010.03.12/outbox.cif.g09.slc.cpg/sg62_17_cif.got.tgz:32646.got - 2010.04.10 19:12:36.
