data_PCOD8251098
_publ_section_title
;
Structure prediction by ZEFSAII (Michael W. Deem and Ramdas Pophale) SiO2 
 PCOD8251098
Probable space group: P N M A
;
_chemical_formula_sum "Si O2"
_cell_formula_units_Z 64
_cell_length_a 30.437295
_cell_length_b 8.842899
_cell_length_c 14.225582
_cell_angle_alpha 90.000000
_cell_angle_beta 90.000000
_cell_angle_gamma 90.000000
_cell_volume 3828.871238
_symmetry_space_group_name_H-M "P N M A"
_symmetry_group_IT_number 62
_symmetry_cell_setting 'orthorhombic'
loop_
_space_group_symop_operation_xyz
x,y,z
1/2-x,-y,1/2+z
1/2+x,1/2-y,1/2-z
-x,1/2+y,-z
-x,-y,-z
1/2+x,y,1/2-z
1/2-x,1/2+y,1/2+z
x,1/2-y,z
loop_
_atom_site_type_symbol
_atom_site_label
_atom_site_fract_x
_atom_site_fract_y
_atom_site_fract_z
Si Si1 0.955078 0.071666 0.889163
Si Si2 0.303730 0.425424 0.820392
Si Si3 0.544863 0.930085 0.605325
Si Si4 0.178646 0.581141 0.033416
Si Si5 0.781599 0.427298 0.271926
Si Si6 0.766146 0.078068 0.483865
Si Si7 0.629346 0.427126 0.305270
Si Si8 0.636027 0.919719 0.663176
O O1 0.953966 0.250000 0.878491
O O2 0.917397 0.004144 0.823096
O O3 0.948127 0.019953 0.996873
O O4 0.001731 0.008841 0.852418
O O5 0.307318 0.250000 0.794692
O O6 0.261398 0.489222 0.765574
O O7 0.300703 0.451179 0.932600
O O8 0.348364 0.509353 0.789476
O O9 0.539993 0.750000 0.611299
O O10 0.586615 0.988725 0.668015
O O11 0.179734 0.750000 0.077032
O O12 0.226395 0.535542 0.996854
O O13 0.145740 0.578214 0.947099
O O14 0.163216 0.462551 0.111022
O O15 0.776727 0.250000 0.246697
O O16 0.787953 0.454646 0.382982
O O17 0.825395 0.500668 0.223161
O O18 0.748507 0.250000 0.488160
O O19 0.622299 0.250000 0.295988
O O20 0.633993 0.750000 0.702328
#
# Coordination Sequence:
#
# PCOD8251098 Si02
#       8
#     8   8   8   8   8   8   8   8
#     4  10  19  32  49  72 100 129 163 204 249 298
#     4  11  22  34  48  71 100 133 169 210 250 292
#     4   9  17  31  48  71 101 132 164 197 240 299
#     4  11  19  30  49  73 100 134 169 205 247 291
#     4  10  19  33  51  72  97 132 170 207 246 292
#     4  10  21  34  48  71 102 132 169 211 249 290
#     4  12  23  34  49  71  98 135 173 208 249 298
#     4   9  17  30  49  72  99 133 169 199 238 293
#
# _framework density 16.715109000000002
#
# number of rings (size 3 to 8) (size 9 to 14) (size 15 to 20)
#    0.000    1.750    3.750    2.250    0.000    1.000 
#    0.000    0.625    0.000    0.000    0.000    0.875 
#    0.000    0.000    0.000    0.000    0.000    0.000 
#
# Total GULP energy -793396.366603 kJ/mol
# GULP energy per Si atom -12396.818228 kJ/mol
# Density = 1.667706 g / cm^3
# Si number density = 16.715109 Si / 1000 Ang^3
#
#
#
# Elastic Constant Matrix: (Units=GPa)
#
#
# Indices 1 2 3 4 5 6 
#
# 1 117.7132 33.9180 22.0992 0.0000 0.0000 0.0000
# 2 33.9180 61.0477 15.7166 0.0000 0.0000 0.0000
# 3 22.0992 15.7166 58.7724 0.0000 0.0000 0.0000
# 4 0.0000 0.0000 0.0000 15.8016 0.0000 0.0000
# 5 0.0000 0.0000 0.0000 0.0000 25.8268 0.0000
# 6 0.0000 0.0000 0.0000 0.0000 0.0000 23.5983
#
#
#
# Elastic Compliance Matrix: (Units=1/GPa)
#
#
# Indices 1 2 3 4 5 6 
#
# 1 0.010460 -0.005154 -0.002555 0.000000 0.000000 0.000000
# 2 -0.005154 0.020131 -0.003445 0.000000 0.000000 0.000000
# 3 -0.002555 -0.003445 0.018897 0.000000 0.000000 0.000000
# 4 0.000000 0.000000 0.000000 0.063285 0.000000 0.000000
# 5 0.000000 0.000000 0.000000 0.000000 0.038720 0.000000
# 6 0.000000 0.000000 0.000000 0.000000 0.000000 0.042376
#
#
# Mechanical properties :
#
#
# Convention : Reuss Voigt Hill
#
# Bulk Modulus (GPa) = 36.79229 42.33344 39.56286
# Shear Modulus (GPa) = 22.19895 24.09864 23.14879
#
# Velocity S-wave (km/s) = 3.64823 3.80113 3.72546
# Velocity P-wave (km/s) = 6.30915 6.68178 6.49813
#
# Compressibility (1/GPa) = 0.02717961
#
# Stress axis : x y z
#
# Youngs Moduli (GPa) = 95.60357 49.67450 52.91890
#
# Poissons Ratio (x) = 0.25601 0.13520
# Poissons Ratio (y) = 0.49271 0.18233
# Poissons Ratio (z) = 0.24425 0.17115
#
# Static dielectric constant tensor:
#      x y z
#    x 3.269710 0.000000 0.000000 
#    y 0.000000 3.111200 0.000000 
#    z 0.000000 0.000000 3.064100 
# 
# 
# High freq. dielectric constant tensor:
#      x y z
#    x 1.641700 0.000000 0.000000 
#    y 0.000000 1.639840 0.000000 
#    z 0.000000 0.000000 1.614700 
# 
# From -- ./inp_files/21232.got.cif
#   From: 2010.03.12/outbox.cif.g09.slc.cpg/sg62_11_cif.got.tgz:21232.got - 2010.04.10 19:12:36.
