data_PCOD8251776
_publ_section_title
;
Structure prediction by ZEFSAII (Michael W. Deem and Ramdas Pophale) SiO2 
 PCOD8251776
Probable space group: P N M A
;
_chemical_formula_sum "Si O2"
_cell_formula_units_Z 64
_cell_length_a 14.709876
_cell_length_b 9.003187
_cell_length_c 24.409328
_cell_angle_alpha 90.000000
_cell_angle_beta 90.000000
_cell_angle_gamma 90.000000
_cell_volume 3232.668012
_symmetry_space_group_name_H-M "P N M A"
_symmetry_group_IT_number 62
_symmetry_cell_setting 'orthorhombic'
loop_
_space_group_symop_operation_xyz
x,y,z
1/2-x,-y,1/2+z
1/2+x,1/2-y,1/2-z
-x,1/2+y,-z
-x,-y,-z
1/2+x,y,1/2-z
1/2-x,1/2+y,1/2+z
x,1/2-y,z
loop_
_atom_site_type_symbol
_atom_site_label
_atom_site_fract_x
_atom_site_fract_y
_atom_site_fract_z
Si Si1 0.632545 0.083135 0.283658
Si Si2 0.354324 0.922856 0.079473
Si Si3 0.550882 0.073744 0.693708
Si Si4 0.863148 0.587334 0.657036
Si Si5 0.766600 0.073644 0.511483
Si Si6 0.826469 0.075484 0.107596
Si Si7 0.551708 0.923684 0.068447
Si Si8 0.176999 0.077319 0.704476
O O1 0.629373 0.250000 0.308717
O O2 0.615133 0.091416 0.219888
O O3 0.552595 0.981971 0.307457
O O4 0.730075 0.012789 0.294120
O O5 0.336458 0.750000 0.068103
O O6 0.450502 0.978051 0.051865
O O7 0.363419 0.952898 0.144197
O O8 0.271094 0.015184 0.051527
O O9 0.551813 0.250000 0.689041
O O10 0.606363 0.022162 0.748450
O O11 0.591101 0.003590 0.638350
O O12 0.878994 0.750000 0.630468
O O13 0.759656 0.538829 0.645776
O O14 0.932750 0.470727 0.631266
O O15 0.753899 0.250000 0.513497
O O16 0.863499 0.012418 0.534322
O O17 0.687069 0.996858 0.547021
O O18 0.846076 0.250000 0.101056
O O19 0.553800 0.750000 0.064753
O O20 0.199061 0.250000 0.713780
#
# Coordination Sequence:
#
# PCOD8251776 Si02
#       8
#     8   8   8   8   8   8   8   8
#     4  11  22  36  55  81 114 150 189 233 284 340
#     4  10  20  35  52  75 109 149 188 229 280 334
#     4  11  22  37  59  86 114 148 189 235 285 338
#     4   9  18  31  49  75 107 142 180 222 271 325
#     4  10  20  33  52  80 109 146 190 233 280 332
#     4  10  19  35  56  79 109 144 183 229 276 327
#     4   9  18  31  50  76 109 145 185 229 275 331
#     4  10  22  38  57  82 115 153 192 233 281 337
#
# _framework density 19.797888
#
# number of rings (size 3 to 8) (size 9 to 14) (size 15 to 20)
#    0.000    2.000    1.250    2.625    0.000    4.500 
#    0.000    0.000    0.000    0.750    0.000    0.000 
#    0.000    0.000    0.000    0.000    0.000    0.000 
#
# Total GULP energy -793204.051051 kJ/mol
# GULP energy per Si atom -12393.813298 kJ/mol
# Density = 1.975283 g / cm^3
# Si number density = 19.797888 Si / 1000 Ang^3
#
#
#
# Elastic Constant Matrix: (Units=GPa)
#
#
# Indices 1 2 3 4 5 6 
#
# 1 65.4687 23.8711 -6.6462 0.0000 0.0000 0.0000
# 2 23.8711 50.1736 8.8153 0.0000 0.0000 0.0000
# 3 -6.6462 8.8153 28.3648 0.0000 0.0000 0.0000
# 4 0.0000 0.0000 0.0000 31.1840 0.0000 0.0000
# 5 0.0000 0.0000 0.0000 0.0000 17.6296 0.0000
# 6 0.0000 0.0000 0.0000 0.0000 0.0000 28.0494
#
#
#
# Elastic Compliance Matrix: (Units=1/GPa)
#
#
# Indices 1 2 3 4 5 6 
#
# 1 0.020109 -0.010995 0.008129 0.000000 0.000000 0.000000
# 2 -0.010995 0.027094 -0.010997 0.000000 0.000000 0.000000
# 3 0.008129 -0.010997 0.040577 0.000000 0.000000 0.000000
# 4 0.000000 0.000000 0.000000 0.032068 0.000000 0.000000
# 5 0.000000 0.000000 0.000000 0.000000 0.056723 0.000000
# 6 0.000000 0.000000 0.000000 0.000000 0.000000 0.035651
#
#
# Mechanical properties :
#
#
# Convention : Reuss Voigt Hill
#
# Bulk Modulus (GPa) = 16.65173 21.78748 19.21961
# Shear Modulus (GPa) = 19.23327 23.23707 21.23517
#
# Velocity S-wave (km/s) = 3.12024 3.42967 3.27861
# Velocity P-wave (km/s) = 4.62713 5.16840 4.90524
#
# Compressibility (1/GPa) = 0.06005381
#
# Stress axis : x y z
#
# Youngs Moduli (GPa) = 49.72951 36.90842 24.64437
#
# Poissons Ratio (x) = 0.40582 -0.20033
# Poissons Ratio (y) = 0.54679 0.27101
# Poissons Ratio (z) = -0.40425 0.40587
#
# Static dielectric constant tensor:
#      x y z
#    x 3.537430 0.000000 0.000000 
#    y 0.000000 3.638200 0.000000 
#    z 0.000000 0.000000 3.623430 
# 
# 
# High freq. dielectric constant tensor:
#      x y z
#    x 1.751690 0.000000 0.000000 
#    y 0.000000 1.774450 0.000000 
#    z 0.000000 0.000000 1.765480 
# 
# From -- ./inp_files/29816.got.cif
#   From: 2010.03.12/outbox.cif.g09.slc.cpg/sg62_15_cif.got.tgz:29816.got - 2010.04.10 19:12:36.
