data_PCOD8251032
_publ_section_title
;
Structure prediction by ZEFSAII (Michael W. Deem and Ramdas Pophale) SiO2 
 PCOD8251032
Probable space group: P N M A
;
_chemical_formula_sum "Si O2"
_cell_formula_units_Z 64
_cell_length_a 33.387102
_cell_length_b 8.908186
_cell_length_c 11.869791
_cell_angle_alpha 90.000000
_cell_angle_beta 90.000000
_cell_angle_gamma 90.000000
_cell_volume 3530.295608
_symmetry_space_group_name_H-M "P N M A"
_symmetry_group_IT_number 62
_symmetry_cell_setting 'orthorhombic'
loop_
_space_group_symop_operation_xyz
x,y,z
1/2-x,-y,1/2+z
1/2+x,1/2-y,1/2-z
-x,1/2+y,-z
-x,-y,-z
1/2+x,y,1/2-z
1/2-x,1/2+y,1/2+z
x,1/2-y,z
loop_
_atom_site_type_symbol
_atom_site_label
_atom_site_fract_x
_atom_site_fract_y
_atom_site_fract_z
Si Si1 0.659721 0.920746 0.056877
Si Si2 0.733483 0.576272 0.204717
Si Si3 0.187761 0.925656 0.874169
Si Si4 0.679255 0.073961 0.387674
Si Si5 0.537855 0.574700 0.137199
Si Si6 0.392817 0.923027 0.764411
Si Si7 0.373368 0.077698 0.181194
Si Si8 0.449009 0.574276 0.097396
O O1 0.646549 0.750000 0.085022
O O2 0.705646 0.945478 0.094351
O O3 0.631263 0.033371 0.123462
O O4 0.655795 0.956481 0.924643
O O5 0.745589 0.750000 0.220410
O O6 0.772170 0.474070 0.189537
O O7 0.710892 0.521076 0.316255
O O8 0.190066 0.750000 0.904096
O O9 0.150401 0.962180 0.793912
O O10 0.181813 0.025074 0.984108
O O11 0.689207 0.250000 0.375351
O O12 0.634219 0.038669 0.344362
O O13 0.543897 0.750000 0.130247
O O14 0.564790 0.511091 0.239948
O O15 0.491408 0.531193 0.155561
O O16 0.555107 0.507724 0.021590
O O17 0.403571 0.750000 0.770501
O O18 0.386946 0.250000 0.179980
O O19 0.413392 0.977659 0.179052
O O20 0.446300 0.750000 0.074953
#
# Coordination Sequence:
#
# PCOD8251032 Si02
#       8
#     8   8   8   8   8   8   8   8
#     4   9  18  33  53  77 107 141 175 215 271 327
#     4  10  21  37  59  84 109 141 180 228 279 327
#     4  11  24  39  57  82 110 145 187 227 275 332
#     4  10  22  40  58  79 110 144 184 232 274 320
#     4  10  19  31  50  79 114 147 175 217 273 323
#     4  10  19  32  54  82 107 138 180 224 268 319
#     4  10  21  36  54  78 111 148 179 221 275 326
#     4  10  20  32  50  79 113 145 182 221 263 325
#
# _framework density 18.128793999999999
#
# number of rings (size 3 to 8) (size 9 to 14) (size 15 to 20)
#    0.000    2.000    1.250    2.250    1.750    4.500 
#    0.000    0.000    0.000    0.750    0.000    0.000 
#    0.000    0.000    0.000    0.000    0.000    0.000 
#
# Total GULP energy -793699.443823 kJ/mol
# GULP energy per Si atom -12401.553810 kJ/mol
# Density = 1.808753 g / cm^3
# Si number density = 18.128794 Si / 1000 Ang^3
#
#
#
# Elastic Constant Matrix: (Units=GPa)
#
#
# Indices 1 2 3 4 5 6 
#
# 1 109.7977 39.6680 30.2126 0.0000 0.0000 0.0000
# 2 39.6680 60.9409 21.7826 0.0000 0.0000 0.0000
# 3 30.2126 21.7826 73.3566 0.0000 0.0000 0.0000
# 4 0.0000 0.0000 0.0000 25.1886 0.0000 0.0000
# 5 0.0000 0.0000 0.0000 0.0000 20.8481 0.0000
# 6 0.0000 0.0000 0.0000 0.0000 0.0000 34.0640
#
#
#
# Elastic Compliance Matrix: (Units=1/GPa)
#
#
# Indices 1 2 3 4 5 6 
#
# 1 0.012491 -0.007039 -0.003054 0.000000 0.000000 0.000000
# 2 -0.007039 0.022325 -0.003730 0.000000 0.000000 0.000000
# 3 -0.003054 -0.003730 0.015998 0.000000 0.000000 0.000000
# 4 0.000000 0.000000 0.000000 0.039701 0.000000 0.000000
# 5 0.000000 0.000000 0.000000 0.000000 0.047966 0.000000
# 6 0.000000 0.000000 0.000000 0.000000 0.000000 0.029356
#
#
# Mechanical properties :
#
#
# Convention : Reuss Voigt Hill
#
# Bulk Modulus (GPa) = 43.16596 47.49128 45.32862
# Shear Modulus (GPa) = 24.60564 26.18228 25.39396
#
# Velocity S-wave (km/s) = 3.68811 3.80443 3.74672
# Velocity P-wave (km/s) = 6.48063 6.74921 6.61628
#
# Compressibility (1/GPa) = 0.02316640
#
# Stress axis : x y z
#
# Youngs Moduli (GPa) = 80.05610 44.79382 62.50932
#
# Poissons Ratio (x) = 0.31531 0.19093
# Poissons Ratio (y) = 0.56352 0.23316
# Poissons Ratio (z) = 0.24453 0.16708
#
# Static dielectric constant tensor:
#      x y z
#    x 3.533280 0.000000 0.000000 
#    y 0.000000 3.415400 0.000000 
#    z 0.000000 0.000000 3.127430 
# 
# 
# High freq. dielectric constant tensor:
#      x y z
#    x 1.708240 0.000000 0.000000 
#    y 0.000000 1.714900 0.000000 
#    z 0.000000 0.000000 1.671900 
# 
# From -- ./inp_files/15784.got.cif
#   From: 2010.03.12/outbox.cif.g09.slc.cpg/sg62_8_cif.got.tgz:15784.got - 2010.04.10 19:12:36.
