data_PCOD8251274
_publ_section_title
;
Structure prediction by ZEFSAII (Michael W. Deem and Ramdas Pophale) SiO2 
 PCOD8251274
Probable space group: P N M A
;
_chemical_formula_sum "Si O2"
_cell_formula_units_Z 64
_cell_length_a 24.376496
_cell_length_b 8.967032
_cell_length_c 15.132241
_cell_angle_alpha 90.000000
_cell_angle_beta 90.000000
_cell_angle_gamma 90.000000
_cell_volume 3307.678170
_symmetry_space_group_name_H-M "P N M A"
_symmetry_group_IT_number 62
_symmetry_cell_setting 'orthorhombic'
loop_
_space_group_symop_operation_xyz
x,y,z
1/2-x,-y,1/2+z
1/2+x,1/2-y,1/2-z
-x,1/2+y,-z
-x,-y,-z
1/2+x,y,1/2-z
1/2-x,1/2+y,1/2+z
x,1/2-y,z
loop_
_atom_site_type_symbol
_atom_site_label
_atom_site_fract_x
_atom_site_fract_y
_atom_site_fract_z
Si Si1 0.959460 0.423366 0.117932
Si Si2 0.962811 0.574895 0.296855
Si Si3 0.680321 0.579053 0.193902
Si Si4 0.687084 0.922285 0.390142
Si Si5 0.071848 0.080003 0.353838
Si Si6 0.776684 0.076860 0.507542
Si Si7 0.920125 0.576436 0.947899
Si Si8 0.384968 0.919448 0.043838
O O1 0.945435 0.250000 0.113058
O O2 0.941065 0.489793 0.211042
O O3 0.024035 0.454075 0.105261
O O4 0.923538 0.506097 0.044768
O O5 0.963654 0.750000 0.278748
O O6 0.920768 0.529920 0.373353
O O7 0.023561 0.524857 0.321558
O O8 0.660248 0.750000 0.183013
O O9 0.709625 0.556138 0.289331
O O10 0.628279 0.471196 0.190531
O O11 0.721831 0.540626 0.113082
O O12 0.679943 0.750000 0.413173
O O13 0.727052 0.990327 0.462848
O O14 0.628018 0.999476 0.393400
O O15 0.060134 0.250000 0.324040
O O16 0.075884 0.066422 0.459216
O O17 0.767464 0.250000 0.489539
O O18 0.833448 0.028441 0.462688
O O19 0.907562 0.750000 0.958270
O O20 0.363280 0.750000 0.053762
#
# Coordination Sequence:
#
# PCOD8251274 Si02
#       8
#     8   8   8   8   8   8   8   8
#     4  10  21  37  57  83 115 147 184 230 279 331
#     4  11  21  33  52  80 114 153 189 223 276 341
#     4   9  20  38  59  83 111 146 186 230 285 339
#     4  11  22  38  61  86 112 147 189 234 282 339
#     4  10  19  32  54  82 112 145 187 236 277 325
#     4  10  21  39  60  83 111 146 189 240 288 334
#     4  10  21  38  59  83 112 146 183 229 280 332
#     4   9  20  37  54  76 110 150 187 229 283 334
#
# _framework density 19.348918999999999
#
# number of rings (size 3 to 8) (size 9 to 14) (size 15 to 20)
#    0.000    2.000    0.000    3.375    0.000    6.500 
#    2.250    0.000    0.000    0.000    0.000    0.000 
#    0.000    0.000    0.000    0.000    0.000    0.000 
#
# Total GULP energy -793789.510151 kJ/mol
# GULP energy per Si atom -12402.961096 kJ/mol
# Density = 1.930488 g / cm^3
# Si number density = 19.348919 Si / 1000 Ang^3
#
#
#
# Elastic Constant Matrix: (Units=GPa)
#
#
# Indices 1 2 3 4 5 6 
#
# 1 45.9356 30.8725 40.6267 0.0000 0.0000 0.0000
# 2 30.8725 96.2690 52.5033 0.0000 0.0000 0.0000
# 3 40.6267 52.5033 128.6054 0.0000 0.0000 0.0000
# 4 0.0000 0.0000 0.0000 32.7500 0.0000 0.0000
# 5 0.0000 0.0000 0.0000 0.0000 22.2390 0.0000
# 6 0.0000 0.0000 0.0000 0.0000 0.0000 36.6640
#
#
#
# Elastic Compliance Matrix: (Units=1/GPa)
#
#
# Indices 1 2 3 4 5 6 
#
# 1 0.032923 -0.006285 -0.007834 0.000000 0.000000 0.000000
# 2 -0.006285 0.014563 -0.003960 0.000000 0.000000 0.000000
# 3 -0.007834 -0.003960 0.011867 0.000000 0.000000 0.000000
# 4 0.000000 0.000000 0.000000 0.030534 0.000000 0.000000
# 5 0.000000 0.000000 0.000000 0.000000 0.044966 0.000000
# 6 0.000000 0.000000 0.000000 0.000000 0.000000 0.027275
#
#
# Mechanical properties :
#
#
# Convention : Reuss Voigt Hill
#
# Bulk Modulus (GPa) = 43.11475 57.64612 50.38043
# Shear Modulus (GPa) = 24.26972 28.11776 26.19374
#
# Velocity S-wave (km/s) = 3.54548 3.81622 3.68334
# Velocity P-wave (km/s) = 6.25234 7.01966 6.64708
#
# Compressibility (1/GPa) = 0.02319392
#
# Stress axis : x y z
#
# Youngs Moduli (GPa) = 30.37405 68.66842 84.26591
#
# Poissons Ratio (x) = 0.43160 0.66018
# Poissons Ratio (y) = 0.19091 0.33367
# Poissons Ratio (z) = 0.23796 0.27191
#
# Static dielectric constant tensor:
#      x y z
#    x 3.275410 0.000000 0.000000 
#    y 0.000000 3.630010 0.000000 
#    z 0.000000 0.000000 3.753920 
# 
# 
# High freq. dielectric constant tensor:
#      x y z
#    x 1.728230 0.000000 0.000000 
#    y 0.000000 1.765790 0.000000 
#    z 0.000000 0.000000 1.767600 
# 
# From -- ./inp_files/20972.got.cif
#   From: 2010.03.12/outbox.cif.g09.slc.cpg/sg62_11_cif.got.tgz:20972.got - 2010.04.10 19:12:36.
