data_PCOD8251814
_publ_section_title
;
Structure prediction by ZEFSAII (Michael W. Deem and Ramdas Pophale) SiO2 
 PCOD8251814
Probable space group: P N M A
;
_chemical_formula_sum "Si O2"
_cell_formula_units_Z 64
_cell_length_a 11.445960
_cell_length_b 8.861565
_cell_length_c 33.297265
_cell_angle_alpha 90.000000
_cell_angle_beta 90.000000
_cell_angle_gamma 90.000000
_cell_volume 3377.312238
_symmetry_space_group_name_H-M "P N M A"
_symmetry_group_IT_number 62
_symmetry_cell_setting 'orthorhombic'
loop_
_space_group_symop_operation_xyz
x,y,z
1/2-x,-y,1/2+z
1/2+x,1/2-y,1/2-z
-x,1/2+y,-z
-x,-y,-z
1/2+x,y,1/2-z
1/2-x,1/2+y,1/2+z
x,1/2-y,z
loop_
_atom_site_type_symbol
_atom_site_label
_atom_site_fract_x
_atom_site_fract_y
_atom_site_fract_z
Si Si1 0.186981 0.427219 0.330652
Si Si2 0.968623 0.427038 0.861356
Si Si3 0.907153 0.073188 0.447659
Si Si4 0.041386 0.077745 0.696824
Si Si5 0.111145 0.428186 0.785795
Si Si6 0.197109 0.427795 0.906053
Si Si7 0.711687 0.076421 0.873949
Si Si8 0.334410 0.926897 0.973517
O O1 0.202608 0.250000 0.335660
O O2 0.267232 0.488649 0.294650
O O3 0.217822 0.504653 0.372627
O O4 0.054041 0.465417 0.320744
O O5 0.951120 0.250000 0.857844
O O6 0.842114 0.495724 0.872175
O O7 0.015119 0.485310 0.818169
O O8 0.062549 0.469226 0.895811
O O9 0.888048 0.250000 0.452750
O O10 0.043076 0.029816 0.452520
O O11 0.866140 0.020304 0.404193
O O12 0.830441 0.989723 0.481364
O O13 0.994627 0.250000 0.696523
O O14 0.070208 0.025124 0.741785
O O15 0.158209 0.063398 0.670474
O O16 0.133330 0.250000 0.789902
O O17 0.216406 0.250000 0.906847
O O18 0.228789 0.497325 0.949055
O O19 0.712750 0.250000 0.888613
O O20 0.313240 0.750000 0.974780
#
# Coordination Sequence:
#
# PCOD8251814 Si02
#       8
#     8   8   8   8   8   8   8   8
#     4  11  22  35  52  77 113 145 178 225 276 331
#     4   8  17  34  55  78 107 141 179 228 277 321
#     4  10  21  36  54  81 114 147 178 219 274 330
#     4  10  21  34  57  83 105 140 186 233 278 329
#     4   9  19  36  58  80 104 138 187 236 277 325
#     4  10  19  35  58  81 107 143 187 228 270 325
#     4  10  20  35  55  81 109 142 182 227 277 328
#     4  10  20  35  58  85 112 141 178 227 278 326
#
# _framework density 18.94998
#
# number of rings (size 3 to 8) (size 9 to 14) (size 15 to 20)
#    0.000    2.250    0.000    3.750    1.750    4.500 
#    0.000    3.750    0.000    0.000    0.000    0.000 
#    0.000    0.000    0.000    0.000    0.000    0.000 
#
# Total GULP energy -793755.978292 kJ/mol
# GULP energy per Si atom -12402.437161 kJ/mol
# Density = 1.890685 g / cm^3
# Si number density = 18.949980 Si / 1000 Ang^3
#
#
#
# Elastic Constant Matrix: (Units=GPa)
#
#
# Indices 1 2 3 4 5 6 
#
# 1 83.6396 22.4877 24.5002 0.0000 0.0000 0.0000
# 2 22.4877 62.7297 23.1291 0.0000 0.0000 0.0000
# 3 24.5002 23.1291 79.7669 0.0000 0.0000 0.0000
# 4 0.0000 0.0000 0.0000 19.9982 0.0000 0.0000
# 5 0.0000 0.0000 0.0000 0.0000 24.5391 0.0000
# 6 0.0000 0.0000 0.0000 0.0000 0.0000 20.9530
#
#
#
# Elastic Compliance Matrix: (Units=1/GPa)
#
#
# Indices 1 2 3 4 5 6 
#
# 1 0.013910 -0.003820 -0.003165 0.000000 0.000000 0.000000
# 2 -0.003820 0.018899 -0.004307 0.000000 0.000000 0.000000
# 3 -0.003165 -0.004307 0.014757 0.000000 0.000000 0.000000
# 4 0.000000 0.000000 0.000000 0.050004 0.000000 0.000000
# 5 0.000000 0.000000 0.000000 0.000000 0.040751 0.000000
# 6 0.000000 0.000000 0.000000 0.000000 0.000000 0.047726
#
#
# Mechanical properties :
#
#
# Convention : Reuss Voigt Hill
#
# Bulk Modulus (GPa) = 40.02606 40.70780 40.36693
# Shear Modulus (GPa) = 23.04596 23.49935 23.27265
#
# Velocity S-wave (km/s) = 3.49111 3.52529 3.50824
# Velocity P-wave (km/s) = 6.11705 6.17240 6.14479
#
# Compressibility (1/GPa) = 0.02498373
#
# Stress axis : x y z
#
# Youngs Moduli (GPa) = 71.89012 52.91403 67.76278
#
# Poissons Ratio (x) = 0.20211 0.21446
# Poissons Ratio (y) = 0.27459 0.29183
# Poissons Ratio (z) = 0.22753 0.22788
#
# Static dielectric constant tensor:
#      x y z
#    x 3.542190 0.000000 0.000000 
#    y 0.000000 3.309780 0.000000 
#    z 0.000000 0.000000 3.511130 
# 
# 
# High freq. dielectric constant tensor:
#      x y z
#    x 1.731320 0.000000 0.000000 
#    y 0.000000 1.723090 0.000000 
#    z 0.000000 0.000000 1.738060 
# 
# From -- ./inp_files/32454.got.cif
#   From: 2010.03.12/outbox.cif.g09.slc.cpg/sg62_17_cif.got.tgz:32454.got - 2010.04.10 19:12:36.
