data_PCOD8251412
_publ_section_title
;
Structure prediction by ZEFSAII (Michael W. Deem and Ramdas Pophale) SiO2 
 PCOD8251412
Probable space group: P N M A
;
_chemical_formula_sum "Si O2"
_cell_formula_units_Z 56
_cell_length_a 17.122298
_cell_length_b 10.474845
_cell_length_c 16.520372
_cell_angle_alpha 90.000000
_cell_angle_beta 90.000000
_cell_angle_gamma 90.000000
_cell_volume 2962.985178
_symmetry_space_group_name_H-M "P N M A"
_symmetry_group_IT_number 62
_symmetry_cell_setting 'orthorhombic'
loop_
_space_group_symop_operation_xyz
x,y,z
1/2-x,-y,1/2+z
1/2+x,1/2-y,1/2-z
-x,1/2+y,-z
-x,-y,-z
1/2+x,y,1/2-z
1/2-x,1/2+y,1/2+z
x,1/2-y,z
loop_
_atom_site_type_symbol
_atom_site_label
_atom_site_fract_x
_atom_site_fract_y
_atom_site_fract_z
Si Si1 0.465333 0.602198 0.796428
Si Si2 0.726877 0.105119 0.942936
Si Si3 0.000081 0.106832 0.113888
Si Si4 0.304409 0.895255 0.872778
Si Si5 0.652478 0.454799 0.643853
Si Si6 0.093049 0.108478 0.684744
Si Si7 0.652274 0.391020 0.470094
O O1 0.484687 0.750000 0.821705
O O2 0.458319 0.589630 0.700514
O O3 0.384533 0.552599 0.834537
O O4 0.531577 0.505100 0.828076
O O5 0.760390 0.250000 0.933575
O O6 0.662259 0.076830 0.876251
O O7 0.793691 0.999680 0.930560
O O8 0.688778 0.088117 0.030980
O O9 0.976283 0.250000 0.095892
O O10 0.063430 0.061812 0.047229
O O11 0.917683 0.039086 0.109398
O O12 0.293382 0.750000 0.846617
O O13 0.230262 0.966736 0.834650
O O14 0.626473 0.381623 0.724037
O O15 0.669605 0.367860 0.565566
O O16 0.057557 0.250000 0.665968
O O17 0.665820 0.250000 0.429603
#
# Coordination Sequence:
#
# PCOD8251412 Si02
#       7
#     8   8   8   8   8   8   8
#     4   9  19  35  54  79 105 134 177 221 262 308
#     4   9  20  37  54  76 106 141 178 215 260 316
#     4   9  18  32  51  78 109 137 173 216 260 310
#     4   9  18  34  56  79 104 137 178 221 262 309
#     4  10  19  33  54  77 108 140 176 210 267 314
#     4  10  21  37  54  76 109 142 175 214 265 319
#     4  10  20  34  53  79 109 138 175 221 260 303
#
# _framework density 18.899857999999998
#
# number of rings (size 3 to 8) (size 9 to 14) (size 15 to 20)
#    0.000    2.571    0.000    1.286    2.000    2.286 
#    0.000    7.143    0.000    0.000    0.000    0.000 
#    0.000    0.000    0.000    0.000    0.000    0.000 
#
# Total GULP energy -693973.248412 kJ/mol
# GULP energy per Si atom -12392.379436 kJ/mol
# Density = 1.885684 g / cm^3
# Si number density = 18.899858 Si / 1000 Ang^3
#
#
#
# Elastic Constant Matrix: (Units=GPa)
#
#
# Indices 1 2 3 4 5 6 
#
# 1 117.0955 72.0023 30.7536 0.0000 0.0000 0.0000
# 2 72.0023 104.3765 17.9318 0.0000 0.0000 0.0000
# 3 30.7536 17.9318 36.2833 0.0000 0.0000 0.0000
# 4 0.0000 0.0000 0.0000 -33.8751 0.0000 0.0000
# 5 0.0000 0.0000 0.0000 0.0000 34.2111 0.0000
# 6 0.0000 0.0000 0.0000 0.0000 0.0000 19.2340
#
#
#
# Elastic Compliance Matrix: (Units=1/GPa)
#
#
# Indices 1 2 3 4 5 6 
#
# 1 0.017468 -0.010388 -0.009672 0.000000 0.000000 0.000000
# 2 -0.010388 0.016648 0.000578 0.000000 0.000000 0.000000
# 3 -0.009672 0.000578 0.035473 0.000000 0.000000 0.000000
# 4 0.000000 0.000000 0.000000 -0.029520 0.000000 0.000000
# 5 0.000000 0.000000 0.000000 0.000000 0.029230 0.000000
# 6 0.000000 0.000000 0.000000 0.000000 0.000000 0.051991
#
#
# Mechanical properties :
#
#
# Convention : Reuss Voigt Hill
#
# Bulk Modulus (GPa) = 32.65427 55.45896 44.05662
# Shear Modulus (GPa) = 29.33181 13.05184 21.19182
#
# Velocity S-wave (km/s) = 3.94377 2.63074 3.35217
# Velocity P-wave (km/s) = 6.16869 6.21571 6.19224
#
# Compressibility (1/GPa) = 0.03062386
#
# Stress axis : x y z
#
# Youngs Moduli (GPa) = 57.24726 60.06818 28.19029
#
# Poissons Ratio (x) = 0.62401 0.27265
# Poissons Ratio (y) = 0.59471 -0.01628
# Poissons Ratio (z) = 0.55368 -0.03470
#
# Static dielectric constant tensor:
#      x y z
#    x 3.425040 0.000000 0.000000 
#    y 0.000000 3.486050 0.000000 
#    z 0.000000 0.000000 3.456980 
# 
# 
# High freq. dielectric constant tensor:
#      x y z
#    x 1.726700 0.000000 0.000000 
#    y 0.000000 1.734800 0.000000 
#    z 0.000000 0.000000 1.734400 
# 
# From -- ./inp_files/27118.got.cif
#   From: 2010.03.12/outbox.cif.g09.slc.cpg/sg62_14_cif.got.tgz:27118.got - 2010.04.10 19:12:36.
