data_PCOD8251344
_publ_section_title
;
Structure prediction by ZEFSAII (Michael W. Deem and Ramdas Pophale) SiO2 
 PCOD8251344
Probable space group: P N M A
;
_chemical_formula_sum "Si O2"
_cell_formula_units_Z 64
_cell_length_a 5.403008
_cell_length_b 21.747571
_cell_length_c 27.163705
_cell_angle_alpha 90.000000
_cell_angle_beta 90.000000
_cell_angle_gamma 90.000000
_cell_volume 3191.797817
_symmetry_space_group_name_H-M "P N M A"
_symmetry_group_IT_number 62
_symmetry_cell_setting 'orthorhombic'
loop_
_space_group_symop_operation_xyz
x,y,z
1/2-x,-y,1/2+z
1/2+x,1/2-y,1/2-z
-x,1/2+y,-z
-x,-y,-z
1/2+x,y,1/2-z
1/2-x,1/2+y,1/2+z
x,1/2-y,z
loop_
_atom_site_type_symbol
_atom_site_label
_atom_site_fract_x
_atom_site_fract_y
_atom_site_fract_z
Si Si1 0.595305 0.818379 0.932124
Si Si2 0.930256 0.476430 0.727089
Si Si3 0.488673 0.112508 0.266113
Si Si4 0.881320 0.598863 0.870309
Si Si5 0.264954 0.107089 0.555567
Si Si6 0.553943 0.010759 0.878512
Si Si7 0.250453 0.568920 0.948232
Si Si8 0.258800 0.179937 0.960116
O O1 0.486065 0.750000 0.925184
O O2 0.370950 0.865470 0.935851
O O3 0.759485 0.835941 0.884690
O O4 0.765799 0.821835 0.980840
O O5 0.186044 0.446242 0.747503
O O6 0.932921 0.548620 0.740168
O O7 0.898369 0.464063 0.668261
O O8 0.754630 0.147856 0.258607
O O9 0.431960 0.107414 0.324718
O O10 0.992111 0.569545 0.919950
O O11 0.683402 0.548151 0.853684
O O12 0.283662 0.063895 0.506805
O O13 0.517586 0.145876 0.561929
O O14 0.019487 0.149446 0.555364
O O15 0.244863 0.062504 0.602608
O O16 0.396048 0.989954 0.926449
O O17 0.258460 0.250000 0.940676
#
# Coordination Sequence:
#
# PCOD8251344 Si02
#       8
#     8   8   8   8   8   8   8   8
#     4   9  20  36  54  78 103 141 201 245 274 322
#     4  10  19  34  52  76 106 150 187 225 271 331
#     4  10  19  33  52  75 100 140 186 223 277 336
#     4  11  20  33  57  77 107 149 185 233 287 340
#     4  11  23  37  55  87 117 153 188 229 279 344
#     4  11  23  33  54  82 122 151 180 231 288 354
#     4  10  21  35  50  80 115 156 182 226 290 342
#     4  10  21  41  60  79 112 154 194 236 273 322
#
# _framework density 20.051396
#
# number of rings (size 3 to 8) (size 9 to 14) (size 15 to 20)
#    0.000    1.750    3.750    2.250    3.500    1.500 
#    0.000    0.000    0.000    0.750    0.000    0.000 
#    0.000   10.000    0.000    0.000    0.000    0.000 
#
# Total GULP energy -793057.029276 kJ/mol
# GULP energy per Si atom -12391.516082 kJ/mol
# Density = 2.000576 g / cm^3
# Si number density = 20.051396 Si / 1000 Ang^3
#
#
#
# Elastic Constant Matrix: (Units=GPa)
#
#
# Indices 1 2 3 4 5 6 
#
# 1 102.2269 3.3123 2.1116 0.0000 0.0000 0.0000
# 2 3.3123 38.7251 16.1507 0.0000 0.0000 0.0000
# 3 2.1116 16.1507 70.2489 0.0000 0.0000 0.0000
# 4 0.0000 0.0000 0.0000 10.8348 0.0000 0.0000
# 5 0.0000 0.0000 0.0000 0.0000 22.1864 0.0000
# 6 0.0000 0.0000 0.0000 0.0000 0.0000 14.8286
#
#
#
# Elastic Compliance Matrix: (Units=1/GPa)
#
#
# Indices 1 2 3 4 5 6 
#
# 1 0.009810 -0.000792 -0.000113 0.000000 0.000000 0.000000
# 2 -0.000792 0.028626 -0.006557 0.000000 0.000000 0.000000
# 3 -0.000113 -0.006557 0.015746 0.000000 0.000000 0.000000
# 4 0.000000 0.000000 0.000000 0.092295 0.000000 0.000000
# 5 0.000000 0.000000 0.000000 0.000000 0.045073 0.000000
# 6 0.000000 0.000000 0.000000 0.000000 0.000000 0.067437
#
#
# Mechanical properties :
#
#
# Convention : Reuss Voigt Hill
#
# Bulk Modulus (GPa) = 25.47293 28.26112 26.86702
# Shear Modulus (GPa) = 17.42177 22.21172 19.81675
#
# Velocity S-wave (km/s) = 2.95083 3.33188 3.14713
# Velocity P-wave (km/s) = 4.93369 5.37837 5.16082
#
# Compressibility (1/GPa) = 0.03925737
#
# Stress axis : x y z
#
# Youngs Moduli (GPa) = 101.93519 34.93370 63.50783
#
# Poissons Ratio (x) = 0.02767 0.00716
# Poissons Ratio (y) = 0.08074 0.41645
# Poissons Ratio (z) = 0.01150 0.22907
#
# Static dielectric constant tensor:
#      x y z
#    x 4.025310 0.000000 0.000000 
#    y 0.000000 3.264500 0.000000 
#    z 0.000000 0.000000 3.504490 
# 
# 
# High freq. dielectric constant tensor:
#      x y z
#    x 1.795850 0.000000 0.000000 
#    y 0.000000 1.725910 0.000000 
#    z 0.000000 0.000000 1.773040 
# 
# From -- ./inp_files/28459.got.cif
#   From: 2010.03.12/outbox.cif.g09.slc.cpg/sg62_15_cif.got.tgz:28459.got - 2010.04.10 19:12:36.
