data_PCOD8251786
_publ_section_title
;
Structure prediction by ZEFSAII (Michael W. Deem and Ramdas Pophale) SiO2 
 PCOD8251786
Probable space group: P N M A
;
_chemical_formula_sum "Si O2"
_cell_formula_units_Z 48
_cell_length_a 27.121235
_cell_length_b 9.172657
_cell_length_c 10.006693
_cell_angle_alpha 90.000000
_cell_angle_beta 90.000000
_cell_angle_gamma 90.000000
_cell_volume 2489.402904
_symmetry_space_group_name_H-M "P N M A"
_symmetry_group_IT_number 62
_symmetry_cell_setting 'orthorhombic'
loop_
_space_group_symop_operation_xyz
x,y,z
1/2-x,-y,1/2+z
1/2+x,1/2-y,1/2-z
-x,1/2+y,-z
-x,-y,-z
1/2+x,y,1/2-z
1/2-x,1/2+y,1/2+z
x,1/2-y,z
loop_
_atom_site_type_symbol
_atom_site_label
_atom_site_fract_x
_atom_site_fract_y
_atom_site_fract_z
Si Si1 0.034801 0.081285 0.730198
Si Si2 0.434092 0.919710 0.749634
Si Si3 0.711333 0.078080 0.612898
Si Si4 0.896429 0.576787 0.032587
Si Si5 0.288044 0.421541 0.116416
Si Si6 0.117223 0.416513 0.518686
O O1 0.022211 0.250000 0.749887
O O2 0.064119 0.020629 0.859211
O O3 0.067093 0.054045 0.598819
O O4 0.984433 0.996656 0.711094
O O5 0.446053 0.750000 0.735293
O O6 0.412198 0.984398 0.612069
O O7 0.393268 0.947609 0.863302
O O8 0.710575 0.250000 0.640415
O O9 0.657501 0.018045 0.571596
O O10 0.748648 0.035510 0.495797
O O11 0.728844 0.997952 0.746994
O O12 0.894218 0.750000 0.030368
O O13 0.289983 0.250000 0.140497
O O14 0.341398 0.475156 0.070374
O O15 0.134860 0.250000 0.542439
#
# Coordination Sequence:
#
# PCOD8251786 Si02
#       6
#     8   8   8   8   8   8
#     4  10  19  35  57  79 111 156 194 233 289 340
#     4  10  21  34  56  86 112 150 196 236 283 341
#     4  10  22  42  63  85 119 155 189 236 292 352
#     4   9  18  36  58  80 111 151 190 226 282 351
#     4  11  24  39  63  93 116 149 195 244 290 339
#     4  10  21  38  59  81 116 160 191 230 292 351
#
# _framework density 19.281731000000001
#
# number of rings (size 3 to 8) (size 9 to 14) (size 15 to 20)
#    0.000    2.000    1.667    1.500    2.333    2.667 
#    0.000    0.833    0.000    0.000    0.000    0.000 
#    0.000    0.000    0.000    0.000    0.000    0.000 
#
# Total GULP energy -595378.745582 kJ/mol
# GULP energy per Si atom -12403.723866 kJ/mol
# Density = 1.923785 g / cm^3
# Si number density = 19.281731 Si / 1000 Ang^3
#
#
#
# Elastic Constant Matrix: (Units=GPa)
#
#
# Indices 1 2 3 4 5 6 
#
# 1 86.6191 38.9242 31.8083 0.0000 0.0000 0.0000
# 2 38.9242 51.3659 37.9376 0.0000 0.0000 0.0000
# 3 31.8083 37.9376 119.1584 0.0000 0.0000 0.0000
# 4 0.0000 0.0000 0.0000 25.9847 0.0000 0.0000
# 5 0.0000 0.0000 0.0000 0.0000 28.8553 0.0000
# 6 0.0000 0.0000 0.0000 0.0000 0.0000 27.1715
#
#
#
# Elastic Compliance Matrix: (Units=1/GPa)
#
#
# Indices 1 2 3 4 5 6 
#
# 1 0.017538 -0.012855 -0.000589 0.000000 0.000000 0.000000
# 2 -0.012855 0.034876 -0.007672 0.000000 0.000000 0.000000
# 3 -0.000589 -0.007672 0.010992 0.000000 0.000000 0.000000
# 4 0.000000 0.000000 0.000000 0.038484 0.000000 0.000000
# 5 0.000000 0.000000 0.000000 0.000000 0.034656 0.000000
# 6 0.000000 0.000000 0.000000 0.000000 0.000000 0.036803
#
#
# Mechanical properties :
#
#
# Convention : Reuss Voigt Hill
#
# Bulk Modulus (GPa) = 47.22832 52.72041 49.97436
# Shear Modulus (GPa) = 22.45795 26.30051 24.37923
#
# Velocity S-wave (km/s) = 3.41651 3.69726 3.55965
# Velocity P-wave (km/s) = 6.33328 6.75484 6.54745
#
# Compressibility (1/GPa) = 0.02117374
#
# Stress axis : x y z
#
# Youngs Moduli (GPa) = 57.02032 28.67317 90.97480
#
# Poissons Ratio (x) = 0.36859 0.05357
# Poissons Ratio (y) = 0.73298 0.69798
# Poissons Ratio (z) = 0.03357 0.21999
#
# Static dielectric constant tensor:
#      x y z
#    x 3.476870 0.000000 0.000000 
#    y 0.000000 3.270130 0.000000 
#    z 0.000000 0.000000 3.831650 
# 
# 
# High freq. dielectric constant tensor:
#      x y z
#    x 1.753070 0.000000 0.000000 
#    y 0.000000 1.724230 0.000000 
#    z 0.000000 0.000000 1.771600 
# 
# From -- ./inp_files/10146.got.cif
#   From: 2010.03.12/outbox.cif.g09.slc.cpg/sg62_6_cif.got.tgz:10146.got - 2010.04.10 19:12:36.
