data_PCOD8251145
_publ_section_title
;
Structure prediction by ZEFSAII (Michael W. Deem and Ramdas Pophale) SiO2 
 PCOD8251145
Probable space group: P N M A
;
_chemical_formula_sum "Si O2"
_cell_formula_units_Z 56
_cell_length_a 14.607718
_cell_length_b 9.310008
_cell_length_c 21.856142
_cell_angle_alpha 90.000000
_cell_angle_beta 90.000000
_cell_angle_gamma 90.000000
_cell_volume 2972.390976
_symmetry_space_group_name_H-M "P N M A"
_symmetry_group_IT_number 62
_symmetry_cell_setting 'orthorhombic'
loop_
_space_group_symop_operation_xyz
x,y,z
1/2-x,-y,1/2+z
1/2+x,1/2-y,1/2-z
-x,1/2+y,-z
-x,-y,-z
1/2+x,y,1/2-z
1/2-x,1/2+y,1/2+z
x,1/2-y,z
loop_
_atom_site_type_symbol
_atom_site_label
_atom_site_fract_x
_atom_site_fract_y
_atom_site_fract_z
Si Si1 0.666515 0.580123 0.781132
Si Si2 0.006511 0.420758 0.064886
Si Si3 0.336725 0.418036 0.356487
Si Si4 0.349220 0.587298 0.038364
Si Si5 0.482192 0.584231 0.147596
Si Si6 0.794556 0.917512 0.890177
Si Si7 0.858288 0.583710 0.598493
O O1 0.649852 0.750000 0.784974
O O2 0.680109 0.523628 0.712173
O O3 0.575259 0.500377 0.802275
O O4 0.754468 0.536361 0.823266
O O5 0.999243 0.250000 0.053335
O O6 0.099653 0.461290 0.101243
O O7 0.925236 0.481000 0.108433
O O8 0.000000 0.500000 0.000000
O O9 0.352093 0.250000 0.351719
O O10 0.247585 0.458878 0.395033
O O11 0.312924 0.750000 0.040888
O O12 0.434967 0.563049 0.082144
O O13 0.263391 0.490387 0.056274
O O14 0.385063 0.548853 0.971084
O O15 0.490715 0.750000 0.166664
O O16 0.582287 0.513891 0.143914
O O17 0.781382 0.750000 0.899411
O O18 0.875126 0.750000 0.615825
#
# Coordination Sequence:
#
# PCOD8251145 Si02
#       7
#     8   8   8   8   8   8   8
#     4   9  18  35  55  75  99 131 171 215 258 303
#     4  10  20  35  54  79 108 138 173 215 260 310
#     4   9  19  34  54  77 101 131 173 219 256 296
#     4   9  18  32  51  75 104 133 164 203 250 303
#     4  10  20  33  50  75 105 136 166 203 251 305
#     4   9  18  31  51  76 101 131 169 210 255 304
#     4  10  19  32  51  75 100 132 170 207 249 297
#
# _framework density 18.840053000000001
#
# number of rings (size 3 to 8) (size 9 to 14) (size 15 to 20)
#    0.000    2.571    0.000    1.714    0.000    4.000 
#    0.000    6.429    0.000    3.429    0.000    0.000 
#    0.000    0.000    0.000    0.000    0.000    0.000 
#
# Total GULP energy -694284.440434 kJ/mol
# GULP energy per Si atom -12397.936436 kJ/mol
# Density = 1.879717 g / cm^3
# Si number density = 18.840053 Si / 1000 Ang^3
#
#
#
# Elastic Constant Matrix: (Units=GPa)
#
#
# Indices 1 2 3 4 5 6 
#
# 1 108.5637 30.3539 33.8979 0.0000 0.0000 0.0000
# 2 30.3539 39.3153 24.9577 0.0000 0.0000 0.0000
# 3 33.8979 24.9577 95.0816 0.0000 0.0000 0.0000
# 4 0.0000 0.0000 0.0000 23.8319 0.0000 0.0000
# 5 0.0000 0.0000 0.0000 0.0000 20.7073 0.0000
# 6 0.0000 0.0000 0.0000 0.0000 0.0000 23.0928
#
#
#
# Elastic Compliance Matrix: (Units=1/GPa)
#
#
# Indices 1 2 3 4 5 6 
#
# 1 0.012132 -0.007945 -0.002240 0.000000 0.000000 0.000000
# 2 -0.007945 0.035724 -0.006545 0.000000 0.000000 0.000000
# 3 -0.002240 -0.006545 0.013034 0.000000 0.000000 0.000000
# 4 0.000000 0.000000 0.000000 0.041961 0.000000 0.000000
# 5 0.000000 0.000000 0.000000 0.000000 0.048292 0.000000
# 6 0.000000 0.000000 0.000000 0.000000 0.000000 0.043303
#
#
# Mechanical properties :
#
#
# Convention : Reuss Voigt Hill
#
# Bulk Modulus (GPa) = 36.45503 46.81995 41.63749
# Shear Modulus (GPa) = 21.09282 23.77648 22.43465
#
# Velocity S-wave (km/s) = 3.34963 3.55634 3.45453
# Velocity P-wave (km/s) = 5.86104 6.46287 6.16930
#
# Compressibility (1/GPa) = 0.02743106
#
# Stress axis : x y z
#
# Youngs Moduli (GPa) = 82.42777 27.99253 76.72430
#
# Poissons Ratio (x) = 0.22239 0.17185
# Poissons Ratio (y) = 0.65486 0.50213
# Poissons Ratio (z) = 0.18462 0.18320
#
# Static dielectric constant tensor:
#      x y z
#    x 3.488520 0.000000 0.000000 
#    y 0.000000 3.274950 0.000000 
#    z 0.000000 0.000000 3.590800 
# 
# 
# High freq. dielectric constant tensor:
#      x y z
#    x 1.736100 0.000000 0.000000 
#    y 0.000000 1.709750 0.000000 
#    z 0.000000 0.000000 1.731100 
# 
# From -- ./inp_files/27085.got.cif
#   From: 2010.03.12/outbox.cif.g09.slc.cpg/sg62_14_cif.got.tgz:27085.got - 2010.04.10 19:12:36.
