data_PCOD8251333
_publ_section_title
;
Structure prediction by ZEFSAII (Michael W. Deem and Ramdas Pophale) SiO2 
 PCOD8251333
Probable space group: P N M A
;
_chemical_formula_sum "Si O2"
_cell_formula_units_Z 56
_cell_length_a 19.041433
_cell_length_b 8.847170
_cell_length_c 19.403361
_cell_angle_alpha 90.000000
_cell_angle_beta 90.000000
_cell_angle_gamma 90.000000
_cell_volume 3268.744422
_symmetry_space_group_name_H-M "P N M A"
_symmetry_group_IT_number 62
_symmetry_cell_setting 'orthorhombic'
loop_
_space_group_symop_operation_xyz
x,y,z
1/2-x,-y,1/2+z
1/2+x,1/2-y,1/2-z
-x,1/2+y,-z
-x,-y,-z
1/2+x,y,1/2-z
1/2-x,1/2+y,1/2+z
x,1/2-y,z
loop_
_atom_site_type_symbol
_atom_site_label
_atom_site_fract_x
_atom_site_fract_y
_atom_site_fract_z
Si Si1 0.852680 0.572521 0.768428
Si Si2 0.769128 0.426982 0.162649
Si Si3 0.133679 0.426598 0.734522
Si Si4 0.253301 0.428567 0.628806
Si Si5 0.478092 0.429246 0.802676
Si Si6 0.555222 0.070268 0.051534
Si Si7 0.289245 0.929445 0.979276
O O1 0.868378 0.750000 0.771767
O O2 0.799617 0.530538 0.706782
O O3 0.819937 0.516540 0.840429
O O4 0.924515 0.481250 0.756689
O O5 0.781635 0.250000 0.163203
O O6 0.838435 0.501391 0.194616
O O7 0.757343 0.488581 0.085007
O O8 0.134634 0.250000 0.746001
O O9 0.182942 0.473378 0.670400
O O10 0.055373 0.483730 0.719744
O O11 0.267143 0.250000 0.632725
O O12 0.244111 0.486906 0.550651
O O13 0.474896 0.250000 0.814174
O O14 0.458582 0.514776 0.871942
O O15 0.550084 0.250000 0.049336
O O16 0.631394 0.011131 0.027739
O O17 0.500000 0.000000 0.000000
O O18 0.291492 0.750000 0.978033
#
# Coordination Sequence:
#
# PCOD8251333 Si02
#       7
#     8   8   8   8   8   8   8
#     4  10  19  33  51  74 103 132 169 215 258 302
#     4   9  17  32  52  73  97 132 172 210 257 308
#     4   9  19  33  49  73 102 132 169 213 253 300
#     4   9  17  32  53  73  98 134 170 204 250 306
#     4  11  21  34  52  75 103 138 176 211 256 310
#     4  11  21  34  50  75 111 143 172 207 254 310
#     4   9  17  32  52  73 102 136 168 208 256 305
#
# _framework density 17.131961
#
# number of rings (size 3 to 8) (size 9 to 14) (size 15 to 20)
#    0.000    2.286    1.429    2.143    0.000    4.000 
#    0.000    5.000    0.000    0.857    0.000    0.000 
#    0.000    0.000    0.000    0.000    0.000    0.000 
#
# Total GULP energy -694443.127436 kJ/mol
# GULP energy per Si atom -12400.770133 kJ/mol
# Density = 1.709297 g / cm^3
# Si number density = 17.131961 Si / 1000 Ang^3
#
#
#
# Elastic Constant Matrix: (Units=GPa)
#
#
# Indices 1 2 3 4 5 6 
#
# 1 67.4046 23.0072 53.2134 0.0000 0.0000 0.0000
# 2 23.0072 38.5182 24.1362 0.0000 0.0000 0.0000
# 3 53.2134 24.1362 137.4214 0.0000 0.0000 0.0000
# 4 0.0000 0.0000 0.0000 27.5463 0.0000 0.0000
# 5 0.0000 0.0000 0.0000 0.0000 29.3196 0.0000
# 6 0.0000 0.0000 0.0000 0.0000 0.0000 25.8931
#
#
#
# Elastic Compliance Matrix: (Units=1/GPa)
#
#
# Indices 1 2 3 4 5 6 
#
# 1 0.024181 -0.009637 -0.007671 0.000000 0.000000 0.000000
# 2 -0.009637 0.033013 -0.002067 0.000000 0.000000 0.000000
# 3 -0.007671 -0.002067 0.010610 0.000000 0.000000 0.000000
# 4 0.000000 0.000000 0.000000 0.036302 0.000000 0.000000
# 5 0.000000 0.000000 0.000000 0.000000 0.034107 0.000000
# 6 0.000000 0.000000 0.000000 0.000000 0.000000 0.038620
#
#
# Mechanical properties :
#
#
# Convention : Reuss Voigt Hill
#
# Bulk Modulus (GPa) = 34.41700 49.33974 41.87837
# Shear Modulus (GPa) = 22.19582 26.08431 24.14007
#
# Velocity S-wave (km/s) = 3.60332 3.90622 3.75783
# Velocity P-wave (km/s) = 6.11922 7.01478 6.58225
#
# Compressibility (1/GPa) = 0.02905541
#
# Stress axis : x y z
#
# Youngs Moduli (GPa) = 41.35473 30.29130 94.24815
#
# Poissons Ratio (x) = 0.29191 0.72298
# Poissons Ratio (y) = 0.39852 0.19478
# Poissons Ratio (z) = 0.31723 0.06260
#
# Static dielectric constant tensor:
#      x y z
#    x 3.289170 0.000000 0.000000 
#    y 0.000000 3.142970 0.000000 
#    z 0.000000 0.000000 3.286920 
# 
# 
# High freq. dielectric constant tensor:
#      x y z
#    x 1.653020 0.000000 0.000000 
#    y 0.000000 1.652780 0.000000 
#    z 0.000000 0.000000 1.658060 
# 
# From -- ./inp_files/27524.got.cif
#   From: 2010.03.12/outbox.cif.g09.slc.cpg/sg62_14_cif.got.tgz:27524.got - 2010.04.10 19:12:36.
