data_PCOD8251769
_publ_section_title
;
Structure prediction by ZEFSAII (Michael W. Deem and Ramdas Pophale) SiO2 
 PCOD8251769
Probable space group: P N M A
;
_chemical_formula_sum "Si O2"
_cell_formula_units_Z 64
_cell_length_a 27.405614
_cell_length_b 8.865988
_cell_length_c 13.139738
_cell_angle_alpha 90.000000
_cell_angle_beta 90.000000
_cell_angle_gamma 90.000000
_cell_volume 3192.665221
_symmetry_space_group_name_H-M "P N M A"
_symmetry_group_IT_number 62
_symmetry_cell_setting 'orthorhombic'
loop_
_space_group_symop_operation_xyz
x,y,z
1/2-x,-y,1/2+z
1/2+x,1/2-y,1/2-z
-x,1/2+y,-z
-x,-y,-z
1/2+x,y,1/2-z
1/2-x,1/2+y,1/2+z
x,1/2-y,z
loop_
_atom_site_type_symbol
_atom_site_label
_atom_site_fract_x
_atom_site_fract_y
_atom_site_fract_z
Si Si1 0.559437 0.572849 0.296025
Si Si2 0.374726 0.074124 0.891993
Si Si3 0.593772 0.430379 0.504315
Si Si4 0.228954 0.582264 0.305475
Si Si5 0.201214 0.081842 0.978120
Si Si6 0.551264 0.427072 0.716369
Si Si7 0.378167 0.571225 0.106341
Si Si8 0.275990 0.074235 0.132925
O O1 0.566301 0.750000 0.314602
O O2 0.595137 0.514845 0.206204
O O3 0.569293 0.490629 0.402242
O O4 0.504766 0.531775 0.261636
O O5 0.384824 0.250000 0.908143
O O6 0.317448 0.039761 0.875122
O O7 0.391858 0.992062 0.994886
O O8 0.592905 0.250000 0.502870
O O9 0.648860 0.497804 0.510808
O O10 0.566546 0.492774 0.605451
O O11 0.219578 0.750000 0.258563
O O12 0.280824 0.585491 0.362779
O O13 0.237420 0.452600 0.223466
O O14 0.195237 0.250000 0.023075
O O15 0.245746 0.005003 0.038512
O O16 0.559944 0.250000 0.712225
O O17 0.583459 0.492089 0.809779
O O18 0.379720 0.750000 0.100055
O O19 0.325246 0.519125 0.144211
O O20 0.289490 0.250000 0.120781
#
# Coordination Sequence:
#
# PCOD8251769 Si02
#       8
#     8   8   8   8   8   8   8   8
#     4  10  21  38  59  84 115 150 189 242 300 347
#     4  10  21  38  59  83 118 156 191 240 296 340
#     4  10  19  35  59  84 112 149 192 237 286 349
#     4  10  19  35  55  77 110 152 188 220 275 344
#     4   9  18  33  53  75 108 148 181 215 272 336
#     4   9  20  38  59  83 113 152 194 238 297 352
#     4  11  22  38  60  83 113 155 200 238 282 350
#     4  11  21  35  54  81 114 146 185 235 284 330
#
# _framework density 20.045947999999999
#
# number of rings (size 3 to 8) (size 9 to 14) (size 15 to 20)
#    0.000    2.000    1.250    2.625    0.000    3.500 
#    0.000    5.000    0.000    0.000    0.000    0.000 
#    0.000    0.000    0.000    0.000    0.000    0.000 
#
# Total GULP energy -793222.617085 kJ/mol
# GULP energy per Si atom -12394.103392 kJ/mol
# Density = 2.000032 g / cm^3
# Si number density = 20.045948 Si / 1000 Ang^3
#
#
#
# Elastic Constant Matrix: (Units=GPa)
#
#
# Indices 1 2 3 4 5 6 
#
# 1 111.2493 20.9457 45.3945 0.0000 0.0000 0.0000
# 2 20.9457 37.3549 32.0046 0.0000 0.0000 0.0000
# 3 45.3945 32.0046 135.7112 0.0000 0.0000 0.0000
# 4 0.0000 0.0000 0.0000 31.0315 0.0000 0.0000
# 5 0.0000 0.0000 0.0000 0.0000 38.7610 0.0000
# 6 0.0000 0.0000 0.0000 0.0000 0.0000 20.3127
#
#
#
# Elastic Compliance Matrix: (Units=1/GPa)
#
#
# Indices 1 2 3 4 5 6 
#
# 1 0.010805 -0.003712 -0.002739 0.000000 0.000000 0.000000
# 2 -0.003712 0.034824 -0.006971 0.000000 0.000000 0.000000
# 3 -0.002739 -0.006971 0.009929 0.000000 0.000000 0.000000
# 4 0.000000 0.000000 0.000000 0.032225 0.000000 0.000000
# 5 0.000000 0.000000 0.000000 0.000000 0.025799 0.000000
# 6 0.000000 0.000000 0.000000 0.000000 0.000000 0.049230
#
#
# Mechanical properties :
#
#
# Convention : Reuss Voigt Hill
#
# Bulk Modulus (GPa) = 34.82581 53.44499 44.13540
# Shear Modulus (GPa) = 25.09687 30.41908 27.75797
#
# Velocity S-wave (km/s) = 3.54215 3.89970 3.72522
# Velocity P-wave (km/s) = 5.84293 6.85536 6.36929
#
# Compressibility (1/GPa) = 0.02871433
#
# Stress axis : x y z
#
# Youngs Moduli (GPa) = 92.54700 28.71574 100.71877
#
# Poissons Ratio (x) = 0.10660 0.27586
# Poissons Ratio (y) = 0.34355 0.70209
# Poissons Ratio (z) = 0.25347 0.20017
#
# Static dielectric constant tensor:
#      x y z
#    x 3.778630 0.000000 0.000000 
#    y 0.000000 3.291280 0.000000 
#    z 0.000000 0.000000 3.766360 
# 
# 
# High freq. dielectric constant tensor:
#      x y z
#    x 1.792600 0.000000 0.000000 
#    y 0.000000 1.744040 0.000000 
#    z 0.000000 0.000000 1.792850 
# 
# From -- ./inp_files/15911.got.cif
#   From: 2010.03.12/outbox.cif.g09.slc.cpg/sg62_8_cif.got.tgz:15911.got - 2010.04.10 19:12:36.
