data_PCOD8251534
_publ_section_title
;
Structure prediction by ZEFSAII (Michael W. Deem and Ramdas Pophale) SiO2 
 PCOD8251534
Probable space group: P N M A
;
_chemical_formula_sum "Si O2"
_cell_formula_units_Z 40
_cell_length_a 7.871871
_cell_length_b 12.919723
_cell_length_c 21.221583
_cell_angle_alpha 90.000000
_cell_angle_beta 90.000000
_cell_angle_gamma 90.000000
_cell_volume 2158.285770
_symmetry_space_group_name_H-M "P N M A"
_symmetry_group_IT_number 62
_symmetry_cell_setting 'orthorhombic'
loop_
_space_group_symop_operation_xyz
x,y,z
1/2-x,-y,1/2+z
1/2+x,1/2-y,1/2-z
-x,1/2+y,-z
-x,-y,-z
1/2+x,y,1/2-z
1/2-x,1/2+y,1/2+z
x,1/2-y,z
loop_
_atom_site_type_symbol
_atom_site_label
_atom_site_fract_x
_atom_site_fract_y
_atom_site_fract_z
Si Si1 0.849727 0.491201 0.586841
Si Si2 0.484290 0.467295 0.571135
Si Si3 0.154871 0.369457 0.537377
Si Si4 0.371766 0.632330 0.669859
Si Si5 0.522376 0.131499 0.193500
O O1 0.671526 0.427290 0.591960
O O2 0.846626 0.568298 0.527564
O O3 0.863553 0.559823 0.649357
O O4 0.002546 0.409640 0.581765
O O5 0.500000 0.500000 0.500000
O O6 0.332931 0.383007 0.575673
O O7 0.439155 0.567423 0.611746
O O8 0.124905 0.250000 0.521994
O O9 0.425928 0.750000 0.656678
O O10 0.455433 0.592855 0.734831
O O11 0.170378 0.621002 0.672522
O O12 0.587577 0.250000 0.188214
#
# Coordination Sequence:
#
# PCOD8251534 Si02
#       5
#     8   8   8   8   8
#     4  10  20  36  57  85 113 150 186 232 289 331
#     4  10  21  36  54  81 115 152 189 230 281 334
#     4  10  21  37  56  81 114 150 194 234 275 336
#     4  10  20  34  55  87 119 149 185 230 288 351
#     4  10  19  33  57  88 120 149 182 230 292 350
#
# _framework density 18.533227
#
# number of rings (size 3 to 8) (size 9 to 14) (size 15 to 20)
#    0.000    2.000    2.000    1.800    0.000    6.400 
#    0.000    0.000    0.000    1.200    0.000    0.000 
#    0.000    0.000    0.000    0.000    0.000    0.000 
#
# Total GULP energy -495897.559468 kJ/mol
# GULP energy per Si atom -12397.438987 kJ/mol
# Density = 1.849104 g / cm^3
# Si number density = 18.533227 Si / 1000 Ang^3
#
#
#
# Elastic Constant Matrix: (Units=GPa)
#
#
# Indices 1 2 3 4 5 6 
#
# 1 128.5646 40.1384 30.8981 0.0000 0.0000 0.0000
# 2 40.1384 67.3580 25.7481 0.0000 0.0000 0.0000
# 3 30.8981 25.7481 98.8591 0.0000 0.0000 0.0000
# 4 0.0000 0.0000 0.0000 30.4926 0.0000 0.0000
# 5 0.0000 0.0000 0.0000 0.0000 30.8241 0.0000
# 6 0.0000 0.0000 0.0000 0.0000 0.0000 17.0023
#
#
#
# Elastic Compliance Matrix: (Units=1/GPa)
#
#
# Indices 1 2 3 4 5 6 
#
# 1 0.009811 -0.005191 -0.001714 0.000000 0.000000 0.000000
# 2 -0.005191 0.019234 -0.003387 0.000000 0.000000 0.000000
# 3 -0.001714 -0.003387 0.011533 0.000000 0.000000 0.000000
# 4 0.000000 0.000000 0.000000 0.032795 0.000000 0.000000
# 5 0.000000 0.000000 0.000000 0.000000 0.032442 0.000000
# 6 0.000000 0.000000 0.000000 0.000000 0.000000 0.058816
#
#
# Mechanical properties :
#
#
# Convention : Reuss Voigt Hill
#
# Bulk Modulus (GPa) = 50.01636 54.26121 52.13879
# Shear Modulus (GPa) = 26.05790 28.86359 27.46074
#
# Velocity S-wave (km/s) = 3.75375 3.95067 3.85347
# Velocity P-wave (km/s) = 6.77004 7.08179 6.92767
#
# Compressibility (1/GPa) = 0.01999346
#
# Stress axis : x y z
#
# Youngs Moduli (GPa) = 101.92821 51.99107 86.70460
#
# Poissons Ratio (x) = 0.26988 0.14864
# Poissons Ratio (y) = 0.52910 0.29368
# Poissons Ratio (z) = 0.17474 0.17610
#
# Static dielectric constant tensor:
#      x y z
#    x 4.069300 0.000000 0.000000 
#    y 0.000000 3.105490 0.000000 
#    z 0.000000 0.000000 3.366710 
# 
# 
# High freq. dielectric constant tensor:
#      x y z
#    x 1.747770 0.000000 0.000000 
#    y 0.000000 1.679400 0.000000 
#    z 0.000000 0.000000 1.713850 
# 
# From -- ./inp_files/21919.got.cif
#   From: 2010.03.12/outbox.cif.g09.slc.cpg/sg62_11_cif.got.tgz:21919.got - 2010.04.10 19:12:36.
