data_PCOD8251361
_publ_section_title
;
Structure prediction by ZEFSAII (Michael W. Deem and Ramdas Pophale) SiO2 
 PCOD8251361
Probable space group: P N M A
;
_chemical_formula_sum "Si O2"
_cell_formula_units_Z 64
_cell_length_a 23.215432
_cell_length_b 8.608461
_cell_length_c 19.039822
_cell_angle_alpha 90.000000
_cell_angle_beta 90.000000
_cell_angle_gamma 90.000000
_cell_volume 3805.092071
_symmetry_space_group_name_H-M "P N M A"
_symmetry_group_IT_number 62
_symmetry_cell_setting 'orthorhombic'
loop_
_space_group_symop_operation_xyz
x,y,z
1/2-x,-y,1/2+z
1/2+x,1/2-y,1/2-z
-x,1/2+y,-z
-x,-y,-z
1/2+x,y,1/2-z
1/2-x,1/2+y,1/2+z
x,1/2-y,z
loop_
_atom_site_type_symbol
_atom_site_label
_atom_site_fract_x
_atom_site_fract_y
_atom_site_fract_z
Si Si1 0.241243 0.569718 0.490687
Si Si2 0.618540 0.431486 0.017645
Si Si3 0.345431 0.568710 0.749427
Si Si4 0.935526 0.432768 0.654009
Si Si5 0.717111 0.932912 0.375748
Si Si6 0.757083 0.569809 0.166754
Si Si7 0.329041 0.932391 0.207074
Si Si8 0.937233 0.565797 0.373057
O O1 0.225493 0.750000 0.498609
O O2 0.184396 0.466973 0.501662
O O3 0.287932 0.517169 0.548773
O O4 0.269493 0.535915 0.414615
O O5 0.611836 0.250000 0.035117
O O6 0.578834 0.482369 0.952273
O O7 0.600343 0.532682 0.083975
O O8 0.345701 0.750000 0.735258
O O9 0.407179 0.515395 0.778906
O O10 0.334801 0.483304 0.675259
O O11 0.297508 0.528314 0.807718
O O12 0.935382 0.250000 0.667008
O O13 0.000114 0.501274 0.646180
O O14 0.714962 0.750000 0.386825
O O15 0.776591 0.992746 0.340885
O O16 0.741481 0.750000 0.180787
O O17 0.814241 0.524554 0.211844
O O18 0.333670 0.750000 0.196367
O O19 0.389631 0.005448 0.181144
O O20 0.938581 0.750000 0.367207
#
# Coordination Sequence:
#
# PCOD8251361 Si02
#       8
#     8   8   8   8   8   8   8   8
#     4  11  20  30  47  75 104 131 162 198 243 297
#     4  11  20  32  47  68  98 135 173 208 242 283
#     4  11  21  33  49  70  97 127 165 206 247 295
#     4  11  21  33  48  68  96 132 171 209 246 290
#     4  10  19  33  53  71  96 128 162 202 248 297
#     4   9  18  31  50  71  98 129 161 199 247 297
#     4   8  14  29  49  69  90 121 160 200 242 286
#     4   9  18  31  49  70  94 128 173 210 242 290
#
# _framework density 16.819568
#
# number of rings (size 3 to 8) (size 9 to 14) (size 15 to 20)
#    0.000    2.000    2.500    3.750    0.000    0.500 
#    0.000    1.875    0.000    0.000    0.000    0.875 
#    0.000    0.000    0.000    0.000    0.000    0.000 
#
# Total GULP energy -793528.911776 kJ/mol
# GULP energy per Si atom -12398.889246 kJ/mol
# Density = 1.678129 g / cm^3
# Si number density = 16.819568 Si / 1000 Ang^3
#
#
#
# Elastic Constant Matrix: (Units=GPa)
#
#
# Indices 1 2 3 4 5 6 
#
# 1 49.3233 10.3233 23.1674 0.0000 0.0000 0.0000
# 2 10.3233 47.3562 24.0373 0.0000 0.0000 0.0000
# 3 23.1674 24.0373 92.4859 0.0000 0.0000 0.0000
# 4 0.0000 0.0000 0.0000 22.2525 0.0000 0.0000
# 5 0.0000 0.0000 0.0000 0.0000 25.9314 0.0000
# 6 0.0000 0.0000 0.0000 0.0000 0.0000 15.1600
#
#
#
# Elastic Compliance Matrix: (Units=1/GPa)
#
#
# Indices 1 2 3 4 5 6 
#
# 1 0.023218 -0.002430 -0.005185 0.000000 0.000000 0.000000
# 2 -0.002430 0.024580 -0.005780 0.000000 0.000000 0.000000
# 3 -0.005185 -0.005780 0.013613 0.000000 0.000000 0.000000
# 4 0.000000 0.000000 0.000000 0.044939 0.000000 0.000000
# 5 0.000000 0.000000 0.000000 0.000000 0.038563 0.000000
# 6 0.000000 0.000000 0.000000 0.000000 0.000000 0.065963
#
#
# Mechanical properties :
#
#
# Convention : Reuss Voigt Hill
#
# Bulk Modulus (GPa) = 28.88228 33.80238 31.34233
# Shear Modulus (GPa) = 20.06371 21.44458 20.75415
#
# Velocity S-wave (km/s) = 3.45756 3.57456 3.51654
# Velocity P-wave (km/s) = 5.75749 6.09732 5.92984
#
# Compressibility (1/GPa) = 0.03462330
#
# Stress axis : x y z
#
# Youngs Moduli (GPa) = 43.06971 40.68354 73.45724
#
# Poissons Ratio (x) = 0.09885 0.38085
# Poissons Ratio (y) = 0.10465 0.42456
# Poissons Ratio (z) = 0.22330 0.23514
#
# Static dielectric constant tensor:
#      x y z
#    x 3.248280 0.000000 0.000000 
#    y 0.000000 2.974370 0.000000 
#    z 0.000000 0.000000 3.301900 
# 
# 
# High freq. dielectric constant tensor:
#      x y z
#    x 1.617530 0.000000 0.000000 
#    y 0.000000 1.639090 0.000000 
#    z 0.000000 0.000000 1.648010 
# 
# From -- ./inp_files/27974.got.cif
#   From: 2010.03.12/outbox.cif.g09.slc.cpg/sg62_14_cif.got.tgz:27974.got - 2010.04.10 19:12:36.
