data_PCOD8251644
_publ_section_title
;
Structure prediction by ZEFSAII (Michael W. Deem and Ramdas Pophale) SiO2 
 PCOD8251644
Probable space group: P N M A
;
_chemical_formula_sum "Si O2"
_cell_formula_units_Z 64
_cell_length_a 12.797142
_cell_length_b 9.007487
_cell_length_c 29.130943
_cell_angle_alpha 90.000000
_cell_angle_beta 90.000000
_cell_angle_gamma 90.000000
_cell_volume 3357.926427
_symmetry_space_group_name_H-M "P N M A"
_symmetry_group_IT_number 62
_symmetry_cell_setting 'orthorhombic'
loop_
_space_group_symop_operation_xyz
x,y,z
1/2-x,-y,1/2+z
1/2+x,1/2-y,1/2-z
-x,1/2+y,-z
-x,-y,-z
1/2+x,y,1/2-z
1/2-x,1/2+y,1/2+z
x,1/2-y,z
loop_
_atom_site_type_symbol
_atom_site_label
_atom_site_fract_x
_atom_site_fract_y
_atom_site_fract_z
Si Si1 0.179898 0.075054 0.929236
Si Si2 0.634383 0.072270 0.123166
Si Si3 0.152910 0.915411 0.684065
Si Si4 0.273353 0.926466 0.532737
Si Si5 0.077432 0.915269 0.583093
Si Si6 0.639897 0.918190 0.306986
Si Si7 0.453839 0.419833 0.791188
Si Si8 0.053473 0.922186 0.094932
O O1 0.195220 0.250000 0.921750
O O2 0.062720 0.023655 0.917814
O O3 0.257263 0.988584 0.895576
O O4 0.204840 0.025338 0.980897
O O5 0.633155 0.250000 0.123763
O O6 0.536413 0.009343 0.091991
O O7 0.619524 0.017346 0.175411
O O8 0.133042 0.750000 0.703512
O O9 0.143472 0.915507 0.629548
O O10 0.267547 0.965901 0.697150
O O11 0.073040 0.029744 0.706350
O O12 0.274316 0.750000 0.538999
O O13 0.157240 0.991039 0.546429
O O14 0.363013 0.989906 0.565054
O O15 0.053683 0.750000 0.565686
O O16 0.683392 0.750000 0.310514
O O17 0.572757 0.941553 0.261732
O O18 0.568990 0.954129 0.351202
O O19 0.442974 0.250000 0.806956
O O20 0.066874 0.750000 0.082777
#
# Coordination Sequence:
#
# PCOD8251644 Si02
#       8
#     8   8   8   8   8   8   8   8
#     4  10  22  37  55  81 118 157 190 231 286 345
#     4  10  21  38  57  80 112 148 190 239 291 343
#     4  10  19  34  56  81 111 143 181 234 284 330
#     4  10  19  35  58  83 111 150 193 233 286 341
#     4   8  16  32  54  79 108 140 179 232 280 323
#     4  10  21  36  56  81 109 145 187 230 281 340
#     4  10  21  37  57  81 111 148 189 233 289 349
#     4  10  21  37  55  81 114 146 189 239 283 335
#
# _framework density 19.059380999999998
#
# number of rings (size 3 to 8) (size 9 to 14) (size 15 to 20)
#    0.000    2.250    1.250    2.250    0.000    3.500 
#    0.000    3.125    0.000    0.000    0.000    0.000 
#    0.000    0.000    0.000    0.000    0.000    0.000 
#
# Total GULP energy -793391.681807 kJ/mol
# GULP energy per Si atom -12396.745028 kJ/mol
# Density = 1.901600 g / cm^3
# Si number density = 19.059381 Si / 1000 Ang^3
#
#
#
# Elastic Constant Matrix: (Units=GPa)
#
#
# Indices 1 2 3 4 5 6 
#
# 1 56.9164 15.1915 15.5721 0.0000 0.0000 0.0000
# 2 15.1915 46.9671 25.0015 0.0000 0.0000 0.0000
# 3 15.5721 25.0015 82.1201 0.0000 0.0000 0.0000
# 4 0.0000 0.0000 0.0000 23.8186 0.0000 0.0000
# 5 0.0000 0.0000 0.0000 0.0000 22.2327 0.0000
# 6 0.0000 0.0000 0.0000 0.0000 0.0000 28.7947
#
#
#
# Elastic Compliance Matrix: (Units=1/GPa)
#
#
# Indices 1 2 3 4 5 6 
#
# 1 0.019536 -0.005188 -0.002125 0.000000 0.000000 0.000000
# 2 -0.005188 0.026787 -0.007172 0.000000 0.000000 0.000000
# 3 -0.002125 -0.007172 0.014764 0.000000 0.000000 0.000000
# 4 0.000000 0.000000 0.000000 0.041984 0.000000 0.000000
# 5 0.000000 0.000000 0.000000 0.000000 0.044979 0.000000
# 6 0.000000 0.000000 0.000000 0.000000 0.000000 0.034729
#
#
# Mechanical properties :
#
#
# Convention : Reuss Voigt Hill
#
# Bulk Modulus (GPa) = 31.13545 33.05931 32.09738
# Shear Modulus (GPa) = 22.47674 23.65177 23.06426
#
# Velocity S-wave (km/s) = 3.43782 3.52654 3.48246
# Velocity P-wave (km/s) = 5.66830 5.82795 5.74868
#
# Compressibility (1/GPa) = 0.03211773
#
# Stress axis : x y z
#
# Youngs Moduli (GPa) = 51.18848 37.33154 67.73382
#
# Poissons Ratio (x) = 0.19366 0.14394
# Poissons Ratio (y) = 0.26554 0.48576
# Poissons Ratio (z) = 0.10878 0.26773
#
# Static dielectric constant tensor:
#      x y z
#    x 3.551130 0.000000 0.000000 
#    y 0.000000 3.436570 0.000000 
#    z 0.000000 0.000000 3.515380 
# 
# 
# High freq. dielectric constant tensor:
#      x y z
#    x 1.747790 0.000000 0.000000 
#    y 0.000000 1.728710 0.000000 
#    z 0.000000 0.000000 1.738930 
# 
# From -- ./inp_files/32551.got.cif
#   From: 2010.03.12/outbox.cif.g09.slc.cpg/sg62_17_cif.got.tgz:32551.got - 2010.04.10 19:12:36.
