data_PCOD8251725
_publ_section_title
;
Structure prediction by ZEFSAII (Michael W. Deem and Ramdas Pophale) SiO2 
 PCOD8251725
Probable space group: P N M A
;
_chemical_formula_sum "Si O2"
_cell_formula_units_Z 56
_cell_length_a 15.202117
_cell_length_b 8.782183
_cell_length_c 21.505503
_cell_angle_alpha 90.000000
_cell_angle_beta 90.000000
_cell_angle_gamma 90.000000
_cell_volume 2871.151823
_symmetry_space_group_name_H-M "P N M A"
_symmetry_group_IT_number 62
_symmetry_cell_setting 'orthorhombic'
loop_
_space_group_symop_operation_xyz
x,y,z
1/2-x,-y,1/2+z
1/2+x,1/2-y,1/2-z
-x,1/2+y,-z
-x,-y,-z
1/2+x,y,1/2-z
1/2-x,1/2+y,1/2+z
x,1/2-y,z
loop_
_atom_site_type_symbol
_atom_site_label
_atom_site_fract_x
_atom_site_fract_y
_atom_site_fract_z
Si Si1 0.623987 0.074831 0.531945
Si Si2 0.406342 0.570294 0.720137
Si Si3 0.466159 0.929490 0.590852
Si Si4 0.443701 0.430505 0.191865
Si Si5 0.721793 0.569860 0.728674
Si Si6 0.974511 0.930203 0.566324
Si Si7 0.209192 0.926276 0.395229
O O1 0.595945 0.250000 0.538592
O O2 0.600142 0.014018 0.463142
O O3 0.727345 0.052997 0.544899
O O4 0.566167 0.980617 0.580826
O O5 0.418491 0.750000 0.718269
O O6 0.433600 0.495702 0.654833
O O7 0.468918 0.505343 0.774422
O O8 0.306543 0.525283 0.731545
O O9 0.464055 0.750000 0.596444
O O10 0.438544 0.250000 0.194875
O O11 0.359250 0.494541 0.229660
O O12 0.452776 0.478886 0.118895
O O13 0.713070 0.750000 0.716561
O O14 0.733415 0.487899 0.662559
O O15 0.972264 0.750000 0.558598
O O16 0.879013 0.981447 0.590636
O O17 0.000000 0.000000 0.500000
O O18 0.185242 0.750000 0.384389
#
# Coordination Sequence:
#
# PCOD8251725 Si02
#       7
#     8   8   8   8   8   8   8
#     4   9  19  33  50  77 112 144 179 226 279 338
#     4   9  16  29  51  80 105 130 175 228 274 327
#     4   9  17  31  53  78 106 141 183 229 277 333
#     4   9  18  33  56  85 111 141 187 242 291 343
#     4  10  19  34  59  83 107 143 189 240 290 340
#     4  11  23  41  62  85 116 154 200 249 298 356
#     4  11  22  37  56  82 117 156 194 233 289 354
#
# _framework density 19.504366999999998
#
# number of rings (size 3 to 8) (size 9 to 14) (size 15 to 20)
#    0.000    2.286    1.429    1.714    0.000    3.429 
#    0.000    6.429    0.000    0.000    0.000    0.000 
#    0.000    0.000    0.000    0.000    0.000    0.000 
#
# Total GULP energy -694034.353053 kJ/mol
# GULP energy per Si atom -12393.470590 kJ/mol
# Density = 1.945997 g / cm^3
# Si number density = 19.504367 Si / 1000 Ang^3
#
#
#
# Elastic Constant Matrix: (Units=GPa)
#
#
# Indices 1 2 3 4 5 6 
#
# 1 116.5343 23.1385 64.3523 0.0000 0.0000 0.0000
# 2 23.1385 41.1675 31.7598 0.0000 0.0000 0.0000
# 3 64.3523 31.7598 144.9262 0.0000 0.0000 0.0000
# 4 0.0000 0.0000 0.0000 25.9525 0.0000 0.0000
# 5 0.0000 0.0000 0.0000 0.0000 34.9517 0.0000
# 6 0.0000 0.0000 0.0000 0.0000 0.0000 21.6537
#
#
#
# Elastic Compliance Matrix: (Units=1/GPa)
#
#
# Indices 1 2 3 4 5 6 
#
# 1 0.011686 -0.003087 -0.004513 0.000000 0.000000 0.000000
# 2 -0.003087 0.030049 -0.005214 0.000000 0.000000 0.000000
# 3 -0.004513 -0.005214 0.010046 0.000000 0.000000 0.000000
# 4 0.000000 0.000000 0.000000 0.038532 0.000000 0.000000
# 5 0.000000 0.000000 0.000000 0.000000 0.028611 0.000000
# 6 0.000000 0.000000 0.000000 0.000000 0.000000 0.046181
#
#
# Mechanical properties :
#
#
# Convention : Reuss Voigt Hill
#
# Bulk Modulus (GPa) = 38.23545 60.12548 49.18046
# Shear Modulus (GPa) = 25.06883 28.73675 26.90279
#
# Velocity S-wave (km/s) = 3.58899 3.84259 3.71795
# Velocity P-wave (km/s) = 6.06799 7.11203 6.61065
#
# Compressibility (1/GPa) = 0.02615374
#
# Stress axis : x y z
#
# Youngs Moduli (GPa) = 85.57268 33.27920 99.53749
#
# Poissons Ratio (x) = 0.10273 0.44916
# Poissons Ratio (y) = 0.26415 0.51902
# Poissons Ratio (z) = 0.38615 0.17353
#
# Static dielectric constant tensor:
#      x y z
#    x 3.658370 0.000000 0.000000 
#    y 0.000000 3.246510 0.000000 
#    z 0.000000 0.000000 4.048520 
# 
# 
# High freq. dielectric constant tensor:
#      x y z
#    x 1.762100 0.000000 0.000000 
#    y 0.000000 1.723500 0.000000 
#    z 0.000000 0.000000 1.773000 
# 
# From -- ./inp_files/27166.got.cif
#   From: 2010.03.12/outbox.cif.g09.slc.cpg/sg62_14_cif.got.tgz:27166.got - 2010.04.10 19:12:36.
