data_PCOD8252487
_publ_section_title
;
Structure prediction by ZEFSAII (Michael W. Deem and Ramdas Pophale) SiO2 
 PCOD8252487
Probable space group: P N M A
;
_chemical_formula_sum "Si O2"
_cell_formula_units_Z 56
_cell_length_a 9.331795
_cell_length_b 18.858255
_cell_length_c 14.680367
_cell_angle_alpha 90.000000
_cell_angle_beta 90.000000
_cell_angle_gamma 90.000000
_cell_volume 2583.471093
_symmetry_space_group_name_H-M "P N M A"
_symmetry_group_IT_number 62
_symmetry_cell_setting 'orthorhombic'
loop_
_space_group_symop_operation_xyz
x,y,z
1/2-x,-y,1/2+z
1/2+x,1/2-y,1/2-z
-x,1/2+y,-z
-x,-y,-z
1/2+x,y,1/2-z
1/2-x,1/2+y,1/2+z
x,1/2-y,z
loop_
_atom_site_type_symbol
_atom_site_label
_atom_site_fract_x
_atom_site_fract_y
_atom_site_fract_z
Si Si1 0.766840 0.931927 0.933438
Si Si2 0.223338 0.514293 0.373517
Si Si3 0.029785 0.065877 0.750360
Si Si4 0.780037 0.094955 0.869050
Si Si5 0.518718 0.171852 0.353670
Si Si6 0.540525 0.672071 0.848300
Si Si7 0.233345 0.142085 0.440084
O O1 0.650006 0.888756 0.876421
O O2 0.914380 0.889418 0.917090
O O3 0.779319 0.011063 0.893837
O O4 0.733146 0.930437 0.041642
O O5 0.077533 0.523663 0.316312
O O6 0.367184 0.516230 0.312286
O O7 0.209367 0.439113 0.417907
O O8 0.926779 0.113026 0.814935
O O9 0.139138 0.113497 0.691069
O O10 0.777249 0.147452 0.954259
O O11 0.587909 0.250000 0.370279
O O12 0.531850 0.150166 0.247741
O O13 0.351907 0.178173 0.377912
O O14 0.615232 0.750000 0.839558
O O15 0.416631 0.680685 0.923446
#
# Coordination Sequence:
#
# PCOD8252487 Si02
#       7
#     8   8   8   8   8   8   8
#     4  11  22  37  57  82 119 146 193 240 273 344
#     4  10  22  35  56  89 111 151 187 229 301 335
#     4  10  20  34  54  82 118 140 182 222 290 354
#     4  10  22  35  56  89 111 151 187 229 301 335
#     4  11  24  38  57  85 116 158 197 223 270 340
#     4  11  24  38  57  85 116 158 197 223 270 340
#     4  11  22  37  57  82 119 146 193 240 273 344
#
# _framework density 21.676262999999999
#
# number of rings (size 3 to 8) (size 9 to 14) (size 15 to 20)
#    0.000    1.429    0.000    5.143   12.000    6.857 
#    0.000    0.000    0.000    0.000    0.000   70.000 
#    0.000    0.000    0.000    0.000    0.000    0.000 
#
# Total GULP energy -694175.089220 kJ/mol
# GULP energy per Si atom -12395.983736 kJ/mol
# Density = 2.162693 g / cm^3
# Si number density = 21.676263 Si / 1000 Ang^3
#
#
#
# Elastic Constant Matrix: (Units=GPa)
#
#
# Indices 1 2 3 4 5 6 
#
# 1 112.5160 4.0024 19.6225 0.0000 0.0000 0.0000
# 2 4.0024 58.2032 24.7830 0.0000 0.0000 0.0000
# 3 19.6225 24.7830 109.0677 0.0000 0.0000 0.0000
# 4 0.0000 0.0000 0.0000 3.2286 0.0000 0.0000
# 5 0.0000 0.0000 0.0000 0.0000 38.0080 0.0000
# 6 0.0000 0.0000 0.0000 0.0000 0.0000 -23.5046
#
#
#
# Elastic Compliance Matrix: (Units=1/GPa)
#
#
# Indices 1 2 3 4 5 6 
#
# 1 0.009176 0.000080 -0.001669 0.000000 0.000000 0.000000
# 2 0.000080 0.019022 -0.004337 0.000000 0.000000 0.000000
# 3 -0.001669 -0.004337 0.010454 0.000000 0.000000 0.000000
# 4 0.000000 0.000000 0.000000 0.309732 0.000000 0.000000
# 5 0.000000 0.000000 0.000000 0.000000 0.026310 0.000000
# 6 0.000000 0.000000 0.000000 0.000000 0.000000 -0.042545
#
#
# Mechanical properties :
#
#
# Convention : Reuss Voigt Hill
#
# Bulk Modulus (GPa) = 37.31279 41.84475 39.57877
# Shear Modulus (GPa) = 14.16691 18.97166 16.56928
#
# Velocity S-wave (km/s) = 2.55927 2.96163 2.76777
# Velocity P-wave (km/s) = 5.09747 5.57148 5.33973
#
# Compressibility (1/GPa) = 0.02680046
#
# Stress axis : x y z
#
# Youngs Moduli (GPa) = 108.98167 52.56996 95.65453
#
# Poissons Ratio (x) = -0.00419 0.15964
# Poissons Ratio (y) = -0.00868 0.41482
# Poissons Ratio (z) = 0.18188 0.22798
#
# Static dielectric constant tensor:
#      x y z
#    x 4.092060 0.000000 0.000000 
#    y 0.000000 3.420510 0.000000 
#    z 0.000000 0.000000 4.332860 
# 
# 
# High freq. dielectric constant tensor:
#      x y z
#    x 1.866540 0.000000 0.000000 
#    y 0.000000 1.810370 0.000000 
#    z 0.000000 0.000000 1.863220 
# 
# From -- ./inp_files/17189.got.cif
#   From: 2010.03.12/outbox.cif.g09.slc.cpg/sg62_9_cif.got.tgz:17189.got - 2010.04.10 19:12:36.
