data_PCOD8252283
_publ_section_title
;
Structure prediction by ZEFSAII (Michael W. Deem and Ramdas Pophale) SiO2 
 PCOD8252283
Probable space group: P N M A
;
_chemical_formula_sum "Si O2"
_cell_formula_units_Z 64
_cell_length_a 28.058726
_cell_length_b 9.362933
_cell_length_c 14.082762
_cell_angle_alpha 90.000000
_cell_angle_beta 90.000000
_cell_angle_gamma 90.000000
_cell_volume 3699.710171
_symmetry_space_group_name_H-M "P N M A"
_symmetry_group_IT_number 62
_symmetry_cell_setting 'orthorhombic'
loop_
_space_group_symop_operation_xyz
x,y,z
1/2-x,-y,1/2+z
1/2+x,1/2-y,1/2-z
-x,1/2+y,-z
-x,-y,-z
1/2+x,y,1/2-z
1/2-x,1/2+y,1/2+z
x,1/2-y,z
loop_
_atom_site_type_symbol
_atom_site_label
_atom_site_fract_x
_atom_site_fract_y
_atom_site_fract_z
Si Si1 0.500266 0.416232 0.903073
Si Si2 0.752278 0.415267 0.393874
Si Si3 0.573747 0.419783 0.749982
Si Si4 0.819700 0.583264 0.266240
Si Si5 0.578229 0.586398 0.250503
Si Si6 0.998733 0.584201 0.096623
Si Si7 0.756971 0.415290 0.611119
Si Si8 0.825377 0.917968 0.740191
O O1 0.505224 0.250000 0.926115
O O2 0.545794 0.472104 0.843521
O O3 0.452226 0.445971 0.843887
O O4 0.500000 0.500000 0.000000
O O5 0.765178 0.250000 0.381468
O O6 0.796872 0.504767 0.355998
O O7 0.744371 0.456390 0.503343
O O8 0.704682 0.453617 0.335172
O O9 0.572269 0.250000 0.747758
O O10 0.627392 0.479013 0.750856
O O11 0.546512 0.474672 0.656169
O O12 0.820982 0.750000 0.290245
O O13 0.790369 0.550683 0.170920
O O14 0.596196 0.750000 0.249274
O O15 0.546682 0.557711 0.343632
O O16 0.622379 0.480088 0.254427
O O17 0.992565 0.750000 0.072976
O O18 0.000000 0.500000 0.000000
O O19 0.771857 0.250000 0.620842
O O20 0.800701 0.510026 0.648734
O O21 0.828866 0.750000 0.721411
#
# Coordination Sequence:
#
# PCOD8252283 Si02
#       8
#     8   8   8   8   8   8   8   8
#     4   9  18  33  51  71  97 128 161 198 239 285
#     4   9  19  34  49  70 100 128 157 198 246 290
#     4   8  16  32  51  70  95 126 159 195 236 284
#     4   9  17  31  52  73  92 123 164 197 231 283
#     4   9  19  35  51  70 101 137 165 193 242 300
#     4   9  18  33  52  73  99 130 162 198 239 285
#     4   9  18  33  51  70  97 131 160 191 242 301
#     4  10  20  33  51  75  99 125 164 210 244 278
#
# _framework density 17.298652000000001
#
# number of rings (size 3 to 8) (size 9 to 14) (size 15 to 20)
#    0.000    3.000    0.000    1.875    0.000    4.000 
#    0.000    8.125    0.000    3.000    0.000    0.000 
#    0.000    0.000    0.000    0.000    0.000    0.000 
#
# Total GULP energy -793561.696200 kJ/mol
# GULP energy per Si atom -12399.401503 kJ/mol
# Density = 1.725928 g / cm^3
# Si number density = 17.298652 Si / 1000 Ang^3
#
#
#
# Elastic Constant Matrix: (Units=GPa)
#
#
# Indices 1 2 3 4 5 6 
#
# 1 134.5533 54.5464 61.2140 0.0000 0.0000 0.0000
# 2 54.5464 63.3820 56.3649 0.0000 0.0000 0.0000
# 3 61.2140 56.3649 149.0853 0.0000 0.0000 0.0000
# 4 0.0000 0.0000 0.0000 33.0566 0.0000 0.0000
# 5 0.0000 0.0000 0.0000 0.0000 13.3572 0.0000
# 6 0.0000 0.0000 0.0000 0.0000 0.0000 24.6182
#
#
#
# Elastic Compliance Matrix: (Units=1/GPa)
#
#
# Indices 1 2 3 4 5 6 
#
# 1 0.011631 -0.008681 -0.001493 0.000000 0.000000 0.000000
# 2 -0.008681 0.030249 -0.007872 0.000000 0.000000 0.000000
# 3 -0.001493 -0.007872 0.010297 0.000000 0.000000 0.000000
# 4 0.000000 0.000000 0.000000 0.030251 0.000000 0.000000
# 5 0.000000 0.000000 0.000000 0.000000 0.074866 0.000000
# 6 0.000000 0.000000 0.000000 0.000000 0.000000 0.040620
#
#
# Mechanical properties :
#
#
# Convention : Reuss Voigt Hill
#
# Bulk Modulus (GPa) = 62.17561 76.80791 69.49176
# Shear Modulus (GPa) = 20.88840 25.86609 23.37725
#
# Velocity S-wave (km/s) = 3.47870 3.87106 3.68012
# Velocity P-wave (km/s) = 7.22189 8.02980 7.63653
#
# Compressibility (1/GPa) = 0.01608348
#
# Stress axis : x y z
#
# Youngs Moduli (GPa) = 85.97939 33.05938 97.11771
#
# Poissons Ratio (x) = 0.28700 0.14503
# Poissons Ratio (y) = 0.74641 0.76447
# Poissons Ratio (z) = 0.12840 0.26023
#
# Static dielectric constant tensor:
#      x y z
#    x 3.354210 0.000000 0.000000 
#    y 0.000000 3.066860 0.000000 
#    z 0.000000 0.000000 3.217400 
# 
# 
# High freq. dielectric constant tensor:
#      x y z
#    x 1.670670 0.000000 0.000000 
#    y 0.000000 1.654090 0.000000 
#    z 0.000000 0.000000 1.670820 
# 
# From -- ./inp_files/21261.got.cif
#   From: 2010.03.12/outbox.cif.g09.slc.cpg/sg62_11_cif.got.tgz:21261.got - 2010.04.10 19:12:36.
