data_PCOD8252494
_publ_section_title
;
Structure prediction by ZEFSAII (Michael W. Deem and Ramdas Pophale) SiO2 
 PCOD8252494
Probable space group: P N M A
;
_chemical_formula_sum "Si O2"
_cell_formula_units_Z 56
_cell_length_a 21.679249
_cell_length_b 8.841846
_cell_length_c 14.466680
_cell_angle_alpha 90.000000
_cell_angle_beta 90.000000
_cell_angle_gamma 90.000000
_cell_volume 2773.039495
_symmetry_space_group_name_H-M "P N M A"
_symmetry_group_IT_number 62
_symmetry_cell_setting 'orthorhombic'
loop_
_space_group_symop_operation_xyz
x,y,z
1/2-x,-y,1/2+z
1/2+x,1/2-y,1/2-z
-x,1/2+y,-z
-x,-y,-z
1/2+x,y,1/2-z
1/2-x,1/2+y,1/2+z
x,1/2-y,z
loop_
_atom_site_type_symbol
_atom_site_label
_atom_site_fract_x
_atom_site_fract_y
_atom_site_fract_z
Si Si1 0.786257 0.425808 0.402226
Si Si2 0.499642 0.927841 0.100018
Si Si3 0.617603 0.928733 0.217764
Si Si4 0.641802 0.426169 0.402871
Si Si5 0.884468 0.571142 0.278522
Si Si6 0.285752 0.925917 0.908482
Si Si7 0.358332 0.074127 0.407199
O O1 0.802673 0.250000 0.395046
O O2 0.714226 0.457653 0.390883
O O3 0.820220 0.514110 0.320684
O O4 0.809726 0.487258 0.500748
O O5 0.497988 0.750000 0.087319
O O6 0.559946 0.979330 0.155796
O O7 0.439914 0.983904 0.156013
O O8 0.500000 0.000000 0.000000
O O9 0.627133 0.750000 0.218305
O O10 0.605894 0.987352 0.321527
O O11 0.678808 0.009231 0.179689
O O12 0.626018 0.250000 0.399033
O O13 0.618426 0.492813 0.499898
O O14 0.882746 0.750000 0.266909
O O15 0.895027 0.497541 0.178293
O O16 0.300606 0.750000 0.921140
O O17 0.213972 0.955461 0.891551
O O18 0.373801 0.250000 0.414953
#
# Coordination Sequence:
#
# PCOD8252494 Si02
#       7
#     8   8   8   8   8   8   8
#     4  10  20  34  54  83 116 147 182 225 275 330
#     4  10  24  42  59  82 111 144 183 228 272 320
#     4  11  22  37  57  81 111 147 187 229 275 326
#     4  10  21  37  57  83 114 146 182 226 275 328
#     4  11  22  37  57  81 111 147 187 229 275 326
#     4  10  20  34  54  83 116 147 182 225 275 330
#     4  10  21  37  57  83 114 146 182 226 275 328
#
# _framework density 20.194447
#
# number of rings (size 3 to 8) (size 9 to 14) (size 15 to 20)
#    0.000    1.714    0.000    4.286    0.000   11.429 
#    0.000    0.714    0.000    0.000    0.000    0.000 
#    0.000    0.000    0.000    0.000    0.000    0.000 
#
# Total GULP energy -694763.598855 kJ/mol
# GULP energy per Si atom -12406.492837 kJ/mol
# Density = 2.014848 g / cm^3
# Si number density = 20.194447 Si / 1000 Ang^3
#
#
#
# Elastic Constant Matrix: (Units=GPa)
#
#
# Indices 1 2 3 4 5 6 
#
# 1 51.2080 39.6023 50.2718 0.0000 0.0000 0.0000
# 2 39.6023 65.2276 36.9622 0.0000 0.0000 0.0000
# 3 50.2718 36.9622 162.0414 0.0000 0.0000 0.0000
# 4 0.0000 0.0000 0.0000 45.8030 0.0000 0.0000
# 5 0.0000 0.0000 0.0000 0.0000 29.8586 0.0000
# 6 0.0000 0.0000 0.0000 0.0000 0.0000 21.1593
#
#
#
# Elastic Compliance Matrix: (Units=1/GPa)
#
#
# Indices 1 2 3 4 5 6 
#
# 1 0.046137 -0.022855 -0.009100 0.000000 0.000000 0.000000
# 2 -0.022855 0.028928 0.000492 0.000000 0.000000 0.000000
# 3 -0.009100 0.000492 0.008882 0.000000 0.000000 0.000000
# 4 0.000000 0.000000 0.000000 0.021833 0.000000 0.000000
# 5 0.000000 0.000000 0.000000 0.000000 0.033491 0.000000
# 6 0.000000 0.000000 0.000000 0.000000 0.000000 0.047261
#
#
# Mechanical properties :
#
#
# Convention : Reuss Voigt Hill
#
# Bulk Modulus (GPa) = 47.57114 59.12775 53.34944
# Shear Modulus (GPa) = 19.49571 29.47355 24.48463
#
# Velocity S-wave (km/s) = 3.11046 3.82447 3.48579
# Velocity P-wave (km/s) = 6.04215 6.98891 6.53271
#
# Compressibility (1/GPa) = 0.02102115
#
# Stress axis : x y z
#
# Youngs Moduli (GPa) = 21.67437 34.56814 112.58249
#
# Poissons Ratio (x) = 0.79005 1.02455
# Poissons Ratio (y) = 0.49537 -0.05538
# Poissons Ratio (z) = 0.19725 -0.01700
#
# Static dielectric constant tensor:
#      x y z
#    x 3.502580 0.000000 0.000000 
#    y 0.000000 3.664780 0.000000 
#    z 0.000000 0.000000 3.851280 
# 
# 
# High freq. dielectric constant tensor:
#      x y z
#    x 1.764410 0.000000 0.000000 
#    y 0.000000 1.797990 0.000000 
#    z 0.000000 0.000000 1.806960 
# 
# From -- ./inp_files/20408.got.cif
#   From: 2010.03.12/outbox.cif.g09.slc.cpg/sg62_11_cif.got.tgz:20408.got - 2010.04.10 19:12:36.
