data_PCOD8252376
_publ_section_title
;
Structure prediction by ZEFSAII (Michael W. Deem and Ramdas Pophale) SiO2 
 PCOD8252376
Probable space group: P N M A
;
_chemical_formula_sum "Si O2"
_cell_formula_units_Z 56
_cell_length_a 15.237577
_cell_length_b 9.523203
_cell_length_c 20.981806
_cell_angle_alpha 90.000000
_cell_angle_beta 90.000000
_cell_angle_gamma 90.000000
_cell_volume 3044.681178
_symmetry_space_group_name_H-M "P N M A"
_symmetry_group_IT_number 62
_symmetry_cell_setting 'orthorhombic'
loop_
_space_group_symop_operation_xyz
x,y,z
1/2-x,-y,1/2+z
1/2+x,1/2-y,1/2-z
-x,1/2+y,-z
-x,-y,-z
1/2+x,y,1/2-z
1/2-x,1/2+y,1/2+z
x,1/2-y,z
loop_
_atom_site_type_symbol
_atom_site_label
_atom_site_fract_x
_atom_site_fract_y
_atom_site_fract_z
Si Si1 0.316909 0.414111 0.329850
Si Si2 0.748679 0.908266 0.396794
Si Si3 0.485380 0.085355 0.260422
Si Si4 0.816593 0.582198 0.779226
Si Si5 0.936599 0.901907 0.351645
Si Si6 0.262569 0.913323 0.962011
Si Si7 0.434413 0.407846 0.960004
O O1 0.306627 0.250000 0.321017
O O2 0.417999 0.459395 0.316803
O O3 0.246219 0.475986 0.278049
O O4 0.299812 0.456922 0.403048
O O5 0.721692 0.750000 0.376503
O O6 0.854390 0.925270 0.399099
O O7 0.715511 0.938446 0.469363
O O8 0.710164 0.018531 0.347138
O O9 0.489936 0.250000 0.251750
O O10 0.583693 0.026986 0.268829
O O11 0.438734 0.026811 0.197959
O O12 0.813195 0.750000 0.785050
O O13 0.925554 0.750000 0.317033
O O14 0.027357 0.900102 0.389272
O O15 0.292434 0.750000 0.956620
O O16 0.342540 0.017268 0.955368
O O17 0.424575 0.250000 0.988594
O O18 0.500000 0.500000 0.000000
#
# Coordination Sequence:
#
# PCOD8252376 Si02
#       7
#     8   8   8   8   8   8   8
#     4   9  18  34  56  80 107 141 180 227 278 322
#     4  10  20  35  54  77 108 145 180 218 269 327
#     4  10  20  35  57  83 106 137 185 232 274 320
#     4  10  20  35  56  82 108 139 184 228 269 323
#     4  10  20  34  51  77 109 141 177 219 272 331
#     4  10  20  37  56  77 110 147 185 225 273 330
#     4  11  21  33  50  77 111 142 178 219 268 328
#
# _framework density 18.392728999999999
#
# number of rings (size 3 to 8) (size 9 to 14) (size 15 to 20)
#    0.000    2.000    2.857    1.286    0.000    3.429 
#    0.000    2.143    0.000    0.000    0.000    0.000 
#    0.000    0.000    0.000    0.000    0.000    0.000 
#
# Total GULP energy -693952.572625 kJ/mol
# GULP energy per Si atom -12392.010225 kJ/mol
# Density = 1.835087 g / cm^3
# Si number density = 18.392729 Si / 1000 Ang^3
#
#
#
# Elastic Constant Matrix: (Units=GPa)
#
#
# Indices 1 2 3 4 5 6 
#
# 1 76.5283 19.8234 34.7197 0.0000 0.0000 0.0000
# 2 19.8234 44.0073 25.2773 0.0000 0.0000 0.0000
# 3 34.7197 25.2773 117.9298 0.0000 0.0000 0.0000
# 4 0.0000 0.0000 0.0000 28.7131 0.0000 0.0000
# 5 0.0000 0.0000 0.0000 0.0000 27.3870 0.0000
# 6 0.0000 0.0000 0.0000 0.0000 0.0000 19.9747
#
#
#
# Elastic Compliance Matrix: (Units=1/GPa)
#
#
# Indices 1 2 3 4 5 6 
#
# 1 0.016043 -0.005147 -0.003620 0.000000 0.000000 0.000000
# 2 -0.005147 0.027565 -0.004393 0.000000 0.000000 0.000000
# 3 -0.003620 -0.004393 0.010487 0.000000 0.000000 0.000000
# 4 0.000000 0.000000 0.000000 0.034827 0.000000 0.000000
# 5 0.000000 0.000000 0.000000 0.000000 0.036514 0.000000
# 6 0.000000 0.000000 0.000000 0.000000 0.000000 0.050063
#
#
# Mechanical properties :
#
#
# Convention : Reuss Voigt Hill
#
# Bulk Modulus (GPa) = 36.00399 44.23401 40.11900
# Shear Modulus (GPa) = 23.68794 25.79130 24.73962
#
# Velocity S-wave (km/s) = 3.59262 3.74873 3.67151
# Velocity P-wave (km/s) = 6.06851 6.54517 6.31134
#
# Compressibility (1/GPa) = 0.02777470
#
# Stress axis : x y z
#
# Youngs Moduli (GPa) = 62.33383 36.27736 95.35676
#
# Poissons Ratio (x) = 0.18673 0.34518
# Poissons Ratio (y) = 0.32085 0.41890
# Poissons Ratio (z) = 0.22564 0.15937
#
# Static dielectric constant tensor:
#      x y z
#    x 4.275760 0.000000 0.000000 
#    y 0.000000 3.367290 0.000000 
#    z 0.000000 0.000000 3.592410 
# 
# 
# High freq. dielectric constant tensor:
#      x y z
#    x 1.701380 0.000000 0.000000 
#    y 0.000000 1.701360 0.000000 
#    z 0.000000 0.000000 1.710170 
# 
# From -- ./inp_files/27073.got.cif
#   From: 2010.03.12/outbox.cif.g09.slc.cpg/sg62_14_cif.got.tgz:27073.got - 2010.04.10 19:12:36.
