data_PCOD8252110
_publ_section_title
;
Structure prediction by ZEFSAII (Michael W. Deem and Ramdas Pophale) SiO2 
 PCOD8252110
Probable space group: P N M A
;
_chemical_formula_sum "Si O2"
_cell_formula_units_Z 64
_cell_length_a 19.221432
_cell_length_b 17.201681
_cell_length_c 9.285102
_cell_angle_alpha 90.000000
_cell_angle_beta 90.000000
_cell_angle_gamma 90.000000
_cell_volume 3070.034868
_symmetry_space_group_name_H-M "P N M A"
_symmetry_group_IT_number 62
_symmetry_cell_setting 'orthorhombic'
loop_
_space_group_symop_operation_xyz
x,y,z
1/2-x,-y,1/2+z
1/2+x,1/2-y,1/2-z
-x,1/2+y,-z
-x,-y,-z
1/2+x,y,1/2-z
1/2-x,1/2+y,1/2+z
x,1/2-y,z
loop_
_atom_site_type_symbol
_atom_site_label
_atom_site_fract_x
_atom_site_fract_y
_atom_site_fract_z
Si Si1 0.432732 0.159415 0.708163
Si Si2 0.922521 0.657893 0.712135
Si Si3 0.927915 0.841277 0.044152
Si Si4 0.277690 0.658209 0.899881
Si Si5 0.793323 0.571603 0.079342
Si Si6 0.697030 0.658425 0.872788
Si Si7 0.550447 0.841439 0.964619
Si Si8 0.207818 0.569841 0.138228
O O1 0.411687 0.250000 0.691143
O O2 0.496208 0.136998 0.604030
O O3 0.366574 0.106795 0.673393
O O4 0.459230 0.140484 0.867878
O O5 0.922614 0.750000 0.696118
O O6 0.852426 0.622238 0.643576
O O7 0.986926 0.620974 0.624361
O O8 0.927548 0.633846 0.877751
O O9 0.912648 0.750000 0.067126
O O10 0.867893 0.891392 0.123586
O O11 0.282785 0.750000 0.894233
O O12 0.221721 0.627678 0.782745
O O13 0.255778 0.633212 0.058714
O O14 0.749925 0.543981 0.219242
O O15 0.750577 0.638696 0.999034
O O16 0.803497 0.501303 0.969067
O O17 0.690898 0.750000 0.871946
O O18 0.621967 0.620588 0.906166
O O19 0.552191 0.750000 0.936073
#
# Coordination Sequence:
#
# PCOD8252110 Si02
#       8
#     8   8   8   8   8   8   8   8
#     4  10  22  41  65  98 129 159 208 264 320 379
#     4   9  18  34  58  92 126 157 197 251 314 376
#     4  10  22  40  68  98 127 163 207 262 320 379
#     4  10  21  37  63  95 124 158 211 267 317 376
#     4  12  25  43  64  87 128 171 218 259 315 373
#     4  10  19  37  65  93 122 161 208 259 317 375
#     4   9  18  33  58  91 128 160 195 251 314 375
#     4  12  27  43  63  88 128 172 218 263 317 372
#
# _framework density 20.846668999999999
#
# number of rings (size 3 to 8) (size 9 to 14) (size 15 to 20)
#    0.000    1.750    2.500    1.500    3.500    2.000 
#    0.000    0.000    0.000    2.250    0.000    0.000 
#    0.000    0.000    0.000    0.000    0.000    0.000 
#
# Total GULP energy -793600.587957 kJ/mol
# GULP energy per Si atom -12400.009187 kJ/mol
# Density = 2.079922 g / cm^3
# Si number density = 20.846669 Si / 1000 Ang^3
#
#
#
# Elastic Constant Matrix: (Units=GPa)
#
#
# Indices 1 2 3 4 5 6 
#
# 1 157.6080 47.3246 57.0425 0.0000 0.0000 0.0000
# 2 47.3246 36.0736 36.3650 0.0000 0.0000 0.0000
# 3 57.0425 36.3650 93.1800 0.0000 0.0000 0.0000
# 4 0.0000 0.0000 0.0000 15.5070 0.0000 0.0000
# 5 0.0000 0.0000 0.0000 0.0000 41.5477 0.0000
# 6 0.0000 0.0000 0.0000 0.0000 0.0000 15.8990
#
#
#
# Elastic Compliance Matrix: (Units=1/GPa)
#
#
# Indices 1 2 3 4 5 6 
#
# 1 0.010640 -0.012187 -0.001757 0.000000 0.000000 0.000000
# 2 -0.012187 0.059660 -0.015822 0.000000 0.000000 0.000000
# 3 -0.001757 -0.015822 0.017983 0.000000 0.000000 0.000000
# 4 0.000000 0.000000 0.000000 0.064487 0.000000 0.000000
# 5 0.000000 0.000000 0.000000 0.000000 0.024069 0.000000
# 6 0.000000 0.000000 0.000000 0.000000 0.000000 0.062897
#
#
# Mechanical properties :
#
#
# Convention : Reuss Voigt Hill
#
# Bulk Modulus (GPa) = 34.78451 63.14731 48.96591
# Shear Modulus (GPa) = 16.18895 24.33270 20.26083
#
# Velocity S-wave (km/s) = 2.78973 3.42017 3.12091
# Velocity P-wave (km/s) = 5.20566 6.77893 6.04370
#
# Compressibility (1/GPa) = 0.02874843
#
# Stress axis : x y z
#
# Youngs Moduli (GPa) = 93.98148 16.76176 55.60889
#
# Poissons Ratio (x) = 0.20428 0.09773
# Poissons Ratio (y) = 1.14538 0.87986
# Poissons Ratio (z) = 0.16517 0.26521
#
# Static dielectric constant tensor:
#      x y z
#    x 4.158390 0.000000 0.000000 
#    y 0.000000 3.408810 0.000000 
#    z 0.000000 0.000000 3.913340 
# 
# 
# High freq. dielectric constant tensor:
#      x y z
#    x 1.830820 0.000000 0.000000 
#    y 0.000000 1.784260 0.000000 
#    z 0.000000 0.000000 1.821500 
# 
# From -- ./inp_files/8087.got.cif
#   From: 2010.03.12/outbox.cif.g09.slc.cpg/sg62_5_cif.got.tgz:8087.got - 2010.04.10 19:12:36.
