data_PCOD8252414
_publ_section_title
;
Structure prediction by ZEFSAII (Michael W. Deem and Ramdas Pophale) SiO2 
 PCOD8252414
Probable space group: P N M A
;
_chemical_formula_sum "Si O2"
_cell_formula_units_Z 40
_cell_length_a 13.508507
_cell_length_b 9.167713
_cell_length_c 17.714841
_cell_angle_alpha 90.000000
_cell_angle_beta 90.000000
_cell_angle_gamma 90.000000
_cell_volume 2193.843380
_symmetry_space_group_name_H-M "P N M A"
_symmetry_group_IT_number 62
_symmetry_cell_setting 'orthorhombic'
loop_
_space_group_symop_operation_xyz
x,y,z
1/2-x,-y,1/2+z
1/2+x,1/2-y,1/2-z
-x,1/2+y,-z
-x,-y,-z
1/2+x,y,1/2-z
1/2-x,1/2+y,1/2+z
x,1/2-y,z
loop_
_atom_site_type_symbol
_atom_site_label
_atom_site_fract_x
_atom_site_fract_y
_atom_site_fract_z
Si Si1 0.685323 0.082015 0.183126
Si Si2 0.871682 0.580063 0.133351
Si Si3 0.426786 0.920255 0.665542
Si Si4 0.900134 0.920038 0.521233
Si Si5 0.212472 0.419252 0.028321
O O1 0.718267 0.250000 0.187033
O O2 0.620183 0.037353 0.254600
O O3 0.620200 0.050432 0.109230
O O4 0.784276 0.986436 0.183898
O O5 0.876758 0.750000 0.150310
O O6 0.973749 0.509650 0.157524
O O7 0.852749 0.546367 0.045427
O O8 0.452362 0.750000 0.659869
O O9 0.350822 0.966828 0.600369
O O10 0.910034 0.750000 0.502830
O O11 0.811684 0.985318 0.470990
O O12 0.000000 0.000000 0.500000
O O13 0.243250 0.250000 0.031452
#
# Coordination Sequence:
#
# PCOD8252414 Si02
#       5
#     8   8   8   8   8
#     4   9  20  37  54  74 101 136 175 210 248 299
#     4  10  20  34  53  77 106 135 164 208 261 305
#     4  10  20  35  56  78 102 135 173 211 251 302
#     4  10  20  35  55  76 102 137 174 212 253 300
#     4   9  19  35  54  77 103 133 171 211 252 302
#
# _framework density 18.232842000000002
#
# number of rings (size 3 to 8) (size 9 to 14) (size 15 to 20)
#    0.000    2.400    0.000    1.800    0.000    4.800 
#    0.000    8.000    0.000    0.000    0.000    0.000 
#    0.000    0.000    0.000    0.000    0.000    0.000 
#
# Total GULP energy -496181.963146 kJ/mol
# GULP energy per Si atom -12404.549079 kJ/mol
# Density = 1.819134 g / cm^3
# Si number density = 18.232842 Si / 1000 Ang^3
#
#
#
# Elastic Constant Matrix: (Units=GPa)
#
#
# Indices 1 2 3 4 5 6 
#
# 1 184.7887 102.6507 84.8015 0.0000 0.0000 0.0000
# 2 102.6507 103.2137 56.1412 0.0000 0.0000 0.0000
# 3 84.8015 56.1412 95.9621 0.0000 0.0000 0.0000
# 4 0.0000 0.0000 0.0000 25.9907 0.0000 0.0000
# 5 0.0000 0.0000 0.0000 0.0000 22.1419 0.0000
# 6 0.0000 0.0000 0.0000 0.0000 0.0000 44.0192
#
#
#
# Elastic Compliance Matrix: (Units=1/GPa)
#
#
# Indices 1 2 3 4 5 6 
#
# 1 0.014312 -0.010787 -0.006336 0.000000 0.000000 0.000000
# 2 -0.010787 0.022341 -0.003538 0.000000 0.000000 0.000000
# 3 -0.006336 -0.003538 0.018090 0.000000 0.000000 0.000000
# 4 0.000000 0.000000 0.000000 0.038475 0.000000 0.000000
# 5 0.000000 0.000000 0.000000 0.000000 0.045163 0.000000
# 6 0.000000 0.000000 0.000000 0.000000 0.000000 0.022717
#
#
# Mechanical properties :
#
#
# Convention : Reuss Voigt Hill
#
# Bulk Modulus (GPa) = 74.51438 96.79460 85.65449
# Shear Modulus (GPa) = 24.16684 27.78841 25.97763
#
# Velocity S-wave (km/s) = 3.64463 3.90819 3.77871
# Velocity P-wave (km/s) = 7.65951 8.57721 8.13132
#
# Compressibility (1/GPa) = 0.01342023
#
# Stress axis : x y z
#
# Youngs Moduli (GPa) = 69.87318 44.76030 55.27902
#
# Poissons Ratio (x) = 0.48283 0.35027
# Poissons Ratio (y) = 0.75372 0.19557
# Poissons Ratio (z) = 0.44274 0.15836
#
# Static dielectric constant tensor:
#      x y z
#    x 3.331220 0.000000 0.000000 
#    y 0.000000 3.632940 0.000000 
#    z 0.000000 0.000000 3.466930 
# 
# 
# High freq. dielectric constant tensor:
#      x y z
#    x 1.712760 0.000000 0.000000 
#    y 0.000000 1.710510 0.000000 
#    z 0.000000 0.000000 1.706210 
# 
# From -- ./inp_files/18647.got.cif
#   From: 2010.03.12/outbox.cif.g09.slc.cpg/sg62_10_cif.got.tgz:18647.got - 2010.04.10 19:12:36.
