data_PCOD8252691
_publ_section_title
;
Structure prediction by ZEFSAII (Michael W. Deem and Ramdas Pophale) SiO2 
 PCOD8252691
Probable space group: P N M A
;
_chemical_formula_sum "Si O2"
_cell_formula_units_Z 48
_cell_length_a 4.967907
_cell_length_b 15.815066
_cell_length_c 29.254009
_cell_angle_alpha 90.000000
_cell_angle_beta 90.000000
_cell_angle_gamma 90.000000
_cell_volume 2298.422458
_symmetry_space_group_name_H-M "P N M A"
_symmetry_group_IT_number 62
_symmetry_cell_setting 'orthorhombic'
loop_
_space_group_symop_operation_xyz
x,y,z
1/2-x,-y,1/2+z
1/2+x,1/2-y,1/2-z
-x,1/2+y,-z
-x,-y,-z
1/2+x,y,1/2-z
1/2-x,1/2+y,1/2+z
x,1/2-y,z
loop_
_atom_site_type_symbol
_atom_site_label
_atom_site_fract_x
_atom_site_fract_y
_atom_site_fract_z
Si Si1 0.231821 0.653910 0.360015
Si Si2 0.343118 0.155110 0.482392
Si Si3 0.233830 0.892461 0.083943
Si Si4 0.873320 0.445002 0.460012
Si Si5 0.689637 0.840679 0.719696
Si Si6 0.702096 0.520601 0.218767
O O1 0.300776 0.750000 0.345924
O O2 0.431109 0.619942 0.398910
O O3 0.259467 0.596338 0.315545
O O4 0.932648 0.651760 0.380438
O O5 0.419756 0.250000 0.468739
O O6 0.238063 0.151079 0.534507
O O7 0.601313 0.096891 0.477510
O O8 0.101858 0.124692 0.448331
O O9 0.303986 0.992911 0.082115
O O10 0.000000 0.500000 0.500000
O O11 0.380085 0.842340 0.735449
O O12 0.739448 0.750000 0.693094
O O13 0.754149 0.928729 0.692990
O O14 0.400450 0.527755 0.237818
#
# Coordination Sequence:
#
# PCOD8252691 Si02
#       6
#     8   8   8   8   8   8
#     4  12  24  37  56  81 111 151 192 237 292 340
#     4  11  20  34  58  86 113 145 190 238 283 337
#     4  11  22  38  56  80 112 147 192 238 279 331
#     4  10  20  35  55  81 110 146 183 227 284 337
#     4   8  14  27  50  76  97 120 158 211 264 317
#     4  10  21  37  56  80 109 143 185 233 286 342
#
# _framework density 20.883890000000001
#
# number of rings (size 3 to 8) (size 9 to 14) (size 15 to 20)
#    0.000    1.667    0.000    8.000    0.000    0.667 
#    0.000    0.000    0.000    6.000    0.000    0.000 
#    0.000    0.000    0.000    0.000    0.000    0.000 
#
# Total GULP energy -594896.103107 kJ/mol
# GULP energy per Si atom -12393.668815 kJ/mol
# Density = 2.083636 g / cm^3
# Si number density = 20.883890 Si / 1000 Ang^3
#
#
#
# Elastic Constant Matrix: (Units=GPa)
#
#
# Indices 1 2 3 4 5 6 
#
# 1 92.5322 32.3044 12.0038 0.0000 0.0000 0.0000
# 2 32.3044 182.4424 49.5334 0.0000 0.0000 0.0000
# 3 12.0038 49.5334 31.1815 0.0000 0.0000 0.0000
# 4 0.0000 0.0000 0.0000 25.3788 0.0000 0.0000
# 5 0.0000 0.0000 0.0000 0.0000 17.0837 0.0000
# 6 0.0000 0.0000 0.0000 0.0000 0.0000 25.6372
#
#
#
# Elastic Compliance Matrix: (Units=1/GPa)
#
#
# Indices 1 2 3 4 5 6 
#
# 1 0.011598 -0.001479 -0.002115 0.000000 0.000000 0.000000
# 2 -0.001479 0.009827 -0.015041 0.000000 0.000000 0.000000
# 3 -0.002115 -0.015041 0.056777 0.000000 0.000000 0.000000
# 4 0.000000 0.000000 0.000000 0.039403 0.000000 0.000000
# 5 0.000000 0.000000 0.000000 0.000000 0.058535 0.000000
# 6 0.000000 0.000000 0.000000 0.000000 0.000000 0.039006
#
#
# Mechanical properties :
#
#
# Convention : Reuss Voigt Hill
#
# Bulk Modulus (GPa) = 24.43050 54.87102 39.65076
# Shear Modulus (GPa) = 18.79277 27.77423 23.28350
#
# Velocity S-wave (km/s) = 3.00304 3.65078 3.34264
# Velocity P-wave (km/s) = 4.87319 6.64096 5.82453
#
# Compressibility (1/GPa) = 0.04093244
#
# Stress axis : x y z
#
# Youngs Moduli (GPa) = 86.22271 101.76340 17.61268
#
# Poissons Ratio (x) = 0.15056 0.03724
# Poissons Ratio (y) = 0.12757 0.26491
# Poissons Ratio (z) = 0.18232 1.53059
#
# Static dielectric constant tensor:
#      x y z
#    x 4.021220 0.000000 0.000000 
#    y 0.000000 4.609660 0.000000 
#    z 0.000000 0.000000 3.137920 
# 
# 
# High freq. dielectric constant tensor:
#      x y z
#    x 1.842420 0.000000 0.000000 
#    y 0.000000 1.844340 0.000000 
#    z 0.000000 0.000000 1.742360 
# 
# From -- ./inp_files/30419.got.cif
#   From: 2010.03.12/outbox.cif.g09.slc.cpg/sg62_16_cif.got.tgz:30419.got - 2010.04.10 19:12:36.
