data_PCOD8252105
_publ_section_title
;
Structure prediction by ZEFSAII (Michael W. Deem and Ramdas Pophale) SiO2 
 PCOD8252105
Probable space group: P N M A
;
_chemical_formula_sum "Si O2"
_cell_formula_units_Z 40
_cell_length_a 10.301138
_cell_length_b 11.131186
_cell_length_c 16.137236
_cell_angle_alpha 90.000000
_cell_angle_beta 90.000000
_cell_angle_gamma 90.000000
_cell_volume 1850.358142
_symmetry_space_group_name_H-M "P N M A"
_symmetry_group_IT_number 62
_symmetry_cell_setting 'orthorhombic'
loop_
_space_group_symop_operation_xyz
x,y,z
1/2-x,-y,1/2+z
1/2+x,1/2-y,1/2-z
-x,1/2+y,-z
-x,-y,-z
1/2+x,y,1/2-z
1/2-x,1/2+y,1/2+z
x,1/2-y,z
loop_
_atom_site_type_symbol
_atom_site_label
_atom_site_fract_x
_atom_site_fract_y
_atom_site_fract_z
Si Si1 0.320222 0.537183 0.464839
Si Si2 0.781437 0.389141 0.194182
Si Si3 0.916802 0.117952 0.900656
Si Si4 0.018259 0.513542 0.272835
Si Si5 0.456393 0.116463 0.947464
O O1 0.315734 0.429328 0.398515
O O2 0.319485 0.477659 0.556755
O O3 0.448270 0.615871 0.451378
O O4 0.198703 0.624678 0.454932
O O5 0.807504 0.250000 0.202385
O O6 0.631171 0.415667 0.213710
O O7 0.878619 0.452913 0.258795
O O8 0.855442 0.250000 0.908942
O O9 0.939890 0.093868 0.804503
O O10 0.002465 0.598924 0.352359
O O11 0.508518 0.250000 0.976474
O O12 0.500000 0.000000 0.000000
#
# Coordination Sequence:
#
# PCOD8252105 Si02
#       5
#     8   8   8   8   8
#     4   9  21  38  60  92 121 159 206 252 309 372
#     4  10  20  38  60  88 129 166 209 257 312 372
#     4  10  19  37  64  90 120 156 202 256 310 369
#     4  10  23  39  60  93 122 164 211 260 313 372
#     4  11  25  44  63  89 127 171 213 260 316 377
#
# _framework density 21.617436999999999
#
# number of rings (size 3 to 8) (size 9 to 14) (size 15 to 20)
#    0.000    2.000    0.000    2.400    2.800    4.800 
#    0.000    4.000    0.000    0.000    0.000    0.000 
#    0.000    0.000    0.000    0.000    0.000    0.000 
#
# Total GULP energy -495897.762038 kJ/mol
# GULP energy per Si atom -12397.444051 kJ/mol
# Density = 2.156824 g / cm^3
# Si number density = 21.617437 Si / 1000 Ang^3
#
#
#
# Elastic Constant Matrix: (Units=GPa)
#
#
# Indices 1 2 3 4 5 6 
#
# 1 54.0964 8.6491 4.9601 0.0000 0.0000 0.0000
# 2 8.6491 141.4547 48.0974 0.0000 0.0000 0.0000
# 3 4.9601 48.0974 120.7216 0.0000 0.0000 0.0000
# 4 0.0000 0.0000 0.0000 15.7478 0.0000 0.0000
# 5 0.0000 0.0000 0.0000 0.0000 31.8497 0.0000
# 6 0.0000 0.0000 0.0000 0.0000 0.0000 15.5143
#
#
#
# Elastic Compliance Matrix: (Units=1/GPa)
#
#
# Indices 1 2 3 4 5 6 
#
# 1 0.018682 -0.001019 -0.000361 0.000000 0.000000 0.000000
# 2 -0.001019 0.008233 -0.003238 0.000000 0.000000 0.000000
# 3 -0.000361 -0.003238 0.009589 0.000000 0.000000 0.000000
# 4 0.000000 0.000000 0.000000 0.063501 0.000000 0.000000
# 5 0.000000 0.000000 0.000000 0.000000 0.031397 0.000000
# 6 0.000000 0.000000 0.000000 0.000000 0.000000 0.064457
#
#
# Mechanical properties :
#
#
# Convention : Reuss Voigt Hill
#
# Bulk Modulus (GPa) = 36.67713 48.85398 42.76556
# Shear Modulus (GPa) = 23.34435 29.59341 26.46888
#
# Velocity S-wave (km/s) = 3.28973 3.70396 3.50297
# Velocity P-wave (km/s) = 5.60652 6.39850 6.01556
#
# Compressibility (1/GPa) = 0.02726494
#
# Stress axis : x y z
#
# Youngs Moduli (GPa) = 53.52845 121.46570 104.29144
#
# Poissons Ratio (x) = 0.12382 0.03769
# Poissons Ratio (y) = 0.05457 0.33771
# Poissons Ratio (z) = 0.01935 0.39333
#
# Static dielectric constant tensor:
#      x y z
#    x 4.043770 0.000000 0.000000 
#    y 0.000000 3.633910 0.000000 
#    z 0.000000 0.000000 3.953840 
# 
# 
# High freq. dielectric constant tensor:
#      x y z
#    x 1.850970 0.000000 0.000000 
#    y 0.000000 1.841780 0.000000 
#    z 0.000000 0.000000 1.851010 
# 
# From -- ./inp_files/17789.got.cif
#   From: 2010.03.12/outbox.cif.g09.slc.cpg/sg62_9_cif.got.tgz:17789.got - 2010.04.10 19:12:36.
