data_PCOD8252544
_publ_section_title
;
Structure prediction by ZEFSAII (Michael W. Deem and Ramdas Pophale) SiO2 
 PCOD8252544
Probable space group: P N M A
;
_chemical_formula_sum "Si O2"
_cell_formula_units_Z 56
_cell_length_a 16.333748
_cell_length_b 9.310653
_cell_length_c 19.920051
_cell_angle_alpha 90.000000
_cell_angle_beta 90.000000
_cell_angle_gamma 90.000000
_cell_volume 3029.398724
_symmetry_space_group_name_H-M "P N M A"
_symmetry_group_IT_number 62
_symmetry_cell_setting 'orthorhombic'
loop_
_space_group_symop_operation_xyz
x,y,z
1/2-x,-y,1/2+z
1/2+x,1/2-y,1/2-z
-x,1/2+y,-z
-x,-y,-z
1/2+x,y,1/2-z
1/2-x,1/2+y,1/2+z
x,1/2-y,z
loop_
_atom_site_type_symbol
_atom_site_label
_atom_site_fract_x
_atom_site_fract_y
_atom_site_fract_z
Si Si1 0.244694 0.579320 0.519030
Si Si2 0.312179 0.913064 0.784799
Si Si3 0.637933 0.417202 0.363983
Si Si4 0.481485 0.917035 0.324288
Si Si5 0.195400 0.415775 0.876433
Si Si6 0.495927 0.916819 0.807556
Si Si7 0.437923 0.081201 0.047656
O O1 0.246155 0.750000 0.521033
O O2 0.304914 0.521634 0.576920
O O3 0.275985 0.518939 0.447723
O O4 0.152949 0.523746 0.532088
O O5 0.289113 0.750000 0.801347
O O6 0.313537 0.940088 0.705248
O O7 0.400030 0.952859 0.816806
O O8 0.242196 0.010617 0.815503
O O9 0.615313 0.250000 0.373771
O O10 0.554537 0.507213 0.364454
O O11 0.502059 0.750000 0.313858
O O12 0.401178 0.939523 0.369206
O O13 0.466248 0.988133 0.251742
O O14 0.219193 0.250000 0.873086
O O15 0.506538 0.750000 0.787613
O O16 0.542981 0.956167 0.875313
O O17 0.446806 0.250000 0.034030
O O18 0.500000 0.000000 0.000000
#
# Coordination Sequence:
#
# PCOD8252544 Si02
#       7
#     8   8   8   8   8   8   8
#     4   9  19  36  56  78 106 144 182 218 267 325
#     4   9  18  32  53  79 105 134 173 222 267 310
#     4   9  19  37  58  79 103 138 184 227 268 319
#     4  10  21  35  52  78 108 139 177 223 274 320
#     4  10  21  35  52  77 109 143 178 215 267 330
#     4   9  19  35  55  79 105 138 182 223 262 320
#     4  10  20  34  56  82 110 144 180 220 270 324
#
# _framework density 18.485517999999999
#
# number of rings (size 3 to 8) (size 9 to 14) (size 15 to 20)
#    0.000    2.571    0.000    2.143    2.000    4.571 
#    0.000    1.429    0.000    0.000    0.000    0.000 
#    0.000    0.000    0.000    0.000    0.000    0.000 
#
# Total GULP energy -694524.519367 kJ/mol
# GULP energy per Si atom -12402.223560 kJ/mol
# Density = 1.844344 g / cm^3
# Si number density = 18.485518 Si / 1000 Ang^3
#
#
#
# Elastic Constant Matrix: (Units=GPa)
#
#
# Indices 1 2 3 4 5 6 
#
# 1 119.5045 51.5343 70.1590 0.0000 0.0000 0.0000
# 2 51.5343 60.2924 43.7870 0.0000 0.0000 0.0000
# 3 70.1590 43.7870 100.3885 0.0000 0.0000 0.0000
# 4 0.0000 0.0000 0.0000 23.7694 0.0000 0.0000
# 5 0.0000 0.0000 0.0000 0.0000 37.7372 0.0000
# 6 0.0000 0.0000 0.0000 0.0000 0.0000 28.5897
#
#
#
# Elastic Compliance Matrix: (Units=1/GPa)
#
#
# Indices 1 2 3 4 5 6 
#
# 1 0.016713 -0.008493 -0.007976 0.000000 0.000000 0.000000
# 2 -0.008493 0.028591 -0.006536 0.000000 0.000000 0.000000
# 3 -0.007976 -0.006536 0.018386 0.000000 0.000000 0.000000
# 4 0.000000 0.000000 0.000000 0.042071 0.000000 0.000000
# 5 0.000000 0.000000 0.000000 0.000000 0.026499 0.000000
# 6 0.000000 0.000000 0.000000 0.000000 0.000000 0.034978
#
#
# Mechanical properties :
#
#
# Convention : Reuss Voigt Hill
#
# Bulk Modulus (GPa) = 56.55456 67.90512 62.22984
# Shear Modulus (GPa) = 22.81656 25.66625 24.24140
#
# Velocity S-wave (km/s) = 3.51706 3.73024 3.62522
# Velocity P-wave (km/s) = 6.86683 7.44089 7.15962
#
# Compressibility (1/GPa) = 0.01768204
#
# Stress axis : x y z
#
# Youngs Moduli (GPa) = 59.83516 34.97588 54.38918
#
# Poissons Ratio (x) = 0.29703 0.43380
# Poissons Ratio (y) = 0.50815 0.35546
# Poissons Ratio (z) = 0.47723 0.22859
#
# Static dielectric constant tensor:
#      x y z
#    x 3.435960 0.000000 0.000000 
#    y 0.000000 3.230530 0.000000 
#    z 0.000000 0.000000 3.560070 
# 
# 
# High freq. dielectric constant tensor:
#      x y z
#    x 1.723220 0.000000 0.000000 
#    y 0.000000 1.697470 0.000000 
#    z 0.000000 0.000000 1.722150 
# 
# From -- ./inp_files/27187.got.cif
#   From: 2010.03.12/outbox.cif.g09.slc.cpg/sg62_14_cif.got.tgz:27187.got - 2010.04.10 19:12:36.
