data_PCOD8252216
_publ_section_title
;
Structure prediction by ZEFSAII (Michael W. Deem and Ramdas Pophale) SiO2 
 PCOD8252216
Probable space group: P N M A
;
_chemical_formula_sum "Si O2"
_cell_formula_units_Z 48
_cell_length_a 13.793229
_cell_length_b 8.969683
_cell_length_c 23.117960
_cell_angle_alpha 90.000000
_cell_angle_beta 90.000000
_cell_angle_gamma 90.000000
_cell_volume 2860.174625
_symmetry_space_group_name_H-M "P N M A"
_symmetry_group_IT_number 62
_symmetry_cell_setting 'orthorhombic'
loop_
_space_group_symop_operation_xyz
x,y,z
1/2-x,-y,1/2+z
1/2+x,1/2-y,1/2-z
-x,1/2+y,-z
-x,-y,-z
1/2+x,y,1/2-z
1/2-x,1/2+y,1/2+z
x,1/2-y,z
loop_
_atom_site_type_symbol
_atom_site_label
_atom_site_fract_x
_atom_site_fract_y
_atom_site_fract_z
Si Si1 0.888003 0.422367 0.777984
Si Si2 0.106988 0.076790 0.768119
Si Si3 0.403641 0.922552 0.934178
Si Si4 0.785926 0.073902 0.334805
Si Si5 0.788320 0.079741 0.658742
Si Si6 0.103262 0.423291 0.567273
O O1 0.868727 0.250000 0.792962
O O2 0.822749 0.520713 0.820538
O O3 0.860602 0.454349 0.711655
O O4 0.999371 0.468191 0.787804
O O5 0.112811 0.250000 0.749810
O O6 0.178400 0.044258 0.821728
O O7 0.137421 0.981683 0.712704
O O8 0.427535 0.750000 0.924177
O O9 0.313903 0.972436 0.894431
O O10 0.497354 0.016685 0.915813
O O11 0.374286 0.954174 0.000179
O O12 0.788289 0.250000 0.337266
O O13 0.814736 0.009104 0.397047
O O14 0.798443 0.250000 0.638159
O O15 0.106464 0.250000 0.582944
#
# Coordination Sequence:
#
# PCOD8252216 Si02
#       6
#     8   8   8   8   8   8
#     4   9  18  33  51  70  95 128 162 192 229 281
#     4   9  18  33  52  72  96 130 164 191 230 285
#     4  10  20  32  49  73  97 124 159 199 241 281
#     4  11  21  31  48  74 100 125 156 198 242 280
#     4   9  17  29  48  73  99 128 158 191 235 284
#     4  10  20  34  50  68  95 129 161 195 237 287
#
# _framework density 16.782191999999998
#
# number of rings (size 3 to 8) (size 9 to 14) (size 15 to 20)
#    0.000    2.333    0.000    4.500    0.000    6.667 
#    0.000    0.000    0.000    1.000    0.000    0.000 
#    0.000    0.000    0.000    0.000    0.000    0.000 
#
# Total GULP energy -595360.405800 kJ/mol
# GULP energy per Si atom -12403.341788 kJ/mol
# Density = 1.674400 g / cm^3
# Si number density = 16.782192 Si / 1000 Ang^3
#
#
#
# Elastic Constant Matrix: (Units=GPa)
#
#
# Indices 1 2 3 4 5 6 
#
# 1 131.8424 57.7950 60.3341 0.0000 0.0000 0.0000
# 2 57.7950 101.9303 54.9252 0.0000 0.0000 0.0000
# 3 60.3341 54.9252 86.8866 0.0000 0.0000 0.0000
# 4 0.0000 0.0000 0.0000 29.3849 0.0000 0.0000
# 5 0.0000 0.0000 0.0000 0.0000 25.5286 0.0000
# 6 0.0000 0.0000 0.0000 0.0000 0.0000 24.3248
#
#
#
# Elastic Compliance Matrix: (Units=1/GPa)
#
#
# Indices 1 2 3 4 5 6 
#
# 1 0.011877 -0.003473 -0.006052 0.000000 0.000000 0.000000
# 2 -0.003473 0.015895 -0.007636 0.000000 0.000000 0.000000
# 3 -0.006052 -0.007636 0.020538 0.000000 0.000000 0.000000
# 4 0.000000 0.000000 0.000000 0.034031 0.000000 0.000000
# 5 0.000000 0.000000 0.000000 0.000000 0.039172 0.000000
# 6 0.000000 0.000000 0.000000 0.000000 0.000000 0.041110
#
#
# Mechanical properties :
#
#
# Convention : Reuss Voigt Hill
#
# Bulk Modulus (GPa) = 71.48824 74.08533 72.78678
# Shear Modulus (GPa) = 24.80069 25.68798 25.24434
#
# Velocity S-wave (km/s) = 3.84838 3.91662 3.88265
# Velocity P-wave (km/s) = 7.90170 8.04327 7.97280
#
# Compressibility (1/GPa) = 0.01398831
#
# Stress axis : x y z
#
# Youngs Moduli (GPa) = 84.19844 62.91451 48.68908
#
# Poissons Ratio (x) = 0.21852 0.29465
# Poissons Ratio (y) = 0.29244 0.37178
# Poissons Ratio (z) = 0.50953 0.48041
#
# Static dielectric constant tensor:
#      x y z
#    x 3.172820 0.000000 0.000000 
#    y 0.000000 3.133280 0.000000 
#    z 0.000000 0.000000 3.011470 
# 
# 
# High freq. dielectric constant tensor:
#      x y z
#    x 1.640130 0.000000 0.000000 
#    y 0.000000 1.651360 0.000000 
#    z 0.000000 0.000000 1.632140 
# 
# From -- ./inp_files/26845.got.cif
#   From: 2010.03.12/outbox.cif.g09.slc.cpg/sg62_14_cif.got.tgz:26845.got - 2010.04.10 19:12:36.
