data_PCOD8252868
_publ_section_title
;
Structure prediction by ZEFSAII (Michael W. Deem and Ramdas Pophale) SiO2 
 PCOD8252868
Probable space group: P N M A
;
_chemical_formula_sum "Si O2"
_cell_formula_units_Z 64
_cell_length_a 23.930044
_cell_length_b 9.003265
_cell_length_c 15.238498
_cell_angle_alpha 90.000000
_cell_angle_beta 90.000000
_cell_angle_gamma 90.000000
_cell_volume 3283.111957
_symmetry_space_group_name_H-M "P N M A"
_symmetry_group_IT_number 62
_symmetry_cell_setting 'orthorhombic'
loop_
_space_group_symop_operation_xyz
x,y,z
1/2-x,-y,1/2+z
1/2+x,1/2-y,1/2-z
-x,1/2+y,-z
-x,-y,-z
1/2+x,y,1/2-z
1/2-x,1/2+y,1/2+z
x,1/2-y,z
loop_
_atom_site_type_symbol
_atom_site_label
_atom_site_fract_x
_atom_site_fract_y
_atom_site_fract_z
Si Si1 0.246253 0.072684 0.729508
Si Si2 0.670189 0.425937 0.934677
Si Si3 0.136507 0.918862 0.003190
Si Si4 0.041885 0.425914 0.567994
Si Si5 0.369342 0.425504 0.692222
Si Si6 0.525287 0.919603 0.583111
Si Si7 0.983982 0.074926 0.745965
Si Si8 0.754347 0.426766 0.083570
O O1 0.243883 0.250000 0.734236
O O2 0.203821 0.015506 0.652322
O O3 0.308533 0.009430 0.712350
O O4 0.234130 0.005787 0.824357
O O5 0.670042 0.250000 0.928045
O O6 0.606009 0.485133 0.937792
O O7 0.699399 0.474368 0.027058
O O8 0.151274 0.750000 0.025854
O O9 0.092081 0.931153 0.925670
O O10 0.194753 0.990299 0.974552
O O11 0.113535 0.985948 0.095072
O O12 0.039792 0.250000 0.554372
O O13 0.000000 0.500000 0.500000
O O14 0.017592 0.475973 0.661272
O O15 0.366112 0.250000 0.698056
O O16 0.418728 0.478368 0.758429
O O17 0.504490 0.750000 0.584810
O O18 0.500000 0.000000 0.500000
O O19 0.513076 0.999953 0.672543
O O20 0.987431 0.250000 0.760399
O O21 0.755556 0.250000 0.098759
#
# Coordination Sequence:
#
# PCOD8252868 Si02
#       8
#     8   8   8   8   8   8   8   8
#     4  10  20  35  59  85 108 141 186 231 279 333
#     4   9  19  38  59  81 113 150 185 229 285 340
#     4   9  17  32  54  77 105 143 182 216 265 336
#     4  10  23  41  60  82 112 152 196 240 287 334
#     4   9  16  32  56  78 104 141 184 224 269 335
#     4  11  21  34  54  82 115 147 183 225 275 335
#     4  10  21  37  57  80 111 150 190 230 278 335
#     4  10  20  36  58  80 107 146 184 224 279 335
#
# _framework density 19.4937
#
# number of rings (size 3 to 8) (size 9 to 14) (size 15 to 20)
#    0.000    2.250    2.500    0.375    3.500    0.500 
#    0.000    2.500    0.000    0.000    0.000    0.000 
#    0.000    0.000    0.000    0.000    0.000    0.000 
#
# Total GULP energy -792869.307263 kJ/mol
# GULP energy per Si atom -12388.582926 kJ/mol
# Density = 1.944933 g / cm^3
# Si number density = 19.493700 Si / 1000 Ang^3
#
#
#
# Elastic Constant Matrix: (Units=GPa)
#
#
# Indices 1 2 3 4 5 6 
#
# 1 131.0422 12.8637 52.6827 0.0000 0.0000 0.0000
# 2 12.8637 17.8191 32.7532 0.0000 0.0000 0.0000
# 3 52.6827 32.7532 120.9868 0.0000 0.0000 0.0000
# 4 0.0000 0.0000 0.0000 32.0398 0.0000 0.0000
# 5 0.0000 0.0000 0.0000 0.0000 30.0672 0.0000
# 6 0.0000 0.0000 0.0000 0.0000 0.0000 19.6410
#
#
#
# Elastic Compliance Matrix: (Units=1/GPa)
#
#
# Indices 1 2 3 4 5 6 
#
# 1 0.009269 0.001448 -0.004428 0.000000 0.000000 0.000000
# 2 0.001448 0.111930 -0.030932 0.000000 0.000000 0.000000
# 3 -0.004428 -0.030932 0.018567 0.000000 0.000000 0.000000
# 4 0.000000 0.000000 0.000000 0.031211 0.000000 0.000000
# 5 0.000000 0.000000 0.000000 0.000000 0.033259 0.000000
# 6 0.000000 0.000000 0.000000 0.000000 0.000000 0.050914
#
#
# Mechanical properties :
#
#
# Convention : Reuss Voigt Hill
#
# Bulk Modulus (GPa) = 13.90001 51.82748 32.86374
# Shear Modulus (GPa) = 14.41107 27.78616 21.09862
#
# Velocity S-wave (km/s) = 2.72190 3.77953 3.29345
# Velocity P-wave (km/s) = 4.12605 6.75951 5.59979
#
# Compressibility (1/GPa) = 0.07194241
#
# Stress axis : x y z
#
# Youngs Moduli (GPa) = 107.88350 8.93416 53.85793
#
# Poissons Ratio (x) = -0.01294 0.23849
# Poissons Ratio (y) = -0.15621 1.66593
# Poissons Ratio (z) = 0.47773 0.27635
#
# Static dielectric constant tensor:
#      x y z
#    x 4.072960 0.000000 0.000000 
#    y 0.000000 3.131610 0.000000 
#    z 0.000000 0.000000 3.876790 
# 
# 
# High freq. dielectric constant tensor:
#      x y z
#    x 1.778650 0.000000 0.000000 
#    y 0.000000 1.710180 0.000000 
#    z 0.000000 0.000000 1.765870 
# 
# From -- ./inp_files/20791.got.cif
#   From: 2010.03.12/outbox.cif.g09.slc.cpg/sg62_11_cif.got.tgz:20791.got - 2010.04.10 19:12:36.
