data_PCOD8252269
_publ_section_title
;
Structure prediction by ZEFSAII (Michael W. Deem and Ramdas Pophale) SiO2 
 PCOD8252269
Probable space group: P N M A
;
_chemical_formula_sum "Si O2"
_cell_formula_units_Z 48
_cell_length_a 15.222962
_cell_length_b 9.134880
_cell_length_c 18.926212
_cell_angle_alpha 90.000000
_cell_angle_beta 90.000000
_cell_angle_gamma 90.000000
_cell_volume 2631.877737
_symmetry_space_group_name_H-M "P N M A"
_symmetry_group_IT_number 62
_symmetry_cell_setting 'orthorhombic'
loop_
_space_group_symop_operation_xyz
x,y,z
1/2-x,-y,1/2+z
1/2+x,1/2-y,1/2-z
-x,1/2+y,-z
-x,-y,-z
1/2+x,y,1/2-z
1/2-x,1/2+y,1/2+z
x,1/2-y,z
loop_
_atom_site_type_symbol
_atom_site_label
_atom_site_fract_x
_atom_site_fract_y
_atom_site_fract_z
Si Si1 0.398388 0.083191 0.670622
Si Si2 0.254759 0.922706 0.582854
Si Si3 0.249098 0.576377 0.424591
Si Si4 0.908715 0.423216 0.322657
Si Si5 0.087017 0.577857 0.332192
Si Si6 0.901433 0.920065 0.177401
O O1 0.370940 0.250000 0.656601
O O2 0.383046 0.042198 0.752445
O O3 0.499757 0.055754 0.650119
O O4 0.340411 0.981058 0.621836
O O5 0.264136 0.750000 0.580394
O O6 0.250854 0.988366 0.503618
O O7 0.166632 0.970402 0.622760
O O8 0.246093 0.750000 0.426565
O O9 0.162510 0.519440 0.384268
O O10 0.336152 0.523770 0.383526
O O11 0.919224 0.250000 0.316736
O O12 0.881968 0.486569 0.246905
O O13 0.998760 0.491657 0.351625
O O14 0.067941 0.750000 0.340349
O O15 0.885389 0.750000 0.196573
#
# Coordination Sequence:
#
# PCOD8252269 Si02
#       6
#     8   8   8   8   8   8
#     4   9  18  32  52  77  98 123 166 211 245 284
#     4  10  21  34  49  73 105 137 163 196 250 303
#     4   9  18  34  54  74  99 133 170 204 241 292
#     4  10  20  33  50  75 105 131 160 204 254 298
#     4   9  18  34  56  76  95 128 173 211 241 284
#     4   9  18  35  57  75  94 128 172 209 241 287
#
# _framework density 18.237928
#
# number of rings (size 3 to 8) (size 9 to 14) (size 15 to 20)
#    0.000    2.667    0.000    2.500    0.000    6.667 
#    0.000    2.500    0.000    0.000    0.000    0.000 
#    0.000    0.000    0.000    0.000    0.000    0.000 
#
# Total GULP energy -595257.373798 kJ/mol
# GULP energy per Si atom -12401.195287 kJ/mol
# Density = 1.819642 g / cm^3
# Si number density = 18.237928 Si / 1000 Ang^3
#
#
#
# Elastic Constant Matrix: (Units=GPa)
#
#
# Indices 1 2 3 4 5 6 
#
# 1 145.2543 41.9639 99.3084 0.0000 0.0000 0.0000
# 2 41.9639 33.2645 33.4336 0.0000 0.0000 0.0000
# 3 99.3084 33.4336 136.3301 0.0000 0.0000 0.0000
# 4 0.0000 0.0000 0.0000 21.2133 0.0000 0.0000
# 5 0.0000 0.0000 0.0000 0.0000 14.8492 0.0000
# 6 0.0000 0.0000 0.0000 0.0000 0.0000 25.1671
#
#
#
# Elastic Compliance Matrix: (Units=1/GPa)
#
#
# Indices 1 2 3 4 5 6 
#
# 1 0.016517 -0.011604 -0.009186 0.000000 0.000000 0.000000
# 2 -0.011604 0.048048 -0.003330 0.000000 0.000000 0.000000
# 3 -0.009186 -0.003330 0.014843 0.000000 0.000000 0.000000
# 4 0.000000 0.000000 0.000000 0.047140 0.000000 0.000000
# 5 0.000000 0.000000 0.000000 0.000000 0.067344 0.000000
# 6 0.000000 0.000000 0.000000 0.000000 0.000000 0.039734
#
#
# Mechanical properties :
#
#
# Convention : Reuss Voigt Hill
#
# Bulk Modulus (GPa) = 32.08443 73.80675 52.94559
# Shear Modulus (GPa) = 17.10817 21.58879 19.34848
#
# Velocity S-wave (km/s) = 3.06609 3.44427 3.26067
# Velocity P-wave (km/s) = 5.49226 7.50826 6.57795
#
# Compressibility (1/GPa) = 0.03116776
#
# Stress axis : x y z
#
# Youngs Moduli (GPa) = 60.54249 20.81233 67.37006
#
# Poissons Ratio (x) = 0.24151 0.61887
# Poissons Ratio (y) = 0.70255 0.22437
# Poissons Ratio (z) = 0.55615 0.06931
#
# Static dielectric constant tensor:
#      x y z
#    x 3.501000 0.000000 0.000000 
#    y 0.000000 3.121640 0.000000 
#    z 0.000000 0.000000 3.504890 
# 
# 
# High freq. dielectric constant tensor:
#      x y z
#    x 1.720060 0.000000 0.000000 
#    y 0.000000 1.683860 0.000000 
#    z 0.000000 0.000000 1.704340 
# 
# From -- ./inp_files/23708.got.cif
#   From: 2010.03.12/outbox.cif.g09.slc.cpg/sg62_12_cif.got.tgz:23708.got - 2010.04.10 19:12:36.
