data_PCOD8252577
_publ_section_title
;
Structure prediction by ZEFSAII (Michael W. Deem and Ramdas Pophale) SiO2 
 PCOD8252577
Probable space group: P N M A
;
_chemical_formula_sum "Si O2"
_cell_formula_units_Z 64
_cell_length_a 19.200327
_cell_length_b 9.226519
_cell_length_c 18.871325
_cell_angle_alpha 90.000000
_cell_angle_beta 90.000000
_cell_angle_gamma 90.000000
_cell_volume 3343.096399
_symmetry_space_group_name_H-M "P N M A"
_symmetry_group_IT_number 62
_symmetry_cell_setting 'orthorhombic'
loop_
_space_group_symop_operation_xyz
x,y,z
1/2-x,-y,1/2+z
1/2+x,1/2-y,1/2-z
-x,1/2+y,-z
-x,-y,-z
1/2+x,y,1/2-z
1/2-x,1/2+y,1/2+z
x,1/2-y,z
loop_
_atom_site_type_symbol
_atom_site_label
_atom_site_fract_x
_atom_site_fract_y
_atom_site_fract_z
Si Si1 0.407742 0.415556 0.040965
Si Si2 0.464396 0.582772 0.629256
Si Si3 0.739185 0.917581 0.896806
Si Si4 0.609631 0.417090 0.223700
Si Si5 0.765968 0.421431 0.237073
Si Si6 0.879104 0.421204 0.128635
Si Si7 0.134791 0.921873 0.032114
Si Si8 0.027338 0.919195 0.393371
O O1 0.429109 0.250000 0.056556
O O2 0.326440 0.441222 0.052416
O O3 0.450894 0.515052 0.094752
O O4 0.423753 0.458083 0.960067
O O5 0.466766 0.750000 0.604785
O O6 0.413390 0.561788 0.695460
O O7 0.542479 0.528635 0.648009
O O8 0.435889 0.487677 0.564375
O O9 0.764340 0.750000 0.896438
O O10 0.718157 0.968051 0.817742
O O11 0.799712 0.017833 0.925615
O O12 0.602454 0.250000 0.200649
O O13 0.688676 0.474077 0.215246
O O14 0.560030 0.513062 0.176076
O O15 0.768512 0.250000 0.231244
O O16 0.823941 0.490945 0.184475
O O17 0.873931 0.250000 0.134794
O O18 0.859427 0.471434 0.049500
O O19 0.132201 0.750000 0.039733
O O20 0.019208 0.750000 0.381293
#
# Coordination Sequence:
#
# PCOD8252577 Si02
#       8
#     8   8   8   8   8   8   8   8
#     4   9  20  37  58  83 109 146 193 233 275 330
#     4  10  20  38  61  83 108 147 198 237 272 327
#     4  10  20  37  61  82 107 146 192 233 268 324
#     4  10  20  34  57  83 108 147 193 231 275 330
#     4   9  18  35  56  81 108 139 186 235 273 321
#     4   9  20  35  57  86 112 141 184 237 284 329
#     4  11  22  36  56  84 117 149 179 226 294 344
#     4  10  21  36  54  82 118 148 181 231 287 337
#
# _framework density 19.143929
#
# number of rings (size 3 to 8) (size 9 to 14) (size 15 to 20)
#    0.000    2.250    1.250    1.125    3.500    1.500 
#    0.000    0.625    0.000    2.250    0.000    0.000 
#    0.000    0.000    0.000    0.000    0.000    0.000 
#
# Total GULP energy -793681.588374 kJ/mol
# GULP energy per Si atom -12401.274818 kJ/mol
# Density = 1.910036 g / cm^3
# Si number density = 19.143929 Si / 1000 Ang^3
#
#
#
# Elastic Constant Matrix: (Units=GPa)
#
#
# Indices 1 2 3 4 5 6 
#
# 1 114.8735 31.2545 48.5577 0.0000 0.0000 0.0000
# 2 31.2545 55.7018 29.4833 0.0000 0.0000 0.0000
# 3 48.5577 29.4833 83.8483 0.0000 0.0000 0.0000
# 4 0.0000 0.0000 0.0000 19.0648 0.0000 0.0000
# 5 0.0000 0.0000 0.0000 0.0000 38.0236 0.0000
# 6 0.0000 0.0000 0.0000 0.0000 0.0000 22.2558
#
#
#
# Elastic Compliance Matrix: (Units=1/GPa)
#
#
# Indices 1 2 3 4 5 6 
#
# 1 0.012148 -0.003800 -0.005699 0.000000 0.000000 0.000000
# 2 -0.003800 0.023247 -0.005974 0.000000 0.000000 0.000000
# 3 -0.005699 -0.005974 0.017327 0.000000 0.000000 0.000000
# 4 0.000000 0.000000 0.000000 0.052453 0.000000 0.000000
# 5 0.000000 0.000000 0.000000 0.000000 0.026299 0.000000
# 6 0.000000 0.000000 0.000000 0.000000 0.000000 0.044932
#
#
# Mechanical properties :
#
#
# Convention : Reuss Voigt Hill
#
# Bulk Modulus (GPa) = 45.91993 52.55717 49.23855
# Shear Modulus (GPa) = 23.29806 25.54403 24.42105
#
# Velocity S-wave (km/s) = 3.49233 3.65679 3.57551
# Velocity P-wave (km/s) = 6.34827 6.73371 6.54383
#
# Compressibility (1/GPa) = 0.02177704
#
# Stress axis : x y z
#
# Youngs Moduli (GPa) = 82.31750 43.01686 57.71285
#
# Poissons Ratio (x) = 0.16346 0.32891
# Poissons Ratio (y) = 0.31279 0.34475
# Poissons Ratio (z) = 0.46913 0.25697
#
# Static dielectric constant tensor:
#      x y z
#    x 3.681340 0.000000 0.000000 
#    y 0.000000 3.242010 0.000000 
#    z 0.000000 0.000000 3.616850 
# 
# 
# High freq. dielectric constant tensor:
#      x y z
#    x 1.756820 0.000000 0.000000 
#    y 0.000000 1.712740 0.000000 
#    z 0.000000 0.000000 1.750000 
# 
# From -- ./inp_files/24777.got.cif
#   From: 2010.03.12/outbox.cif.g09.slc.cpg/sg62_13_cif.got.tgz:24777.got - 2010.04.10 19:12:36.
