data_PCOD8252264
_publ_section_title
;
Structure prediction by ZEFSAII (Michael W. Deem and Ramdas Pophale) SiO2 
 PCOD8252264
Probable space group: P N M A
;
_chemical_formula_sum "Si O2"
_cell_formula_units_Z 40
_cell_length_a 10.294982
_cell_length_b 9.665012
_cell_length_c 21.665539
_cell_angle_alpha 90.000000
_cell_angle_beta 90.000000
_cell_angle_gamma 90.000000
_cell_volume 2155.745495
_symmetry_space_group_name_H-M "P N M A"
_symmetry_group_IT_number 62
_symmetry_cell_setting 'orthorhombic'
loop_
_space_group_symop_operation_xyz
x,y,z
1/2-x,-y,1/2+z
1/2+x,1/2-y,1/2-z
-x,1/2+y,-z
-x,-y,-z
1/2+x,y,1/2-z
1/2-x,1/2+y,1/2+z
x,1/2-y,z
loop_
_atom_site_type_symbol
_atom_site_label
_atom_site_fract_x
_atom_site_fract_y
_atom_site_fract_z
Si Si1 0.315596 0.585654 0.214643
Si Si2 0.041127 0.407874 0.942684
Si Si3 0.095193 0.088820 0.581814
Si Si4 0.970974 0.085125 0.808151
Si Si5 0.674552 0.594713 0.024701
O O1 0.320259 0.750000 0.217298
O O2 0.372258 0.533565 0.149613
O O3 0.408450 0.524105 0.268396
O O4 0.166160 0.534485 0.221209
O O5 0.996380 0.250000 0.954945
O O6 0.979917 0.466042 0.879098
O O7 0.196403 0.415989 0.934472
O O8 0.000000 0.500000 0.000000
O O9 0.128669 0.250000 0.575050
O O10 0.944481 0.054877 0.569298
O O11 0.185095 0.008294 0.533149
O O12 0.978129 0.250000 0.807864
O O13 0.655252 0.750000 0.998771
#
# Coordination Sequence:
#
# PCOD8252264 Si02
#       5
#     8   8   8   8   8
#     4   9  17  28  45  68  95 125 158 198 243 287
#     4  10  20  33  50  72 100 129 164 204 245 290
#     4   9  17  30  49  72  99 127 159 198 242 289
#     4   9  18  29  45  70  97 126 160 200 245 289
#     4   9  18  30  47  72  98 128 161 197 240 288
#
# _framework density 18.555066
#
# number of rings (size 3 to 8) (size 9 to 14) (size 15 to 20)
#    0.000    2.800    0.000    1.200    2.800    2.400 
#    0.000    0.000    0.000    1.200    0.000    0.000 
#    0.000    0.000    0.000    0.000    0.000    0.000 
#
# Total GULP energy -495873.937477 kJ/mol
# GULP energy per Si atom -12396.848437 kJ/mol
# Density = 1.851283 g / cm^3
# Si number density = 18.555066 Si / 1000 Ang^3
#
#
#
# Elastic Constant Matrix: (Units=GPa)
#
#
# Indices 1 2 3 4 5 6 
#
# 1 119.2278 17.2629 69.6697 0.0000 0.0000 0.0000
# 2 17.2629 28.8522 26.8160 0.0000 0.0000 0.0000
# 3 69.6697 26.8160 132.0559 0.0000 0.0000 0.0000
# 4 0.0000 0.0000 0.0000 21.6610 0.0000 0.0000
# 5 0.0000 0.0000 0.0000 0.0000 33.1020 0.0000
# 6 0.0000 0.0000 0.0000 0.0000 0.0000 15.7056
#
#
#
# Elastic Compliance Matrix: (Units=1/GPa)
#
#
# Indices 1 2 3 4 5 6 
#
# 1 0.012187 -0.001622 -0.006100 0.000000 0.000000 0.000000
# 2 -0.001622 0.042939 -0.007864 0.000000 0.000000 0.000000
# 3 -0.006100 -0.007864 0.012388 0.000000 0.000000 0.000000
# 4 0.000000 0.000000 0.000000 0.046166 0.000000 0.000000
# 5 0.000000 0.000000 0.000000 0.000000 0.030210 0.000000
# 6 0.000000 0.000000 0.000000 0.000000 0.000000 0.063671
#
#
# Mechanical properties :
#
#
# Convention : Reuss Voigt Hill
#
# Bulk Modulus (GPa) = 27.51671 56.40368 41.96019
# Shear Modulus (GPa) = 19.93263 25.18621 22.55942
#
# Velocity S-wave (km/s) = 3.28112 3.68826 3.49063
# Velocity P-wave (km/s) = 5.40521 6.97149 6.23770
#
# Compressibility (1/GPa) = 0.03634155
#
# Stress axis : x y z
#
# Youngs Moduli (GPa) = 82.05698 23.28906 80.72578
#
# Poissons Ratio (x) = 0.03778 0.49243
# Poissons Ratio (y) = 0.13310 0.63480
# Poissons Ratio (z) = 0.50055 0.18314
#
# Static dielectric constant tensor:
#      x y z
#    x 3.713340 0.000000 0.000000 
#    y 0.000000 3.015350 0.000000 
#    z 0.000000 0.000000 3.471580 
# 
# 
# High freq. dielectric constant tensor:
#      x y z
#    x 1.740300 0.000000 0.000000 
#    y 0.000000 1.660420 0.000000 
#    z 0.000000 0.000000 1.717050 
# 
# From -- ./inp_files/21896.got.cif
#   From: 2010.03.12/outbox.cif.g09.slc.cpg/sg62_11_cif.got.tgz:21896.got - 2010.04.10 19:12:36.
