data_PCOD8252107
_publ_section_title
;
Structure prediction by ZEFSAII (Michael W. Deem and Ramdas Pophale) SiO2 
 PCOD8252107
Probable space group: P N M A
;
_chemical_formula_sum "Si O2"
_cell_formula_units_Z 20
_cell_length_a 20.121419
_cell_length_b 5.408793
_cell_length_c 6.813265
_cell_angle_alpha 90.000000
_cell_angle_beta 90.000000
_cell_angle_gamma 90.000000
_cell_volume 741.505278
_symmetry_space_group_name_H-M "P N M A"
_symmetry_group_IT_number 62
_symmetry_cell_setting 'orthorhombic'
loop_
_space_group_symop_operation_xyz
x,y,z
1/2-x,-y,1/2+z
1/2+x,1/2-y,1/2-z
-x,1/2+y,-z
-x,-y,-z
1/2+x,y,1/2-z
1/2-x,1/2+y,1/2+z
x,1/2-y,z
loop_
_atom_site_type_symbol
_atom_site_label
_atom_site_fract_x
_atom_site_fract_y
_atom_site_fract_z
Si Si1 0.093695 0.750000 0.538815
Si Si2 0.821186 0.750000 0.920102
Si Si3 0.536534 0.250000 0.556853
Si Si4 0.442305 0.750000 0.973311
Si Si5 0.791761 0.250000 0.140032
O O1 0.098098 0.498384 0.408487
O O2 0.149058 0.750000 0.702264
O O3 0.016388 0.750000 0.620679
O O4 0.783789 0.750000 0.714102
O O5 0.900630 0.750000 0.908050
O O6 0.797053 0.500823 0.022451
O O7 0.500000 0.500000 0.500000
O O8 0.556604 0.250000 0.786144
#
# Coordination Sequence:
#
# PCOD8252107 Si02
#       5
#     4   4   4   4   4
#     4  10  19  37  65  86 123 165 217 267 324 391
#     4  12  27  46  72 102 140 190 233 286 358 411
#     4  12  24  41  66  97 137 172 218 283 346 411
#     4  10  20  36  61  95 119 167 213 262 329 398
#     4  12  24  46  70 100 141 184 237 292 343 429
#
# _framework density 26.972158
#
# number of rings (size 3 to 8) (size 9 to 14) (size 15 to 20)
#    0.000    0.800    4.000    3.600    0.000    3.200 
#    0.000    0.000    0.000    0.000    0.000    0.000 
#    0.000    0.000    0.000    0.000    0.000    0.000 
#
# Total GULP energy -247768.149242 kJ/mol
# GULP energy per Si atom -12388.407462 kJ/mol
# Density = 2.691077 g / cm^3
# Si number density = 26.972158 Si / 1000 Ang^3
#
#
#
# Elastic Constant Matrix: (Units=GPa)
#
#
# Indices 1 2 3 4 5 6 
#
# 1 141.3109 62.8371 21.3275 0.0000 0.0000 0.0000
# 2 62.8371 314.9459 22.4996 0.0000 0.0000 0.0000
# 3 21.3275 22.4996 39.6902 0.0000 0.0000 0.0000
# 4 0.0000 0.0000 0.0000 39.9188 0.0000 0.0000
# 5 0.0000 0.0000 0.0000 0.0000 38.8367 0.0000
# 6 0.0000 0.0000 0.0000 0.0000 0.0000 43.8183
#
#
#
# Elastic Compliance Matrix: (Units=1/GPa)
#
#
# Indices 1 2 3 4 5 6 
#
# 1 0.008242 -0.001384 -0.003644 0.000000 0.000000 0.000000
# 2 -0.001384 0.003542 -0.001264 0.000000 0.000000 0.000000
# 3 -0.003644 -0.001264 0.027870 0.000000 0.000000 0.000000
# 4 0.000000 0.000000 0.000000 0.025051 0.000000 0.000000
# 5 0.000000 0.000000 0.000000 0.000000 0.025749 0.000000
# 6 0.000000 0.000000 0.000000 0.000000 0.000000 0.022822
#
#
# Mechanical properties :
#
#
# Convention : Reuss Voigt Hill
#
# Bulk Modulus (GPa) = 36.94263 78.80836 57.87549
# Shear Modulus (GPa) = 37.06936 50.46695 43.76815
#
# Velocity S-wave (km/s) = 3.71125 4.33029 4.03267
# Velocity P-wave (km/s) = 5.66488 7.36775 6.57170
#
# Compressibility (1/GPa) = 0.02706900
#
# Stress axis : x y z
#
# Youngs Moduli (GPa) = 121.32865 282.35890 35.88105
#
# Poissons Ratio (x) = 0.39081 0.13076
# Poissons Ratio (y) = 0.16793 0.04535
# Poissons Ratio (z) = 0.44215 0.35688
#
# Static dielectric constant tensor:
#      x y z
#    x 5.149600 0.000000 0.000000 
#    y 0.000000 6.231490 0.000000 
#    z 0.000000 0.000000 4.979230 
# 
# 
# High freq. dielectric constant tensor:
#      x y z
#    x 2.083970 0.000000 0.000000 
#    y 0.000000 2.144250 0.000000 
#    z 0.000000 0.000000 2.070300 
# 
# From -- ./inp_files/7042.got.cif
#   From: 2010.03.12/outbox.cif.g09.slc.cpg/sg62_4_cif.got.tgz:7042.got - 2010.04.10 19:12:36.
