data_PCOD8252055
_publ_section_title
;
Structure prediction by ZEFSAII (Michael W. Deem and Ramdas Pophale) SiO2 
 PCOD8252055
Probable space group: P N M A
;
_chemical_formula_sum "Si O2"
_cell_formula_units_Z 64
_cell_length_a 30.902441
_cell_length_b 8.565231
_cell_length_c 11.981130
_cell_angle_alpha 90.000000
_cell_angle_beta 90.000000
_cell_angle_gamma 90.000000
_cell_volume 3171.243912
_symmetry_space_group_name_H-M "P N M A"
_symmetry_group_IT_number 62
_symmetry_cell_setting 'orthorhombic'
loop_
_space_group_symop_operation_xyz
x,y,z
1/2-x,-y,1/2+z
1/2+x,1/2-y,1/2-z
-x,1/2+y,-z
-x,-y,-z
1/2+x,y,1/2-z
1/2-x,1/2+y,1/2+z
x,1/2-y,z
loop_
_atom_site_type_symbol
_atom_site_label
_atom_site_fract_x
_atom_site_fract_y
_atom_site_fract_z
Si Si1 0.547759 0.566101 0.760668
Si Si2 0.373400 0.435972 0.636334
Si Si3 0.828985 0.930071 0.509072
Si Si4 0.042571 0.569001 0.263740
Si Si5 0.708746 0.932230 0.222075
Si Si6 0.421327 0.068198 0.999352
Si Si7 0.873341 0.065190 0.114530
Si Si8 0.200754 0.931886 0.718801
O O1 0.549199 0.750000 0.754845
O O2 0.501071 0.509915 0.718800
O O3 0.555806 0.510004 0.887605
O O4 0.585140 0.496092 0.680667
O O5 0.374310 0.250000 0.638563
O O6 0.416112 0.501951 0.698431
O O7 0.330794 0.493134 0.701459
O O8 0.372184 0.503723 0.510669
O O9 0.820129 0.750000 0.537286
O O10 0.802187 0.038389 0.593256
O O11 0.879337 0.965412 0.521513
O O12 0.813234 0.965563 0.385392
O O13 0.038952 0.750000 0.236460
O O14 0.046620 0.538273 0.396128
O O15 0.718523 0.750000 0.241365
O O16 0.749892 0.034995 0.252995
O O17 0.407599 0.250000 0.006790
O O18 0.877385 0.250000 0.107787
O O19 0.829328 0.016842 0.177277
O O20 0.193833 0.750000 0.691329
#
# Coordination Sequence:
#
# PCOD8252055 Si02
#       8
#     8   8   8   8   8   8   8   8
#     4  10  20  35  57  84 117 155 197 244 302 363
#     4   9  19  37  60  84 116 158 198 240 298 363
#     4  12  24  39  63  92 123 160 205 251 304 363
#     4  10  20  35  57  84 117 155 197 244 302 363
#     4  11  23  41  64  91 125 160 201 251 303 364
#     4  10  19  37  59  84 118 158 198 247 311 361
#     4   9  19  37  60  84 116 158 198 240 298 363
#     4  11  23  41  64  91 125 160 201 251 303 364
#
# _framework density 20.181356000000001
#
# number of rings (size 3 to 8) (size 9 to 14) (size 15 to 20)
#    0.000    1.750    2.500    2.250    1.750    1.500 
#    0.000    0.000    0.000    3.000    0.000    0.000 
#    0.000    0.000    0.000    0.000    0.000    0.000 
#
# Total GULP energy -793774.406516 kJ/mol
# GULP energy per Si atom -12402.725102 kJ/mol
# Density = 2.013542 g / cm^3
# Si number density = 20.181356 Si / 1000 Ang^3
#
#
#
# Elastic Constant Matrix: (Units=GPa)
#
#
# Indices 1 2 3 4 5 6 
#
# 1 351.2009 -51.5726 225.4561 0.0000 0.0000 0.0000
# 2 -51.5726 54.8366 -45.8860 0.0000 0.0000 0.0000
# 3 225.4561 -45.8860 284.6052 0.0000 0.0000 0.0000
# 4 0.0000 0.0000 0.0000 15.6396 0.0000 0.0000
# 5 0.0000 0.0000 0.0000 0.0000 -4.3232 0.0000
# 6 0.0000 0.0000 0.0000 0.0000 0.0000 35.0791
#
#
#
# Elastic Compliance Matrix: (Units=1/GPa)
#
#
# Indices 1 2 3 4 5 6 
#
# 1 0.005962 0.001913 -0.004415 0.000000 0.000000 0.000000
# 2 0.001913 0.021694 0.001982 0.000000 0.000000 0.000000
# 3 -0.004415 0.001982 0.007330 0.000000 0.000000 0.000000
# 4 0.000000 0.000000 0.000000 0.063940 0.000000 0.000000
# 5 0.000000 0.000000 0.000000 0.000000 -0.231310 0.000000
# 6 0.000000 0.000000 0.000000 0.000000 0.000000 0.028507
#
#
# Mechanical properties :
#
#
# Convention : Reuss Voigt Hill
#
# Bulk Modulus (GPa) = 29.45698 105.18195 67.31946
# Shear Modulus (GPa) = -54.63211 46.78880 -3.92165
#
# Velocity S-wave (km/s) = -5.20858 4.82022 -1.39550
# Velocity P-wave (km/s) = 4.64162 9.12200 5.55276
#
# Compressibility (1/GPa) = 0.03394782
#
# Stress axis : x y z
#
# Youngs Moduli (GPa) = 167.71597 46.09587 136.41704
#
# Poissons Ratio (x) = -0.08820 0.60225
# Poissons Ratio (y) = -0.32090 -0.27037
# Poissons Ratio (z) = 0.74043 -0.09136
#
# Static dielectric constant tensor:
#      x y z
#    x 3.871350 0.000000 0.000000 
#    y 0.000000 3.276970 0.000000 
#    z 0.000000 0.000000 4.111780 
# 
# 
# High freq. dielectric constant tensor:
#      x y z
#    x 1.798870 0.000000 0.000000 
#    y 0.000000 1.755100 0.000000 
#    z 0.000000 0.000000 1.794730 
# 
# From -- ./inp_files/15870.got.cif
#   From: 2010.03.12/outbox.cif.g09.slc.cpg/sg62_8_cif.got.tgz:15870.got - 2010.04.10 19:12:36.
