data_PCOD8252019
_publ_section_title
;
Structure prediction by ZEFSAII (Michael W. Deem and Ramdas Pophale) SiO2 
 PCOD8252019
Probable space group: P N M A
;
_chemical_formula_sum "Si O2"
_cell_formula_units_Z 56
_cell_length_a 12.237988
_cell_length_b 14.988139
_cell_length_c 14.015170
_cell_angle_alpha 90.000000
_cell_angle_beta 90.000000
_cell_angle_gamma 90.000000
_cell_volume 2570.727865
_symmetry_space_group_name_H-M "P N M A"
_symmetry_group_IT_number 62
_symmetry_cell_setting 'orthorhombic'
loop_
_space_group_symop_operation_xyz
x,y,z
1/2-x,-y,1/2+z
1/2+x,1/2-y,1/2-z
-x,1/2+y,-z
-x,-y,-z
1/2+x,y,1/2-z
1/2-x,1/2+y,1/2+z
x,1/2-y,z
loop_
_atom_site_type_symbol
_atom_site_label
_atom_site_fract_x
_atom_site_fract_y
_atom_site_fract_z
Si Si1 0.186327 0.419542 0.104113
Si Si2 0.096134 0.650934 0.682755
Si Si3 0.607007 0.462294 0.193744
Si Si4 0.826781 0.101593 0.114190
Si Si5 0.300484 0.346803 0.788650
Si Si6 0.348827 0.118742 0.588031
Si Si7 0.903093 0.592094 0.092199
O O1 0.300671 0.369253 0.116225
O O2 0.117863 0.417705 0.201724
O O3 0.205975 0.521797 0.076433
O O4 0.123585 0.373757 0.015448
O O5 0.051175 0.750000 0.658135
O O6 0.131068 0.653279 0.793492
O O7 0.008922 0.573748 0.656535
O O8 0.701262 0.426683 0.125550
O O9 0.614593 0.571034 0.193782
O O10 0.903732 0.015107 0.099439
O O11 0.834877 0.162226 0.017668
O O12 0.342068 0.250000 0.828549
O O13 0.284477 0.333973 0.674142
O O14 0.182370 0.367473 0.832749
O O15 0.475898 0.122473 0.619170
#
# Coordination Sequence:
#
# PCOD8252019 Si02
#       7
#     8   8   8   8   8   8   8
#     4   9  19  36  60  86 112 147 193 242 293 353
#     4  11  22  36  57  88 125 160 193 238 299 355
#     4   9  19  37  59  85 122 158 196 244 294 348
#     4   9  18  35  58  86 112 146 194 244 293 350
#     4  10  22  37  55  84 119 155 200 249 293 342
#     4  10  19  36  62  86 111 146 193 243 294 349
#     4  10  19  37  62  83 110 148 192 244 297 351
#
# _framework density 21.783715000000001
#
# number of rings (size 3 to 8) (size 9 to 14) (size 15 to 20)
#    0.000    2.286    0.000    5.143    0.000    4.000 
#    0.000    9.286    0.000    0.000    0.000    0.000 
#    0.000    0.000    0.000    0.000    0.000    0.000 
#
# Total GULP energy -693832.264043 kJ/mol
# GULP energy per Si atom -12389.861858 kJ/mol
# Density = 2.173413 g / cm^3
# Si number density = 21.783715 Si / 1000 Ang^3
#
#
#
# Elastic Constant Matrix: (Units=GPa)
#
#
# Indices 1 2 3 4 5 6 
#
# 1 80.2065 40.3699 44.3060 0.0000 0.0000 0.0000
# 2 40.3699 118.7808 15.4086 0.0000 0.0000 0.0000
# 3 44.3060 15.4086 101.3952 0.0000 0.0000 0.0000
# 4 0.0000 0.0000 0.0000 -0.2257 0.0000 0.0000
# 5 0.0000 0.0000 0.0000 0.0000 26.3750 0.0000
# 6 0.0000 0.0000 0.0000 0.0000 0.0000 15.9510
#
#
#
# Elastic Compliance Matrix: (Units=1/GPa)
#
#
# Indices 1 2 3 4 5 6 
#
# 1 0.019558 -0.005650 -0.007688 0.000000 0.000000 0.000000
# 2 -0.005650 0.010220 0.000916 0.000000 0.000000 0.000000
# 3 -0.007688 0.000916 0.013082 0.000000 0.000000 0.000000
# 4 0.000000 0.000000 0.000000 -4.431108 0.000000 0.000000
# 5 0.000000 0.000000 0.000000 0.000000 0.037915 0.000000
# 6 0.000000 0.000000 0.000000 0.000000 0.000000 0.062692
#
#
# Mechanical properties :
#
#
# Convention : Reuss Voigt Hill
#
# Bulk Modulus (GPa) = 55.50251 55.61683 55.55967
# Shear Modulus (GPa) = -1.17459 21.77326 10.29933
#
# Velocity S-wave (km/s) = -0.73510 3.16495 2.17675
# Velocity P-wave (km/s) = 4.98134 6.24041 5.64608
#
# Compressibility (1/GPa) = 0.01801720
#
# Stress axis : x y z
#
# Youngs Moduli (GPa) = 51.12937 97.84420 76.43822
#
# Poissons Ratio (x) = 0.55282 0.58763
# Poissons Ratio (y) = 0.28888 -0.06999
# Poissons Ratio (z) = 0.39306 -0.08960
#
# Static dielectric constant tensor:
#      x y z
#    x 3.671440 0.000000 0.000000 
#    y 0.000000 3.755010 0.000000 
#    z 0.000000 0.000000 4.326850 
# 
# 
# High freq. dielectric constant tensor:
#      x y z
#    x 1.836300 0.000000 0.000000 
#    y 0.000000 1.837030 0.000000 
#    z 0.000000 0.000000 1.859840 
# 
# From -- ./inp_files/18106.got.cif
#   From: 2010.03.12/outbox.cif.g09.slc.cpg/sg62_10_cif.got.tgz:18106.got - 2010.04.10 19:12:36.
