data_PCOD8252482
_publ_section_title
;
Structure prediction by ZEFSAII (Michael W. Deem and Ramdas Pophale) SiO2 
 PCOD8252482
Probable space group: P N M A
;
_chemical_formula_sum "Si O2"
_cell_formula_units_Z 48
_cell_length_a 14.235907
_cell_length_b 8.561411
_cell_length_c 18.919196
_cell_angle_alpha 90.000000
_cell_angle_beta 90.000000
_cell_angle_gamma 90.000000
_cell_volume 2305.861218
_symmetry_space_group_name_H-M "P N M A"
_symmetry_group_IT_number 62
_symmetry_cell_setting 'orthorhombic'
loop_
_space_group_symop_operation_xyz
x,y,z
1/2-x,-y,1/2+z
1/2+x,1/2-y,1/2-z
-x,1/2+y,-z
-x,-y,-z
1/2+x,y,1/2-z
1/2-x,1/2+y,1/2+z
x,1/2-y,z
loop_
_atom_site_type_symbol
_atom_site_label
_atom_site_fract_x
_atom_site_fract_y
_atom_site_fract_z
Si Si1 0.178125 0.933893 0.482368
Si Si2 0.674194 0.931185 0.278945
Si Si3 0.552537 0.072750 0.393688
Si Si4 0.131224 0.930084 0.967483
Si Si5 0.852772 0.563874 0.362075
Si Si6 0.938647 0.065516 0.648643
O O1 0.191808 0.750000 0.488411
O O2 0.090755 0.977522 0.431441
O O3 0.267219 0.011210 0.443009
O O4 0.166241 0.005132 0.559278
O O5 0.692181 0.750000 0.267832
O O6 0.772731 0.003678 0.308396
O O7 0.636063 0.006266 0.205327
O O8 0.591166 0.955628 0.335213
O O9 0.576010 0.250000 0.371463
O O10 0.440520 0.047188 0.402147
O O11 0.601660 0.039421 0.467933
O O12 0.132841 0.750000 0.992289
O O13 0.848866 0.750000 0.364518
O O14 0.955461 0.502005 0.337827
O O15 0.939333 0.250000 0.659500
#
# Coordination Sequence:
#
# PCOD8252482 Si02
#       6
#     8   8   8   8   8   8
#     4  11  21  35  58  86 116 150 195 244 285 336
#     4  10  20  36  59  83 112 152 194 234 286 346
#     4  10  20  34  54  82 115 147 186 233 282 337
#     4  10  20  34  54  82 114 149 187 230 284 340
#     4  10  20  37  60  82 111 151 193 237 288 343
#     4   9  21  38  56  84 116 151 196 239 282 343
#
# _framework density 20.816517000000001
#
# number of rings (size 3 to 8) (size 9 to 14) (size 15 to 20)
#    0.000    2.000    1.667    2.000    0.000    3.333 
#    0.000    6.667    0.000    0.000    0.000    0.000 
#    0.000    0.000    0.000    0.000    0.000    0.000 
#
# Total GULP energy -594973.547555 kJ/mol
# GULP energy per Si atom -12395.282241 kJ/mol
# Density = 2.076914 g / cm^3
# Si number density = 20.816517 Si / 1000 Ang^3
#
#
#
# Elastic Constant Matrix: (Units=GPa)
#
#
# Indices 1 2 3 4 5 6 
#
# 1 165.8272 23.5417 65.3991 0.0000 0.0000 0.0000
# 2 23.5417 25.9490 7.8577 0.0000 0.0000 0.0000
# 3 65.3991 7.8577 93.6247 0.0000 0.0000 0.0000
# 4 0.0000 0.0000 0.0000 21.3342 0.0000 0.0000
# 5 0.0000 0.0000 0.0000 0.0000 26.6652 0.0000
# 6 0.0000 0.0000 0.0000 0.0000 0.0000 24.0814
#
#
#
# Elastic Compliance Matrix: (Units=1/GPa)
#
#
# Indices 1 2 3 4 5 6 
#
# 1 0.009323 -0.006655 -0.005954 0.000000 0.000000 0.000000
# 2 -0.006655 0.044293 0.000932 0.000000 0.000000 0.000000
# 3 -0.005954 0.000932 0.014762 0.000000 0.000000 0.000000
# 4 0.000000 0.000000 0.000000 0.046873 0.000000 0.000000
# 5 0.000000 0.000000 0.000000 0.000000 0.037502 0.000000
# 6 0.000000 0.000000 0.000000 0.000000 0.000000 0.041526
#
#
# Mechanical properties :
#
#
# Convention : Reuss Voigt Hill
#
# Bulk Modulus (GPa) = 22.21116 53.22199 37.71658
# Shear Modulus (GPa) = 21.49220 26.98965 24.24092
#
# Velocity S-wave (km/s) = 3.21668 3.60467 3.41619
# Velocity P-wave (km/s) = 4.94865 6.55344 5.80675
#
# Compressibility (1/GPa) = 0.04502241
#
# Stress axis : x y z
#
# Youngs Moduli (GPa) = 107.25734 22.57688 67.74253
#
# Poissons Ratio (x) = 0.15026 0.40334
# Poissons Ratio (y) = 0.71385 -0.06311
# Poissons Ratio (z) = 0.63861 -0.02103
#
# Static dielectric constant tensor:
#      x y z
#    x 4.375450 0.000000 0.000000 
#    y 0.000000 3.489790 0.000000 
#    z 0.000000 0.000000 3.673350 
# 
# 
# High freq. dielectric constant tensor:
#      x y z
#    x 1.831670 0.000000 0.000000 
#    y 0.000000 1.788850 0.000000 
#    z 0.000000 0.000000 1.798940 
# 
# From -- ./inp_files/23716.got.cif
#   From: 2010.03.12/outbox.cif.g09.slc.cpg/sg62_12_cif.got.tgz:23716.got - 2010.04.10 19:12:36.
