data_PCOD8252790
_publ_section_title
;
Structure prediction by ZEFSAII (Michael W. Deem and Ramdas Pophale) SiO2 
 PCOD8252790
Probable space group: P N M A
;
_chemical_formula_sum "Si O2"
_cell_formula_units_Z 64
_cell_length_a 5.365990
_cell_length_b 22.518478
_cell_length_c 25.502340
_cell_angle_alpha 90.000000
_cell_angle_beta 90.000000
_cell_angle_gamma 90.000000
_cell_volume 3081.547909
_symmetry_space_group_name_H-M "P N M A"
_symmetry_group_IT_number 62
_symmetry_cell_setting 'orthorhombic'
loop_
_space_group_symop_operation_xyz
x,y,z
1/2-x,-y,1/2+z
1/2+x,1/2-y,1/2-z
-x,1/2+y,-z
-x,-y,-z
1/2+x,y,1/2-z
1/2-x,1/2+y,1/2+z
x,1/2-y,z
loop_
_atom_site_type_symbol
_atom_site_label
_atom_site_fract_x
_atom_site_fract_y
_atom_site_fract_z
Si Si1 0.104784 0.031049 0.066238
Si Si2 0.794276 0.900938 0.031622
Si Si3 0.663238 0.816244 0.423182
Si Si4 0.116276 0.428404 0.606850
Si Si5 0.476335 0.903480 0.773712
Si Si6 0.116794 0.089421 0.393427
Si Si7 0.540978 0.315636 0.028249
Si Si8 0.520354 0.459381 0.774710
O O1 0.372497 0.054892 0.086484
O O2 0.868835 0.051045 0.100511
O O3 0.135663 0.959932 0.080225
O O4 0.060630 0.049858 0.004711
O O5 0.596708 0.940067 0.063719
O O6 0.920081 0.856815 0.073645
O O7 0.689992 0.855414 0.988598
O O8 0.620854 0.750000 0.399017
O O9 0.847589 0.856637 0.387520
O O10 0.761391 0.810556 0.481870
O O11 0.040096 0.454966 0.662544
O O12 0.742227 0.874290 0.757683
O O13 0.422788 0.892921 0.834006
O O14 0.502282 0.972434 0.758207
O O15 0.168335 0.151431 0.422985
O O16 0.449189 0.250000 0.044742
O O17 0.763802 0.429237 0.747014
#
# Coordination Sequence:
#
# PCOD8252790 Si02
#       8
#     8   8   8   8   8   8   8   8
#     4  11  23  36  58  91 129 158 195 237 308 372
#     4  10  21  37  56  90 124 167 192 247 297 368
#     4  10  21  38  60  85 117 160 208 242 291 362
#     4  11  24  37  61  87 123 158 197 254 307 367
#     4  10  20  35  57  81 115 157 198 247 303 359
#     4  11  21  37  58  88 122 158 199 252 298 361
#     4   9  19  37  57  83 117 161 208 243 286 352
#     4  10  23  39  60  88 117 154 198 249 303 364
#
# _framework density 20.768782000000002
#
# number of rings (size 3 to 8) (size 9 to 14) (size 15 to 20)
#    0.000    1.750    2.500    1.500    7.000    1.000 
#    0.000    0.000    0.000    1.500    0.000    0.000 
#    0.000    0.000    0.000    0.000    0.000    0.000 
#
# Total GULP energy -792989.663022 kJ/mol
# GULP energy per Si atom -12390.463485 kJ/mol
# Density = 2.072151 g / cm^3
# Si number density = 20.768782 Si / 1000 Ang^3
#
#
#
# Elastic Constant Matrix: (Units=GPa)
#
#
# Indices 1 2 3 4 5 6 
#
# 1 106.8062 19.4153 23.2366 0.0000 0.0000 0.0000
# 2 19.4153 95.6838 7.0470 0.0000 0.0000 0.0000
# 3 23.2366 7.0470 67.1506 0.0000 0.0000 0.0000
# 4 0.0000 0.0000 0.0000 11.4853 0.0000 0.0000
# 5 0.0000 0.0000 0.0000 0.0000 24.2779 0.0000
# 6 0.0000 0.0000 0.0000 0.0000 0.0000 16.2169
#
#
#
# Elastic Compliance Matrix: (Units=1/GPa)
#
#
# Indices 1 2 3 4 5 6 
#
# 1 0.010446 -0.001868 -0.003419 0.000000 0.000000 0.000000
# 2 -0.001868 0.010866 -0.000494 0.000000 0.000000 0.000000
# 3 -0.003419 -0.000494 0.016127 0.000000 0.000000 0.000000
# 4 0.000000 0.000000 0.000000 0.087068 0.000000 0.000000
# 5 0.000000 0.000000 0.000000 0.000000 0.041190 0.000000
# 6 0.000000 0.000000 0.000000 0.000000 0.000000 0.061664
#
#
# Mechanical properties :
#
#
# Convention : Reuss Voigt Hill
#
# Bulk Modulus (GPa) = 38.64265 41.00428 39.82346
# Shear Modulus (GPa) = 20.19809 25.05880 22.62845
#
# Velocity S-wave (km/s) = 3.12191 3.47733 3.30440
# Velocity P-wave (km/s) = 5.62509 5.99237 5.81163
#
# Compressibility (1/GPa) = 0.02587814
#
# Stress axis : x y z
#
# Youngs Moduli (GPa) = 95.72991 92.02616 62.00881
#
# Poissons Ratio (x) = 0.17189 0.21199
# Poissons Ratio (y) = 0.17881 0.03063
# Poissons Ratio (z) = 0.32727 0.04546
#
# Static dielectric constant tensor:
#      x y z
#    x 4.038300 0.000000 0.000000 
#    y 0.000000 3.953560 0.000000 
#    z 0.000000 0.000000 3.506950 
# 
# 
# High freq. dielectric constant tensor:
#      x y z
#    x 1.829290 0.000000 0.000000 
#    y 0.000000 1.788450 0.000000 
#    z 0.000000 0.000000 1.791830 
# 
# From -- ./inp_files/28461.got.cif
#   From: 2010.03.12/outbox.cif.g09.slc.cpg/sg62_15_cif.got.tgz:28461.got - 2010.04.10 19:12:36.
