data_PCOD8253954
_publ_section_title
;
Structure prediction by ZEFSAII (Michael W. Deem and Ramdas Pophale) SiO2 
 PCOD8253954
Probable space group: P N M A
;
_chemical_formula_sum "Si O2"
_cell_formula_units_Z 56
_cell_length_a 13.656575
_cell_length_b 29.202587
_cell_length_c 6.736287
_cell_angle_alpha 90.000000
_cell_angle_beta 90.000000
_cell_angle_gamma 90.000000
_cell_volume 2686.480562
_symmetry_space_group_name_H-M "P N M A"
_symmetry_group_IT_number 62
_symmetry_cell_setting 'orthorhombic'
loop_
_space_group_symop_operation_xyz
x,y,z
1/2-x,-y,1/2+z
1/2+x,1/2-y,1/2-z
-x,1/2+y,-z
-x,-y,-z
1/2+x,y,1/2-z
1/2-x,1/2+y,1/2+z
x,1/2-y,z
loop_
_atom_site_type_symbol
_atom_site_label
_atom_site_fract_x
_atom_site_fract_y
_atom_site_fract_z
Si Si1 0.264975 0.151412 0.325037
Si Si2 0.925442 0.148645 0.493024
Si Si3 0.588165 0.802446 0.399245
Si Si4 0.351182 0.495756 0.862776
Si Si5 0.528361 0.944052 0.825637
Si Si6 0.566100 0.301855 0.273010
Si Si7 0.183842 0.940921 0.989986
O O1 0.322707 0.142430 0.120427
O O2 0.319031 0.189989 0.456261
O O3 0.157951 0.165516 0.255476
O O4 0.255296 0.105791 0.460182
O O5 0.906235 0.160948 0.721603
O O6 0.985210 0.101228 0.461901
O O7 0.988692 0.190077 0.402862
O O8 0.592719 0.750000 0.323201
O O9 0.487129 0.812024 0.517232
O O10 0.423018 0.534491 0.771891
O O11 0.338865 0.451826 0.719545
O O12 0.400088 0.479922 0.066823
O O13 0.244463 0.516566 0.901112
O O14 0.579464 0.932919 0.616421
O O15 0.603006 0.250000 0.263335
#
# Coordination Sequence:
#
# PCOD8253954 Si02
#       7
#     8   8   8   8   8   8   8
#     4  10  22  38  60  86 122 157 198 250 300 359
#     4  10  21  39  59  86 119 157 200 247 299 352
#     4  10  21  38  61  88 119 158 201 247 299 360
#     4  11  21  37  59  85 115 153 196 244 292 350
#     4  10  22  38  58  84 116 155 198 240 296 352
#     4  10  21  38  59  87 121 157 198 245 300 358
#     4  11  21  38  59  85 119 152 199 244 297 351
#
# _framework density 20.845117999999999
#
# number of rings (size 3 to 8) (size 9 to 14) (size 15 to 20)
#    0.000    1.714    1.429    3.000    0.000    2.857 
#    0.000    7.143    0.000    0.000    0.000    0.000 
#    0.000    0.000    0.000    0.000    0.000    0.000 
#
# Total GULP energy -694457.908181 kJ/mol
# GULP energy per Si atom -12401.034075 kJ/mol
# Density = 2.079767 g / cm^3
# Si number density = 20.845118 Si / 1000 Ang^3
#
#
#
# Elastic Constant Matrix: (Units=GPa)
#
#
# Indices 1 2 3 4 5 6 
#
# 1 66.7911 13.3340 22.9427 0.0000 0.0000 0.0000
# 2 13.3340 84.4948 18.2439 0.0000 0.0000 0.0000
# 3 22.9427 18.2439 65.5141 0.0000 0.0000 0.0000
# 4 0.0000 0.0000 0.0000 40.1437 0.0000 0.0000
# 5 0.0000 0.0000 0.0000 0.0000 19.5173 0.0000
# 6 0.0000 0.0000 0.0000 0.0000 0.0000 36.3610
#
#
#
# Elastic Compliance Matrix: (Units=1/GPa)
#
#
# Indices 1 2 3 4 5 6 
#
# 1 0.017197 -0.001504 -0.005604 0.000000 0.000000 0.000000
# 2 -0.001504 0.012724 -0.003017 0.000000 0.000000 0.000000
# 3 -0.005604 -0.003017 0.018066 0.000000 0.000000 0.000000
# 4 0.000000 0.000000 0.000000 0.024910 0.000000 0.000000
# 5 0.000000 0.000000 0.000000 0.000000 0.051237 0.000000
# 6 0.000000 0.000000 0.000000 0.000000 0.000000 0.027502
#
#
# Mechanical properties :
#
#
# Convention : Reuss Voigt Hill
#
# Bulk Modulus (GPa) = 36.05028 36.20457 36.12743
# Shear Modulus (GPa) = 27.60440 30.02302 28.81371
#
# Velocity S-wave (km/s) = 3.64299 3.79923 3.72193
# Velocity P-wave (km/s) = 5.91837 6.05406 5.98660
#
# Compressibility (1/GPa) = 0.02773903
#
# Stress axis : x y z
#
# Youngs Moduli (GPa) = 58.14928 78.59346 55.35180
#
# Poissons Ratio (x) = 0.11820 0.31017
# Poissons Ratio (y) = 0.08745 0.16697
# Poissons Ratio (z) = 0.32584 0.23708
#
# Static dielectric constant tensor:
#      x y z
#    x 3.632570 0.000000 0.000000 
#    y 0.000000 3.831860 0.000000 
#    z 0.000000 0.000000 3.596690 
# 
# 
# High freq. dielectric constant tensor:
#      x y z
#    x 1.809930 0.000000 0.000000 
#    y 0.000000 1.825490 0.000000 
#    z 0.000000 0.000000 1.804300 
# 
# From -- ./inp_files/1269.got.cif
#   From: 2010.03.12/outbox.cif.g09.slc.cpg/sg62_1_cif.got.tgz:1269.got - 2010.04.10 19:12:36.
