data_PCOD8253672
_publ_section_title
;
Structure prediction by ZEFSAII (Michael W. Deem and Ramdas Pophale) SiO2 
 PCOD8253672
Probable space group: P N M A
;
_chemical_formula_sum "Si O2"
_cell_formula_units_Z 64
_cell_length_a 8.831256
_cell_length_b 19.854718
_cell_length_c 19.884456
_cell_angle_alpha 90.000000
_cell_angle_beta 90.000000
_cell_angle_gamma 90.000000
_cell_volume 3486.582222
_symmetry_space_group_name_H-M "P N M A"
_symmetry_group_IT_number 62
_symmetry_cell_setting 'orthorhombic'
loop_
_space_group_symop_operation_xyz
x,y,z
1/2-x,-y,1/2+z
1/2+x,1/2-y,1/2-z
-x,1/2+y,-z
-x,-y,-z
1/2+x,y,1/2-z
1/2-x,1/2+y,1/2+z
x,1/2-y,z
loop_
_atom_site_type_symbol
_atom_site_label
_atom_site_fract_x
_atom_site_fract_y
_atom_site_fract_z
Si Si1 0.414974 0.826779 0.698317
Si Si2 0.289814 0.426861 0.443818
Si Si3 0.791222 0.921247 0.059674
Si Si4 0.856238 0.172223 0.665427
Si Si5 0.359089 0.925796 0.587963
Si Si6 0.857628 0.077862 0.908710
Si Si7 0.299393 0.671997 0.197379
Si Si8 0.762588 0.826668 0.665507
O O1 0.366748 0.750000 0.683560
O O2 0.319744 0.873075 0.646757
O O3 0.592715 0.838145 0.691025
O O4 0.373876 0.846914 0.774224
O O5 0.235837 0.502395 0.426797
O O6 0.466087 0.421454 0.429762
O O7 0.266414 0.408005 0.522024
O O8 0.197946 0.374442 0.397544
O O9 0.683353 0.871491 0.100371
O O10 0.963992 0.910711 0.082009
O O11 0.769169 0.906529 0.980110
O O12 0.840215 0.250000 0.644945
O O13 0.743840 0.153654 0.726249
O O14 0.025360 0.154738 0.688523
O O15 0.321412 0.001130 0.613193
O O16 0.801653 0.128600 0.852548
O O17 0.262916 0.750000 0.182517
O O18 0.787785 0.750000 0.642096
#
# Coordination Sequence:
#
# PCOD8253672 Si02
#       8
#     8   8   8   8   8   8   8   8
#     4   9  17  30  47  67  93 125 160 195 231 275
#     4   8  16  31  50  73 100 129 160 195 238 289
#     4   9  17  32  53  74  98 127 160 199 241 288
#     4  10  21  36  52  72  99 129 163 204 248 295
#     4   8  16  31  50  73 100 129 160 195 238 289
#     4   9  17  32  53  74  98 127 160 199 241 288
#     4  10  21  36  52  72  99 129 163 204 248 295
#     4   9  17  30  47  67  93 125 160 195 231 275
#
# _framework density 18.356086000000001
#
# number of rings (size 3 to 8) (size 9 to 14) (size 15 to 20)
#    0.000    3.000    0.000    2.250    0.000    3.500 
#    0.000   10.000    0.000    3.000    0.000    0.000 
#    0.000    0.000    0.000    0.000    0.000    0.000 
#
# Total GULP energy -793488.640961 kJ/mol
# GULP energy per Si atom -12398.260015 kJ/mol
# Density = 1.831431 g / cm^3
# Si number density = 18.356086 Si / 1000 Ang^3
#
#
#
# Elastic Constant Matrix: (Units=GPa)
#
#
# Indices 1 2 3 4 5 6 
#
# 1 22.9837 5.0210 -7.8645 0.0000 0.0000 0.0000
# 2 5.0210 63.5127 23.4783 0.0000 0.0000 0.0000
# 3 -7.8645 23.4783 30.4916 0.0000 0.0000 0.0000
# 4 0.0000 0.0000 0.0000 42.6825 0.0000 0.0000
# 5 0.0000 0.0000 0.0000 0.0000 28.7831 0.0000
# 6 0.0000 0.0000 0.0000 0.0000 0.0000 22.9524
#
#
#
# Elastic Compliance Matrix: (Units=1/GPa)
#
#
# Indices 1 2 3 4 5 6 
#
# 1 0.054780 -0.013355 0.024412 0.000000 0.000000 0.000000
# 2 -0.013355 0.025265 -0.022899 0.000000 0.000000 0.000000
# 3 0.024412 -0.022899 0.056724 0.000000 0.000000 0.000000
# 4 0.000000 0.000000 0.000000 0.023429 0.000000 0.000000
# 5 0.000000 0.000000 0.000000 0.000000 0.034743 0.000000
# 6 0.000000 0.000000 0.000000 0.000000 0.000000 0.043568
#
#
# Mechanical properties :
#
#
# Convention : Reuss Voigt Hill
#
# Bulk Modulus (GPa) = 8.84278 17.58417 13.21347
# Shear Modulus (GPa) = 16.67292 25.30716 20.99004
#
# Velocity S-wave (km/s) = 3.01708 3.71709 3.38522
# Velocity P-wave (km/s) = 4.11884 5.29364 4.74275
#
# Compressibility (1/GPa) = 0.11308655
#
# Stress axis : x y z
#
# Youngs Moduli (GPa) = 18.25491 39.57980 17.62918
#
# Poissons Ratio (x) = 0.52858 -0.43037
# Poissons Ratio (y) = 0.24379 0.40368
# Poissons Ratio (z) = -0.44564 0.90632
#
# Static dielectric constant tensor:
#      x y z
#    x 3.078190 0.000000 0.000000 
#    y 0.000000 3.547480 0.000000 
#    z 0.000000 0.000000 3.630830 
# 
# 
# High freq. dielectric constant tensor:
#      x y z
#    x 1.684930 0.000000 0.000000 
#    y 0.000000 1.712930 0.000000 
#    z 0.000000 0.000000 1.714670 
# 
# From -- ./inp_files/22569.got.cif
#   From: 2010.03.12/outbox.cif.g09.slc.cpg/sg62_12_cif.got.tgz:22569.got - 2010.04.10 19:12:36.
