data_PCOD8253087
_publ_section_title
;
Structure prediction by ZEFSAII (Michael W. Deem and Ramdas Pophale) SiO2 
 PCOD8253087
Probable space group: P N M A
;
_chemical_formula_sum "Si O2"
_cell_formula_units_Z 48
_cell_length_a 28.675160
_cell_length_b 8.806798
_cell_length_c 10.193256
_cell_angle_alpha 90.000000
_cell_angle_beta 90.000000
_cell_angle_gamma 90.000000
_cell_volume 2574.167581
_symmetry_space_group_name_H-M "P N M A"
_symmetry_group_IT_number 62
_symmetry_cell_setting 'orthorhombic'
loop_
_space_group_symop_operation_xyz
x,y,z
1/2-x,-y,1/2+z
1/2+x,1/2-y,1/2-z
-x,1/2+y,-z
-x,-y,-z
1/2+x,y,1/2-z
1/2-x,1/2+y,1/2+z
x,1/2-y,z
loop_
_atom_site_type_symbol
_atom_site_label
_atom_site_fract_x
_atom_site_fract_y
_atom_site_fract_z
Si Si1 0.114311 0.925273 0.511348
Si Si2 0.210049 0.572151 0.202088
Si Si3 0.615851 0.423775 0.262585
Si Si4 0.028403 0.071072 0.618675
Si Si5 0.016987 0.424806 0.131451
Si Si6 0.278736 0.075214 0.000984
O O1 0.100533 0.750000 0.522136
O O2 0.168237 0.952130 0.546256
O O3 0.103659 0.977226 0.363995
O O4 0.082489 0.020109 0.611583
O O5 0.199394 0.750000 0.198259
O O6 0.162384 0.484871 0.167051
O O7 0.227537 0.526941 0.348456
O O8 0.247688 0.530655 0.092729
O O9 0.623366 0.250000 0.218841
O O10 0.573020 0.439022 0.362981
O O11 0.025193 0.250000 0.608427
O O12 0.000000 0.000000 0.500000
O O13 0.007207 0.016106 0.753405
O O14 0.001351 0.250000 0.138588
O O15 0.000000 0.500000 0.000000
O O16 0.264118 0.250000 0.020857
#
# Coordination Sequence:
#
# PCOD8253087 Si02
#       6
#     8   8   8   8   8   8
#     4  10  20  36  60  88 117 150 194 243 289 343
#     4  10  21  37  60  87 114 150 191 236 288 343
#     4  10  20  36  60  85 114 153 194 236 288 348
#     4  12  23  37  61  89 118 154 195 241 287 341
#     4  11  24  41  60  86 119 156 196 242 295 350
#     4   9  20  38  58  84 116 148 188 237 285 342
#
# _framework density 18.646806000000002
#
# number of rings (size 3 to 8) (size 9 to 14) (size 15 to 20)
#    0.000    1.667    1.667    4.500    0.000    6.000 
#    3.000    0.000    0.000    0.000    0.000    0.000 
#    0.000    0.000    0.000    0.000    0.000    0.000 
#
# Total GULP energy -595352.813137 kJ/mol
# GULP energy per Si atom -12403.183607 kJ/mol
# Density = 1.860437 g / cm^3
# Si number density = 18.646806 Si / 1000 Ang^3
#
#
#
# Elastic Constant Matrix: (Units=GPa)
#
#
# Indices 1 2 3 4 5 6 
#
# 1 108.5361 59.7920 61.2940 0.0000 0.0000 0.0000
# 2 59.7920 132.4122 56.7775 0.0000 0.0000 0.0000
# 3 61.2940 56.7775 108.3639 0.0000 0.0000 0.0000
# 4 0.0000 0.0000 0.0000 34.8558 0.0000 0.0000
# 5 0.0000 0.0000 0.0000 0.0000 31.6300 0.0000
# 6 0.0000 0.0000 0.0000 0.0000 0.0000 35.8367
#
#
#
# Elastic Compliance Matrix: (Units=1/GPa)
#
#
# Indices 1 2 3 4 5 6 
#
# 1 0.015059 -0.004060 -0.006391 0.000000 0.000000 0.000000
# 2 -0.004060 0.010835 -0.003381 0.000000 0.000000 0.000000
# 3 -0.006391 -0.003381 0.014614 0.000000 0.000000 0.000000
# 4 0.000000 0.000000 0.000000 0.028690 0.000000 0.000000
# 5 0.000000 0.000000 0.000000 0.000000 0.031616 0.000000
# 6 0.000000 0.000000 0.000000 0.000000 0.000000 0.027904
#
#
# Mechanical properties :
#
#
# Convention : Reuss Voigt Hill
#
# Bulk Modulus (GPa) = 77.84550 78.33769 78.09159
# Shear Modulus (GPa) = 31.12113 31.89440 31.50776
#
# Velocity S-wave (km/s) = 4.08975 4.14024 4.11507
# Velocity P-wave (km/s) = 8.00871 8.05965 8.03422
#
# Compressibility (1/GPa) = 0.01284596
#
# Stress axis : x y z
#
# Youngs Moduli (GPa) = 66.40491 92.29330 68.42600
#
# Poissons Ratio (x) = 0.37469 0.43730
# Poissons Ratio (y) = 0.26959 0.23133
# Poissons Ratio (z) = 0.42438 0.31202
#
# Static dielectric constant tensor:
#      x y z
#    x 3.685030 0.000000 0.000000 
#    y 0.000000 3.600270 0.000000 
#    z 0.000000 0.000000 2.917180 
# 
# 
# High freq. dielectric constant tensor:
#      x y z
#    x 1.732880 0.000000 0.000000 
#    y 0.000000 1.740960 0.000000 
#    z 0.000000 0.000000 1.705320 
# 
# From -- ./inp_files/10211.got.cif
#   From: 2010.03.12/outbox.cif.g09.slc.cpg/sg62_6_cif.got.tgz:10211.got - 2010.04.10 19:12:36.
