data_PCOD8253964
_publ_section_title
;
Structure prediction by ZEFSAII (Michael W. Deem and Ramdas Pophale) SiO2 
 PCOD8253964
Probable space group: P N M A
;
_chemical_formula_sum "Si O2"
_cell_formula_units_Z 56
_cell_length_a 16.393239
_cell_length_b 8.506068
_cell_length_c 19.977998
_cell_angle_alpha 90.000000
_cell_angle_beta 90.000000
_cell_angle_gamma 90.000000
_cell_volume 2785.772110
_symmetry_space_group_name_H-M "P N M A"
_symmetry_group_IT_number 62
_symmetry_cell_setting 'orthorhombic'
loop_
_space_group_symop_operation_xyz
x,y,z
1/2-x,-y,1/2+z
1/2+x,1/2-y,1/2-z
-x,1/2+y,-z
-x,-y,-z
1/2+x,y,1/2-z
1/2-x,1/2+y,1/2+z
x,1/2-y,z
loop_
_atom_site_type_symbol
_atom_site_label
_atom_site_fract_x
_atom_site_fract_y
_atom_site_fract_z
Si Si1 0.747549 0.434809 0.533555
Si Si2 0.987984 0.932979 0.818428
Si Si3 0.182067 0.934932 0.605046
Si Si4 0.428153 0.433972 0.455029
Si Si5 0.521825 0.564952 0.828571
Si Si6 0.316584 0.431884 0.699352
Si Si7 0.659404 0.066120 0.157898
O O1 0.760866 0.250000 0.543473
O O2 0.792886 0.501502 0.467584
O O3 0.652347 0.471077 0.525959
O O4 0.783164 0.527617 0.596215
O O5 0.964004 0.750000 0.814180
O O6 0.051626 0.966469 0.877352
O O7 0.028432 0.990573 0.748846
O O8 0.904826 0.027397 0.831211
O O9 0.174380 0.750000 0.598406
O O10 0.095219 0.010988 0.628016
O O11 0.249285 0.970812 0.660162
O O12 0.500000 0.500000 0.500000
O O13 0.415478 0.250000 0.468922
O O14 0.532684 0.750000 0.831278
O O15 0.433932 0.514757 0.858515
O O16 0.298649 0.250000 0.688581
O O17 0.309523 0.473530 0.777416
O O18 0.663449 0.250000 0.174564
#
# Coordination Sequence:
#
# PCOD8253964 Si02
#       7
#     8   8   8   8   8   8   8
#     4  11  24  39  57  88 124 157 197 247 301 359
#     4   9  19  37  59  83 109 147 199 242 288 353
#     4  10  21  38  60  84 117 158 197 241 296 357
#     4  11  23  38  59  86 118 160 202 245 299 359
#     4   8  17  36  61  85 107 144 199 244 285 345
#     4  11  22  36  58  89 121 152 191 245 301 352
#     4  10  21  40  63  85 114 156 201 245 297 358
#
# _framework density 20.102148
#
# number of rings (size 3 to 8) (size 9 to 14) (size 15 to 20)
#    0.000    2.000    0.000    4.286    2.000    6.286 
#    0.000    3.571    0.000    0.000    0.000    0.000 
#    0.000    0.000    0.000    0.000    0.000    0.000 
#
# Total GULP energy -694478.030220 kJ/mol
# GULP energy per Si atom -12401.393397 kJ/mol
# Density = 2.005639 g / cm^3
# Si number density = 20.102148 Si / 1000 Ang^3
#
#
#
# Elastic Constant Matrix: (Units=GPa)
#
#
# Indices 1 2 3 4 5 6 
#
# 1 69.9791 7.0618 38.5594 0.0000 0.0000 0.0000
# 2 7.0618 27.3079 8.3746 0.0000 0.0000 0.0000
# 3 38.5594 8.3746 72.8691 0.0000 0.0000 0.0000
# 4 0.0000 0.0000 0.0000 27.1829 0.0000 0.0000
# 5 0.0000 0.0000 0.0000 0.0000 40.1617 0.0000
# 6 0.0000 0.0000 0.0000 0.0000 0.0000 24.1286
#
#
#
# Elastic Compliance Matrix: (Units=1/GPa)
#
#
# Indices 1 2 3 4 5 6 
#
# 1 0.020279 -0.002025 -0.010498 0.000000 0.000000 0.000000
# 2 -0.002025 0.038159 -0.003314 0.000000 0.000000 0.000000
# 3 -0.010498 -0.003314 0.019659 0.000000 0.000000 0.000000
# 4 0.000000 0.000000 0.000000 0.036788 0.000000 0.000000
# 5 0.000000 0.000000 0.000000 0.000000 0.024899 0.000000
# 6 0.000000 0.000000 0.000000 0.000000 0.000000 0.041445
#
#
# Mechanical properties :
#
#
# Convention : Reuss Voigt Hill
#
# Bulk Modulus (GPa) = 21.54068 30.90529 26.22298
# Shear Modulus (GPa) = 21.89356 26.03867 23.96611
#
# Velocity S-wave (km/s) = 3.30375 3.60296 3.45659
# Velocity P-wave (km/s) = 5.02911 5.71978 5.38553
#
# Compressibility (1/GPa) = 0.04642379
#
# Stress axis : x y z
#
# Youngs Moduli (GPa) = 49.31239 26.20587 50.86651
#
# Poissons Ratio (x) = 0.05306 0.53400
# Poissons Ratio (y) = 0.09984 0.16858
# Poissons Ratio (z) = 0.51769 0.08685
#
# Static dielectric constant tensor:
#      x y z
#    x 3.879980 0.000000 0.000000 
#    y 0.000000 3.440070 0.000000 
#    z 0.000000 0.000000 3.899360 
# 
# 
# High freq. dielectric constant tensor:
#      x y z
#    x 1.791440 0.000000 0.000000 
#    y 0.000000 1.768000 0.000000 
#    z 0.000000 0.000000 1.792420 
# 
# From -- ./inp_files/27180.got.cif
#   From: 2010.03.12/outbox.cif.g09.slc.cpg/sg62_14_cif.got.tgz:27180.got - 2010.04.10 19:12:36.
