data_PCOD8253709
_publ_section_title
;
Structure prediction by ZEFSAII (Michael W. Deem and Ramdas Pophale) SiO2 
 PCOD8253709
Probable space group: P N M A
;
_chemical_formula_sum "Si O2"
_cell_formula_units_Z 64
_cell_length_a 25.690934
_cell_length_b 8.844115
_cell_length_c 14.567936
_cell_angle_alpha 90.000000
_cell_angle_beta 90.000000
_cell_angle_gamma 90.000000
_cell_volume 3310.032815
_symmetry_space_group_name_H-M "P N M A"
_symmetry_group_IT_number 62
_symmetry_cell_setting 'orthorhombic'
loop_
_space_group_symop_operation_xyz
x,y,z
1/2-x,-y,1/2+z
1/2+x,1/2-y,1/2-z
-x,1/2+y,-z
-x,-y,-z
1/2+x,y,1/2-z
1/2-x,1/2+y,1/2+z
x,1/2-y,z
loop_
_atom_site_type_symbol
_atom_site_label
_atom_site_fract_x
_atom_site_fract_y
_atom_site_fract_z
Si Si1 0.614132 0.423061 0.653355
Si Si2 0.055289 0.926183 0.507756
Si Si3 0.138396 0.928009 0.357584
Si Si4 0.002044 0.574516 0.099547
Si Si5 0.629337 0.076340 0.860267
Si Si6 0.896603 0.928564 0.828052
Si Si7 0.167342 0.926390 0.011527
Si Si8 0.786275 0.574402 0.507272
O O1 0.626580 0.250000 0.624934
O O2 0.552218 0.449905 0.651827
O O3 0.636732 0.460473 0.753566
O O4 0.642603 0.539600 0.586952
O O5 0.047304 0.750000 0.509677
O O6 0.090205 0.976798 0.421483
O O7 0.082266 0.976273 0.601865
O O8 0.000000 0.000000 0.500000
O O9 0.140591 0.750000 0.339906
O O10 0.132571 0.012366 0.261735
O O11 0.191564 0.979340 0.407101
O O12 0.015403 0.750000 0.086314
O O13 0.046199 0.500385 0.162882
O O14 0.000000 0.500000 0.000000
O O15 0.613405 0.250000 0.874836
O O16 0.682553 0.037364 0.913728
O O17 0.902826 0.750000 0.823475
O O18 0.861906 0.972238 0.914715
O O19 0.160467 0.750000 0.035159
O O20 0.227375 0.975183 0.010670
O O21 0.790338 0.750000 0.533531
#
# Coordination Sequence:
#
# PCOD8253709 Si02
#       8
#     8   8   8   8   8   8   8   8
#     4  10  22  38  59  87 117 155 199 244 297 356
#     4  10  21  36  56  84 116 151 193 237 287 344
#     4  10  22  40  61  86 118 156 198 245 296 351
#     4  11  22  38  59  85 120 156 197 246 301 358
#     4   9  19  38  60  83 115 151 191 239 291 346
#     4  12  25  40  60  88 121 159 202 245 298 358
#     4  11  23  39  61  88 119 156 200 248 298 355
#     4   9  20  40  63  88 119 154 194 244 299 350
#
# _framework density 19.335156999999999
#
# number of rings (size 3 to 8) (size 9 to 14) (size 15 to 20)
#    0.000    1.750    1.250    2.625    1.750    4.500 
#    0.000    1.250    0.000    0.000    0.000    0.000 
#    0.000    0.000    0.000    0.000    0.000    0.000 
#
# Total GULP energy -793915.760742 kJ/mol
# GULP energy per Si atom -12404.933762 kJ/mol
# Density = 1.929115 g / cm^3
# Si number density = 19.335157 Si / 1000 Ang^3
#
#
#
# Elastic Constant Matrix: (Units=GPa)
#
#
# Indices 1 2 3 4 5 6 
#
# 1 122.0481 37.6094 37.7582 0.0000 0.0000 0.0000
# 2 37.6094 73.9648 33.8913 0.0000 0.0000 0.0000
# 3 37.7582 33.8913 111.3740 0.0000 0.0000 0.0000
# 4 0.0000 0.0000 0.0000 30.5083 0.0000 0.0000
# 5 0.0000 0.0000 0.0000 0.0000 -6.6218 0.0000
# 6 0.0000 0.0000 0.0000 0.0000 0.0000 31.9396
#
#
#
# Elastic Compliance Matrix: (Units=1/GPa)
#
#
# Indices 1 2 3 4 5 6 
#
# 1 0.010149 -0.004165 -0.002173 0.000000 0.000000 0.000000
# 2 -0.004165 0.017420 -0.003889 0.000000 0.000000 0.000000
# 3 -0.002173 -0.003889 0.010899 0.000000 0.000000 0.000000
# 4 0.000000 0.000000 0.000000 0.032778 0.000000 0.000000
# 5 0.000000 0.000000 0.000000 0.000000 -0.151016 0.000000
# 6 0.000000 0.000000 0.000000 0.000000 0.000000 0.031309
#
#
# Mechanical properties :
#
#
# Convention : Reuss Voigt Hill
#
# Bulk Modulus (GPa) = 55.51354 58.43386 56.97370
# Shear Modulus (GPa) = -227.25219 24.37375 -101.43922
#
# Velocity S-wave (km/s) = -10.85303 3.55433 -7.25103
# Velocity P-wave (km/s) = 11.32597 6.86524 6.36969
#
# Compressibility (1/GPa) = 0.01801362
#
# Stress axis : x y z
#
# Youngs Moduli (GPa) = 98.52907 57.40679 91.75155
#
# Poissons Ratio (x) = 0.23909 0.19942
# Poissons Ratio (y) = 0.41035 0.35681
# Poissons Ratio (z) = 0.21415 0.22325
#
# Static dielectric constant tensor:
#      x y z
#    x 3.792150 0.000000 0.000000 
#    y 0.000000 3.621810 0.000000 
#    z 0.000000 0.000000 3.852460 
# 
# 
# High freq. dielectric constant tensor:
#      x y z
#    x 1.757170 0.000000 0.000000 
#    y 0.000000 1.758620 0.000000 
#    z 0.000000 0.000000 1.755690 
# 
# From -- ./inp_files/20816.got.cif
#   From: 2010.03.12/outbox.cif.g09.slc.cpg/sg62_11_cif.got.tgz:20816.got - 2010.04.10 19:12:36.
