data_PCOD8253246
_publ_section_title
;
Structure prediction by ZEFSAII (Michael W. Deem and Ramdas Pophale) SiO2 
 PCOD8253246
Probable space group: P N M A
;
_chemical_formula_sum "Si O2"
_cell_formula_units_Z 64
_cell_length_a 32.899955
_cell_length_b 8.454731
_cell_length_c 11.254735
_cell_angle_alpha 90.000000
_cell_angle_beta 90.000000
_cell_angle_gamma 90.000000
_cell_volume 3130.620120
_symmetry_space_group_name_H-M "P N M A"
_symmetry_group_IT_number 62
_symmetry_cell_setting 'orthorhombic'
loop_
_space_group_symop_operation_xyz
x,y,z
1/2-x,-y,1/2+z
1/2+x,1/2-y,1/2-z
-x,1/2+y,-z
-x,-y,-z
1/2+x,y,1/2-z
1/2-x,1/2+y,1/2+z
x,1/2-y,z
loop_
_atom_site_type_symbol
_atom_site_label
_atom_site_fract_x
_atom_site_fract_y
_atom_site_fract_z
Si Si1 0.882739 0.936649 0.076135
Si Si2 0.832992 0.062753 0.495003
Si Si3 0.402596 0.568060 0.865117
Si Si4 0.224699 0.934367 0.295080
Si Si5 0.988729 0.067814 0.630243
Si Si6 0.312465 0.935508 0.253563
Si Si7 0.476036 0.563389 0.383094
Si Si8 0.648781 0.932541 0.337105
O O1 0.879209 0.750000 0.050391
O O2 0.852565 0.996454 0.179404
O O3 0.928777 0.984724 0.106129
O O4 0.866666 0.038602 0.967683
O O5 0.835977 0.250000 0.482339
O O6 0.801545 0.005116 0.594661
O O7 0.877469 0.992172 0.521243
O O8 0.816005 0.980777 0.380930
O O9 0.415542 0.750000 0.882293
O O10 0.441385 0.457678 0.851669
O O11 0.376443 0.548653 0.746806
O O12 0.232254 0.750000 0.306666
O O13 0.269451 0.014734 0.295111
O O14 0.197156 0.971416 0.177378
O O15 0.000570 0.250000 0.624850
O O16 0.009518 0.996596 0.752502
O O17 0.000000 0.000000 0.500000
O O18 0.310125 0.750000 0.269754
O O19 0.500000 0.500000 0.500000
O O20 0.482332 0.750000 0.384596
O O21 0.641203 0.750000 0.298575
#
# Coordination Sequence:
#
# PCOD8253246 Si02
#       8
#     8   8   8   8   8   8   8   8
#     4  10  22  38  59  87 120 155 198 246 300 364
#     4  10  21  38  59  86 119 153 196 248 298 355
#     4  11  22  39  63  88 117 156 201 246 301 364
#     4   8  18  36  56  81 116 155 194 241 296 351
#     4  11  24  41  63  93 127 164 206 258 314 375
#     4  10  21  37  58  83 117 159 198 244 299 356
#     4  10  23  42  63  90 123 160 202 254 311 371
#     4  10  20  37  60  87 121 156 198 249 295 352
#
# _framework density 20.443234
#
# number of rings (size 3 to 8) (size 9 to 14) (size 15 to 20)
#    0.000    2.000    0.000    3.750    3.500    4.000 
#    0.000    3.125    0.000    0.000    0.000    0.000 
#    0.000    0.000    0.000    0.000    0.000    0.000 
#
# Total GULP energy -793039.359528 kJ/mol
# GULP energy per Si atom -12391.239993 kJ/mol
# Density = 2.039670 g / cm^3
# Si number density = 20.443234 Si / 1000 Ang^3
#
#
#
# Elastic Constant Matrix: (Units=GPa)
#
#
# Indices 1 2 3 4 5 6 
#
# 1 174.5236 10.2929 60.9852 0.0000 0.0000 0.0000
# 2 10.2929 56.2849 31.2576 0.0000 0.0000 0.0000
# 3 60.9852 31.2576 130.8338 0.0000 0.0000 0.0000
# 4 0.0000 0.0000 0.0000 32.0655 0.0000 0.0000
# 5 0.0000 0.0000 0.0000 0.0000 29.5805 0.0000
# 6 0.0000 0.0000 0.0000 0.0000 0.0000 21.5051
#
#
#
# Elastic Compliance Matrix: (Units=1/GPa)
#
#
# Indices 1 2 3 4 5 6 
#
# 1 0.006862 0.000601 -0.003342 0.000000 0.000000 0.000000
# 2 0.000601 0.020537 -0.005187 0.000000 0.000000 0.000000
# 3 -0.003342 -0.005187 0.010440 0.000000 0.000000 0.000000
# 4 0.000000 0.000000 0.000000 0.031186 0.000000 0.000000
# 5 0.000000 0.000000 0.000000 0.000000 0.033806 0.000000
# 6 0.000000 0.000000 0.000000 0.000000 0.000000 0.046501
#
#
# Mechanical properties :
#
#
# Convention : Reuss Voigt Hill
#
# Bulk Modulus (GPa) = 45.48728 62.96818 54.22773
# Shear Modulus (GPa) = 28.98266 33.90400 31.44333
#
# Velocity S-wave (km/s) = 3.76934 4.07682 3.92609
# Velocity P-wave (km/s) = 6.42205 7.28210 6.86555
#
# Compressibility (1/GPa) = 0.02198417
#
# Stress axis : x y z
#
# Youngs Moduli (GPa) = 145.72200 48.69193 95.78131
#
# Poissons Ratio (x) = -0.02928 0.32014
# Poissons Ratio (y) = -0.08762 0.49680
# Poissons Ratio (z) = 0.48706 0.25256
#
# Static dielectric constant tensor:
#      x y z
#    x 4.153550 0.000000 0.000000 
#    y 0.000000 3.453140 0.000000 
#    z 0.000000 0.000000 3.839310 
# 
# 
# High freq. dielectric constant tensor:
#      x y z
#    x 1.815880 0.000000 0.000000 
#    y 0.000000 1.778960 0.000000 
#    z 0.000000 0.000000 1.803900 
# 
# From -- ./inp_files/15768.got.cif
#   From: 2010.03.12/outbox.cif.g09.slc.cpg/sg62_8_cif.got.tgz:15768.got - 2010.04.10 19:12:36.
