data_PCOD8253730
_publ_section_title
;
Structure prediction by ZEFSAII (Michael W. Deem and Ramdas Pophale) SiO2 
 PCOD8253730
Probable space group: P N M A
;
_chemical_formula_sum "Si O2"
_cell_formula_units_Z 32
_cell_length_a 8.491524
_cell_length_b 10.304681
_cell_length_c 17.179301
_cell_angle_alpha 90.000000
_cell_angle_beta 90.000000
_cell_angle_gamma 90.000000
_cell_volume 1503.230858
_symmetry_space_group_name_H-M "P N M A"
_symmetry_group_IT_number 62
_symmetry_cell_setting 'orthorhombic'
loop_
_space_group_symop_operation_xyz
x,y,z
1/2-x,-y,1/2+z
1/2+x,1/2-y,1/2-z
-x,1/2+y,-z
-x,-y,-z
1/2+x,y,1/2-z
1/2-x,1/2+y,1/2+z
x,1/2-y,z
loop_
_atom_site_type_symbol
_atom_site_label
_atom_site_fract_x
_atom_site_fract_y
_atom_site_fract_z
Si Si1 0.274013 0.987917 0.439954
Si Si2 0.871050 0.495766 0.888119
Si Si3 0.864065 0.250000 0.643395
Si Si4 0.280070 0.750000 0.859439
Si Si5 0.221705 0.250000 0.693407
Si Si6 0.431469 0.750000 0.700782
O O1 0.447961 0.965031 0.406615
O O2 0.159573 0.876381 0.409398
O O3 0.273988 0.982804 0.533010
O O4 0.203012 0.125491 0.414288
O O5 0.801767 0.376767 0.841126
O O6 0.850469 0.623490 0.835976
O O7 0.740131 0.250000 0.713837
O O8 0.037806 0.250000 0.677389
O O9 0.414333 0.750000 0.793894
O O10 0.115601 0.750000 0.814789
#
# Coordination Sequence:
#
# PCOD8253730 Si02
#       6
#     8   8   4   4   4   4
#     4  10  21  40  64  88 116 153 197 244 297 355
#     4  10  21  40  64  88 116 153 197 244 297 355
#     4  12  25  40  60  88 122 160 203 248 295 350
#     4  10  21  36  58  86 114 148 189 236 290 348
#     4  12  25  40  60  88 122 160 203 248 295 350
#     4  10  21  36  58  86 114 148 189 236 290 348
#
# _framework density 21.287479999999999
#
# number of rings (size 3 to 8) (size 9 to 14) (size 15 to 20)
#    0.000    1.500    0.000    5.250    0.000   11.000 
#    0.000    2.500    0.000    0.000    0.000    0.000 
#    0.000    0.000    0.000    0.000    0.000    0.000 
#
# Total GULP energy -397030.414331 kJ/mol
# GULP energy per Si atom -12407.200448 kJ/mol
# Density = 2.123903 g / cm^3
# Si number density = 21.287480 Si / 1000 Ang^3
#
#
#
# Elastic Constant Matrix: (Units=GPa)
#
#
# Indices 1 2 3 4 5 6 
#
# 1 14.3958 27.7464 -8.1269 0.0000 0.0000 0.0000
# 2 27.7464 138.8579 1.3034 0.0000 0.0000 0.0000
# 3 -8.1269 1.3034 46.0988 0.0000 0.0000 0.0000
# 4 0.0000 0.0000 0.0000 47.6124 0.0000 0.0000
# 5 0.0000 0.0000 0.0000 0.0000 33.3650 0.0000
# 6 0.0000 0.0000 0.0000 0.0000 0.0000 14.8975
#
#
#
# Elastic Compliance Matrix: (Units=1/GPa)
#
#
# Indices 1 2 3 4 5 6 
#
# 1 0.136517 -0.027512 0.024845 0.000000 0.000000 0.000000
# 2 -0.027512 0.012748 -0.005211 0.000000 0.000000 0.000000
# 3 0.024845 -0.005211 0.026220 0.000000 0.000000 0.000000
# 4 0.000000 0.000000 0.000000 0.021003 0.000000 0.000000
# 5 0.000000 0.000000 0.000000 0.000000 0.029972 0.000000
# 6 0.000000 0.000000 0.000000 0.000000 0.000000 0.067125
#
#
# Mechanical properties :
#
#
# Convention : Reuss Voigt Hill
#
# Bulk Modulus (GPa) = 6.26058 26.79981 16.53019
# Shear Modulus (GPa) = 13.78996 31.07031 22.43013
#
# Velocity S-wave (km/s) = 2.54795 3.82456 3.24956
# Velocity P-wave (km/s) = 3.40638 5.66743 4.67564
#
# Compressibility (1/GPa) = 0.15972970
#
# Stress axis : x y z
#
# Youngs Moduli (GPa) = 7.32509 78.44428 38.13906
#
# Poissons Ratio (x) = 2.15815 -0.94756
# Poissons Ratio (y) = 0.20153 0.19873
# Poissons Ratio (z) = -0.18199 0.40874
#
# Static dielectric constant tensor:
#      x y z
#    x 3.646320 0.000000 0.000000 
#    y 0.000000 3.975260 0.000000 
#    z 0.000000 0.000000 4.074440 
# 
# 
# High freq. dielectric constant tensor:
#      x y z
#    x 1.823120 0.000000 0.000000 
#    y 0.000000 1.853270 0.000000 
#    z 0.000000 0.000000 1.847660 
# 
# From -- ./inp_files/16499.got.cif
#   From: 2010.03.12/outbox.cif.g09.slc.cpg/sg62_9_cif.got.tgz:16499.got - 2010.04.10 19:12:36.
