data_PCOD8253533
_publ_section_title
;
Structure prediction by ZEFSAII (Michael W. Deem and Ramdas Pophale) SiO2 
 PCOD8253533
Probable space group: P N M A
;
_chemical_formula_sum "Si O2"
_cell_formula_units_Z 44
_cell_length_a 9.270383
_cell_length_b 14.163112
_cell_length_c 16.840979
_cell_angle_alpha 90.000000
_cell_angle_beta 90.000000
_cell_angle_gamma 90.000000
_cell_volume 2211.177981
_symmetry_space_group_name_H-M "P N M A"
_symmetry_group_IT_number 62
_symmetry_cell_setting 'orthorhombic'
loop_
_space_group_symop_operation_xyz
x,y,z
1/2-x,-y,1/2+z
1/2+x,1/2-y,1/2-z
-x,1/2+y,-z
-x,-y,-z
1/2+x,y,1/2-z
1/2-x,1/2+y,1/2+z
x,1/2-y,z
loop_
_atom_site_type_symbol
_atom_site_label
_atom_site_fract_x
_atom_site_fract_y
_atom_site_fract_z
Si Si1 0.085746 0.410547 0.532717
Si Si2 0.000596 0.885541 0.908278
Si Si3 0.599676 0.587722 0.420421
Si Si4 0.982920 0.750000 0.351332
Si Si5 0.692126 0.750000 0.689332
Si Si6 0.936616 0.750000 0.582000
Si Si7 0.751381 0.750000 0.870856
Si Si8 0.345962 0.250000 0.695061
O O1 0.235497 0.446975 0.569356
O O2 0.998501 0.345554 0.596226
O O3 0.000000 0.500000 0.500000
O O4 0.125881 0.343125 0.459713
O O5 0.843279 0.842999 0.889557
O O6 0.114793 0.842656 0.846455
O O7 0.997876 0.998094 0.897129
O O8 0.042546 0.862138 0.999253
O O9 0.586436 0.659267 0.347773
O O10 0.826548 0.750000 0.310068
O O11 0.109082 0.750000 0.286724
O O12 0.685197 0.750000 0.783107
O O13 0.863085 0.750000 0.668688
O O14 0.108974 0.750000 0.575609
#
# Coordination Sequence:
#
# PCOD8253533 Si02
#       8
#     8   8   8   4   4   4   4   4
#     4  10  20  39  65  89 121 159 205 252 297 358
#     4  10  21  40  62  92 115 167 214 243 303 376
#     4  10  20  40  67  87 122 163 210 253 297 368
#     4   9  22  41  61  91 124 161 202 249 313 359
#     4  11  21  41  59  86 128 162 196 257 319 358
#     4  11  20  37  59  88 119 159 198 250 306 353
#     4  11  23  37  59  90 130 155 202 254 304 372
#     4  10  20  44  60  87 127 163 194 260 314 358
#
# _framework density 19.898896000000001
#
# number of rings (size 3 to 8) (size 9 to 14) (size 15 to 20)
#    0.000    1.818    1.818    3.818    0.000    0.000 
#   26.182    0.000    0.000    0.000    0.000    0.000 
#    0.000    0.000    0.000    0.000    0.000    0.000 
#
# Total GULP energy -545519.492996 kJ/mol
# GULP energy per Si atom -12398.170295 kJ/mol
# Density = 1.985361 g / cm^3
# Si number density = 19.898896 Si / 1000 Ang^3
#
#
#
# Elastic Constant Matrix: (Units=GPa)
#
#
# Indices 1 2 3 4 5 6 
#
# 1 81.4535 31.6769 28.7910 0.0000 0.0000 0.0000
# 2 31.6769 123.0274 46.5722 0.0000 0.0000 0.0000
# 3 28.7910 46.5722 102.0974 0.0000 0.0000 0.0000
# 4 0.0000 0.0000 0.0000 18.0659 0.0000 0.0000
# 5 0.0000 0.0000 0.0000 0.0000 36.9458 0.0000
# 6 0.0000 0.0000 0.0000 0.0000 0.0000 2.1372
#
#
#
# Elastic Compliance Matrix: (Units=1/GPa)
#
#
# Indices 1 2 3 4 5 6 
#
# 1 0.014295 -0.002604 -0.002843 0.000000 0.000000 0.000000
# 2 -0.002604 0.010299 -0.003964 0.000000 0.000000 0.000000
# 3 -0.002843 -0.003964 0.012404 0.000000 0.000000 0.000000
# 4 0.000000 0.000000 0.000000 0.055353 0.000000 0.000000
# 5 0.000000 0.000000 0.000000 0.000000 0.027067 0.000000
# 6 0.000000 0.000000 0.000000 0.000000 0.000000 0.467894
#
#
# Mechanical properties :
#
#
# Convention : Reuss Voigt Hill
#
# Bulk Modulus (GPa) = 55.01695 57.85093 56.43394
# Shear Modulus (GPa) = 8.16736 24.73233 16.44985
#
# Velocity S-wave (km/s) = 2.02814 3.52930 2.87831
# Velocity P-wave (km/s) = 5.76131 6.76340 6.28237
#
# Compressibility (1/GPa) = 0.01817622
#
# Stress axis : x y z
#
# Youngs Moduli (GPa) = 69.95607 97.09423 80.61694
#
# Poissons Ratio (x) = 0.25287 0.22920
# Poissons Ratio (y) = 0.18219 0.31954
# Poissons Ratio (z) = 0.19889 0.38485
#
# Static dielectric constant tensor:
#      x y z
#    x 3.498540 0.000000 0.000000 
#    y 0.000000 3.480040 0.000000 
#    z 0.000000 0.000000 3.490090 
# 
# 
# High freq. dielectric constant tensor:
#      x y z
#    x 1.776570 0.000000 0.000000 
#    y 0.000000 1.777780 0.000000 
#    z 0.000000 0.000000 1.768410 
# 
# From -- ./inp_files/22175.got.cif
#   From: 2010.03.12/outbox.cif.g09.slc.cpg/sg62_12_cif.got.tgz:22175.got - 2010.04.10 19:12:36.
