data_PCOD8253110
_publ_section_title
;
Structure prediction by ZEFSAII (Michael W. Deem and Ramdas Pophale) SiO2 
 PCOD8253110
Probable space group: P N M A
;
_chemical_formula_sum "Si O2"
_cell_formula_units_Z 64
_cell_length_a 23.528191
_cell_length_b 8.910640
_cell_length_c 15.205474
_cell_angle_alpha 90.000000
_cell_angle_beta 90.000000
_cell_angle_gamma 90.000000
_cell_volume 3187.846477
_symmetry_space_group_name_H-M "P N M A"
_symmetry_group_IT_number 62
_symmetry_cell_setting 'orthorhombic'
loop_
_space_group_symop_operation_xyz
x,y,z
1/2-x,-y,1/2+z
1/2+x,1/2-y,1/2-z
-x,1/2+y,-z
-x,-y,-z
1/2+x,y,1/2-z
1/2-x,1/2+y,1/2+z
x,1/2-y,z
loop_
_atom_site_type_symbol
_atom_site_label
_atom_site_fract_x
_atom_site_fract_y
_atom_site_fract_z
Si Si1 0.112687 0.425507 0.412889
Si Si2 0.873136 0.427968 0.409908
Si Si3 0.690283 0.074168 0.252316
Si Si4 0.808579 0.573173 0.253915
Si Si5 0.504152 0.578098 0.339594
Si Si6 0.506090 0.926994 0.844462
Si Si7 0.126853 0.924693 0.089697
Si Si8 0.116210 0.076586 0.912093
O O1 0.115905 0.250000 0.434958
O O2 0.141416 0.517242 0.491987
O O3 0.145127 0.463621 0.323215
O O4 0.047733 0.482720 0.401399
O O5 0.869628 0.250000 0.404813
O O6 0.827012 0.496192 0.344498
O O7 0.935699 0.491464 0.385009
O O8 0.702714 0.250000 0.259674
O O9 0.747367 0.987943 0.226549
O O10 0.666504 0.016552 0.344681
O O11 0.806214 0.750000 0.268655
O O12 0.852620 0.528478 0.177552
O O13 0.503276 0.750000 0.307588
O O14 0.500916 0.474824 0.255288
O O15 0.560917 0.539161 0.392718
O O16 0.450775 0.544084 0.402235
O O17 0.507563 0.750000 0.845004
O O18 0.141039 0.750000 0.100049
O O19 0.141017 0.976940 0.991002
O O20 0.128039 0.250000 0.933953
#
# Coordination Sequence:
#
# PCOD8253110 Si02
#       8
#     8   8   8   8   8   8   8   8
#     4  10  22  40  62  89 123 163 202 246 303 358
#     4  11  23  38  62  94 125 159 200 247 301 361
#     4  11  24  43  65  87 118 159 204 254 302 355
#     4  11  24  43  65  87 118 159 204 254 302 355
#     4  10  20  36  60  91 124 160 199 244 300 360
#     4  10  20  36  60  91 124 160 199 244 300 360
#     4  11  23  38  62  94 125 159 200 247 301 361
#     4  10  22  40  62  89 123 163 202 246 303 358
#
# _framework density 20.076248
#
# number of rings (size 3 to 8) (size 9 to 14) (size 15 to 20)
#    0.000    1.500    2.500    2.250    0.000    5.000 
#    0.000    2.500    0.000    0.000    0.000    0.000 
#    0.000    0.000    0.000    0.000    0.000    0.000 
#
# Total GULP energy -793959.506799 kJ/mol
# GULP energy per Si atom -12405.617294 kJ/mol
# Density = 2.003055 g / cm^3
# Si number density = 20.076248 Si / 1000 Ang^3
#
#
#
# Elastic Constant Matrix: (Units=GPa)
#
#
# Indices 1 2 3 4 5 6 
#
# 1 80.5982 27.8893 7.5422 0.0000 0.0000 0.0000
# 2 27.8893 52.4382 34.1183 0.0000 0.0000 0.0000
# 3 7.5422 34.1183 98.9242 0.0000 0.0000 0.0000
# 4 0.0000 0.0000 0.0000 38.3906 0.0000 0.0000
# 5 0.0000 0.0000 0.0000 0.0000 17.8276 0.0000
# 6 0.0000 0.0000 0.0000 0.0000 0.0000 30.9249
#
#
#
# Elastic Compliance Matrix: (Units=1/GPa)
#
#
# Indices 1 2 3 4 5 6 
#
# 1 0.015552 -0.009670 0.002149 0.000000 0.000000 0.000000
# 2 -0.009670 0.030600 -0.009816 0.000000 0.000000 0.000000
# 3 0.002149 -0.009816 0.013330 0.000000 0.000000 0.000000
# 4 0.000000 0.000000 0.000000 0.026048 0.000000 0.000000
# 5 0.000000 0.000000 0.000000 0.000000 0.056093 0.000000
# 6 0.000000 0.000000 0.000000 0.000000 0.000000 0.032336
#
#
# Mechanical properties :
#
#
# Convention : Reuss Voigt Hill
#
# Bulk Modulus (GPa) = 40.30854 41.22890 40.76872
# Shear Modulus (GPa) = 23.05176 28.25602 25.65389
#
# Velocity S-wave (km/s) = 3.39220 3.75565 3.57854
# Velocity P-wave (km/s) = 5.95517 6.27593 6.11765
#
# Compressibility (1/GPa) = 0.02480864
#
# Stress axis : x y z
#
# Youngs Moduli (GPa) = 64.29986 32.67983 75.01597
#
# Poissons Ratio (x) = 0.31601 -0.16123
# Poissons Ratio (y) = 0.62177 0.73639
# Poissons Ratio (z) = -0.13820 0.32080
#
# Static dielectric constant tensor:
#      x y z
#    x 3.831390 0.000000 0.000000 
#    y 0.000000 3.584140 0.000000 
#    z 0.000000 0.000000 3.543150 
# 
# 
# High freq. dielectric constant tensor:
#      x y z
#    x 1.786310 0.000000 0.000000 
#    y 0.000000 1.782690 0.000000 
#    z 0.000000 0.000000 1.789410 
# 
# From -- ./inp_files/20844.got.cif
#   From: 2010.03.12/outbox.cif.g09.slc.cpg/sg62_11_cif.got.tgz:20844.got - 2010.04.10 19:12:36.
