data_PCOD8253806
_publ_section_title
;
Structure prediction by ZEFSAII (Michael W. Deem and Ramdas Pophale) SiO2 
 PCOD8253806
Probable space group: P N M A
;
_chemical_formula_sum "Si O2"
_cell_formula_units_Z 64
_cell_length_a 14.522619
_cell_length_b 8.738460
_cell_length_c 25.708486
_cell_angle_alpha 90.000000
_cell_angle_beta 90.000000
_cell_angle_gamma 90.000000
_cell_volume 3262.543777
_symmetry_space_group_name_H-M "P N M A"
_symmetry_group_IT_number 62
_symmetry_cell_setting 'orthorhombic'
loop_
_space_group_symop_operation_xyz
x,y,z
1/2-x,-y,1/2+z
1/2+x,1/2-y,1/2-z
-x,1/2+y,-z
-x,-y,-z
1/2+x,y,1/2-z
1/2-x,1/2+y,1/2+z
x,1/2-y,z
loop_
_atom_site_type_symbol
_atom_site_label
_atom_site_fract_x
_atom_site_fract_y
_atom_site_fract_z
Si Si1 0.323601 0.926359 0.899834
Si Si2 0.652620 0.070678 0.367463
Si Si3 0.518486 0.573267 0.445061
Si Si4 0.601268 0.930010 0.998328
Si Si5 0.640503 0.425166 0.636888
Si Si6 0.000283 0.073779 0.331512
Si Si7 0.503698 0.928216 0.711669
Si Si8 0.838450 0.571203 0.393031
O O1 0.320921 0.750000 0.916798
O O2 0.402149 0.957644 0.857730
O O3 0.340377 0.026616 0.951029
O O4 0.228895 0.971118 0.872582
O O5 0.671796 0.250000 0.370128
O O6 0.589992 0.025190 0.318053
O O7 0.603410 0.017236 0.420180
O O8 0.749001 0.983768 0.361504
O O9 0.500000 0.500000 0.500000
O O10 0.546355 0.750000 0.450575
O O11 0.427184 0.551753 0.411399
O O12 0.589721 0.750000 0.995162
O O13 0.500000 0.000000 0.000000
O O14 0.656623 0.986102 0.948143
O O15 0.671081 0.250000 0.643206
O O16 0.590360 0.478390 0.689606
O O17 0.969594 0.250000 0.338366
O O18 0.009612 0.028372 0.271459
O O19 0.926556 0.964816 0.358146
O O20 0.524444 0.750000 0.703101
O O21 0.833683 0.750000 0.403890
#
# Coordination Sequence:
#
# PCOD8253806 Si02
#       8
#     8   8   8   8   8   8   8   8
#     4  11  23  39  62  91 123 162 205 249 300 364
#     4  10  21  39  62  88 121 158 200 251 303 358
#     4  10  21  37  57  83 117 156 202 249 301 363
#     4  12  24  41  63  88 123 162 201 251 304 360
#     4  10  22  39  59  87 123 159 198 250 305 359
#     4  10  22  41  64  89 119 157 205 255 302 358
#     4   9  20  41  66  89 117 158 204 252 305 360
#     4  12  25  40  61  91 124 162 204 248 302 367
#
# _framework density 19.616595
#
# number of rings (size 3 to 8) (size 9 to 14) (size 15 to 20)
#    0.000    1.500    1.250    3.750    1.750    4.000 
#    0.000    2.500    0.000    0.000    0.000    0.000 
#    0.000    0.000    0.000    0.000    0.000    0.000 
#
# Total GULP energy -794023.238789 kJ/mol
# GULP energy per Si atom -12406.613106 kJ/mol
# Density = 1.957195 g / cm^3
# Si number density = 19.616595 Si / 1000 Ang^3
#
#
#
# Elastic Constant Matrix: (Units=GPa)
#
#
# Indices 1 2 3 4 5 6 
#
# 1 110.6089 51.7297 35.8622 0.0000 0.0000 0.0000
# 2 51.7297 116.5747 46.7833 0.0000 0.0000 0.0000
# 3 35.8622 46.7833 131.3322 0.0000 0.0000 0.0000
# 4 0.0000 0.0000 0.0000 25.3182 0.0000 0.0000
# 5 0.0000 0.0000 0.0000 0.0000 -8.3940 0.0000
# 6 0.0000 0.0000 0.0000 0.0000 0.0000 37.3325
#
#
#
# Elastic Compliance Matrix: (Units=1/GPa)
#
#
# Indices 1 2 3 4 5 6 
#
# 1 0.011678 -0.004553 -0.001567 0.000000 0.000000 0.000000
# 2 -0.004553 0.011784 -0.002954 0.000000 0.000000 0.000000
# 3 -0.001567 -0.002954 0.009095 0.000000 0.000000 0.000000
# 4 0.000000 0.000000 0.000000 0.039497 0.000000 0.000000
# 5 0.000000 0.000000 0.000000 0.000000 -0.119133 0.000000
# 6 0.000000 0.000000 0.000000 0.000000 0.000000 0.026786
#
#
# Mechanical properties :
#
#
# Convention : Reuss Voigt Hill
#
# Bulk Modulus (GPa) = 69.40698 69.69625 69.55162
# Shear Modulus (GPa) = 1879.21213 25.79405 952.50309
#
# Velocity S-wave (km/s) = 30.98468 3.63010 22.05933
# Velocity P-wave (km/s) = 36.27018 7.29223 26.16010
#
# Compressibility (1/GPa) = 0.01440777
#
# Stress axis : x y z
#
# Youngs Moduli (GPa) = 85.62767 84.85749 109.95531
#
# Poissons Ratio (x) = 0.38639 0.17229
# Poissons Ratio (y) = 0.38990 0.32486
# Poissons Ratio (z) = 0.13417 0.25071
#
# Static dielectric constant tensor:
#      x y z
#    x 3.653620 0.000000 0.000000 
#    y 0.000000 3.672630 0.000000 
#    z 0.000000 0.000000 3.836540 
# 
# 
# High freq. dielectric constant tensor:
#      x y z
#    x 1.770140 0.000000 0.000000 
#    y 0.000000 1.773990 0.000000 
#    z 0.000000 0.000000 1.767640 
# 
# From -- ./inp_files/29921.got.cif
#   From: 2010.03.12/outbox.cif.g09.slc.cpg/sg62_15_cif.got.tgz:29921.got - 2010.04.10 19:12:36.
