data_PCOD8253128
_publ_section_title
;
Structure prediction by ZEFSAII (Michael W. Deem and Ramdas Pophale) SiO2 
 PCOD8253128
Probable space group: P N M A
;
_chemical_formula_sum "Si O2"
_cell_formula_units_Z 40
_cell_length_a 21.064805
_cell_length_b 8.944354
_cell_length_c 10.094544
_cell_angle_alpha 90.000000
_cell_angle_beta 90.000000
_cell_angle_gamma 90.000000
_cell_volume 1901.923865
_symmetry_space_group_name_H-M "P N M A"
_symmetry_group_IT_number 62
_symmetry_cell_setting 'orthorhombic'
loop_
_space_group_symop_operation_xyz
x,y,z
1/2-x,-y,1/2+z
1/2+x,1/2-y,1/2-z
-x,1/2+y,-z
-x,-y,-z
1/2+x,y,1/2-z
1/2-x,1/2+y,1/2+z
x,1/2-y,z
loop_
_atom_site_type_symbol
_atom_site_label
_atom_site_fract_x
_atom_site_fract_y
_atom_site_fract_z
Si Si1 0.532249 0.418945 0.675555
Si Si2 0.410211 0.923560 0.601209
Si Si3 0.935044 0.578985 0.464364
Si Si4 0.808523 0.076668 0.524103
Si Si5 0.782129 0.423068 0.818637
O O1 0.505866 0.250000 0.659788
O O2 0.577366 0.459563 0.552940
O O3 0.472231 0.529946 0.685106
O O4 0.575056 0.434370 0.806239
O O5 0.394934 0.750000 0.626232
O O6 0.351998 0.023327 0.645474
O O7 0.938000 0.750000 0.511264
O O8 0.876573 0.502054 0.538168
O O9 0.000000 0.500000 0.500000
O O10 0.820728 0.250000 0.497789
O O11 0.770560 0.051277 0.661583
O O12 0.769787 0.013037 0.400777
O O13 0.775333 0.250000 0.855942
#
# Coordination Sequence:
#
# PCOD8253128 Si02
#       5
#     8   8   8   8   8
#     4   9  20  37  58  88 125 163 204 255 311 367
#     4  10  20  36  61  91 124 162 207 257 310 371
#     4  11  23  40  63  91 127 166 211 264 317 373
#     4  11  26  45  66  94 128 167 214 263 317 380
#     4  11  25  44  65  91 127 166 208 262 317 374
#
# _framework density 21.031336
#
# number of rings (size 3 to 8) (size 9 to 14) (size 15 to 20)
#    0.000    1.600    0.000    3.600    2.800   10.400 
#    0.000    0.000    0.000    0.000    0.000    0.000 
#    0.000    0.000    0.000    0.000    0.000    0.000 
#
# Total GULP energy -496195.483636 kJ/mol
# GULP energy per Si atom -12404.887091 kJ/mol
# Density = 2.098347 g / cm^3
# Si number density = 21.031336 Si / 1000 Ang^3
#
#
#
# Elastic Constant Matrix: (Units=GPa)
#
#
# Indices 1 2 3 4 5 6 
#
# 1 77.8900 45.0166 41.0245 0.0000 0.0000 0.0000
# 2 45.0166 132.9444 55.8388 0.0000 0.0000 0.0000
# 3 41.0245 55.8388 79.9611 0.0000 0.0000 0.0000
# 4 0.0000 0.0000 0.0000 33.2694 0.0000 0.0000
# 5 0.0000 0.0000 0.0000 0.0000 31.6245 0.0000
# 6 0.0000 0.0000 0.0000 0.0000 0.0000 42.2858
#
#
#
# Elastic Compliance Matrix: (Units=1/GPa)
#
#
# Indices 1 2 3 4 5 6 
#
# 1 0.018522 -0.003227 -0.007249 0.000000 0.000000 0.000000
# 2 -0.003227 0.011206 -0.006170 0.000000 0.000000 0.000000
# 3 -0.007249 -0.006170 0.020534 0.000000 0.000000 0.000000
# 4 0.000000 0.000000 0.000000 0.030058 0.000000 0.000000
# 5 0.000000 0.000000 0.000000 0.000000 0.031621 0.000000
# 6 0.000000 0.000000 0.000000 0.000000 0.000000 0.023649
#
#
# Mechanical properties :
#
#
# Convention : Reuss Voigt Hill
#
# Bulk Modulus (GPa) = 58.92871 63.83949 61.38410
# Shear Modulus (GPa) = 28.64707 31.36363 30.00535
#
# Velocity S-wave (km/s) = 3.69469 3.86590 3.78126
# Velocity P-wave (km/s) = 6.80303 7.09558 6.95085
#
# Compressibility (1/GPa) = 0.01696966
#
# Stress axis : x y z
#
# Youngs Moduli (GPa) = 53.99044 89.23735 48.69975
#
# Poissons Ratio (x) = 0.28796 0.35304
# Poissons Ratio (y) = 0.17422 0.30047
# Poissons Ratio (z) = 0.39139 0.55059
#
# Static dielectric constant tensor:
#      x y z
#    x 3.718410 0.000000 0.000000 
#    y 0.000000 3.876450 0.000000 
#    z 0.000000 0.000000 4.122060 
# 
# 
# High freq. dielectric constant tensor:
#      x y z
#    x 1.814820 0.000000 0.000000 
#    y 0.000000 1.834440 0.000000 
#    z 0.000000 0.000000 1.840160 
# 
# From -- ./inp_files/14626.got.cif
#   From: 2010.03.12/outbox.cif.g09.slc.cpg/sg62_8_cif.got.tgz:14626.got - 2010.04.10 19:12:36.
