data_PCOD8253409
_publ_section_title
;
Structure prediction by ZEFSAII (Michael W. Deem and Ramdas Pophale) SiO2 
 PCOD8253409
Probable space group: P N M A
;
_chemical_formula_sum "Si O2"
_cell_formula_units_Z 32
_cell_length_a 14.324766
_cell_length_b 8.662538
_cell_length_c 12.528789
_cell_angle_alpha 90.000000
_cell_angle_beta 90.000000
_cell_angle_gamma 90.000000
_cell_volume 1554.682766
_symmetry_space_group_name_H-M "P N M A"
_symmetry_group_IT_number 62
_symmetry_cell_setting 'orthorhombic'
loop_
_space_group_symop_operation_xyz
x,y,z
1/2-x,-y,1/2+z
1/2+x,1/2-y,1/2-z
-x,1/2+y,-z
-x,-y,-z
1/2+x,y,1/2-z
1/2-x,1/2+y,1/2+z
x,1/2-y,z
loop_
_atom_site_type_symbol
_atom_site_label
_atom_site_fract_x
_atom_site_fract_y
_atom_site_fract_z
Si Si1 0.096439 0.432158 0.737812
Si Si2 0.402269 0.431670 0.464763
Si Si3 0.440490 0.428467 0.908348
Si Si4 0.220166 0.567863 0.549799
O O1 0.106903 0.250000 0.760404
O O2 0.120661 0.525762 0.843353
O O3 0.168867 0.481367 0.646356
O O4 0.988364 0.477634 0.704286
O O5 0.500000 0.500000 0.500000
O O6 0.403100 0.250000 0.480625
O O7 0.324104 0.503454 0.541892
O O8 0.457683 0.250000 0.919437
O O9 0.500000 0.500000 0.000000
O O10 0.332212 0.468212 0.934867
O O11 0.221362 0.750000 0.573289
#
# Coordination Sequence:
#
# PCOD8253409 Si02
#       4
#     8   8   8   8
#     4  10  20  38  62  90 122 158 197 243 298 358
#     4  12  26  43  60  84 119 160 203 252 305 361
#     4   8  16  31  56  86 116 147 186 234 285 341
#     4  10  20  38  62  90 120 155 200 249 299 360
#
# _framework density 20.582975999999999
#
# number of rings (size 3 to 8) (size 9 to 14) (size 15 to 20)
#    0.000    2.000    0.000    3.750    0.000    4.000 
#    0.000    7.500    0.000    0.000    0.000    0.000 
#    0.000    0.000    0.000    0.000    0.000    0.000 
#
# Total GULP energy -396434.292645 kJ/mol
# GULP energy per Si atom -12388.571645 kJ/mol
# Density = 2.053613 g / cm^3
# Si number density = 20.582976 Si / 1000 Ang^3
#
#
#
# Elastic Constant Matrix: (Units=GPa)
#
#
# Indices 1 2 3 4 5 6 
#
# 1 116.6061 14.2009 22.9857 0.0000 0.0000 0.0000
# 2 14.2009 46.8126 4.8073 0.0000 0.0000 0.0000
# 3 22.9857 4.8073 66.4393 0.0000 0.0000 0.0000
# 4 0.0000 0.0000 0.0000 32.9497 0.0000 0.0000
# 5 0.0000 0.0000 0.0000 0.0000 28.0863 0.0000
# 6 0.0000 0.0000 0.0000 0.0000 0.0000 31.3606
#
#
#
# Elastic Compliance Matrix: (Units=1/GPa)
#
#
# Indices 1 2 3 4 5 6 
#
# 1 0.009499 -0.002563 -0.003101 0.000000 0.000000 0.000000
# 2 -0.002563 0.022213 -0.000720 0.000000 0.000000 0.000000
# 3 -0.003101 -0.000720 0.016176 0.000000 0.000000 0.000000
# 4 0.000000 0.000000 0.000000 0.030349 0.000000 0.000000
# 5 0.000000 0.000000 0.000000 0.000000 0.035605 0.000000
# 6 0.000000 0.000000 0.000000 0.000000 0.000000 0.031887
#
#
# Mechanical properties :
#
#
# Convention : Reuss Voigt Hill
#
# Bulk Modulus (GPa) = 28.47413 34.87174 31.67293
# Shear Modulus (GPa) = 29.37621 31.00360 30.18990
#
# Velocity S-wave (km/s) = 3.78194 3.88529 3.83396
# Velocity P-wave (km/s) = 5.73887 6.09147 5.91780
#
# Compressibility (1/GPa) = 0.03511960
#
# Stress axis : x y z
#
# Youngs Moduli (GPa) = 105.27078 45.01798 61.81888
#
# Poissons Ratio (x) = 0.11539 0.19170
# Poissons Ratio (y) = 0.26983 0.04454
# Poissons Ratio (z) = 0.32644 0.03243
#
# Static dielectric constant tensor:
#      x y z
#    x 4.307640 0.000000 0.000000 
#    y 0.000000 3.669220 0.000000 
#    z 0.000000 0.000000 3.798110 
# 
# 
# High freq. dielectric constant tensor:
#      x y z
#    x 1.812610 0.000000 0.000000 
#    y 0.000000 1.813430 0.000000 
#    z 0.000000 0.000000 1.793460 
# 
# From -- ./inp_files/12771.got.cif
#   From: 2010.03.12/outbox.cif.g09.slc.cpg/sg62_7_cif.got.tgz:12771.got - 2010.04.10 19:12:36.
