data_PCOD8253800
_publ_section_title
;
Structure prediction by ZEFSAII (Michael W. Deem and Ramdas Pophale) SiO2 
 PCOD8253800
Probable space group: P N M A
;
_chemical_formula_sum "Si O2"
_cell_formula_units_Z 40
_cell_length_a 20.558174
_cell_length_b 9.725056
_cell_length_c 10.150124
_cell_angle_alpha 90.000000
_cell_angle_beta 90.000000
_cell_angle_gamma 90.000000
_cell_volume 2029.308134
_symmetry_space_group_name_H-M "P N M A"
_symmetry_group_IT_number 62
_symmetry_cell_setting 'orthorhombic'
loop_
_space_group_symop_operation_xyz
x,y,z
1/2-x,-y,1/2+z
1/2+x,1/2-y,1/2-z
-x,1/2+y,-z
-x,-y,-z
1/2+x,y,1/2-z
1/2-x,1/2+y,1/2+z
x,1/2-y,z
loop_
_atom_site_type_symbol
_atom_site_label
_atom_site_fract_x
_atom_site_fract_y
_atom_site_fract_z
Si Si1 0.059338 0.592188 0.454567
Si Si2 0.554444 0.592812 0.344026
Si Si3 0.911461 0.907145 0.070601
Si Si4 0.280331 0.909072 0.285387
Si Si5 0.299072 0.090094 0.042187
O O1 0.037404 0.750000 0.470894
O O2 0.077178 0.561454 0.303323
O O3 0.123736 0.560238 0.538729
O O4 0.000000 0.500000 0.500000
O O5 0.567503 0.750000 0.383682
O O6 0.478176 0.555896 0.355177
O O7 0.597164 0.499371 0.440665
O O8 0.909550 0.750000 0.022950
O O9 0.854100 0.938569 0.171599
O O10 0.269633 0.750000 0.247166
O O11 0.232245 0.952795 0.402878
O O12 0.265842 0.001081 0.157293
O O13 0.284585 0.250000 0.070429
#
# Coordination Sequence:
#
# PCOD8253800 Si02
#       5
#     8   8   8   8   8
#     4  10  21  37  57  82 114 149 191 240 291 345
#     4   9  18  32  53  80 109 144 184 228 280 332
#     4   9  18  33  53  79 111 144 183 229 277 334
#     4  10  22  40  60  84 117 154 194 238 287 346
#     4  10  23  40  59  87 119 153 196 242 289 346
#
# _framework density 19.711151000000001
#
# number of rings (size 3 to 8) (size 9 to 14) (size 15 to 20)
#    0.000    2.400    0.000    1.200    2.800    4.800 
#    0.000    4.000    0.000    0.000    0.000    0.000 
#    0.000    0.000    0.000    0.000    0.000    0.000 
#
# Total GULP energy -496112.928045 kJ/mol
# GULP energy per Si atom -12402.823201 kJ/mol
# Density = 1.966629 g / cm^3
# Si number density = 19.711151 Si / 1000 Ang^3
#
#
#
# Elastic Constant Matrix: (Units=GPa)
#
#
# Indices 1 2 3 4 5 6 
#
# 1 54.6570 35.9828 36.5114 0.0000 0.0000 0.0000
# 2 35.9828 86.8305 75.6077 0.0000 0.0000 0.0000
# 3 36.5114 75.6077 122.9978 0.0000 0.0000 0.0000
# 4 0.0000 0.0000 0.0000 42.8850 0.0000 0.0000
# 5 0.0000 0.0000 0.0000 0.0000 27.3708 0.0000
# 6 0.0000 0.0000 0.0000 0.0000 0.0000 24.9187
#
#
#
# Elastic Compliance Matrix: (Units=1/GPa)
#
#
# Indices 1 2 3 4 5 6 
#
# 1 0.025461 -0.008542 -0.002307 0.000000 0.000000 0.000000
# 2 -0.008542 0.027647 -0.014459 0.000000 0.000000 0.000000
# 3 -0.002307 -0.014459 0.017703 0.000000 0.000000 0.000000
# 4 0.000000 0.000000 0.000000 0.023318 0.000000 0.000000
# 5 0.000000 0.000000 0.000000 0.000000 0.036535 0.000000
# 6 0.000000 0.000000 0.000000 0.000000 0.000000 0.040131
#
#
# Mechanical properties :
#
#
# Convention : Reuss Voigt Hill
#
# Bulk Modulus (GPa) = 49.51898 62.29877 55.90888
# Shear Modulus (GPa) = 21.91620 26.79380 24.35500
#
# Velocity S-wave (km/s) = 3.33809 3.69090 3.51892
# Velocity P-wave (km/s) = 6.32724 7.05961 6.70343
#
# Compressibility (1/GPa) = 0.02019428
#
# Stress axis : x y z
#
# Youngs Moduli (GPa) = 39.27641 36.17070 56.48750
#
# Poissons Ratio (x) = 0.30898 0.13031
# Poissons Ratio (y) = 0.33551 0.81675
# Poissons Ratio (z) = 0.09061 0.52299
#
# Static dielectric constant tensor:
#      x y z
#    x 3.635980 0.000000 0.000000 
#    y 0.000000 3.533000 0.000000 
#    z 0.000000 0.000000 3.524660 
# 
# 
# High freq. dielectric constant tensor:
#      x y z
#    x 1.771670 0.000000 0.000000 
#    y 0.000000 1.761170 0.000000 
#    z 0.000000 0.000000 1.766670 
# 
# From -- ./inp_files/7294.got.cif
#   From: 2010.03.12/outbox.cif.g09.slc.cpg/sg62_4_cif.got.tgz:7294.got - 2010.04.10 19:12:36.
