data_PCOD8253759
_publ_section_title
;
Structure prediction by ZEFSAII (Michael W. Deem and Ramdas Pophale) SiO2 
 PCOD8253759
Probable space group: P N M A
;
_chemical_formula_sum "Si O2"
_cell_formula_units_Z 40
_cell_length_a 12.501445
_cell_length_b 8.640630
_cell_length_c 18.776886
_cell_angle_alpha 90.000000
_cell_angle_beta 90.000000
_cell_angle_gamma 90.000000
_cell_volume 2028.285999
_symmetry_space_group_name_H-M "P N M A"
_symmetry_group_IT_number 62
_symmetry_cell_setting 'orthorhombic'
loop_
_space_group_symop_operation_xyz
x,y,z
1/2-x,-y,1/2+z
1/2+x,1/2-y,1/2-z
-x,1/2+y,-z
-x,-y,-z
1/2+x,y,1/2-z
1/2-x,1/2+y,1/2+z
x,1/2-y,z
loop_
_atom_site_type_symbol
_atom_site_label
_atom_site_fract_x
_atom_site_fract_y
_atom_site_fract_z
Si Si1 0.107806 0.566164 0.690063
Si Si2 0.815424 0.566454 0.888684
Si Si3 0.550052 0.565827 0.653447
Si Si4 0.220935 0.432989 0.951596
Si Si5 0.946767 0.933095 0.570216
O O1 0.109334 0.750000 0.690719
O O2 0.221441 0.500893 0.662025
O O3 0.086993 0.504496 0.769437
O O4 0.013644 0.507689 0.638260
O O5 0.810981 0.750000 0.889801
O O6 0.928528 0.509972 0.858170
O O7 0.797370 0.503943 0.968513
O O8 0.561857 0.750000 0.645962
O O9 0.619876 0.482664 0.594201
O O10 0.234888 0.250000 0.950612
O O11 0.326479 0.509636 0.918942
O O12 0.949192 0.750000 0.564785
O O13 0.000000 0.000000 0.500000
#
# Coordination Sequence:
#
# PCOD8253759 Si02
#       5
#     8   8   8   8   8
#     4   9  19  35  58  86 114 146 188 243 293 339
#     4   9  18  35  57  83 115 149 187 235 286 341
#     4  10  21  36  61  87 110 148 199 241 283 345
#     4  11  22  38  58  83 122 156 188 238 296 349
#     4  11  21  37  61  88 116 152 199 244 291 346
#
# _framework density 19.721084999999999
#
# number of rings (size 3 to 8) (size 9 to 14) (size 15 to 20)
#    0.000    2.000    2.000    1.800    2.800    0.000 
#    0.000    3.000    0.000    0.000    0.000    0.000 
#    0.000    0.000    0.000    0.000    0.000    0.000 
#
# Total GULP energy -496077.179542 kJ/mol
# GULP energy per Si atom -12401.929489 kJ/mol
# Density = 1.967620 g / cm^3
# Si number density = 19.721085 Si / 1000 Ang^3
#
#
#
# Elastic Constant Matrix: (Units=GPa)
#
#
# Indices 1 2 3 4 5 6 
#
# 1 181.1536 18.7379 83.5863 0.0000 0.0000 0.0000
# 2 18.7379 35.7555 14.2320 0.0000 0.0000 0.0000
# 3 83.5863 14.2320 144.1405 0.0000 0.0000 0.0000
# 4 0.0000 0.0000 0.0000 24.9840 0.0000 0.0000
# 5 0.0000 0.0000 0.0000 0.0000 40.4243 0.0000
# 6 0.0000 0.0000 0.0000 0.0000 0.0000 28.4837
#
#
#
# Elastic Compliance Matrix: (Units=1/GPa)
#
#
# Indices 1 2 3 4 5 6 
#
# 1 0.007723 -0.002357 -0.004246 0.000000 0.000000 0.000000
# 2 -0.002357 0.029831 -0.001578 0.000000 0.000000 0.000000
# 3 -0.004246 -0.001578 0.009556 0.000000 0.000000 0.000000
# 4 0.000000 0.000000 0.000000 0.040026 0.000000 0.000000
# 5 0.000000 0.000000 0.000000 0.000000 0.024738 0.000000
# 6 0.000000 0.000000 0.000000 0.000000 0.000000 0.035108
#
#
# Mechanical properties :
#
#
# Convention : Reuss Voigt Hill
#
# Bulk Modulus (GPa) = 32.52358 66.01798 49.27078
# Shear Modulus (GPa) = 28.80294 35.07795 31.94045
#
# Velocity S-wave (km/s) = 3.82581 4.22204 4.02880
# Velocity P-wave (km/s) = 6.00362 7.57074 6.83226
#
# Compressibility (1/GPa) = 0.03074692
#
# Stress axis : x y z
#
# Youngs Moduli (GPa) = 129.48198 33.52173 104.65008
#
# Poissons Ratio (x) = 0.07902 0.44433
# Poissons Ratio (y) = 0.30523 0.16518
# Poissons Ratio (z) = 0.54976 0.05291
#
# Static dielectric constant tensor:
#      x y z
#    x 3.884540 0.000000 0.000000 
#    y 0.000000 3.220630 0.000000 
#    z 0.000000 0.000000 3.828630 
# 
# 
# High freq. dielectric constant tensor:
#      x y z
#    x 1.788580 0.000000 0.000000 
#    y 0.000000 1.728960 0.000000 
#    z 0.000000 0.000000 1.779740 
# 
# From -- ./inp_files/22776.got.cif
#   From: 2010.03.12/outbox.cif.g09.slc.cpg/sg62_12_cif.got.tgz:22776.got - 2010.04.10 19:12:36.
