data_PCOD8253877
_publ_section_title
;
Structure prediction by ZEFSAII (Michael W. Deem and Ramdas Pophale) SiO2 
 PCOD8253877
Probable space group: P N M A
;
_chemical_formula_sum "Si O2"
_cell_formula_units_Z 56
_cell_length_a 19.614755
_cell_length_b 8.866009
_cell_length_c 15.871104
_cell_angle_alpha 90.000000
_cell_angle_beta 90.000000
_cell_angle_gamma 90.000000
_cell_volume 2760.057903
_symmetry_space_group_name_H-M "P N M A"
_symmetry_group_IT_number 62
_symmetry_cell_setting 'orthorhombic'
loop_
_space_group_symop_operation_xyz
x,y,z
1/2-x,-y,1/2+z
1/2+x,1/2-y,1/2-z
-x,1/2+y,-z
-x,-y,-z
1/2+x,y,1/2-z
1/2-x,1/2+y,1/2+z
x,1/2-y,z
loop_
_atom_site_type_symbol
_atom_site_label
_atom_site_fract_x
_atom_site_fract_y
_atom_site_fract_z
Si Si1 0.657323 0.078719 0.832974
Si Si2 0.092985 0.572586 0.328083
Si Si3 0.812381 0.425247 0.826709
Si Si4 0.540947 0.075810 0.574553
Si Si5 0.675503 0.423841 0.027656
Si Si6 0.466683 0.427031 0.248897
Si Si7 0.685238 0.423594 0.499701
O O1 0.637895 0.250000 0.808403
O O2 0.733955 0.041171 0.803832
O O3 0.608554 0.965636 0.783720
O O4 0.650254 0.053967 0.932571
O O5 0.080669 0.750000 0.330537
O O6 0.142792 0.524649 0.252324
O O7 0.125321 0.521230 0.415549
O O8 0.020845 0.490531 0.317987
O O9 0.821622 0.250000 0.849904
O O10 0.836389 0.520976 0.906947
O O11 0.520232 0.250000 0.578051
O O12 0.621679 0.054666 0.561888
O O13 0.500000 0.000000 0.500000
O O14 0.518184 0.000592 0.661199
O O15 0.673170 0.250000 0.055284
O O16 0.752871 0.480568 0.037733
O O17 0.474757 0.250000 0.257529
O O18 0.707811 0.250000 0.494306
#
# Coordination Sequence:
#
# PCOD8253877 Si02
#       7
#     8   8   8   8   8   8   8
#     4   9  20  41  63  86 120 159 200 252 308 363
#     4  11  23  40  63  90 122 162 203 252 309 367
#     4   9  20  38  62  89 120 157 199 249 304 360
#     4  11  24  41  62  89 125 165 205 253 306 368
#     4  10  22  40  63  91 121 156 201 254 306 363
#     4  12  26  41  60  90 123 162 208 254 307 369
#     4  10  21  37  60  89 120 157 200 247 302 364
#
# _framework density 20.289428999999998
#
# number of rings (size 3 to 8) (size 9 to 14) (size 15 to 20)
#    0.000    1.714    0.000    4.714    2.000    9.143 
#    0.000    0.000    0.000    0.000    0.000    0.000 
#    0.000    0.000    0.000    0.000    0.000    0.000 
#
# Total GULP energy -694784.834310 kJ/mol
# GULP energy per Si atom -12406.872041 kJ/mol
# Density = 2.024325 g / cm^3
# Si number density = 20.289429 Si / 1000 Ang^3
#
#
#
# Elastic Constant Matrix: (Units=GPa)
#
#
# Indices 1 2 3 4 5 6 
#
# 1 65.4572 34.4933 17.0397 0.0000 0.0000 0.0000
# 2 34.4933 117.3540 31.2538 0.0000 0.0000 0.0000
# 3 17.0397 31.2538 48.4799 0.0000 0.0000 0.0000
# 4 0.0000 0.0000 0.0000 39.1455 0.0000 0.0000
# 5 0.0000 0.0000 0.0000 0.0000 33.7495 0.0000
# 6 0.0000 0.0000 0.0000 0.0000 0.0000 35.7465
#
#
#
# Elastic Compliance Matrix: (Units=1/GPa)
#
#
# Indices 1 2 3 4 5 6 
#
# 1 0.018593 -0.004497 -0.003636 0.000000 0.000000 0.000000
# 2 -0.004497 0.011375 -0.005753 0.000000 0.000000 0.000000
# 3 -0.003636 -0.005753 0.025614 0.000000 0.000000 0.000000
# 4 0.000000 0.000000 0.000000 0.025546 0.000000 0.000000
# 5 0.000000 0.000000 0.000000 0.000000 0.029630 0.000000
# 6 0.000000 0.000000 0.000000 0.000000 0.000000 0.027975
#
#
# Mechanical properties :
#
#
# Convention : Reuss Voigt Hill
#
# Bulk Modulus (GPa) = 35.95722 44.09607 40.02665
# Shear Modulus (GPa) = 28.44559 31.62856 30.03708
#
# Velocity S-wave (km/s) = 3.74838 3.95254 3.85181
# Velocity P-wave (km/s) = 6.04106 6.52769 6.28908
#
# Compressibility (1/GPa) = 0.02781082
#
# Stress axis : x y z
#
# Youngs Moduli (GPa) = 53.78281 87.91250 39.04146
#
# Poissons Ratio (x) = 0.39531 0.14197
# Poissons Ratio (y) = 0.24184 0.22459
# Poissons Ratio (z) = 0.19557 0.50573
#
# Static dielectric constant tensor:
#      x y z
#    x 3.718780 0.000000 0.000000 
#    y 0.000000 3.720090 0.000000 
#    z 0.000000 0.000000 3.604470 
# 
# 
# High freq. dielectric constant tensor:
#      x y z
#    x 1.800660 0.000000 0.000000 
#    y 0.000000 1.798810 0.000000 
#    z 0.000000 0.000000 1.792580 
# 
# From -- ./inp_files/20338.got.cif
#   From: 2010.03.12/outbox.cif.g09.slc.cpg/sg62_11_cif.got.tgz:20338.got - 2010.04.10 19:12:36.
