data_PCOD8253175
_publ_section_title
;
Structure prediction by ZEFSAII (Michael W. Deem and Ramdas Pophale) SiO2 
 PCOD8253175
Probable space group: P N M A
;
_chemical_formula_sum "Si O2"
_cell_formula_units_Z 56
_cell_length_a 14.501360
_cell_length_b 13.694099
_cell_length_c 14.455649
_cell_angle_alpha 90.000000
_cell_angle_beta 90.000000
_cell_angle_gamma 90.000000
_cell_volume 2870.647005
_symmetry_space_group_name_H-M "P N M A"
_symmetry_group_IT_number 62
_symmetry_cell_setting 'orthorhombic'
loop_
_space_group_symop_operation_xyz
x,y,z
1/2-x,-y,1/2+z
1/2+x,1/2-y,1/2-z
-x,1/2+y,-z
-x,-y,-z
1/2+x,y,1/2-z
1/2-x,1/2+y,1/2+z
x,1/2-y,z
loop_
_atom_site_type_symbol
_atom_site_label
_atom_site_fract_x
_atom_site_fract_y
_atom_site_fract_z
Si Si1 0.358292 0.469266 0.049933
Si Si2 0.778774 0.862430 0.089039
Si Si3 0.818780 0.488892 0.243435
Si Si4 0.492521 0.962114 0.649396
Si Si5 0.513960 0.140944 0.535894
Si Si6 0.541469 0.142074 0.046330
Si Si7 0.847007 0.858726 0.732698
O O1 0.306574 0.494406 0.145737
O O2 0.436185 0.387924 0.063655
O O3 0.289821 0.427873 0.972062
O O4 0.405298 0.570401 0.021652
O O5 0.744367 0.750000 0.100549
O O6 0.875454 0.864589 0.035832
O O7 0.789970 0.910661 0.191167
O O8 0.923987 0.459527 0.222066
O O9 0.752028 0.403238 0.207580
O O10 0.522939 0.895366 0.562924
O O11 0.397656 0.924861 0.691769
O O12 0.472753 0.072816 0.616439
O O13 0.477856 0.250000 0.554413
O O14 0.542663 0.250000 0.001312
O O15 0.590723 0.144020 0.143575
O O16 0.833161 0.750000 0.773372
#
# Coordination Sequence:
#
# PCOD8253175 Si02
#       7
#     8   8   8   8   8   8   8
#     4  11  21  39  64  87 123 163 205 252 305 366
#     4  10  21  39  60  88 121 158 204 248 301 373
#     4  11  23  38  62  91 118 158 202 249 305 356
#     4  10  20  37  58  84 120 151 193 248 296 354
#     4   9  19  36  59  84 117 156 191 242 302 357
#     4  10  22  39  60  88 121 159 201 250 303 355
#     4  11  22  38  59  86 119 151 196 248 297 350
#
# _framework density 19.507798000000001
#
# number of rings (size 3 to 8) (size 9 to 14) (size 15 to 20)
#    0.000    1.714    2.857    1.714    0.000    4.000 
#    0.000    0.714    0.000    0.000    0.000    0.000 
#    0.000    0.000    0.000    0.000    0.000    0.000 
#
# Total GULP energy -694386.538303 kJ/mol
# GULP energy per Si atom -12399.759613 kJ/mol
# Density = 1.946340 g / cm^3
# Si number density = 19.507798 Si / 1000 Ang^3
#
#
#
# Elastic Constant Matrix: (Units=GPa)
#
#
# Indices 1 2 3 4 5 6 
#
# 1 35.6975 32.1023 22.7178 0.0000 0.0000 0.0000
# 2 32.1023 147.8117 43.9588 0.0000 0.0000 0.0000
# 3 22.7178 43.9588 78.2420 0.0000 0.0000 0.0000
# 4 0.0000 0.0000 0.0000 22.7133 0.0000 0.0000
# 5 0.0000 0.0000 0.0000 0.0000 27.8514 0.0000
# 6 0.0000 0.0000 0.0000 0.0000 0.0000 23.9548
#
#
#
# Elastic Compliance Matrix: (Units=1/GPa)
#
#
# Indices 1 2 3 4 5 6 
#
# 1 0.038368 -0.006027 -0.007754 0.000000 0.000000 0.000000
# 2 -0.006027 0.009069 -0.003345 0.000000 0.000000 0.000000
# 3 -0.007754 -0.003345 0.016912 0.000000 0.000000 0.000000
# 4 0.000000 0.000000 0.000000 0.044027 0.000000 0.000000
# 5 0.000000 0.000000 0.000000 0.000000 0.035905 0.000000
# 6 0.000000 0.000000 0.000000 0.000000 0.000000 0.041745
#
#
# Mechanical properties :
#
#
# Convention : Reuss Voigt Hill
#
# Bulk Modulus (GPa) = 33.22705 51.03435 42.13070
# Shear Modulus (GPa) = 21.70980 25.76873 23.73927
#
# Velocity S-wave (km/s) = 3.33960 3.63842 3.49221
# Velocity P-wave (km/s) = 5.65157 6.62334 6.15666
#
# Compressibility (1/GPa) = 0.03009596
#
# Stress axis : x y z
#
# Youngs Moduli (GPa) = 26.06362 110.26313 59.12998
#
# Poissons Ratio (x) = 0.66453 0.45850
# Poissons Ratio (y) = 0.15708 0.19782
# Poissons Ratio (z) = 0.20210 0.36888
#
# Static dielectric constant tensor:
#      x y z
#    x 3.555630 0.000000 0.000000 
#    y 0.000000 3.619870 0.000000 
#    z 0.000000 0.000000 3.448890 
# 
# 
# High freq. dielectric constant tensor:
#      x y z
#    x 1.756860 0.000000 0.000000 
#    y 0.000000 1.766850 0.000000 
#    z 0.000000 0.000000 1.755920 
# 
# From -- ./inp_files/19128.got.cif
#   From: 2010.03.12/outbox.cif.g09.slc.cpg/sg62_10_cif.got.tgz:19128.got - 2010.04.10 19:12:36.
