data_PCOD8253983
_publ_section_title
;
Structure prediction by ZEFSAII (Michael W. Deem and Ramdas Pophale) SiO2 
 PCOD8253983
Probable space group: P N M A
;
_chemical_formula_sum "Si O2"
_cell_formula_units_Z 40
_cell_length_a 11.249458
_cell_length_b 19.917989
_cell_length_c 8.176706
_cell_angle_alpha 90.000000
_cell_angle_beta 90.000000
_cell_angle_gamma 90.000000
_cell_volume 1832.126555
_symmetry_space_group_name_H-M "P N M A"
_symmetry_group_IT_number 62
_symmetry_cell_setting 'orthorhombic'
loop_
_space_group_symop_operation_xyz
x,y,z
1/2-x,-y,1/2+z
1/2+x,1/2-y,1/2-z
-x,1/2+y,-z
-x,-y,-z
1/2+x,y,1/2-z
1/2-x,1/2+y,1/2+z
x,1/2-y,z
loop_
_atom_site_type_symbol
_atom_site_label
_atom_site_fract_x
_atom_site_fract_y
_atom_site_fract_z
Si Si1 0.834266 0.673011 0.379740
Si Si2 0.359510 0.949995 0.697857
Si Si3 0.782432 0.174844 0.203975
Si Si4 0.540368 0.894206 0.913897
Si Si5 0.234837 0.064098 0.875479
O O1 0.857493 0.750000 0.327118
O O2 0.723170 0.668104 0.506048
O O3 0.952340 0.643551 0.463280
O O4 0.801961 0.631044 0.219286
O O5 0.316141 0.873715 0.720759
O O6 0.478144 0.955241 0.809409
O O7 0.372016 0.957989 0.500469
O O8 0.259254 0.003142 0.752802
O O9 0.747627 0.250000 0.256378
O O10 0.912020 0.157392 0.275508
O O11 0.647252 0.924442 0.017736
#
# Coordination Sequence:
#
# PCOD8253983 Si02
#       5
#     8   8   8   8   8
#     4  10  22  40  62  90 122 156 199 246 294 353
#     4  10  21  38  60  87 118 155 198 245 296 353
#     4   9  19  37  60  85 116 153 194 242 294 350
#     4  10  21  39  63  90 118 157 199 246 299 353
#     4  11  23  40  62  88 122 157 200 249 296 353
#
# _framework density 21.832550999999999
#
# number of rings (size 3 to 8) (size 9 to 14) (size 15 to 20)
#    0.000    2.000    0.000    3.600    0.000    8.000 
#    0.000    8.000    0.000    0.000    0.000    0.000 
#    0.000    0.000    0.000    0.000    0.000    0.000 
#
# Total GULP energy -495711.235960 kJ/mol
# GULP energy per Si atom -12392.780899 kJ/mol
# Density = 2.178286 g / cm^3
# Si number density = 21.832551 Si / 1000 Ang^3
#
#
#
# Elastic Constant Matrix: (Units=GPa)
#
#
# Indices 1 2 3 4 5 6 
#
# 1 69.9616 1.7370 29.4171 0.0000 0.0000 0.0000
# 2 1.7370 69.6004 21.2974 0.0000 0.0000 0.0000
# 3 29.4171 21.2974 120.0224 0.0000 0.0000 0.0000
# 4 0.0000 0.0000 0.0000 39.2546 0.0000 0.0000
# 5 0.0000 0.0000 0.0000 0.0000 36.5440 0.0000
# 6 0.0000 0.0000 0.0000 0.0000 0.0000 23.0312
#
#
#
# Elastic Compliance Matrix: (Units=1/GPa)
#
#
# Indices 1 2 3 4 5 6 
#
# 1 0.015983 0.000846 -0.004067 0.000000 0.000000 0.000000
# 2 0.000846 0.015237 -0.002911 0.000000 0.000000 0.000000
# 3 -0.004067 -0.002911 0.009845 0.000000 0.000000 0.000000
# 4 0.000000 0.000000 0.000000 0.025475 0.000000 0.000000
# 5 0.000000 0.000000 0.000000 0.000000 0.027364 0.000000
# 6 0.000000 0.000000 0.000000 0.000000 0.000000 0.043419
#
#
# Mechanical properties :
#
#
# Convention : Reuss Voigt Hill
#
# Bulk Modulus (GPa) = 34.72233 40.49862 37.61047
# Shear Modulus (GPa) = 31.40912 33.57480 32.49196
#
# Velocity S-wave (km/s) = 3.79705 3.92577 3.86195
# Velocity P-wave (km/s) = 5.92975 6.25611 6.09511
#
# Compressibility (1/GPa) = 0.02879991
#
# Stress axis : x y z
#
# Youngs Moduli (GPa) = 62.56729 65.62792 101.57188
#
# Poissons Ratio (x) = -0.05550 0.41313
# Poissons Ratio (y) = -0.05291 0.29568
# Poissons Ratio (z) = 0.25449 0.19105
#
# Static dielectric constant tensor:
#      x y z
#    x 4.031000 0.000000 0.000000 
#    y 0.000000 3.968400 0.000000 
#    z 0.000000 0.000000 4.292290 
# 
# 
# High freq. dielectric constant tensor:
#      x y z
#    x 1.839680 0.000000 0.000000 
#    y 0.000000 1.862440 0.000000 
#    z 0.000000 0.000000 1.867790 
# 
# From -- ./inp_files/5008.got.cif
#   From: 2010.03.12/outbox.cif.g09.slc.cpg/sg62_3_cif.got.tgz:5008.got - 2010.04.10 19:12:36.
