data_PCOD8253224
_publ_section_title
;
Structure prediction by ZEFSAII (Michael W. Deem and Ramdas Pophale) SiO2 
 PCOD8253224
Probable space group: P N M A
;
_chemical_formula_sum "Si O2"
_cell_formula_units_Z 48
_cell_length_a 30.294799
_cell_length_b 8.948412
_cell_length_c 9.294427
_cell_angle_alpha 90.000000
_cell_angle_beta 90.000000
_cell_angle_gamma 90.000000
_cell_volume 2519.629403
_symmetry_space_group_name_H-M "P N M A"
_symmetry_group_IT_number 62
_symmetry_cell_setting 'orthorhombic'
loop_
_space_group_symop_operation_xyz
x,y,z
1/2-x,-y,1/2+z
1/2+x,1/2-y,1/2-z
-x,1/2+y,-z
-x,-y,-z
1/2+x,y,1/2-z
1/2-x,1/2+y,1/2+z
x,1/2-y,z
loop_
_atom_site_type_symbol
_atom_site_label
_atom_site_fract_x
_atom_site_fract_y
_atom_site_fract_z
Si Si1 0.370176 0.922770 0.605502
Si Si2 0.037510 0.582635 0.415206
Si Si3 0.364400 0.071930 0.901773
Si Si4 0.960893 0.079754 0.918603
Si Si5 0.790605 0.575186 0.415017
Si Si6 0.213976 0.421056 0.918009
O O1 0.379040 0.750000 0.641083
O O2 0.335103 0.942506 0.478165
O O3 0.351095 0.001995 0.748189
O O4 0.415022 0.997238 0.549231
O O5 0.036628 0.750000 0.472743
O O6 0.086385 0.516271 0.444089
O O7 0.026744 0.572711 0.247847
O O8 0.000000 0.500000 0.500000
O O9 0.362805 0.250000 0.884437
O O10 0.331705 0.017401 0.024570
O O11 0.956299 0.250000 0.971777
O O12 0.000000 0.000000 0.000000
O O13 0.799645 0.750000 0.437035
O O14 0.785533 0.533053 0.248468
O O15 0.746418 0.530353 0.497744
O O16 0.230014 0.250000 0.937833
#
# Coordination Sequence:
#
# PCOD8253224 Si02
#       6
#     8   8   8   8   8   8
#     4  10  20  37  60  84 111 146 186 228 278 332
#     4   9  20  36  55  80 110 144 182 226 274 324
#     4  10  21  38  57  81 113 146 183 227 274 326
#     4  10  21  37  56  82 114 148 187 231 278 328
#     4  11  23  38  58  83 110 144 183 224 273 325
#     4  10  23  40  57  82 114 144 180 228 276 327
#
# _framework density 19.050419999999999
#
# number of rings (size 3 to 8) (size 9 to 14) (size 15 to 20)
#    0.000    2.000    0.000    4.000    0.000   10.667 
#    0.000    5.000    0.000    0.000    0.000    0.000 
#    0.000    0.000    0.000    0.000    0.000    0.000 
#
# Total GULP energy -595350.482472 kJ/mol
# GULP energy per Si atom -12403.135052 kJ/mol
# Density = 1.900706 g / cm^3
# Si number density = 19.050420 Si / 1000 Ang^3
#
#
#
# Elastic Constant Matrix: (Units=GPa)
#
#
# Indices 1 2 3 4 5 6 
#
# 1 116.4613 55.3570 66.5272 0.0000 0.0000 0.0000
# 2 55.3570 108.1092 53.1281 0.0000 0.0000 0.0000
# 3 66.5272 53.1281 105.5404 0.0000 0.0000 0.0000
# 4 0.0000 0.0000 0.0000 32.2314 0.0000 0.0000
# 5 0.0000 0.0000 0.0000 0.0000 39.0707 0.0000
# 6 0.0000 0.0000 0.0000 0.0000 0.0000 38.6086
#
#
#
# Elastic Compliance Matrix: (Units=1/GPa)
#
#
# Indices 1 2 3 4 5 6 
#
# 1 0.014567 -0.003915 -0.007211 0.000000 0.000000 0.000000
# 2 -0.003915 0.013343 -0.004249 0.000000 0.000000 0.000000
# 3 -0.007211 -0.004249 0.016159 0.000000 0.000000 0.000000
# 4 0.000000 0.000000 0.000000 0.031026 0.000000 0.000000
# 5 0.000000 0.000000 0.000000 0.000000 0.025595 0.000000
# 6 0.000000 0.000000 0.000000 0.000000 0.000000 0.025901
#
#
# Mechanical properties :
#
#
# Convention : Reuss Voigt Hill
#
# Bulk Modulus (GPa) = 75.08265 75.57061 75.32663
# Shear Modulus (GPa) = 30.90618 32.32205 31.61411
#
# Velocity S-wave (km/s) = 4.03219 4.12352 4.07811
# Velocity P-wave (km/s) = 7.82153 7.90102 7.86137
#
# Compressibility (1/GPa) = 0.01331866
#
# Stress axis : x y z
#
# Youngs Moduli (GPa) = 68.64880 74.94843 61.88313
#
# Poissons Ratio (x) = 0.29343 0.44627
# Poissons Ratio (y) = 0.26876 0.26292
# Poissons Ratio (z) = 0.49506 0.31843
#
# Static dielectric constant tensor:
#      x y z
#    x 3.546340 0.000000 0.000000 
#    y 0.000000 3.707380 0.000000 
#    z 0.000000 0.000000 4.994250 
# 
# 
# High freq. dielectric constant tensor:
#      x y z
#    x 1.752410 0.000000 0.000000 
#    y 0.000000 1.751150 0.000000 
#    z 0.000000 0.000000 1.737510 
# 
# From -- ./inp_files/10259.got.cif
#   From: 2010.03.12/outbox.cif.g09.slc.cpg/sg62_6_cif.got.tgz:10259.got - 2010.04.10 19:12:36.
