data_PCOD8253860
_publ_section_title
;
Structure prediction by ZEFSAII (Michael W. Deem and Ramdas Pophale) SiO2 
 PCOD8253860
Probable space group: P N M A
;
_chemical_formula_sum "Si O2"
_cell_formula_units_Z 64
_cell_length_a 15.494594
_cell_length_b 8.918513
_cell_length_c 23.655579
_cell_angle_alpha 90.000000
_cell_angle_beta 90.000000
_cell_angle_gamma 90.000000
_cell_volume 3268.934609
_symmetry_space_group_name_H-M "P N M A"
_symmetry_group_IT_number 62
_symmetry_cell_setting 'orthorhombic'
loop_
_space_group_symop_operation_xyz
x,y,z
1/2-x,-y,1/2+z
1/2+x,1/2-y,1/2-z
-x,1/2+y,-z
-x,-y,-z
1/2+x,y,1/2-z
1/2-x,1/2+y,1/2+z
x,1/2-y,z
loop_
_atom_site_type_symbol
_atom_site_label
_atom_site_fract_x
_atom_site_fract_y
_atom_site_fract_z
Si Si1 0.334649 0.427106 0.779469
Si Si2 0.097592 0.577710 0.611847
Si Si3 0.013348 0.073265 0.208432
Si Si4 0.370978 0.076362 0.489570
Si Si5 0.322048 0.573592 0.004269
Si Si6 0.000775 0.422987 0.910052
Si Si7 0.334681 0.076339 0.233907
Si Si8 0.901100 0.573816 0.612972
O O1 0.342403 0.250000 0.778053
O O2 0.411146 0.495487 0.742862
O O3 0.242671 0.473627 0.754669
O O4 0.340503 0.485539 0.843556
O O5 0.099062 0.750000 0.593516
O O6 0.134794 0.484620 0.560664
O O7 0.154368 0.548056 0.667207
O O8 0.999738 0.528742 0.624800
O O9 0.027568 0.250000 0.213234
O O10 0.921176 0.026189 0.233806
O O11 0.019342 0.022530 0.144045
O O12 0.372145 0.250000 0.470823
O O13 0.275171 0.012907 0.498611
O O14 0.421108 0.052736 0.547928
O O15 0.411802 0.979481 0.439325
O O16 0.319892 0.750000 0.009154
O O17 0.376826 0.521317 0.950107
O O18 0.011840 0.250000 0.892721
O O19 0.313752 0.250000 0.246304
O O20 0.884748 0.750000 0.621616
#
# Coordination Sequence:
#
# PCOD8253860 Si02
#       8
#     8   8   8   8   8   8   8   8
#     4  12  26  41  63  95 128 160 203 261 313 364
#     4  10  21  40  63  88 119 156 204 252 299 361
#     4  11  23  43  68  91 123 166 210 250 307 378
#     4   9  20  39  57  84 121 162 202 244 301 365
#     4  10  22  37  61  90 119 157 203 252 305 362
#     4  10  21  37  59  87 124 158 200 253 303 357
#     4  10  23  43  65  89 122 167 208 250 303 372
#     4  10  21  42  64  86 121 163 204 247 303 372
#
# _framework density 19.578244000000002
#
# number of rings (size 3 to 8) (size 9 to 14) (size 15 to 20)
#    0.000    1.750    1.250    2.250    3.500    3.500 
#    0.000    0.000    0.000    0.000    0.000    0.000 
#    0.000    0.000    0.000    0.000    0.000    0.000 
#
# Total GULP energy -793925.899317 kJ/mol
# GULP energy per Si atom -12405.092177 kJ/mol
# Density = 1.953368 g / cm^3
# Si number density = 19.578244 Si / 1000 Ang^3
#
#
#
# Elastic Constant Matrix: (Units=GPa)
#
#
# Indices 1 2 3 4 5 6 
#
# 1 131.3961 62.2786 87.8107 0.0000 0.0000 0.0000
# 2 62.2786 79.2020 67.8111 0.0000 0.0000 0.0000
# 3 87.8107 67.8111 226.2050 0.0000 0.0000 0.0000
# 4 0.0000 0.0000 0.0000 38.2176 0.0000 0.0000
# 5 0.0000 0.0000 0.0000 0.0000 23.7947 0.0000
# 6 0.0000 0.0000 0.0000 0.0000 0.0000 22.0263
#
#
#
# Elastic Compliance Matrix: (Units=1/GPa)
#
#
# Indices 1 2 3 4 5 6 
#
# 1 0.013271 -0.008105 -0.002722 0.000000 0.000000 0.000000
# 2 -0.008105 0.021935 -0.003429 0.000000 0.000000 0.000000
# 3 -0.002722 -0.003429 0.006506 0.000000 0.000000 0.000000
# 4 0.000000 0.000000 0.000000 0.026166 0.000000 0.000000
# 5 0.000000 0.000000 0.000000 0.000000 0.042026 0.000000
# 6 0.000000 0.000000 0.000000 0.000000 0.000000 0.045400
#
#
# Mechanical properties :
#
#
# Convention : Reuss Voigt Hill
#
# Bulk Modulus (GPa) = 75.76261 96.95599 86.35930
# Shear Modulus (GPa) = 26.56506 31.40123 28.98315
#
# Velocity S-wave (km/s) = 3.68756 4.00920 3.85174
# Velocity P-wave (km/s) = 7.54402 8.42979 7.99917
#
# Compressibility (1/GPa) = 0.01319912
#
# Stress axis : x y z
#
# Youngs Moduli (GPa) = 75.35061 45.58865 153.71519
#
# Poissons Ratio (x) = 0.36949 0.41843
# Poissons Ratio (y) = 0.61071 0.52716
# Poissons Ratio (z) = 0.20511 0.15634
#
# Static dielectric constant tensor:
#      x y z
#    x 3.760350 0.000000 0.000000 
#    y 0.000000 3.518920 0.000000 
#    z 0.000000 0.000000 3.653580 
# 
# 
# High freq. dielectric constant tensor:
#      x y z
#    x 1.772700 0.000000 0.000000 
#    y 0.000000 1.756220 0.000000 
#    z 0.000000 0.000000 1.775770 
# 
# From -- ./inp_files/29908.got.cif
#   From: 2010.03.12/outbox.cif.g09.slc.cpg/sg62_15_cif.got.tgz:29908.got - 2010.04.10 19:12:36.
