data_PCOD8253697
_publ_section_title
;
Structure prediction by ZEFSAII (Michael W. Deem and Ramdas Pophale) SiO2 
 PCOD8253697
Probable space group: P N M A
;
_chemical_formula_sum "Si O2"
_cell_formula_units_Z 64
_cell_length_a 18.570206
_cell_length_b 14.755051
_cell_length_c 11.713405
_cell_angle_alpha 90.000000
_cell_angle_beta 90.000000
_cell_angle_gamma 90.000000
_cell_volume 3209.523766
_symmetry_space_group_name_H-M "P N M A"
_symmetry_group_IT_number 62
_symmetry_cell_setting 'orthorhombic'
loop_
_space_group_symop_operation_xyz
x,y,z
1/2-x,-y,1/2+z
1/2+x,1/2-y,1/2-z
-x,1/2+y,-z
-x,-y,-z
1/2+x,y,1/2-z
1/2-x,1/2+y,1/2+z
x,1/2-y,z
loop_
_atom_site_type_symbol
_atom_site_label
_atom_site_fract_x
_atom_site_fract_y
_atom_site_fract_z
Si Si1 0.070879 0.851400 0.356464
Si Si2 0.286396 0.088745 0.748253
Si Si3 0.982887 0.500533 0.220456
Si Si4 0.726923 0.854977 0.502886
Si Si5 0.475149 0.143981 0.103776
Si Si6 0.132987 0.150825 0.379202
Si Si7 0.157926 0.030882 0.910294
Si Si8 0.628129 0.075070 0.349358
O O1 0.041571 0.750000 0.333839
O O2 0.153520 0.855529 0.316980
O O3 0.071709 0.871864 0.491514
O O4 0.016666 0.919157 0.295082
O O5 0.264709 0.142919 0.633764
O O6 0.216620 0.071825 0.825567
O O7 0.320483 0.994268 0.715705
O O8 0.945442 0.420812 0.296210
O O9 0.920183 0.542147 0.144484
O O10 0.045920 0.460023 0.140743
O O11 0.709783 0.750000 0.539914
O O12 0.798938 0.897364 0.561674
O O13 0.666708 0.925319 0.549427
O O14 0.475188 0.250000 0.142031
O O15 0.557218 0.106835 0.082543
O O16 0.136015 0.250000 0.432094
O O17 0.134109 0.157998 0.239963
O O18 0.157978 0.094405 0.024187
#
# Coordination Sequence:
#
# PCOD8253697 Si02
#       8
#     8   8   8   8   8   8   8   8
#     4  10  21  39  57  82 119 159 193 241 302 357
#     4  10  21  36  56  81 116 150 191 241 293 348
#     4  10  21  36  59  86 117 156 197 247 293 353
#     4  10  21  37  58  83 116 156 195 239 295 358
#     4   9  19  34  58  87 115 150 197 245 290 344
#     4   9  17  34  57  81 109 148 192 241 286 339
#     4  11  22  36  60  87 115 154 198 243 293 354
#     4   9  19  38  54  80 115 151 189 233 293 348
#
# _framework density 19.940653000000001
#
# number of rings (size 3 to 8) (size 9 to 14) (size 15 to 20)
#    0.000    2.250    1.250    1.125    1.750    2.500 
#    0.000    2.500    0.000    3.000    0.000    0.000 
#    0.000    0.000    0.000    0.000    0.000    0.000 
#
# Total GULP energy -793035.282261 kJ/mol
# GULP energy per Si atom -12391.176285 kJ/mol
# Density = 1.989527 g / cm^3
# Si number density = 19.940653 Si / 1000 Ang^3
#
#
#
# Elastic Constant Matrix: (Units=GPa)
#
#
# Indices 1 2 3 4 5 6 
#
# 1 89.2207 7.3741 57.6345 0.0000 0.0000 0.0000
# 2 7.3741 54.8786 18.1352 0.0000 0.0000 0.0000
# 3 57.6345 18.1352 106.6457 0.0000 0.0000 0.0000
# 4 0.0000 0.0000 0.0000 23.0997 0.0000 0.0000
# 5 0.0000 0.0000 0.0000 0.0000 31.2927 0.0000
# 6 0.0000 0.0000 0.0000 0.0000 0.0000 16.4077
#
#
#
# Elastic Compliance Matrix: (Units=1/GPa)
#
#
# Indices 1 2 3 4 5 6 
#
# 1 0.017253 0.000808 -0.009462 0.000000 0.000000 0.000000
# 2 0.000808 0.019345 -0.003726 0.000000 0.000000 0.000000
# 3 -0.009462 -0.003726 0.015124 0.000000 0.000000 0.000000
# 4 0.000000 0.000000 0.000000 0.043291 0.000000 0.000000
# 5 0.000000 0.000000 0.000000 0.000000 0.031956 0.000000
# 6 0.000000 0.000000 0.000000 0.000000 0.000000 0.060947
#
#
# Mechanical properties :
#
#
# Convention : Reuss Voigt Hill
#
# Bulk Modulus (GPa) = 37.08848 46.33694 41.71271
# Shear Modulus (GPa) = 22.55674 25.33343 23.94509
#
# Velocity S-wave (km/s) = 3.36697 3.56819 3.46904
# Velocity P-wave (km/s) = 5.80992 6.34538 6.08354
#
# Compressibility (1/GPa) = 0.02696255
#
# Stress axis : x y z
#
# Youngs Moduli (GPa) = 57.95965 51.69330 66.12044
#
# Poissons Ratio (x) = -0.04179 0.62561
# Poissons Ratio (y) = -0.04685 0.24640
# Poissons Ratio (z) = 0.54840 0.19263
#
# Static dielectric constant tensor:
#      x y z
#    x 3.615790 0.000000 0.000000 
#    y 0.000000 3.530300 0.000000 
#    z 0.000000 0.000000 3.769670 
# 
# 
# High freq. dielectric constant tensor:
#      x y z
#    x 1.770690 0.000000 0.000000 
#    y 0.000000 1.766350 0.000000 
#    z 0.000000 0.000000 1.779030 
# 
# From -- ./inp_files/13584.got.cif
#   From: 2010.03.12/outbox.cif.g09.slc.cpg/sg62_7_cif.got.tgz:13584.got - 2010.04.10 19:12:36.
