data_PCOD8253509
_publ_section_title
;
Structure prediction by ZEFSAII (Michael W. Deem and Ramdas Pophale) SiO2 
 PCOD8253509
Probable space group: P N M A
;
_chemical_formula_sum "Si O2"
_cell_formula_units_Z 48
_cell_length_a 15.211933
_cell_length_b 8.378980
_cell_length_c 18.896788
_cell_angle_alpha 90.000000
_cell_angle_beta 90.000000
_cell_angle_gamma 90.000000
_cell_volume 2408.593714
_symmetry_space_group_name_H-M "P N M A"
_symmetry_group_IT_number 62
_symmetry_cell_setting 'orthorhombic'
loop_
_space_group_symop_operation_xyz
x,y,z
1/2-x,-y,1/2+z
1/2+x,1/2-y,1/2-z
-x,1/2+y,-z
-x,-y,-z
1/2+x,y,1/2-z
1/2-x,1/2+y,1/2+z
x,1/2-y,z
loop_
_atom_site_type_symbol
_atom_site_label
_atom_site_fract_x
_atom_site_fract_y
_atom_site_fract_z
Si Si1 0.849526 0.934796 0.178002
Si Si2 0.008417 0.564635 0.421544
Si Si3 0.336448 0.936286 0.829595
Si Si4 0.146129 0.936380 0.669220
Si Si5 0.497679 0.060167 0.420947
Si Si6 0.342963 0.561758 0.671631
O O1 0.860867 0.750000 0.196163
O O2 0.751366 0.968516 0.149936
O O3 0.873118 0.035695 0.247951
O O4 0.912972 0.985447 0.115200
O O5 0.031533 0.750000 0.422679
O O6 0.087416 0.470736 0.384884
O O7 0.000000 0.500000 0.500000
O O8 0.918302 0.537598 0.379614
O O9 0.313194 0.750000 0.829737
O O10 0.367570 0.991864 0.751387
O O11 0.132662 0.750000 0.652775
O O12 0.244898 0.997292 0.651536
O O13 0.492897 0.250000 0.417400
O O14 0.584893 0.991768 0.381927
O O15 0.500000 0.000000 0.500000
O O16 0.343516 0.750000 0.666800
#
# Coordination Sequence:
#
# PCOD8253509 Si02
#       6
#     8   8   8   8   8   8
#     4  11  22  38  60  89 119 152 194 243 293 350
#     4  12  25  40  58  86 121 159 198 243 295 353
#     4  10  20  39  64  88 112 149 197 247 297 349
#     4  10  20  39  63  87 114 151 197 247 295 346
#     4  11  22  38  57  83 118 157 197 243 294 348
#     4   8  18  36  61  85 110 146 191 239 291 342
#
# _framework density 19.928642
#
# number of rings (size 3 to 8) (size 9 to 14) (size 15 to 20)
#    0.000    1.667    0.000    6.500    0.000    2.667 
#    0.000   14.167    0.000    0.000    0.000    0.000 
#    0.000    0.000    0.000    0.000    0.000    0.000 
#
# Total GULP energy -595359.066461 kJ/mol
# GULP energy per Si atom -12403.313885 kJ/mol
# Density = 1.988328 g / cm^3
# Si number density = 19.928642 Si / 1000 Ang^3
#
#
#
# Elastic Constant Matrix: (Units=GPa)
#
#
# Indices 1 2 3 4 5 6 
#
# 1 131.4881 16.3786 87.1186 0.0000 0.0000 0.0000
# 2 16.3786 69.8340 10.6629 0.0000 0.0000 0.0000
# 3 87.1186 10.6629 128.9337 0.0000 0.0000 0.0000
# 4 0.0000 0.0000 0.0000 33.0395 0.0000 0.0000
# 5 0.0000 0.0000 0.0000 0.0000 8.9094 0.0000
# 6 0.0000 0.0000 0.0000 0.0000 0.0000 29.8795
#
#
#
# Elastic Compliance Matrix: (Units=1/GPa)
#
#
# Indices 1 2 3 4 5 6 
#
# 1 0.014005 -0.001863 -0.009309 0.000000 0.000000 0.000000
# 2 -0.001863 0.014751 0.000039 0.000000 0.000000 0.000000
# 3 -0.009309 0.000039 0.014043 0.000000 0.000000 0.000000
# 4 0.000000 0.000000 0.000000 0.030267 0.000000 0.000000
# 5 0.000000 0.000000 0.000000 0.000000 0.112241 0.000000
# 6 0.000000 0.000000 0.000000 0.000000 0.000000 0.033468
#
#
# Mechanical properties :
#
#
# Convention : Reuss Voigt Hill
#
# Bulk Modulus (GPa) = 48.70410 62.06399 55.38405
# Shear Modulus (GPa) = 20.17070 28.77206 24.47138
#
# Velocity S-wave (km/s) = 3.18488 3.80380 3.50801
# Velocity P-wave (km/s) = 6.16578 7.10652 6.65280
#
# Compressibility (1/GPa) = 0.02053215
#
# Stress axis : x y z
#
# Youngs Moduli (GPa) = 71.40280 67.79328 71.21196
#
# Poissons Ratio (x) = 0.12632 0.66291
# Poissons Ratio (y) = 0.13305 -0.00279
# Poissons Ratio (z) = 0.66468 -0.00265
#
# Static dielectric constant tensor:
#      x y z
#    x 3.907550 0.000000 0.000000 
#    y 0.000000 3.589030 0.000000 
#    z 0.000000 0.000000 3.371530 
# 
# 
# High freq. dielectric constant tensor:
#      x y z
#    x 1.791250 0.000000 0.000000 
#    y 0.000000 1.774810 0.000000 
#    z 0.000000 0.000000 1.774110 
# 
# From -- ./inp_files/23639.got.cif
#   From: 2010.03.12/outbox.cif.g09.slc.cpg/sg62_12_cif.got.tgz:23639.got - 2010.04.10 19:12:36.
