data_PCOD8253717
_publ_section_title
;
Structure prediction by ZEFSAII (Michael W. Deem and Ramdas Pophale) SiO2 
 PCOD8253717
Probable space group: P N M A
;
_chemical_formula_sum "Si O2"
_cell_formula_units_Z 48
_cell_length_a 17.389510
_cell_length_b 9.642020
_cell_length_c 13.196446
_cell_angle_alpha 90.000000
_cell_angle_beta 90.000000
_cell_angle_gamma 90.000000
_cell_volume 2212.648143
_symmetry_space_group_name_H-M "P N M A"
_symmetry_group_IT_number 62
_symmetry_cell_setting 'orthorhombic'
loop_
_space_group_symop_operation_xyz
x,y,z
1/2-x,-y,1/2+z
1/2+x,1/2-y,1/2-z
-x,1/2+y,-z
-x,-y,-z
1/2+x,y,1/2-z
1/2-x,1/2+y,1/2+z
x,1/2-y,z
loop_
_atom_site_type_symbol
_atom_site_label
_atom_site_fract_x
_atom_site_fract_y
_atom_site_fract_z
Si Si1 0.028069 0.412925 0.783423
Si Si2 0.662106 0.594655 0.712644
Si Si3 0.518808 0.092766 0.095450
Si Si4 0.638811 0.902930 0.341531
Si Si5 0.182600 0.007058 0.372009
Si Si6 0.763187 0.094201 0.419465
O O1 0.040728 0.250000 0.756692
O O2 0.103878 0.479997 0.836182
O O3 0.020704 0.510448 0.686003
O O4 0.952593 0.431638 0.852900
O O5 0.627210 0.750000 0.705878
O O6 0.741241 0.595273 0.649741
O O7 0.678647 0.550703 0.829577
O O8 0.485365 0.250000 0.086236
O O9 0.610469 0.108156 0.110896
O O10 0.500000 0.000000 0.000000
O O11 0.657980 0.750000 0.381271
O O12 0.663484 0.908883 0.223465
O O13 0.685084 0.005361 0.414241
O O14 0.194318 0.917115 0.473345
O O15 0.735684 0.250000 0.400787
#
# Coordination Sequence:
#
# PCOD8253717 Si02
#       6
#     8   8   8   8   8   8
#     4  10  21  37  56  80 111 148 188 232 283 338
#     4  10  21  37  58  85 114 147 189 236 282 334
#     4  11  22  36  57  85 116 150 188 233 285 341
#     4   9  20  37  57  81 112 147 185 231 282 336
#     4  10  21  37  59  85 115 150 190 233 281 337
#     4  10  21  36  57  84 113 146 187 233 284 340
#
# _framework density 21.693463000000001
#
# number of rings (size 3 to 8) (size 9 to 14) (size 15 to 20)
#    0.000    2.000    0.000    3.000    0.000   12.667 
#    0.000    0.833    0.000    0.000    0.000    0.000 
#    0.000    0.000    0.000    0.000    0.000    0.000 
#
# Total GULP energy -595001.353372 kJ/mol
# GULP energy per Si atom -12395.861529 kJ/mol
# Density = 2.164409 g / cm^3
# Si number density = 21.693463 Si / 1000 Ang^3
#
#
#
# Elastic Constant Matrix: (Units=GPa)
#
#
# Indices 1 2 3 4 5 6 
#
# 1 121.6529 56.7782 10.1048 0.0000 0.0000 0.0000
# 2 56.7782 136.5738 -3.5309 0.0000 0.0000 0.0000
# 3 10.1048 -3.5309 38.4174 0.0000 0.0000 0.0000
# 4 0.0000 0.0000 0.0000 18.6363 0.0000 0.0000
# 5 0.0000 0.0000 0.0000 0.0000 21.2635 0.0000
# 6 0.0000 0.0000 0.0000 0.0000 0.0000 32.7875
#
#
#
# Elastic Compliance Matrix: (Units=1/GPa)
#
#
# Indices 1 2 3 4 5 6 
#
# 1 0.010576 -0.004479 -0.003193 0.000000 0.000000 0.000000
# 2 -0.004479 0.009237 0.002027 0.000000 0.000000 0.000000
# 3 -0.003193 0.002027 0.027056 0.000000 0.000000 0.000000
# 4 0.000000 0.000000 0.000000 0.053659 0.000000 0.000000
# 5 0.000000 0.000000 0.000000 0.000000 0.047029 0.000000
# 6 0.000000 0.000000 0.000000 0.000000 0.000000 0.030499
#
#
# Mechanical properties :
#
#
# Convention : Reuss Voigt Hill
#
# Bulk Modulus (GPa) = 28.10771 47.03871 37.57321
# Shear Modulus (GPa) = 24.85010 30.09025 27.47018
#
# Velocity S-wave (km/s) = 3.38821 3.72837 3.56235
# Velocity P-wave (km/s) = 5.31898 6.34545 5.85476
#
# Compressibility (1/GPa) = 0.03557742
#
# Stress axis : x y z
#
# Youngs Moduli (GPa) = 94.55394 108.26424 36.96016
#
# Poissons Ratio (x) = 0.48495 0.11803
# Poissons Ratio (y) = 0.42354 -0.07492
# Poissons Ratio (z) = 0.30195 -0.21946
#
# Static dielectric constant tensor:
#      x y z
#    x 4.188580 0.000000 0.000000 
#    y 0.000000 3.787450 0.000000 
#    z 0.000000 0.000000 3.684100 
# 
# 
# High freq. dielectric constant tensor:
#      x y z
#    x 1.864870 0.000000 0.000000 
#    y 0.000000 1.851490 0.000000 
#    z 0.000000 0.000000 1.825070 
# 
# From -- ./inp_files/19650.got.cif
#   From: 2010.03.12/outbox.cif.g09.slc.cpg/sg62_10_cif.got.tgz:19650.got - 2010.04.10 19:12:36.
