data_PCOD8253323
_publ_section_title
;
Structure prediction by ZEFSAII (Michael W. Deem and Ramdas Pophale) SiO2 
 PCOD8253323
Probable space group: P N M A
;
_chemical_formula_sum "Si O2"
_cell_formula_units_Z 32
_cell_length_a 8.286774
_cell_length_b 7.724850
_cell_length_c 23.209800
_cell_angle_alpha 90.000000
_cell_angle_beta 90.000000
_cell_angle_gamma 90.000000
_cell_volume 1485.754136
_symmetry_space_group_name_H-M "P N M A"
_symmetry_group_IT_number 62
_symmetry_cell_setting 'orthorhombic'
loop_
_space_group_symop_operation_xyz
x,y,z
1/2-x,-y,1/2+z
1/2+x,1/2-y,1/2-z
-x,1/2+y,-z
-x,-y,-z
1/2+x,y,1/2-z
1/2-x,1/2+y,1/2+z
x,1/2-y,z
loop_
_atom_site_type_symbol
_atom_site_label
_atom_site_fract_x
_atom_site_fract_y
_atom_site_fract_z
Si Si1 0.827444 0.949306 0.977147
Si Si2 0.219974 0.949070 0.401749
Si Si3 0.420383 0.750000 0.831240
Si Si4 0.217839 0.250000 0.210594
Si Si5 0.916854 0.057725 0.860924
O O1 0.822651 0.750000 0.959985
O O2 0.797174 0.049389 0.916950
O O3 0.703359 0.989099 0.029390
O O4 0.000000 0.000000 0.000000
O O5 0.171607 0.750000 0.388990
O O6 0.402004 0.984683 0.381027
O O7 0.099540 0.077656 0.369424
O O8 0.291614 0.750000 0.779583
O O9 0.596629 0.750000 0.805210
O O10 0.132127 0.422560 0.187666
O O11 0.904044 0.250000 0.834295
#
# Coordination Sequence:
#
# PCOD8253323 Si02
#       5
#     8   8   4   4   8
#     4   9  16  29  57  94 126 156 199 244 292 357
#     4   9  20  37  62  95 122 157 202 248 299 358
#     4  12  26  42  66  82 122 166 203 260 305 366
#     4  12  26  44  60  90 116 164 211 252 309 364
#     4  10  20  37  64  93 124 159 202 254 300 358
#
# _framework density 21.537886
#
# number of rings (size 3 to 8) (size 9 to 14) (size 15 to 20)
#    0.000    2.000    1.250    4.500    7.000    2.000 
#    0.000    1.250    0.000    0.000    0.000    0.000 
#    0.000    0.000    0.000    0.000    0.000    0.000 
#
# Total GULP energy -396646.014418 kJ/mol
# GULP energy per Si atom -12395.187951 kJ/mol
# Density = 2.148886 g / cm^3
# Si number density = 21.537886 Si / 1000 Ang^3
#
#
#
# Elastic Constant Matrix: (Units=GPa)
#
#
# Indices 1 2 3 4 5 6 
#
# 1 31.4090 11.6713 -20.2448 0.0000 0.0000 0.0000
# 2 11.6713 103.3201 14.1587 0.0000 0.0000 0.0000
# 3 -20.2448 14.1587 45.7079 0.0000 0.0000 0.0000
# 4 0.0000 0.0000 0.0000 28.3516 0.0000 0.0000
# 5 0.0000 0.0000 0.0000 0.0000 24.4907 0.0000
# 6 0.0000 0.0000 0.0000 0.0000 0.0000 22.3964
#
#
#
# Elastic Compliance Matrix: (Units=1/GPa)
#
#
# Indices 1 2 3 4 5 6 
#
# 1 0.052115 -0.009451 0.026010 0.000000 0.000000 0.000000
# 2 -0.009451 0.011822 -0.007848 0.000000 0.000000 0.000000
# 3 0.026010 -0.007848 0.035830 0.000000 0.000000 0.000000
# 4 0.000000 0.000000 0.000000 0.035271 0.000000 0.000000
# 5 0.000000 0.000000 0.000000 0.000000 0.040832 0.000000
# 6 0.000000 0.000000 0.000000 0.000000 0.000000 0.044650
#
#
# Mechanical properties :
#
#
# Convention : Reuss Voigt Hill
#
# Bulk Modulus (GPa) = 8.53328 21.28970 14.91149
# Shear Modulus (GPa) = 20.64742 26.70452 23.67597
#
# Velocity S-wave (km/s) = 3.09958 3.52502 3.31912
# Velocity P-wave (km/s) = 4.09639 5.14528 4.65050
#
# Compressibility (1/GPa) = 0.11718817
#
# Stress axis : x y z
#
# Youngs Moduli (GPa) = 19.18826 84.58940 27.90990
#
# Poissons Ratio (x) = 0.79949 -0.72595
# Poissons Ratio (y) = 0.18136 0.21904
# Poissons Ratio (z) = -0.49909 0.66387
#
# Static dielectric constant tensor:
#      x y z
#    x 3.439310 0.000000 0.000000 
#    y 0.000000 4.439480 0.000000 
#    z 0.000000 0.000000 4.256710 
# 
# 
# High freq. dielectric constant tensor:
#      x y z
#    x 1.806470 0.000000 0.000000 
#    y 0.000000 1.856010 0.000000 
#    z 0.000000 0.000000 1.848430 
# 
# From -- ./inp_files/25565.got.cif
#   From: 2010.03.12/outbox.cif.g09.slc.cpg/sg62_13_cif.got.tgz:25565.got - 2010.04.10 19:12:36.
