data_PCOD8253667
_publ_section_title
;
Structure prediction by ZEFSAII (Michael W. Deem and Ramdas Pophale) SiO2 
 PCOD8253667
Probable space group: P N M A
;
_chemical_formula_sum "Si O2"
_cell_formula_units_Z 40
_cell_length_a 13.243608
_cell_length_b 13.834019
_cell_length_c 11.067370
_cell_angle_alpha 90.000000
_cell_angle_beta 90.000000
_cell_angle_gamma 90.000000
_cell_volume 2027.678586
_symmetry_space_group_name_H-M "P N M A"
_symmetry_group_IT_number 62
_symmetry_cell_setting 'orthorhombic'
loop_
_space_group_symop_operation_xyz
x,y,z
1/2-x,-y,1/2+z
1/2+x,1/2-y,1/2-z
-x,1/2+y,-z
-x,-y,-z
1/2+x,y,1/2-z
1/2-x,1/2+y,1/2+z
x,1/2-y,z
loop_
_atom_site_type_symbol
_atom_site_label
_atom_site_fract_x
_atom_site_fract_y
_atom_site_fract_z
Si Si1 0.980482 0.997187 0.360725
Si Si2 0.894182 0.138577 0.047030
Si Si3 0.274557 0.023069 0.254068
Si Si4 0.126585 0.637630 0.235596
Si Si5 0.585959 0.138177 0.306242
O O1 0.861525 0.998419 0.340116
O O2 0.031734 0.094195 0.310765
O O3 0.000000 0.000000 0.500000
O O4 0.024473 0.900527 0.297952
O O5 0.868796 0.250000 0.076488
O O6 0.817503 0.073626 0.125283
O O7 0.011979 0.117307 0.079606
O O8 0.879866 0.115609 0.906862
O O9 0.195337 0.089359 0.179650
O O10 0.220271 0.922467 0.291401
O O11 0.141361 0.750000 0.264701
O O12 0.603025 0.250000 0.283415
#
# Coordination Sequence:
#
# PCOD8253667 Si02
#       5
#     8   8   8   8   8
#     4  10  23  40  58  87 125 160 192 245 303 358
#     4   9  19  39  63  88 122 160 202 253 297 354
#     4  10  21  35  62  88 121 156 206 245 299 355
#     4  10  23  41  62  89 120 161 208 248 300 355
#     4   9  19  37  61  89 118 158 203 248 301 353
#
# _framework density 19.726994000000001
#
# number of rings (size 3 to 8) (size 9 to 14) (size 15 to 20)
#    0.000    2.400    0.000    0.600    5.600    9.600 
#    0.000    0.000    0.000    0.000    0.000    0.000 
#    0.000    0.000    0.000    0.000    0.000    0.000 
#
# Total GULP energy -495944.724577 kJ/mol
# GULP energy per Si atom -12398.618114 kJ/mol
# Density = 1.968209 g / cm^3
# Si number density = 19.726994 Si / 1000 Ang^3
#
#
#
# Elastic Constant Matrix: (Units=GPa)
#
#
# Indices 1 2 3 4 5 6 
#
# 1 154.9565 71.5971 43.3036 0.0000 0.0000 0.0000
# 2 71.5971 154.4555 47.2923 0.0000 0.0000 0.0000
# 3 43.3036 47.2923 103.2574 0.0000 0.0000 0.0000
# 4 0.0000 0.0000 0.0000 27.3551 0.0000 0.0000
# 5 0.0000 0.0000 0.0000 0.0000 18.1865 0.0000
# 6 0.0000 0.0000 0.0000 0.0000 0.0000 32.4830
#
#
#
# Elastic Compliance Matrix: (Units=1/GPa)
#
#
# Indices 1 2 3 4 5 6 
#
# 1 0.008575 -0.003343 -0.002065 0.000000 0.000000 0.000000
# 2 -0.003343 0.008833 -0.002644 0.000000 0.000000 0.000000
# 3 -0.002065 -0.002644 0.011762 0.000000 0.000000 0.000000
# 4 0.000000 0.000000 0.000000 0.036556 0.000000 0.000000
# 5 0.000000 0.000000 0.000000 0.000000 0.054986 0.000000
# 6 0.000000 0.000000 0.000000 0.000000 0.000000 0.030785
#
#
# Mechanical properties :
#
#
# Convention : Reuss Voigt Hill
#
# Bulk Modulus (GPa) = 76.53174 81.89506 79.21340
# Shear Modulus (GPa) = 29.07715 32.30333 30.69024
#
# Velocity S-wave (km/s) = 3.84341 4.05102 3.94858
# Velocity P-wave (km/s) = 7.65345 7.96777 7.81219
#
# Compressibility (1/GPa) = 0.01306647
#
# Stress axis : x y z
#
# Youngs Moduli (GPa) = 116.61838 113.20787 85.02265
#
# Poissons Ratio (x) = 0.37840 0.17559
# Poissons Ratio (y) = 0.38980 0.22479
# Poissons Ratio (z) = 0.24084 0.29931
#
# Static dielectric constant tensor:
#      x y z
#    x 3.822870 0.000000 0.000000 
#    y 0.000000 3.908450 0.000000 
#    z 0.000000 0.000000 3.345470 
# 
# 
# High freq. dielectric constant tensor:
#      x y z
#    x 1.778690 0.000000 0.000000 
#    y 0.000000 1.777840 0.000000 
#    z 0.000000 0.000000 1.754920 
# 
# From -- ./inp_files/12057.got.cif
#   From: 2010.03.12/outbox.cif.g09.slc.cpg/sg62_7_cif.got.tgz:12057.got - 2010.04.10 19:12:36.
