data_PCOD8253039
_publ_section_title
;
Structure prediction by ZEFSAII (Michael W. Deem and Ramdas Pophale) SiO2 
 PCOD8253039
Probable space group: P N M A
;
_chemical_formula_sum "Si O2"
_cell_formula_units_Z 36
_cell_length_a 5.268531
_cell_length_b 21.516725
_cell_length_c 13.406961
_cell_angle_alpha 90.000000
_cell_angle_beta 90.000000
_cell_angle_gamma 90.000000
_cell_volume 1519.833648
_symmetry_space_group_name_H-M "P N M A"
_symmetry_group_IT_number 62
_symmetry_cell_setting 'orthorhombic'
loop_
_space_group_symop_operation_xyz
x,y,z
1/2-x,-y,1/2+z
1/2+x,1/2-y,1/2-z
-x,1/2+y,-z
-x,-y,-z
1/2+x,y,1/2-z
1/2-x,1/2+y,1/2+z
x,1/2-y,z
loop_
_atom_site_type_symbol
_atom_site_label
_atom_site_fract_x
_atom_site_fract_y
_atom_site_fract_z
Si Si1 0.796703 0.896020 0.784284
Si Si2 0.278280 0.469150 0.800895
Si Si3 0.249637 0.106648 0.988597
Si Si4 0.732259 0.681794 0.497920
Si Si5 0.372482 0.250000 0.311944
O O1 0.540796 0.856956 0.757219
O O2 0.802865 0.916831 0.898942
O O3 0.773910 0.956434 0.712459
O O4 0.530121 0.439687 0.751554
O O5 0.276813 0.453765 0.918561
O O6 0.503702 0.146854 0.981823
O O7 0.006669 0.145625 0.950055
O O8 0.755123 0.750000 0.446823
O O9 0.669948 0.689578 0.616207
O O10 0.670801 0.250000 0.279250
#
# Coordination Sequence:
#
# PCOD8253039 Si02
#       5
#     8   8   8   8   4
#     4  10  23  38  59  94 128 163 217 254 313 395
#     4  10  23  41  63  93 126 166 220 266 316 384
#     4  12  22  41  67  89 132 176 204 266 329 371
#     4  10  24  39  61  93 121 173 209 258 318 387
#     4  10  20  36  58  88 128 156 200 266 308 364
#
# _framework density 23.686805
#
# number of rings (size 3 to 8) (size 9 to 14) (size 15 to 20)
#    0.667    0.889    0.000    4.667    0.000   12.444 
#    0.000    0.000    0.000   13.333    0.000    0.000 
#    0.000    0.000    0.000    0.000    0.000    0.000 
#
# Total GULP energy -446215.557549 kJ/mol
# GULP energy per Si atom -12394.876599 kJ/mol
# Density = 2.363289 g / cm^3
# Si number density = 23.686805 Si / 1000 Ang^3
#
#
#
# Elastic Constant Matrix: (Units=GPa)
#
#
# Indices 1 2 3 4 5 6 
#
# 1 223.1949 21.2454 27.6274 0.0000 0.0000 0.0000
# 2 21.2454 63.7648 1.9258 0.0000 0.0000 0.0000
# 3 27.6274 1.9258 63.9284 0.0000 0.0000 0.0000
# 4 0.0000 0.0000 0.0000 31.6321 0.0000 0.0000
# 5 0.0000 0.0000 0.0000 0.0000 27.4090 0.0000
# 6 0.0000 0.0000 0.0000 0.0000 0.0000 20.5857
#
#
#
# Elastic Compliance Matrix: (Units=1/GPa)
#
#
# Indices 1 2 3 4 5 6 
#
# 1 0.004885 -0.001565 -0.002064 0.000000 0.000000 0.000000
# 2 -0.001565 0.016198 0.000188 0.000000 0.000000 0.000000
# 3 -0.002064 0.000188 0.016529 0.000000 0.000000 0.000000
# 4 0.000000 0.000000 0.000000 0.031613 0.000000 0.000000
# 5 0.000000 0.000000 0.000000 0.000000 0.036484 0.000000
# 6 0.000000 0.000000 0.000000 0.000000 0.000000 0.048577
#
#
# Mechanical properties :
#
#
# Convention : Reuss Voigt Hill
#
# Bulk Modulus (GPa) = 32.54071 50.27614 41.40843
# Shear Modulus (GPa) = 29.16946 35.93132 32.55039
#
# Velocity S-wave (km/s) = 3.51303 3.89901 3.71104
# Velocity P-wave (km/s) = 5.49754 6.44524 5.99016
#
# Compressibility (1/GPa) = 0.03073073
#
# Stress axis : x y z
#
# Youngs Moduli (GPa) = 204.71455 61.73435 60.50063
#
# Poissons Ratio (x) = 0.09663 0.12487
# Poissons Ratio (y) = 0.32042 -0.01140
# Poissons Ratio (z) = 0.42251 -0.01163
#
# Static dielectric constant tensor:
#      x y z
#    x 6.037910 0.000000 0.000000 
#    y 0.000000 4.114540 0.000000 
#    z 0.000000 0.000000 3.911600 
# 
# 
# High freq. dielectric constant tensor:
#      x y z
#    x 1.981930 0.000000 0.000000 
#    y 0.000000 1.932020 0.000000 
#    z 0.000000 0.000000 1.904650 
# 
# From -- ./inp_files/21540.got.cif
#   From: 2010.03.12/outbox.cif.g09.slc.cpg/sg62_11_cif.got.tgz:21540.got - 2010.04.10 19:12:36.
