data_PCOD8254914
_publ_section_title
;
Structure prediction by ZEFSAII (Michael W. Deem and Ramdas Pophale) SiO2 
 PCOD8254914
Probable space group: P N M A
;
_chemical_formula_sum "Si O2"
_cell_formula_units_Z 48
_cell_length_a 27.705704
_cell_length_b 8.499352
_cell_length_c 9.569515
_cell_angle_alpha 90.000000
_cell_angle_beta 90.000000
_cell_angle_gamma 90.000000
_cell_volume 2253.434471
_symmetry_space_group_name_H-M "P N M A"
_symmetry_group_IT_number 62
_symmetry_cell_setting 'orthorhombic'
loop_
_space_group_symop_operation_xyz
x,y,z
1/2-x,-y,1/2+z
1/2+x,1/2-y,1/2-z
-x,1/2+y,-z
-x,-y,-z
1/2+x,y,1/2-z
1/2-x,1/2+y,1/2+z
x,1/2-y,z
loop_
_atom_site_type_symbol
_atom_site_label
_atom_site_fract_x
_atom_site_fract_y
_atom_site_fract_z
Si Si1 0.795228 0.066186 0.842229
Si Si2 0.896296 0.565935 0.276451
Si Si3 0.294368 0.934145 0.349747
Si Si4 0.551889 0.933176 0.530454
Si Si5 0.447027 0.066069 0.971044
Si Si6 0.394785 0.567915 0.717038
O O1 0.806045 0.250000 0.831618
O O2 0.748089 0.017538 0.755502
O O3 0.838778 0.975041 0.766338
O O4 0.788293 0.023296 0.004236
O O5 0.904817 0.750000 0.253449
O O6 0.842963 0.514286 0.230019
O O7 0.906130 0.520376 0.436539
O O8 0.935857 0.466300 0.191151
O O9 0.294468 0.750000 0.383307
O O10 0.554098 0.750000 0.495395
O O11 0.500000 0.000000 0.500000
O O12 0.591680 0.028052 0.442213
O O13 0.447288 0.250000 0.001492
O O14 0.430819 0.033524 0.812708
O O15 0.500000 0.000000 0.000000
O O16 0.402841 0.750000 0.750523
#
# Coordination Sequence:
#
# PCOD8254914 Si02
#       6
#     8   8   8   8   8   8
#     4  11  24  43  68 101 133 171 221 270 326 395
#     4  11  23  43  67  96 133 172 215 269 326 390
#     4  10  24  44  67  98 134 172 216 267 328 393
#     4  12  24  41  66  97 129 169 215 267 325 391
#     4  12  26  45  67  97 133 175 222 273 327 393
#     4  12  25  44  67  95 132 175 219 273 329 387
#
# _framework density 21.300820000000002
#
# number of rings (size 3 to 8) (size 9 to 14) (size 15 to 20)
#    0.000    0.667    1.667    6.500    2.333    2.000 
#    0.000    0.000    0.000    0.000    0.000    0.000 
#    0.000    0.000    0.000    0.000    0.000    0.000 
#
# Total GULP energy -595562.565422 kJ/mol
# GULP energy per Si atom -12407.553446 kJ/mol
# Density = 2.125234 g / cm^3
# Si number density = 21.300820 Si / 1000 Ang^3
#
#
#
# Elastic Constant Matrix: (Units=GPa)
#
#
# Indices 1 2 3 4 5 6 
#
# 1 116.7593 57.2673 31.1974 0.0000 0.0000 0.0000
# 2 57.2673 108.0510 28.7611 0.0000 0.0000 0.0000
# 3 31.1974 28.7611 85.3135 0.0000 0.0000 0.0000
# 4 0.0000 0.0000 0.0000 41.0881 0.0000 0.0000
# 5 0.0000 0.0000 0.0000 0.0000 45.6659 0.0000
# 6 0.0000 0.0000 0.0000 0.0000 0.0000 35.1214
#
#
#
# Elastic Compliance Matrix: (Units=1/GPa)
#
#
# Indices 1 2 3 4 5 6 
#
# 1 0.012029 -0.005718 -0.002471 0.000000 0.000000 0.000000
# 2 -0.005718 0.012885 -0.002253 0.000000 0.000000 0.000000
# 3 -0.002471 -0.002253 0.013385 0.000000 0.000000 0.000000
# 4 0.000000 0.000000 0.000000 0.024338 0.000000 0.000000
# 5 0.000000 0.000000 0.000000 0.000000 0.021898 0.000000
# 6 0.000000 0.000000 0.000000 0.000000 0.000000 0.028473
#
#
# Mechanical properties :
#
#
# Convention : Reuss Voigt Hill
#
# Bulk Modulus (GPa) = 57.42173 60.50838 58.96506
# Shear Modulus (GPa) = 35.79175 37.23494 36.51335
#
# Velocity S-wave (km/s) = 4.10359 4.18551 4.14475
# Velocity P-wave (km/s) = 7.03340 7.19904 7.11670
#
# Compressibility (1/GPa) = 0.01741501
#
# Stress axis : x y z
#
# Youngs Moduli (GPa) = 83.12987 77.60947 74.71220
#
# Poissons Ratio (x) = 0.44375 0.18464
# Poissons Ratio (y) = 0.47532 0.16832
# Poissons Ratio (z) = 0.20544 0.17485
#
# Static dielectric constant tensor:
#      x y z
#    x 3.952670 0.000000 0.000000 
#    y 0.000000 3.819140 0.000000 
#    z 0.000000 0.000000 -1.101940 
# 
# 
# High freq. dielectric constant tensor:
#      x y z
#    x 1.848290 0.000000 0.000000 
#    y 0.000000 1.843130 0.000000 
#    z 0.000000 0.000000 1.844950 
# 
# From -- ./inp_files/10168.got.cif
#   From: 2010.03.12/outbox.cif.g09.slc.cpg/sg62_6_cif.got.tgz:10168.got - 2010.04.10 19:12:36.
