data_PCOD8254022
_publ_section_title
;
Structure prediction by ZEFSAII (Michael W. Deem and Ramdas Pophale) SiO2 
 PCOD8254022
Probable space group: P N M A
;
_chemical_formula_sum "Si O2"
_cell_formula_units_Z 56
_cell_length_a 9.980526
_cell_length_b 14.118617
_cell_length_c 21.082107
_cell_angle_alpha 90.000000
_cell_angle_beta 90.000000
_cell_angle_gamma 90.000000
_cell_volume 2970.705503
_symmetry_space_group_name_H-M "P N M A"
_symmetry_group_IT_number 62
_symmetry_cell_setting 'orthorhombic'
loop_
_space_group_symop_operation_xyz
x,y,z
1/2-x,-y,1/2+z
1/2+x,1/2-y,1/2-z
-x,1/2+y,-z
-x,-y,-z
1/2+x,y,1/2-z
1/2-x,1/2+y,1/2+z
x,1/2-y,z
loop_
_atom_site_type_symbol
_atom_site_label
_atom_site_fract_x
_atom_site_fract_y
_atom_site_fract_z
Si Si1 0.517498 0.447224 0.837740
Si Si2 0.236455 0.494904 0.895173
Si Si3 0.113362 0.250000 0.681508
Si Si4 0.818976 0.140735 0.003904
Si Si5 0.366821 0.856958 0.499638
Si Si6 0.071668 0.750000 0.198474
Si Si7 0.768830 0.989297 0.898040
Si Si8 0.499998 0.953836 0.312491
O O1 0.382508 0.461602 0.875994
O O2 0.583493 0.345799 0.856813
O O3 0.625897 0.521977 0.863457
O O4 0.491117 0.459813 0.763261
O O5 0.142080 0.498621 0.833033
O O6 0.246229 0.594573 0.932721
O O7 0.167311 0.416199 0.938018
O O8 0.266400 0.250000 0.707308
O O9 0.999127 0.250000 0.734400
O O10 0.772276 0.250000 0.996732
O O11 0.775765 0.083886 0.941329
O O12 0.976995 0.132776 0.013758
O O13 0.321855 0.750000 0.488030
O O14 0.285729 0.896309 0.559568
O O15 0.021392 0.655170 0.162790
O O16 0.881067 0.986491 0.843459
#
# Coordination Sequence:
#
# PCOD8254022 Si02
#       8
#     8   8   4   8   8   4   8   8
#     4  11  25  35  56  86 128 152 187 235 291 348
#     4  11  22  39  59  90 114 154 194 238 289 348
#     4  10  22  36  48  84 122 158 194 220 281 348
#     4  10  21  38  64  86 109 150 201 247 286 339
#     4  10  21  38  62  88 111 149 200 249 286 333
#     4  10  22  32  52  82 118 162 190 226 277 344
#     4  11  20  39  60  87 115 154 192 236 289 347
#     4  11  21  37  59  82 120 157 191 228 284 353
#
# _framework density 18.850743000000001
#
# number of rings (size 3 to 8) (size 9 to 14) (size 15 to 20)
#    0.000    1.429    4.286    1.714   10.000    2.286 
#    0.000    2.143    0.000    5.143    0.000    0.000 
#    0.000    0.000    0.000    0.000    0.000    0.000 
#
# Total GULP energy -694254.867355 kJ/mol
# GULP energy per Si atom -12397.408346 kJ/mol
# Density = 1.880784 g / cm^3
# Si number density = 18.850743 Si / 1000 Ang^3
#
#
#
# Elastic Constant Matrix: (Units=GPa)
#
#
# Indices 1 2 3 4 5 6 
#
# 1 94.1475 1.7604 6.6245 0.0000 0.0000 0.0000
# 2 1.7604 66.7177 16.5827 0.0000 0.0000 0.0000
# 3 6.6245 16.5827 57.1052 0.0000 0.0000 0.0000
# 4 0.0000 0.0000 0.0000 20.7924 0.0000 0.0000
# 5 0.0000 0.0000 0.0000 0.0000 8.6823 0.0000
# 6 0.0000 0.0000 0.0000 0.0000 0.0000 20.6317
#
#
#
# Elastic Compliance Matrix: (Units=1/GPa)
#
#
# Indices 1 2 3 4 5 6 
#
# 1 0.010709 0.000028 -0.001251 0.000000 0.000000 0.000000
# 2 0.000028 0.016155 -0.004694 0.000000 0.000000 0.000000
# 3 -0.001251 -0.004694 0.019020 0.000000 0.000000 0.000000
# 4 0.000000 0.000000 0.000000 0.048095 0.000000 0.000000
# 5 0.000000 0.000000 0.000000 0.000000 0.115177 0.000000
# 6 0.000000 0.000000 0.000000 0.000000 0.000000 0.048469
#
#
# Mechanical properties :
#
#
# Convention : Reuss Voigt Hill
#
# Bulk Modulus (GPa) = 29.36842 29.76729 29.56785
# Shear Modulus (GPa) = 17.80579 22.88813 20.34696
#
# Velocity S-wave (km/s) = 3.07672 3.48828 3.28894
# Velocity P-wave (km/s) = 5.31365 5.66123 5.49019
#
# Compressibility (1/GPa) = 0.03405018
#
# Stress axis : x y z
#
# Youngs Moduli (GPa) = 93.37858 61.90200 52.57677
#
# Poissons Ratio (x) = -0.00175 0.06575
# Poissons Ratio (y) = -0.00264 0.24681
# Poissons Ratio (z) = 0.11677 0.29059
#
# Static dielectric constant tensor:
#      x y z
#    x 3.412110 0.000000 0.000000 
#    y 0.000000 3.657790 0.000000 
#    z 0.000000 0.000000 3.437040 
# 
# 
# High freq. dielectric constant tensor:
#      x y z
#    x 1.736500 0.000000 0.000000 
#    y 0.000000 1.710970 0.000000 
#    z 0.000000 0.000000 1.732100 
# 
# From -- ./inp_files/26031.got.cif
#   From: 2010.03.12/outbox.cif.g09.slc.cpg/sg62_14_cif.got.tgz:26031.got - 2010.04.10 19:12:36.
