data_PCOD8254418
_publ_section_title
;
Structure prediction by ZEFSAII (Michael W. Deem and Ramdas Pophale) SiO2 
 PCOD8254418
Probable space group: P N M A
;
_chemical_formula_sum "Si O2"
_cell_formula_units_Z 64
_cell_length_a 23.198876
_cell_length_b 9.037948
_cell_length_c 18.969310
_cell_angle_alpha 90.000000
_cell_angle_beta 90.000000
_cell_angle_gamma 90.000000
_cell_volume 3977.299684
_symmetry_space_group_name_H-M "P N M A"
_symmetry_group_IT_number 62
_symmetry_cell_setting 'orthorhombic'
loop_
_space_group_symop_operation_xyz
x,y,z
1/2-x,-y,1/2+z
1/2+x,1/2-y,1/2-z
-x,1/2+y,-z
-x,-y,-z
1/2+x,y,1/2-z
1/2-x,1/2+y,1/2+z
x,1/2-y,z
loop_
_atom_site_type_symbol
_atom_site_label
_atom_site_fract_x
_atom_site_fract_y
_atom_site_fract_z
Si Si1 0.936469 0.422257 0.149681
Si Si2 0.265642 0.423250 0.844058
Si Si3 0.931903 0.923531 0.869122
Si Si4 0.723251 0.081695 0.869770
Si Si5 0.661294 0.579560 0.281576
Si Si6 0.758306 0.576825 0.001065
Si Si7 0.618811 0.574164 0.503429
Si Si8 0.155048 0.076321 0.765487
O O1 0.925308 0.250000 0.157074
O O2 0.905215 0.500262 0.215445
O O3 0.003462 0.461868 0.154034
O O4 0.910169 0.479645 0.075919
O O5 0.261666 0.250000 0.828271
O O6 0.318824 0.479976 0.795884
O O7 0.204468 0.489010 0.817753
O O8 0.275233 0.460126 0.926100
O O9 0.923074 0.750000 0.882528
O O10 0.890786 0.976709 0.806145
O O11 0.919486 0.010117 0.940725
O O12 0.715421 0.250000 0.895122
O O13 0.785606 0.060925 0.834844
O O14 0.672998 0.038527 0.814769
O O15 0.717443 0.974482 0.937166
O O16 0.640675 0.750000 0.279592
O O17 0.772221 0.750000 0.995351
O O18 0.817046 0.486749 0.997879
O O19 0.620501 0.750000 0.496157
O O20 0.147509 0.250000 0.775900
#
# Coordination Sequence:
#
# PCOD8254418 Si02
#       8
#     8   8   8   8   8   8   8   8
#     4  10  22  35  47  67  97 128 162 205 240 272
#     4   8  16  30  48  70  95 122 154 194 237 281
#     4  11  22  34  47  68  96 127 165 203 237 273
#     4   9  18  31  48  70  98 126 155 193 237 283
#     4   9  17  32  50  67  92 126 159 193 236 282
#     4  11  19  29  49  74  97 125 157 193 236 280
#     4  11  21  33  46  65  95 132 166 194 229 274
#     4   9  17  32  51  69  92 126 161 195 234 282
#
# _framework density 16.09132
#
# number of rings (size 3 to 8) (size 9 to 14) (size 15 to 20)
#    0.000    2.250    2.500    3.000    0.000    2.000 
#    0.000    3.125    0.000    0.000    0.000    0.875 
#    0.000    0.000    0.000    0.000    0.000    0.000 
#
# Total GULP energy -793526.809284 kJ/mol
# GULP energy per Si atom -12398.856395 kJ/mol
# Density = 1.605470 g / cm^3
# Si number density = 16.091320 Si / 1000 Ang^3
#
#
#
# Elastic Constant Matrix: (Units=GPa)
#
#
# Indices 1 2 3 4 5 6 
#
# 1 73.4982 29.0139 48.1621 0.0000 0.0000 0.0000
# 2 29.0139 51.1616 37.9865 0.0000 0.0000 0.0000
# 3 48.1621 37.9865 105.9412 0.0000 0.0000 0.0000
# 4 0.0000 0.0000 0.0000 25.1533 0.0000 0.0000
# 5 0.0000 0.0000 0.0000 0.0000 23.9922 0.0000
# 6 0.0000 0.0000 0.0000 0.0000 0.0000 24.8601
#
#
#
# Elastic Compliance Matrix: (Units=1/GPa)
#
#
# Indices 1 2 3 4 5 6 
#
# 1 0.020864 -0.006527 -0.007145 0.000000 0.000000 0.000000
# 2 -0.006527 0.028680 -0.007316 0.000000 0.000000 0.000000
# 3 -0.007145 -0.007316 0.015310 0.000000 0.000000 0.000000
# 4 0.000000 0.000000 0.000000 0.039756 0.000000 0.000000
# 5 0.000000 0.000000 0.000000 0.000000 0.041680 0.000000
# 6 0.000000 0.000000 0.000000 0.000000 0.000000 0.040225
#
#
# Mechanical properties :
#
#
# Convention : Reuss Voigt Hill
#
# Bulk Modulus (GPa) = 43.70964 51.21399 47.46182
# Shear Modulus (GPa) = 21.17583 22.49701 21.83642
#
# Velocity S-wave (km/s) = 3.63158 3.74315 3.68779
# Velocity P-wave (km/s) = 6.69380 7.11181 6.90597
#
# Compressibility (1/GPa) = 0.02287825
#
# Stress axis : x y z
#
# Youngs Moduli (GPa) = 47.92871 34.86798 65.31479
#
# Poissons Ratio (x) = 0.22760 0.46665
# Poissons Ratio (y) = 0.31285 0.47784
# Poissons Ratio (z) = 0.34243 0.25509
#
# Static dielectric constant tensor:
#      x y z
#    x 2.891990 0.000000 0.000000 
#    y 0.000000 2.954570 0.000000 
#    z 0.000000 0.000000 3.255890 
# 
# 
# High freq. dielectric constant tensor:
#      x y z
#    x 1.591670 0.000000 0.000000 
#    y 0.000000 1.613950 0.000000 
#    z 0.000000 0.000000 1.617430 
# 
# From -- ./inp_files/24962.got.cif
#   From: 2010.03.12/outbox.cif.g09.slc.cpg/sg62_13_cif.got.tgz:24962.got - 2010.04.10 19:12:36.
