data_PCOD8254006
_publ_section_title
;
Structure prediction by ZEFSAII (Michael W. Deem and Ramdas Pophale) SiO2 
 PCOD8254006
Probable space group: P N M A
;
_chemical_formula_sum "Si O2"
_cell_formula_units_Z 48
_cell_length_a 29.931194
_cell_length_b 8.633818
_cell_length_c 8.853039
_cell_angle_alpha 90.000000
_cell_angle_beta 90.000000
_cell_angle_gamma 90.000000
_cell_volume 2287.806601
_symmetry_space_group_name_H-M "P N M A"
_symmetry_group_IT_number 62
_symmetry_cell_setting 'orthorhombic'
loop_
_space_group_symop_operation_xyz
x,y,z
1/2-x,-y,1/2+z
1/2+x,1/2-y,1/2-z
-x,1/2+y,-z
-x,-y,-z
1/2+x,y,1/2-z
1/2-x,1/2+y,1/2+z
x,1/2-y,z
loop_
_atom_site_type_symbol
_atom_site_label
_atom_site_fract_x
_atom_site_fract_y
_atom_site_fract_z
Si Si1 0.880915 0.569836 0.147971
Si Si2 0.283223 0.430508 0.854508
Si Si3 0.052411 0.570128 0.359740
Si Si4 0.365378 0.929874 0.696727
Si Si5 0.201090 0.930535 0.699552
Si Si6 0.537467 0.930045 0.796179
O O1 0.872619 0.750000 0.178006
O O2 0.849818 0.470562 0.259682
O O3 0.932187 0.526230 0.180340
O O4 0.869850 0.523670 0.977174
O O5 0.293095 0.250000 0.830188
O O6 0.315481 0.530523 0.748298
O O7 0.232678 0.469815 0.809019
O O8 0.290349 0.479023 0.027366
O O9 0.042071 0.750000 0.339369
O O10 0.100591 0.530289 0.294790
O O11 0.052228 0.523338 0.535126
O O12 0.014177 0.475904 0.270313
O O13 0.375593 0.750000 0.722784
O O14 0.210495 0.750000 0.724901
O O15 0.543775 0.750000 0.762583
#
# Coordination Sequence:
#
# PCOD8254006 Si02
#       6
#     8   8   8   8   8   8
#     4  11  24  40  59  86 119 155 196 240 288 344
#     4  11  24  41  62  89 119 152 193 239 288 344
#     4  10  21  38  61  88 117 152 195 241 291 347
#     4  11  24  40  59  86 119 155 196 240 288 344
#     4  11  24  41  62  89 119 152 193 239 288 344
#     4  10  21  38  61  88 117 152 195 241 291 347
#
# _framework density 20.980793999999999
#
# number of rings (size 3 to 8) (size 9 to 14) (size 15 to 20)
#    0.000    1.333    0.000    5.000    0.000   16.000 
#    0.000    0.000    0.000    0.000    0.000    0.000 
#    0.000    0.000    0.000    0.000    0.000    0.000 
#
# Total GULP energy -595663.436032 kJ/mol
# GULP energy per Si atom -12409.654917 kJ/mol
# Density = 2.093304 g / cm^3
# Si number density = 20.980794 Si / 1000 Ang^3
#
#
#
# Elastic Constant Matrix: (Units=GPa)
#
#
# Indices 1 2 3 4 5 6 
#
# 1 69.6998 6.6136 -3.1310 0.0000 0.0000 0.0000
# 2 6.6136 55.0976 36.9153 0.0000 0.0000 0.0000
# 3 -3.1310 36.9153 49.4893 0.0000 0.0000 0.0000
# 4 0.0000 0.0000 0.0000 29.3057 0.0000 0.0000
# 5 0.0000 0.0000 0.0000 0.0000 39.0712 0.0000
# 6 0.0000 0.0000 0.0000 0.0000 0.0000 43.0672
#
#
#
# Elastic Compliance Matrix: (Units=1/GPa)
#
#
# Indices 1 2 3 4 5 6 
#
# 1 0.015016 -0.004876 0.004587 0.000000 0.000000 0.000000
# 2 -0.004876 0.037865 -0.028553 0.000000 0.000000 0.000000
# 3 0.004587 -0.028553 0.041795 0.000000 0.000000 0.000000
# 4 0.000000 0.000000 0.000000 0.034123 0.000000 0.000000
# 5 0.000000 0.000000 0.000000 0.000000 0.025594 0.000000
# 6 0.000000 0.000000 0.000000 0.000000 0.000000 0.023220
#
#
# Mechanical properties :
#
#
# Convention : Reuss Voigt Hill
#
# Bulk Modulus (GPa) = 27.03249 28.34248 27.68749
# Shear Modulus (GPa) = 20.19158 31.21475 25.70316
#
# Velocity S-wave (km/s) = 3.10560 3.86136 3.50391
# Velocity P-wave (km/s) = 5.07661 5.78085 5.44014
#
# Compressibility (1/GPa) = 0.03699252
#
# Stress axis : x y z
#
# Youngs Moduli (GPa) = 66.59601 26.40932 23.92629
#
# Poissons Ratio (x) = 0.12876 -0.10974
# Poissons Ratio (y) = 0.32469 0.68317
# Poissons Ratio (z) = -0.30546 0.75407
#
# Static dielectric constant tensor:
#      x y z
#    x 3.735480 0.000000 0.000000 
#    y 0.000000 3.705850 0.000000 
#    z 0.000000 0.000000 3.752890 
# 
# 
# High freq. dielectric constant tensor:
#      x y z
#    x 1.833460 0.000000 0.000000 
#    y 0.000000 1.829260 0.000000 
#    z 0.000000 0.000000 1.821080 
# 
# From -- ./inp_files/10244.got.cif
#   From: 2010.03.12/outbox.cif.g09.slc.cpg/sg62_6_cif.got.tgz:10244.got - 2010.04.10 19:12:36.
