data_PCOD8254396
_publ_section_title
;
Structure prediction by ZEFSAII (Michael W. Deem and Ramdas Pophale) SiO2 
 PCOD8254396
Probable space group: P N M A
;
_chemical_formula_sum "Si O2"
_cell_formula_units_Z 40
_cell_length_a 11.768817
_cell_length_b 13.602483
_cell_length_c 11.633978
_cell_angle_alpha 90.000000
_cell_angle_beta 90.000000
_cell_angle_gamma 90.000000
_cell_volume 1862.426917
_symmetry_space_group_name_H-M "P N M A"
_symmetry_group_IT_number 62
_symmetry_cell_setting 'orthorhombic'
loop_
_space_group_symop_operation_xyz
x,y,z
1/2-x,-y,1/2+z
1/2+x,1/2-y,1/2-z
-x,1/2+y,-z
-x,-y,-z
1/2+x,y,1/2-z
1/2-x,1/2+y,1/2+z
x,1/2-y,z
loop_
_atom_site_type_symbol
_atom_site_label
_atom_site_fract_x
_atom_site_fract_y
_atom_site_fract_z
Si Si1 0.621536 0.862079 0.695719
Si Si2 0.895333 0.022356 0.418890
Si Si3 0.488165 0.139143 0.537884
Si Si4 0.762077 0.362827 0.834420
Si Si5 0.720958 0.452068 0.605931
O O1 0.667922 0.750000 0.708860
O O2 0.572577 0.901252 0.817539
O O3 0.521524 0.863686 0.600508
O O4 0.723657 0.934694 0.653054
O O5 0.792266 0.067303 0.491886
O O6 0.853242 0.919477 0.366776
O O7 0.000000 0.000000 0.500000
O O8 0.511156 0.250000 0.581277
O O9 0.371050 0.098576 0.594053
O O10 0.589189 0.070922 0.581210
O O11 0.741266 0.250000 0.863776
O O12 0.779820 0.380550 0.698949
#
# Coordination Sequence:
#
# PCOD8254396 Si02
#       5
#     8   8   8   8   8
#     4  10  23  42  66  94 127 169 217 268 325 389
#     4  11  26  42  63  94 134 173 215 268 328 391
#     4  10  21  42  69  95 125 169 221 271 332 398
#     4  10  23  42  66  95 127 167 213 269 332 390
#     4  11  23  40  69  94 130 168 219 270 328 393
#
# _framework density 21.477353999999998
#
# number of rings (size 3 to 8) (size 9 to 14) (size 15 to 20)
#    0.000    1.600    2.000    1.200    5.600    4.000 
#    0.000    2.000    0.000    0.000    0.000    0.000 
#    0.000    0.000    0.000    0.000    0.000    0.000 
#
# Total GULP energy -495979.628072 kJ/mol
# GULP energy per Si atom -12399.490702 kJ/mol
# Density = 2.142847 g / cm^3
# Si number density = 21.477354 Si / 1000 Ang^3
#
#
#
# Elastic Constant Matrix: (Units=GPa)
#
#
# Indices 1 2 3 4 5 6 
#
# 1 88.8488 49.7464 46.1612 0.0000 0.0000 0.0000
# 2 49.7464 117.2547 45.3255 0.0000 0.0000 0.0000
# 3 46.1612 45.3255 150.6872 0.0000 0.0000 0.0000
# 4 0.0000 0.0000 0.0000 35.0542 0.0000 0.0000
# 5 0.0000 0.0000 0.0000 0.0000 28.2458 0.0000
# 6 0.0000 0.0000 0.0000 0.0000 0.0000 22.1651
#
#
#
# Elastic Compliance Matrix: (Units=1/GPa)
#
#
# Indices 1 2 3 4 5 6 
#
# 1 0.016052 -0.005555 -0.003246 0.000000 0.000000 0.000000
# 2 -0.005555 0.011573 -0.001779 0.000000 0.000000 0.000000
# 3 -0.003246 -0.001779 0.008166 0.000000 0.000000 0.000000
# 4 0.000000 0.000000 0.000000 0.028527 0.000000 0.000000
# 5 0.000000 0.000000 0.000000 0.000000 0.035404 0.000000
# 6 0.000000 0.000000 0.000000 0.000000 0.000000 0.045116
#
#
# Mechanical properties :
#
#
# Convention : Reuss Voigt Hill
#
# Bulk Modulus (GPa) = 68.35649 71.02856 69.69253
# Shear Modulus (GPa) = 29.26088 31.46351 30.36220
#
# Velocity S-wave (km/s) = 3.69508 3.83163 3.76398
# Velocity P-wave (km/s) = 7.07822 7.26074 7.17006
#
# Compressibility (1/GPa) = 0.01462919
#
# Stress axis : x y z
#
# Youngs Moduli (GPa) = 62.29681 86.40682 122.45972
#
# Poissons Ratio (x) = 0.48002 0.39755
# Poissons Ratio (y) = 0.34608 0.21789
# Poissons Ratio (z) = 0.20224 0.15374
#
# Static dielectric constant tensor:
#      x y z
#    x 3.548900 0.000000 0.000000 
#    y 0.000000 4.020920 0.000000 
#    z 0.000000 0.000000 4.258060 
# 
# 
# High freq. dielectric constant tensor:
#      x y z
#    x 1.809320 0.000000 0.000000 
#    y 0.000000 1.850040 0.000000 
#    z 0.000000 0.000000 1.863040 
# 
# From -- ./inp_files/12058.got.cif
#   From: 2010.03.12/outbox.cif.g09.slc.cpg/sg62_7_cif.got.tgz:12058.got - 2010.04.10 19:12:36.
