data_PCOD8254873
_publ_section_title
;
Structure prediction by ZEFSAII (Michael W. Deem and Ramdas Pophale) SiO2 
 PCOD8254873
Probable space group: P N M A
;
_chemical_formula_sum "Si O2"
_cell_formula_units_Z 40
_cell_length_a 5.294621
_cell_length_b 15.380381
_cell_length_c 21.332340
_cell_angle_alpha 90.000000
_cell_angle_beta 90.000000
_cell_angle_gamma 90.000000
_cell_volume 1737.162592
_symmetry_space_group_name_H-M "P N M A"
_symmetry_group_IT_number 62
_symmetry_cell_setting 'orthorhombic'
loop_
_space_group_symop_operation_xyz
x,y,z
1/2-x,-y,1/2+z
1/2+x,1/2-y,1/2-z
-x,1/2+y,-z
-x,-y,-z
1/2+x,y,1/2-z
1/2-x,1/2+y,1/2+z
x,1/2-y,z
loop_
_atom_site_type_symbol
_atom_site_label
_atom_site_fract_x
_atom_site_fract_y
_atom_site_fract_z
Si Si1 0.326707 0.647502 0.788046
Si Si2 0.395852 0.750000 0.425086
Si Si3 0.000779 0.963751 0.603770
Si Si4 0.112451 0.250000 0.658228
Si Si5 0.853647 0.565199 0.286127
Si Si6 0.302633 0.925153 0.486674
O O1 0.580813 0.618455 0.751108
O O2 0.323531 0.750000 0.799522
O O3 0.325505 0.602387 0.856522
O O4 0.639230 0.750000 0.382874
O O5 0.422889 0.833101 0.470134
O O6 0.139293 0.750000 0.384365
O O7 0.135691 0.909789 0.548851
O O8 0.197764 0.012778 0.649621
O O9 0.851781 0.044154 0.573679
O O10 0.130445 0.167971 0.703910
O O11 0.630027 0.536980 0.239516
O O12 0.500000 0.000000 0.500000
#
# Coordination Sequence:
#
# PCOD8254873 Si02
#       6
#     8   4   8   4   8   8
#     4  10  23  44  69 101 139 179 230 289 354 422
#     4  12  26  49  76 100 148 193 234 309 354 420
#     4  11  25  44  69 103 140 181 240 294 352 432
#     4  12  24  47  70 104 146 183 238 289 348 438
#     4  12  25  42  71 103 141 187 231 290 362 426
#     4  11  27  47  72 105 140 193 246 295 361 428
#
# _framework density 23.026053999999998
#
# number of rings (size 3 to 8) (size 9 to 14) (size 15 to 20)
#    0.000    0.800    2.000    4.200    9.800    0.000 
#    1.800    0.000    0.000    0.000    0.000    0.000 
#    0.000    0.000    0.000    0.000    0.000    0.000 
#
# Total GULP energy -496106.661401 kJ/mol
# GULP energy per Si atom -12402.666535 kJ/mol
# Density = 2.297365 g / cm^3
# Si number density = 23.026054 Si / 1000 Ang^3
#
#
#
# Elastic Constant Matrix: (Units=GPa)
#
#
# Indices 1 2 3 4 5 6 
#
# 1 134.1727 35.0243 48.1061 0.0000 0.0000 0.0000
# 2 35.0243 68.9970 46.0082 0.0000 0.0000 0.0000
# 3 48.1061 46.0082 138.6776 0.0000 0.0000 0.0000
# 4 0.0000 0.0000 0.0000 3.0579 0.0000 0.0000
# 5 0.0000 0.0000 0.0000 0.0000 26.0808 0.0000
# 6 0.0000 0.0000 0.0000 0.0000 0.0000 35.8231
#
#
#
# Elastic Compliance Matrix: (Units=1/GPa)
#
#
# Indices 1 2 3 4 5 6 
#
# 1 0.009032 -0.003204 -0.002070 0.000000 0.000000 0.000000
# 2 -0.003204 0.019747 -0.005440 0.000000 0.000000 0.000000
# 3 -0.002070 -0.005440 0.009734 0.000000 0.000000 0.000000
# 4 0.000000 0.000000 0.000000 0.327019 0.000000 0.000000
# 5 0.000000 0.000000 0.000000 0.000000 0.038342 0.000000
# 6 0.000000 0.000000 0.000000 0.000000 0.000000 0.027915
#
#
# Mechanical properties :
#
#
# Convention : Reuss Voigt Hill
#
# Bulk Modulus (GPa) = 58.53285 66.68051 62.60668
# Shear Modulus (GPa) = 10.89532 27.17294 19.03413
#
# Velocity S-wave (km/s) = 2.17762 3.43898 2.87824
# Velocity P-wave (km/s) = 5.63898 6.69256 6.18823
#
# Compressibility (1/GPa) = 0.01708442
#
# Stress axis : x y z
#
# Youngs Moduli (GPa) = 110.72100 50.63948 102.73516
#
# Poissons Ratio (x) = 0.16227 0.21265
# Poissons Ratio (y) = 0.35480 0.55887
# Poissons Ratio (z) = 0.22918 0.27547
#
# Static dielectric constant tensor:
#      x y z
#    x 4.270610 0.000000 0.000000 
#    y 0.000000 4.353570 0.000000 
#    z 0.000000 0.000000 4.378600 
# 
# 
# High freq. dielectric constant tensor:
#      x y z
#    x 1.906450 0.000000 0.000000 
#    y 0.000000 1.936730 0.000000 
#    z 0.000000 0.000000 1.918270 
# 
# From -- ./inp_files/21508.got.cif
#   From: 2010.03.12/outbox.cif.g09.slc.cpg/sg62_11_cif.got.tgz:21508.got - 2010.04.10 19:12:36.
