data_PCOD8254179
_publ_section_title
;
Structure prediction by ZEFSAII (Michael W. Deem and Ramdas Pophale) SiO2 
 PCOD8254179
Probable space group: P N M A
;
_chemical_formula_sum "Si O2"
_cell_formula_units_Z 64
_cell_length_a 10.793794
_cell_length_b 26.885334
_cell_length_c 11.930954
_cell_angle_alpha 90.000000
_cell_angle_beta 90.000000
_cell_angle_gamma 90.000000
_cell_volume 3462.300295
_symmetry_space_group_name_H-M "P N M A"
_symmetry_group_IT_number 62
_symmetry_cell_setting 'orthorhombic'
loop_
_space_group_symop_operation_xyz
x,y,z
1/2-x,-y,1/2+z
1/2+x,1/2-y,1/2-z
-x,1/2+y,-z
-x,-y,-z
1/2+x,y,1/2-z
1/2-x,1/2+y,1/2+z
x,1/2-y,z
loop_
_atom_site_type_symbol
_atom_site_label
_atom_site_fract_x
_atom_site_fract_y
_atom_site_fract_z
Si Si1 0.136186 0.806720 0.149598
Si Si2 0.990163 0.098616 0.569593
Si Si3 0.249723 0.049813 0.945713
Si Si4 0.836909 0.943035 0.609301
Si Si5 0.413429 0.945639 0.648937
Si Si6 0.396304 0.105398 0.500870
Si Si7 0.015846 0.449378 0.808520
Si Si8 0.920157 0.807190 0.326324
O O1 0.124401 0.750000 0.113264
O O2 0.121069 0.837080 0.034066
O O3 0.273956 0.815771 0.205578
O O4 0.019335 0.821046 0.228900
O O5 0.044804 0.069542 0.464560
O O6 0.020961 0.068375 0.682009
O O7 0.042526 0.155021 0.573740
O O8 0.842852 0.096683 0.549007
O O9 0.144200 0.067917 0.862002
O O10 0.318190 0.002253 0.892289
O O11 0.197644 0.035759 0.068518
O O12 0.858388 0.924334 0.736301
O O13 0.722133 0.912841 0.564157
O O14 0.486866 0.902790 0.581303
O O15 0.504999 0.991123 0.678848
O O16 0.406179 0.075744 0.619016
O O17 0.940500 0.750000 0.364630
#
# Coordination Sequence:
#
# PCOD8254179 Si02
#       8
#     8   8   8   8   8   8   8   8
#     4  10  21  39  64  91 117 152 195 247 308 366
#     4  12  25  34  59  89 117 151 195 242 305 350
#     4  11  24  37  55  82 121 161 197 244 287 348
#     4  12  24  36  57  82 117 162 198 239 283 351
#     4  11  24  39  55  82 120 164 203 241 283 355
#     4  11  21  40  60  81 115 156 195 237 302 351
#     4  11  22  37  58  83 120 157 193 240 295 360
#     4  10  22  39  62  92 123 152 192 251 313 366
#
# _framework density 18.484821
#
# number of rings (size 3 to 8) (size 9 to 14) (size 15 to 20)
#    0.000    1.000    6.250    1.125    7.000    0.000 
#    0.000    0.000    0.000    1.500    0.000    0.000 
#    0.000    0.000    0.000    0.000    0.000    0.000 
#
# Total GULP energy -793432.131910 kJ/mol
# GULP energy per Si atom -12397.377061 kJ/mol
# Density = 1.844275 g / cm^3
# Si number density = 18.484821 Si / 1000 Ang^3
#
#
#
# Elastic Constant Matrix: (Units=GPa)
#
#
# Indices 1 2 3 4 5 6 
#
# 1 108.3030 30.8287 31.0658 0.0000 0.0000 0.0000
# 2 30.8287 69.9998 21.9663 0.0000 0.0000 0.0000
# 3 31.0658 21.9663 87.1020 0.0000 0.0000 0.0000
# 4 0.0000 0.0000 0.0000 20.2444 0.0000 0.0000
# 5 0.0000 0.0000 0.0000 0.0000 26.2609 0.0000
# 6 0.0000 0.0000 0.0000 0.0000 0.0000 26.1063
#
#
#
# Elastic Compliance Matrix: (Units=1/GPa)
#
#
# Indices 1 2 3 4 5 6 
#
# 1 0.011233 -0.004007 -0.002996 0.000000 0.000000 0.000000
# 2 -0.004007 0.016943 -0.002844 0.000000 0.000000 0.000000
# 3 -0.002996 -0.002844 0.013266 0.000000 0.000000 0.000000
# 4 0.000000 0.000000 0.000000 0.049396 0.000000 0.000000
# 5 0.000000 0.000000 0.000000 0.000000 0.038079 0.000000
# 6 0.000000 0.000000 0.000000 0.000000 0.000000 0.038305
#
#
# Mechanical properties :
#
#
# Convention : Reuss Voigt Hill
#
# Bulk Modulus (GPa) = 45.97856 48.12515 47.05186
# Shear Modulus (GPa) = 25.75105 26.62523 26.18814
#
# Velocity S-wave (km/s) = 3.73646 3.79936 3.76804
# Velocity P-wave (km/s) = 6.59868 6.73337 6.66637
#
# Compressibility (1/GPa) = 0.02174927
#
# Stress axis : x y z
#
# Youngs Moduli (GPa) = 89.02063 59.02173 75.37802
#
# Poissons Ratio (x) = 0.23651 0.22583
# Poissons Ratio (y) = 0.35672 0.21435
# Poissons Ratio (z) = 0.26670 0.16784
#
# Static dielectric constant tensor:
#      x y z
#    x 3.717710 0.000000 0.000000 
#    y 0.000000 3.369140 0.000000 
#    z 0.000000 0.000000 3.365760 
# 
# 
# High freq. dielectric constant tensor:
#      x y z
#    x 1.737410 0.000000 0.000000 
#    y 0.000000 1.696520 0.000000 
#    z 0.000000 0.000000 1.700760 
# 
# From -- ./inp_files/12600.got.cif
#   From: 2010.03.12/outbox.cif.g09.slc.cpg/sg62_7_cif.got.tgz:12600.got - 2010.04.10 19:12:36.
