data_PCOD8254385
_publ_section_title
;
Structure prediction by ZEFSAII (Michael W. Deem and Ramdas Pophale) SiO2 
 PCOD8254385
Probable space group: P N M A
;
_chemical_formula_sum "Si O2"
_cell_formula_units_Z 48
_cell_length_a 14.824112
_cell_length_b 8.753334
_cell_length_c 18.658660
_cell_angle_alpha 90.000000
_cell_angle_beta 90.000000
_cell_angle_gamma 90.000000
_cell_volume 2421.155252
_symmetry_space_group_name_H-M "P N M A"
_symmetry_group_IT_number 62
_symmetry_cell_setting 'orthorhombic'
loop_
_space_group_symop_operation_xyz
x,y,z
1/2-x,-y,1/2+z
1/2+x,1/2-y,1/2-z
-x,1/2+y,-z
-x,-y,-z
1/2+x,y,1/2-z
1/2-x,1/2+y,1/2+z
x,1/2-y,z
loop_
_atom_site_type_symbol
_atom_site_label
_atom_site_fract_x
_atom_site_fract_y
_atom_site_fract_z
Si Si1 0.137813 0.928687 0.817287
Si Si2 0.298015 0.427341 0.743700
Si Si3 0.748262 0.070122 0.917694
Si Si4 0.594283 0.929515 0.521431
Si Si5 0.055908 0.570076 0.564214
Si Si6 0.501726 0.572216 0.210236
O O1 0.120218 0.750000 0.804939
O O2 0.119945 0.978441 0.898500
O O3 0.240741 0.970288 0.798572
O O4 0.073671 0.027055 0.766975
O O5 0.277809 0.250000 0.758334
O O6 0.272538 0.474061 0.663266
O O7 0.402214 0.466348 0.755432
O O8 0.733387 0.250000 0.926789
O O9 0.658139 0.985746 0.941138
O O10 0.828356 0.009307 0.968310
O O11 0.585343 0.750000 0.513530
O O12 0.500000 0.000000 0.500000
O O13 0.054101 0.750000 0.557213
O O14 0.000000 0.500000 0.500000
O O15 0.009646 0.522629 0.638198
O O16 0.490434 0.750000 0.191772
#
# Coordination Sequence:
#
# PCOD8254385 Si02
#       6
#     8   8   8   8   8   8
#     4  11  23  39  61  94 129 163 206 259 317 372
#     4  10  22  39  64  91 121 163 209 257 313 374
#     4  10  21  42  66  92 126 166 211 262 314 371
#     4  10  23  41  63  93 127 165 208 259 315 371
#     4  12  26  43  64  93 126 168 213 264 319 377
#     4  11  23  42  66  94 126 166 212 259 312 377
#
# _framework density 19.825247000000001
#
# number of rings (size 3 to 8) (size 9 to 14) (size 15 to 20)
#    0.000    1.333    1.667    3.500    2.333    4.667 
#    0.000    0.000    0.000    0.000    0.000    0.000 
#    0.000    0.000    0.000    0.000    0.000    0.000 
#
# Total GULP energy -595511.431375 kJ/mol
# GULP energy per Si atom -12406.488154 kJ/mol
# Density = 1.978012 g / cm^3
# Si number density = 19.825247 Si / 1000 Ang^3
#
#
#
# Elastic Constant Matrix: (Units=GPa)
#
#
# Indices 1 2 3 4 5 6 
#
# 1 126.6470 46.0322 54.0029 0.0000 0.0000 0.0000
# 2 46.0322 68.6241 41.3238 0.0000 0.0000 0.0000
# 3 54.0029 41.3238 130.7896 0.0000 0.0000 0.0000
# 4 0.0000 0.0000 0.0000 29.0576 0.0000 0.0000
# 5 0.0000 0.0000 0.0000 0.0000 45.4930 0.0000
# 6 0.0000 0.0000 0.0000 0.0000 0.0000 37.3927
#
#
#
# Elastic Compliance Matrix: (Units=1/GPa)
#
#
# Indices 1 2 3 4 5 6 
#
# 1 0.011205 -0.005842 -0.002781 0.000000 0.000000 0.000000
# 2 -0.005842 0.021042 -0.004236 0.000000 0.000000 0.000000
# 3 -0.002781 -0.004236 0.010133 0.000000 0.000000 0.000000
# 4 0.000000 0.000000 0.000000 0.034414 0.000000 0.000000
# 5 0.000000 0.000000 0.000000 0.000000 0.021981 0.000000
# 6 0.000000 0.000000 0.000000 0.000000 0.000000 0.026743
#
#
# Mechanical properties :
#
#
# Convention : Reuss Voigt Hill
#
# Bulk Modulus (GPa) = 60.01769 67.64208 63.82988
# Shear Modulus (GPa) = 31.88992 34.70211 33.29602
#
# Velocity S-wave (km/s) = 4.01503 4.18832 4.10259
# Velocity P-wave (km/s) = 7.19951 7.58832 7.39647
#
# Compressibility (1/GPa) = 0.01666175
#
# Stress axis : x y z
#
# Youngs Moduli (GPa) = 89.24621 47.52494 98.69201
#
# Poissons Ratio (x) = 0.27762 0.27445
# Poissons Ratio (y) = 0.52134 0.41808
# Poissons Ratio (z) = 0.24818 0.20133
#
# Static dielectric constant tensor:
#      x y z
#    x 3.740700 0.000000 0.000000 
#    y 0.000000 3.581770 0.000000 
#    z 0.000000 0.000000 3.829530 
# 
# 
# High freq. dielectric constant tensor:
#      x y z
#    x 1.791140 0.000000 0.000000 
#    y 0.000000 1.771620 0.000000 
#    z 0.000000 0.000000 1.787000 
# 
# From -- ./inp_files/23722.got.cif
#   From: 2010.03.12/outbox.cif.g09.slc.cpg/sg62_12_cif.got.tgz:23722.got - 2010.04.10 19:12:36.
