data_PCOD8254658
_publ_section_title
;
Structure prediction by ZEFSAII (Michael W. Deem and Ramdas Pophale) SiO2 
 PCOD8254658
Probable space group: P N M A
;
_chemical_formula_sum "Si O2"
_cell_formula_units_Z 64
_cell_length_a 23.572693
_cell_length_b 14.634628
_cell_length_c 8.885676
_cell_angle_alpha 90.000000
_cell_angle_beta 90.000000
_cell_angle_gamma 90.000000
_cell_volume 3065.359119
_symmetry_space_group_name_H-M "P N M A"
_symmetry_group_IT_number 62
_symmetry_cell_setting 'orthorhombic'
loop_
_space_group_symop_operation_xyz
x,y,z
1/2-x,-y,1/2+z
1/2+x,1/2-y,1/2-z
-x,1/2+y,-z
-x,-y,-z
1/2+x,y,1/2-z
1/2-x,1/2+y,1/2+z
x,1/2-y,z
loop_
_atom_site_type_symbol
_atom_site_label
_atom_site_fract_x
_atom_site_fract_y
_atom_site_fract_z
Si Si1 0.024625 0.847600 0.755984
Si Si2 0.824896 0.976942 0.430876
Si Si3 0.870253 0.444185 0.722954
Si Si4 0.057113 0.049790 0.051932
Si Si5 0.215813 0.853526 0.077415
Si Si6 0.482873 0.400921 0.937303
Si Si7 0.649479 0.642898 0.730928
Si Si8 0.912098 0.855061 0.246760
O O1 0.028529 0.750000 0.836797
O O2 0.018633 0.833431 0.577702
O O3 0.084903 0.897003 0.794294
O O4 0.966664 0.892421 0.809026
O O5 0.764928 0.928088 0.415293
O O6 0.870464 0.914940 0.346630
O O7 0.840599 0.984686 0.607522
O O8 0.821773 0.078793 0.357991
O O9 0.893200 0.489773 0.876401
O O10 0.825016 0.369462 0.779406
O O11 0.921046 0.396131 0.635165
O O12 0.086519 0.110354 0.924415
O O13 0.000000 0.000000 0.000000
O O14 0.239625 0.750000 0.087276
O O15 0.182744 0.868040 0.922642
O O16 0.524951 0.364648 0.811176
O O17 0.500000 0.500000 0.000000
O O18 0.648264 0.750000 0.783784
O O19 0.892103 0.750000 0.248630
#
# Coordination Sequence:
#
# PCOD8254658 Si02
#       8
#     8   8   8   8   8   8   8   8
#     4  11  21  36  59  90 130 163 201 262 321 391
#     4  12  23  46  69  92 133 174 227 279 340 388
#     4  12  24  39  71  95 127 178 223 275 340 405
#     4  12  22  39  61  92 133 173 214 265 328 394
#     4  11  26  45  65  95 129 171 227 284 340 394
#     4  12  20  40  62  96 131 171 211 267 336 402
#     4  10  22  41  67  95 126 169 219 271 330 396
#     4  12  25  39  64  97 135 180 223 267 333 407
#
# _framework density 20.878467000000001
#
# number of rings (size 3 to 8) (size 9 to 14) (size 15 to 20)
#    0.000    0.500    5.000    4.125    0.000    1.500 
#    0.000    1.875    0.000    4.500    0.000    0.000 
#    0.000    0.000    0.000    0.000    0.000    0.000 
#
# Total GULP energy -793452.891163 kJ/mol
# GULP energy per Si atom -12397.701424 kJ/mol
# Density = 2.083095 g / cm^3
# Si number density = 20.878467 Si / 1000 Ang^3
#
#
#
# Elastic Constant Matrix: (Units=GPa)
#
#
# Indices 1 2 3 4 5 6 
#
# 1 79.4596 21.1443 27.0225 0.0000 0.0000 0.0000
# 2 21.1443 98.2525 32.2447 0.0000 0.0000 0.0000
# 3 27.0225 32.2447 105.8781 0.0000 0.0000 0.0000
# 4 0.0000 0.0000 0.0000 16.6511 0.0000 0.0000
# 5 0.0000 0.0000 0.0000 0.0000 31.2908 0.0000
# 6 0.0000 0.0000 0.0000 0.0000 0.0000 24.7799
#
#
#
# Elastic Compliance Matrix: (Units=1/GPa)
#
#
# Indices 1 2 3 4 5 6 
#
# 1 0.014149 -0.002066 -0.002982 0.000000 0.000000 0.000000
# 2 -0.002066 0.011610 -0.003008 0.000000 0.000000 0.000000
# 3 -0.002982 -0.003008 0.011122 0.000000 0.000000 0.000000
# 4 0.000000 0.000000 0.000000 0.060056 0.000000 0.000000
# 5 0.000000 0.000000 0.000000 0.000000 0.031958 0.000000
# 6 0.000000 0.000000 0.000000 0.000000 0.000000 0.040355
#
#
# Mechanical properties :
#
#
# Convention : Reuss Voigt Hill
#
# Bulk Modulus (GPa) = 48.15154 49.37926 48.76540
# Shear Modulus (GPa) = 26.00294 28.08961 27.04627
#
# Velocity S-wave (km/s) = 3.53291 3.67193 3.60309
# Velocity P-wave (km/s) = 6.30514 6.45597 6.38100
#
# Compressibility (1/GPa) = 0.02076777
#
# Stress axis : x y z
#
# Youngs Moduli (GPa) = 70.67679 86.13396 89.91162
#
# Poissons Ratio (x) = 0.17798 0.26810
# Poissons Ratio (y) = 0.14604 0.27049
# Poissons Ratio (z) = 0.21075 0.25912
#
# Static dielectric constant tensor:
#      x y z
#    x 3.949860 0.000000 0.000000 
#    y 0.000000 3.682810 0.000000 
#    z 0.000000 0.000000 4.013600 
# 
# 
# High freq. dielectric constant tensor:
#      x y z
#    x 1.812340 0.000000 0.000000 
#    y 0.000000 1.817530 0.000000 
#    z 0.000000 0.000000 1.830040 
# 
# From -- ./inp_files/9497.got.cif
#   From: 2010.03.12/outbox.cif.g09.slc.cpg/sg62_5_cif.got.tgz:9497.got - 2010.04.10 19:12:36.
