data_PCOD8254966
_publ_section_title
;
Structure prediction by ZEFSAII (Michael W. Deem and Ramdas Pophale) SiO2 
 PCOD8254966
Probable space group: P N M A
;
_chemical_formula_sum "Si O2"
_cell_formula_units_Z 64
_cell_length_a 19.035339
_cell_length_b 8.834488
_cell_length_c 23.388608
_cell_angle_alpha 90.000000
_cell_angle_beta 90.000000
_cell_angle_gamma 90.000000
_cell_volume 3933.203127
_symmetry_space_group_name_H-M "P N M A"
_symmetry_group_IT_number 62
_symmetry_cell_setting 'orthorhombic'
loop_
_space_group_symop_operation_xyz
x,y,z
1/2-x,-y,1/2+z
1/2+x,1/2-y,1/2-z
-x,1/2+y,-z
-x,-y,-z
1/2+x,y,1/2-z
1/2-x,1/2+y,1/2+z
x,1/2-y,z
loop_
_atom_site_type_symbol
_atom_site_label
_atom_site_fract_x
_atom_site_fract_y
_atom_site_fract_z
Si Si1 0.274077 0.923396 0.341045
Si Si2 0.501464 0.070375 0.620631
Si Si3 0.361995 0.926094 0.227564
Si Si4 0.360348 0.429468 0.561140
Si Si5 0.498165 0.572338 0.744818
Si Si6 0.228232 0.929810 0.164365
Si Si7 0.638858 0.928111 0.567419
Si Si8 0.639881 0.927342 0.228559
O O1 0.280378 0.750000 0.360583
O O2 0.327558 0.954546 0.289337
O O3 0.194466 0.961095 0.322599
O O4 0.293849 0.029879 0.394257
O O5 0.504266 0.250000 0.623610
O O6 0.435296 0.011008 0.583885
O O7 0.495307 0.010718 0.684443
O O8 0.570903 0.011593 0.590657
O O9 0.380543 0.750000 0.219554
O O10 0.307300 0.984584 0.178894
O O11 0.431995 0.024518 0.220998
O O12 0.360499 0.250000 0.563501
O O13 0.297667 0.489792 0.602530
O O14 0.346732 0.486711 0.496982
O O15 0.497956 0.750000 0.735090
O O16 0.431238 0.520923 0.782472
O O17 0.228681 0.750000 0.168484
O O18 0.173448 0.986962 0.212148
O O19 0.625437 0.750000 0.569062
O O20 0.622202 0.750000 0.231863
#
# Coordination Sequence:
#
# PCOD8254966 Si02
#       8
#     8   8   8   8   8   8   8   8
#     4   9  18  32  50  70  91 125 165 196 229 278
#     4  11  20  33  49  63  92 136 174 200 221 267
#     4   9  17  30  51  70  89 122 161 196 232 282
#     4   9  18  31  49  70  93 125 163 201 237 273
#     4  12  22  30  45  73 103 127 152 194 249 291
#     4   8  14  29  51  71  88 117 162 202 231 271
#     4  11  21  31  46  71 100 127 158 198 241 279
#     4   9  17  32  53  70  89 122 164 199 231 281
#
# _framework density 16.271725
#
# number of rings (size 3 to 8) (size 9 to 14) (size 15 to 20)
#    0.000    2.250    2.500    3.750    0.000    0.500 
#    0.000    3.750    0.000    0.000    0.000    0.875 
#    0.000    0.000    0.000    0.000    0.000    0.000 
#
# Total GULP energy -793464.018728 kJ/mol
# GULP energy per Si atom -12397.875293 kJ/mol
# Density = 1.623469 g / cm^3
# Si number density = 16.271725 Si / 1000 Ang^3
#
#
#
# Elastic Constant Matrix: (Units=GPa)
#
#
# Indices 1 2 3 4 5 6 
#
# 1 125.8830 38.7721 58.6874 0.0000 0.0000 0.0000
# 2 38.7721 57.4644 27.4670 0.0000 0.0000 0.0000
# 3 58.6874 27.4670 88.7570 0.0000 0.0000 0.0000
# 4 0.0000 0.0000 0.0000 16.9667 0.0000 0.0000
# 5 0.0000 0.0000 0.0000 0.0000 20.7425 0.0000
# 6 0.0000 0.0000 0.0000 0.0000 0.0000 15.2951
#
#
#
# Elastic Compliance Matrix: (Units=1/GPa)
#
#
# Indices 1 2 3 4 5 6 
#
# 1 0.012755 -0.005369 -0.006772 0.000000 0.000000 0.000000
# 2 -0.005369 0.022683 -0.003470 0.000000 0.000000 0.000000
# 3 -0.006772 -0.003470 0.016818 0.000000 0.000000 0.000000
# 4 0.000000 0.000000 0.000000 0.058939 0.000000 0.000000
# 5 0.000000 0.000000 0.000000 0.000000 0.048210 0.000000
# 6 0.000000 0.000000 0.000000 0.000000 0.000000 0.065380
#
#
# Mechanical properties :
#
#
# Convention : Reuss Voigt Hill
#
# Bulk Modulus (GPa) = 47.54028 57.99526 52.76777
# Shear Modulus (GPa) = 19.01013 20.41275 19.71144
#
# Velocity S-wave (km/s) = 3.42174 3.54572 3.48428
# Velocity P-wave (km/s) = 6.70007 7.24445 6.97757
#
# Compressibility (1/GPa) = 0.02103479
#
# Stress axis : x y z
#
# Youngs Moduli (GPa) = 78.40251 44.08609 59.45924
#
# Poissons Ratio (x) = 0.23669 0.40267
# Poissons Ratio (y) = 0.42093 0.20630
# Poissons Ratio (z) = 0.53095 0.15296
#
# Static dielectric constant tensor:
#      x y z
#    x 3.268130 0.000000 0.000000 
#    y 0.000000 2.853620 0.000000 
#    z 0.000000 0.000000 3.163300 
# 
# 
# High freq. dielectric constant tensor:
#      x y z
#    x 1.627250 0.000000 0.000000 
#    y 0.000000 1.607750 0.000000 
#    z 0.000000 0.000000 1.600090 
# 
# From -- ./inp_files/27874.got.cif
#   From: 2010.03.12/outbox.cif.g09.slc.cpg/sg62_14_cif.got.tgz:27874.got - 2010.04.10 19:12:36.
