data_PCOD8254993
_publ_section_title
;
Structure prediction by ZEFSAII (Michael W. Deem and Ramdas Pophale) SiO2 
 PCOD8254993
Probable space group: P N M A
;
_chemical_formula_sum "Si O2"
_cell_formula_units_Z 44
_cell_length_a 23.426290
_cell_length_b 13.004006
_cell_length_c 6.891503
_cell_angle_alpha 90.000000
_cell_angle_beta 90.000000
_cell_angle_gamma 90.000000
_cell_volume 2099.397260
_symmetry_space_group_name_H-M "P N M A"
_symmetry_group_IT_number 62
_symmetry_cell_setting 'orthorhombic'
loop_
_space_group_symop_operation_xyz
x,y,z
1/2-x,-y,1/2+z
1/2+x,1/2-y,1/2-z
-x,1/2+y,-z
-x,-y,-z
1/2+x,y,1/2-z
1/2-x,1/2+y,1/2+z
x,1/2-y,z
loop_
_atom_site_type_symbol
_atom_site_label
_atom_site_fract_x
_atom_site_fract_y
_atom_site_fract_z
Si Si1 0.562080 0.250000 0.662880
Si Si2 0.754016 0.250000 0.341245
Si Si3 0.757618 0.584709 0.515835
Si Si4 0.869578 0.250000 0.564954
Si Si5 0.504840 0.750000 0.953699
Si Si6 0.075037 0.140630 0.201353
Si Si7 0.161094 0.542012 0.255436
Si Si8 0.809002 0.750000 0.240009
O O1 0.512569 0.250000 0.820767
O O2 0.555740 0.352357 0.525843
O O3 0.623274 0.250000 0.768932
O O4 0.818258 0.250000 0.415217
O O5 0.708161 0.250000 0.514590
O O6 0.745236 0.351279 0.213244
O O7 0.797224 0.486712 0.564773
O O8 0.695390 0.545711 0.448085
O O9 0.783456 0.648397 0.337634
O O10 0.927161 0.250000 0.439547
O O11 0.867254 0.151575 0.705187
O O12 0.480283 0.852690 0.844528
O O13 0.110077 0.250000 0.240910
O O14 0.111102 0.040941 0.243096
#
# Coordination Sequence:
#
# PCOD8254993 Si02
#       8
#     4   4   8   4   4   8   8   4
#     4   9  18  37  69  91 119 165 219 273 320 375
#     4  11  22  47  62  98 139 178 219 266 334 416
#     4  11  25  37  65  98 138 174 217 262 335 409
#     4  12  25  44  66  93 141 170 219 274 348 391
#     4   9  21  46  67  93 124 172 227 285 324 389
#     4   8  22  41  63  93 118 166 228 269 318 383
#     4  12  23  43  63 100 135 173 216 272 331 413
#     4  11  20  40  68  99 131 177 216 274 332 393
#
# _framework density 20.958397999999999
#
# number of rings (size 3 to 8) (size 9 to 14) (size 15 to 20)
#    1.091    0.364    1.818    3.818    5.091    0.727 
#   11.455    0.909    0.000    0.000    0.000    0.000 
#    0.000    0.000    0.000    0.000    0.000    0.000 
#
# Total GULP energy -545345.749477 kJ/mol
# GULP energy per Si atom -12394.221579 kJ/mol
# Density = 2.091070 g / cm^3
# Si number density = 20.958398 Si / 1000 Ang^3
#
#
#
# Elastic Constant Matrix: (Units=GPa)
#
#
# Indices 1 2 3 4 5 6 
#
# 1 70.8362 19.0638 10.2201 0.0000 0.0000 0.0000
# 2 19.0638 106.9913 18.5345 0.0000 0.0000 0.0000
# 3 10.2201 18.5345 90.4768 0.0000 0.0000 0.0000
# 4 0.0000 0.0000 0.0000 8.4540 0.0000 0.0000
# 5 0.0000 0.0000 0.0000 0.0000 20.8625 0.0000
# 6 0.0000 0.0000 0.0000 0.0000 0.0000 12.5214
#
#
#
# Elastic Compliance Matrix: (Units=1/GPa)
#
#
# Indices 1 2 3 4 5 6 
#
# 1 0.014950 -0.002458 -0.001185 0.000000 0.000000 0.000000
# 2 -0.002458 0.010095 -0.001790 0.000000 0.000000 0.000000
# 3 -0.001185 -0.001790 0.011553 0.000000 0.000000 0.000000
# 4 0.000000 0.000000 0.000000 0.118288 0.000000 0.000000
# 5 0.000000 0.000000 0.000000 0.000000 0.047933 0.000000
# 6 0.000000 0.000000 0.000000 0.000000 0.000000 0.079863
#
#
# Mechanical properties :
#
#
# Convention : Reuss Voigt Hill
#
# Bulk Modulus (GPa) = 38.86506 40.43791 39.65148
# Shear Modulus (GPa) = 16.54941 23.06663 19.80802
#
# Velocity S-wave (km/s) = 2.81309 3.32112 3.07760
# Velocity P-wave (km/s) = 5.39773 5.83461 5.62041
#
# Compressibility (1/GPa) = 0.02573005
#
# Stress axis : x y z
#
# Youngs Moduli (GPa) = 66.89101 99.06152 86.55644
#
# Poissons Ratio (x) = 0.24354 0.10258
# Poissons Ratio (y) = 0.16445 0.15496
# Poissons Ratio (z) = 0.07927 0.17734
#
# Static dielectric constant tensor:
#      x y z
#    x 3.524910 0.000000 0.000000 
#    y 0.000000 3.726900 0.000000 
#    z 0.000000 0.000000 3.828620 
# 
# 
# High freq. dielectric constant tensor:
#      x y z
#    x 1.802550 0.000000 0.000000 
#    y 0.000000 1.813200 0.000000 
#    z 0.000000 0.000000 1.829300 
# 
# From -- ./inp_files/3163.got.cif
#   From: 2010.03.12/outbox.cif.g09.slc.cpg/sg62_2_cif.got.tgz:3163.got - 2010.04.10 19:12:36.
