data_PCOD8254601
_publ_section_title
;
Structure prediction by ZEFSAII (Michael W. Deem and Ramdas Pophale) SiO2 
 PCOD8254601
Probable space group: P N M A
;
_chemical_formula_sum "Si O2"
_cell_formula_units_Z 40
_cell_length_a 26.555707
_cell_length_b 8.417471
_cell_length_c 8.990911
_cell_angle_alpha 90.000000
_cell_angle_beta 90.000000
_cell_angle_gamma 90.000000
_cell_volume 2009.755361
_symmetry_space_group_name_H-M "P N M A"
_symmetry_group_IT_number 62
_symmetry_cell_setting 'orthorhombic'
loop_
_space_group_symop_operation_xyz
x,y,z
1/2-x,-y,1/2+z
1/2+x,1/2-y,1/2-z
-x,1/2+y,-z
-x,-y,-z
1/2+x,y,1/2-z
1/2-x,1/2+y,1/2+z
x,1/2-y,z
loop_
_atom_site_type_symbol
_atom_site_label
_atom_site_fract_x
_atom_site_fract_y
_atom_site_fract_z
Si Si1 0.501516 0.750000 0.768626
Si Si2 0.926471 0.750000 0.999155
Si Si3 0.585006 0.004758 0.751657
Si Si4 0.837040 0.750000 0.773874
Si Si5 0.411251 0.750000 0.993234
Si Si6 0.218594 0.566114 0.135650
Si Si7 0.696978 0.574977 0.703196
O O1 0.473391 0.750000 0.611255
O O2 0.536973 0.600339 0.782496
O O3 0.463534 0.750000 0.905513
O O4 0.929259 0.901579 0.103723
O O5 0.874058 0.750000 0.913340
O O6 0.637037 0.915468 0.719896
O O7 0.592808 0.098697 0.902703
O O8 0.864834 0.750000 0.617650
O O9 0.808110 0.579187 0.775357
O O10 0.200105 0.750000 0.170471
O O11 0.277338 0.552107 0.184996
O O12 0.212280 0.527158 0.963379
O O13 0.718557 0.750000 0.739377
#
# Coordination Sequence:
#
# PCOD8254601 Si02
#       7
#     4   4   8   4   4   8   8
#     4  11  22  43  66  95 128 166 218 277 324 390
#     4  10  22  40  70  91 127 171 209 273 332 383
#     4  11  22  41  66  95 126 170 221 261 331 392
#     4  11  22  47  62  93 140 170 219 272 315 385
#     4  10  26  40  66  91 133 173 210 268 335 384
#     4  11  26  41  66  97 133 172 223 261 324 389
#     4  11  24  42  64  95 130 172 214 270 317 392
#
# _framework density 19.902920000000002
#
# number of rings (size 3 to 8) (size 9 to 14) (size 15 to 20)
#    0.000    1.200    4.000    1.200    7.000    0.000 
#    1.800    0.000    4.400    0.000    0.000    0.000 
#    0.000    0.000    0.000    0.000    0.000    0.000 
#
# Total GULP energy -495726.735222 kJ/mol
# GULP energy per Si atom -12393.168381 kJ/mol
# Density = 1.985762 g / cm^3
# Si number density = 19.902920 Si / 1000 Ang^3
#
#
#
# Elastic Constant Matrix: (Units=GPa)
#
#
# Indices 1 2 3 4 5 6 
#
# 1 96.8462 40.1627 45.3859 0.0000 0.0000 0.0000
# 2 40.1627 123.1215 46.2990 0.0000 0.0000 0.0000
# 3 45.3859 46.2990 115.7831 0.0000 0.0000 0.0000
# 4 0.0000 0.0000 0.0000 -14.1885 0.0000 0.0000
# 5 0.0000 0.0000 0.0000 0.0000 21.8362 0.0000
# 6 0.0000 0.0000 0.0000 0.0000 0.0000 49.0048
#
#
#
# Elastic Compliance Matrix: (Units=1/GPa)
#
#
# Indices 1 2 3 4 5 6 
#
# 1 0.013437 -0.002828 -0.004136 0.000000 0.000000 0.000000
# 2 -0.002828 0.010155 -0.002952 0.000000 0.000000 0.000000
# 3 -0.004136 -0.002952 0.011439 0.000000 0.000000 0.000000
# 4 0.000000 0.000000 0.000000 -0.070479 0.000000 0.000000
# 5 0.000000 0.000000 0.000000 0.000000 0.045796 0.000000
# 6 0.000000 0.000000 0.000000 0.000000 0.000000 0.020406
#
#
# Mechanical properties :
#
#
# Convention : Reuss Voigt Hill
#
# Bulk Modulus (GPa) = 65.79937 66.60509 66.20223
# Shear Modulus (GPa) = 89.84597 24.92402 57.38500
#
# Velocity S-wave (km/s) = 6.72608 3.54260 5.37541
# Velocity P-wave (km/s) = 9.66706 7.09020 8.47712
#
# Compressibility (1/GPa) = 0.01519771
#
# Stress axis : x y z
#
# Youngs Moduli (GPa) = 74.42264 98.47756 87.42208
#
# Poissons Ratio (x) = 0.27846 0.36161
# Poissons Ratio (y) = 0.21044 0.25808
# Poissons Ratio (z) = 0.30784 0.29072
#
# Static dielectric constant tensor:
#      x y z
#    x 3.660980 0.000000 0.000000 
#    y 0.000000 3.745060 0.000000 
#    z 0.000000 0.000000 3.625240 
# 
# 
# High freq. dielectric constant tensor:
#      x y z
#    x 1.784270 0.000000 0.000000 
#    y 0.000000 1.784970 0.000000 
#    z 0.000000 0.000000 1.784840 
# 
# From -- ./inp_files/9153.got.cif
#   From: 2010.03.12/outbox.cif.g09.slc.cpg/sg62_5_cif.got.tgz:9153.got - 2010.04.10 19:12:36.
