data_PCOD8254353
_publ_section_title
;
Structure prediction by ZEFSAII (Michael W. Deem and Ramdas Pophale) SiO2 
 PCOD8254353
Probable space group: P N M A
;
_chemical_formula_sum "Si O2"
_cell_formula_units_Z 48
_cell_length_a 9.514774
_cell_length_b 8.625885
_cell_length_c 28.543915
_cell_angle_alpha 90.000000
_cell_angle_beta 90.000000
_cell_angle_gamma 90.000000
_cell_volume 2342.694621
_symmetry_space_group_name_H-M "P N M A"
_symmetry_group_IT_number 62
_symmetry_cell_setting 'orthorhombic'
loop_
_space_group_symop_operation_xyz
x,y,z
1/2-x,-y,1/2+z
1/2+x,1/2-y,1/2-z
-x,1/2+y,-z
-x,-y,-z
1/2+x,y,1/2-z
1/2-x,1/2+y,1/2+z
x,1/2-y,z
loop_
_atom_site_type_symbol
_atom_site_label
_atom_site_fract_x
_atom_site_fract_y
_atom_site_fract_z
Si Si1 0.858770 0.431251 0.018047
Si Si2 0.211650 0.566438 0.879407
Si Si3 0.984619 0.432273 0.204162
Si Si4 0.384732 0.427007 0.032409
Si Si5 0.206660 0.068837 0.716215
Si Si6 0.978866 0.072253 0.361601
O O1 0.873310 0.250000 0.023960
O O2 0.815250 0.503144 0.068706
O O3 0.752982 0.473498 0.976727
O O4 0.000000 0.500000 0.000000
O O5 0.225639 0.750000 0.883112
O O6 0.361169 0.507081 0.858685
O O7 0.082871 0.518088 0.845709
O O8 0.015405 0.250000 0.205761
O O9 0.130707 0.520152 0.212059
O O10 0.869790 0.474097 0.243027
O O11 0.358987 0.250000 0.017888
O O12 0.427721 0.440702 0.085709
O O13 0.500000 0.500000 0.000000
O O14 0.200249 0.250000 0.727695
O O15 0.123947 0.034719 0.668446
O O16 0.969810 0.250000 0.343642
#
# Coordination Sequence:
#
# PCOD8254353 Si02
#       6
#     8   8   8   8   8   8
#     4  11  23  41  61  91 129 169 214 265 317 370
#     4   9  20  40  65  90 120 162 214 260 302 368
#     4  11  23  43  70  94 122 169 216 251 306 385
#     4  11  22  39  64  93 126 170 217 262 312 372
#     4  12  26  43  64  98 133 161 202 266 324 366
#     4  10  21  41  66  91 123 169 217 257 310 386
#
# _framework density 20.489224
#
# number of rings (size 3 to 8) (size 9 to 14) (size 15 to 20)
#    0.000    1.333    1.667    4.000    2.333    2.667 
#    0.000    3.333    0.000    0.000    0.000    0.000 
#    0.000    0.000    0.000    0.000    0.000    0.000 
#
# Total GULP energy -595229.193531 kJ/mol
# GULP energy per Si atom -12400.608199 kJ/mol
# Density = 2.044259 g / cm^3
# Si number density = 20.489224 Si / 1000 Ang^3
#
#
#
# Elastic Constant Matrix: (Units=GPa)
#
#
# Indices 1 2 3 4 5 6 
#
# 1 151.9638 17.9055 34.4830 0.0000 0.0000 0.0000
# 2 17.9055 54.1950 22.6025 0.0000 0.0000 0.0000
# 3 34.4830 22.6025 77.8850 0.0000 0.0000 0.0000
# 4 0.0000 0.0000 0.0000 29.2321 0.0000 0.0000
# 5 0.0000 0.0000 0.0000 0.0000 39.2753 0.0000
# 6 0.0000 0.0000 0.0000 0.0000 0.0000 36.3431
#
#
#
# Elastic Compliance Matrix: (Units=1/GPa)
#
#
# Indices 1 2 3 4 5 6 
#
# 1 0.007386 -0.001225 -0.002915 0.000000 0.000000 0.000000
# 2 -0.001225 0.021196 -0.005609 0.000000 0.000000 0.000000
# 3 -0.002915 -0.005609 0.015758 0.000000 0.000000 0.000000
# 4 0.000000 0.000000 0.000000 0.034209 0.000000 0.000000
# 5 0.000000 0.000000 0.000000 0.000000 0.025461 0.000000
# 6 0.000000 0.000000 0.000000 0.000000 0.000000 0.027516
#
#
# Mechanical properties :
#
#
# Convention : Reuss Voigt Hill
#
# Bulk Modulus (GPa) = 40.25287 48.22508 44.23898
# Shear Modulus (GPa) = 31.38670 34.90694 33.14682
#
# Velocity S-wave (km/s) = 3.91815 4.13204 4.02651
# Velocity P-wave (km/s) = 6.33701 6.80829 6.57687
#
# Compressibility (1/GPa) = 0.02484295
#
# Stress axis : x y z
#
# Youngs Moduli (GPa) = 135.38708 47.17926 63.46121
#
# Poissons Ratio (x) = 0.05778 0.18498
# Poissons Ratio (y) = 0.16581 0.35595
# Poissons Ratio (z) = 0.39462 0.26462
#
# Static dielectric constant tensor:
#      x y z
#    x 4.373290 0.000000 0.000000 
#    y 0.000000 3.606710 0.000000 
#    z 0.000000 0.000000 3.320140 
# 
# 
# High freq. dielectric constant tensor:
#      x y z
#    x 1.819920 0.000000 0.000000 
#    y 0.000000 1.786240 0.000000 
#    z 0.000000 0.000000 1.812640 
# 
# From -- ./inp_files/32041.got.cif
#   From: 2010.03.12/outbox.cif.g09.slc.cpg/sg62_17_cif.got.tgz:32041.got - 2010.04.10 19:12:36.
