data_PCOD8254741
_publ_section_title
;
Structure prediction by ZEFSAII (Michael W. Deem and Ramdas Pophale) SiO2 
 PCOD8254741
Probable space group: P N M A
;
_chemical_formula_sum "Si O2"
_cell_formula_units_Z 28
_cell_length_a 15.101200
_cell_length_b 7.550370
_cell_length_c 13.125900
_cell_angle_alpha 90.000000
_cell_angle_beta 90.000000
_cell_angle_gamma 90.000000
_cell_volume 1496.610490
_symmetry_space_group_name_H-M "P N M A"
_symmetry_group_IT_number 62
_symmetry_cell_setting 'orthorhombic'
loop_
_space_group_symop_operation_xyz
x,y,z
1/2-x,-y,1/2+z
1/2+x,1/2-y,1/2-z
-x,1/2+y,-z
-x,-y,-z
1/2+x,y,1/2-z
1/2-x,1/2+y,1/2+z
x,1/2-y,z
loop_
_atom_site_type_symbol
_atom_site_label
_atom_site_fract_x
_atom_site_fract_y
_atom_site_fract_z
Si Si1 0.942729 0.956196 0.097321
Si Si2 0.151936 0.250000 0.351840
Si Si3 0.746795 0.555474 0.040750
Si Si4 0.032399 0.750000 0.744119
Si Si5 0.773866 0.250000 0.346631
O O1 0.949583 0.750000 0.126063
O O2 0.842603 0.015724 0.073892
O O3 0.978466 0.072412 0.189984
O O4 0.000000 0.000000 0.000000
O O5 0.173355 0.422297 0.418597
O O6 0.205661 0.250000 0.246188
O O7 0.047097 0.250000 0.336239
O O8 0.729434 0.750000 0.089943
O O9 0.743072 0.575096 0.917007
O O10 0.125161 0.750000 0.687147
#
# Coordination Sequence:
#
# PCOD8254741 Si02
#       5
#     8   4   8   4   4
#     4  11  20  38  65  94 125 161 218 268 316 359
#     4  12  22  44  65  90 136 166 208 272 320 371
#     4   9  22  42  62  90 129 169 210 261 313 384
#     4  12  24  38  66  96 127 170 211 264 318 392
#     4  10  22  44  61  94 127 164 223 252 312 391
#
# _framework density 18.708943000000001
#
# number of rings (size 3 to 8) (size 9 to 14) (size 15 to 20)
#    0.857    0.571    4.286    1.714    0.000    2.286 
#    5.143    0.000    0.000    0.000    0.000    0.000 
#    0.000    0.000    0.000    0.000    0.000    0.000 
#
# Total GULP energy -347137.852278 kJ/mol
# GULP energy per Si atom -12397.780439 kJ/mol
# Density = 1.866636 g / cm^3
# Si number density = 18.708943 Si / 1000 Ang^3
#
#
#
# Elastic Constant Matrix: (Units=GPa)
#
#
# Indices 1 2 3 4 5 6 
#
# 1 61.5440 14.8825 -7.9460 0.0000 0.0000 0.0000
# 2 14.8825 93.6709 22.2830 0.0000 0.0000 0.0000
# 3 -7.9460 22.2830 63.9051 0.0000 0.0000 0.0000
# 4 0.0000 0.0000 0.0000 35.1383 0.0000 0.0000
# 5 0.0000 0.0000 0.0000 0.0000 43.6028 0.0000
# 6 0.0000 0.0000 0.0000 0.0000 0.0000 24.6173
#
#
#
# Elastic Compliance Matrix: (Units=1/GPa)
#
#
# Indices 1 2 3 4 5 6 
#
# 1 0.017566 -0.003610 0.003443 0.000000 0.000000 0.000000
# 2 -0.003610 0.012383 -0.004767 0.000000 0.000000 0.000000
# 3 0.003443 -0.004767 0.017738 0.000000 0.000000 0.000000
# 4 0.000000 0.000000 0.000000 0.028459 0.000000 0.000000
# 5 0.000000 0.000000 0.000000 0.000000 0.022934 0.000000
# 6 0.000000 0.000000 0.000000 0.000000 0.000000 0.040622
#
#
# Mechanical properties :
#
#
# Convention : Reuss Voigt Hill
#
# Bulk Modulus (GPa) = 26.44100 30.83990 28.64045
# Shear Modulus (GPa) = 30.83055 33.33171 32.08113
#
# Velocity S-wave (km/s) = 4.06384 4.22547 4.14544
# Velocity P-wave (km/s) = 6.01525 6.35027 6.18503
#
# Compressibility (1/GPa) = 0.03782005
#
# Stress axis : x y z
#
# Youngs Moduli (GPa) = 56.92817 80.75490 56.37490
#
# Poissons Ratio (x) = 0.29152 -0.19409
# Poissons Ratio (y) = 0.20551 0.26872
# Poissons Ratio (z) = -0.19600 0.38494
#
# Static dielectric constant tensor:
#      x y z
#    x 1.681690 0.000000 0.000000 
#    y 0.000000 2.998740 0.000000 
#    z 0.000000 0.000000 3.418530 
# 
# 
# High freq. dielectric constant tensor:
#      x y z
#    x 1.731250 0.000000 0.000000 
#    y 0.000000 1.728170 0.000000 
#    z 0.000000 0.000000 1.716990 
# 
# From -- ./inp_files/12721.got.cif
#   From: 2010.03.12/outbox.cif.g09.slc.cpg/sg62_7_cif.got.tgz:12721.got - 2010.04.10 19:12:36.
