data_PCOD8254615
_publ_section_title
;
Structure prediction by ZEFSAII (Michael W. Deem and Ramdas Pophale) SiO2 
 PCOD8254615
Probable space group: P N M A
;
_chemical_formula_sum "Si O2"
_cell_formula_units_Z 64
_cell_length_a 14.501046
_cell_length_b 17.650334
_cell_length_c 11.470493
_cell_angle_alpha 90.000000
_cell_angle_beta 90.000000
_cell_angle_gamma 90.000000
_cell_volume 2935.853244
_symmetry_space_group_name_H-M "P N M A"
_symmetry_group_IT_number 62
_symmetry_cell_setting 'orthorhombic'
loop_
_space_group_symop_operation_xyz
x,y,z
1/2-x,-y,1/2+z
1/2+x,1/2-y,1/2-z
-x,1/2+y,-z
-x,-y,-z
1/2+x,y,1/2-z
1/2-x,1/2+y,1/2+z
x,1/2-y,z
loop_
_atom_site_type_symbol
_atom_site_label
_atom_site_fract_x
_atom_site_fract_y
_atom_site_fract_z
Si Si1 0.968308 0.663378 0.572569
Si Si2 0.775384 0.662347 0.883258
Si Si3 0.135742 0.928182 0.493287
Si Si4 0.305241 0.337805 0.606415
Si Si5 0.875648 0.586150 0.372955
Si Si6 0.955750 0.596210 0.809940
Si Si7 0.444196 0.069315 0.740309
Si Si8 0.845203 0.162966 0.158123
O O1 0.969171 0.750000 0.612670
O O2 0.903159 0.652843 0.461781
O O3 0.929661 0.612745 0.676510
O O4 0.071345 0.637686 0.544393
O O5 0.758771 0.750000 0.914031
O O6 0.736654 0.606634 0.984078
O O7 0.884725 0.646027 0.885234
O O8 0.727594 0.640160 0.758933
O O9 0.115485 0.940276 0.357922
O O10 0.118853 0.005312 0.563773
O O11 0.291237 0.250000 0.637754
O O12 0.226769 0.390324 0.668083
O O13 0.402991 0.364032 0.660111
O O14 0.299662 0.352077 0.467678
O O15 0.948294 0.586917 0.266805
O O16 0.938530 0.507686 0.834038
O O17 0.061794 0.614771 0.834945
O O18 0.873983 0.250000 0.171664
#
# Coordination Sequence:
#
# PCOD8254615 Si02
#       8
#     8   8   8   8   8   8   8   8
#     4  11  19  33  63  92 123 164 207 264 322 373
#     4  11  22  36  62  96 128 170 216 267 328 381
#     4  11  21  40  61  94 132 160 213 272 322 378
#     4  11  26  45  64  92 129 174 222 263 320 392
#     4  11  21  43  65  93 126 170 224 265 314 390
#     4  12  21  39  63  97 132 165 210 265 331 398
#     4  11  24  42  67  94 131 171 212 270 326 385
#     4  10  22  41  62  92 133 168 213 270 318 380
#
# _framework density 21.799454000000001
#
# number of rings (size 3 to 8) (size 9 to 14) (size 15 to 20)
#    0.000    1.000    3.750    4.125    0.000    4.500 
#    2.250    0.000    0.000    0.000    0.000    0.000 
#    0.000    0.000    0.000    0.000    0.000    0.000 
#
# Total GULP energy -793650.117313 kJ/mol
# GULP energy per Si atom -12400.783083 kJ/mol
# Density = 2.174984 g / cm^3
# Si number density = 21.799454 Si / 1000 Ang^3
#
#
#
# Elastic Constant Matrix: (Units=GPa)
#
#
# Indices 1 2 3 4 5 6 
#
# 1 95.0656 36.0173 8.8601 0.0000 0.0000 0.0000
# 2 36.0173 95.7390 26.3957 0.0000 0.0000 0.0000
# 3 8.8601 26.3957 31.7686 0.0000 0.0000 0.0000
# 4 0.0000 0.0000 0.0000 25.0866 0.0000 0.0000
# 5 0.0000 0.0000 0.0000 0.0000 16.2198 0.0000
# 6 0.0000 0.0000 0.0000 0.0000 0.0000 32.5390
#
#
#
# Elastic Compliance Matrix: (Units=1/GPa)
#
#
# Indices 1 2 3 4 5 6 
#
# 1 0.012275 -0.004766 0.000536 0.000000 0.000000 0.000000
# 2 -0.004766 0.015399 -0.011466 0.000000 0.000000 0.000000
# 3 0.000536 -0.011466 0.040854 0.000000 0.000000 0.000000
# 4 0.000000 0.000000 0.000000 0.039862 0.000000 0.000000
# 5 0.000000 0.000000 0.000000 0.000000 0.061653 0.000000
# 6 0.000000 0.000000 0.000000 0.000000 0.000000 0.030732
#
#
# Mechanical properties :
#
#
# Convention : Reuss Voigt Hill
#
# Bulk Modulus (GPa) = 26.92634 40.56882 33.74758
# Shear Modulus (GPa) = 20.44618 24.85575 22.65097
#
# Velocity S-wave (km/s) = 3.06587 3.38035 3.22694
# Velocity P-wave (km/s) = 4.99114 5.82118 5.42206
#
# Compressibility (1/GPa) = 0.03713836
#
# Stress axis : x y z
#
# Youngs Moduli (GPa) = 81.46903 64.93931 24.47716
#
# Poissons Ratio (x) = 0.30947 -0.01313
# Poissons Ratio (y) = 0.38825 0.28064
# Poissons Ratio (z) = -0.04369 0.74456
#
# Static dielectric constant tensor:
#      x y z
#    x 3.975930 0.000000 0.000000 
#    y 0.000000 3.831500 0.000000 
#    z 0.000000 0.000000 3.831760 
# 
# 
# High freq. dielectric constant tensor:
#      x y z
#    x 1.862770 0.000000 0.000000 
#    y 0.000000 1.862410 0.000000 
#    z 0.000000 0.000000 1.828640 
# 
# From -- ./inp_files/13594.got.cif
#   From: 2010.03.12/outbox.cif.g09.slc.cpg/sg62_7_cif.got.tgz:13594.got - 2010.04.10 19:12:36.
