data_PCOD8254176
_publ_section_title
;
Structure prediction by ZEFSAII (Michael W. Deem and Ramdas Pophale) SiO2 
 PCOD8254176
Probable space group: P N M A
;
_chemical_formula_sum "Si O2"
_cell_formula_units_Z 56
_cell_length_a 19.079214
_cell_length_b 15.172074
_cell_length_c 9.539031
_cell_angle_alpha 90.000000
_cell_angle_beta 90.000000
_cell_angle_gamma 90.000000
_cell_volume 2761.275196
_symmetry_space_group_name_H-M "P N M A"
_symmetry_group_IT_number 62
_symmetry_cell_setting 'orthorhombic'
loop_
_space_group_symop_operation_xyz
x,y,z
1/2-x,-y,1/2+z
1/2+x,1/2-y,1/2-z
-x,1/2+y,-z
-x,-y,-z
1/2+x,y,1/2-z
1/2-x,1/2+y,1/2+z
x,1/2-y,z
loop_
_atom_site_type_symbol
_atom_site_label
_atom_site_fract_x
_atom_site_fract_y
_atom_site_fract_z
Si Si1 0.301403 0.911653 0.088196
Si Si2 0.868731 0.410214 0.340414
Si Si3 0.724831 0.350885 0.215818
Si Si4 0.425394 0.005211 0.426676
Si Si5 0.337504 0.474244 0.692376
Si Si6 0.575875 0.154460 0.758130
Si Si7 0.929279 0.149858 0.616471
O O1 0.238980 0.929682 0.198351
O O2 0.354861 0.838822 0.145958
O O3 0.345593 0.001991 0.075883
O O4 0.266995 0.877188 0.946082
O O5 0.800231 0.357361 0.290336
O O6 0.919743 0.430174 0.207838
O O7 0.914124 0.353742 0.450205
O O8 0.697713 0.250000 0.233239
O O9 0.668409 0.420563 0.277862
O O10 0.408316 0.907622 0.373084
O O11 0.500000 0.000000 0.500000
O O12 0.368498 0.036984 0.537700
O O13 0.383305 0.422103 0.803727
O O14 0.560474 0.250000 0.693849
O O15 0.509882 0.123917 0.852884
O O16 0.913235 0.250000 0.667647
#
# Coordination Sequence:
#
# PCOD8254176 Si02
#       7
#     8   8   8   8   8   8   8
#     4  10  21  39  64  89 130 169 213 267 329 383
#     4  10  22  40  62  93 127 171 211 264 320 393
#     4  11  22  38  64  97 130 165 217 273 324 385
#     4  11  22  41  66  92 129 171 209 262 330 384
#     4  11  23  42  64  98 130 172 216 267 333 391
#     4  10  23  40  64  97 130 168 222 271 323 392
#     4  11  23  42  66  95 132 176 221 268 324 390
#
# _framework density 20.280484999999999
#
# number of rings (size 3 to 8) (size 9 to 14) (size 15 to 20)
#    0.000    1.429    4.286    0.857    0.000    5.143 
#    0.000    1.429    0.000    0.000    0.000    0.000 
#    0.000    0.000    0.000    0.000    0.000    0.000 
#
# Total GULP energy -694178.104199 kJ/mol
# GULP energy per Si atom -12396.037575 kJ/mol
# Density = 2.023433 g / cm^3
# Si number density = 20.280485 Si / 1000 Ang^3
#
#
#
# Elastic Constant Matrix: (Units=GPa)
#
#
# Indices 1 2 3 4 5 6 
#
# 1 111.3485 35.4524 41.1859 0.0000 0.0000 0.0000
# 2 35.4524 93.3882 39.1836 0.0000 0.0000 0.0000
# 3 41.1859 39.1836 112.6102 0.0000 0.0000 0.0000
# 4 0.0000 0.0000 0.0000 16.5580 0.0000 0.0000
# 5 0.0000 0.0000 0.0000 0.0000 25.2549 0.0000
# 6 0.0000 0.0000 0.0000 0.0000 0.0000 26.6268
#
#
#
# Elastic Compliance Matrix: (Units=1/GPa)
#
#
# Indices 1 2 3 4 5 6 
#
# 1 0.011026 -0.002920 -0.003017 0.000000 0.000000 0.000000
# 2 -0.002920 0.013312 -0.003564 0.000000 0.000000 0.000000
# 3 -0.003017 -0.003564 0.011224 0.000000 0.000000 0.000000
# 4 0.000000 0.000000 0.000000 0.060394 0.000000 0.000000
# 5 0.000000 0.000000 0.000000 0.000000 0.039596 0.000000
# 6 0.000000 0.000000 0.000000 0.000000 0.000000 0.037556
#
#
# Mechanical properties :
#
#
# Convention : Reuss Voigt Hill
#
# Bulk Modulus (GPa) = 60.38536 60.99897 60.69216
# Shear Modulus (GPa) = 25.29982 27.12293 26.21138
#
# Velocity S-wave (km/s) = 3.53582 3.66100 3.59896
# Velocity P-wave (km/s) = 6.81976 6.92918 6.87469
#
# Compressibility (1/GPa) = 0.01656031
#
# Stress axis : x y z
#
# Youngs Moduli (GPa) = 90.69159 75.12072 89.09779
#
# Poissons Ratio (x) = 0.21936 0.26878
# Poissons Ratio (y) = 0.26483 0.31754
# Poissons Ratio (z) = 0.27359 0.26773
#
# Static dielectric constant tensor:
#      x y z
#    x 3.706700 0.000000 0.000000 
#    y 0.000000 3.845350 0.000000 
#    z 0.000000 0.000000 3.892180 
# 
# 
# High freq. dielectric constant tensor:
#      x y z
#    x 1.792730 0.000000 0.000000 
#    y 0.000000 1.789730 0.000000 
#    z 0.000000 0.000000 1.789960 
# 
# From -- ./inp_files/8725.got.cif
#   From: 2010.03.12/outbox.cif.g09.slc.cpg/sg62_5_cif.got.tgz:8725.got - 2010.04.10 19:12:36.
