data_PCOD8254753
_publ_section_title
;
Structure prediction by ZEFSAII (Michael W. Deem and Ramdas Pophale) SiO2 
 PCOD8254753
Probable space group: P N M A
;
_chemical_formula_sum "Si O2"
_cell_formula_units_Z 64
_cell_length_a 15.101329
_cell_length_b 16.862718
_cell_length_c 11.946680
_cell_angle_alpha 90.000000
_cell_angle_beta 90.000000
_cell_angle_gamma 90.000000
_cell_volume 3042.215519
_symmetry_space_group_name_H-M "P N M A"
_symmetry_group_IT_number 62
_symmetry_cell_setting 'orthorhombic'
loop_
_space_group_symop_operation_xyz
x,y,z
1/2-x,-y,1/2+z
1/2+x,1/2-y,1/2-z
-x,1/2+y,-z
-x,-y,-z
1/2+x,y,1/2-z
1/2-x,1/2+y,1/2+z
x,1/2-y,z
loop_
_atom_site_type_symbol
_atom_site_label
_atom_site_fract_x
_atom_site_fract_y
_atom_site_fract_z
Si Si1 0.003454 0.399008 0.880258
Si Si2 0.827625 0.659331 0.731793
Si Si3 0.948900 0.417074 0.505470
Si Si4 0.876159 0.660171 0.489832
Si Si5 0.149315 0.587471 0.719233
Si Si6 0.173849 0.091508 0.740200
Si Si7 0.484182 0.585723 0.633900
Si Si8 0.635595 0.841271 0.214207
O O1 0.093327 0.374517 0.815373
O O2 0.985234 0.491568 0.869550
O O3 0.920106 0.352001 0.828550
O O4 0.012054 0.375572 0.010565
O O5 0.858456 0.750000 0.740376
O O6 0.828205 0.631124 0.602727
O O7 0.727647 0.650566 0.773348
O O8 0.892604 0.607915 0.807577
O O9 0.875806 0.414959 0.410233
O O10 0.902155 0.403576 0.624344
O O11 0.000000 0.500000 0.500000
O O12 0.018862 0.346263 0.488577
O O13 0.851071 0.750000 0.458376
O O14 0.847576 0.602649 0.390300
O O15 0.184661 0.502152 0.761637
O O16 0.067194 0.617206 0.794334
O O17 0.261934 0.138900 0.768881
O O18 0.627775 0.750000 0.174349
#
# Coordination Sequence:
#
# PCOD8254753 Si02
#       8
#     8   8   8   8   8   8   8   8
#     4  10  23  43  68  95 130 174 224 272 330 399
#     4  11  26  42  64  97 135 174 218 275 333 396
#     4  12  23  44  71 101 127 174 227 279 333 394
#     4  11  23  43  68  94 131 173 220 278 336 395
#     4  11  24  41  70  96 130 174 225 278 328 401
#     4  11  24  42  68  98 132 176 221 280 333 402
#     4  10  22  45  66  95 130 173 224 274 328 394
#     4  12  27  43  67 102 140 178 220 278 347 409
#
# _framework density 21.037299999999998
#
# number of rings (size 3 to 8) (size 9 to 14) (size 15 to 20)
#    0.000    1.000    3.750    2.250    5.250    2.500 
#    0.000    0.000    0.000    0.000    0.000    0.000 
#    0.000    0.000    0.000    0.000    0.000    0.000 
#
# Total GULP energy -793903.121372 kJ/mol
# GULP energy per Si atom -12404.736271 kJ/mol
# Density = 2.098942 g / cm^3
# Si number density = 21.037300 Si / 1000 Ang^3
#
#
#
# Elastic Constant Matrix: (Units=GPa)
#
#
# Indices 1 2 3 4 5 6 
#
# 1 133.0750 26.6488 51.5412 0.0000 0.0000 0.0000
# 2 26.6488 47.0648 34.0623 0.0000 0.0000 0.0000
# 3 51.5412 34.0623 142.4011 0.0000 0.0000 0.0000
# 4 0.0000 0.0000 0.0000 24.8854 0.0000 0.0000
# 5 0.0000 0.0000 0.0000 0.0000 32.6722 0.0000
# 6 0.0000 0.0000 0.0000 0.0000 0.0000 29.3601
#
#
#
# Elastic Compliance Matrix: (Units=1/GPa)
#
#
# Indices 1 2 3 4 5 6 
#
# 1 0.009162 -0.003371 -0.002510 0.000000 0.000000 0.000000
# 2 -0.003371 0.026936 -0.005223 0.000000 0.000000 0.000000
# 3 -0.002510 -0.005223 0.009180 0.000000 0.000000 0.000000
# 4 0.000000 0.000000 0.000000 0.040184 0.000000 0.000000
# 5 0.000000 0.000000 0.000000 0.000000 0.030607 0.000000
# 6 0.000000 0.000000 0.000000 0.000000 0.000000 0.034060
#
#
# Mechanical properties :
#
#
# Convention : Reuss Voigt Hill
#
# Bulk Modulus (GPa) = 43.34561 60.78284 52.06422
# Shear Modulus (GPa) = 27.77368 31.40277 29.58823
#
# Velocity S-wave (km/s) = 3.63741 3.86776 3.75436
# Velocity P-wave (km/s) = 6.18789 6.99298 6.60271
#
# Compressibility (1/GPa) = 0.02307039
#
# Stress axis : x y z
#
# Youngs Moduli (GPa) = 109.15062 37.12486 108.93139
#
# Poissons Ratio (x) = 0.12515 0.27338
# Poissons Ratio (y) = 0.36797 0.56894
# Poissons Ratio (z) = 0.27393 0.19390
#
# Static dielectric constant tensor:
#      x y z
#    x 3.842620 0.000000 0.000000 
#    y 0.000000 3.694060 0.000000 
#    z 0.000000 0.000000 4.153500 
# 
# 
# High freq. dielectric constant tensor:
#      x y z
#    x 1.829340 0.000000 0.000000 
#    y 0.000000 1.816850 0.000000 
#    z 0.000000 0.000000 1.833950 
# 
# From -- ./inp_files/13596.got.cif
#   From: 2010.03.12/outbox.cif.g09.slc.cpg/sg62_7_cif.got.tgz:13596.got - 2010.04.10 19:12:36.
