data_PCOD8255591
_publ_section_title
;
Structure prediction by ZEFSAII (Michael W. Deem and Ramdas Pophale) SiO2 
 PCOD8255591
Probable space group: C M C M
;
_chemical_formula_sum "Si O2"
_cell_formula_units_Z 112
_cell_length_a 12.252512
_cell_length_b 13.516173
_cell_length_c 32.513042
_cell_angle_alpha 90.000000
_cell_angle_beta 90.000000
_cell_angle_gamma 90.000000
_cell_volume 5384.389683
_symmetry_space_group_name_H-M "C M C M"
_symmetry_group_IT_number 63
_symmetry_cell_setting 'orthorhombic'
loop_
_space_group_symop_operation_xyz
x,y,z
-x,-y,1/2+z
x,-y,-z
-x,y,1/2-z
-x,-y,-z
x,y,1/2-z
-x,y,z
x,-y,1/2+z
1/2+x,1/2+y,z
1/2-x,1/2-y,1/2+z
1/2+x,1/2-y,-z
1/2-x,1/2+y,1/2-z
1/2-x,1/2-y,-z
1/2+x,1/2+y,1/2-z
1/2-x,1/2+y,z
1/2+x,1/2-y,1/2+z
loop_
_atom_site_type_symbol
_atom_site_label
_atom_site_fract_x
_atom_site_fract_y
_atom_site_fract_z
Si Si1 0.126697 0.234532 0.472520
Si Si2 0.225544 0.527144 0.355874
Si Si3 0.375175 0.464232 0.927896
Si Si4 0.179794 0.738804 0.353995
Si Si5 0.873237 0.335369 0.389675
Si Si6 0.875163 0.817291 0.441544
Si Si7 0.122366 0.908811 0.297070
O O1 0.177466 0.304365 0.435478
O O2 0.176711 0.246566 0.519612
O O3 0.000000 0.266540 0.472234
O O4 0.139588 0.117535 0.463133
O O5 0.311769 0.572721 0.387806
O O6 0.160060 0.624558 0.341232
O O7 0.144682 0.450514 0.378935
O O8 0.289068 0.480274 0.317663
O O9 0.500000 0.475920 0.914613
O O10 0.325593 0.571558 0.939388
O O11 0.307828 0.770766 0.356071
O O12 0.127524 0.760862 0.398419
O O13 0.120671 0.802652 0.319245
O O14 0.000000 0.307104 0.387241
O O15 0.000000 0.830495 0.455517
O O16 0.157436 0.894185 0.250000
O O17 0.000000 0.953609 0.300346
#
# Coordination Sequence:
#
# PCOD8255591 Si02
#       7
#    16  16  16  16  16  16  16
#     4   9  18  32  52  79 115 157 198 244 293 333
#     4  11  22  37  58  89 116 151 188 232 287 341
#     4  10  17  31  55  84 113 145 193 247 292 335
#     4  11  22  37  60  87 114 151 191 232 286 344
#     4  10  21  37  53  77 115 158 198 231 273 330
#     4  10  19  33  54  83 117 152 196 251 294 334
#     4  10  22  42  68  93 116 142 179 234 293 350
#
# _framework density 20.800871999999998
#
# number of rings (size 3 to 8) (size 9 to 14) (size 15 to 20)
#    0.000    1.857    4.286    1.286    0.000    4.571 
#    0.000    0.714    0.000    9.429    0.000    0.000 
#    0.000    0.000    0.000    0.000    0.000    0.000 
#
# Total GULP energy -694098.519579 kJ/mol
# GULP energy per Si atom -12394.616421 kJ/mol
# Density = 2.075353 g / cm^3
# Si number density = 20.800872 Si / 1000 Ang^3
#
#
#
# Elastic Constant Matrix: (Units=GPa)
#
#
# Indices 1 2 3 4 5 6 
#
# 1 41.6371 2.9340 21.1664 0.0000 0.0000 0.0000
# 2 2.9340 128.5144 27.9454 0.0000 0.0000 0.0000
# 3 21.1664 27.9454 127.1618 0.0000 0.0000 0.0000
# 4 0.0000 0.0000 0.0000 15.2601 0.0000 0.0000
# 5 0.0000 0.0000 0.0000 0.0000 21.7444 0.0000
# 6 0.0000 0.0000 0.0000 0.0000 0.0000 7.5246
#
#
#
# Elastic Compliance Matrix: (Units=1/GPa)
#
#
# Indices 1 2 3 4 5 6 
#
# 1 0.026254 0.000368 -0.004451 0.000000 0.000000 0.000000
# 2 0.000368 0.008177 -0.001858 0.000000 0.000000 0.000000
# 3 -0.004451 -0.001858 0.009013 0.000000 0.000000 0.000000
# 4 0.000000 0.000000 0.000000 0.065530 0.000000 0.000000
# 5 0.000000 0.000000 0.000000 0.000000 0.045989 0.000000
# 6 0.000000 0.000000 0.000000 0.000000 0.000000 0.132898
#
#
# Mechanical properties :
#
#
# Convention : Reuss Voigt Hill
#
# Bulk Modulus (GPa) = 31.68335 44.60055 38.14195
# Shear Modulus (GPa) = 16.11532 25.25698 20.68615
#
# Velocity S-wave (km/s) = 2.78644 3.48836 3.15697
# Velocity P-wave (km/s) = 5.06134 6.14110 5.62717
#
# Compressibility (1/GPa) = 0.03156232
#
# Stress axis : x y z
#
# Youngs Moduli (GPa) = 38.08977 122.29565 110.94761
#
# Poissons Ratio (x) = -0.04507 0.49383
# Poissons Ratio (y) = -0.01404 0.20618
# Poissons Ratio (z) = 0.16954 0.22726
#
# Static dielectric constant tensor:
#      x y z
#    x 3.966840 0.000000 0.000000 
#    y 0.000000 3.711890 0.000000 
#    z 0.000000 0.000000 3.653230 
# 
# 
# High freq. dielectric constant tensor:
#      x y z
#    x 1.830900 0.000000 0.000000 
#    y 0.000000 1.805690 0.000000 
#    z 0.000000 0.000000 1.796680 
# 
# From -- ./inp_files/73549.got.cif
#   From: 2010.03.12/outbox.cif.g09.slc.cpg/sg63_37_cif.got.tgz:73549.got - 2010.04.10 19:34:48.
