data_PCOD8255655
_publ_section_title
;
Structure prediction by ZEFSAII (Michael W. Deem and Ramdas Pophale) SiO2 
 PCOD8255655
Probable space group: C M C M
;
_chemical_formula_sum "Si O2"
_cell_formula_units_Z 80
_cell_length_a 18.493227
_cell_length_b 36.988804
_cell_length_c 8.857339
_cell_angle_alpha 90.000000
_cell_angle_beta 90.000000
_cell_angle_gamma 90.000000
_cell_volume 6058.794974
_symmetry_space_group_name_H-M "C M C M"
_symmetry_group_IT_number 63
_symmetry_cell_setting 'orthorhombic'
loop_
_space_group_symop_operation_xyz
x,y,z
-x,-y,1/2+z
x,-y,-z
-x,y,1/2-z
-x,-y,-z
x,y,1/2-z
-x,y,z
x,-y,1/2+z
1/2+x,1/2+y,z
1/2-x,1/2-y,1/2+z
1/2+x,1/2-y,-z
1/2-x,1/2+y,1/2-z
1/2-x,1/2-y,-z
1/2+x,1/2+y,1/2-z
1/2-x,1/2+y,z
1/2+x,1/2-y,1/2+z
loop_
_atom_site_type_symbol
_atom_site_label
_atom_site_fract_x
_atom_site_fract_y
_atom_site_fract_z
Si Si1 0.414132 0.464312 0.080248
Si Si2 0.915964 0.109399 0.426787
Si Si3 0.783810 0.285233 0.572479
Si Si4 0.420452 0.746181 0.572538
Si Si5 0.335989 0.675705 0.571174
O O1 0.383088 0.461645 0.250000
O O2 0.500000 0.466877 0.084648
O O3 0.381979 0.500000 0.000000
O O4 0.389599 0.429554 0.984918
O O5 0.901128 0.111958 0.250000
O O6 0.869224 0.138775 0.513224
O O7 0.000000 0.115732 0.465533
O O8 0.768669 0.286037 0.750000
O O9 0.750000 0.250000 0.500000
O O10 0.870124 0.281416 0.538158
O O11 0.745796 0.319909 0.495187
O O12 0.428226 0.741219 0.750000
O O13 0.500000 0.751829 0.499044
O O14 0.384860 0.709075 0.510167
O O15 0.331128 0.674897 0.750000
#
# Coordination Sequence:
#
# PCOD8255655 Si02
#       5
#    16  16  16  16  16
#     4   9  16  26  39  53  70  93 120 149 181 216
#     4  10  19  28  38  54  74  94 120 155 190 221
#     4   9  16  26  39  53  70  92 118 149 184 223
#     4   8  14  24  38  54  69  88 117 151 185 220
#     4  10  18  27  39  53  72  97 122 150 185 224
#
# _framework density 13.203946
#
# number of rings (size 3 to 8) (size 9 to 14) (size 15 to 20)
#    0.000    2.800    0.000    4.200    0.000    4.400 
#    0.000    0.000    0.000   12.000    0.000    0.000 
#    0.000    0.000    0.000    0.000    0.000    1.000 
#
# Total GULP energy -495677.522765 kJ/mol
# GULP energy per Si atom -12391.938069 kJ/mol
# Density = 1.317389 g / cm^3
# Si number density = 13.203946 Si / 1000 Ang^3
#
#
#
# Elastic Constant Matrix: (Units=GPa)
#
#
# Indices 1 2 3 4 5 6 
#
# 1 71.3691 44.3973 28.0754 0.0000 0.0000 0.0000
# 2 44.3973 81.3108 34.9896 0.0000 0.0000 0.0000
# 3 28.0754 34.9896 69.1909 0.0000 0.0000 0.0000
# 4 0.0000 0.0000 0.0000 24.3719 0.0000 0.0000
# 5 0.0000 0.0000 0.0000 0.0000 14.0628 0.0000
# 6 0.0000 0.0000 0.0000 0.0000 0.0000 11.4352
#
#
#
# Elastic Compliance Matrix: (Units=1/GPa)
#
#
# Indices 1 2 3 4 5 6 
#
# 1 0.021910 -0.010401 -0.003631 0.000000 0.000000 0.000000
# 2 -0.010401 0.020657 -0.006226 0.000000 0.000000 0.000000
# 3 -0.003631 -0.006226 0.019074 0.000000 0.000000 0.000000
# 4 0.000000 0.000000 0.000000 0.041031 0.000000 0.000000
# 5 0.000000 0.000000 0.000000 0.000000 0.071110 0.000000
# 6 0.000000 0.000000 0.000000 0.000000 0.000000 0.087449
#
#
# Mechanical properties :
#
#
# Convention : Reuss Voigt Hill
#
# Bulk Modulus (GPa) = 47.33398 48.53282 47.93340
# Shear Modulus (GPa) = 16.19236 17.60121 16.89678
#
# Velocity S-wave (km/s) = 3.50569 3.65502 3.58114
# Velocity P-wave (km/s) = 7.23275 7.39245 7.31304
#
# Compressibility (1/GPa) = 0.02112647
#
# Stress axis : x y z
#
# Youngs Moduli (GPa) = 45.64081 48.41054 52.42674
#
# Poissons Ratio (x) = 0.50352 0.19034
# Poissons Ratio (y) = 0.47471 0.32639
# Poissons Ratio (z) = 0.16571 0.30138
#
# Static dielectric constant tensor:
#      x y z
#    x 2.862470 0.000000 0.000000 
#    y 0.000000 2.629990 0.000000 
#    z 0.000000 0.000000 2.776280 
# 
# 
# High freq. dielectric constant tensor:
#      x y z
#    x 1.466500 0.000000 0.000000 
#    y 0.000000 1.481770 0.000000 
#    z 0.000000 0.000000 1.511140 
# 
# From -- ./inp_files/6683.got.cif
#   From: 2010.03.12/outbox.cif.g09.slc.cpg/sg63_4_cif.got.tgz:6683.got - 2010.04.10 19:34:48.
