data_PCOD8255993
_publ_section_title
;
Structure prediction by ZEFSAII (Michael W. Deem and Ramdas Pophale) SiO2 
 PCOD8255993
Probable space group: C M C M
;
_chemical_formula_sum "Si O2"
_cell_formula_units_Z 72
_cell_length_a 15.647826
_cell_length_b 28.882875
_cell_length_c 8.867988
_cell_angle_alpha 90.000000
_cell_angle_beta 90.000000
_cell_angle_gamma 90.000000
_cell_volume 4007.924443
_symmetry_space_group_name_H-M "C M C M"
_symmetry_group_IT_number 63
_symmetry_cell_setting 'orthorhombic'
loop_
_space_group_symop_operation_xyz
x,y,z
-x,-y,1/2+z
x,-y,-z
-x,y,1/2-z
-x,-y,-z
x,y,1/2-z
-x,y,z
x,-y,1/2+z
1/2+x,1/2+y,z
1/2-x,1/2-y,1/2+z
1/2+x,1/2-y,-z
1/2-x,1/2+y,1/2-z
1/2-x,1/2-y,-z
1/2+x,1/2+y,1/2-z
1/2-x,1/2+y,z
1/2+x,1/2-y,1/2+z
loop_
_atom_site_type_symbol
_atom_site_label
_atom_site_fract_x
_atom_site_fract_y
_atom_site_fract_z
Si Si1 0.903219 0.198436 0.427033
Si Si2 0.669534 0.548634 0.925133
Si Si3 0.745933 0.642300 0.924218
Si Si4 0.093827 0.303116 0.070598
Si Si5 0.000000 0.050731 0.429954
O O1 0.889795 0.194748 0.250000
O O2 0.837291 0.164472 0.503988
O O3 0.885982 0.250886 0.482674
O O4 0.000000 0.183357 0.469525
O O5 0.648899 0.539278 0.750000
O O6 0.744694 0.586480 0.945989
O O7 0.697221 0.500000 0.000000
O O8 0.587184 0.572664 0.005837
O O9 0.742843 0.655615 0.750000
O O10 0.833536 0.662574 0.995894
O O11 0.091947 0.304955 0.250000
O O12 0.000000 0.318300 0.009419
O O13 0.000000 0.052111 0.250000
O O14 0.000000 0.000000 0.500000
#
# Coordination Sequence:
#
# PCOD8255993 Si02
#       5
#    16  16  16  16   8
#     4   9  18  31  48  72 101 131 159 188 231 289
#     4  10  20  33  47  67  95 125 160 197 238 282
#     4  10  20  31  49  74  96 124 162 202 239 278
#     4   8  15  31  52  72  96 125 159 198 238 284
#     4  10  18  30  48  66  88 122 158 190 232 280
#
# _framework density 17.964410999999998
#
# number of rings (size 3 to 8) (size 9 to 14) (size 15 to 20)
#    0.000    2.667    0.000    5.000    1.556    2.222 
#    0.000    0.000    0.000    2.667    0.000    0.000 
#    0.000    0.000    0.000    0.000    0.000    0.889 
#
# Total GULP energy -446108.808947 kJ/mol
# GULP energy per Si atom -12391.911360 kJ/mol
# Density = 1.792352 g / cm^3
# Si number density = 17.964411 Si / 1000 Ang^3
#
#
#
# Elastic Constant Matrix: (Units=GPa)
#
#
# Indices 1 2 3 4 5 6 
#
# 1 114.4685 73.3008 31.8234 0.0000 0.0000 0.0000
# 2 73.3008 99.6368 33.5973 0.0000 0.0000 0.0000
# 3 31.8234 33.5973 65.7629 0.0000 0.0000 0.0000
# 4 0.0000 0.0000 0.0000 20.1200 0.0000 0.0000
# 5 0.0000 0.0000 0.0000 0.0000 16.9233 0.0000
# 6 0.0000 0.0000 0.0000 0.0000 0.0000 28.8156
#
#
#
# Elastic Compliance Matrix: (Units=1/GPa)
#
#
# Indices 1 2 3 4 5 6 
#
# 1 0.016774 -0.011602 -0.002190 0.000000 0.000000 0.000000
# 2 -0.011602 0.020150 -0.004680 0.000000 0.000000 0.000000
# 3 -0.002190 -0.004680 0.018657 0.000000 0.000000 0.000000
# 4 0.000000 0.000000 0.000000 0.049702 0.000000 0.000000
# 5 0.000000 0.000000 0.000000 0.000000 0.059090 0.000000
# 6 0.000000 0.000000 0.000000 0.000000 0.000000 0.034703
#
#
# Mechanical properties :
#
#
# Convention : Reuss Voigt Hill
#
# Bulk Modulus (GPa) = 53.65636 61.92347 57.78991
# Shear Modulus (GPa) = 20.64130 22.58156 21.61143
#
# Velocity S-wave (km/s) = 3.39338 3.54929 3.47221
# Velocity P-wave (km/s) = 6.72952 7.16530 6.95082
#
# Compressibility (1/GPa) = 0.01863712
#
# Stress axis : x y z
#
# Youngs Moduli (GPa) = 59.61473 49.62781 53.59980
#
# Poissons Ratio (x) = 0.57579 0.11738
# Poissons Ratio (y) = 0.69166 0.25084
# Poissons Ratio (z) = 0.13055 0.23226
#
# Static dielectric constant tensor:
#      x y z
#    x 4.001640 0.000000 0.000000 
#    y 0.000000 3.339940 0.000000 
#    z 0.000000 0.000000 3.119870 
# 
# 
# High freq. dielectric constant tensor:
#      x y z
#    x 1.684330 0.000000 0.000000 
#    y 0.000000 1.691690 0.000000 
#    z 0.000000 0.000000 1.675420 
# 
# From -- ./inp_files/4925.got.cif
#   From: 2010.03.12/outbox.cif.g09.slc.cpg/sg63_3_cif.got.tgz:4925.got - 2010.04.10 19:34:48.
