data_PCOD8255474
_publ_section_title
;
Structure prediction by ZEFSAII (Michael W. Deem and Ramdas Pophale) SiO2 
 PCOD8255474
Probable space group: C M C M
;
_chemical_formula_sum "Si O2"
_cell_formula_units_Z 80
_cell_length_a 18.324180
_cell_length_b 26.267454
_cell_length_c 8.713019
_cell_angle_alpha 90.000000
_cell_angle_beta 90.000000
_cell_angle_gamma 90.000000
_cell_volume 4193.833560
_symmetry_space_group_name_H-M "C M C M"
_symmetry_group_IT_number 63
_symmetry_cell_setting 'orthorhombic'
loop_
_space_group_symop_operation_xyz
x,y,z
-x,-y,1/2+z
x,-y,-z
-x,y,1/2-z
-x,-y,-z
x,y,1/2-z
-x,y,z
x,-y,1/2+z
1/2+x,1/2+y,z
1/2-x,1/2-y,1/2+z
1/2+x,1/2-y,-z
1/2-x,1/2+y,1/2-z
1/2-x,1/2-y,-z
1/2+x,1/2+y,1/2-z
1/2-x,1/2+y,z
1/2+x,1/2-y,1/2+z
loop_
_atom_site_type_symbol
_atom_site_label
_atom_site_fract_x
_atom_site_fract_y
_atom_site_fract_z
Si Si1 0.349492 0.550759 0.930804
Si Si2 0.916659 0.748209 0.428605
Si Si3 0.689809 0.951194 0.569887
Si Si4 0.149536 0.845633 0.568832
Si Si5 0.314331 0.840042 0.570410
O O1 0.358111 0.549892 0.750000
O O2 0.388332 0.500000 0.000000
O O3 0.265753 0.550239 0.981255
O O4 0.384402 0.602882 0.996073
O O5 0.899611 0.757922 0.250000
O O6 0.901846 0.799376 0.521809
O O7 0.866662 0.703109 0.500783
O O8 0.000000 0.731666 0.453214
O O9 0.703556 0.958889 0.750000
O O10 0.651666 0.896548 0.537347
O O11 0.645153 0.000000 0.500000
O O12 0.150767 0.852787 0.750000
O O13 0.231897 0.835504 0.505117
O O14 0.311470 0.830531 0.750000
#
# Coordination Sequence:
#
# PCOD8255474 Si02
#       5
#    16  16  16  16  16
#     4  10  17  27  45  71 101 128 157 193 237 285
#     4  10  20  34  51  70  94 126 164 204 246 291
#     4   9  15  25  42  67  98 127 157 195 240 286
#     4  10  19  32  50  72  99 128 161 200 240 285
#     4   8  16  30  48  71  97 126 161 200 240 284
#
# _framework density 19.075626
#
# number of rings (size 3 to 8) (size 9 to 14) (size 15 to 20)
#    0.000    2.600    0.000    6.000    0.000    0.400 
#    0.000    5.000    0.000    1.200    0.000    0.000 
#    0.000    0.000    0.000    0.000    0.000    7.200 
#
# Total GULP energy -495647.442821 kJ/mol
# GULP energy per Si atom -12391.186071 kJ/mol
# Density = 1.903221 g / cm^3
# Si number density = 19.075626 Si / 1000 Ang^3
#
#
#
# Elastic Constant Matrix: (Units=GPa)
#
#
# Indices 1 2 3 4 5 6 
#
# 1 31.0338 18.4312 12.1834 0.0000 0.0000 0.0000
# 2 18.4312 145.4023 36.9265 0.0000 0.0000 0.0000
# 3 12.1834 36.9265 86.9120 0.0000 0.0000 0.0000
# 4 0.0000 0.0000 0.0000 29.1946 0.0000 0.0000
# 5 0.0000 0.0000 0.0000 0.0000 12.1808 0.0000
# 6 0.0000 0.0000 0.0000 0.0000 0.0000 3.8440
#
#
#
# Elastic Compliance Matrix: (Units=1/GPa)
#
#
# Indices 1 2 3 4 5 6 
#
# 1 0.035751 -0.003653 -0.003459 0.000000 0.000000 0.000000
# 2 -0.003653 0.008083 -0.002922 0.000000 0.000000 0.000000
# 3 -0.003459 -0.002922 0.013232 0.000000 0.000000 0.000000
# 4 0.000000 0.000000 0.000000 0.034253 0.000000 0.000000
# 5 0.000000 0.000000 0.000000 0.000000 0.082096 0.000000
# 6 0.000000 0.000000 0.000000 0.000000 0.000000 0.260148
#
#
# Mechanical properties :
#
#
# Convention : Reuss Voigt Hill
#
# Bulk Modulus (GPa) = 27.02963 44.27005 35.64984
# Shear Modulus (GPa) = 10.73043 22.09767 16.41405
#
# Velocity S-wave (km/s) = 2.37432 3.40726 2.93656
# Velocity P-wave (km/s) = 4.66015 6.22392 5.49792
#
# Compressibility (1/GPa) = 0.03699644
#
# Stress axis : x y z
#
# Youngs Moduli (GPa) = 27.97147 123.72224 75.57267
#
# Poissons Ratio (x) = 0.45198 0.26144
# Poissons Ratio (y) = 0.10219 0.22082
# Poissons Ratio (z) = 0.09676 0.36151
#
# Static dielectric constant tensor:
#      x y z
#    x 3.049260 0.000000 0.000000 
#    y 0.000000 4.550220 0.000000 
#    z 0.000000 0.000000 3.364940 
# 
# 
# High freq. dielectric constant tensor:
#      x y z
#    x 1.674590 0.000000 0.000000 
#    y 0.000000 1.774180 0.000000 
#    z 0.000000 0.000000 1.729900 
# 
# From -- ./inp_files/6374.got.cif
#   From: 2010.03.12/outbox.cif.g09.slc.cpg/sg63_4_cif.got.tgz:6374.got - 2010.04.10 19:34:48.
