data_PCOD8255925
_publ_section_title
;
Structure prediction by ZEFSAII (Michael W. Deem and Ramdas Pophale) SiO2 
 PCOD8255925
Probable space group: C M C M
;
_chemical_formula_sum "Si O2"
_cell_formula_units_Z 80
_cell_length_a 16.409410
_cell_length_b 27.799081
_cell_length_c 9.360758
_cell_angle_alpha 90.000000
_cell_angle_beta 90.000000
_cell_angle_gamma 90.000000
_cell_volume 4270.064380
_symmetry_space_group_name_H-M "C M C M"
_symmetry_group_IT_number 63
_symmetry_cell_setting 'orthorhombic'
loop_
_space_group_symop_operation_xyz
x,y,z
-x,-y,1/2+z
x,-y,-z
-x,y,1/2-z
-x,-y,-z
x,y,1/2-z
-x,y,z
x,-y,1/2+z
1/2+x,1/2+y,z
1/2-x,1/2-y,1/2+z
1/2+x,1/2-y,-z
1/2-x,1/2+y,1/2-z
1/2-x,1/2-y,-z
1/2+x,1/2+y,1/2-z
1/2-x,1/2+y,z
1/2+x,1/2-y,1/2+z
loop_
_atom_site_type_symbol
_atom_site_label
_atom_site_fract_x
_atom_site_fract_y
_atom_site_fract_z
Si Si1 0.740959 0.632806 0.913215
Si Si2 0.649172 0.220667 0.584792
Si Si3 0.500000 0.838741 0.082324
Si Si4 0.681733 0.954529 0.585981
Si Si5 0.406776 0.309874 0.415851
Si Si6 0.000000 0.429566 0.906512
O O1 0.761299 0.617097 0.750000
O O2 0.772233 0.687428 0.940703
O O3 0.643023 0.639482 0.937242
O O4 0.782384 0.594455 0.018197
O O5 0.637494 0.234382 0.750000
O O6 0.577362 0.188247 0.521401
O O7 0.646055 0.269572 0.496737
O O8 0.500000 0.840182 0.250000
O O9 0.500000 0.892878 0.034061
O O10 0.711235 0.956625 0.750000
O O11 0.583426 0.959561 0.577770
O O12 0.718425 0.000000 0.500000
O O13 0.408209 0.295839 0.250000
O O14 0.500000 0.315288 0.473955
O O15 0.000000 0.404399 0.750000
#
# Coordination Sequence:
#
# PCOD8255925 Si02
#       6
#    16  16   8  16  16   8
#     4  10  21  37  55  77 107 142 180 221 266 315
#     4  10  19  32  51  76 107 145 183 217 258 308
#     4  10  18  29  49  76 109 148 179 211 258 303
#     4  11  23  38  57  81 108 139 175 216 263 314
#     4  10  21  35  53  78 108 142 179 222 269 314
#     4  10  21  35  53  80 110 142 178 213 253 305
#
# _framework density 18.735081000000001
#
# number of rings (size 3 to 8) (size 9 to 14) (size 15 to 20)
#    0.000    1.800    3.000    1.500    0.000    3.200 
#    0.000    0.000    0.000    0.600    0.000    0.000 
#    0.000    0.000    0.000    0.000    0.000    0.000 
#
# Total GULP energy -495576.150916 kJ/mol
# GULP energy per Si atom -12389.403773 kJ/mol
# Density = 1.869244 g / cm^3
# Si number density = 18.735081 Si / 1000 Ang^3
#
#
#
# Elastic Constant Matrix: (Units=GPa)
#
#
# Indices 1 2 3 4 5 6 
#
# 1 71.0179 42.3665 40.9304 0.0000 0.0000 0.0000
# 2 42.3665 74.8891 53.8421 0.0000 0.0000 0.0000
# 3 40.9304 53.8421 88.3518 0.0000 0.0000 0.0000
# 4 0.0000 0.0000 0.0000 32.5396 0.0000 0.0000
# 5 0.0000 0.0000 0.0000 0.0000 21.9162 0.0000
# 6 0.0000 0.0000 0.0000 0.0000 0.0000 17.3547
#
#
#
# Elastic Compliance Matrix: (Units=1/GPa)
#
#
# Indices 1 2 3 4 5 6 
#
# 1 0.022301 -0.009234 -0.004704 0.000000 0.000000 0.000000
# 2 -0.009234 0.027589 -0.012535 0.000000 0.000000 0.000000
# 3 -0.004704 -0.012535 0.021137 0.000000 0.000000 0.000000
# 4 0.000000 0.000000 0.000000 0.030732 0.000000 0.000000
# 5 0.000000 0.000000 0.000000 0.000000 0.045628 0.000000
# 6 0.000000 0.000000 0.000000 0.000000 0.000000 0.057621
#
#
# Mechanical properties :
#
#
# Convention : Reuss Voigt Hill
#
# Bulk Modulus (GPa) = 55.30920 56.50410 55.90665
# Shear Modulus (GPa) = 18.94070 20.83672 19.88871
#
# Velocity S-wave (km/s) = 3.18303 3.33855 3.26172
# Velocity P-wave (km/s) = 6.56466 6.71463 6.64007
#
# Compressibility (1/GPa) = 0.01808018
#
# Stress axis : x y z
#
# Youngs Moduli (GPa) = 44.84157 36.24573 47.31138
#
# Poissons Ratio (x) = 0.33470 0.22254
# Poissons Ratio (y) = 0.41408 0.59306
# Poissons Ratio (z) = 0.21092 0.45435
#
# Static dielectric constant tensor:
#      x y z
#    x 3.658700 0.000000 0.000000 
#    y 0.000000 3.113010 0.000000 
#    z 0.000000 0.000000 3.367960 
# 
# 
# High freq. dielectric constant tensor:
#      x y z
#    x 1.727970 0.000000 0.000000 
#    y 0.000000 1.701740 0.000000 
#    z 0.000000 0.000000 1.726740 
# 
# From -- ./inp_files/6467.got.cif
#   From: 2010.03.12/outbox.cif.g09.slc.cpg/sg63_4_cif.got.tgz:6467.got - 2010.04.10 19:34:48.
