data_PCOD8255360
_publ_section_title
;
Structure prediction by ZEFSAII (Michael W. Deem and Ramdas Pophale) SiO2 
 PCOD8255360
Probable space group: C M C M
;
_chemical_formula_sum "Si O2"
_cell_formula_units_Z 112
_cell_length_a 22.436878
_cell_length_b 17.170088
_cell_length_c 17.896363
_cell_angle_alpha 90.000000
_cell_angle_beta 90.000000
_cell_angle_gamma 90.000000
_cell_volume 6894.451608
_symmetry_space_group_name_H-M "C M C M"
_symmetry_group_IT_number 63
_symmetry_cell_setting 'orthorhombic'
loop_
_space_group_symop_operation_xyz
x,y,z
-x,-y,1/2+z
x,-y,-z
-x,y,1/2-z
-x,-y,-z
x,y,1/2-z
-x,y,z
x,-y,1/2+z
1/2+x,1/2+y,z
1/2-x,1/2-y,1/2+z
1/2+x,1/2-y,-z
1/2-x,1/2+y,1/2-z
1/2-x,1/2-y,-z
1/2+x,1/2+y,1/2-z
1/2-x,1/2+y,z
1/2+x,1/2-y,1/2+z
loop_
_atom_site_type_symbol
_atom_site_label
_atom_site_fract_x
_atom_site_fract_y
_atom_site_fract_z
Si Si1 0.154171 0.986914 0.662339
Si Si2 0.699681 0.112360 0.058196
Si Si3 0.155677 0.775278 0.426310
Si Si4 0.672661 0.667102 0.089623
Si Si5 0.778009 0.454163 0.103700
Si Si6 0.067592 0.126372 0.836605
Si Si7 0.724694 0.199039 0.666257
O O1 0.170096 0.979940 0.750000
O O2 0.209604 0.020960 0.616255
O O3 0.098783 0.043722 0.648070
O O4 0.135405 0.902369 0.628829
O O5 0.650633 0.181123 0.062903
O O6 0.758120 0.145865 0.097237
O O7 0.681068 0.032797 0.102724
O O8 0.716282 0.090692 0.974319
O O9 0.151268 0.818509 0.505743
O O10 0.099331 0.802700 0.378984
O O11 0.216999 0.798747 0.386158
O O12 0.670113 0.747544 0.136872
O O13 0.798107 0.391272 0.165751
O O14 0.070547 0.147837 0.750000
O O15 0.000000 0.119712 0.865233
O O16 0.742433 0.223086 0.750000
#
# Coordination Sequence:
#
# PCOD8255360 Si02
#       7
#    16  16  16  16  16  16  16
#     4  10  19  31  45  65  96 131 163 200 241 277
#     4   9  17  27  44  67  94 125 158 187 231 277
#     4  11  18  32  47  67  93 129 160 197 240 281
#     4  10  18  29  44  67  94 128 164 191 227 285
#     4  10  16  27  45  68  95 128 158 187 226 286
#     4  10  21  36  53  70  90 122 164 206 245 281
#     4  11  18  27  44  68  98 129 159 190 232 285
#
# _framework density 16.244947
#
# number of rings (size 3 to 8) (size 9 to 14) (size 15 to 20)
#    0.000    1.857    4.286    2.143    0.000    0.571 
#    0.000    3.571    0.000    0.000    0.000    2.000 
#    0.000    0.000    0.000    1.000    0.000    0.000 
#
# Total GULP energy -693931.927247 kJ/mol
# GULP energy per Si atom -12391.641558 kJ/mol
# Density = 1.620797 g / cm^3
# Si number density = 16.244947 Si / 1000 Ang^3
#
#
#
# Elastic Constant Matrix: (Units=GPa)
#
#
# Indices 1 2 3 4 5 6 
#
# 1 57.7818 50.1647 28.9058 0.0000 0.0000 0.0000
# 2 50.1647 141.5654 49.5602 0.0000 0.0000 0.0000
# 3 28.9058 49.5602 80.9976 0.0000 0.0000 0.0000
# 4 0.0000 0.0000 0.0000 27.9867 0.0000 0.0000
# 5 0.0000 0.0000 0.0000 0.0000 14.0353 0.0000
# 6 0.0000 0.0000 0.0000 0.0000 0.0000 13.2833
#
#
#
# Elastic Compliance Matrix: (Units=1/GPa)
#
#
# Indices 1 2 3 4 5 6 
#
# 1 0.026327 -0.007686 -0.004692 0.000000 0.000000 0.000000
# 2 -0.007686 0.011234 -0.004130 0.000000 0.000000 0.000000
# 3 -0.004692 -0.004130 0.016548 0.000000 0.000000 0.000000
# 4 0.000000 0.000000 0.000000 0.035731 0.000000 0.000000
# 5 0.000000 0.000000 0.000000 0.000000 0.071249 0.000000
# 6 0.000000 0.000000 0.000000 0.000000 0.000000 0.075283
#
#
# Mechanical properties :
#
#
# Convention : Reuss Voigt Hill
#
# Bulk Modulus (GPa) = 47.41541 59.73403 53.57472
# Shear Modulus (GPa) = 18.08841 21.17531 19.63186
#
# Velocity S-wave (km/s) = 3.34050 3.61432 3.48011
# Velocity P-wave (km/s) = 6.64302 7.36671 7.01421
#
# Compressibility (1/GPa) = 0.02109019
#
# Stress axis : x y z
#
# Youngs Moduli (GPa) = 37.98369 89.01814 60.43064
#
# Poissons Ratio (x) = 0.68424 0.28356
# Poissons Ratio (y) = 0.29196 0.24961
# Poissons Ratio (z) = 0.17823 0.36769
#
# Static dielectric constant tensor:
#      x y z
#    x 2.545480 0.000000 0.000000 
#    y 0.000000 3.785520 0.000000 
#    z 0.000000 0.000000 3.126590 
# 
# 
# High freq. dielectric constant tensor:
#      x y z
#    x 1.541250 0.000000 0.000000 
#    y 0.000000 1.652070 0.000000 
#    z 0.000000 0.000000 1.633470 
# 
# From -- ./inp_files/48338.got.cif
#   From: 2010.03.12/outbox.cif.g09.slc.cpg/sg63_25_cif.got.tgz:48338.got - 2010.04.10 19:34:48.
