data_PCOD8255635
_publ_section_title
;
Structure prediction by ZEFSAII (Michael W. Deem and Ramdas Pophale) SiO2 
 PCOD8255635
Probable space group: C M C M
;
_chemical_formula_sum "Si O2"
_cell_formula_units_Z 112
_cell_length_a 24.942882
_cell_length_b 14.328836
_cell_length_c 18.223818
_cell_angle_alpha 90.000000
_cell_angle_beta 90.000000
_cell_angle_gamma 90.000000
_cell_volume 6513.237485
_symmetry_space_group_name_H-M "C M C M"
_symmetry_group_IT_number 63
_symmetry_cell_setting 'orthorhombic'
loop_
_space_group_symop_operation_xyz
x,y,z
-x,-y,1/2+z
x,-y,-z
-x,y,1/2-z
-x,-y,-z
x,y,1/2-z
-x,y,z
x,-y,1/2+z
1/2+x,1/2+y,z
1/2-x,1/2-y,1/2+z
1/2+x,1/2-y,-z
1/2-x,1/2+y,1/2-z
1/2-x,1/2-y,-z
1/2+x,1/2+y,1/2-z
1/2-x,1/2+y,z
1/2+x,1/2-y,1/2+z
loop_
_atom_site_type_symbol
_atom_site_label
_atom_site_fract_x
_atom_site_fract_y
_atom_site_fract_z
Si Si1 0.057975 0.396650 0.386180
Si Si2 0.668580 0.267469 0.519762
Si Si3 0.239551 0.601248 0.469752
Si Si4 0.164474 0.676929 0.832270
Si Si5 0.086014 0.592159 0.333765
Si Si6 0.705792 0.976339 0.830646
Si Si7 0.560805 0.208460 0.469424
O O1 0.101789 0.349707 0.333931
O O2 0.055443 0.506435 0.371424
O O3 0.069308 0.376786 0.472749
O O4 0.000000 0.353882 0.365288
O O5 0.704840 0.356946 0.498113
O O6 0.690843 0.172837 0.482730
O O7 0.675128 0.256991 0.608003
O O8 0.607206 0.283746 0.492780
O O9 0.224230 0.500000 0.500000
O O10 0.245480 0.581145 0.382932
O O11 0.178360 0.711903 0.750000
O O12 0.199496 0.585410 0.853214
O O13 0.065929 0.609800 0.250000
O O14 0.148822 0.574193 0.333490
O O15 0.071170 0.679750 0.385205
O O16 0.730927 0.970386 0.750000
O O17 0.500000 0.249820 0.475923
#
# Coordination Sequence:
#
# PCOD8255635 Si02
#       7
#    16  16  16  16  16  16  16
#     4   9  17  26  39  62  92 129 165 194 228 281
#     4  10  21  33  51  75  95 128 169 201 247 291
#     4  11  20  34  54  72  96 129 165 208 245 292
#     4   9  17  29  45  67  97 128 158 195 237 290
#     4  10  18  26  39  64  97 130 164 194 231 293
#     4   9  17  29  46  68  98 131 157 195 245 290
#     4  10  19  31  46  65  96 129 161 203 244 288
#
# _framework density 17.19575
#
# number of rings (size 3 to 8) (size 9 to 14) (size 15 to 20)
#    0.000    2.286    2.857    2.143    0.000    3.714 
#    0.000    0.000    0.000    1.286    0.000    0.000 
#    0.000    0.000    0.000    0.143    0.000    0.000 
#
# Total GULP energy -693816.389154 kJ/mol
# GULP energy per Si atom -12389.578378 kJ/mol
# Density = 1.715661 g / cm^3
# Si number density = 17.195750 Si / 1000 Ang^3
#
#
#
# Elastic Constant Matrix: (Units=GPa)
#
#
# Indices 1 2 3 4 5 6 
#
# 1 66.5872 13.6373 3.6936 0.0000 0.0000 0.0000
# 2 13.6373 30.4305 4.5838 0.0000 0.0000 0.0000
# 3 3.6936 4.5838 77.9122 0.0000 0.0000 0.0000
# 4 0.0000 0.0000 0.0000 9.3811 0.0000 0.0000
# 5 0.0000 0.0000 0.0000 0.0000 14.7681 0.0000
# 6 0.0000 0.0000 0.0000 0.0000 0.0000 13.5490
#
#
#
# Elastic Compliance Matrix: (Units=1/GPa)
#
#
# Indices 1 2 3 4 5 6 
#
# 1 0.016545 -0.007362 -0.000351 0.000000 0.000000 0.000000
# 2 -0.007362 0.036431 -0.001794 0.000000 0.000000 0.000000
# 3 -0.000351 -0.001794 0.012957 0.000000 0.000000 0.000000
# 4 0.000000 0.000000 0.000000 0.106597 0.000000 0.000000
# 5 0.000000 0.000000 0.000000 0.000000 0.067714 0.000000
# 6 0.000000 0.000000 0.000000 0.000000 0.000000 0.073806
#
#
# Mechanical properties :
#
#
# Convention : Reuss Voigt Hill
#
# Bulk Modulus (GPa) = 21.31343 24.30660 22.81002
# Shear Modulus (GPa) = 14.33879 17.74065 16.03972
#
# Velocity S-wave (km/s) = 2.89079 3.21547 3.05745
# Velocity P-wave (km/s) = 4.85425 5.28693 5.07520
#
# Compressibility (1/GPa) = 0.04691878
#
# Stress axis : x y z
#
# Youngs Moduli (GPa) = 60.44089 27.44905 77.17725
#
# Poissons Ratio (x) = 0.20207 0.02711
# Poissons Ratio (y) = 0.44495 0.13848
# Poissons Ratio (z) = 0.02123 0.04925
#
# Static dielectric constant tensor:
#      x y z
#    x 3.159350 0.000000 0.000000 
#    y 0.000000 2.685110 0.000000 
#    z 0.000000 0.000000 3.474080 
# 
# 
# High freq. dielectric constant tensor:
#      x y z
#    x 1.655130 0.000000 0.000000 
#    y 0.000000 1.593340 0.000000 
#    z 0.000000 0.000000 1.678750 
# 
# From -- ./inp_files/58304.got.cif
#   From: 2010.03.12/outbox.cif.g09.slc.cpg/sg63_30_cif.got.tgz:58304.got - 2010.04.10 19:34:48.
