data_PCOD8255938
_publ_section_title
;
Structure prediction by ZEFSAII (Michael W. Deem and Ramdas Pophale) SiO2 
 PCOD8255938
Probable space group: C M C M
;
_chemical_formula_sum "Si O2"
_cell_formula_units_Z 112
_cell_length_a 20.637505
_cell_length_b 18.940614
_cell_length_c 17.727526
_cell_angle_alpha 90.000000
_cell_angle_beta 90.000000
_cell_angle_gamma 90.000000
_cell_volume 6929.459741
_symmetry_space_group_name_H-M "C M C M"
_symmetry_group_IT_number 63
_symmetry_cell_setting 'orthorhombic'
loop_
_space_group_symop_operation_xyz
x,y,z
-x,-y,1/2+z
x,-y,-z
-x,y,1/2-z
-x,-y,-z
x,y,1/2-z
-x,y,z
x,-y,1/2+z
1/2+x,1/2+y,z
1/2-x,1/2-y,1/2+z
1/2+x,1/2-y,-z
1/2-x,1/2+y,1/2-z
1/2-x,1/2-y,-z
1/2+x,1/2+y,1/2-z
1/2-x,1/2+y,z
1/2+x,1/2-y,1/2+z
loop_
_atom_site_type_symbol
_atom_site_label
_atom_site_fract_x
_atom_site_fract_y
_atom_site_fract_z
Si Si1 0.723599 0.594522 0.569857
Si Si2 0.679725 0.739854 0.539766
Si Si3 0.196997 0.942335 0.599371
Si Si4 0.072348 0.740178 0.585722
Si Si5 0.678422 0.174937 0.835516
Si Si6 0.764406 0.686944 0.166706
Si Si7 0.928268 0.888771 0.836995
O O1 0.674008 0.660769 0.575381
O O2 0.703980 0.525434 0.617809
O O3 0.727329 0.574729 0.481977
O O4 0.791152 0.619541 0.605793
O O5 0.750000 0.750000 0.500000
O O6 0.618400 0.751214 0.486866
O O7 0.677648 0.797179 0.607588
O O8 0.233781 0.890776 0.657100
O O9 0.120114 0.929854 0.607152
O O10 0.103277 0.680381 0.639944
O O11 0.068936 0.808875 0.636687
O O12 0.000000 0.717821 0.559678
O O13 0.685432 0.147240 0.750000
O O14 0.709279 0.253214 0.845041
O O15 0.794325 0.691183 0.250000
O O16 0.904427 0.892020 0.750000
O O17 0.000000 0.922763 0.844549
#
# Coordination Sequence:
#
# PCOD8255938 Si02
#       7
#    16  16  16  16  16  16  16
#     4  10  20  30  47  72  97 132 167 204 250 290
#     4  11  16  34  52  68 101 136 163 207 248 298
#     4  11  18  30  47  71 101 128 169 213 249 295
#     4  11  19  29  51  79 101 131 168 208 252 303
#     4  10  18  31  47  70 101 132 160 203 255 303
#     4  10  18  29  51  72  94 130 170 208 253 294
#     4  10  19  30  45  68 100 138 173 204 248 306
#
# _framework density 16.162877000000002
#
# number of rings (size 3 to 8) (size 9 to 14) (size 15 to 20)
#    0.000    1.571    7.143    0.857    0.000    2.000 
#    0.000    2.143    0.000    0.429    0.000    8.000 
#    0.000    0.000    0.000    0.000    0.000    0.000 
#
# Total GULP energy -693768.546082 kJ/mol
# GULP energy per Si atom -12388.724037 kJ/mol
# Density = 1.612609 g / cm^3
# Si number density = 16.162877 Si / 1000 Ang^3
#
#
#
# Elastic Constant Matrix: (Units=GPa)
#
#
# Indices 1 2 3 4 5 6 
#
# 1 100.5304 35.5918 51.6247 0.0000 0.0000 0.0000
# 2 35.5918 76.5453 35.2706 0.0000 0.0000 0.0000
# 3 51.6247 35.2706 100.8260 0.0000 0.0000 0.0000
# 4 0.0000 0.0000 0.0000 16.6261 0.0000 0.0000
# 5 0.0000 0.0000 0.0000 0.0000 19.2309 0.0000
# 6 0.0000 0.0000 0.0000 0.0000 0.0000 14.2288
#
#
#
# Elastic Compliance Matrix: (Units=1/GPa)
#
#
# Indices 1 2 3 4 5 6 
#
# 1 0.014428 -0.003940 -0.006009 0.000000 0.000000 0.000000
# 2 -0.003940 0.016650 -0.003807 0.000000 0.000000 0.000000
# 3 -0.006009 -0.003807 0.014327 0.000000 0.000000 0.000000
# 4 0.000000 0.000000 0.000000 0.060146 0.000000 0.000000
# 5 0.000000 0.000000 0.000000 0.000000 0.052000 0.000000
# 6 0.000000 0.000000 0.000000 0.000000 0.000000 0.070280
#
#
# Mechanical properties :
#
#
# Convention : Reuss Voigt Hill
#
# Bulk Modulus (GPa) = 55.88925 58.09733 56.99329
# Shear Modulus (GPa) = 19.13453 20.37813 19.75633
#
# Velocity S-wave (km/s) = 3.44445 3.55462 3.49997
# Velocity P-wave (km/s) = 7.10443 7.27118 7.18829
#
# Compressibility (1/GPa) = 0.01789253
#
# Stress axis : x y z
#
# Youngs Moduli (GPa) = 69.31008 60.05852 69.79952
#
# Poissons Ratio (x) = 0.23662 0.41944
# Poissons Ratio (y) = 0.27306 0.26575
# Poissons Ratio (z) = 0.41649 0.22867
#
# Static dielectric constant tensor:
#      x y z
#    x 3.067140 0.000000 0.000000 
#    y 0.000000 3.210060 0.000000 
#    z 0.000000 0.000000 3.216800 
# 
# 
# High freq. dielectric constant tensor:
#      x y z
#    x 1.586540 0.000000 0.000000 
#    y 0.000000 1.603950 0.000000 
#    z 0.000000 0.000000 1.630290 
# 
# From -- ./inp_files/47324.got.cif
#   From: 2010.03.12/outbox.cif.g09.slc.cpg/sg63_24_cif.got.tgz:47324.got - 2010.04.10 19:34:48.
