data_PCOD8255781
_publ_section_title
;
Structure prediction by ZEFSAII (Michael W. Deem and Ramdas Pophale) SiO2 
 PCOD8255781
Probable space group: C M C M
;
_chemical_formula_sum "Si O2"
_cell_formula_units_Z 80
_cell_length_a 8.952912
_cell_length_b 20.167531
_cell_length_c 25.554071
_cell_angle_alpha 90.000000
_cell_angle_beta 90.000000
_cell_angle_gamma 90.000000
_cell_volume 4613.995281
_symmetry_space_group_name_H-M "C M C M"
_symmetry_group_IT_number 63
_symmetry_cell_setting 'orthorhombic'
loop_
_space_group_symop_operation_xyz
x,y,z
-x,-y,1/2+z
x,-y,-z
-x,y,1/2-z
-x,-y,-z
x,y,1/2-z
-x,y,z
x,-y,1/2+z
1/2+x,1/2+y,z
1/2-x,1/2-y,1/2+z
1/2+x,1/2-y,-z
1/2-x,1/2+y,1/2-z
1/2-x,1/2-y,-z
1/2+x,1/2+y,1/2-z
1/2-x,1/2+y,z
1/2+x,1/2-y,1/2+z
loop_
_atom_site_type_symbol
_atom_site_label
_atom_site_fract_x
_atom_site_fract_y
_atom_site_fract_z
Si Si1 0.676478 0.819467 0.440602
Si Si2 0.177023 0.578019 0.144802
Si Si3 0.175285 0.076723 0.250000
Si Si4 0.329649 0.059618 0.750000
Si Si5 0.824959 0.683511 0.059538
Si Si6 0.327934 0.071569 0.863274
O O1 0.500000 0.814544 0.433461
O O2 0.744210 0.750095 0.421611
O O3 0.722039 0.834942 0.500358
O O4 0.747365 0.877892 0.404446
O O5 0.252637 0.607647 0.197330
O O6 0.226560 0.623253 0.096228
O O7 0.237062 0.503247 0.133255
O O8 0.000000 0.577998 0.153172
O O9 0.000000 0.090345 0.250000
O O10 0.210705 0.998987 0.250000
O O11 0.500000 0.030193 0.750000
O O12 0.306022 0.100669 0.803845
O O13 0.000000 0.696308 0.063599
O O14 0.500000 0.067289 0.878809
#
# Coordination Sequence:
#
# PCOD8255781 Si02
#       6
#    16  16   8   8  16  16
#     4   9  17  30  47  67  92 121 154 192 230 267
#     4   9  17  31  49  67  90 120 153 187 224 270
#     4  10  18  28  45  70  95 117 145 183 229 274
#     4   8  14  28  47  66  91 121 149 179 223 272
#     4   9  18  31  47  66  90 123 156 186 227 275
#     4   8  14  26  47  70  89 115 151 188 222 259
#
# _framework density 17.338552
#
# number of rings (size 3 to 8) (size 9 to 14) (size 15 to 20)
#    0.000    3.200    0.000    2.100    0.000    1.600 
#    0.000    9.000    0.000    1.200    0.000   11.200 
#    0.000    0.000    0.000    0.000    0.000    0.000 
#
# Total GULP energy -495660.132935 kJ/mol
# GULP energy per Si atom -12391.503323 kJ/mol
# Density = 1.729909 g / cm^3
# Si number density = 17.338552 Si / 1000 Ang^3
#
#
#
# Elastic Constant Matrix: (Units=GPa)
#
#
# Indices 1 2 3 4 5 6 
#
# 1 30.3824 22.9886 28.8903 0.0000 0.0000 0.0000
# 2 22.9886 107.6090 89.8869 0.0000 0.0000 0.0000
# 3 28.8903 89.8869 142.6095 0.0000 0.0000 0.0000
# 4 0.0000 0.0000 0.0000 19.1962 0.0000 0.0000
# 5 0.0000 0.0000 0.0000 0.0000 17.3844 0.0000
# 6 0.0000 0.0000 0.0000 0.0000 0.0000 21.0602
#
#
#
# Elastic Compliance Matrix: (Units=1/GPa)
#
#
# Indices 1 2 3 4 5 6 
#
# 1 0.041526 -0.003895 -0.005958 0.000000 0.000000 0.000000
# 2 -0.003895 0.019991 -0.011811 0.000000 0.000000 0.000000
# 3 -0.005958 -0.011811 0.015664 0.000000 0.000000 0.000000
# 4 0.000000 0.000000 0.000000 0.052094 0.000000 0.000000
# 5 0.000000 0.000000 0.000000 0.000000 0.057523 0.000000
# 6 0.000000 0.000000 0.000000 0.000000 0.000000 0.047483
#
#
# Mechanical properties :
#
#
# Convention : Reuss Voigt Hill
#
# Bulk Modulus (GPa) = 29.53933 62.68138 46.11035
# Shear Modulus (GPa) = 17.30752 20.78384 19.04568
#
# Velocity S-wave (km/s) = 3.16287 3.46599 3.31790
# Velocity P-wave (km/s) = 5.51472 7.22824 6.42882
#
# Compressibility (1/GPa) = 0.03385317
#
# Stress axis : x y z
#
# Youngs Moduli (GPa) = 24.08149 50.02211 63.84142
#
# Poissons Ratio (x) = 0.19483 0.38034
# Poissons Ratio (y) = 0.09379 0.75406
# Poissons Ratio (z) = 0.14347 0.59083
#
# Static dielectric constant tensor:
#      x y z
#    x 2.911100 0.000000 0.000000 
#    y 0.000000 3.176170 0.000000 
#    z 0.000000 0.000000 3.622850 
# 
# 
# High freq. dielectric constant tensor:
#      x y z
#    x 1.638280 0.000000 0.000000 
#    y 0.000000 1.642580 0.000000 
#    z 0.000000 0.000000 1.684830 
# 
# From -- ./inp_files/59558.got.cif
#   From: 2010.03.12/outbox.cif.g09.slc.cpg/sg63_30_cif.got.tgz:59558.got - 2010.04.10 19:34:48.
