data_PCOD8255248
_publ_section_title
;
Structure prediction by ZEFSAII (Michael W. Deem and Ramdas Pophale) SiO2 
 PCOD8255248
Probable space group: P N M A
;
_chemical_formula_sum "Si O2"
_cell_formula_units_Z 40
_cell_length_a 22.559464
_cell_length_b 16.465515
_cell_length_c 5.003834
_cell_angle_alpha 90.000000
_cell_angle_beta 90.000000
_cell_angle_gamma 90.000000
_cell_volume 1858.690116
_symmetry_space_group_name_H-M "P N M A"
_symmetry_group_IT_number 62
_symmetry_cell_setting 'orthorhombic'
loop_
_space_group_symop_operation_xyz
x,y,z
1/2-x,-y,1/2+z
1/2+x,1/2-y,1/2-z
-x,1/2+y,-z
-x,-y,-z
1/2+x,y,1/2-z
1/2-x,1/2+y,1/2+z
x,1/2-y,z
loop_
_atom_site_type_symbol
_atom_site_label
_atom_site_fract_x
_atom_site_fract_y
_atom_site_fract_z
Si Si1 0.079263 0.407801 0.715920
Si Si2 0.949842 0.156446 0.748581
Si Si3 0.857208 0.843056 0.790323
Si Si4 0.388243 0.408804 0.252693
Si Si5 0.743644 0.554301 0.721656
O O1 0.103383 0.392158 0.420207
O O2 0.092256 0.499166 0.804813
O O3 0.009268 0.395012 0.715267
O O4 0.110971 0.347592 0.923431
O O5 0.963554 0.250000 0.686450
O O6 0.901470 0.120285 0.546412
O O7 0.924013 0.148577 0.045404
O O8 0.851595 0.750000 0.701872
O O9 0.792104 0.880890 0.814352
O O10 0.318436 0.399119 0.305690
O O11 0.762633 0.517471 0.437451
#
# Coordination Sequence:
#
# PCOD8255248 Si02
#       5
#     8   8   8   8   8
#     4  12  24  45  70  97 134 177 226 273 327 398
#     4  12  26  43  65 101 140 175 217 277 336 389
#     4  12  24  41  69 103 132 172 224 280 335 382
#     4  12  24  44  72  96 132 180 229 264 330 403
#     4  12  23  45  69  95 134 174 220 274 327 396
#
# _framework density 21.520531999999999
#
# number of rings (size 3 to 8) (size 9 to 14) (size 15 to 20)
#    0.000    0.000    4.000    7.200    0.000    1.600 
#    0.000    0.000    0.000    0.000    0.000    0.000 
#    0.000    0.000    0.000    0.000    0.000    0.000 
#
# Total GULP energy -496481.758141 kJ/mol
# GULP energy per Si atom -12412.043954 kJ/mol
# Density = 2.147155 g / cm^3
# Si number density = 21.520532 Si / 1000 Ang^3
#
#
#
# Elastic Constant Matrix: (Units=GPa)
#
#
# Indices 1 2 3 4 5 6 
#
# 1 105.5729 17.6174 18.5205 0.0000 0.0000 0.0000
# 2 17.6174 64.1825 14.5198 0.0000 0.0000 0.0000
# 3 18.5205 14.5198 87.9785 0.0000 0.0000 0.0000
# 4 0.0000 0.0000 0.0000 36.9552 0.0000 0.0000
# 5 0.0000 0.0000 0.0000 0.0000 35.5402 0.0000
# 6 0.0000 0.0000 0.0000 0.0000 0.0000 16.5127
#
#
#
# Elastic Compliance Matrix: (Units=1/GPa)
#
#
# Indices 1 2 3 4 5 6 
#
# 1 0.010179 -0.002399 -0.001747 0.000000 0.000000 0.000000
# 2 -0.002399 0.016750 -0.002259 0.000000 0.000000 0.000000
# 3 -0.001747 -0.002259 0.012107 0.000000 0.000000 0.000000
# 4 0.000000 0.000000 0.000000 0.027060 0.000000 0.000000
# 5 0.000000 0.000000 0.000000 0.000000 0.028137 0.000000
# 6 0.000000 0.000000 0.000000 0.000000 0.000000 0.060559
#
#
# Mechanical properties :
#
#
# Convention : Reuss Voigt Hill
#
# Bulk Modulus (GPa) = 38.13033 39.89437 39.01235
# Shear Modulus (GPa) = 28.35357 31.60670 29.98014
#
# Velocity S-wave (km/s) = 3.63369 3.83649 3.73647
# Velocity P-wave (km/s) = 5.94656 6.18085 6.06484
#
# Compressibility (1/GPa) = 0.02622584
#
# Stress axis : x y z
#
# Youngs Moduli (GPa) = 98.24267 59.70095 82.59650
#
# Poissons Ratio (x) = 0.14321 0.14429
# Poissons Ratio (y) = 0.23566 0.18662
# Poissons Ratio (z) = 0.17162 0.13489
#
# Static dielectric constant tensor:
#      x y z
#    x 3.956240 0.000000 0.000000 
#    y 0.000000 3.742450 0.000000 
#    z 0.000000 0.000000 3.925890 
# 
# 
# High freq. dielectric constant tensor:
#      x y z
#    x 1.859130 0.000000 0.000000 
#    y 0.000000 1.841820 0.000000 
#    z 0.000000 0.000000 1.859110 
# 
# From -- ./inp_files/2134.got.cif
#   From: 2010.03.12/outbox.cif.g09.slc.cpg/sg62_2_cif.got.tgz:2134.got - 2010.04.10 19:12:36.
