data_PCOD8255263
_publ_section_title
;
Structure prediction by ZEFSAII (Michael W. Deem and Ramdas Pophale) SiO2 
 PCOD8255263
Probable space group: P N M A
;
_chemical_formula_sum "Si O2"
_cell_formula_units_Z 40
_cell_length_a 8.760203
_cell_length_b 10.437352
_cell_length_c 19.681213
_cell_angle_alpha 90.000000
_cell_angle_beta 90.000000
_cell_angle_gamma 90.000000
_cell_volume 1799.518692
_symmetry_space_group_name_H-M "P N M A"
_symmetry_group_IT_number 62
_symmetry_cell_setting 'orthorhombic'
loop_
_space_group_symop_operation_xyz
x,y,z
1/2-x,-y,1/2+z
1/2+x,1/2-y,1/2-z
-x,1/2+y,-z
-x,-y,-z
1/2+x,y,1/2-z
1/2-x,1/2+y,1/2+z
x,1/2-y,z
loop_
_atom_site_type_symbol
_atom_site_label
_atom_site_fract_x
_atom_site_fract_y
_atom_site_fract_z
Si Si1 0.431102 0.014127 0.316808
Si Si2 0.087687 0.990153 0.570040
Si Si3 0.438951 0.250000 0.712431
Si Si4 0.610874 0.250000 0.846884
Si Si5 0.926188 0.604651 0.950761
Si Si6 0.895413 0.606980 0.687170
O O1 0.489737 0.100138 0.378563
O O2 0.247717 0.011199 0.314001
O O3 0.489921 0.070776 0.246584
O O4 0.488831 0.870311 0.326357
O O5 0.107244 0.127861 0.604748
O O6 0.248969 0.924361 0.557787
O O7 0.000000 0.000000 0.500000
O O8 0.988205 0.898515 0.617457
O O9 0.469816 0.250000 0.793801
O O10 0.257932 0.250000 0.701732
O O11 0.946636 0.750000 0.979277
O O12 0.000000 0.500000 0.000000
O O13 0.832160 0.750000 0.697540
#
# Coordination Sequence:
#
# PCOD8255263 Si02
#       6
#     8   8   4   4   8   8
#     4  12  25  46  73 105 147 188 248 311 380 455
#     4  12  28  48  72 107 149 196 248 311 382 457
#     4  12  24  48  74 114 148 191 253 314 394 448
#     4  12  26  48  80 110 156 197 257 326 384 470
#     4  12  28  50  75 106 146 199 249 316 382 458
#     4  12  25  45  72 104 143 195 240 311 372 457
#
# _framework density 22.228165000000001
#
# number of rings (size 3 to 8) (size 9 to 14) (size 15 to 20)
#    0.000    0.000    4.000    6.000    5.600    0.000 
#    0.000    0.000    0.000    0.000    0.000    0.000 
#    0.000    0.000    0.000    0.000    0.000    0.000 
#
# Total GULP energy -496296.951741 kJ/mol
# GULP energy per Si atom -12407.423794 kJ/mol
# Density = 2.217757 g / cm^3
# Si number density = 22.228165 Si / 1000 Ang^3
#
#
#
# Elastic Constant Matrix: (Units=GPa)
#
#
# Indices 1 2 3 4 5 6 
#
# 1 148.0358 28.9678 77.4277 0.0000 0.0000 0.0000
# 2 28.9678 153.2066 40.9478 0.0000 0.0000 0.0000
# 3 77.4277 40.9478 147.5386 0.0000 0.0000 0.0000
# 4 0.0000 0.0000 0.0000 38.8344 0.0000 0.0000
# 5 0.0000 0.0000 0.0000 0.0000 46.1486 0.0000
# 6 0.0000 0.0000 0.0000 0.0000 0.0000 33.7104
#
#
#
# Elastic Compliance Matrix: (Units=1/GPa)
#
#
# Indices 1 2 3 4 5 6 
#
# 1 0.009345 -0.000493 -0.004768 0.000000 0.000000 0.000000
# 2 -0.000493 0.007076 -0.001705 0.000000 0.000000 0.000000
# 3 -0.004768 -0.001705 0.009753 0.000000 0.000000 0.000000
# 4 0.000000 0.000000 0.000000 0.025750 0.000000 0.000000
# 5 0.000000 0.000000 0.000000 0.000000 0.021669 0.000000
# 6 0.000000 0.000000 0.000000 0.000000 0.000000 0.029664
#
#
# Mechanical properties :
#
#
# Convention : Reuss Voigt Hill
#
# Bulk Modulus (GPa) = 81.67783 82.60753 82.14268
# Shear Modulus (GPa) = 41.23014 43.83453 42.53234
#
# Velocity S-wave (km/s) = 4.31148 4.44557 4.37904
# Velocity P-wave (km/s) = 7.84921 7.97464 7.91217
#
# Compressibility (1/GPa) = 0.01224322
#
# Stress axis : x y z
#
# Youngs Moduli (GPa) = 107.00773 141.32125 102.53084
#
# Poissons Ratio (x) = 0.06963 0.48882
# Poissons Ratio (y) = 0.05272 0.17485
# Poissons Ratio (z) = 0.51016 0.24100
#
# Static dielectric constant tensor:
#      x y z
#    x 3.970880 0.000000 0.000000 
#    y 0.000000 4.317100 0.000000 
#    z 0.000000 0.000000 4.070720 
# 
# 
# High freq. dielectric constant tensor:
#      x y z
#    x 1.890490 0.000000 0.000000 
#    y 0.000000 1.893150 0.000000 
#    z 0.000000 0.000000 1.881200 
# 
# From -- ./inp_files/21944.got.cif
#   From: 2010.03.12/outbox.cif.g09.slc.cpg/sg62_11_cif.got.tgz:21944.got - 2010.04.10 19:12:36.
