data_PCOD8255410
_publ_section_title
;
Structure prediction by ZEFSAII (Michael W. Deem and Ramdas Pophale) SiO2 
 PCOD8255410
Probable space group: C M C M
;
_chemical_formula_sum "Si O2"
_cell_formula_units_Z 112
_cell_length_a 18.122104
_cell_length_b 17.033017
_cell_length_c 20.362818
_cell_angle_alpha 90.000000
_cell_angle_beta 90.000000
_cell_angle_gamma 90.000000
_cell_volume 6285.474632
_symmetry_space_group_name_H-M "C M C M"
_symmetry_group_IT_number 63
_symmetry_cell_setting 'orthorhombic'
loop_
_space_group_symop_operation_xyz
x,y,z
-x,-y,1/2+z
x,-y,-z
-x,y,1/2-z
-x,-y,-z
x,y,1/2-z
-x,y,z
x,-y,1/2+z
1/2+x,1/2+y,z
1/2-x,1/2-y,1/2+z
1/2+x,1/2-y,-z
1/2-x,1/2+y,1/2-z
1/2-x,1/2-y,-z
1/2+x,1/2+y,1/2-z
1/2-x,1/2+y,z
1/2+x,1/2-y,1/2+z
loop_
_atom_site_type_symbol
_atom_site_label
_atom_site_fract_x
_atom_site_fract_y
_atom_site_fract_z
Si Si1 0.673405 0.580183 0.669845
Si Si2 0.828088 0.779582 0.527394
Si Si3 0.913228 0.785852 0.396645
Si Si4 0.679685 0.594438 0.364789
Si Si5 0.690776 0.823633 0.142765
Si Si6 0.197111 0.311328 0.677766
Si Si7 0.919840 0.338189 0.250000
Si Si8 0.080329 0.155225 0.250000
O O1 0.677957 0.576357 0.750000
O O2 0.607915 0.638717 0.647775
O O3 0.658511 0.496839 0.635822
O O4 0.748515 0.608470 0.634566
O O5 0.750000 0.750000 0.500000
O O6 0.889425 0.793761 0.472265
O O7 0.824957 0.864006 0.564055
O O8 0.848774 0.708289 0.576781
O O9 0.870068 0.709243 0.370251
O O10 0.000000 0.771882 0.392055
O O11 0.764658 0.605614 0.340069
O O12 0.622652 0.634375 0.315788
O O13 0.735610 0.751325 0.175384
O O14 0.626646 0.861830 0.186195
O O15 0.162957 0.313837 0.750000
O O16 0.932492 0.246600 0.250000
O O17 0.000000 0.380863 0.250000
O O18 0.000000 0.113014 0.250000
#
# Coordination Sequence:
#
# PCOD8255410 Si02
#       8
#    16  16  16  16  16  16   8   8
#     4  11  21  35  60  85 113 151 185 227 287 344
#     4  11  20  37  58  77 108 150 197 233 267 323
#     4  11  24  38  55  84 118 152 191 235 280 335
#     4  11  20  35  58  85 112 149 192 229 277 338
#     4  10  17  33  55  80 105 139 189 235 271 331
#     4  10  16  33  59  78 105 142 196 243 269 314
#     4  11  18  29  54  84 106 136 183 240 289 319
#     4  11  20  31  50  84 116 142 181 232 283 329
#
# _framework density 17.818860999999998
#
# number of rings (size 3 to 8) (size 9 to 14) (size 15 to 20)
#    0.000    1.286   10.000    1.286    0.000    3.429 
#    0.000    0.714    0.000    0.857    0.000    1.000 
#    0.000    0.000    0.000    0.000    0.000    0.000 
#
# Total GULP energy -693822.897178 kJ/mol
# GULP energy per Si atom -12389.694592 kJ/mol
# Density = 1.777830 g / cm^3
# Si number density = 17.818861 Si / 1000 Ang^3
#
#
#
# Elastic Constant Matrix: (Units=GPa)
#
#
# Indices 1 2 3 4 5 6 
#
# 1 121.9251 20.0667 31.6246 0.0000 0.0000 0.0000
# 2 20.0667 38.1320 19.4505 0.0000 0.0000 0.0000
# 3 31.6246 19.4505 105.7042 0.0000 0.0000 0.0000
# 4 0.0000 0.0000 0.0000 7.4548 0.0000 0.0000
# 5 0.0000 0.0000 0.0000 0.0000 27.9770 0.0000
# 6 0.0000 0.0000 0.0000 0.0000 0.0000 10.3769
#
#
#
# Elastic Compliance Matrix: (Units=1/GPa)
#
#
# Indices 1 2 3 4 5 6 
#
# 1 0.009382 -0.003868 -0.002095 0.000000 0.000000 0.000000
# 2 -0.003868 0.030536 -0.004462 0.000000 0.000000 0.000000
# 3 -0.002095 -0.004462 0.010908 0.000000 0.000000 0.000000
# 4 0.000000 0.000000 0.000000 0.134141 0.000000 0.000000
# 5 0.000000 0.000000 0.000000 0.000000 0.035744 0.000000
# 6 0.000000 0.000000 0.000000 0.000000 0.000000 0.096367
#
#
# Mechanical properties :
#
#
# Convention : Reuss Voigt Hill
#
# Bulk Modulus (GPa) = 33.35999 45.33834 39.34917
# Shear Modulus (GPa) = 14.37110 22.13639 18.25375
#
# Velocity S-wave (km/s) = 2.84299 3.52845 3.20411
# Velocity P-wave (km/s) = 5.43500 6.48839 5.98492
#
# Compressibility (1/GPa) = 0.02997602
#
# Stress axis : x y z
#
# Youngs Moduli (GPa) = 106.58885 32.74802 91.67489
#
# Poissons Ratio (x) = 0.12669 0.19206
# Poissons Ratio (y) = 0.41234 0.40901
# Poissons Ratio (z) = 0.22331 0.14611
#
# Static dielectric constant tensor:
#      x y z
#    x 3.368850 0.000000 0.000000 
#    y 0.000000 3.259270 0.000000 
#    z 0.000000 0.000000 3.662440 
# 
# 
# High freq. dielectric constant tensor:
#      x y z
#    x 1.675060 0.000000 0.000000 
#    y 0.000000 1.659160 0.000000 
#    z 0.000000 0.000000 1.697100 
# 
# From -- ./inp_files/56010.got.cif
#   From: 2010.03.12/outbox.cif.g09.slc.cpg/sg63_29_cif.got.tgz:56010.got - 2010.04.10 19:34:48.
