data_PCOD8255616
_publ_section_title
;
Structure prediction by ZEFSAII (Michael W. Deem and Ramdas Pophale) SiO2 
 PCOD8255616
Probable space group: C M C M
;
_chemical_formula_sum "Si O2"
_cell_formula_units_Z 44
_cell_length_a 11.576536
_cell_length_b 13.560914
_cell_length_c 14.282195
_cell_angle_alpha 90.000000
_cell_angle_beta 90.000000
_cell_angle_gamma 90.000000
_cell_volume 2242.139072
_symmetry_space_group_name_H-M "C M C M"
_symmetry_group_IT_number 63
_symmetry_cell_setting 'orthorhombic'
loop_
_space_group_symop_operation_xyz
x,y,z
-x,-y,1/2+z
x,-y,-z
-x,y,1/2-z
-x,-y,-z
x,y,1/2-z
-x,y,z
x,-y,1/2+z
1/2+x,1/2+y,z
1/2-x,1/2-y,1/2+z
1/2+x,1/2-y,-z
1/2-x,1/2+y,1/2-z
1/2-x,1/2-y,-z
1/2+x,1/2+y,1/2-z
1/2-x,1/2+y,z
1/2+x,1/2-y,1/2+z
loop_
_atom_site_type_symbol
_atom_site_label
_atom_site_fract_x
_atom_site_fract_y
_atom_site_fract_z
Si Si1 0.863752 0.649347 0.250000
Si Si2 0.000000 0.703140 0.750000
Si Si3 0.249927 0.863051 0.250000
Si Si4 0.500000 0.390747 0.854829
Si Si5 0.734879 0.478360 0.602501
O O1 0.799803 0.753734 0.250000
O O2 0.825435 0.589557 0.341878
O O3 0.000000 0.665799 0.250000
O O4 0.888881 0.634039 0.750000
O O5 0.000000 0.771948 0.656783
O O6 0.209234 0.919978 0.343008
O O7 0.500000 0.439188 0.750000
O O8 0.386485 0.422151 0.911077
O O9 0.786706 0.500000 0.500000
#
# Coordination Sequence:
#
# PCOD8255616 Si02
#       5
#     8   4   8   8  16
#     4  11  24  43  59  91 129 160 201 251 303 365
#     4  10  18  40  66  84 116 170 198 244 308 360
#     4  11  22  41  66  83 124 164 202 247 310 353
#     4  10  17  43  64  84 125 158 200 261 291 358
#     4  11  24  41  64  93 123 160 205 252 302 359
#
# _framework density 19.624116999999998
#
# number of rings (size 3 to 8) (size 9 to 14) (size 15 to 20)
#    0.545    0.727    7.273    0.545    7.636    2.182 
#    0.000    0.000    0.000    0.000    0.000    0.000 
#    0.000    0.000    0.000    0.000    0.000    0.000 
#
# Total GULP energy -272808.652331 kJ/mol
# GULP energy per Si atom -12400.393288 kJ/mol
# Density = 1.957945 g / cm^3
# Si number density = 19.624117 Si / 1000 Ang^3
#
#
#
# Elastic Constant Matrix: (Units=GPa)
#
#
# Indices 1 2 3 4 5 6 
#
# 1 99.2392 -8.3537 3.5657 0.0000 0.0000 0.0000
# 2 -8.3537 76.3741 35.4214 0.0000 0.0000 0.0000
# 3 3.5657 35.4214 134.0137 0.0000 0.0000 0.0000
# 4 0.0000 0.0000 0.0000 6.8351 0.0000 0.0000
# 5 0.0000 0.0000 0.0000 0.0000 17.8785 0.0000
# 6 0.0000 0.0000 0.0000 0.0000 0.0000 26.5655
#
#
#
# Elastic Compliance Matrix: (Units=1/GPa)
#
#
# Indices 1 2 3 4 5 6 
#
# 1 0.010219 0.001418 -0.000647 0.000000 0.000000 0.000000
# 2 0.001418 0.015119 -0.004034 0.000000 0.000000 0.000000
# 3 -0.000647 -0.004034 0.008545 0.000000 0.000000 0.000000
# 4 0.000000 0.000000 0.000000 0.146304 0.000000 0.000000
# 5 0.000000 0.000000 0.000000 0.000000 0.055933 0.000000
# 6 0.000000 0.000000 0.000000 0.000000 0.000000 0.037643
#
#
# Mechanical properties :
#
#
# Convention : Reuss Voigt Hill
#
# Bulk Modulus (GPa) = 36.55217 41.21044 38.88131
# Shear Modulus (GPa) = 17.27658 28.85540 23.06599
#
# Velocity S-wave (km/s) = 2.97033 3.83875 3.43212
# Velocity P-wave (km/s) = 5.51638 6.37914 5.96338
#
# Compressibility (1/GPa) = 0.02735816
#
# Stress axis : x y z
#
# Youngs Moduli (GPa) = 97.85474 66.14017 117.02269
#
# Poissons Ratio (x) = -0.09376 0.07567
# Poissons Ratio (y) = -0.13872 0.47206
# Poissons Ratio (z) = 0.06327 0.26681
#
# Static dielectric constant tensor:
#      x y z
#    x 3.492090 0.000000 0.000000 
#    y 0.000000 3.562370 0.000000 
#    z 0.000000 0.000000 3.332800 
# 
# 
# High freq. dielectric constant tensor:
#      x y z
#    x 1.767190 0.000000 0.000000 
#    y 0.000000 1.768950 0.000000 
#    z 0.000000 0.000000 1.742260 
# 
# From -- ./inp_files/28555.got.cif
#   From: 2010.03.12/outbox.cif.g09.slc.cpg/sg63_15_cif.got.tgz:28555.got - 2010.04.10 19:34:48.
