data_PCOD8255863
_publ_section_title
;
Structure prediction by ZEFSAII (Michael W. Deem and Ramdas Pophale) SiO2 
 PCOD8255863
Probable space group: C M C M
;
_chemical_formula_sum "Si O2"
_cell_formula_units_Z 80
_cell_length_a 23.554983
_cell_length_b 24.151335
_cell_length_c 8.964279
_cell_angle_alpha 90.000000
_cell_angle_beta 90.000000
_cell_angle_gamma 90.000000
_cell_volume 5099.637453
_symmetry_space_group_name_H-M "C M C M"
_symmetry_group_IT_number 63
_symmetry_cell_setting 'orthorhombic'
loop_
_space_group_symop_operation_xyz
x,y,z
-x,-y,1/2+z
x,-y,-z
-x,y,1/2-z
-x,-y,-z
x,y,1/2-z
-x,y,z
x,-y,1/2+z
1/2+x,1/2+y,z
1/2-x,1/2-y,1/2+z
1/2+x,1/2-y,-z
1/2-x,1/2+y,1/2-z
1/2-x,1/2-y,-z
1/2+x,1/2+y,1/2-z
1/2-x,1/2+y,z
1/2+x,1/2-y,1/2+z
loop_
_atom_site_type_symbol
_atom_site_label
_atom_site_fract_x
_atom_site_fract_y
_atom_site_fract_z
Si Si1 0.775467 0.673174 0.922186
Si Si2 0.435493 0.669632 0.424486
Si Si3 0.259926 0.445938 0.424830
Si Si4 0.837968 0.765172 0.075290
Si Si5 0.881188 0.055071 0.073409
O O1 0.784991 0.688131 0.750000
O O2 0.780000 0.607382 0.950947
O O3 0.713092 0.693954 0.972978
O O4 0.824242 0.703432 0.016540
O O5 0.426310 0.678004 0.250000
O O6 0.500000 0.681103 0.472730
O O7 0.396481 0.713965 0.506649
O O8 0.420269 0.606894 0.470094
O O9 0.230679 0.500000 0.500000
O O10 0.270392 0.456173 0.250000
O O11 0.319506 0.434805 0.504225
O O12 0.846062 0.762706 0.250000
O O13 0.876015 0.047127 0.250000
O O14 0.908587 0.000000 0.000000
#
# Coordination Sequence:
#
# PCOD8255863 Si02
#       5
#    16  16  16  16  16
#     4   9  18  31  47  67  93 120 148 185 230 280
#     4  10  21  35  48  63  88 122 158 195 236 278
#     4  10  18  29  45  67  94 121 151 186 227 272
#     4  10  19  31  48  69  90 115 153 193 231 274
#     4  10  19  30  45  62  85 118 157 197 234 270
#
# _framework density 15.687390000000001
#
# number of rings (size 3 to 8) (size 9 to 14) (size 15 to 20)
#    0.000    2.200    2.000    3.000    0.000    4.000 
#    0.000    0.000    0.000    0.000    0.000    0.000 
#    0.000    0.800    0.000    2.600    0.000    3.200 
#
# Total GULP energy -495977.056707 kJ/mol
# GULP energy per Si atom -12399.426418 kJ/mol
# Density = 1.565168 g / cm^3
# Si number density = 15.687390 Si / 1000 Ang^3
#
#
#
# Elastic Constant Matrix: (Units=GPa)
#
#
# Indices 1 2 3 4 5 6 
#
# 1 78.6394 61.4768 41.7381 0.0000 0.0000 0.0000
# 2 61.4768 118.4185 52.1594 0.0000 0.0000 0.0000
# 3 41.7381 52.1594 68.5043 0.0000 0.0000 0.0000
# 4 0.0000 0.0000 0.0000 27.5497 0.0000 0.0000
# 5 0.0000 0.0000 0.0000 0.0000 20.8070 0.0000
# 6 0.0000 0.0000 0.0000 0.0000 0.0000 24.1558
#
#
#
# Elastic Compliance Matrix: (Units=1/GPa)
#
#
# Indices 1 2 3 4 5 6 
#
# 1 0.023807 -0.008983 -0.007665 0.000000 0.000000 0.000000
# 2 -0.008983 0.016095 -0.006782 0.000000 0.000000 0.000000
# 3 -0.007665 -0.006782 0.024432 0.000000 0.000000 0.000000
# 4 0.000000 0.000000 0.000000 0.036298 0.000000 0.000000
# 5 0.000000 0.000000 0.000000 0.000000 0.048061 0.000000
# 6 0.000000 0.000000 0.000000 0.000000 0.000000 0.041398
#
#
# Mechanical properties :
#
#
# Convention : Reuss Voigt Hill
#
# Bulk Modulus (GPa) = 57.22943 64.03455 60.63199
# Shear Modulus (GPa) = 20.59505 21.84836 21.22170
#
# Velocity S-wave (km/s) = 3.62725 3.73598 3.68202
# Velocity P-wave (km/s) = 7.35547 7.71478 7.53727
#
# Compressibility (1/GPa) = 0.01747353
#
# Stress axis : x y z
#
# Youngs Moduli (GPa) = 42.00372 62.12955 40.93038
#
# Poissons Ratio (x) = 0.55812 0.31375
# Poissons Ratio (y) = 0.37733 0.27758
# Poissons Ratio (z) = 0.32198 0.42135
#
# Static dielectric constant tensor:
#      x y z
#    x 2.661460 0.000000 0.000000 
#    y 0.000000 3.268190 0.000000 
#    z 0.000000 0.000000 3.057370 
# 
# 
# High freq. dielectric constant tensor:
#      x y z
#    x 1.554250 0.000000 0.000000 
#    y 0.000000 1.604760 0.000000 
#    z 0.000000 0.000000 1.615280 
# 
# From -- ./inp_files/6371.got.cif
#   From: 2010.03.12/outbox.cif.g09.slc.cpg/sg63_4_cif.got.tgz:6371.got - 2010.04.10 19:34:48.
