data_PCOD8255621
_publ_section_title
;
Structure prediction by ZEFSAII (Michael W. Deem and Ramdas Pophale) SiO2 
 PCOD8255621
Probable space group: C M C M
;
_chemical_formula_sum "Si O2"
_cell_formula_units_Z 128
_cell_length_a 25.508195
_cell_length_b 18.129855
_cell_length_c 18.645631
_cell_angle_alpha 90.000000
_cell_angle_beta 90.000000
_cell_angle_gamma 90.000000
_cell_volume 8622.856213
_symmetry_space_group_name_H-M "C M C M"
_symmetry_group_IT_number 63
_symmetry_cell_setting 'orthorhombic'
loop_
_space_group_symop_operation_xyz
x,y,z
-x,-y,1/2+z
x,-y,-z
-x,y,1/2-z
-x,-y,-z
x,y,1/2-z
-x,y,z
x,-y,1/2+z
1/2+x,1/2+y,z
1/2-x,1/2-y,1/2+z
1/2+x,1/2-y,-z
1/2-x,1/2+y,1/2-z
1/2-x,1/2-y,-z
1/2+x,1/2+y,1/2-z
1/2-x,1/2+y,z
1/2+x,1/2-y,1/2+z
loop_
_atom_site_type_symbol
_atom_site_label
_atom_site_fract_x
_atom_site_fract_y
_atom_site_fract_z
Si Si1 0.781812 0.125508 0.561247
Si Si2 0.178188 0.283210 0.414030
Si Si3 0.439447 0.814925 0.834059
Si Si4 0.240918 0.856974 0.597912
Si Si5 0.056965 0.482302 0.835268
Si Si6 0.155379 0.264454 0.572599
Si Si7 0.754499 0.009355 0.667908
Si Si8 0.144723 0.414958 0.167256
O O1 0.732130 0.173788 0.581172
O O2 0.773157 0.104425 0.478039
O O3 0.831170 0.177890 0.576305
O O4 0.790743 0.054018 0.611669
O O5 0.194012 0.201620 0.385587
O O6 0.146847 0.282313 0.488788
O O7 0.143057 0.330534 0.359712
O O8 0.427038 0.802321 0.750000
O O9 0.500000 0.791529 0.849873
O O10 0.430102 0.899037 0.857567
O O11 0.398063 0.770331 0.882188
O O12 0.297630 0.817096 0.601125
O O13 0.241051 0.921613 0.656673
O O14 0.057964 0.486033 0.750000
O O15 0.098388 0.538435 0.870375
O O16 0.000000 0.505261 0.864666
O O17 0.770592 0.027051 0.750000
O O18 0.696435 0.038085 0.650944
O O19 0.133469 0.408919 0.250000
#
# Coordination Sequence:
#
# PCOD8255621 Si02
#       8
#    16  16  16  16  16  16  16  16
#     4   8  16  29  41  55  78 108 136 164 198 237
#     4   8  16  28  40  57  78 103 138 171 196 230
#     4   9  17  28  42  61  84 108 136 173 211 243
#     4   9  16  27  42  57  78 109 139 163 194 240
#     4   8  14  25  39  54  75 105 138 165 190 227
#     4   9  16  28  44  57  76 109 141 164 194 242
#     4  10  18  25  37  60  84 103 130 167 202 240
#     4   9  16  26  39  55  79 108 134 165 205 239
#
# _framework density 14.844269000000001
#
# number of rings (size 3 to 8) (size 9 to 14) (size 15 to 20)
#    0.000    3.250    0.000    3.375    0.000    2.500 
#    0.000    5.000    0.000    1.500    0.000    0.000 
#    0.000    9.000    0.000    4.750    0.000    0.000 
#
# Total GULP energy -792839.679328 kJ/mol
# GULP energy per Si atom -12388.119989 kJ/mol
# Density = 1.481048 g / cm^3
# Si number density = 14.844269 Si / 1000 Ang^3
#
#
#
# Elastic Constant Matrix: (Units=GPa)
#
#
# Indices 1 2 3 4 5 6 
#
# 1 67.2114 26.6266 31.8264 0.0000 0.0000 0.0000
# 2 26.6266 63.8150 30.5037 0.0000 0.0000 0.0000
# 3 31.8264 30.5037 42.6018 0.0000 0.0000 0.0000
# 4 0.0000 0.0000 0.0000 26.9953 0.0000 0.0000
# 5 0.0000 0.0000 0.0000 0.0000 19.9400 0.0000
# 6 0.0000 0.0000 0.0000 0.0000 0.0000 20.7627
#
#
#
# Elastic Compliance Matrix: (Units=1/GPa)
#
#
# Indices 1 2 3 4 5 6 
#
# 1 0.023210 -0.002122 -0.015820 0.000000 0.000000 0.000000
# 2 -0.002122 0.024018 -0.015612 0.000000 0.000000 0.000000
# 3 -0.015820 -0.015612 0.046470 0.000000 0.000000 0.000000
# 4 0.000000 0.000000 0.000000 0.037043 0.000000 0.000000
# 5 0.000000 0.000000 0.000000 0.000000 0.050150 0.000000
# 6 0.000000 0.000000 0.000000 0.000000 0.000000 0.048163
#
#
# Mechanical properties :
#
#
# Convention : Reuss Voigt Hill
#
# Bulk Modulus (GPa) = 37.60790 39.06017 38.33404
# Shear Modulus (GPa) = 16.39189 19.18439 17.78814
#
# Velocity S-wave (km/s) = 3.32664 3.59886 3.46543
# Velocity P-wave (km/s) = 6.33604 6.60602 6.47244
#
# Compressibility (1/GPa) = 0.02659016
#
# Stress axis : x y z
#
# Youngs Moduli (GPa) = 43.08399 41.63458 21.51912
#
# Poissons Ratio (x) = 0.08837 0.34043
# Poissons Ratio (y) = 0.09145 0.33596
# Poissons Ratio (z) = 0.68159 0.65000
#
# Static dielectric constant tensor:
#      x y z
#    x 2.823970 0.000000 0.000000 
#    y 0.000000 3.111880 0.000000 
#    z 0.000000 0.000000 2.869790 
# 
# 
# High freq. dielectric constant tensor:
#      x y z
#    x 1.532700 0.000000 0.000000 
#    y 0.000000 1.561620 0.000000 
#    z 0.000000 0.000000 1.558010 
# 
# From -- ./inp_files/57788.got.cif
#   From: 2010.03.12/outbox.cif.g09.slc.cpg/sg63_29_cif.got.tgz:57788.got - 2010.04.10 19:34:48.
