data_PCOD8255869
_publ_section_title
;
Structure prediction by ZEFSAII (Michael W. Deem and Ramdas Pophale) SiO2 
 PCOD8255869
Probable space group: C M C M
;
_chemical_formula_sum "Si O2"
_cell_formula_units_Z 96
_cell_length_a 13.738125
_cell_length_b 23.665877
_cell_length_c 18.167863
_cell_angle_alpha 90.000000
_cell_angle_beta 90.000000
_cell_angle_gamma 90.000000
_cell_volume 5906.822397
_symmetry_space_group_name_H-M "C M C M"
_symmetry_group_IT_number 63
_symmetry_cell_setting 'orthorhombic'
loop_
_space_group_symop_operation_xyz
x,y,z
-x,-y,1/2+z
x,-y,-z
-x,y,1/2-z
-x,-y,-z
x,y,1/2-z
-x,y,z
x,-y,1/2+z
1/2+x,1/2+y,z
1/2-x,1/2-y,1/2+z
1/2+x,1/2-y,-z
1/2-x,1/2+y,1/2-z
1/2-x,1/2-y,-z
1/2+x,1/2+y,1/2-z
1/2-x,1/2+y,z
1/2+x,1/2-y,1/2+z
loop_
_atom_site_type_symbol
_atom_site_label
_atom_site_fract_x
_atom_site_fract_y
_atom_site_fract_z
Si Si1 0.722994 0.751673 0.585329
Si Si2 0.891708 0.981226 0.083012
Si Si3 0.611410 0.646415 0.936050
Si Si4 0.216980 0.073724 0.167024
Si Si5 0.391032 0.674885 0.393460
Si Si6 0.111861 0.653279 0.335625
O O1 0.750000 0.750000 0.500000
O O2 0.682503 0.689849 0.607381
O O3 0.822093 0.771381 0.626306
O O4 0.639270 0.796342 0.608236
O O5 0.858004 0.916217 0.087948
O O6 0.000000 0.988793 0.118725
O O7 0.809039 0.018223 0.121223
O O8 0.899667 0.000000 0.000000
O O9 0.500000 0.659022 0.913797
O O10 0.623994 0.653758 0.023308
O O11 0.218696 0.052969 0.250000
O O12 0.135471 0.122114 0.157801
O O13 0.322314 0.098781 0.143781
O O14 0.500000 0.694740 0.377275
O O15 0.130224 0.671002 0.250000
O O16 0.000000 0.636727 0.348819
#
# Coordination Sequence:
#
# PCOD8255869 Si02
#       6
#    16  16  16  16  16  16
#     4   9  17  28  46  71  95 125 159 198 237 282
#     4  10  18  29  46  65  92 130 160 188 233 289
#     4   9  16  27  44  65  89 122 159 188 228 280
#     4  10  19  30  47  72  95 119 155 199 240 279
#     4   9  16  27  43  66  93 120 150 188 235 283
#     4   9  18  33  52  73  98 128 161 201 247 288
#
# _framework density 16.252393999999999
#
# number of rings (size 3 to 8) (size 9 to 14) (size 15 to 20)
#    0.000    2.667    1.667    1.000    0.000    2.000 
#    0.000    0.833    0.000    2.500    0.000    0.000 
#    0.000    0.000    0.000    0.000    0.000    0.000 
#
# Total GULP energy -594794.662337 kJ/mol
# GULP energy per Si atom -12391.555465 kJ/mol
# Density = 1.621540 g / cm^3
# Si number density = 16.252394 Si / 1000 Ang^3
#
#
#
# Elastic Constant Matrix: (Units=GPa)
#
#
# Indices 1 2 3 4 5 6 
#
# 1 120.7397 73.5708 27.4647 0.0000 0.0000 0.0000
# 2 73.5708 137.7643 32.6145 0.0000 0.0000 0.0000
# 3 27.4647 32.6145 37.0774 0.0000 0.0000 0.0000
# 4 0.0000 0.0000 0.0000 19.3191 0.0000 0.0000
# 5 0.0000 0.0000 0.0000 0.0000 35.9377 0.0000
# 6 0.0000 0.0000 0.0000 0.0000 0.0000 23.9536
#
#
#
# Elastic Compliance Matrix: (Units=1/GPa)
#
#
# Indices 1 2 3 4 5 6 
#
# 1 0.012819 -0.005807 -0.004387 0.000000 0.000000 0.000000
# 2 -0.005807 0.011799 -0.006077 0.000000 0.000000 0.000000
# 3 -0.004387 -0.006077 0.035566 0.000000 0.000000 0.000000
# 4 0.000000 0.000000 0.000000 0.051762 0.000000 0.000000
# 5 0.000000 0.000000 0.000000 0.000000 0.027826 0.000000
# 6 0.000000 0.000000 0.000000 0.000000 0.000000 0.041747
#
#
# Mechanical properties :
#
#
# Convention : Reuss Voigt Hill
#
# Bulk Modulus (GPa) = 36.17848 62.54238 49.36043
# Shear Modulus (GPa) = 22.39394 26.63750 24.51572
#
# Velocity S-wave (km/s) = 3.71602 4.05284 3.88807
# Velocity P-wave (km/s) = 6.38125 7.77600 7.11289
#
# Compressibility (1/GPa) = 0.02764074
#
# Stress axis : x y z
#
# Youngs Moduli (GPa) = 78.01159 84.75629 28.11678
#
# Poissons Ratio (x) = 0.49217 0.12336
# Poissons Ratio (y) = 0.45301 0.17086
# Poissons Ratio (z) = 0.34226 0.51506
#
# Static dielectric constant tensor:
#      x y z
#    x 3.254490 0.000000 0.000000 
#    y 0.000000 3.053670 0.000000 
#    z 0.000000 0.000000 2.878650 
# 
# 
# High freq. dielectric constant tensor:
#      x y z
#    x 1.623970 0.000000 0.000000 
#    y 0.000000 1.616660 0.000000 
#    z 0.000000 0.000000 1.600210 
# 
# From -- ./inp_files/54648.got.cif
#   From: 2010.03.12/outbox.cif.g09.slc.cpg/sg63_28_cif.got.tgz:54648.got - 2010.04.10 19:34:48.
