data_PCOD8255523
_publ_section_title
;
Structure prediction by ZEFSAII (Michael W. Deem and Ramdas Pophale) SiO2 
 PCOD8255523
Probable space group: C M C M
;
_chemical_formula_sum "Si O2"
_cell_formula_units_Z 96
_cell_length_a 9.225796
_cell_length_b 29.257548
_cell_length_c 20.584634
_cell_angle_alpha 90.000000
_cell_angle_beta 90.000000
_cell_angle_gamma 90.000000
_cell_volume 5556.290233
_symmetry_space_group_name_H-M "C M C M"
_symmetry_group_IT_number 63
_symmetry_cell_setting 'orthorhombic'
loop_
_space_group_symop_operation_xyz
x,y,z
-x,-y,1/2+z
x,-y,-z
-x,y,1/2-z
-x,-y,-z
x,y,1/2-z
-x,y,z
x,-y,1/2+z
1/2+x,1/2+y,z
1/2-x,1/2-y,1/2+z
1/2+x,1/2-y,-z
1/2-x,1/2+y,1/2-z
1/2-x,1/2-y,-z
1/2+x,1/2+y,1/2-z
1/2-x,1/2+y,z
1/2+x,1/2-y,1/2+z
loop_
_atom_site_type_symbol
_atom_site_label
_atom_site_fract_x
_atom_site_fract_y
_atom_site_fract_z
Si Si1 0.327541 0.969767 0.177843
Si Si2 0.827911 0.372178 0.373080
Si Si3 0.833240 0.786438 0.322914
Si Si4 0.829658 0.725118 0.058362
Si Si5 0.328781 0.873136 0.980062
Si Si6 0.172876 0.529625 0.439203
O O1 0.269222 0.981348 0.250000
O O2 0.500000 0.970086 0.176587
O O3 0.272985 0.919737 0.157026
O O4 0.266807 0.007539 0.127481
O O5 0.760991 0.331613 0.331300
O O6 0.769144 0.368957 0.446682
O O7 0.000000 0.367682 0.369631
O O8 0.809825 0.767435 0.250000
O O9 0.783325 0.747101 0.373081
O O10 0.000000 0.799384 0.335385
O O11 0.782609 0.671813 0.060238
O O12 0.000000 0.729454 0.045096
O O13 0.750000 0.750000 0.000000
O O14 0.500000 0.878368 0.984019
O O15 0.266054 0.918629 0.945357
O O16 0.229663 0.500000 0.500000
O O17 0.000000 0.529133 0.438763
#
# Coordination Sequence:
#
# PCOD8255523 Si02
#       6
#    16  16  16  16  16  16
#     4   9  16  24  37  63  95 120 145 183 229 271
#     4  10  17  28  48  72  95 117 149 195 234 268
#     4  10  21  34  46  65  96 129 154 184 234 286
#     4  10  19  32  49  68  92 121 157 195 229 272
#     4   9  16  26  43  67  89 113 151 191 225 264
#     4   9  14  23  38  58  88 120 144 174 222 273
#
# _framework density 17.277715000000001
#
# number of rings (size 3 to 8) (size 9 to 14) (size 15 to 20)
#    0.000    2.500    3.333    0.500    0.000    1.000 
#    0.000    0.833    0.000    5.000    0.000    3.500 
#    0.000    0.000    0.000    0.000    0.000    0.000 
#
# Total GULP energy -595036.453077 kJ/mol
# GULP energy per Si atom -12396.592772 kJ/mol
# Density = 1.723839 g / cm^3
# Si number density = 17.277715 Si / 1000 Ang^3
#
#
#
# Elastic Constant Matrix: (Units=GPa)
#
#
# Indices 1 2 3 4 5 6 
#
# 1 13.9244 20.8638 18.4892 0.0000 0.0000 0.0000
# 2 20.8638 155.2155 84.1929 0.0000 0.0000 0.0000
# 3 18.4892 84.1929 153.7848 0.0000 0.0000 0.0000
# 4 0.0000 0.0000 0.0000 32.6266 0.0000 0.0000
# 5 0.0000 0.0000 0.0000 0.0000 13.7138 0.0000
# 6 0.0000 0.0000 0.0000 0.0000 0.0000 15.3352
#
#
#
# Elastic Compliance Matrix: (Units=1/GPa)
#
#
# Indices 1 2 3 4 5 6 
#
# 1 0.093948 -0.009248 -0.006232 0.000000 0.000000 0.000000
# 2 -0.009248 0.010074 -0.004404 0.000000 0.000000 0.000000
# 3 -0.006232 -0.004404 0.009663 0.000000 0.000000 0.000000
# 4 0.000000 0.000000 0.000000 0.030650 0.000000 0.000000
# 5 0.000000 0.000000 0.000000 0.000000 0.072919 0.000000
# 6 0.000000 0.000000 0.000000 0.000000 0.000000 0.065209
#
#
# Mechanical properties :
#
#
# Convention : Reuss Voigt Hill
#
# Bulk Modulus (GPa) = 13.52854 63.33518 38.43186
# Shear Modulus (GPa) = 14.41462 25.62704 20.02083
#
# Velocity S-wave (km/s) = 2.89154 3.85547 3.40776
# Velocity P-wave (km/s) = 4.35833 7.52039 6.14619
#
# Compressibility (1/GPa) = 0.07391779
#
# Stress axis : x y z
#
# Youngs Moduli (GPa) = 10.64419 99.26189 103.49056
#
# Poissons Ratio (x) = 0.91796 0.64497
# Poissons Ratio (y) = 0.09844 0.45573
# Poissons Ratio (z) = 0.06634 0.43711
#
# Static dielectric constant tensor:
#      x y z
#    x 2.693040 0.000000 0.000000 
#    y 0.000000 3.502270 0.000000 
#    z 0.000000 0.000000 3.451180 
# 
# 
# High freq. dielectric constant tensor:
#      x y z
#    x 1.606280 0.000000 0.000000 
#    y 0.000000 1.673340 0.000000 
#    z 0.000000 0.000000 1.671980 
# 
# From -- ./inp_files/53023.got.cif
#   From: 2010.03.12/outbox.cif.g09.slc.cpg/sg63_27_cif.got.tgz:53023.got - 2010.04.10 19:34:48.
