data_PCOD8255742
_publ_section_title
;
Structure prediction by ZEFSAII (Michael W. Deem and Ramdas Pophale) SiO2 
 PCOD8255742
Probable space group: C M C M
;
_chemical_formula_sum "Si O2"
_cell_formula_units_Z 96
_cell_length_a 9.439077
_cell_length_b 23.877722
_cell_length_c 25.507547
_cell_angle_alpha 90.000000
_cell_angle_beta 90.000000
_cell_angle_gamma 90.000000
_cell_volume 5748.984212
_symmetry_space_group_name_H-M "C M C M"
_symmetry_group_IT_number 63
_symmetry_cell_setting 'orthorhombic'
loop_
_space_group_symop_operation_xyz
x,y,z
-x,-y,1/2+z
x,-y,-z
-x,y,1/2-z
-x,-y,-z
x,y,1/2-z
-x,y,z
x,-y,1/2+z
1/2+x,1/2+y,z
1/2-x,1/2-y,1/2+z
1/2+x,1/2-y,-z
1/2-x,1/2+y,1/2-z
1/2-x,1/2-y,-z
1/2+x,1/2+y,1/2-z
1/2-x,1/2+y,z
1/2+x,1/2-y,1/2+z
loop_
_atom_site_type_symbol
_atom_site_label
_atom_site_fract_x
_atom_site_fract_y
_atom_site_fract_z
Si Si1 0.657735 0.429255 0.034200
Si Si2 0.334292 0.080292 0.690743
Si Si3 0.157466 0.159278 0.874273
Si Si4 0.665123 0.242092 0.446314
Si Si5 0.660110 0.883169 0.942276
Si Si6 0.837874 0.503691 0.101935
O O1 0.500000 0.446979 0.016490
O O2 0.650874 0.389099 0.083404
O O3 0.744340 0.484439 0.051896
O O4 0.732726 0.395362 0.988635
O O5 0.288183 0.066484 0.750000
O O6 0.500000 0.092102 0.686451
O O7 0.257916 0.137516 0.672351
O O8 0.289560 0.026034 0.655947
O O9 0.220281 0.215298 0.901516
O O10 0.000000 0.171025 0.851685
O O11 0.500000 0.254526 0.458338
O O12 0.750000 0.250000 0.500000
O O13 0.688686 0.179893 0.422506
O O14 0.500000 0.887600 0.964434
O O15 0.680552 0.928606 0.895102
O O16 0.000000 0.487037 0.090027
#
# Coordination Sequence:
#
# PCOD8255742 Si02
#       6
#    16  16  16  16  16  16
#     4  10  18  28  43  65  94 126 157 190 223 265
#     4   9  18  33  53  72  88 112 151 198 242 283
#     4   9  18  31  46  68  96 123 154 193 233 274
#     4  10  19  31  46  66  95 130 164 192 223 272
#     4  10  19  29  44  64  92 129 159 185 223 273
#     4   9  18  31  45  65  92 120 151 189 234 279
#
# _framework density 16.698602999999999
#
# number of rings (size 3 to 8) (size 9 to 14) (size 15 to 20)
#    0.000    2.500    1.667    1.000    0.000    4.333 
#    0.000    0.000    0.000    1.000    0.000    4.667 
#    0.000    0.000    0.000    0.000    0.000    0.000 
#
# Total GULP energy -594933.868967 kJ/mol
# GULP energy per Si atom -12394.455603 kJ/mol
# Density = 1.666060 g / cm^3
# Si number density = 16.698603 Si / 1000 Ang^3
#
#
#
# Elastic Constant Matrix: (Units=GPa)
#
#
# Indices 1 2 3 4 5 6 
#
# 1 61.4333 30.3084 32.8578 0.0000 0.0000 0.0000
# 2 30.3084 114.1540 33.2511 0.0000 0.0000 0.0000
# 3 32.8578 33.2511 70.7444 0.0000 0.0000 0.0000
# 4 0.0000 0.0000 0.0000 15.7673 0.0000 0.0000
# 5 0.0000 0.0000 0.0000 0.0000 18.8228 0.0000
# 6 0.0000 0.0000 0.0000 0.0000 0.0000 17.5226
#
#
#
# Elastic Compliance Matrix: (Units=1/GPa)
#
#
# Indices 1 2 3 4 5 6 
#
# 1 0.022764 -0.003434 -0.008959 0.000000 0.000000 0.000000
# 2 -0.003434 0.010668 -0.003419 0.000000 0.000000 0.000000
# 3 -0.008959 -0.003419 0.019903 0.000000 0.000000 0.000000
# 4 0.000000 0.000000 0.000000 0.063423 0.000000 0.000000
# 5 0.000000 0.000000 0.000000 0.000000 0.053127 0.000000
# 6 0.000000 0.000000 0.000000 0.000000 0.000000 0.057069
#
#
# Mechanical properties :
#
#
# Convention : Reuss Voigt Hill
#
# Bulk Modulus (GPa) = 46.05962 48.79624 47.42793
# Shear Modulus (GPa) = 18.81014 20.41683 19.61349
#
# Velocity S-wave (km/s) = 3.35990 3.50046 3.43090
# Velocity P-wave (km/s) = 6.53412 6.75447 6.64521
#
# Compressibility (1/GPa) = 0.02171099
#
# Stress axis : x y z
#
# Youngs Moduli (GPa) = 43.92958 93.73987 50.24315
#
# Poissons Ratio (x) = 0.32194 0.45011
# Poissons Ratio (y) = 0.15087 0.17178
# Poissons Ratio (z) = 0.39355 0.32049
#
# Static dielectric constant tensor:
#      x y z
#    x 3.382920 0.000000 0.000000 
#    y 0.000000 3.406660 0.000000 
#    z 0.000000 0.000000 2.921040 
# 
# 
# High freq. dielectric constant tensor:
#      x y z
#    x 1.646580 0.000000 0.000000 
#    y 0.000000 1.650480 0.000000 
#    z 0.000000 0.000000 1.602240 
# 
# From -- ./inp_files/59835.got.cif
#   From: 2010.03.12/outbox.cif.g09.slc.cpg/sg63_30_cif.got.tgz:59835.got - 2010.04.10 19:34:48.
