data_PCOD8255668
_publ_section_title
;
Structure prediction by ZEFSAII (Michael W. Deem and Ramdas Pophale) SiO2 
 PCOD8255668
Probable space group: C M C M
;
_chemical_formula_sum "Si O2"
_cell_formula_units_Z 96
_cell_length_a 9.361637
_cell_length_b 27.493625
_cell_length_c 22.570033
_cell_angle_alpha 90.000000
_cell_angle_beta 90.000000
_cell_angle_gamma 90.000000
_cell_volume 5809.195551
_symmetry_space_group_name_H-M "C M C M"
_symmetry_group_IT_number 63
_symmetry_cell_setting 'orthorhombic'
loop_
_space_group_symop_operation_xyz
x,y,z
-x,-y,1/2+z
x,-y,-z
-x,y,1/2-z
-x,-y,-z
x,y,1/2-z
-x,y,z
x,-y,1/2+z
1/2+x,1/2+y,z
1/2-x,1/2-y,1/2+z
1/2+x,1/2-y,-z
1/2-x,1/2+y,1/2-z
1/2-x,1/2-y,-z
1/2+x,1/2+y,1/2-z
1/2-x,1/2+y,z
1/2+x,1/2-y,1/2+z
loop_
_atom_site_type_symbol
_atom_site_label
_atom_site_fract_x
_atom_site_fract_y
_atom_site_fract_z
Si Si1 0.834648 0.696314 0.068977
Si Si2 0.338812 0.136697 0.547418
Si Si3 0.666785 0.778027 0.374745
Si Si4 0.330657 0.262522 0.750000
Si Si5 0.166565 0.888415 0.876860
Si Si6 0.166107 0.871731 0.750000
Si Si7 0.332227 0.554190 0.009322
O O1 0.757585 0.747784 0.077297
O O2 0.758391 0.659475 0.113636
O O3 0.000000 0.700958 0.086076
O O4 0.813079 0.677328 0.002625
O O5 0.500000 0.116612 0.544488
O O6 0.309041 0.164649 0.609556
O O7 0.236434 0.090491 0.538704
O O8 0.500000 0.764593 0.382604
O O9 0.722009 0.766812 0.308295
O O10 0.500000 0.263578 0.750000
O O11 0.264863 0.317313 0.750000
O O12 0.204330 0.903333 0.808822
O O13 0.208912 0.930504 0.923380
O O14 0.000000 0.875215 0.884462
O O15 0.000000 0.860922 0.750000
O O16 0.500000 0.555879 0.998025
O O17 0.271846 0.500000 0.000000
#
# Coordination Sequence:
#
# PCOD8255668 Si02
#       7
#    16  16  16   8  16   8  16
#     4  10  18  27  40  64  94 119 146 178 217 262
#     4   9  19  31  45  66  89 116 148 182 221 264
#     4  10  18  30  45  62  88 122 156 183 212 252
#     4   9  16  26  44  65  86 118 158 188 207 246
#     4   9  16  28  46  65  88 117 149 183 219 264
#     4   9  14  24  44  67  86 114 154 184 211 252
#     4   9  18  32  50  70  89 112 144 186 236 277
#
# _framework density 16.525524999999998
#
# number of rings (size 3 to 8) (size 9 to 14) (size 15 to 20)
#    0.000    2.667    1.667    1.000    0.000    1.667 
#    0.000    1.667    0.000    1.000    0.000    1.167 
#    0.000    0.000    0.000    0.000    0.000    0.000 
#
# Total GULP energy -594842.125506 kJ/mol
# GULP energy per Si atom -12392.544281 kJ/mol
# Density = 1.648791 g / cm^3
# Si number density = 16.525525 Si / 1000 Ang^3
#
#
#
# Elastic Constant Matrix: (Units=GPa)
#
#
# Indices 1 2 3 4 5 6 
#
# 1 44.8878 34.2362 16.0304 0.0000 0.0000 0.0000
# 2 34.2362 104.8613 48.2292 0.0000 0.0000 0.0000
# 3 16.0304 48.2292 79.6630 0.0000 0.0000 0.0000
# 4 0.0000 0.0000 0.0000 16.9608 0.0000 0.0000
# 5 0.0000 0.0000 0.0000 0.0000 13.7745 0.0000
# 6 0.0000 0.0000 0.0000 0.0000 0.0000 21.6655
#
#
#
# Elastic Compliance Matrix: (Units=1/GPa)
#
#
# Indices 1 2 3 4 5 6 
#
# 1 0.029666 -0.009618 -0.000147 0.000000 0.000000 0.000000
# 2 -0.009618 0.016335 -0.007954 0.000000 0.000000 0.000000
# 3 -0.000147 -0.007954 0.017398 0.000000 0.000000 0.000000
# 4 0.000000 0.000000 0.000000 0.058960 0.000000 0.000000
# 5 0.000000 0.000000 0.000000 0.000000 0.072598 0.000000
# 6 0.000000 0.000000 0.000000 0.000000 0.000000 0.046156
#
#
# Mechanical properties :
#
#
# Convention : Reuss Voigt Hill
#
# Bulk Modulus (GPa) = 35.76386 47.37817 41.57102
# Shear Modulus (GPa) = 17.49043 19.20791 18.34917
#
# Velocity S-wave (km/s) = 3.25682 3.41298 3.33581
# Velocity P-wave (km/s) = 5.98590 6.65306 6.32828
#
# Compressibility (1/GPa) = 0.02796119
#
# Stress axis : x y z
#
# Youngs Moduli (GPa) = 33.70865 61.21830 57.47834
#
# Poissons Ratio (x) = 0.58881 0.00842
# Poissons Ratio (y) = 0.32422 0.45718
# Poissons Ratio (z) = 0.00494 0.48693
#
# Static dielectric constant tensor:
#      x y z
#    x 2.992730 0.000000 0.000000 
#    y 0.000000 2.930120 0.000000 
#    z 0.000000 0.000000 3.374250 
# 
# 
# High freq. dielectric constant tensor:
#      x y z
#    x 1.619770 0.000000 0.000000 
#    y 0.000000 1.605810 0.000000 
#    z 0.000000 0.000000 1.634540 
# 
# From -- ./inp_files/60276.got.cif
#   From: 2010.03.12/outbox.cif.g09.slc.cpg/sg63_31_cif.got.tgz:60276.got - 2010.04.10 19:34:48.
