data_PCOD8255679
_publ_section_title
;
Structure prediction by ZEFSAII (Michael W. Deem and Ramdas Pophale) SiO2 
 PCOD8255679
Probable space group: C M C M
;
_chemical_formula_sum "Si O2"
_cell_formula_units_Z 96
_cell_length_a 9.081555
_cell_length_b 30.292995
_cell_length_c 21.511583
_cell_angle_alpha 90.000000
_cell_angle_beta 90.000000
_cell_angle_gamma 90.000000
_cell_volume 5917.997825
_symmetry_space_group_name_H-M "C M C M"
_symmetry_group_IT_number 63
_symmetry_cell_setting 'orthorhombic'
loop_
_space_group_symop_operation_xyz
x,y,z
-x,-y,1/2+z
x,-y,-z
-x,y,1/2-z
-x,-y,-z
x,y,1/2-z
-x,y,z
x,-y,1/2+z
1/2+x,1/2+y,z
1/2-x,1/2-y,1/2+z
1/2+x,1/2-y,-z
1/2-x,1/2+y,1/2-z
1/2-x,1/2-y,-z
1/2+x,1/2+y,1/2-z
1/2-x,1/2+y,z
1/2+x,1/2-y,1/2+z
loop_
_atom_site_type_symbol
_atom_site_label
_atom_site_fract_x
_atom_site_fract_y
_atom_site_fract_z
Si Si1 0.672808 0.348406 0.546280
Si Si2 0.326057 0.030306 0.914024
Si Si3 0.670288 0.235635 0.061973
Si Si4 0.167485 0.830070 0.403235
Si Si5 0.825720 0.563217 0.047083
Si Si6 0.674926 0.101891 0.819933
O O1 0.500000 0.346684 0.558580
O O2 0.749402 0.308860 0.585967
O O3 0.712980 0.342732 0.473569
O O4 0.738813 0.394213 0.571730
O O5 0.500000 0.032557 0.916642
O O6 0.265115 0.058129 0.855503
O O7 0.280158 0.978753 0.909843
O O8 0.269055 0.052628 0.977472
O O9 0.500000 0.225309 0.048083
O O10 0.684939 0.277282 0.108798
O O11 0.750000 0.250000 0.000000
O O12 0.271307 0.854238 0.354316
O O13 0.000000 0.844889 0.391410
O O14 0.000000 0.572284 0.049460
O O15 0.737567 0.100645 0.750000
O O16 0.500000 0.102781 0.819843
#
# Coordination Sequence:
#
# PCOD8255679 Si02
#       6
#    16  16  16  16  16  16
#     4  10  18  27  41  66  93 116 145 179 221 268
#     4   8  15  27  42  63  86 113 150 184 220 265
#     4   9  17  28  42  62  88 117 147 176 214 260
#     4   9  18  30  42  60  88 118 146 178 217 262
#     4   9  15  26  45  62  84 119 149 179 223 268
#     4  10  19  30  46  66  87 115 151 187 219 257
#
# _framework density 16.221702000000001
#
# number of rings (size 3 to 8) (size 9 to 14) (size 15 to 20)
#    0.000    2.833    1.667    3.000    0.000    3.667 
#    0.000    2.500    0.000    0.000    0.000    1.167 
#    0.000    6.667    0.000    0.000    0.000    0.000 
#
# Total GULP energy -594847.979732 kJ/mol
# GULP energy per Si atom -12392.666244 kJ/mol
# Density = 1.618478 g / cm^3
# Si number density = 16.221702 Si / 1000 Ang^3
#
#
#
# Elastic Constant Matrix: (Units=GPa)
#
#
# Indices 1 2 3 4 5 6 
#
# 1 61.8374 49.9221 19.4604 0.0000 0.0000 0.0000
# 2 49.9221 151.8199 35.6290 0.0000 0.0000 0.0000
# 3 19.4604 35.6290 55.9505 0.0000 0.0000 0.0000
# 4 0.0000 0.0000 0.0000 15.1155 0.0000 0.0000
# 5 0.0000 0.0000 0.0000 0.0000 12.7683 0.0000
# 6 0.0000 0.0000 0.0000 0.0000 0.0000 28.7220
#
#
#
# Elastic Compliance Matrix: (Units=1/GPa)
#
#
# Indices 1 2 3 4 5 6 
#
# 1 0.022644 -0.006581 -0.003685 0.000000 0.000000 0.000000
# 2 -0.006581 0.009657 -0.003860 0.000000 0.000000 0.000000
# 3 -0.003685 -0.003860 0.021613 0.000000 0.000000 0.000000
# 4 0.000000 0.000000 0.000000 0.066157 0.000000 0.000000
# 5 0.000000 0.000000 0.000000 0.000000 0.078319 0.000000
# 6 0.000000 0.000000 0.000000 0.000000 0.000000 0.034817
#
#
# Mechanical properties :
#
#
# Convention : Reuss Voigt Hill
#
# Bulk Modulus (GPa) = 38.97022 53.29232 46.13127
# Shear Modulus (GPa) = 18.51760 22.29425 20.40592
#
# Velocity S-wave (km/s) = 3.38232 3.71124 3.55059
# Velocity P-wave (km/s) = 6.27129 7.16158 6.73117
#
# Compressibility (1/GPa) = 0.02566062
#
# Stress axis : x y z
#
# Youngs Moduli (GPa) = 44.16146 103.55460 46.26863
#
# Poissons Ratio (x) = 0.68151 0.17051
# Poissons Ratio (y) = 0.29063 0.17861
# Poissons Ratio (z) = 0.16274 0.39976
#
# Static dielectric constant tensor:
#      x y z
#    x 2.933510 0.000000 0.000000 
#    y 0.000000 3.329330 0.000000 
#    z 0.000000 0.000000 2.775870 
# 
# 
# High freq. dielectric constant tensor:
#      x y z
#    x 1.614200 0.000000 0.000000 
#    y 0.000000 1.643830 0.000000 
#    z 0.000000 0.000000 1.557610 
# 
# From -- ./inp_files/60182.got.cif
#   From: 2010.03.12/outbox.cif.g09.slc.cpg/sg63_31_cif.got.tgz:60182.got - 2010.04.10 19:34:48.
