data_PCOD8255063
_publ_section_title
;
Structure prediction by ZEFSAII (Michael W. Deem and Ramdas Pophale) SiO2 
 PCOD8255063
Probable space group: P N M A
;
_chemical_formula_sum "Si O2"
_cell_formula_units_Z 56
_cell_length_a 20.158590
_cell_length_b 8.551282
_cell_length_c 16.473983
_cell_angle_alpha 90.000000
_cell_angle_beta 90.000000
_cell_angle_gamma 90.000000
_cell_volume 2839.814642
_symmetry_space_group_name_H-M "P N M A"
_symmetry_group_IT_number 62
_symmetry_cell_setting 'orthorhombic'
loop_
_space_group_symop_operation_xyz
x,y,z
1/2-x,-y,1/2+z
1/2+x,1/2-y,1/2-z
-x,1/2+y,-z
-x,-y,-z
1/2+x,y,1/2-z
1/2-x,1/2+y,1/2+z
x,1/2-y,z
loop_
_atom_site_type_symbol
_atom_site_label
_atom_site_fract_x
_atom_site_fract_y
_atom_site_fract_z
Si Si1 0.815131 0.065320 0.997897
Si Si2 0.526097 0.433606 0.740590
Si Si3 0.205524 0.566692 0.185154
Si Si4 0.853903 0.565280 0.347923
Si Si5 0.894184 0.933021 0.689794
Si Si6 0.670686 0.063706 0.025316
Si Si7 0.549056 0.934530 0.566379
O O1 0.813632 0.250000 0.005883
O O2 0.822572 0.021079 0.903231
O O3 0.746083 0.997655 0.033758
O O4 0.877277 0.996638 0.048226
O O5 0.534050 0.250000 0.726971
O O6 0.586919 0.504439 0.793282
O O7 0.457897 0.467450 0.786234
O O8 0.524523 0.516542 0.654355
O O9 0.194972 0.750000 0.202955
O O10 0.283063 0.519765 0.190740
O O11 0.166776 0.463786 0.250181
O O12 0.860707 0.750000 0.351389
O O13 0.859919 0.500694 0.440335
O O14 0.911414 0.750000 0.690288
O O15 0.873532 0.993680 0.600348
O O16 0.674027 0.250000 0.023531
O O17 0.549246 0.750000 0.559195
O O18 0.500000 0.000000 0.500000
#
# Coordination Sequence:
#
# PCOD8255063 Si02
#       7
#     8   8   8   8   8   8   8
#     4   8  16  32  55  79 103 139 179 221 275 335
#     4  11  23  38  55  79 113 153 192 232 279 335
#     4   9  17  34  59  82 108 142 183 227 278 339
#     4   8  17  35  58  81 107 146 191 232 279 339
#     4  11  22  34  54  83 112 143 184 234 287 341
#     4   8  16  33  55  80 107 138 182 231 283 337
#     4  11  22  36  57  84 116 151 189 231 282 340
#
# _framework density 19.719597
#
# number of rings (size 3 to 8) (size 9 to 14) (size 15 to 20)
#    0.000    2.571    0.000    3.857    2.000    1.714 
#    0.000    1.429    0.000    9.429    0.000    0.000 
#    0.000    0.000    0.000    0.000    0.000    0.000 
#
# Total GULP energy -694278.185764 kJ/mol
# GULP energy per Si atom -12397.824746 kJ/mol
# Density = 1.967471 g / cm^3
# Si number density = 19.719597 Si / 1000 Ang^3
#
#
#
# Elastic Constant Matrix: (Units=GPa)
#
#
# Indices 1 2 3 4 5 6 
#
# 1 138.1364 16.5019 80.5317 0.0000 0.0000 0.0000
# 2 16.5019 31.0419 19.5794 0.0000 0.0000 0.0000
# 3 80.5317 19.5794 102.3965 0.0000 0.0000 0.0000
# 4 0.0000 0.0000 0.0000 19.9961 0.0000 0.0000
# 5 0.0000 0.0000 0.0000 0.0000 40.1311 0.0000
# 6 0.0000 0.0000 0.0000 0.0000 0.0000 16.0447
#
#
#
# Elastic Compliance Matrix: (Units=1/GPa)
#
#
# Indices 1 2 3 4 5 6 
#
# 1 0.013377 -0.000541 -0.010417 0.000000 0.000000 0.000000
# 2 -0.000541 0.036654 -0.006584 0.000000 0.000000 0.000000
# 3 -0.010417 -0.006584 0.019218 0.000000 0.000000 0.000000
# 4 0.000000 0.000000 0.000000 0.050010 0.000000 0.000000
# 5 0.000000 0.000000 0.000000 0.000000 0.024918 0.000000
# 6 0.000000 0.000000 0.000000 0.000000 0.000000 0.062326
#
#
# Mechanical properties :
#
#
# Convention : Reuss Voigt Hill
#
# Bulk Modulus (GPa) = 29.26868 56.08898 42.67883
# Shear Modulus (GPa) = 19.76487 25.56517 22.66502
#
# Velocity S-wave (km/s) = 3.16934 3.60451 3.39391
# Velocity P-wave (km/s) = 5.31673 6.76966 6.08670
#
# Compressibility (1/GPa) = 0.03416621
#
# Stress axis : x y z
#
# Youngs Moduli (GPa) = 74.75617 27.28184 52.03589
#
# Poissons Ratio (x) = 0.01475 0.54206
# Poissons Ratio (y) = 0.04042 0.34258
# Poissons Ratio (z) = 0.77874 0.17961
#
# Static dielectric constant tensor:
#      x y z
#    x 3.994330 0.000000 0.000000 
#    y 0.000000 3.133360 0.000000 
#    z 0.000000 0.000000 3.847110 
# 
# 
# High freq. dielectric constant tensor:
#      x y z
#    x 1.779940 0.000000 0.000000 
#    y 0.000000 1.728480 0.000000 
#    z 0.000000 0.000000 1.776460 
# 
# From -- ./inp_files/20233.got.cif
#   From: 2010.03.12/outbox.cif.g09.slc.cpg/sg62_11_cif.got.tgz:20233.got - 2010.04.10 19:12:36.
