data_PCOD8255021
_publ_section_title
;
Structure prediction by ZEFSAII (Michael W. Deem and Ramdas Pophale) SiO2 
 PCOD8255021
Probable space group: P N M A
;
_chemical_formula_sum "Si O2"
_cell_formula_units_Z 64
_cell_length_a 8.889153
_cell_length_b 29.905641
_cell_length_c 13.570951
_cell_angle_alpha 90.000000
_cell_angle_beta 90.000000
_cell_angle_gamma 90.000000
_cell_volume 3607.644866
_symmetry_space_group_name_H-M "P N M A"
_symmetry_group_IT_number 62
_symmetry_cell_setting 'orthorhombic'
loop_
_space_group_symop_operation_xyz
x,y,z
1/2-x,-y,1/2+z
1/2+x,1/2-y,1/2-z
-x,1/2+y,-z
-x,-y,-z
1/2+x,y,1/2-z
1/2-x,1/2+y,1/2+z
x,1/2-y,z
loop_
_atom_site_type_symbol
_atom_site_label
_atom_site_fract_x
_atom_site_fract_y
_atom_site_fract_z
Si Si1 0.227030 0.471661 0.658540
Si Si2 0.936612 0.700509 0.713654
Si Si3 0.903846 0.606509 0.653865
Si Si4 0.814906 0.111265 0.480610
Si Si5 0.758258 0.201004 0.389581
Si Si6 0.298099 0.465236 0.436848
Si Si7 0.395230 0.557952 0.646694
Si Si8 0.376830 0.048790 0.850528
O O1 0.297965 0.458517 0.554113
O O2 0.267926 0.523162 0.684266
O O3 0.302976 0.441936 0.744305
O O4 0.049220 0.465166 0.661082
O O5 0.880403 0.750000 0.677392
O O6 0.861374 0.659385 0.653447
O O7 0.898534 0.694904 0.830196
O O8 0.115696 0.696438 0.696666
O O9 0.764959 0.580320 0.608682
O O10 0.939909 0.590544 0.764580
O O11 0.051629 0.596459 0.591154
O O12 0.784035 0.164640 0.475759
O O13 0.664422 0.086830 0.444646
O O14 0.857965 0.095367 0.590269
O O15 0.765796 0.250000 0.440166
O O16 0.465292 0.470979 0.394304
O O17 0.202046 0.508890 0.410605
#
# Coordination Sequence:
#
# PCOD8255021 Si02
#       8
#     8   8   8   8   8   8   8   8
#     4  12  25  40  56  76 108 148 188 234 277 318
#     4   9  18  31  51  79 111 141 178 218 262 328
#     4  11  21  36  54  80 113 154 183 218 277 323
#     4  11  22  37  55  80 115 147 186 226 272 330
#     4   9  18  33  55  83 112 144 178 218 273 331
#     4  12  24  37  56  80 113 147 190 227 273 332
#     4  12  23  33  56  83 112 150 186 223 267 333
#     4  12  25  40  57  76 107 147 190 239 277 322
#
# _framework density 17.740105
#
# number of rings (size 3 to 8) (size 9 to 14) (size 15 to 20)
#    0.000    1.000    5.000    3.000    3.500    0.000 
#    0.000    0.000    0.000    0.000    0.000    1.750 
#    0.000    0.000    0.000    0.000    0.000    0.000 
#
# Total GULP energy -793446.522596 kJ/mol
# GULP energy per Si atom -12397.601916 kJ/mol
# Density = 1.769973 g / cm^3
# Si number density = 17.740105 Si / 1000 Ang^3
#
#
#
# Elastic Constant Matrix: (Units=GPa)
#
#
# Indices 1 2 3 4 5 6 
#
# 1 80.4006 41.9724 36.5380 0.0000 0.0000 0.0000
# 2 41.9724 115.2051 45.4345 0.0000 0.0000 0.0000
# 3 36.5380 45.4345 107.7227 0.0000 0.0000 0.0000
# 4 0.0000 0.0000 0.0000 23.3580 0.0000 0.0000
# 5 0.0000 0.0000 0.0000 0.0000 21.6086 0.0000
# 6 0.0000 0.0000 0.0000 0.0000 0.0000 11.5359
#
#
#
# Elastic Compliance Matrix: (Units=1/GPa)
#
#
# Indices 1 2 3 4 5 6 
#
# 1 0.016485 -0.004559 -0.003669 0.000000 0.000000 0.000000
# 2 -0.004559 0.011673 -0.003377 0.000000 0.000000 0.000000
# 3 -0.003669 -0.003377 0.011952 0.000000 0.000000 0.000000
# 4 0.000000 0.000000 0.000000 0.042812 0.000000 0.000000
# 5 0.000000 0.000000 0.000000 0.000000 0.046278 0.000000
# 6 0.000000 0.000000 0.000000 0.000000 0.000000 0.086686
#
#
# Mechanical properties :
#
#
# Convention : Reuss Voigt Hill
#
# Bulk Modulus (GPa) = 59.17020 61.24647 60.20834
# Shear Modulus (GPa) = 20.43083 23.25940 21.84512
#
# Velocity S-wave (km/s) = 3.39731 3.62487 3.51293
# Velocity P-wave (km/s) = 6.98680 7.21934 7.10402
#
# Compressibility (1/GPa) = 0.01690040
#
# Stress axis : x y z
#
# Youngs Moduli (GPa) = 60.66139 85.66790 83.66992
#
# Poissons Ratio (x) = 0.39057 0.30695
# Poissons Ratio (y) = 0.27656 0.28255
# Poissons Ratio (z) = 0.22254 0.28930
#
# Static dielectric constant tensor:
#      x y z
#    x 3.379870 0.000000 0.000000 
#    y 0.000000 3.408840 0.000000 
#    z 0.000000 0.000000 3.206100 
# 
# 
# High freq. dielectric constant tensor:
#      x y z
#    x 1.695220 0.000000 0.000000 
#    y 0.000000 1.677220 0.000000 
#    z 0.000000 0.000000 1.658460 
# 
# From -- ./inp_files/17434.got.cif
#   From: 2010.03.12/outbox.cif.g09.slc.cpg/sg62_9_cif.got.tgz:17434.got - 2010.04.10 19:12:36.
