data_PCOD8255572
_publ_section_title
;
Structure prediction by ZEFSAII (Michael W. Deem and Ramdas Pophale) SiO2 
 PCOD8255572
Probable space group: C M C M
;
_chemical_formula_sum "Si O2"
_cell_formula_units_Z 112
_cell_length_a 22.116549
_cell_length_b 18.987607
_cell_length_c 15.011197
_cell_angle_alpha 90.000000
_cell_angle_beta 90.000000
_cell_angle_gamma 90.000000
_cell_volume 6303.807181
_symmetry_space_group_name_H-M "C M C M"
_symmetry_group_IT_number 63
_symmetry_cell_setting 'orthorhombic'
loop_
_space_group_symop_operation_xyz
x,y,z
-x,-y,1/2+z
x,-y,-z
-x,y,1/2-z
-x,-y,-z
x,y,1/2-z
-x,y,z
x,-y,1/2+z
1/2+x,1/2+y,z
1/2-x,1/2-y,1/2+z
1/2+x,1/2-y,-z
1/2-x,1/2+y,1/2-z
1/2-x,1/2-y,-z
1/2+x,1/2+y,1/2-z
1/2-x,1/2+y,z
1/2+x,1/2-y,1/2+z
loop_
_atom_site_type_symbol
_atom_site_label
_atom_site_fract_x
_atom_site_fract_y
_atom_site_fract_z
Si Si1 0.253427 0.340771 0.354075
Si Si2 0.932510 0.438843 0.427755
Si Si3 0.665149 0.719651 0.355334
Si Si4 0.359974 0.753134 0.853615
Si Si5 0.269955 0.124311 0.144810
Si Si6 0.691808 0.975965 0.352706
Si Si7 0.568720 0.779106 0.480292
O O1 0.241036 0.344762 0.250000
O O2 0.208622 0.281470 0.390553
O O3 0.323121 0.319660 0.371740
O O4 0.234157 0.415470 0.397551
O O5 0.930455 0.500000 0.500000
O O6 0.879411 0.457280 0.358582
O O7 0.918797 0.362353 0.469208
O O8 0.000000 0.438749 0.383034
O O9 0.650723 0.723360 0.250000
O O10 0.701042 0.647174 0.380280
O O11 0.604093 0.729109 0.410848
O O12 0.379918 0.758898 0.750000
O O13 0.317208 0.816724 0.885515
O O14 0.417591 0.756052 0.917881
O O15 0.274669 0.119960 0.250000
O O16 0.289742 0.049894 0.100303
O O17 0.708410 0.982787 0.250000
O O18 0.500000 0.760939 0.460949
#
# Coordination Sequence:
#
# PCOD8255572 Si02
#       7
#    16  16  16  16  16  16  16
#     4   8  15  28  49  73  96 122 156 204 257 297
#     4  10  21  34  43  63 104 139 167 205 237 278
#     4   9  17  33  50  72 104 130 157 207 256 295
#     4   9  18  34  50  68  97 129 163 212 260 293
#     4   8  16  29  50  74  98 129 165 203 253 303
#     4  10  17  30  50  73  97 126 166 204 239 299
#     4  11  22  33  50  73  96 135 180 205 239 302
#
# _framework density 17.767040999999999
#
# number of rings (size 3 to 8) (size 9 to 14) (size 15 to 20)
#    0.000    2.714    1.429    2.571    0.000    3.143 
#    2.571    1.429    0.000    5.143    0.000    2.000 
#    0.000    5.714    0.000    0.000    0.000    0.143 
#
# Total GULP energy -693767.056080 kJ/mol
# GULP energy per Si atom -12388.697430 kJ/mol
# Density = 1.772660 g / cm^3
# Si number density = 17.767041 Si / 1000 Ang^3
#
#
#
# Elastic Constant Matrix: (Units=GPa)
#
#
# Indices 1 2 3 4 5 6 
#
# 1 82.5414 38.8897 29.1315 0.0000 0.0000 0.0000
# 2 38.8897 85.4358 14.1539 0.0000 0.0000 0.0000
# 3 29.1315 14.1539 48.3244 0.0000 0.0000 0.0000
# 4 0.0000 0.0000 0.0000 15.2140 0.0000 0.0000
# 5 0.0000 0.0000 0.0000 0.0000 26.3568 0.0000
# 6 0.0000 0.0000 0.0000 0.0000 0.0000 28.0444
#
#
#
# Elastic Compliance Matrix: (Units=1/GPa)
#
#
# Indices 1 2 3 4 5 6 
#
# 1 0.018642 -0.006962 -0.009199 0.000000 0.000000 0.000000
# 2 -0.006962 0.014901 -0.000168 0.000000 0.000000 0.000000
# 3 -0.009199 -0.000168 0.026288 0.000000 0.000000 0.000000
# 4 0.000000 0.000000 0.000000 0.065729 0.000000 0.000000
# 5 0.000000 0.000000 0.000000 0.000000 0.037941 0.000000
# 6 0.000000 0.000000 0.000000 0.000000 0.000000 0.035658
#
#
# Mechanical properties :
#
#
# Convention : Reuss Voigt Hill
#
# Bulk Modulus (GPa) = 36.79914 42.29465 39.54690
# Shear Modulus (GPa) = 20.75780 22.86480 21.81130
#
# Velocity S-wave (km/s) = 3.42180 3.59126 3.50755
# Velocity P-wave (km/s) = 6.03064 6.40726 6.22180
#
# Compressibility (1/GPa) = 0.02717455
#
# Stress axis : x y z
#
# Youngs Moduli (GPa) = 53.64324 67.10791 38.04019
#
# Poissons Ratio (x) = 0.46718 0.34992
# Poissons Ratio (y) = 0.37344 0.00638
# Poissons Ratio (z) = 0.49345 0.01126
#
# Static dielectric constant tensor:
#      x y z
#    x 3.258960 0.000000 0.000000 
#    y 0.000000 3.874260 0.000000 
#    z 0.000000 0.000000 3.029730 
# 
# 
# High freq. dielectric constant tensor:
#      x y z
#    x 1.665940 0.000000 0.000000 
#    y 0.000000 1.677710 0.000000 
#    z 0.000000 0.000000 1.674300 
# 
# From -- ./inp_files/46118.got.cif
#   From: 2010.03.12/outbox.cif.g09.slc.cpg/sg63_24_cif.got.tgz:46118.got - 2010.04.10 19:34:48.
