data_PCOD8255276
_publ_section_title
;
Structure prediction by ZEFSAII (Michael W. Deem and Ramdas Pophale) SiO2 
 PCOD8255276
Probable space group: P N M A
;
_chemical_formula_sum "Si O2"
_cell_formula_units_Z 64
_cell_length_a 9.768989
_cell_length_b 9.697169
_cell_length_c 40.988726
_cell_angle_alpha 90.000000
_cell_angle_beta 90.000000
_cell_angle_gamma 90.000000
_cell_volume 3882.925026
_symmetry_space_group_name_H-M "P N M A"
_symmetry_group_IT_number 62
_symmetry_cell_setting 'orthorhombic'
loop_
_space_group_symop_operation_xyz
x,y,z
1/2-x,-y,1/2+z
1/2+x,1/2-y,1/2-z
-x,1/2+y,-z
-x,-y,-z
1/2+x,y,1/2-z
1/2-x,1/2+y,1/2+z
x,1/2-y,z
loop_
_atom_site_type_symbol
_atom_site_label
_atom_site_fract_x
_atom_site_fract_y
_atom_site_fract_z
Si Si1 0.652296 0.585896 0.099887
Si Si2 0.158331 0.589827 0.158063
Si Si3 0.162928 0.096634 0.528233
Si Si4 0.152298 0.085896 0.599887
Si Si5 0.157895 0.408991 0.219565
Si Si6 0.342105 0.091009 0.280435
Si Si7 0.158333 0.089827 0.841937
Si Si8 0.337073 0.403366 0.971767
O O1 0.648202 0.750000 0.099276
O O2 0.499999 0.528455 0.107583
O O3 0.756117 0.532288 0.127394
O O4 0.702705 0.536457 0.064012
O O5 0.189901 0.750000 0.165119
O O6 0.243880 0.532288 0.127394
O O7 0.203833 0.503024 0.189418
O O8 0.999999 0.565809 0.149756
O O9 0.223741 0.250000 0.523312
O O10 0.202707 0.036457 0.564011
O O11 0.000000 0.102580 0.525766
O O12 0.225721 0.000000 0.500000
O O13 0.148203 0.250000 0.599275
O O14 0.183375 0.250000 0.210124
O O15 0.000000 0.435420 0.228814
O O16 0.250001 0.453891 0.250000
O O17 0.316625 0.250000 0.289876
O O18 0.296167 0.996976 0.310582
O O19 0.189903 0.250000 0.834881
O O20 0.276259 0.250000 0.976688
#
# Coordination Sequence:
#
# PCOD8255276 Si02
#       8
#     8   8   8   8   8   8   8   8
#     4   8  14  25  41  61  84 109 136 167 205 245
#     4   9  17  29  45  64  84 107 137 170 202 239
#     4   8  13  22  37  56  78 104 133 165 201 239
#     4   8  14  25  41  61  84 109 136 167 205 245
#     4   9  18  32  47  62  83 111 138 164 200 245
#     4   9  18  32  47  62  83 111 138 164 200 245
#     4   9  17  29  45  64  84 107 137 170 202 239
#     4   8  13  22  37  56  78 104 133 165 201 239
#
# _framework density 16.482420999999999
#
# number of rings (size 3 to 8) (size 9 to 14) (size 15 to 20)
#    0.000    3.500    0.000    1.500    0.000    1.500 
#    0.000    1.250    0.000    2.250    0.000    0.000 
#    0.000    0.000    0.000    0.000    0.000    0.000 
#
# Total GULP energy -793290.421835 kJ/mol
# GULP energy per Si atom -12395.162841 kJ/mol
# Density = 1.644491 g / cm^3
# Si number density = 16.482421 Si / 1000 Ang^3
#
#
#
# Elastic Constant Matrix: (Units=GPa)
#
#
# Indices 1 2 3 4 5 6 
#
# 1 54.9347 29.4144 72.4274 0.0000 0.0000 0.0000
# 2 29.4144 53.2997 66.0556 0.0000 0.0000 0.0000
# 3 72.4274 66.0556 182.1861 0.0000 0.0000 0.0000
# 4 0.0000 0.0000 0.0000 29.7787 0.0000 0.0000
# 5 0.0000 0.0000 0.0000 0.0000 26.0046 0.0000
# 6 0.0000 0.0000 0.0000 0.0000 0.0000 13.1892
#
#
#
# Elastic Compliance Matrix: (Units=1/GPa)
#
#
# Indices 1 2 3 4 5 6 
#
# 1 0.038756 -0.004165 -0.013897 0.000000 0.000000 0.000000
# 2 -0.004165 0.034519 -0.010860 0.000000 0.000000 0.000000
# 3 -0.013897 -0.010860 0.014951 0.000000 0.000000 0.000000
# 4 0.000000 0.000000 0.000000 0.033581 0.000000 0.000000
# 5 0.000000 0.000000 0.000000 0.000000 0.038455 0.000000
# 6 0.000000 0.000000 0.000000 0.000000 0.000000 0.075820
#
#
# Mechanical properties :
#
#
# Convention : Reuss Voigt Hill
#
# Bulk Modulus (GPa) = 32.91410 69.57950 51.24680
# Shear Modulus (GPa) = 16.44445 21.96270 19.20358
#
# Velocity S-wave (km/s) = 3.16206 3.65429 3.41705
# Velocity P-wave (km/s) = 5.77443 7.75314 6.83576
#
# Compressibility (1/GPa) = 0.03038212
#
# Stress axis : x y z
#
# Youngs Moduli (GPa) = 25.80244 28.96918 66.88445
#
# Poissons Ratio (x) = 0.12066 0.92950
# Poissons Ratio (y) = 0.10747 0.72636
# Poissons Ratio (z) = 0.35858 0.31460
#
# Static dielectric constant tensor:
#      x y z
#    x 2.962360 0.000000 0.000000 
#    y 0.000000 2.999550 0.000000 
#    z 0.000000 0.000000 3.384110 
# 
# 
# High freq. dielectric constant tensor:
#      x y z
#    x 1.605950 0.000000 0.000000 
#    y 0.000000 1.607850 0.000000 
#    z 0.000000 0.000000 1.644160 
# 
# From -- ./inp_files/32221.got.cif
#   From: 2010.03.12/outbox.cif.g09.slc.cpg/sg62_17_cif.got.tgz:32221.got - 2010.04.10 19:12:36.
