data_PCOD8255280
_publ_section_title
;
Structure prediction by ZEFSAII (Michael W. Deem and Ramdas Pophale) SiO2 
 PCOD8255280
Probable space group: P N M A
;
_chemical_formula_sum "Si O2"
_cell_formula_units_Z 40
_cell_length_a 9.272973
_cell_length_b 8.996915
_cell_length_c 26.247142
_cell_angle_alpha 90.000000
_cell_angle_beta 90.000000
_cell_angle_gamma 90.000000
_cell_volume 2189.750497
_symmetry_space_group_name_H-M "P N M A"
_symmetry_group_IT_number 62
_symmetry_cell_setting 'orthorhombic'
loop_
_space_group_symop_operation_xyz
x,y,z
1/2-x,-y,1/2+z
1/2+x,1/2-y,1/2-z
-x,1/2+y,-z
-x,-y,-z
1/2+x,y,1/2-z
1/2-x,1/2+y,1/2+z
x,1/2-y,z
loop_
_atom_site_type_symbol
_atom_site_label
_atom_site_fract_x
_atom_site_fract_y
_atom_site_fract_z
Si Si1 0.846489 0.423659 0.497329
Si Si2 0.678807 0.426430 0.898797
Si Si3 0.848436 0.073248 0.800065
Si Si4 0.826697 0.572286 0.202877
Si Si5 0.352340 0.423091 0.891211
O O1 0.863975 0.250000 0.486173
O O2 0.758515 0.500332 0.451075
O O3 0.776606 0.450434 0.553482
O O4 0.000000 0.500000 0.500000
O O5 0.683664 0.250000 0.905315
O O6 0.777229 0.482751 0.852466
O O7 0.515812 0.485835 0.889252
O O8 0.848559 0.250000 0.798652
O O9 0.755887 0.012093 0.752660
O O10 0.010479 0.010275 0.796341
O O11 0.829230 0.750000 0.201895
O O12 0.746255 0.505705 0.152992
O O13 0.365466 0.250000 0.879573
#
# Coordination Sequence:
#
# PCOD8255280 Si02
#       5
#     8   8   8   8   8
#     4   9  16  27  44  66  89 117 148 180 215 257
#     4   9  16  27  42  64  90 116 144 177 213 257
#     4   9  16  24  38  60  87 113 141 177 220 261
#     4   9  15  24  38  60  87 114 141 178 223 262
#     4   8  14  24  39  58  84 112 141 174 212 253
#
# _framework density 18.266922999999998
#
# number of rings (size 3 to 8) (size 9 to 14) (size 15 to 20)
#    0.000    3.200    0.000    3.000    0.000    4.800 
#    0.000    1.000    0.000    0.000    0.000   19.600 
#    0.000    0.000    0.000    0.000    0.000    0.000 
#
# Total GULP energy -495635.601440 kJ/mol
# GULP energy per Si atom -12390.890036 kJ/mol
# Density = 1.822535 g / cm^3
# Si number density = 18.266923 Si / 1000 Ang^3
#
#
#
# Elastic Constant Matrix: (Units=GPa)
#
#
# Indices 1 2 3 4 5 6 
#
# 1 105.9352 10.6789 69.8619 0.0000 0.0000 0.0000
# 2 10.6789 26.3415 29.9015 0.0000 0.0000 0.0000
# 3 69.8619 29.9015 176.7876 0.0000 0.0000 0.0000
# 4 0.0000 0.0000 0.0000 23.3531 0.0000 0.0000
# 5 0.0000 0.0000 0.0000 0.0000 32.9675 0.0000
# 6 0.0000 0.0000 0.0000 0.0000 0.0000 7.0616
#
#
#
# Elastic Compliance Matrix: (Units=1/GPa)
#
#
# Indices 1 2 3 4 5 6 
#
# 1 0.012777 0.000683 -0.005165 0.000000 0.000000 0.000000
# 2 0.000683 0.047020 -0.008223 0.000000 0.000000 0.000000
# 3 -0.005165 -0.008223 0.009088 0.000000 0.000000 0.000000
# 4 0.000000 0.000000 0.000000 0.042821 0.000000 0.000000
# 5 0.000000 0.000000 0.000000 0.000000 0.030333 0.000000
# 6 0.000000 0.000000 0.000000 0.000000 0.000000 0.141612
#
#
# Mechanical properties :
#
#
# Convention : Reuss Voigt Hill
#
# Bulk Modulus (GPa) = 23.00113 58.88320 40.94217
# Shear Modulus (GPa) = 15.45348 25.91789 20.68568
#
# Velocity S-wave (km/s) = 2.91173 3.77084 3.36878
# Velocity P-wave (km/s) = 4.89114 7.15988 6.13136
#
# Compressibility (1/GPa) = 0.04347612
#
# Stress axis : x y z
#
# Youngs Moduli (GPa) = 78.26677 21.26753 110.03313
#
# Poissons Ratio (x) = -0.01452 0.56827
# Poissons Ratio (y) = -0.05344 0.90477
# Poissons Ratio (z) = 0.40421 0.17488
#
# Static dielectric constant tensor:
#      x y z
#    x 3.286930 0.000000 0.000000 
#    y 0.000000 2.848090 0.000000 
#    z 0.000000 0.000000 3.965400 
# 
# 
# High freq. dielectric constant tensor:
#      x y z
#    x 1.681240 0.000000 0.000000 
#    y 0.000000 1.639530 0.000000 
#    z 0.000000 0.000000 1.735400 
# 
# From -- ./inp_files/30662.got.cif
#   From: 2010.03.12/outbox.cif.g09.slc.cpg/sg62_16_cif.got.tgz:30662.got - 2010.04.10 19:12:36.
