data_PCOD8255205
_publ_section_title
;
Structure prediction by ZEFSAII (Michael W. Deem and Ramdas Pophale) SiO2 
 PCOD8255205
Probable space group: P N M A
;
_chemical_formula_sum "Si O2"
_cell_formula_units_Z 48
_cell_length_a 15.221766
_cell_length_b 15.858661
_cell_length_c 8.457371
_cell_angle_alpha 90.000000
_cell_angle_beta 90.000000
_cell_angle_gamma 90.000000
_cell_volume 2041.582523
_symmetry_space_group_name_H-M "P N M A"
_symmetry_group_IT_number 62
_symmetry_cell_setting 'orthorhombic'
loop_
_space_group_symop_operation_xyz
x,y,z
1/2-x,-y,1/2+z
1/2+x,1/2-y,1/2-z
-x,1/2+y,-z
-x,-y,-z
1/2+x,y,1/2-z
1/2-x,1/2+y,1/2+z
x,1/2-y,z
loop_
_atom_site_type_symbol
_atom_site_label
_atom_site_fract_x
_atom_site_fract_y
_atom_site_fract_z
Si Si1 0.685574 0.345658 0.195093
Si Si2 0.897463 0.994918 0.493689
Si Si3 0.644850 0.553817 0.663021
Si Si4 0.465274 0.154321 0.545586
Si Si5 0.657886 0.384115 0.552565
Si Si6 0.836574 0.156825 0.670849
O O1 0.673272 0.250000 0.129570
O O2 0.787589 0.370272 0.186564
O O3 0.631947 0.412604 0.090442
O O4 0.657194 0.345139 0.377602
O O5 0.866399 0.992025 0.313080
O O6 0.861654 0.084677 0.550166
O O7 0.000000 0.000000 0.500000
O O8 0.052942 0.904446 0.892519
O O9 0.678004 0.484649 0.534494
O O10 0.466398 0.250000 0.488909
O O11 0.559272 0.130709 0.622797
O O12 0.382464 0.136841 0.661900
O O13 0.729493 0.341669 0.670936
O O14 0.869145 0.250000 0.615434
#
# Coordination Sequence:
#
# PCOD8255205 Si02
#       6
#     8   8   8   8   8   8
#     4  12  25  45  72 104 144 194 245 297 363 438
#     4  12  26  45  71 105 147 187 241 302 362 432
#     4  12  24  44  71 103 145 190 238 299 362 429
#     4  11  25  44  71 108 145 191 247 299 363 439
#     4  12  24  46  74 101 142 196 246 296 368 439
#     4  11  24  44  71 104 146 189 244 303 362 431
#
# _framework density 23.511172999999999
#
# number of rings (size 3 to 8) (size 9 to 14) (size 15 to 20)
#    0.000    0.333    3.333    5.500    2.333    1.333 
#    0.000    1.667    0.000    0.000    0.000    0.000 
#    0.000    0.000    0.000    0.000    0.000    0.000 
#
# Total GULP energy -594983.707544 kJ/mol
# GULP energy per Si atom -12395.493907 kJ/mol
# Density = 2.345766 g / cm^3
# Si number density = 23.511173 Si / 1000 Ang^3
#
#
#
# Elastic Constant Matrix: (Units=GPa)
#
#
# Indices 1 2 3 4 5 6 
#
# 1 158.2871 46.4797 56.6466 0.0000 0.0000 0.0000
# 2 46.4797 183.9403 47.4493 0.0000 0.0000 0.0000
# 3 56.6466 47.4493 83.1624 0.0000 0.0000 0.0000
# 4 0.0000 0.0000 0.0000 24.2899 0.0000 0.0000
# 5 0.0000 0.0000 0.0000 0.0000 35.1189 0.0000
# 6 0.0000 0.0000 0.0000 0.0000 0.0000 28.5541
#
#
#
# Elastic Compliance Matrix: (Units=1/GPa)
#
#
# Indices 1 2 3 4 5 6 
#
# 1 0.008444 -0.000762 -0.005317 0.000000 0.000000 0.000000
# 2 -0.000762 0.006444 -0.003157 0.000000 0.000000 0.000000
# 3 -0.005317 -0.003157 0.017448 0.000000 0.000000 0.000000
# 4 0.000000 0.000000 0.000000 0.041169 0.000000 0.000000
# 5 0.000000 0.000000 0.000000 0.000000 0.028475 0.000000
# 6 0.000000 0.000000 0.000000 0.000000 0.000000 0.035021
#
#
# Mechanical properties :
#
#
# Convention : Reuss Voigt Hill
#
# Bulk Modulus (GPa) = 72.13602 80.72679 76.43141
# Shear Modulus (GPa) = 31.23148 35.91352 33.57250
#
# Velocity S-wave (km/s) = 3.64863 3.91258 3.78291
# Velocity P-wave (km/s) = 6.96407 7.40412 7.18746
#
# Compressibility (1/GPa) = 0.01386270
#
# Stress axis : x y z
#
# Youngs Moduli (GPa) = 118.42385 155.19257 57.31382
#
# Poissons Ratio (x) = 0.11829 0.30474
# Poissons Ratio (y) = 0.09026 0.18096
# Poissons Ratio (z) = 0.62966 0.48999
#
# Static dielectric constant tensor:
#      x y z
#    x 4.410970 0.000000 0.000000 
#    y 0.000000 4.373660 0.000000 
#    z 0.000000 0.000000 4.206230 
# 
# 
# High freq. dielectric constant tensor:
#      x y z
#    x 1.941190 0.000000 0.000000 
#    y 0.000000 1.953390 0.000000 
#    z 0.000000 0.000000 1.910130 
# 
# From -- ./inp_files/13461.got.cif
#   From: 2010.03.12/outbox.cif.g09.slc.cpg/sg62_7_cif.got.tgz:13461.got - 2010.04.10 19:12:36.
