data_PCOD8255935
_publ_section_title
;
Structure prediction by ZEFSAII (Michael W. Deem and Ramdas Pophale) SiO2 
 PCOD8255935
Probable space group: C M C M
;
_chemical_formula_sum "Si O2"
_cell_formula_units_Z 80
_cell_length_a 9.641814
_cell_length_b 19.741756
_cell_length_c 24.082685
_cell_angle_alpha 90.000000
_cell_angle_beta 90.000000
_cell_angle_gamma 90.000000
_cell_volume 4584.050932
_symmetry_space_group_name_H-M "C M C M"
_symmetry_group_IT_number 63
_symmetry_cell_setting 'orthorhombic'
loop_
_space_group_symop_operation_xyz
x,y,z
-x,-y,1/2+z
x,-y,-z
-x,y,1/2-z
-x,-y,-z
x,y,1/2-z
-x,y,z
x,-y,1/2+z
1/2+x,1/2+y,z
1/2-x,1/2-y,1/2+z
1/2+x,1/2-y,-z
1/2-x,1/2+y,1/2-z
1/2-x,1/2-y,-z
1/2+x,1/2+y,1/2-z
1/2-x,1/2+y,z
1/2+x,1/2-y,1/2+z
loop_
_atom_site_type_symbol
_atom_site_label
_atom_site_fract_x
_atom_site_fract_y
_atom_site_fract_z
Si Si1 0.000000 0.314292 0.423634
Si Si2 0.272681 0.103959 0.098437
Si Si3 0.000000 0.421726 0.989026
Si Si4 0.774081 0.761087 0.106838
Si Si5 0.000000 0.795842 0.481580
Si Si6 0.000000 0.062524 0.457052
Si Si7 0.000000 0.404992 0.686076
Si Si8 0.000000 0.755888 0.310525
O O1 0.000000 0.387883 0.450761
O O2 0.862904 0.306282 0.386751
O O3 0.000000 0.254399 0.467628
O O4 0.365106 0.102089 0.043540
O O5 0.233309 0.182008 0.108503
O O6 0.133495 0.061291 0.084502
O O7 0.360593 0.073381 0.151260
O O8 0.000000 0.500000 0.000000
O O9 0.863034 0.782660 0.159824
O O10 0.860243 0.780546 0.052139
O O11 0.000000 0.871971 0.503726
O O12 0.000000 0.000000 0.500000
O O13 0.000000 0.434160 0.750000
O O14 0.000000 0.324749 0.688467
O O15 0.000000 0.787436 0.250000
#
# Coordination Sequence:
#
# PCOD8255935 Si02
#       8
#     8  16   8  16   8   8   8   8
#     4  12  18  29  49  71 101 128 169 200 232 292
#     4  10  18  32  48  70 101 129 164 204 246 293
#     4  11  21  31  46  71 102 139 161 199 244 284
#     4  10  18  29  50  74  89 131 172 202 241 292
#     4  11  18  31  49  67  99 136 169 189 233 294
#     4  12  23  31  44  73 110 143 158 194 253 304
#     4   8  16  31  53  73  93 126 170 215 256 290
#     4   8  16  31  48  71 102 124 158 213 265 296
#
# _framework density 17.451813000000001
#
# number of rings (size 3 to 8) (size 9 to 14) (size 15 to 20)
#    0.000    1.800    4.000    3.600    0.000    0.000 
#    0.000    1.000    0.000    4.800    0.000   22.400 
#    0.000    0.000    0.000    0.000    0.000    0.000 
#
# Total GULP energy -495779.412689 kJ/mol
# GULP energy per Si atom -12394.485317 kJ/mol
# Density = 1.741209 g / cm^3
# Si number density = 17.451813 Si / 1000 Ang^3
#
#
#
# Elastic Constant Matrix: (Units=GPa)
#
#
# Indices 1 2 3 4 5 6 
#
# 1 155.1373 22.6330 61.9060 0.0000 0.0000 0.0000
# 2 22.6330 70.0245 26.9201 0.0000 0.0000 0.0000
# 3 61.9060 26.9201 108.1703 0.0000 0.0000 0.0000
# 4 0.0000 0.0000 0.0000 14.1248 0.0000 0.0000
# 5 0.0000 0.0000 0.0000 0.0000 -48.8858 0.0000
# 6 0.0000 0.0000 0.0000 0.0000 0.0000 8.6825
#
#
#
# Elastic Compliance Matrix: (Units=1/GPa)
#
#
# Indices 1 2 3 4 5 6 
#
# 1 0.008412 -0.000960 -0.004575 0.000000 0.000000 0.000000
# 2 -0.000960 0.015901 -0.003408 0.000000 0.000000 0.000000
# 3 -0.004575 -0.003408 0.012711 0.000000 0.000000 0.000000
# 4 0.000000 0.000000 0.000000 0.070798 0.000000 0.000000
# 5 0.000000 0.000000 0.000000 0.000000 -0.020456 0.000000
# 6 0.000000 0.000000 0.000000 0.000000 0.000000 0.115174
#
#
# Mechanical properties :
#
#
# Convention : Reuss Voigt Hill
#
# Bulk Modulus (GPa) = 52.25205 61.80560 57.02882
# Shear Modulus (GPa) = 22.04538 9.57582 15.81060
#
# Velocity S-wave (km/s) = 3.55803 2.34498 3.01318
# Velocity P-wave (km/s) = 6.84728 6.54399 6.69735
#
# Compressibility (1/GPa) = 0.01913801
#
# Stress axis : x y z
#
# Youngs Moduli (GPa) = 118.88375 62.88872 78.67128
#
# Poissons Ratio (x) = 0.06037 0.35993
# Poissons Ratio (y) = 0.11412 0.26810
# Poissons Ratio (z) = 0.54390 0.21432
#
# Static dielectric constant tensor:
#      x y z
#    x 3.026780 0.000000 0.000000 
#    y 0.000000 2.978540 0.000000 
#    z 0.000000 0.000000 3.472730 
# 
# 
# High freq. dielectric constant tensor:
#      x y z
#    x 1.689940 0.000000 0.000000 
#    y 0.000000 1.638150 0.000000 
#    z 0.000000 0.000000 1.650980 
# 
# From -- ./inp_files/59601.got.cif
#   From: 2010.03.12/outbox.cif.g09.slc.cpg/sg63_30_cif.got.tgz:59601.got - 2010.04.10 19:34:48.
