data_PCOD8255548
_publ_section_title
;
Structure prediction by ZEFSAII (Michael W. Deem and Ramdas Pophale) SiO2 
 PCOD8255548
Probable space group: C M C M
;
_chemical_formula_sum "Si O2"
_cell_formula_units_Z 120
_cell_length_a 25.703087
_cell_length_b 19.842957
_cell_length_c 13.958323
_cell_angle_alpha 90.000000
_cell_angle_beta 90.000000
_cell_angle_gamma 90.000000
_cell_volume 7119.097179
_symmetry_space_group_name_H-M "C M C M"
_symmetry_group_IT_number 63
_symmetry_cell_setting 'orthorhombic'
loop_
_space_group_symop_operation_xyz
x,y,z
-x,-y,1/2+z
x,-y,-z
-x,y,1/2-z
-x,-y,-z
x,y,1/2-z
-x,y,z
x,-y,1/2+z
1/2+x,1/2+y,z
1/2-x,1/2-y,1/2+z
1/2+x,1/2-y,-z
1/2-x,1/2+y,1/2-z
1/2-x,1/2-y,-z
1/2+x,1/2+y,1/2-z
1/2-x,1/2+y,z
1/2+x,1/2-y,1/2+z
loop_
_atom_site_type_symbol
_atom_site_label
_atom_site_fract_x
_atom_site_fract_y
_atom_site_fract_z
Si Si1 0.558047 0.251263 0.944281
Si Si2 0.799982 0.850355 0.648032
Si Si3 0.913063 0.894826 0.641001
Si Si4 0.614130 0.500000 0.000000
Si Si5 0.156603 0.895533 0.140619
Si Si6 0.558518 0.695763 0.644863
Si Si7 0.342978 0.199306 0.856947
Si Si8 0.251763 0.673244 0.534146
O O1 0.500000 0.224957 0.921386
O O2 0.563560 0.325384 0.898271
O O3 0.599123 0.198716 0.900615
O O4 0.568015 0.251738 0.058758
O O5 0.771494 0.861701 0.750000
O O6 0.850612 0.896193 0.640908
O O7 0.819975 0.773960 0.640967
O O8 0.760260 0.869661 0.563300
O O9 0.933832 0.907495 0.750000
O O10 0.925255 0.955101 0.566396
O O11 0.653504 0.458483 0.069059
O O12 0.169382 0.917520 0.250000
O O13 0.099397 0.863916 0.134847
O O14 0.200284 0.841648 0.106301
O O15 0.565288 0.730837 0.750000
O O16 0.500000 0.665744 0.635112
O O17 0.346367 0.170365 0.750000
O O18 0.303016 0.152517 0.917245
O O19 0.250000 0.750000 0.500000
#
# Coordination Sequence:
#
# PCOD8255548 Si02
#       8
#    16  16  16   8  16  16  16  16
#     4  10  18  32  49  64  85 115 151 192 237 283
#     4   8  14  26  42  59  82 109 138 175 221 267
#     4  10  19  31  45  62  84 114 151 193 232 264
#     4  12  20  34  47  64  92 122 161 200 230 278
#     4  11  21  33  49  68  90 123 161 196 240 289
#     4   9  17  30  46  62  83 113 151 195 237 273
#     4   9  17  27  42  64  85 108 138 181 231 277
#     4  10  17  29  47  66  91 111 145 189 238 284
#
# _framework density 16.856069999999999
#
# number of rings (size 3 to 8) (size 9 to 14) (size 15 to 20)
#    0.000    2.267    2.667    3.600    0.000    1.600 
#    0.000    2.000    0.000    1.600    0.000    0.000 
#    0.000    0.000    0.000    0.600    0.000    0.800 
#
# Total GULP energy -743286.489170 kJ/mol
# GULP energy per Si atom -12388.108153 kJ/mol
# Density = 1.681770 g / cm^3
# Si number density = 16.856070 Si / 1000 Ang^3
#
#
#
# Elastic Constant Matrix: (Units=GPa)
#
#
# Indices 1 2 3 4 5 6 
#
# 1 105.9210 14.2654 62.0038 0.0000 0.0000 0.0000
# 2 14.2654 8.8370 8.2323 0.0000 0.0000 0.0000
# 3 62.0038 8.2323 155.1773 0.0000 0.0000 0.0000
# 4 0.0000 0.0000 0.0000 18.2500 0.0000 0.0000
# 5 0.0000 0.0000 0.0000 0.0000 25.5154 0.0000
# 6 0.0000 0.0000 0.0000 0.0000 0.0000 11.4805
#
#
#
# Elastic Compliance Matrix: (Units=1/GPa)
#
#
# Indices 1 2 3 4 5 6 
#
# 1 0.014969 -0.019559 -0.004944 0.000000 0.000000 0.000000
# 2 -0.019559 0.144600 0.000144 0.000000 0.000000 0.000000
# 3 -0.004944 0.000144 0.008412 0.000000 0.000000 0.000000
# 4 0.000000 0.000000 0.000000 0.054794 0.000000 0.000000
# 5 0.000000 0.000000 0.000000 0.000000 0.039192 0.000000
# 6 0.000000 0.000000 0.000000 0.000000 0.000000 0.087105
#
#
# Mechanical properties :
#
#
# Convention : Reuss Voigt Hill
#
# Bulk Modulus (GPa) = 8.38476 48.77093 28.57784
# Shear Modulus (GPa) = 11.42742 23.41143 17.41943
#
# Velocity S-wave (km/s) = 2.60656 3.73084 3.21818
# Velocity P-wave (km/s) = 3.74753 6.89605 5.54975
#
# Compressibility (1/GPa) = 0.11926403
#
# Stress axis : x y z
#
# Youngs Moduli (GPa) = 66.80465 6.91562 118.87964
#
# Poissons Ratio (x) = 0.13526 0.58768
# Poissons Ratio (y) = 1.30663 -0.01711
# Poissons Ratio (z) = 0.33025 -0.00100
#
# Static dielectric constant tensor:
#      x y z
#    x 3.267730 0.000000 0.000000 
#    y 0.000000 2.645900 0.000000 
#    z 0.000000 0.000000 3.901130 
# 
# 
# High freq. dielectric constant tensor:
#      x y z
#    x 1.635150 0.000000 0.000000 
#    y 0.000000 1.565510 0.000000 
#    z 0.000000 0.000000 1.687190 
# 
# From -- ./inp_files/37258.got.cif
#   From: 2010.03.12/outbox.cif.g09.slc.cpg/sg63_19_cif.got.tgz:37258.got - 2010.04.10 19:34:48.
