data_PCOD8255783
_publ_section_title
;
Structure prediction by ZEFSAII (Michael W. Deem and Ramdas Pophale) SiO2 
 PCOD8255783
Probable space group: C M C M
;
_chemical_formula_sum "Si O2"
_cell_formula_units_Z 80
_cell_length_a 9.153793
_cell_length_b 19.722895
_cell_length_c 25.741211
_cell_angle_alpha 90.000000
_cell_angle_beta 90.000000
_cell_angle_gamma 90.000000
_cell_volume 4647.300169
_symmetry_space_group_name_H-M "C M C M"
_symmetry_group_IT_number 63
_symmetry_cell_setting 'orthorhombic'
loop_
_space_group_symop_operation_xyz
x,y,z
-x,-y,1/2+z
x,-y,-z
-x,y,1/2-z
-x,-y,-z
x,y,1/2-z
-x,y,z
x,-y,1/2+z
1/2+x,1/2+y,z
1/2-x,1/2-y,1/2+z
1/2+x,1/2-y,-z
1/2-x,1/2+y,1/2-z
1/2-x,1/2-y,-z
1/2+x,1/2+y,1/2-z
1/2-x,1/2+y,z
1/2+x,1/2-y,1/2+z
loop_
_atom_site_type_symbol
_atom_site_label
_atom_site_fract_x
_atom_site_fract_y
_atom_site_fract_z
Si Si1 0.171604 0.327409 0.352669
Si Si2 0.326622 0.075497 0.557356
Si Si3 0.664802 0.330493 0.637336
Si Si4 0.172777 0.821107 0.250000
Si Si5 0.827254 0.576176 0.058295
Si Si6 0.165775 0.815562 0.750000
O O1 0.233763 0.370726 0.401050
O O2 0.205777 0.248835 0.363965
O O3 0.256982 0.353997 0.301725
O O4 0.000000 0.339410 0.343894
O O5 0.500000 0.076484 0.557021
O O6 0.271031 0.095442 0.499608
O O7 0.272537 0.999763 0.572042
O O8 0.500000 0.341658 0.618048
O O9 0.769352 0.370668 0.599607
O O10 0.684419 0.358487 0.696824
O O11 0.212149 0.742006 0.250000
O O12 0.000000 0.832172 0.250000
O O13 0.000000 0.579532 0.060484
O O14 0.000000 0.783181 0.750000
#
# Coordination Sequence:
#
# PCOD8255783 Si02
#       6
#    16  16  16   8  16   8
#     4   9  17  32  51  67  90 127 161 183 217 280
#     4   8  16  32  51  67  88 124 162 189 222 274
#     4   9  17  29  47  70  93 121 155 187 225 276
#     4  10  18  28  45  72  99 117 145 195 241 266
#     4   9  17  31  50  70  92 119 154 196 234 266
#     4   8  16  32  49  64  91 131 161 179 217 282
#
# _framework density 17.214296999999998
#
# number of rings (size 3 to 8) (size 9 to 14) (size 15 to 20)
#    0.000    3.200    0.000    3.300    0.000    4.000 
#    0.000    5.000    0.000    3.600    0.000    0.000 
#    0.000    0.000    0.000    0.000    0.000    0.000 
#
# Total GULP energy -495671.407557 kJ/mol
# GULP energy per Si atom -12391.785189 kJ/mol
# Density = 1.717512 g / cm^3
# Si number density = 17.214297 Si / 1000 Ang^3
#
#
#
# Elastic Constant Matrix: (Units=GPa)
#
#
# Indices 1 2 3 4 5 6 
#
# 1 46.8290 28.7350 46.6398 0.0000 0.0000 0.0000
# 2 28.7350 71.5962 76.6995 0.0000 0.0000 0.0000
# 3 46.6398 76.6995 165.2900 0.0000 0.0000 0.0000
# 4 0.0000 0.0000 0.0000 6.6409 0.0000 0.0000
# 5 0.0000 0.0000 0.0000 0.0000 27.5170 0.0000
# 6 0.0000 0.0000 0.0000 0.0000 0.0000 17.4781
#
#
#
# Elastic Compliance Matrix: (Units=1/GPa)
#
#
# Indices 1 2 3 4 5 6 
#
# 1 0.030987 -0.006104 -0.005911 0.000000 0.000000 0.000000
# 2 -0.006104 0.028976 -0.011723 0.000000 0.000000 0.000000
# 3 -0.005911 -0.011723 0.013158 0.000000 0.000000 0.000000
# 4 0.000000 0.000000 0.000000 0.150583 0.000000 0.000000
# 5 0.000000 0.000000 0.000000 0.000000 0.036341 0.000000
# 6 0.000000 0.000000 0.000000 0.000000 0.000000 0.057214
#
#
# Mechanical properties :
#
#
# Convention : Reuss Voigt Hill
#
# Bulk Modulus (GPa) = 38.99571 65.31818 52.15694
# Shear Modulus (GPa) = 13.39460 19.10326 16.24893
#
# Velocity S-wave (km/s) = 2.79249 3.33488 3.07566
# Velocity P-wave (km/s) = 5.75322 7.27015 6.55571
#
# Compressibility (1/GPa) = 0.02564384
#
# Stress axis : x y z
#
# Youngs Moduli (GPa) = 32.27142 34.51117 76.00000
#
# Poissons Ratio (x) = 0.21066 0.44924
# Poissons Ratio (y) = 0.19699 0.89098
# Poissons Ratio (z) = 0.19076 0.40459
#
# Static dielectric constant tensor:
#      x y z
#    x 2.883830 0.000000 0.000000 
#    y 0.000000 3.049070 0.000000 
#    z 0.000000 0.000000 3.656220 
# 
# 
# High freq. dielectric constant tensor:
#      x y z
#    x 1.637390 0.000000 0.000000 
#    y 0.000000 1.634330 0.000000 
#    z 0.000000 0.000000 1.682670 
# 
# From -- ./inp_files/59474.got.cif
#   From: 2010.03.12/outbox.cif.g09.slc.cpg/sg63_30_cif.got.tgz:59474.got - 2010.04.10 19:34:48.
