data_PCOD8255402
_publ_section_title
;
Structure prediction by ZEFSAII (Michael W. Deem and Ramdas Pophale) SiO2 
 PCOD8255402
Probable space group: C M C M
;
_chemical_formula_sum "Si O2"
_cell_formula_units_Z 96
_cell_length_a 26.516148
_cell_length_b 16.087634
_cell_length_c 15.146479
_cell_angle_alpha 90.000000
_cell_angle_beta 90.000000
_cell_angle_gamma 90.000000
_cell_volume 6461.216579
_symmetry_space_group_name_H-M "C M C M"
_symmetry_group_IT_number 63
_symmetry_cell_setting 'orthorhombic'
loop_
_space_group_symop_operation_xyz
x,y,z
-x,-y,1/2+z
x,-y,-z
-x,y,1/2-z
-x,-y,-z
x,y,1/2-z
-x,y,z
x,-y,1/2+z
1/2+x,1/2+y,z
1/2-x,1/2-y,1/2+z
1/2+x,1/2-y,-z
1/2-x,1/2+y,1/2-z
1/2-x,1/2-y,-z
1/2+x,1/2+y,1/2-z
1/2-x,1/2+y,z
1/2+x,1/2-y,1/2+z
loop_
_atom_site_type_symbol
_atom_site_label
_atom_site_fract_x
_atom_site_fract_y
_atom_site_fract_z
Si Si1 0.214397 0.534932 0.750000
Si Si2 0.270564 0.775663 0.250000
Si Si3 0.640290 0.802382 0.935041
Si Si4 0.294108 0.713556 0.438722
Si Si5 0.612426 0.966935 0.750000
Si Si6 0.159903 0.289371 0.750000
Si Si7 0.269595 0.935325 0.922871
Si Si8 0.058029 0.430967 0.572963
O O1 0.238635 0.626161 0.750000
O O2 0.152829 0.542727 0.750000
O O3 0.234980 0.487072 0.665712
O O4 0.299047 0.751729 0.340491
O O5 0.219320 0.723931 0.250000
O O6 0.636190 0.752675 0.840842
O O7 0.683552 0.872068 0.922496
O O8 0.587692 0.847684 0.955788
O O9 0.653346 0.736500 0.012149
O O10 0.250000 0.750000 0.500000
O O11 0.283231 0.614990 0.433514
O O12 0.648719 0.887404 0.750000
O O13 0.577104 0.969462 0.664711
O O14 0.278309 0.000000 0.000000
O O15 0.067027 0.500000 0.500000
O O16 0.000000 0.405549 0.582204
#
# Coordination Sequence:
#
# PCOD8255402 Si02
#       8
#     8   8  16  16   8   8  16  16
#     4  12  20  27  44  65  89 126 152 191 206 269
#     4  12  20  28  42  66  88 123 159 178 223 252
#     4  10  18  31  46  61  87 120 151 185 225 267
#     4  10  19  30  43  61  88 119 150 187 218 265
#     4  10  19  32  46  64  87 121 156 186 229 266
#     4  10  16  31  44  57  88 116 147 187 217 259
#     4  11  19  29  43  64  89 120 153 185 217 261
#     4  10  20  32  48  65  88 116 152 200 236 267
#
# _framework density 14.857882999999999
#
# number of rings (size 3 to 8) (size 9 to 14) (size 15 to 20)
#    0.000    1.500    6.667    3.250    2.333    0.000 
#    0.000    0.000    0.000    0.000    0.000    0.000 
#    0.000    0.667    0.000    0.000    0.000    0.000 
#
# Total GULP energy -594851.698101 kJ/mol
# GULP energy per Si atom -12392.743710 kJ/mol
# Density = 1.482407 g / cm^3
# Si number density = 14.857883 Si / 1000 Ang^3
#
#
#
# Elastic Constant Matrix: (Units=GPa)
#
#
# Indices 1 2 3 4 5 6 
#
# 1 78.3050 30.0864 42.7499 0.0000 0.0000 0.0000
# 2 30.0864 48.5890 33.7925 0.0000 0.0000 0.0000
# 3 42.7499 33.7925 127.2043 0.0000 0.0000 0.0000
# 4 0.0000 0.0000 0.0000 15.8629 0.0000 0.0000
# 5 0.0000 0.0000 0.0000 0.0000 17.2493 0.0000
# 6 0.0000 0.0000 0.0000 0.0000 0.0000 16.4206
#
#
#
# Elastic Compliance Matrix: (Units=1/GPa)
#
#
# Indices 1 2 3 4 5 6 
#
# 1 0.018155 -0.008584 -0.003821 0.000000 0.000000 0.000000
# 2 -0.008584 0.029304 -0.004900 0.000000 0.000000 0.000000
# 3 -0.003821 -0.004900 0.010447 0.000000 0.000000 0.000000
# 4 0.000000 0.000000 0.000000 0.063040 0.000000 0.000000
# 5 0.000000 0.000000 0.000000 0.000000 0.057973 0.000000
# 6 0.000000 0.000000 0.000000 0.000000 0.000000 0.060899
#
#
# Mechanical properties :
#
#
# Convention : Reuss Voigt Hill
#
# Bulk Modulus (GPa) = 42.92581 51.92846 47.42713
# Shear Modulus (GPa) = 17.71835 19.73786 18.72810
#
# Velocity S-wave (km/s) = 3.45704 3.64874 3.55418
# Velocity P-wave (km/s) = 6.69989 7.26478 6.98804
#
# Compressibility (1/GPa) = 0.02329601
#
# Stress axis : x y z
#
# Youngs Moduli (GPa) = 55.08197 34.12524 95.71997
#
# Poissons Ratio (x) = 0.29294 0.36574
# Poissons Ratio (y) = 0.47283 0.46901
# Poissons Ratio (z) = 0.21046 0.16721
#
# Static dielectric constant tensor:
#      x y z
#    x 2.749520 0.000000 0.000000 
#    y 0.000000 2.867680 0.000000 
#    z 0.000000 0.000000 3.483660 
# 
# 
# High freq. dielectric constant tensor:
#      x y z
#    x 1.526230 0.000000 0.000000 
#    y 0.000000 1.541250 0.000000 
#    z 0.000000 0.000000 1.601050 
# 
# From -- ./inp_files/37903.got.cif
#   From: 2010.03.12/outbox.cif.g09.slc.cpg/sg63_19_cif.got.tgz:37903.got - 2010.04.10 19:34:48.
