data_PCOD8256267
_publ_section_title
;
Structure prediction by ZEFSAII (Michael W. Deem and Ramdas Pophale) SiO2 
 PCOD8256267
Probable space group: C M C M
;
_chemical_formula_sum "Si O2"
_cell_formula_units_Z 120
_cell_length_a 19.970765
_cell_length_b 18.021740
_cell_length_c 18.439970
_cell_angle_alpha 90.000000
_cell_angle_beta 90.000000
_cell_angle_gamma 90.000000
_cell_volume 6636.691514
_symmetry_space_group_name_H-M "C M C M"
_symmetry_group_IT_number 63
_symmetry_cell_setting 'orthorhombic'
loop_
_space_group_symop_operation_xyz
x,y,z
-x,-y,1/2+z
x,-y,-z
-x,y,1/2-z
-x,-y,-z
x,y,1/2-z
-x,y,z
x,-y,1/2+z
1/2+x,1/2+y,z
1/2-x,1/2-y,1/2+z
1/2+x,1/2-y,-z
1/2-x,1/2+y,1/2-z
1/2-x,1/2-y,-z
1/2+x,1/2+y,1/2-z
1/2-x,1/2+y,z
1/2+x,1/2-y,1/2+z
loop_
_atom_site_type_symbol
_atom_site_label
_atom_site_fract_x
_atom_site_fract_y
_atom_site_fract_z
Si Si1 0.810769 0.232790 0.835042
Si Si2 0.868661 0.000000 0.000000
Si Si3 0.350562 0.919004 0.525326
Si Si4 0.786333 0.459235 0.669347
Si Si5 0.814144 0.836727 0.830211
Si Si6 0.424560 0.348616 0.947424
Si Si7 0.235512 0.912957 0.412155
Si Si8 0.076834 0.721477 0.437477
O O1 0.821168 0.217050 0.750000
O O2 0.747642 0.284307 0.850908
O O3 0.798110 0.158811 0.879768
O O4 0.877624 0.271258 0.865877
O O5 0.822465 0.968829 0.063800
O O6 0.914771 0.066113 0.029812
O O7 0.335133 0.922175 0.610925
O O8 0.283614 0.896493 0.480899
O O9 0.404608 0.853154 0.516559
O O10 0.378044 0.000000 0.500000
O O11 0.817808 0.450535 0.750000
O O12 0.713414 0.420496 0.666608
O O13 0.777487 0.546136 0.650954
O O14 0.840897 0.817466 0.750000
O O15 0.874965 0.824016 0.884118
O O16 0.500000 0.339027 0.918660
O O17 0.410616 0.294100 0.014178
O O18 0.000000 0.715742 0.412814
#
# Coordination Sequence:
#
# PCOD8256267 Si02
#       8
#    16   8  16  16  16  16  16  16
#     4  11  23  37  58  84 113 150 188 235 291 343
#     4  12  19  34  56  84 111 148 192 228 275 332
#     4  10  20  35  58  86 112 147 184 236 297 339
#     4  10  18  31  53  83 113 140 176 226 280 333
#     4  10  20  35  57  83 107 139 186 231 276 333
#     4  11  23  38  56  80 115 154 189 230 278 334
#     4  11  19  34  57  85 115 144 187 236 281 334
#     4  11  24  38  56  81 112 152 193 237 286 341
#
# _framework density 18.081299000000001
#
# number of rings (size 3 to 8) (size 9 to 14) (size 15 to 20)
#    0.000    1.333    6.000    1.400    0.000    1.867 
#    0.000    0.000    0.000    0.000    0.000    0.000 
#    0.000    0.000    0.000    0.000    0.000    0.000 
#
# Total GULP energy -743830.588363 kJ/mol
# GULP energy per Si atom -12397.176473 kJ/mol
# Density = 1.804014 g / cm^3
# Si number density = 18.081299 Si / 1000 Ang^3
#
#
#
# Elastic Constant Matrix: (Units=GPa)
#
#
# Indices 1 2 3 4 5 6 
#
# 1 102.4426 44.7331 59.2745 0.0000 0.0000 0.0000
# 2 44.7331 104.2822 44.5748 0.0000 0.0000 0.0000
# 3 59.2745 44.5748 117.1938 0.0000 0.0000 0.0000
# 4 0.0000 0.0000 0.0000 22.6060 0.0000 0.0000
# 5 0.0000 0.0000 0.0000 0.0000 12.9029 0.0000
# 6 0.0000 0.0000 0.0000 0.0000 0.0000 22.5255
#
#
#
# Elastic Compliance Matrix: (Units=1/GPa)
#
#
# Indices 1 2 3 4 5 6 
#
# 1 0.014964 -0.003802 -0.006123 0.000000 0.000000 0.000000
# 2 -0.003802 0.012417 -0.002800 0.000000 0.000000 0.000000
# 3 -0.006123 -0.002800 0.012694 0.000000 0.000000 0.000000
# 4 0.000000 0.000000 0.000000 0.044236 0.000000 0.000000
# 5 0.000000 0.000000 0.000000 0.000000 0.077502 0.000000
# 6 0.000000 0.000000 0.000000 0.000000 0.000000 0.044394
#
#
# Mechanical properties :
#
#
# Convention : Reuss Voigt Hill
#
# Bulk Modulus (GPa) = 68.36690 69.00925 68.68808
# Shear Modulus (GPa) = 21.13870 23.29596 22.21733
#
# Velocity S-wave (km/s) = 3.42291 3.59332 3.50915
# Velocity P-wave (km/s) = 7.31537 7.44748 7.38172
#
# Compressibility (1/GPa) = 0.01462696
#
# Stress axis : x y z
#
# Youngs Moduli (GPa) = 66.82524 80.53423 78.77438
#
# Poissons Ratio (x) = 0.30620 0.48230
# Poissons Ratio (y) = 0.25408 0.22055
# Poissons Ratio (z) = 0.40914 0.22548
#
# Static dielectric constant tensor:
#      x y z
#    x 3.119060 0.000000 0.000000 
#    y 0.000000 3.614220 0.000000 
#    z 0.000000 0.000000 3.352750 
# 
# 
# High freq. dielectric constant tensor:
#      x y z
#    x 1.673200 0.000000 0.000000 
#    y 0.000000 1.716270 0.000000 
#    z 0.000000 0.000000 1.700440 
# 
# From -- ./inp_files/46176.got.cif
#   From: 2010.03.12/outbox.cif.g09.slc.cpg/sg63_24_cif.got.tgz:46176.got - 2010.04.10 19:34:48.
