data_PCOD8256474
_publ_section_title
;
Structure prediction by ZEFSAII (Michael W. Deem and Ramdas Pophale) SiO2 
 PCOD8256474
Probable space group: C M C M
;
_chemical_formula_sum "Si O2"
_cell_formula_units_Z 96
_cell_length_a 8.766491
_cell_length_b 28.813928
_cell_length_c 20.346676
_cell_angle_alpha 90.000000
_cell_angle_beta 90.000000
_cell_angle_gamma 90.000000
_cell_volume 5139.510141
_symmetry_space_group_name_H-M "C M C M"
_symmetry_group_IT_number 63
_symmetry_cell_setting 'orthorhombic'
loop_
_space_group_symop_operation_xyz
x,y,z
-x,-y,1/2+z
x,-y,-z
-x,y,1/2-z
-x,-y,-z
x,y,1/2-z
-x,y,z
x,-y,1/2+z
1/2+x,1/2+y,z
1/2-x,1/2-y,1/2+z
1/2+x,1/2-y,-z
1/2-x,1/2+y,1/2-z
1/2-x,1/2-y,-z
1/2+x,1/2+y,1/2-z
1/2-x,1/2+y,z
1/2+x,1/2-y,1/2+z
loop_
_atom_site_type_symbol
_atom_site_label
_atom_site_fract_x
_atom_site_fract_y
_atom_site_fract_z
Si Si1 0.823978 0.125583 0.384298
Si Si2 0.820837 0.629721 0.975969
Si Si3 0.320776 0.533646 0.559880
Si Si4 0.174217 0.223337 0.175161
Si Si5 0.321304 0.277430 0.439389
Si Si6 0.819028 0.030450 0.322799
O O1 0.725509 0.134872 0.448543
O O2 0.804562 0.168420 0.335148
O O3 0.758778 0.080094 0.348143
O O4 0.000000 0.118351 0.405748
O O5 0.769890 0.581115 0.945645
O O6 0.743245 0.670668 0.934515
O O7 0.000000 0.634911 0.969435
O O8 0.276715 0.500000 0.500000
O O9 0.500000 0.544297 0.559196
O O10 0.266360 0.509839 0.627638
O O11 0.217134 0.235039 0.250000
O O12 0.286087 0.252026 0.128806
O O13 0.000000 0.237432 0.159370
O O14 0.500000 0.279478 0.451274
O O15 0.250000 0.250000 0.500000
O O16 0.752298 0.020352 0.250000
O O17 0.000000 0.032629 0.320087
#
# Coordination Sequence:
#
# PCOD8256474 Si02
#       6
#    16  16  16  16  16  16
#     4  10  18  33  58  87 120 153 187 234 288 349
#     4  12  24  37  57  86 117 152 196 245 293 343
#     4  10  19  35  58  84 113 150 192 236 285 342
#     4  10  21  37  60  91 125 159 193 234 292 358
#     4  12  24  40  62  87 117 155 199 247 296 349
#     4   9  17  31  55  86 116 148 189 233 283 343
#
# _framework density 18.678822
#
# number of rings (size 3 to 8) (size 9 to 14) (size 15 to 20)
#    0.000    1.500    3.333    3.500    0.000    2.667 
#    0.000    0.833    0.000    6.000    0.000    0.000 
#    0.000    0.000    0.000    0.000    0.000    0.000 
#
# Total GULP energy -595369.547764 kJ/mol
# GULP energy per Si atom -12403.532245 kJ/mol
# Density = 1.863631 g / cm^3
# Si number density = 18.678822 Si / 1000 Ang^3
#
#
#
# Elastic Constant Matrix: (Units=GPa)
#
#
# Indices 1 2 3 4 5 6 
#
# 1 101.3538 56.9461 38.5716 0.0000 0.0000 0.0000
# 2 56.9461 117.8886 51.4674 0.0000 0.0000 0.0000
# 3 38.5716 51.4674 119.4082 0.0000 0.0000 0.0000
# 4 0.0000 0.0000 0.0000 31.6807 0.0000 0.0000
# 5 0.0000 0.0000 0.0000 0.0000 21.4919 0.0000
# 6 0.0000 0.0000 0.0000 0.0000 0.0000 27.6926
#
#
#
# Elastic Compliance Matrix: (Units=1/GPa)
#
#
# Indices 1 2 3 4 5 6 
#
# 1 0.013907 -0.005859 -0.001967 0.000000 0.000000 0.000000
# 2 -0.005859 0.012917 -0.003675 0.000000 0.000000 0.000000
# 3 -0.001967 -0.003675 0.010594 0.000000 0.000000 0.000000
# 4 0.000000 0.000000 0.000000 0.031565 0.000000 0.000000
# 5 0.000000 0.000000 0.000000 0.000000 0.046529 0.000000
# 6 0.000000 0.000000 0.000000 0.000000 0.000000 0.036111
#
#
# Mechanical properties :
#
#
# Convention : Reuss Voigt Hill
#
# Bulk Modulus (GPa) = 69.36600 70.29117 69.82859
# Shear Modulus (GPa) = 27.86603 28.95076 28.40839
#
# Velocity S-wave (km/s) = 3.86664 3.94118 3.90409
# Velocity P-wave (km/s) = 7.55985 7.64354 7.60181
#
# Compressibility (1/GPa) = 0.01441628
#
# Stress axis : x y z
#
# Youngs Moduli (GPa) = 71.90691 77.41621 94.39329
#
# Poissons Ratio (x) = 0.45358 0.18566
# Poissons Ratio (y) = 0.42130 0.34689
# Poissons Ratio (z) = 0.14143 0.28450
#
# Static dielectric constant tensor:
#      x y z
#    x 3.215790 0.000000 0.000000 
#    y 0.000000 3.616770 0.000000 
#    z 0.000000 0.000000 3.552690 
# 
# 
# High freq. dielectric constant tensor:
#      x y z
#    x 1.703490 0.000000 0.000000 
#    y 0.000000 1.732860 0.000000 
#    z 0.000000 0.000000 1.723880 
# 
# From -- ./inp_files/51266.got.cif
#   From: 2010.03.12/outbox.cif.g09.slc.cpg/sg63_26_cif.got.tgz:51266.got - 2010.04.10 19:34:48.
