data_PCOD8256556
_publ_section_title
;
Structure prediction by ZEFSAII (Michael W. Deem and Ramdas Pophale) SiO2 
 PCOD8256556
Probable space group: C M C M
;
_chemical_formula_sum "Si O2"
_cell_formula_units_Z 80
_cell_length_a 9.038565
_cell_length_b 29.092725
_cell_length_c 17.075083
_cell_angle_alpha 90.000000
_cell_angle_beta 90.000000
_cell_angle_gamma 90.000000
_cell_volume 4490.003823
_symmetry_space_group_name_H-M "C M C M"
_symmetry_group_IT_number 63
_symmetry_cell_setting 'orthorhombic'
loop_
_space_group_symop_operation_xyz
x,y,z
-x,-y,1/2+z
x,-y,-z
-x,y,1/2-z
-x,-y,-z
x,y,1/2-z
-x,y,z
x,-y,1/2+z
1/2+x,1/2+y,z
1/2-x,1/2-y,1/2+z
1/2+x,1/2-y,-z
1/2-x,1/2+y,1/2-z
1/2-x,1/2-y,-z
1/2+x,1/2+y,1/2-z
1/2-x,1/2+y,z
1/2+x,1/2-y,1/2+z
loop_
_atom_site_type_symbol
_atom_site_label
_atom_site_fract_x
_atom_site_fract_y
_atom_site_fract_z
Si Si1 0.173673 0.232972 0.840123
Si Si2 0.175841 0.653806 0.937305
Si Si3 0.834385 0.429793 0.335985
Si Si4 0.324849 0.833176 0.613176
Si Si5 0.325340 0.497395 0.750000
Si Si6 0.324065 0.100659 0.250000
O O1 0.209570 0.222443 0.750000
O O2 0.256458 0.197129 0.894260
O O3 0.236179 0.283305 0.862063
O O4 0.000000 0.229486 0.857012
O O5 0.232608 0.606445 0.897717
O O6 0.000000 0.657177 0.930367
O O7 0.231170 0.653578 0.026739
O O8 0.840072 0.405571 0.250000
O O9 0.731281 0.475300 0.328183
O O10 0.000000 0.445137 0.361447
O O11 0.500000 0.831162 0.616838
O O12 0.269011 0.871569 0.673736
O O13 0.500000 0.494545 0.750000
O O14 0.257140 0.447422 0.750000
O O15 0.500000 0.093011 0.250000
#
# Coordination Sequence:
#
# PCOD8256556 Si02
#       6
#    16  16  16  16   8   8
#     4  10  19  32  50  76 109 143 175 203 246 306
#     4  10  19  32  52  79 106 134 172 217 254 288
#     4   8  16  32  51  73 101 131 164 204 253 305
#     4   9  18  33  54  76 102 138 178 212 246 299
#     4  10  20  34  55  78  99 127 166 211 259 314
#     4  10  18  36  59  74  95 135 176 211 255 304
#
# _framework density 17.817357000000001
#
# number of rings (size 3 to 8) (size 9 to 14) (size 15 to 20)
#    0.600    2.000    1.000    1.800    0.000    2.000 
#    0.000    3.000    0.000    6.000    0.000    0.000 
#    0.000    0.000    0.000    0.000    0.000    0.000 
#
# Total GULP energy -495781.367248 kJ/mol
# GULP energy per Si atom -12394.534181 kJ/mol
# Density = 1.777680 g / cm^3
# Si number density = 17.817357 Si / 1000 Ang^3
#
#
#
# Elastic Constant Matrix: (Units=GPa)
#
#
# Indices 1 2 3 4 5 6 
#
# 1 48.9888 51.3146 35.3074 0.0000 0.0000 0.0000
# 2 51.3146 169.6270 82.5474 0.0000 0.0000 0.0000
# 3 35.3074 82.5474 133.1521 0.0000 0.0000 0.0000
# 4 0.0000 0.0000 0.0000 11.6689 0.0000 0.0000
# 5 0.0000 0.0000 0.0000 0.0000 16.0899 0.0000
# 6 0.0000 0.0000 0.0000 0.0000 0.0000 28.5195
#
#
#
# Elastic Compliance Matrix: (Units=1/GPa)
#
#
# Indices 1 2 3 4 5 6 
#
# 1 0.030944 -0.007687 -0.003440 0.000000 0.000000 0.000000
# 2 -0.007687 0.010352 -0.004379 0.000000 0.000000 0.000000
# 3 -0.003440 -0.004379 0.011137 0.000000 0.000000 0.000000
# 4 0.000000 0.000000 0.000000 0.085698 0.000000 0.000000
# 5 0.000000 0.000000 0.000000 0.000000 0.062151 0.000000
# 6 0.000000 0.000000 0.000000 0.000000 0.000000 0.035064
#
#
# Mechanical properties :
#
#
# Convention : Reuss Voigt Hill
#
# Bulk Modulus (GPa) = 46.68332 76.67854 61.68093
# Shear Modulus (GPa) = 18.28170 23.42890 20.85530
#
# Velocity S-wave (km/s) = 3.20669 3.63015 3.42498
# Velocity P-wave (km/s) = 6.32206 7.79102 7.09466
#
# Compressibility (1/GPa) = 0.02142093
#
# Stress axis : x y z
#
# Youngs Moduli (GPa) = 32.31651 96.60079 89.78909
#
# Poissons Ratio (x) = 0.74258 0.30885
# Poissons Ratio (y) = 0.24842 0.39321
# Poissons Ratio (z) = 0.11116 0.42304
#
# Static dielectric constant tensor:
#      x y z
#    x 2.986550 0.000000 0.000000 
#    y 0.000000 3.273770 0.000000 
#    z 0.000000 0.000000 3.485510 
# 
# 
# High freq. dielectric constant tensor:
#      x y z
#    x 1.658320 0.000000 0.000000 
#    y 0.000000 1.690460 0.000000 
#    z 0.000000 0.000000 1.686800 
# 
# From -- ./inp_files/40747.got.cif
#   From: 2010.03.12/outbox.cif.g09.slc.cpg/sg63_21_cif.got.tgz:40747.got - 2010.04.10 19:34:48.
