data_PCOD8256188
_publ_section_title
;
Structure prediction by ZEFSAII (Michael W. Deem and Ramdas Pophale) SiO2 
 PCOD8256188
Probable space group: C M C M
;
_chemical_formula_sum "Si O2"
_cell_formula_units_Z 72
_cell_length_a 14.205003
_cell_length_b 30.072844
_cell_length_c 9.365913
_cell_angle_alpha 90.000000
_cell_angle_beta 90.000000
_cell_angle_gamma 90.000000
_cell_volume 4000.976039
_symmetry_space_group_name_H-M "C M C M"
_symmetry_group_IT_number 63
_symmetry_cell_setting 'orthorhombic'
loop_
_space_group_symop_operation_xyz
x,y,z
-x,-y,1/2+z
x,-y,-z
-x,y,1/2-z
-x,-y,-z
x,y,1/2-z
-x,y,z
x,-y,1/2+z
1/2+x,1/2+y,z
1/2-x,1/2-y,1/2+z
1/2+x,1/2-y,-z
1/2-x,1/2+y,1/2-z
1/2-x,1/2-y,-z
1/2+x,1/2+y,1/2-z
1/2-x,1/2+y,z
1/2+x,1/2-y,1/2+z
loop_
_atom_site_type_symbol
_atom_site_label
_atom_site_fract_x
_atom_site_fract_y
_atom_site_fract_z
Si Si1 0.500000 0.747499 0.085490
Si Si2 0.289795 0.861818 0.095701
Si Si3 0.182637 0.460024 0.084096
Si Si4 0.000000 0.435811 0.910431
Si Si5 0.000000 0.655129 0.976140
Si Si6 0.199623 0.211489 0.084262
O O1 0.500000 0.764581 0.250000
O O2 0.500000 0.791946 0.984984
O O3 0.588708 0.716048 0.054796
O O4 0.250276 0.846169 0.250000
O O5 0.262249 0.913375 0.071679
O O6 0.402733 0.854593 0.107269
O O7 0.238412 0.835443 0.970143
O O8 0.165794 0.472330 0.250000
O O9 0.237636 0.500000 0.000000
O O10 0.086653 0.454634 0.997834
O O11 0.000000 0.454749 0.750000
O O12 0.000000 0.381349 0.896655
O O13 0.224326 0.215632 0.250000
O O14 0.250000 0.250000 0.000000
#
# Coordination Sequence:
#
# PCOD8256188 Si02
#       6
#     8  16  16   8   8  16
#     4  10  20  36  53  71 102 143 175 205 257 313
#     4  10  20  35  53  75 103 138 174 213 260 306
#     4  10  20  33  50  70  98 135 172 211 261 313
#     4  10  20  31  44  68 102 135 177 219 254 299
#     4  10  18  31  50  71 103 144 177 208 251 310
#     4  11  22  36  54  76 103 137 175 214 255 304
#
# _framework density 17.995608000000001
#
# number of rings (size 3 to 8) (size 9 to 14) (size 15 to 20)
#    0.000    1.778    2.222    3.000    0.000    8.000 
#    0.000    2.222    0.000    0.000    0.000    0.778 
#    0.000    0.000    0.000    0.000    0.000    0.000 
#
# Total GULP energy -445976.896739 kJ/mol
# GULP energy per Si atom -12388.247132 kJ/mol
# Density = 1.795465 g / cm^3
# Si number density = 17.995608 Si / 1000 Ang^3
#
#
#
# Elastic Constant Matrix: (Units=GPa)
#
#
# Indices 1 2 3 4 5 6 
#
# 1 71.7484 37.7384 37.5668 0.0000 0.0000 0.0000
# 2 37.7384 123.8347 62.6408 0.0000 0.0000 0.0000
# 3 37.5668 62.6408 137.5956 0.0000 0.0000 0.0000
# 4 0.0000 0.0000 0.0000 32.2002 0.0000 0.0000
# 5 0.0000 0.0000 0.0000 0.0000 12.9535 0.0000
# 6 0.0000 0.0000 0.0000 0.0000 0.0000 19.2506
#
#
#
# Elastic Compliance Matrix: (Units=1/GPa)
#
#
# Indices 1 2 3 4 5 6 
#
# 1 0.017536 -0.003797 -0.003059 0.000000 0.000000 0.000000
# 2 -0.003797 0.011313 -0.004114 0.000000 0.000000 0.000000
# 3 -0.003059 -0.004114 0.009976 0.000000 0.000000 0.000000
# 4 0.000000 0.000000 0.000000 0.031056 0.000000 0.000000
# 5 0.000000 0.000000 0.000000 0.000000 0.077199 0.000000
# 6 0.000000 0.000000 0.000000 0.000000 0.000000 0.051946
#
#
# Mechanical properties :
#
#
# Convention : Reuss Voigt Hill
#
# Bulk Modulus (GPa) = 59.22155 67.67451 63.44803
# Shear Modulus (GPa) = 22.06577 25.89636 23.98106
#
# Velocity S-wave (km/s) = 3.50548 3.79758 3.65445
# Velocity P-wave (km/s) = 7.02601 7.54431 7.28977
#
# Compressibility (1/GPa) = 0.01688574
#
# Stress axis : x y z
#
# Youngs Moduli (GPa) = 57.02413 88.39203 100.24265
#
# Poissons Ratio (x) = 0.33559 0.30669
# Poissons Ratio (y) = 0.21650 0.41238
# Poissons Ratio (z) = 0.17446 0.36363
#
# Static dielectric constant tensor:
#      x y z
#    x 3.229110 0.000000 0.000000 
#    y 0.000000 3.797390 0.000000 
#    z 0.000000 0.000000 3.502070 
# 
# 
# High freq. dielectric constant tensor:
#      x y z
#    x 1.642400 0.000000 0.000000 
#    y 0.000000 1.711880 0.000000 
#    z 0.000000 0.000000 1.698760 
# 
# From -- ./inp_files/4994.got.cif
#   From: 2010.03.12/outbox.cif.g09.slc.cpg/sg63_3_cif.got.tgz:4994.got - 2010.04.10 19:34:48.
