data_PCOD8256295
_publ_section_title
;
Structure prediction by ZEFSAII (Michael W. Deem and Ramdas Pophale) SiO2 
 PCOD8256295
Probable space group: C M C M
;
_chemical_formula_sum "Si O2"
_cell_formula_units_Z 96
_cell_length_a 18.236307
_cell_length_b 13.886450
_cell_length_c 20.825210
_cell_angle_alpha 90.000000
_cell_angle_beta 90.000000
_cell_angle_gamma 90.000000
_cell_volume 5273.725478
_symmetry_space_group_name_H-M "C M C M"
_symmetry_group_IT_number 63
_symmetry_cell_setting 'orthorhombic'
loop_
_space_group_symop_operation_xyz
x,y,z
-x,-y,1/2+z
x,-y,-z
-x,y,1/2-z
-x,-y,-z
x,y,1/2-z
-x,y,z
x,-y,1/2+z
1/2+x,1/2+y,z
1/2-x,1/2-y,1/2+z
1/2+x,1/2-y,-z
1/2-x,1/2+y,1/2-z
1/2-x,1/2-y,-z
1/2+x,1/2+y,1/2-z
1/2-x,1/2+y,z
1/2+x,1/2-y,1/2+z
loop_
_atom_site_type_symbol
_atom_site_label
_atom_site_fract_x
_atom_site_fract_y
_atom_site_fract_z
Si Si1 0.146109 0.500000 0.500000
Si Si2 0.832397 0.791037 0.112270
Si Si3 0.261375 0.507289 0.889328
Si Si4 0.822496 0.806348 0.613922
Si Si5 0.310130 0.271465 0.750000
Si Si6 0.663518 0.334920 0.250000
Si Si7 0.415843 0.207670 0.503657
Si Si8 0.238376 0.985966 0.750000
O O1 0.195848 0.488987 0.562335
O O2 0.095062 0.406718 0.494726
O O3 0.805488 0.896887 0.091660
O O4 0.762880 0.721274 0.109469
O O5 0.869449 0.791499 0.184044
O O6 0.894086 0.752405 0.064698
O O7 0.322357 0.422137 0.891803
O O8 0.223845 0.515178 0.818066
O O9 0.856035 0.770302 0.683046
O O10 0.868082 0.757985 0.558167
O O11 0.251675 0.185368 0.750000
O O12 0.267152 0.372218 0.750000
O O13 0.660800 0.452488 0.250000
O O14 0.500000 0.231771 0.516846
#
# Coordination Sequence:
#
# PCOD8256295 Si02
#       8
#     8  16  16  16   8   8  16   8
#     4  12  21  36  54  76 105 142 180 218 261 316
#     4  10  18  35  56  82 106 137 177 221 265 313
#     4  10  18  31  60  86 106 130 174 223 270 310
#     4  10  18  35  56  82 106 137 177 221 265 313
#     4   8  16  28  53  80 105 130 169 219 267 309
#     4   8  16  28  53  80 105 130 169 219 267 309
#     4  12  25  38  51  75 111 148 181 216 261 314
#     4   8  16  28  46  88 116 122 150 224 280 312
#
# _framework density 18.203451000000001
#
# number of rings (size 3 to 8) (size 9 to 14) (size 15 to 20)
#    0.000    2.000    3.333    1.750    0.000    0.000 
#    0.000    2.500    0.000    0.000    0.000   10.500 
#    0.000    0.000    0.000    0.000    0.000    0.000 
#
# Total GULP energy -594684.420728 kJ/mol
# GULP energy per Si atom -12389.258765 kJ/mol
# Density = 1.816202 g / cm^3
# Si number density = 18.203451 Si / 1000 Ang^3
#
#
#
# Elastic Constant Matrix: (Units=GPa)
#
#
# Indices 1 2 3 4 5 6 
#
# 1 31.1371 7.2093 18.1678 0.0000 0.0000 0.0000
# 2 7.2093 96.2549 15.9556 0.0000 0.0000 0.0000
# 3 18.1678 15.9556 132.0960 0.0000 0.0000 0.0000
# 4 0.0000 0.0000 0.0000 25.6634 0.0000 0.0000
# 5 0.0000 0.0000 0.0000 0.0000 8.3110 0.0000
# 6 0.0000 0.0000 0.0000 0.0000 0.0000 13.3831
#
#
#
# Elastic Compliance Matrix: (Units=1/GPa)
#
#
# Indices 1 2 3 4 5 6 
#
# 1 0.035246 -0.001874 -0.004621 0.000000 0.000000 0.000000
# 2 -0.001874 0.010701 -0.001035 0.000000 0.000000 0.000000
# 3 -0.004621 -0.001035 0.008331 0.000000 0.000000 0.000000
# 4 0.000000 0.000000 0.000000 0.038966 0.000000 0.000000
# 5 0.000000 0.000000 0.000000 0.000000 0.120323 0.000000
# 6 0.000000 0.000000 0.000000 0.000000 0.000000 0.074721
#
#
# Mechanical properties :
#
#
# Convention : Reuss Voigt Hill
#
# Bulk Modulus (GPa) = 25.49834 38.01704 31.75769
# Shear Modulus (GPa) = 15.80176 24.01518 19.90847
#
# Velocity S-wave (km/s) = 2.94949 3.63611 3.31065
# Velocity P-wave (km/s) = 5.06331 6.20953 5.66548
#
# Compressibility (1/GPa) = 0.03921825
#
# Stress axis : x y z
#
# Youngs Moduli (GPa) = 28.37179 93.44951 120.03607
#
# Poissons Ratio (x) = 0.17511 0.55472
# Poissons Ratio (y) = 0.05316 0.12422
# Poissons Ratio (z) = 0.13111 0.09670
#
# Static dielectric constant tensor:
#      x y z
#    x 2.655600 0.000000 0.000000 
#    y 0.000000 3.660010 0.000000 
#    z 0.000000 0.000000 3.927800 
# 
# 
# High freq. dielectric constant tensor:
#      x y z
#    x 1.615970 0.000000 0.000000 
#    y 0.000000 1.733070 0.000000 
#    z 0.000000 0.000000 1.738810 
# 
# From -- ./inp_files/54288.got.cif
#   From: 2010.03.12/outbox.cif.g09.slc.cpg/sg63_28_cif.got.tgz:54288.got - 2010.04.10 19:34:48.
