data_PCOD8256387
_publ_section_title
;
Structure prediction by ZEFSAII (Michael W. Deem and Ramdas Pophale) SiO2 
 PCOD8256387
Probable space group: C M C M
;
_chemical_formula_sum "Si O2"
_cell_formula_units_Z 56
_cell_length_a 17.269284
_cell_length_b 18.416816
_cell_length_c 8.839747
_cell_angle_alpha 90.000000
_cell_angle_beta 90.000000
_cell_angle_gamma 90.000000
_cell_volume 2811.439331
_symmetry_space_group_name_H-M "C M C M"
_symmetry_group_IT_number 63
_symmetry_cell_setting 'orthorhombic'
loop_
_space_group_symop_operation_xyz
x,y,z
-x,-y,1/2+z
x,-y,-z
-x,y,1/2-z
-x,-y,-z
x,y,1/2-z
-x,y,z
x,-y,1/2+z
1/2+x,1/2+y,z
1/2-x,1/2-y,1/2+z
1/2+x,1/2-y,-z
1/2-x,1/2+y,1/2-z
1/2-x,1/2-y,-z
1/2+x,1/2+y,1/2-z
1/2-x,1/2+y,z
1/2+x,1/2-y,1/2+z
loop_
_atom_site_type_symbol
_atom_site_label
_atom_site_fract_x
_atom_site_fract_y
_atom_site_fract_z
Si Si1 0.410030 0.322747 0.428185
Si Si2 0.500000 0.078227 0.429991
Si Si3 0.208141 0.077864 0.070826
Si Si4 0.354759 0.831746 0.929221
O O1 0.399310 0.333571 0.250000
O O2 0.500000 0.316931 0.471303
O O3 0.374009 0.391958 0.513193
O O4 0.365762 0.250592 0.487741
O O5 0.500000 0.073092 0.250000
O O6 0.575204 0.119807 0.492259
O O7 0.500000 0.000000 0.500000
O O8 0.207420 0.069850 0.250000
O O9 0.274277 0.133921 0.013901
O O10 0.225579 0.000000 0.000000
O O11 0.359089 0.831098 0.750000
#
# Coordination Sequence:
#
# PCOD8256387 Si02
#       4
#    16   8  16  16
#     4  10  20  38  63  86 110 147 191 234 284 339
#     4  10  18  32  54  82 115 150 185 222 271 332
#     4  11  23  38  57  84 117 151 189 234 282 334
#     4   9  18  35  59  84 112 148 188 228 277 338
#
# _framework density 19.918623
#
# number of rings (size 3 to 8) (size 9 to 14) (size 15 to 20)
#    0.000    2.000    1.429    2.571    0.000    1.143 
#    0.000    4.286    0.000    0.000    0.000    0.000 
#    0.000    0.000    0.000    0.000    0.000    0.000 
#
# Total GULP energy -347249.812588 kJ/mol
# GULP energy per Si atom -12401.779021 kJ/mol
# Density = 1.987329 g / cm^3
# Si number density = 19.918623 Si / 1000 Ang^3
#
#
#
# Elastic Constant Matrix: (Units=GPa)
#
#
# Indices 1 2 3 4 5 6 
#
# 1 118.4296 62.0410 40.7850 0.0000 0.0000 0.0000
# 2 62.0410 92.7844 29.5816 0.0000 0.0000 0.0000
# 3 40.7850 29.5816 45.7275 0.0000 0.0000 0.0000
# 4 0.0000 0.0000 0.0000 30.6947 0.0000 0.0000
# 5 0.0000 0.0000 0.0000 0.0000 24.1943 0.0000
# 6 0.0000 0.0000 0.0000 0.0000 0.0000 37.2280
#
#
#
# Elastic Compliance Matrix: (Units=1/GPa)
#
#
# Indices 1 2 3 4 5 6 
#
# 1 0.015435 -0.007473 -0.008932 0.000000 0.000000 0.000000
# 2 -0.007473 0.017196 -0.004459 0.000000 0.000000 0.000000
# 3 -0.008932 -0.004459 0.032720 0.000000 0.000000 0.000000
# 4 0.000000 0.000000 0.000000 0.032579 0.000000 0.000000
# 5 0.000000 0.000000 0.000000 0.000000 0.041332 0.000000
# 6 0.000000 0.000000 0.000000 0.000000 0.000000 0.026861
#
#
# Mechanical properties :
#
#
# Convention : Reuss Voigt Hill
#
# Bulk Modulus (GPa) = 42.33254 57.97297 50.15275
# Shear Modulus (GPa) = 23.17756 26.72565 24.95161
#
# Velocity S-wave (km/s) = 3.41488 3.66695 3.54316
# Velocity P-wave (km/s) = 6.07021 6.86271 6.47859
#
# Compressibility (1/GPa) = 0.02362249
#
# Stress axis : x y z
#
# Youngs Moduli (GPa) = 64.78961 58.15278 30.56219
#
# Poissons Ratio (x) = 0.43456 0.27299
# Poissons Ratio (y) = 0.48415 0.13629
# Poissons Ratio (z) = 0.57871 0.25932
#
# Static dielectric constant tensor:
#      x y z
#    x 3.881900 0.000000 0.000000 
#    y 0.000000 3.718530 0.000000 
#    z 0.000000 0.000000 3.229950 
# 
# 
# High freq. dielectric constant tensor:
#      x y z
#    x 1.788730 0.000000 0.000000 
#    y 0.000000 1.788830 0.000000 
#    z 0.000000 0.000000 1.743320 
# 
# From -- ./inp_files/4012.got.cif
#   From: 2010.03.12/outbox.cif.g09.slc.cpg/sg63_3_cif.got.tgz:4012.got - 2010.04.10 19:34:48.
