data_PCOD8256283
_publ_section_title
;
Structure prediction by ZEFSAII (Michael W. Deem and Ramdas Pophale) SiO2 
 PCOD8256283
Probable space group: C M C M
;
_chemical_formula_sum "Si O2"
_cell_formula_units_Z 80
_cell_length_a 12.981329
_cell_length_b 12.692206
_cell_length_c 23.090403
_cell_angle_alpha 90.000000
_cell_angle_beta 90.000000
_cell_angle_gamma 90.000000
_cell_volume 3804.414094
_symmetry_space_group_name_H-M "C M C M"
_symmetry_group_IT_number 63
_symmetry_cell_setting 'orthorhombic'
loop_
_space_group_symop_operation_xyz
x,y,z
-x,-y,1/2+z
x,-y,-z
-x,y,1/2-z
-x,-y,-z
x,y,1/2-z
-x,y,z
x,-y,1/2+z
1/2+x,1/2+y,z
1/2-x,1/2-y,1/2+z
1/2+x,1/2-y,-z
1/2-x,1/2+y,1/2-z
1/2-x,1/2-y,-z
1/2+x,1/2+y,1/2-z
1/2-x,1/2+y,z
1/2+x,1/2-y,1/2+z
loop_
_atom_site_type_symbol
_atom_site_label
_atom_site_fract_x
_atom_site_fract_y
_atom_site_fract_z
Si Si1 0.185042 0.337494 0.184793
Si Si2 0.118161 0.912079 0.130756
Si Si3 0.116432 0.566019 0.316582
Si Si4 0.886691 0.123690 0.504104
Si Si5 0.197766 0.142166 0.113945
O O1 0.163161 0.302560 0.250000
O O2 0.307442 0.361112 0.178357
O O3 0.122080 0.442202 0.168216
O O4 0.145616 0.242835 0.144391
O O5 0.000000 0.888142 0.146809
O O6 0.132259 0.038288 0.128647
O O7 0.150399 0.854915 0.069949
O O8 0.153579 0.584177 0.250000
O O9 0.186094 0.631189 0.361568
O O10 0.000000 0.605360 0.325040
O O11 0.804728 0.163013 0.455687
O O12 0.000000 0.174976 0.492936
O O13 0.900011 0.000000 0.500000
#
# Coordination Sequence:
#
# PCOD8256283 Si02
#       5
#    16  16  16  16  16
#     4  10  21  34  50  76 105 133 171 215 255 298
#     4   9  19  36  56  78 106 137 168 207 257 309
#     4   9  19  35  50  67 100 141 173 207 256 308
#     4   8  15  30  53  79 104 131 165 208 258 306
#     4  10  18  31  55  78 101 132 172 214 254 300
#
# _framework density 21.028206000000001
#
# number of rings (size 3 to 8) (size 9 to 14) (size 15 to 20)
#    0.000    2.800    0.000    2.400    0.000    4.400 
#    0.000    0.000    0.000   20.400    0.000    0.000 
#    0.000    0.000    0.000    0.000    0.000    0.000 
#
# Total GULP energy -495763.031890 kJ/mol
# GULP energy per Si atom -12394.075797 kJ/mol
# Density = 2.098034 g / cm^3
# Si number density = 21.028206 Si / 1000 Ang^3
#
#
#
# Elastic Constant Matrix: (Units=GPa)
#
#
# Indices 1 2 3 4 5 6 
#
# 1 74.0837 -16.5674 17.1104 0.0000 0.0000 0.0000
# 2 -16.5674 32.9058 5.6350 0.0000 0.0000 0.0000
# 3 17.1104 5.6350 61.8434 0.0000 0.0000 0.0000
# 4 0.0000 0.0000 0.0000 28.9887 0.0000 0.0000
# 5 0.0000 0.0000 0.0000 0.0000 32.7689 0.0000
# 6 0.0000 0.0000 0.0000 0.0000 0.0000 3.9551
#
#
#
# Elastic Compliance Matrix: (Units=1/GPa)
#
#
# Indices 1 2 3 4 5 6 
#
# 1 0.016890 0.009452 -0.005534 0.000000 0.000000 0.000000
# 2 0.009452 0.036161 -0.005910 0.000000 0.000000 0.000000
# 3 -0.005534 -0.005910 0.018240 0.000000 0.000000 0.000000
# 4 0.000000 0.000000 0.000000 0.034496 0.000000 0.000000
# 5 0.000000 0.000000 0.000000 0.000000 0.030517 0.000000
# 6 0.000000 0.000000 0.000000 0.000000 0.000000 0.252839
#
#
# Mechanical properties :
#
#
# Convention : Reuss Voigt Hill
#
# Bulk Modulus (GPa) = 14.85772 20.13210 17.49491
# Shear Modulus (GPa) = 12.03189 23.98620 18.00904
#
# Velocity S-wave (km/s) = 2.39462 3.38104 2.92965
# Velocity P-wave (km/s) = 3.83752 4.98363 4.44765
#
# Compressibility (1/GPa) = 0.06730507
#
# Stress axis : x y z
#
# Youngs Moduli (GPa) = 59.20626 27.65448 54.82593
#
# Poissons Ratio (x) = -0.26138 0.30342
# Poissons Ratio (y) = -0.55959 0.32401
# Poissons Ratio (z) = 0.32766 0.16343
#
# Static dielectric constant tensor:
#      x y z
#    x 3.580920 0.000000 0.000000 
#    y 0.000000 3.612400 0.000000 
#    z 0.000000 0.000000 4.043800 
# 
# 
# High freq. dielectric constant tensor:
#      x y z
#    x 1.804320 0.000000 0.000000 
#    y 0.000000 1.811960 0.000000 
#    z 0.000000 0.000000 1.820090 
# 
# From -- ./inp_files/54003.got.cif
#   From: 2010.03.12/outbox.cif.g09.slc.cpg/sg63_28_cif.got.tgz:54003.got - 2010.04.10 19:34:48.
