data_PCOD8256584
_publ_section_title
;
Structure prediction by ZEFSAII (Michael W. Deem and Ramdas Pophale) SiO2 
 PCOD8256584
Probable space group: C M C M
;
_chemical_formula_sum "Si O2"
_cell_formula_units_Z 80
_cell_length_a 18.431426
_cell_length_b 35.967083
_cell_length_c 9.166554
_cell_angle_alpha 90.000000
_cell_angle_beta 90.000000
_cell_angle_gamma 90.000000
_cell_volume 6076.734407
_symmetry_space_group_name_H-M "C M C M"
_symmetry_group_IT_number 63
_symmetry_cell_setting 'orthorhombic'
loop_
_space_group_symop_operation_xyz
x,y,z
-x,-y,1/2+z
x,-y,-z
-x,y,1/2-z
-x,-y,-z
x,y,1/2-z
-x,y,z
x,-y,1/2+z
1/2+x,1/2+y,z
1/2-x,1/2-y,1/2+z
1/2+x,1/2-y,-z
1/2-x,1/2+y,1/2-z
1/2-x,1/2-y,-z
1/2+x,1/2+y,1/2-z
1/2-x,1/2+y,z
1/2+x,1/2-y,1/2+z
loop_
_atom_site_type_symbol
_atom_site_label
_atom_site_fract_x
_atom_site_fract_y
_atom_site_fract_z
Si Si1 0.417192 0.254621 0.420018
Si Si2 0.153360 0.675787 0.415803
Si Si3 0.084072 0.390861 0.079510
Si Si4 0.291389 0.282161 0.917582
Si Si5 0.413666 0.035735 0.414789
O O1 0.407654 0.262812 0.250000
O O2 0.500000 0.258347 0.470691
O O3 0.389264 0.213352 0.458169
O O4 0.370514 0.285818 0.507387
O O5 0.133212 0.664350 0.250000
O O6 0.130261 0.644067 0.526852
O O7 0.240723 0.681218 0.430635
O O8 0.096555 0.397147 0.250000
O O9 0.000000 0.383413 0.043197
O O10 0.113064 0.427267 0.996466
O O11 0.301759 0.270825 0.750000
O O12 0.250000 0.250000 0.000000
O O13 0.383271 0.035716 0.250000
O O14 0.500000 0.034099 0.414334
O O15 0.382203 0.000000 0.500000
#
# Coordination Sequence:
#
# PCOD8256584 Si02
#       5
#    16  16  16  16  16
#     4   9  17  28  41  56  73  93 119 152 188 224
#     4   9  17  28  39  51  70  95 120 148 184 221
#     4  10  19  27  36  53  73  92 119 153 185 217
#     4   9  17  28  40  53  70  93 120 149 183 223
#     4   9  16  26  39  52  68  91 117 146 179 213
#
# _framework density 13.164966
#
# number of rings (size 3 to 8) (size 9 to 14) (size 15 to 20)
#    0.000    2.800    0.000    3.600    0.000    8.800 
#    0.000    0.000    0.000    0.000    0.000    0.000 
#    0.000    0.000    0.000    0.000    0.000    1.000 
#
# Total GULP energy -495830.392787 kJ/mol
# GULP energy per Si atom -12395.759820 kJ/mol
# Density = 1.313500 g / cm^3
# Si number density = 13.164966 Si / 1000 Ang^3
#
#
#
# Elastic Constant Matrix: (Units=GPa)
#
#
# Indices 1 2 3 4 5 6 
#
# 1 76.8520 31.2655 38.9486 0.0000 0.0000 0.0000
# 2 31.2655 59.6457 43.4693 0.0000 0.0000 0.0000
# 3 38.9486 43.4693 89.1726 0.0000 0.0000 0.0000
# 4 0.0000 0.0000 0.0000 25.2118 0.0000 0.0000
# 5 0.0000 0.0000 0.0000 0.0000 20.9833 0.0000
# 6 0.0000 0.0000 0.0000 0.0000 0.0000 10.4032
#
#
#
# Elastic Compliance Matrix: (Units=1/GPa)
#
#
# Indices 1 2 3 4 5 6 
#
# 1 0.017883 -0.005710 -0.005027 0.000000 0.000000 0.000000
# 2 -0.005710 0.027827 -0.011071 0.000000 0.000000 0.000000
# 3 -0.005027 -0.011071 0.018807 0.000000 0.000000 0.000000
# 4 0.000000 0.000000 0.000000 0.039664 0.000000 0.000000
# 5 0.000000 0.000000 0.000000 0.000000 0.047657 0.000000
# 6 0.000000 0.000000 0.000000 0.000000 0.000000 0.096124
#
#
# Mechanical properties :
#
#
# Convention : Reuss Voigt Hill
#
# Bulk Modulus (GPa) = 47.84657 50.33745 49.09201
# Shear Modulus (GPa) = 16.74785 18.78546 17.76665
#
# Velocity S-wave (km/s) = 3.57059 3.78157 3.67759
# Velocity P-wave (km/s) = 7.30901 7.57535 7.44337
#
# Compressibility (1/GPa) = 0.02090014
#
# Stress axis : x y z
#
# Youngs Moduli (GPa) = 55.91934 35.93597 53.17216
#
# Poissons Ratio (x) = 0.20520 0.26731
# Poissons Ratio (y) = 0.31931 0.58867
# Poissons Ratio (z) = 0.28112 0.39785
#
# Static dielectric constant tensor:
#      x y z
#    x 2.853350 0.000000 0.000000 
#    y 0.000000 2.555040 0.000000 
#    z 0.000000 0.000000 2.818790 
# 
# 
# High freq. dielectric constant tensor:
#      x y z
#    x 1.466470 0.000000 0.000000 
#    y 0.000000 1.472600 0.000000 
#    z 0.000000 0.000000 1.518190 
# 
# From -- ./inp_files/6661.got.cif
#   From: 2010.03.12/outbox.cif.g09.slc.cpg/sg63_4_cif.got.tgz:6661.got - 2010.04.10 19:34:48.
