data_PCOD8256774
_publ_section_title
;
Structure prediction by ZEFSAII (Michael W. Deem and Ramdas Pophale) SiO2 
 PCOD8256774
Probable space group: C M C M
;
_chemical_formula_sum "Si O2"
_cell_formula_units_Z 112
_cell_length_a 13.337075
_cell_length_b 28.341222
_cell_length_c 18.753649
_cell_angle_alpha 90.000000
_cell_angle_beta 90.000000
_cell_angle_gamma 90.000000
_cell_volume 7088.673096
_symmetry_space_group_name_H-M "C M C M"
_symmetry_group_IT_number 63
_symmetry_cell_setting 'orthorhombic'
loop_
_space_group_symop_operation_xyz
x,y,z
-x,-y,1/2+z
x,-y,-z
-x,y,1/2-z
-x,-y,-z
x,y,1/2-z
-x,y,z
x,-y,1/2+z
1/2+x,1/2+y,z
1/2-x,1/2-y,1/2+z
1/2+x,1/2-y,-z
1/2-x,1/2+y,1/2-z
1/2-x,1/2-y,-z
1/2+x,1/2+y,1/2-z
1/2-x,1/2+y,z
1/2+x,1/2-y,1/2+z
loop_
_atom_site_type_symbol
_atom_site_label
_atom_site_fract_x
_atom_site_fract_y
_atom_site_fract_z
Si Si1 0.880932 0.443743 0.830671
Si Si2 0.618488 0.850674 0.594039
Si Si3 0.770953 0.162926 0.832091
Si Si4 0.779507 0.477696 0.075648
Si Si5 0.384548 0.243575 0.166343
Si Si6 0.384300 0.431841 0.168134
Si Si7 0.618036 0.878019 0.436818
O O1 0.842492 0.449898 0.750000
O O2 0.837069 0.394645 0.861404
O O3 0.843314 0.486583 0.877745
O O4 0.000000 0.443687 0.834397
O O5 0.500000 0.850902 0.603317
O O6 0.660819 0.801674 0.625247
O O7 0.650036 0.855504 0.512012
O O8 0.738645 0.165920 0.750000
O O9 0.820438 0.211480 0.858226
O O10 0.852508 0.122127 0.844608
O O11 0.670382 0.152904 0.875964
O O12 0.676828 0.466279 0.116551
O O13 0.848131 0.432030 0.065146
O O14 0.750798 0.500000 0.000000
O O15 0.374427 0.234042 0.250000
O O16 0.500000 0.252849 0.145564
O O17 0.364055 0.446452 0.250000
O O18 0.500000 0.436946 0.147909
O O19 0.500000 0.875635 0.423904
#
# Coordination Sequence:
#
# PCOD8256774 Si02
#       7
#    16  16  16  16  16  16  16
#     4  10  19  30  46  69  96 126 161 198 233 274
#     4   9  17  29  45  67  94 123 153 190 237 280
#     4   9  18  31  48  70  92 119 154 190 234 284
#     4  11  20  31  48  69  95 127 160 192 232 282
#     4   9  16  28  48  71  93 117 149 192 239 284
#     4   9  18  33  50  68  92 119 150 192 237 279
#     4  10  20  32  46  66  96 130 159 190 232 280
#
# _framework density 15.799854
#
# number of rings (size 3 to 8) (size 9 to 14) (size 15 to 20)
#    0.000    2.429    1.429    1.714    0.000    5.714 
#    0.000    0.000    0.000    0.000    0.000    1.000 
#    0.000    2.286    0.000    0.000    0.000    0.000 
#
# Total GULP energy -694440.654664 kJ/mol
# GULP energy per Si atom -12400.725976 kJ/mol
# Density = 1.576389 g / cm^3
# Si number density = 15.799854 Si / 1000 Ang^3
#
#
#
# Elastic Constant Matrix: (Units=GPa)
#
#
# Indices 1 2 3 4 5 6 
#
# 1 67.6408 39.4567 49.6060 0.0000 0.0000 0.0000
# 2 39.4567 119.5359 63.0534 0.0000 0.0000 0.0000
# 3 49.6060 63.0534 103.8017 0.0000 0.0000 0.0000
# 4 0.0000 0.0000 0.0000 32.8091 0.0000 0.0000
# 5 0.0000 0.0000 0.0000 0.0000 20.8701 0.0000
# 6 0.0000 0.0000 0.0000 0.0000 0.0000 17.6889
#
#
#
# Elastic Compliance Matrix: (Units=1/GPa)
#
#
# Indices 1 2 3 4 5 6 
#
# 1 0.023329 -0.002678 -0.009522 0.000000 0.000000 0.000000
# 2 -0.002678 0.012617 -0.006385 0.000000 0.000000 0.000000
# 3 -0.009522 -0.006385 0.018063 0.000000 0.000000 0.000000
# 4 0.000000 0.000000 0.000000 0.030479 0.000000 0.000000
# 5 0.000000 0.000000 0.000000 0.000000 0.047915 0.000000
# 6 0.000000 0.000000 0.000000 0.000000 0.000000 0.056533
#
#
# Mechanical properties :
#
#
# Convention : Reuss Voigt Hill
#
# Bulk Modulus (GPa) = 59.38235 66.13449 62.75842
# Shear Modulus (GPa) = 21.57779 23.53112 22.55445
#
# Velocity S-wave (km/s) = 3.69954 3.86336 3.78234
# Velocity P-wave (km/s) = 7.47760 7.86443 7.67345
#
# Compressibility (1/GPa) = 0.01684002
#
# Stress axis : x y z
#
# Youngs Moduli (GPa) = 42.86428 79.25592 55.36262
#
# Poissons Ratio (x) = 0.21222 0.52719
# Poissons Ratio (y) = 0.11478 0.35347
# Poissons Ratio (z) = 0.40817 0.50602
#
# Static dielectric constant tensor:
#      x y z
#    x 2.756030 0.000000 0.000000 
#    y 0.000000 3.161480 0.000000 
#    z 0.000000 0.000000 3.131420 
# 
# 
# High freq. dielectric constant tensor:
#      x y z
#    x 1.577490 0.000000 0.000000 
#    y 0.000000 1.614230 0.000000 
#    z 0.000000 0.000000 1.614540 
# 
# From -- ./inp_files/32779.got.cif
#   From: 2010.03.12/outbox.cif.g09.slc.cpg/sg63_17_cif.got.tgz:32779.got - 2010.04.10 19:34:48.
