data_PCOD8256157
_publ_section_title
;
Structure prediction by ZEFSAII (Michael W. Deem and Ramdas Pophale) SiO2 
 PCOD8256157
Probable space group: C M C M
;
_chemical_formula_sum "Si O2"
_cell_formula_units_Z 80
_cell_length_a 23.676438
_cell_length_b 26.428617
_cell_length_c 8.783167
_cell_angle_alpha 90.000000
_cell_angle_beta 90.000000
_cell_angle_gamma 90.000000
_cell_volume 5495.939498
_symmetry_space_group_name_H-M "C M C M"
_symmetry_group_IT_number 63
_symmetry_cell_setting 'orthorhombic'
loop_
_space_group_symop_operation_xyz
x,y,z
-x,-y,1/2+z
x,-y,-z
-x,y,1/2-z
-x,-y,-z
x,y,1/2-z
-x,y,z
x,-y,1/2+z
1/2+x,1/2+y,z
1/2-x,1/2-y,1/2+z
1/2+x,1/2-y,-z
1/2-x,1/2+y,1/2-z
1/2-x,1/2-y,-z
1/2+x,1/2+y,1/2-z
1/2-x,1/2+y,z
1/2+x,1/2-y,1/2+z
loop_
_atom_site_type_symbol
_atom_site_label
_atom_site_fract_x
_atom_site_fract_y
_atom_site_fract_z
Si Si1 0.000000 0.394700 0.928983
Si Si2 0.500000 0.784228 0.069724
Si Si3 0.684247 0.147021 0.071788
Si Si4 0.115999 0.446269 0.929395
Si Si5 0.114735 0.743829 0.069347
Si Si6 0.212390 0.793567 0.929086
O O1 0.054103 0.427258 0.978356
O O2 0.000000 0.382207 0.750000
O O3 0.000000 0.341909 0.015525
O O4 0.500000 0.782468 0.250000
O O5 0.553590 0.753926 0.005826
O O6 0.672524 0.146727 0.250000
O O7 0.662192 0.093730 0.005003
O O8 0.646164 0.193203 0.008253
O O9 0.751339 0.154994 0.037992
O O10 0.120139 0.451876 0.750000
O O11 0.130015 0.500000 0.000000
O O12 0.109203 0.745976 0.250000
O O13 0.151290 0.792494 0.011034
O O14 0.204777 0.784914 0.750000
O O15 0.250000 0.750000 0.000000
#
# Coordination Sequence:
#
# PCOD8256157 Si02
#       6
#     8   8  16  16  16  16
#     4  10  19  33  47  54  78 116 148 181 227 267
#     4  12  22  29  43  66  87 108 143 185 214 253
#     4   8  15  28  45  59  79 108 137 171 218 260
#     4  10  19  31  44  60  80 111 147 184 223 259
#     4  10  18  31  46  60  82 113 140 170 215 262
#     4   9  16  27  43  64  83 105 137 174 213 258
#
# _framework density 14.556201
#
# number of rings (size 3 to 8) (size 9 to 14) (size 15 to 20)
#    0.000    2.400    2.000    3.600    0.000    0.800 
#    0.000    2.000    0.000    0.000    0.000    0.000 
#    0.000    0.000    0.000    0.900    0.000   10.800 
#
# Total GULP energy -495696.851693 kJ/mol
# GULP energy per Si atom -12392.421292 kJ/mol
# Density = 1.452307 g / cm^3
# Si number density = 14.556201 Si / 1000 Ang^3
#
#
#
# Elastic Constant Matrix: (Units=GPa)
#
#
# Indices 1 2 3 4 5 6 
#
# 1 120.8606 62.6206 39.7806 0.0000 0.0000 0.0000
# 2 62.6206 70.1519 24.7810 0.0000 0.0000 0.0000
# 3 39.7806 24.7810 57.5687 0.0000 0.0000 0.0000
# 4 0.0000 0.0000 0.0000 18.5530 0.0000 0.0000
# 5 0.0000 0.0000 0.0000 0.0000 22.3372 0.0000
# 6 0.0000 0.0000 0.0000 0.0000 0.0000 18.2596
#
#
#
# Elastic Compliance Matrix: (Units=1/GPa)
#
#
# Indices 1 2 3 4 5 6 
#
# 1 0.017072 -0.013058 -0.006176 0.000000 0.000000 0.000000
# 2 -0.013058 0.026798 -0.002513 0.000000 0.000000 0.000000
# 3 -0.006176 -0.002513 0.022720 0.000000 0.000000 0.000000
# 4 0.000000 0.000000 0.000000 0.053900 0.000000 0.000000
# 5 0.000000 0.000000 0.000000 0.000000 0.044768 0.000000
# 6 0.000000 0.000000 0.000000 0.000000 0.000000 0.054766
#
#
# Mechanical properties :
#
#
# Convention : Reuss Voigt Hill
#
# Bulk Modulus (GPa) = 43.29497 55.88286 49.58891
# Shear Modulus (GPa) = 18.43542 19.92323 19.17933
#
# Velocity S-wave (km/s) = 3.56265 3.70362 3.63382
# Velocity P-wave (km/s) = 6.83602 7.53416 7.19356
#
# Compressibility (1/GPa) = 0.02309737
#
# Stress axis : x y z
#
# Youngs Moduli (GPa) = 58.57383 37.31582 44.01399
#
# Poissons Ratio (x) = 0.48726 0.27185
# Poissons Ratio (y) = 0.76485 0.11059
# Poissons Ratio (z) = 0.36178 0.09376
#
# Static dielectric constant tensor:
#      x y z
#    x 3.219060 0.000000 0.000000 
#    y 0.000000 2.853360 0.000000 
#    z 0.000000 0.000000 2.794570 
# 
# 
# High freq. dielectric constant tensor:
#      x y z
#    x 1.554830 0.000000 0.000000 
#    y 0.000000 1.513780 0.000000 
#    z 0.000000 0.000000 1.554260 
# 
# From -- ./inp_files/8436.got.cif
#   From: 2010.03.12/outbox.cif.g09.slc.cpg/sg63_5_cif.got.tgz:8436.got - 2010.04.10 19:34:48.
