data_PCOD8256150
_publ_section_title
;
Structure prediction by ZEFSAII (Michael W. Deem and Ramdas Pophale) SiO2 
 PCOD8256150
Probable space group: C M C M
;
_chemical_formula_sum "Si O2"
_cell_formula_units_Z 112
_cell_length_a 26.474406
_cell_length_b 10.897456
_cell_length_c 22.521690
_cell_angle_alpha 90.000000
_cell_angle_beta 90.000000
_cell_angle_gamma 90.000000
_cell_volume 6497.590321
_symmetry_space_group_name_H-M "C M C M"
_symmetry_group_IT_number 63
_symmetry_cell_setting 'orthorhombic'
loop_
_space_group_symop_operation_xyz
x,y,z
-x,-y,1/2+z
x,-y,-z
-x,y,1/2-z
-x,-y,-z
x,y,1/2-z
-x,y,z
x,-y,1/2+z
1/2+x,1/2+y,z
1/2-x,1/2-y,1/2+z
1/2+x,1/2-y,-z
1/2-x,1/2+y,1/2-z
1/2-x,1/2-y,-z
1/2+x,1/2+y,1/2-z
1/2-x,1/2+y,z
1/2+x,1/2-y,1/2+z
loop_
_atom_site_type_symbol
_atom_site_label
_atom_site_fract_x
_atom_site_fract_y
_atom_site_fract_z
Si Si1 0.154242 0.636261 0.317207
Si Si2 0.860798 0.215429 0.033860
Si Si3 0.310529 0.077239 0.892533
Si Si4 0.730484 0.710146 0.183819
Si Si5 0.875487 0.166838 0.596953
Si Si6 0.556331 0.543582 0.432560
Si Si7 0.707954 0.525613 0.087369
O O1 0.134473 0.612983 0.250000
O O2 0.152265 0.511898 0.355966
O O3 0.210079 0.690057 0.315857
O O4 0.118832 0.735977 0.349898
O O5 0.843048 0.344404 0.060866
O O6 0.908205 0.163896 0.072466
O O7 0.816324 0.110793 0.035148
O O8 0.877955 0.237951 0.966258
O O9 0.281254 0.158831 0.844564
O O10 0.266866 0.001204 0.927676
O O11 0.708258 0.708171 0.250000
O O12 0.702613 0.603194 0.147933
O O13 0.920410 0.068313 0.605495
O O14 0.821466 0.100113 0.597977
O O15 0.555919 0.500000 0.500000
O O16 0.500000 0.574310 0.409553
#
# Coordination Sequence:
#
# PCOD8256150 Si02
#       7
#    16  16  16  16  16  16  16
#     4  10  20  31  44  63  91 129 167 199 230 272
#     4   9  19  31  46  70 100 123 159 197 231 297
#     4  10  18  31  43  65  97 136 163 191 231 275
#     4   9  17  29  43  59  85 128 178 207 220 258
#     4  10  18  32  46  71  97 119 158 197 239 291
#     4   8  15  31  56  77  95 118 148 196 247 282
#     4   9  17  29  41  63  94 129 156 190 237 273
#
# _framework density 17.237159999999999
#
# number of rings (size 3 to 8) (size 9 to 14) (size 15 to 20)
#    0.000    2.714    1.429    1.714    0.000    2.286 
#    5.143    0.000    0.000    1.286    0.000    4.000 
#    0.000    0.000    0.000    0.000    0.000    0.000 
#
# Total GULP energy -694220.402704 kJ/mol
# GULP energy per Si atom -12396.792905 kJ/mol
# Density = 1.719793 g / cm^3
# Si number density = 17.237160 Si / 1000 Ang^3
#
#
#
# Elastic Constant Matrix: (Units=GPa)
#
#
# Indices 1 2 3 4 5 6 
#
# 1 75.9919 28.1845 23.4592 0.0000 0.0000 0.0000
# 2 28.1845 80.2455 28.3020 0.0000 0.0000 0.0000
# 3 23.4592 28.3020 59.7507 0.0000 0.0000 0.0000
# 4 0.0000 0.0000 0.0000 20.7226 0.0000 0.0000
# 5 0.0000 0.0000 0.0000 0.0000 10.1648 0.0000
# 6 0.0000 0.0000 0.0000 0.0000 0.0000 15.8197
#
#
#
# Elastic Compliance Matrix: (Units=1/GPa)
#
#
# Indices 1 2 3 4 5 6 
#
# 1 0.016020 -0.004092 -0.004352 0.000000 0.000000 0.000000
# 2 -0.004092 0.016006 -0.005975 0.000000 0.000000 0.000000
# 3 -0.004352 -0.005975 0.021275 0.000000 0.000000 0.000000
# 4 0.000000 0.000000 0.000000 0.048256 0.000000 0.000000
# 5 0.000000 0.000000 0.000000 0.000000 0.098379 0.000000
# 6 0.000000 0.000000 0.000000 0.000000 0.000000 0.063212
#
#
# Mechanical properties :
#
#
# Convention : Reuss Voigt Hill
#
# Bulk Modulus (GPa) = 40.87608 41.76438 41.32023
# Shear Modulus (GPa) = 16.65882 18.41092 17.53487
#
# Velocity S-wave (km/s) = 3.11215 3.27172 3.19293
# Velocity P-wave (km/s) = 6.05635 6.20919 6.13325
#
# Compressibility (1/GPa) = 0.02446418
#
# Stress axis : x y z
#
# Youngs Moduli (GPa) = 62.42056 62.47515 47.00371
#
# Poissons Ratio (x) = 0.25565 0.20454
# Poissons Ratio (y) = 0.25543 0.28085
# Poissons Ratio (z) = 0.27163 0.37329
#
# Static dielectric constant tensor:
#      x y z
#    x 3.068640 0.000000 0.000000 
#    y 0.000000 3.180140 0.000000 
#    z 0.000000 0.000000 3.247360 
# 
# 
# High freq. dielectric constant tensor:
#      x y z
#    x 1.618140 0.000000 0.000000 
#    y 0.000000 1.666210 0.000000 
#    z 0.000000 0.000000 1.653780 
# 
# From -- ./inp_files/65529.got.cif
#   From: 2010.03.12/outbox.cif.g09.slc.cpg/sg63_33_cif.got.tgz:65529.got - 2010.04.10 19:34:48.
