data_PCOD8256175
_publ_section_title
;
Structure prediction by ZEFSAII (Michael W. Deem and Ramdas Pophale) SiO2 
 PCOD8256175
Probable space group: C M C M
;
_chemical_formula_sum "Si O2"
_cell_formula_units_Z 96
_cell_length_a 7.895847
_cell_length_b 24.047296
_cell_length_c 29.935118
_cell_angle_alpha 90.000000
_cell_angle_beta 90.000000
_cell_angle_gamma 90.000000
_cell_volume 5683.893709
_symmetry_space_group_name_H-M "C M C M"
_symmetry_group_IT_number 63
_symmetry_cell_setting 'orthorhombic'
loop_
_space_group_symop_operation_xyz
x,y,z
-x,-y,1/2+z
x,-y,-z
-x,y,1/2-z
-x,-y,-z
x,y,1/2-z
-x,y,z
x,-y,1/2+z
1/2+x,1/2+y,z
1/2-x,1/2-y,1/2+z
1/2+x,1/2-y,-z
1/2-x,1/2+y,1/2-z
1/2-x,1/2-y,-z
1/2+x,1/2+y,1/2-z
1/2-x,1/2+y,z
1/2+x,1/2-y,1/2+z
loop_
_atom_site_type_symbol
_atom_site_label
_atom_site_fract_x
_atom_site_fract_y
_atom_site_fract_z
Si Si1 0.306958 0.657560 0.503413
Si Si2 0.500000 0.193741 0.797890
Si Si3 0.500000 0.937238 0.198369
Si Si4 0.307076 0.043337 0.964239
Si Si5 0.808689 0.260720 0.558919
Si Si6 0.306337 0.430094 0.132846
Si Si7 0.812763 0.802568 0.146006
O O1 0.500000 0.643092 0.515863
O O2 0.198088 0.603046 0.511919
O O3 0.290645 0.681789 0.452650
O O4 0.230433 0.707243 0.533562
O O5 0.500000 0.221609 0.750000
O O6 0.500000 0.127923 0.795783
O O7 0.671886 0.215326 0.819314
O O8 0.500000 0.962541 0.250000
O O9 0.670547 0.953566 0.169754
O O10 0.500000 0.026655 0.954959
O O11 0.215560 0.041797 0.915928
O O12 0.225168 0.000000 0.000000
O O13 0.799221 0.246982 0.610716
O O14 0.000000 0.268944 0.542650
O O15 0.500000 0.442000 0.149297
O O16 0.276973 0.363903 0.125564
O O17 0.000000 0.802612 0.168069
#
# Coordination Sequence:
#
# PCOD8256175 Si02
#       7
#    16   8   8  16  16  16  16
#     4  10  19  29  44  67  91 122 164 202 234 276
#     4   9  18  28  42  65  91 125 158 191 241 293
#     4   9  18  32  47  69  97 125 160 207 250 291
#     4  11  22  34  48  67  97 139 173 202 245 297
#     4   9  17  29  43  65  92 122 159 197 237 275
#     4  10  18  31  49  69  95 130 168 199 239 298
#     4   9  17  28  45  65  91 126 159 195 237 285
#
# _framework density 16.889831999999998
#
# number of rings (size 3 to 8) (size 9 to 14) (size 15 to 20)
#    0.000    2.333    2.500    1.000    1.167    2.667 
#    0.000    3.333    0.000    0.000    0.000    0.000 
#    0.000    1.333    0.667    0.000    0.000    0.000 
#
# Total GULP energy -594655.409996 kJ/mol
# GULP energy per Si atom -12388.654375 kJ/mol
# Density = 1.685139 g / cm^3
# Si number density = 16.889832 Si / 1000 Ang^3
#
#
#
# Elastic Constant Matrix: (Units=GPa)
#
#
# Indices 1 2 3 4 5 6 
#
# 1 101.2748 13.0232 58.0430 0.0000 0.0000 0.0000
# 2 13.0232 43.2745 29.0804 0.0000 0.0000 0.0000
# 3 58.0430 29.0804 111.5266 0.0000 0.0000 0.0000
# 4 0.0000 0.0000 0.0000 14.3135 0.0000 0.0000
# 5 0.0000 0.0000 0.0000 0.0000 18.3663 0.0000
# 6 0.0000 0.0000 0.0000 0.0000 0.0000 12.3303
#
#
#
# Elastic Compliance Matrix: (Units=1/GPa)
#
#
# Indices 1 2 3 4 5 6 
#
# 1 0.014096 0.000834 -0.007554 0.000000 0.000000 0.000000
# 2 0.000834 0.028067 -0.007752 0.000000 0.000000 0.000000
# 3 -0.007554 -0.007752 0.014919 0.000000 0.000000 0.000000
# 4 0.000000 0.000000 0.000000 0.069864 0.000000 0.000000
# 5 0.000000 0.000000 0.000000 0.000000 0.054448 0.000000
# 6 0.000000 0.000000 0.000000 0.000000 0.000000 0.081101
#
#
# Mechanical properties :
#
#
# Convention : Reuss Voigt Hill
#
# Bulk Modulus (GPa) = 35.53931 50.70770 43.12350
# Shear Modulus (GPa) = 16.62132 19.39729 18.00931
#
# Velocity S-wave (km/s) = 3.14044 3.39257 3.26894
# Velocity P-wave (km/s) = 5.85127 6.74046 6.31154
#
# Compressibility (1/GPa) = 0.02813786
#
# Stress axis : x y z
#
# Youngs Moduli (GPa) = 70.94190 35.62907 67.02814
#
# Poissons Ratio (x) = -0.02971 0.50630
# Poissons Ratio (y) = -0.05916 0.51963
# Poissons Ratio (z) = 0.53587 0.27621
#
# Static dielectric constant tensor:
#      x y z
#    x 3.441620 0.000000 0.000000 
#    y 0.000000 2.810340 0.000000 
#    z 0.000000 0.000000 3.261290 
# 
# 
# High freq. dielectric constant tensor:
#      x y z
#    x 1.666430 0.000000 0.000000 
#    y 0.000000 1.594080 0.000000 
#    z 0.000000 0.000000 1.634270 
# 
# From -- ./inp_files/67308.got.cif
#   From: 2010.03.12/outbox.cif.g09.slc.cpg/sg63_34_cif.got.tgz:67308.got - 2010.04.10 19:34:48.
