data_PCOD8256128
_publ_section_title
;
Structure prediction by ZEFSAII (Michael W. Deem and Ramdas Pophale) SiO2 
 PCOD8256128
Probable space group: C M C M
;
_chemical_formula_sum "Si O2"
_cell_formula_units_Z 128
_cell_length_a 17.703781
_cell_length_b 24.619334
_cell_length_c 17.295651
_cell_angle_alpha 90.000000
_cell_angle_beta 90.000000
_cell_angle_gamma 90.000000
_cell_volume 7538.401112
_symmetry_space_group_name_H-M "C M C M"
_symmetry_group_IT_number 63
_symmetry_cell_setting 'orthorhombic'
loop_
_space_group_symop_operation_xyz
x,y,z
-x,-y,1/2+z
x,-y,-z
-x,y,1/2-z
-x,-y,-z
x,y,1/2-z
-x,y,z
x,-y,1/2+z
1/2+x,1/2+y,z
1/2-x,1/2-y,1/2+z
1/2+x,1/2-y,-z
1/2-x,1/2+y,1/2-z
1/2-x,1/2-y,-z
1/2+x,1/2+y,1/2-z
1/2-x,1/2+y,z
1/2+x,1/2-y,1/2+z
loop_
_atom_site_type_symbol
_atom_site_label
_atom_site_fract_x
_atom_site_fract_y
_atom_site_fract_z
Si Si1 0.279102 0.126774 0.514031
Si Si2 0.588941 0.391867 0.839314
Si Si3 0.136468 0.183754 0.035546
Si Si4 0.414432 0.367011 0.114529
Si Si5 0.223284 0.070489 0.660374
Si Si6 0.201134 0.032666 0.074062
Si Si7 0.588541 0.199849 0.014029
Si Si8 0.910896 0.247838 0.832871
O O1 0.224706 0.176405 0.487122
O O2 0.268064 0.111522 0.604149
O O3 0.263344 0.076044 0.456551
O O4 0.365481 0.146828 0.511537
O O5 0.613673 0.390393 0.750000
O O6 0.500000 0.400380 0.847823
O O7 0.616447 0.335428 0.877906
O O8 0.630564 0.440552 0.883326
O O9 0.110955 0.246120 0.032768
O O10 0.090318 0.143388 0.977781
O O11 0.500000 0.379181 0.139180
O O12 0.365781 0.417637 0.145539
O O13 0.378842 0.312539 0.153075
O O14 0.246305 0.078935 0.750000
O O15 0.240579 0.008523 0.634796
O O16 0.169243 0.000000 0.000000
O O17 0.500000 0.187693 0.003447
O O18 0.613533 0.209189 0.102932
O O19 0.882963 0.269926 0.750000
O O20 0.000000 0.240563 0.837260
#
# Coordination Sequence:
#
# PCOD8256128 Si02
#       8
#    16  16  16  16  16  16  16  16
#     4   9  19  34  50  70  96 125 157 193 231 280
#     4  10  19  30  45  68 100 133 164 196 224 262
#     4   9  17  31  48  68  98 133 161 181 221 284
#     4   9  16  26  44  70  98 127 158 192 232 281
#     4  10  19  31  48  68  93 124 157 198 242 281
#     4   9  19  34  50  65  87 122 162 201 247 292
#     4  10  18  30  52  75  94 123 160 194 231 277
#     4   8  14  25  41  66  99 124 143 179 233 283
#
# _framework density 16.979728000000001
#
# number of rings (size 3 to 8) (size 9 to 14) (size 15 to 20)
#    0.000    2.750    0.000    3.750    0.000    1.500 
#    0.000    3.750    0.000    4.500    0.000    0.000 
#    0.000    0.000    0.000    0.000    0.000    0.000 
#
# Total GULP energy -793162.053760 kJ/mol
# GULP energy per Si atom -12393.157090 kJ/mol
# Density = 1.694108 g / cm^3
# Si number density = 16.979728 Si / 1000 Ang^3
#
#
#
# Elastic Constant Matrix: (Units=GPa)
#
#
# Indices 1 2 3 4 5 6 
#
# 1 81.9433 52.8498 39.3308 0.0000 0.0000 0.0000
# 2 52.8498 79.3531 51.0424 0.0000 0.0000 0.0000
# 3 39.3308 51.0424 125.9966 0.0000 0.0000 0.0000
# 4 0.0000 0.0000 0.0000 15.3092 0.0000 0.0000
# 5 0.0000 0.0000 0.0000 0.0000 14.2851 0.0000
# 6 0.0000 0.0000 0.0000 0.0000 0.0000 16.6678
#
#
#
# Elastic Compliance Matrix: (Units=1/GPa)
#
#
# Indices 1 2 3 4 5 6 
#
# 1 0.021533 -0.013548 -0.001233 0.000000 0.000000 0.000000
# 2 -0.013548 0.025567 -0.006128 0.000000 0.000000 0.000000
# 3 -0.001233 -0.006128 0.010804 0.000000 0.000000 0.000000
# 4 0.000000 0.000000 0.000000 0.065320 0.000000 0.000000
# 5 0.000000 0.000000 0.000000 0.000000 0.070003 0.000000
# 6 0.000000 0.000000 0.000000 0.000000 0.000000 0.059996
#
#
# Mechanical properties :
#
#
# Convention : Reuss Voigt Hill
#
# Bulk Modulus (GPa) = 62.16871 63.74878 62.95875
# Shear Modulus (GPa) = 16.64420 18.85710 17.75065
#
# Velocity S-wave (km/s) = 3.13427 3.33613 3.23678
# Velocity P-wave (km/s) = 7.05629 7.24329 7.15040
#
# Compressibility (1/GPa) = 0.01608526
#
# Stress axis : x y z
#
# Youngs Moduli (GPa) = 46.43931 39.11301 92.55539
#
# Poissons Ratio (x) = 0.52991 0.11415
# Poissons Ratio (y) = 0.62917 0.56720
# Poissons Ratio (z) = 0.05728 0.23969
#
# Static dielectric constant tensor:
#      x y z
#    x 2.827920 0.000000 0.000000 
#    y 0.000000 3.031760 0.000000 
#    z 0.000000 0.000000 3.395650 
# 
# 
# High freq. dielectric constant tensor:
#      x y z
#    x 1.616900 0.000000 0.000000 
#    y 0.000000 1.638680 0.000000 
#    z 0.000000 0.000000 1.659810 
# 
# From -- ./inp_files/46353.got.cif
#   From: 2010.03.12/outbox.cif.g09.slc.cpg/sg63_24_cif.got.tgz:46353.got - 2010.04.10 19:34:48.
