data_PCOD8256485
_publ_section_title
;
Structure prediction by ZEFSAII (Michael W. Deem and Ramdas Pophale) SiO2 
 PCOD8256485
Probable space group: C M C M
;
_chemical_formula_sum "Si O2"
_cell_formula_units_Z 64
_cell_length_a 9.133447
_cell_length_b 37.556746
_cell_length_c 9.726361
_cell_angle_alpha 90.000000
_cell_angle_beta 90.000000
_cell_angle_gamma 90.000000
_cell_volume 3336.361144
_symmetry_space_group_name_H-M "C M C M"
_symmetry_group_IT_number 63
_symmetry_cell_setting 'orthorhombic'
loop_
_space_group_symop_operation_xyz
x,y,z
-x,-y,1/2+z
x,-y,-z
-x,y,1/2-z
-x,-y,-z
x,y,1/2-z
-x,y,z
x,-y,1/2+z
1/2+x,1/2+y,z
1/2-x,1/2-y,1/2+z
1/2+x,1/2-y,-z
1/2-x,1/2+y,1/2-z
1/2-x,1/2-y,-z
1/2+x,1/2+y,1/2-z
1/2-x,1/2+y,z
1/2+x,1/2-y,1/2+z
loop_
_atom_site_type_symbol
_atom_site_label
_atom_site_fract_x
_atom_site_fract_y
_atom_site_fract_z
Si Si1 0.827462 0.966152 0.590143
Si Si2 0.827198 0.590511 0.904993
Si Si3 0.828213 0.299391 0.750000
Si Si4 0.826437 0.275761 0.250000
Si Si5 0.827634 0.668681 0.968503
O O1 0.778585 0.970638 0.750000
O O2 0.750142 0.932414 0.522187
O O3 0.000000 0.960422 0.580686
O O4 0.777824 0.000000 0.500000
O O5 0.789870 0.577112 0.750000
O O6 0.765013 0.630678 0.920196
O O7 0.000000 0.588822 0.932019
O O8 0.746726 0.262285 0.750000
O O9 0.779742 0.323706 0.623276
O O10 0.000000 0.291012 0.750000
O O11 0.768676 0.298220 0.119894
O O12 0.000000 0.270189 0.250000
O O13 0.000000 0.666930 0.947994
#
# Coordination Sequence:
#
# PCOD8256485 Si02
#       5
#    16  16   8   8  16
#     4  10  22  40  61  85 115 150 184 220 271 331
#     4  10  20  36  59  85 112 146 190 233 274 325
#     4  10  20  32  50  76 105 136 179 227 272 325
#     4  10  18  34  54  72 101 140 179 221 272 327
#     4   9  18  33  53  76 104 141 180 221 273 327
#
# _framework density 19.182576000000001
#
# number of rings (size 3 to 8) (size 9 to 14) (size 15 to 20)
#    0.000    2.250    1.250    1.500    1.750    2.500 
#    0.000    2.500    0.000    0.000    0.000    0.000 
#    0.000    0.000    0.000    0.000    0.000    0.000 
#
# Total GULP energy -396714.685989 kJ/mol
# GULP energy per Si atom -12397.333937 kJ/mol
# Density = 1.913892 g / cm^3
# Si number density = 19.182576 Si / 1000 Ang^3
#
#
#
# Elastic Constant Matrix: (Units=GPa)
#
#
# Indices 1 2 3 4 5 6 
#
# 1 23.8128 27.6826 32.0144 0.0000 0.0000 0.0000
# 2 27.6826 111.5834 57.0282 0.0000 0.0000 0.0000
# 3 32.0144 57.0282 164.1134 0.0000 0.0000 0.0000
# 4 0.0000 0.0000 0.0000 46.3510 0.0000 0.0000
# 5 0.0000 0.0000 0.0000 0.0000 20.2350 0.0000
# 6 0.0000 0.0000 0.0000 0.0000 0.0000 33.3147
#
#
#
# Elastic Compliance Matrix: (Units=1/GPa)
#
#
# Indices 1 2 3 4 5 6 
#
# 1 0.068587 -0.012376 -0.009079 0.000000 0.000000 0.000000
# 2 -0.012376 0.013130 -0.002148 0.000000 0.000000 0.000000
# 3 -0.009079 -0.002148 0.008611 0.000000 0.000000 0.000000
# 4 0.000000 0.000000 0.000000 0.021575 0.000000 0.000000
# 5 0.000000 0.000000 0.000000 0.000000 0.049419 0.000000
# 6 0.000000 0.000000 0.000000 0.000000 0.000000 0.030017
#
#
# Mechanical properties :
#
#
# Convention : Reuss Voigt Hill
#
# Bulk Modulus (GPa) = 23.19002 59.21778 41.20390
# Shear Modulus (GPa) = 19.76913 32.16576 25.96745
#
# Velocity S-wave (km/s) = 3.21374 4.09934 3.68326
# Velocity P-wave (km/s) = 5.08785 7.30368 6.29404
#
# Compressibility (1/GPa) = 0.04312200
#
# Stress axis : x y z
#
# Youngs Moduli (GPa) = 14.57997 76.16037 116.12971
#
# Poissons Ratio (x) = 0.94252 1.05437
# Poissons Ratio (y) = 0.18043 0.24950
# Poissons Ratio (z) = 0.13237 0.16363
#
# Static dielectric constant tensor:
#      x y z
#    x 3.105510 0.000000 0.000000 
#    y 0.000000 3.584360 0.000000 
#    z 0.000000 0.000000 3.985200 
# 
# 
# High freq. dielectric constant tensor:
#      x y z
#    x 1.704870 0.000000 0.000000 
#    y 0.000000 1.755890 0.000000 
#    z 0.000000 0.000000 1.767090 
# 
# From -- ./inp_files/3206.got.cif
#   From: 2010.03.12/outbox.cif.g09.slc.cpg/sg63_2_cif.got.tgz:3206.got - 2010.04.10 19:34:48.
