data_PCOD8256095
_publ_section_title
;
Structure prediction by ZEFSAII (Michael W. Deem and Ramdas Pophale) SiO2 
 PCOD8256095
Probable space group: C M C M
;
_chemical_formula_sum "Si O2"
_cell_formula_units_Z 80
_cell_length_a 24.976166
_cell_length_b 20.851370
_cell_length_c 8.692009
_cell_angle_alpha 90.000000
_cell_angle_beta 90.000000
_cell_angle_gamma 90.000000
_cell_volume 4526.687711
_symmetry_space_group_name_H-M "C M C M"
_symmetry_group_IT_number 63
_symmetry_cell_setting 'orthorhombic'
loop_
_space_group_symop_operation_xyz
x,y,z
-x,-y,1/2+z
x,-y,-z
-x,y,1/2-z
-x,-y,-z
x,y,1/2-z
-x,y,z
x,-y,1/2+z
1/2+x,1/2+y,z
1/2-x,1/2-y,1/2+z
1/2+x,1/2-y,-z
1/2-x,1/2+y,1/2-z
1/2-x,1/2-y,-z
1/2+x,1/2+y,1/2-z
1/2-x,1/2+y,z
1/2+x,1/2-y,1/2+z
loop_
_atom_site_type_symbol
_atom_site_label
_atom_site_fract_x
_atom_site_fract_y
_atom_site_fract_z
Si Si1 0.500000 0.615554 0.426300
Si Si2 0.282144 0.809262 0.431214
Si Si3 0.000000 0.753244 0.075650
Si Si4 0.383253 0.759842 0.572514
Si Si5 0.884781 0.880920 0.934156
Si Si6 0.719229 0.434646 0.432008
O O1 0.500000 0.597730 0.250000
O O2 0.500000 0.691970 0.448092
O O3 0.557085 0.590952 0.493890
O O4 0.280300 0.803400 0.250000
O O5 0.250000 0.750000 0.500000
O O6 0.343531 0.809030 0.488309
O O7 0.255958 0.875690 0.487280
O O8 0.944560 0.713685 0.052796
O O9 0.000000 0.782449 0.250000
O O10 0.366627 0.755354 0.750000
O O11 0.375482 0.689662 0.501345
O O12 0.882654 0.876930 0.750000
O O13 0.840078 0.928101 0.998209
O O14 0.744384 0.500000 0.500000
O O15 0.715623 0.438755 0.250000
#
# Coordination Sequence:
#
# PCOD8256095 Si02
#       6
#     8  16   8  16  16  16
#     4   8  16  28  45  71  98 131 172 215 256 299
#     4  11  22  35  54  79 106 136 174 216 261 313
#     4   8  16  28  44  71 106 137 166 207 254 303
#     4  10  18  30  50  77 107 138 173 211 256 305
#     4  10  18  31  51  73 102 136 174 216 260 304
#     4  11  24  39  54  74 102 136 176 217 264 315
#
# _framework density 17.672965999999999
#
# number of rings (size 3 to 8) (size 9 to 14) (size 15 to 20)
#    0.000    2.000    2.000    2.400    0.000    4.000 
#    0.000    0.500    0.000    0.000    0.000    0.700 
#    0.000    0.000    0.000    0.000    0.000    0.000 
#
# Total GULP energy -495673.854836 kJ/mol
# GULP energy per Si atom -12391.846371 kJ/mol
# Density = 1.763274 g / cm^3
# Si number density = 17.672966 Si / 1000 Ang^3
#
#
#
# Elastic Constant Matrix: (Units=GPa)
#
#
# Indices 1 2 3 4 5 6 
#
# 1 121.7451 54.7253 27.3481 0.0000 0.0000 0.0000
# 2 54.7253 95.5543 34.3446 0.0000 0.0000 0.0000
# 3 27.3481 34.3446 56.8803 0.0000 0.0000 0.0000
# 4 0.0000 0.0000 0.0000 23.4585 0.0000 0.0000
# 5 0.0000 0.0000 0.0000 0.0000 27.5122 0.0000
# 6 0.0000 0.0000 0.0000 0.0000 0.0000 13.0424
#
#
#
# Elastic Compliance Matrix: (Units=1/GPa)
#
#
# Indices 1 2 3 4 5 6 
#
# 1 0.011226 -0.005734 -0.001935 0.000000 0.000000 0.000000
# 2 -0.005734 0.016294 -0.007082 0.000000 0.000000 0.000000
# 3 -0.001935 -0.007082 0.022787 0.000000 0.000000 0.000000
# 4 0.000000 0.000000 0.000000 0.042629 0.000000 0.000000
# 5 0.000000 0.000000 0.000000 0.000000 0.036348 0.000000
# 6 0.000000 0.000000 0.000000 0.000000 0.000000 0.076673
#
#
# Mechanical properties :
#
#
# Convention : Reuss Voigt Hill
#
# Bulk Modulus (GPa) = 48.06348 56.33508 52.19928
# Shear Modulus (GPa) = 20.62756 23.32005 21.97381
#
# Velocity S-wave (km/s) = 3.42011 3.63648 3.52995
# Velocity P-wave (km/s) = 6.54609 7.04113 6.79812
#
# Compressibility (1/GPa) = 0.02080582
#
# Stress axis : x y z
#
# Youngs Moduli (GPa) = 89.07933 61.37081 43.88378
#
# Poissons Ratio (x) = 0.35188 0.08494
# Poissons Ratio (y) = 0.51075 0.31078
# Poissons Ratio (z) = 0.17241 0.43462
#
# Static dielectric constant tensor:
#      x y z
#    x 3.811360 0.000000 0.000000 
#    y 0.000000 2.964590 0.000000 
#    z 0.000000 0.000000 3.359100 
# 
# 
# High freq. dielectric constant tensor:
#      x y z
#    x 1.700430 0.000000 0.000000 
#    y 0.000000 1.629070 0.000000 
#    z 0.000000 0.000000 1.695440 
# 
# From -- ./inp_files/12253.got.cif
#   From: 2010.03.12/outbox.cif.g09.slc.cpg/sg63_7_cif.got.tgz:12253.got - 2010.04.10 19:34:48.
