data_PCOD8256091
_publ_section_title
;
Structure prediction by ZEFSAII (Michael W. Deem and Ramdas Pophale) SiO2 
 PCOD8256091
Probable space group: C M C M
;
_chemical_formula_sum "Si O2"
_cell_formula_units_Z 72
_cell_length_a 21.594387
_cell_length_b 19.530952
_cell_length_c 9.080853
_cell_angle_alpha 90.000000
_cell_angle_beta 90.000000
_cell_angle_gamma 90.000000
_cell_volume 3829.930899
_symmetry_space_group_name_H-M "C M C M"
_symmetry_group_IT_number 63
_symmetry_cell_setting 'orthorhombic'
loop_
_space_group_symop_operation_xyz
x,y,z
-x,-y,1/2+z
x,-y,-z
-x,y,1/2-z
-x,-y,-z
x,y,1/2-z
-x,y,z
x,-y,1/2+z
1/2+x,1/2+y,z
1/2-x,1/2-y,1/2+z
1/2+x,1/2-y,-z
1/2-x,1/2+y,1/2-z
1/2-x,1/2-y,-z
1/2+x,1/2+y,1/2-z
1/2-x,1/2+y,z
1/2+x,1/2-y,1/2+z
loop_
_atom_site_type_symbol
_atom_site_label
_atom_site_fract_x
_atom_site_fract_y
_atom_site_fract_z
Si Si1 0.000000 0.927020 0.574595
Si Si2 0.572597 0.193295 0.918383
Si Si3 0.366143 0.070111 0.423078
Si Si4 0.614762 0.661875 0.424194
Si Si5 0.725085 0.569436 0.422443
O O1 0.060085 0.886373 0.516263
O O2 0.000000 0.935645 0.750000
O O3 0.000000 0.000000 0.500000
O O4 0.592081 0.177466 0.750000
O O5 0.500000 0.207772 0.928780
O O6 0.607634 0.260441 0.982330
O O7 0.589948 0.129820 0.020086
O O8 0.375093 0.061134 0.250000
O O9 0.295317 0.088342 0.465231
O O10 0.386915 0.000000 0.500000
O O11 0.608931 0.665022 0.250000
O O12 0.680884 0.631356 0.475658
O O13 0.703341 0.500000 0.500000
O O14 0.717772 0.556712 0.250000
#
# Coordination Sequence:
#
# PCOD8256091 Si02
#       5
#     8  16  16  16  16
#     4  10  18  30  50  76 105 140 179 214 249 296
#     4  10  20  36  57  78 103 139 178 215 259 313
#     4  10  21  37  56  79 105 135 172 217 267 315
#     4   9  17  32  53  76 105 141 177 211 253 308
#     4   9  18  33  53  77 107 140 175 215 258 307
#
# _framework density 18.799295000000001
#
# number of rings (size 3 to 8) (size 9 to 14) (size 15 to 20)
#    0.000    2.444    1.111    1.333    0.000    2.667 
#    0.000    2.222    0.000    0.000    0.000    0.000 
#    0.000    0.000    0.000    0.000    0.000    0.000 
#
# Total GULP energy -446429.015885 kJ/mol
# GULP energy per Si atom -12400.805997 kJ/mol
# Density = 1.875651 g / cm^3
# Si number density = 18.799295 Si / 1000 Ang^3
#
#
#
# Elastic Constant Matrix: (Units=GPa)
#
#
# Indices 1 2 3 4 5 6 
#
# 1 47.9969 37.6408 19.1526 0.0000 0.0000 0.0000
# 2 37.6408 142.8606 39.8005 0.0000 0.0000 0.0000
# 3 19.1526 39.8005 47.8907 0.0000 0.0000 0.0000
# 4 0.0000 0.0000 0.0000 31.2981 0.0000 0.0000
# 5 0.0000 0.0000 0.0000 0.0000 19.9686 0.0000
# 6 0.0000 0.0000 0.0000 0.0000 0.0000 38.7701
#
#
#
# Elastic Compliance Matrix: (Units=1/GPa)
#
#
# Indices 1 2 3 4 5 6 
#
# 1 0.027748 -0.005491 -0.006534 0.000000 0.000000 0.000000
# 2 -0.005491 0.010195 -0.006277 0.000000 0.000000 0.000000
# 3 -0.006534 -0.006277 0.028711 0.000000 0.000000 0.000000
# 4 0.000000 0.000000 0.000000 0.031951 0.000000 0.000000
# 5 0.000000 0.000000 0.000000 0.000000 0.050079 0.000000
# 6 0.000000 0.000000 0.000000 0.000000 0.000000 0.025793
#
#
# Mechanical properties :
#
#
# Convention : Reuss Voigt Hill
#
# Bulk Modulus (GPa) = 33.27736 47.99288 40.63512
# Shear Modulus (GPa) = 22.61453 27.48431 25.04942
#
# Velocity S-wave (km/s) = 3.47211 3.82774 3.65426
# Velocity P-wave (km/s) = 5.81497 6.71714 6.28227
#
# Compressibility (1/GPa) = 0.03005046
#
# Stress axis : x y z
#
# Youngs Moduli (GPa) = 36.03871 98.08430 34.83022
#
# Poissons Ratio (x) = 0.53855 0.22758
# Poissons Ratio (y) = 0.19788 0.21863
# Poissons Ratio (z) = 0.23547 0.61569
#
# Static dielectric constant tensor:
#      x y z
#    x 3.536980 0.000000 0.000000 
#    y 0.000000 3.551070 0.000000 
#    z 0.000000 0.000000 3.174360 
# 
# 
# High freq. dielectric constant tensor:
#      x y z
#    x 1.733190 0.000000 0.000000 
#    y 0.000000 1.737550 0.000000 
#    z 0.000000 0.000000 1.702910 
# 
# From -- ./inp_files/7824.got.cif
#   From: 2010.03.12/outbox.cif.g09.slc.cpg/sg63_4_cif.got.tgz:7824.got - 2010.04.10 19:34:48.
