data_PCOD8256507
_publ_section_title
;
Structure prediction by ZEFSAII (Michael W. Deem and Ramdas Pophale) SiO2 
 PCOD8256507
Probable space group: C M C M
;
_chemical_formula_sum "Si O2"
_cell_formula_units_Z 64
_cell_length_a 16.757291
_cell_length_b 19.234879
_cell_length_c 10.509103
_cell_angle_alpha 90.000000
_cell_angle_beta 90.000000
_cell_angle_gamma 90.000000
_cell_volume 3387.341000
_symmetry_space_group_name_H-M "C M C M"
_symmetry_group_IT_number 63
_symmetry_cell_setting 'orthorhombic'
loop_
_space_group_symop_operation_xyz
x,y,z
-x,-y,1/2+z
x,-y,-z
-x,y,1/2-z
-x,-y,-z
x,y,1/2-z
-x,y,z
x,-y,1/2+z
1/2+x,1/2+y,z
1/2-x,1/2-y,1/2+z
1/2+x,1/2-y,-z
1/2-x,1/2+y,1/2-z
1/2-x,1/2-y,-z
1/2+x,1/2+y,1/2-z
1/2-x,1/2+y,z
1/2+x,1/2-y,1/2+z
loop_
_atom_site_type_symbol
_atom_site_label
_atom_site_fract_x
_atom_site_fract_y
_atom_site_fract_z
Si Si1 0.140164 0.344060 0.750000
Si Si2 0.319518 0.291520 0.750000
Si Si3 0.909546 0.351115 0.250000
Si Si4 0.697664 0.679322 0.514227
Si Si5 0.587527 0.298938 0.250000
Si Si6 0.660071 0.081777 0.990919
O O1 0.223141 0.300390 0.750000
O O2 0.074019 0.284118 0.750000
O O3 0.127633 0.390698 0.625553
O O4 0.344304 0.210484 0.750000
O O5 0.350599 0.328009 0.620450
O O6 0.898837 0.397654 0.376220
O O7 0.000000 0.321556 0.250000
O O8 0.750000 0.750000 0.500000
O O9 0.633419 0.678176 0.624062
O O10 0.753123 0.613130 0.537866
O O11 0.500000 0.333907 0.250000
O O12 0.668174 0.000000 0.000000
#
# Coordination Sequence:
#
# PCOD8256507 Si02
#       6
#     8   8   8  16   8  16
#     4  10  19  37  56  80 112 146 189 250 273 328
#     4  10  18  34  58  80 102 152 198 236 274 318
#     4  12  23  35  52  80 120 155 183 229 284 344
#     4  11  18  38  62  80 112 149 192 248 272 328
#     4  12  22  34  60  94 116 143 188 245 299 328
#     4  11  22  37  59  82 109 152 200 227 276 342
#
# _framework density 18.893875000000001
#
# number of rings (size 3 to 8) (size 9 to 14) (size 15 to 20)
#    0.000    1.000    7.500    1.500    0.000    4.500 
#    0.000    1.250    0.000    0.750    0.000    7.000 
#    0.000    0.000    0.000    0.000    0.000    0.000 
#
# Total GULP energy -396612.390008 kJ/mol
# GULP energy per Si atom -12394.137188 kJ/mol
# Density = 1.885087 g / cm^3
# Si number density = 18.893875 Si / 1000 Ang^3
#
#
#
# Elastic Constant Matrix: (Units=GPa)
#
#
# Indices 1 2 3 4 5 6 
#
# 1 70.9749 20.6177 55.0158 0.0000 0.0000 0.0000
# 2 20.6177 75.6187 18.2573 0.0000 0.0000 0.0000
# 3 55.0158 18.2573 191.9254 0.0000 0.0000 0.0000
# 4 0.0000 0.0000 0.0000 21.2400 0.0000 0.0000
# 5 0.0000 0.0000 0.0000 0.0000 16.9019 0.0000
# 6 0.0000 0.0000 0.0000 0.0000 0.0000 12.2733
#
#
#
# Elastic Compliance Matrix: (Units=1/GPa)
#
#
# Indices 1 2 3 4 5 6 
#
# 1 0.019230 -0.004004 -0.005132 0.000000 0.000000 0.000000
# 2 -0.004004 0.014369 -0.000219 0.000000 0.000000 0.000000
# 3 -0.005132 -0.000219 0.006702 0.000000 0.000000 0.000000
# 4 0.000000 0.000000 0.000000 0.047081 0.000000 0.000000
# 5 0.000000 0.000000 0.000000 0.000000 0.059165 0.000000
# 6 0.000000 0.000000 0.000000 0.000000 0.000000 0.081478
#
#
# Mechanical properties :
#
#
# Convention : Reuss Voigt Hill
#
# Bulk Modulus (GPa) = 46.31395 58.47785 52.39590
# Shear Modulus (GPa) = 19.69029 26.39158 23.04094
#
# Velocity S-wave (km/s) = 3.23174 3.74148 3.49591
# Velocity P-wave (km/s) = 6.20415 7.04860 6.63981
#
# Compressibility (1/GPa) = 0.02159176
#
# Stress axis : x y z
#
# Youngs Moduli (GPa) = 52.00115 69.59474 149.20585
#
# Poissons Ratio (x) = 0.27868 0.76565
# Poissons Ratio (y) = 0.20823 0.03268
# Poissons Ratio (z) = 0.26684 0.01524
#
# Static dielectric constant tensor:
#      x y z
#    x 3.130870 0.000000 0.000000 
#    y 0.000000 3.207630 0.000000 
#    z 0.000000 0.000000 5.987260 
# 
# 
# High freq. dielectric constant tensor:
#      x y z
#    x 1.702110 0.000000 0.000000 
#    y 0.000000 1.701940 0.000000 
#    z 0.000000 0.000000 1.775760 
# 
# From -- ./inp_files/19022.got.cif
#   From: 2010.03.12/outbox.cif.g09.slc.cpg/sg63_10_cif.got.tgz:19022.got - 2010.04.10 19:34:48.
