data_PCOD8256172
_publ_section_title
;
Structure prediction by ZEFSAII (Michael W. Deem and Ramdas Pophale) SiO2 
 PCOD8256172
Probable space group: C M C M
;
_chemical_formula_sum "Si O2"
_cell_formula_units_Z 80
_cell_length_a 9.232948
_cell_length_b 27.884242
_cell_length_c 16.419027
_cell_angle_alpha 90.000000
_cell_angle_beta 90.000000
_cell_angle_gamma 90.000000
_cell_volume 4227.140178
_symmetry_space_group_name_H-M "C M C M"
_symmetry_group_IT_number 63
_symmetry_cell_setting 'orthorhombic'
loop_
_space_group_symop_operation_xyz
x,y,z
-x,-y,1/2+z
x,-y,-z
-x,y,1/2-z
-x,-y,-z
x,y,1/2-z
-x,y,z
x,-y,1/2+z
1/2+x,1/2+y,z
1/2-x,1/2-y,1/2+z
1/2+x,1/2-y,-z
1/2-x,1/2+y,1/2-z
1/2-x,1/2-y,-z
1/2+x,1/2+y,1/2-z
1/2-x,1/2+y,z
1/2+x,1/2-y,1/2+z
loop_
_atom_site_type_symbol
_atom_site_label
_atom_site_fract_x
_atom_site_fract_y
_atom_site_fract_z
Si Si1 0.830357 0.365601 0.436571
Si Si2 0.169002 0.274502 0.157816
Si Si3 0.827193 0.527718 0.918620
Si Si4 0.172120 0.313282 0.903734
Si Si5 0.328222 0.127200 0.250000
Si Si6 0.172706 0.519456 0.250000
O O1 0.794510 0.329978 0.362026
O O2 0.763088 0.418164 0.421835
O O3 0.768163 0.341013 0.517722
O O4 0.000000 0.372966 0.448215
O O5 0.216562 0.264872 0.250000
O O6 0.257867 0.239380 0.099174
O O7 0.000000 0.264745 0.143234
O O8 0.769267 0.505131 0.833530
O O9 0.000000 0.526920 0.917580
O O10 0.771737 0.500000 0.000000
O O11 0.228523 0.344609 0.828367
O O12 0.000000 0.306809 0.904836
O O13 0.500000 0.124871 0.250000
O O14 0.265957 0.073479 0.250000
O O15 0.000000 0.518319 0.250000
#
# Coordination Sequence:
#
# PCOD8256172 Si02
#       6
#    16  16  16  16   8   8
#     4   9  18  29  44  64  92 127 156 188 235 281
#     4  10  20  32  46  67  97 126 156 194 234 279
#     4   9  16  26  40  62  91 124 159 191 230 286
#     4  10  18  31  49  68  93 125 159 194 231 276
#     4   9  16  26  42  65  91 121 155 191 232 271
#     4   9  16  24  39  61  91 125 153 189 238 285
#
# _framework density 18.925325999999998
#
# number of rings (size 3 to 8) (size 9 to 14) (size 15 to 20)
#    0.000    2.600    1.000    1.800    1.400    4.800 
#    0.000    0.000    0.000    0.000    0.000    0.000 
#    0.000   17.600    0.000    0.000    0.000    0.000 
#
# Total GULP energy -495828.670881 kJ/mol
# GULP energy per Si atom -12395.716772 kJ/mol
# Density = 1.888225 g / cm^3
# Si number density = 18.925326 Si / 1000 Ang^3
#
#
#
# Elastic Constant Matrix: (Units=GPa)
#
#
# Indices 1 2 3 4 5 6 
#
# 1 12.6227 18.7737 13.1055 0.0000 0.0000 0.0000
# 2 18.7737 153.7959 48.3982 0.0000 0.0000 0.0000
# 3 13.1055 48.3982 114.5945 0.0000 0.0000 0.0000
# 4 0.0000 0.0000 0.0000 35.2626 0.0000 0.0000
# 5 0.0000 0.0000 0.0000 0.0000 10.4048 0.0000
# 6 0.0000 0.0000 0.0000 0.0000 0.0000 17.4716
#
#
#
# Elastic Compliance Matrix: (Units=1/GPa)
#
#
# Indices 1 2 3 4 5 6 
#
# 1 0.101941 -0.010120 -0.007384 0.000000 0.000000 0.000000
# 2 -0.010120 0.008503 -0.002434 0.000000 0.000000 0.000000
# 3 -0.007384 -0.002434 0.010599 0.000000 0.000000 0.000000
# 4 0.000000 0.000000 0.000000 0.028359 0.000000 0.000000
# 5 0.000000 0.000000 0.000000 0.000000 0.096109 0.000000
# 6 0.000000 0.000000 0.000000 0.000000 0.000000 0.057236
#
#
# Mechanical properties :
#
#
# Convention : Reuss Voigt Hill
#
# Bulk Modulus (GPa) = 12.32036 49.06311 30.69173
# Shear Modulus (GPa) = 13.52525 26.01018 19.76771
#
# Velocity S-wave (km/s) = 2.67622 3.71126 3.23540
# Velocity P-wave (km/s) = 4.00920 6.65924 5.49632
#
# Compressibility (1/GPa) = 0.08116648
#
# Stress axis : x y z
#
# Youngs Moduli (GPa) = 9.80962 117.59968 94.34945
#
# Poissons Ratio (x) = 1.19012 0.69670
# Poissons Ratio (y) = 0.09927 0.22965
# Poissons Ratio (z) = 0.07244 0.28624
#
# Static dielectric constant tensor:
#      x y z
#    x 2.709120 0.000000 0.000000 
#    y 0.000000 3.725910 0.000000 
#    z 0.000000 0.000000 3.712850 
# 
# 
# High freq. dielectric constant tensor:
#      x y z
#    x 1.649670 0.000000 0.000000 
#    y 0.000000 1.752940 0.000000 
#    z 0.000000 0.000000 1.752620 
# 
# From -- ./inp_files/40577.got.cif
#   From: 2010.03.12/outbox.cif.g09.slc.cpg/sg63_21_cif.got.tgz:40577.got - 2010.04.10 19:34:48.
