data_PCOD8256490
_publ_section_title
;
Structure prediction by ZEFSAII (Michael W. Deem and Ramdas Pophale) SiO2 
 PCOD8256490
Probable space group: C M C M
;
_chemical_formula_sum "Si O2"
_cell_formula_units_Z 96
_cell_length_a 9.080496
_cell_length_b 24.951289
_cell_length_c 23.776138
_cell_angle_alpha 90.000000
_cell_angle_beta 90.000000
_cell_angle_gamma 90.000000
_cell_volume 5386.961488
_symmetry_space_group_name_H-M "C M C M"
_symmetry_group_IT_number 63
_symmetry_cell_setting 'orthorhombic'
loop_
_space_group_symop_operation_xyz
x,y,z
-x,-y,1/2+z
x,-y,-z
-x,y,1/2-z
-x,-y,-z
x,y,1/2-z
-x,y,z
x,-y,1/2+z
1/2+x,1/2+y,z
1/2-x,1/2-y,1/2+z
1/2+x,1/2-y,-z
1/2-x,1/2+y,1/2-z
1/2-x,1/2-y,-z
1/2+x,1/2+y,1/2-z
1/2-x,1/2+y,z
1/2+x,1/2-y,1/2+z
loop_
_atom_site_type_symbol
_atom_site_label
_atom_site_fract_x
_atom_site_fract_y
_atom_site_fract_z
Si Si1 0.329971 0.605199 0.552193
Si Si2 0.826333 0.773634 0.445597
Si Si3 0.825903 0.319424 0.867796
Si Si4 0.825550 0.419273 0.560320
Si Si5 0.330809 0.528768 0.250000
Si Si6 0.168438 0.009383 0.871003
Si Si7 0.175382 0.641213 0.250000
O O1 0.500000 0.605617 0.534012
O O2 0.275144 0.665490 0.565130
O O3 0.239167 0.578435 0.502041
O O4 0.304283 0.570155 0.608264
O O5 0.750000 0.750000 0.500000
O O6 0.776597 0.738356 0.391637
O O7 0.000000 0.769048 0.454839
O O8 0.765458 0.365905 0.908846
O O9 0.762550 0.327832 0.804924
O O10 0.000000 0.324276 0.865423
O O11 0.775154 0.470441 0.595254
O O12 0.000000 0.419990 0.555856
O O13 0.500000 0.547816 0.250000
O O14 0.295269 0.492831 0.304698
O O15 0.228874 0.580509 0.250000
O O16 0.000000 0.991976 0.882777
O O17 0.000000 0.639615 0.250000
#
# Coordination Sequence:
#
# PCOD8256490 Si02
#       7
#    16  16  16  16   8  16   8
#     4  10  21  35  52  74 106 143 172 206 258 314
#     4  10  19  34  53  75 101 133 170 208 251 301
#     4   9  18  31  51  78 104 127 163 211 255 299
#     4  11  20  32  53  80 107 134 169 214 258 305
#     4  10  20  34  53  73  99 135 174 213 250 300
#     4  10  21  36  51  74 106 137 173 213 257 309
#     4  10  18  34  55  75 103 133 164 211 264 304
#
# _framework density 17.820806999999999
#
# number of rings (size 3 to 8) (size 9 to 14) (size 15 to 20)
#    0.000    2.000    3.333    1.000    0.000    2.667 
#    0.000    1.667    0.000    5.000    0.000    0.000 
#    0.000    4.000    0.000    0.000    0.000    0.000 
#
# Total GULP energy -595195.434450 kJ/mol
# GULP energy per Si atom -12399.904884 kJ/mol
# Density = 1.778025 g / cm^3
# Si number density = 17.820807 Si / 1000 Ang^3
#
#
#
# Elastic Constant Matrix: (Units=GPa)
#
#
# Indices 1 2 3 4 5 6 
#
# 1 37.1548 31.1967 32.5852 0.0000 0.0000 0.0000
# 2 31.1967 130.3727 74.1635 0.0000 0.0000 0.0000
# 3 32.5852 74.1635 153.9058 0.0000 0.0000 0.0000
# 4 0.0000 0.0000 0.0000 34.9246 0.0000 0.0000
# 5 0.0000 0.0000 0.0000 0.0000 16.6814 0.0000
# 6 0.0000 0.0000 0.0000 0.0000 0.0000 21.4052
#
#
#
# Elastic Compliance Matrix: (Units=1/GPa)
#
#
# Indices 1 2 3 4 5 6 
#
# 1 0.036077 -0.005907 -0.004792 0.000000 0.000000 0.000000
# 2 -0.005907 0.011534 -0.004307 0.000000 0.000000 0.000000
# 3 -0.004792 -0.004307 0.009588 0.000000 0.000000 0.000000
# 4 0.000000 0.000000 0.000000 0.028633 0.000000 0.000000
# 5 0.000000 0.000000 0.000000 0.000000 0.059947 0.000000
# 6 0.000000 0.000000 0.000000 0.000000 0.000000 0.046718
#
#
# Mechanical properties :
#
#
# Convention : Reuss Voigt Hill
#
# Bulk Modulus (GPa) = 36.78345 66.36934 51.57640
# Shear Modulus (GPa) = 21.59175 26.83477 24.21326
#
# Velocity S-wave (km/s) = 3.48459 3.88469 3.69006
# Velocity P-wave (km/s) = 6.07251 7.57922 6.86731
#
# Compressibility (1/GPa) = 0.02718614
#
# Stress axis : x y z
#
# Youngs Moduli (GPa) = 27.71885 86.69999 104.30110
#
# Poissons Ratio (x) = 0.51212 0.49979
# Poissons Ratio (y) = 0.16373 0.44926
# Poissons Ratio (z) = 0.13282 0.37345
#
# Static dielectric constant tensor:
#      x y z
#    x 3.139260 0.000000 0.000000 
#    y 0.000000 3.452320 0.000000 
#    z 0.000000 0.000000 3.681390 
# 
# 
# High freq. dielectric constant tensor:
#      x y z
#    x 1.671150 0.000000 0.000000 
#    y 0.000000 1.688190 0.000000 
#    z 0.000000 0.000000 1.692550 
# 
# From -- ./inp_files/59978.got.cif
#   From: 2010.03.12/outbox.cif.g09.slc.cpg/sg63_30_cif.got.tgz:59978.got - 2010.04.10 19:34:48.
