data_PCOD8256942
_publ_section_title
;
Structure prediction by ZEFSAII (Michael W. Deem and Ramdas Pophale) SiO2 
 PCOD8256942
Probable space group: C M C M
;
_chemical_formula_sum "Si O2"
_cell_formula_units_Z 88
_cell_length_a 13.716182
_cell_length_b 12.206014
_cell_length_c 30.769528
_cell_angle_alpha 90.000000
_cell_angle_beta 90.000000
_cell_angle_gamma 90.000000
_cell_volume 5151.431594
_symmetry_space_group_name_H-M "C M C M"
_symmetry_group_IT_number 63
_symmetry_cell_setting 'orthorhombic'
loop_
_space_group_symop_operation_xyz
x,y,z
-x,-y,1/2+z
x,-y,-z
-x,y,1/2-z
-x,-y,-z
x,y,1/2-z
-x,y,z
x,-y,1/2+z
1/2+x,1/2+y,z
1/2-x,1/2-y,1/2+z
1/2+x,1/2-y,-z
1/2-x,1/2+y,1/2-z
1/2-x,1/2-y,-z
1/2+x,1/2+y,1/2-z
1/2-x,1/2+y,z
1/2+x,1/2-y,1/2+z
loop_
_atom_site_type_symbol
_atom_site_label
_atom_site_fract_x
_atom_site_fract_y
_atom_site_fract_z
Si Si1 0.742752 0.140673 0.425136
Si Si2 0.609264 0.659072 0.930027
Si Si3 0.389898 0.430489 0.700088
Si Si4 0.172090 0.000000 0.000000
Si Si5 0.388525 0.761185 0.367123
Si Si6 0.753254 0.955590 0.361958
O O1 0.657711 0.223529 0.438386
O O2 0.759886 0.067764 0.467431
O O3 0.839450 0.206973 0.409850
O O4 0.708970 0.063877 0.384963
O O5 0.500000 0.679267 0.914129
O O6 0.664813 0.594444 0.892839
O O7 0.606553 0.586643 0.973840
O O8 0.365927 0.405631 0.750000
O O9 0.500000 0.477893 0.694691
O O10 0.381086 0.317547 0.674095
O O11 0.309284 0.516006 0.682702
O O12 0.500000 0.787727 0.379335
O O13 0.334436 0.872485 0.353055
#
# Coordination Sequence:
#
# PCOD8256942 Si02
#       6
#    16  16  16   8  16  16
#     4   9  19  33  47  66  94 122 154 193 232 274
#     4  10  19  31  48  69  92 120 155 193 232 274
#     4   9  17  30  49  72  95 119 150 187 225 268
#     4  10  19  32  47  66  92 124 155 192 233 276
#     4   9  18  32  49  69  93 122 155 189 227 272
#     4   9  18  32  49  69  93 123 153 187 229 273
#
# _framework density 17.082630000000002
#
# number of rings (size 3 to 8) (size 9 to 14) (size 15 to 20)
#    0.000    2.727    0.000    1.364    0.000    6.545 
#    0.000    0.455    0.000    0.000    0.000    0.000 
#    0.000    0.000    0.000    0.000    0.000    0.000 
#
# Total GULP energy -545528.961241 kJ/mol
# GULP energy per Si atom -12398.385483 kJ/mol
# Density = 1.704375 g / cm^3
# Si number density = 17.082630 Si / 1000 Ang^3
#
#
#
# Elastic Constant Matrix: (Units=GPa)
#
#
# Indices 1 2 3 4 5 6 
#
# 1 95.5725 58.7478 34.4541 0.0000 0.0000 0.0000
# 2 58.7478 100.7235 32.5912 0.0000 0.0000 0.0000
# 3 34.4541 32.5912 82.4387 0.0000 0.0000 0.0000
# 4 0.0000 0.0000 0.0000 17.0366 0.0000 0.0000
# 5 0.0000 0.0000 0.0000 0.0000 16.1150 0.0000
# 6 0.0000 0.0000 0.0000 0.0000 0.0000 23.8691
#
#
#
# Elastic Compliance Matrix: (Units=1/GPa)
#
#
# Indices 1 2 3 4 5 6 
#
# 1 0.017245 -0.008859 -0.003705 0.000000 0.000000 0.000000
# 2 -0.008859 0.015936 -0.002597 0.000000 0.000000 0.000000
# 3 -0.003705 -0.002597 0.014705 0.000000 0.000000 0.000000
# 4 0.000000 0.000000 0.000000 0.058697 0.000000 0.000000
# 5 0.000000 0.000000 0.000000 0.000000 0.062054 0.000000
# 6 0.000000 0.000000 0.000000 0.000000 0.000000 0.041895
#
#
# Mechanical properties :
#
#
# Convention : Reuss Voigt Hill
#
# Bulk Modulus (GPa) = 56.93798 58.92456 57.93127
# Shear Modulus (GPa) = 20.26677 21.60026 20.93352
#
# Velocity S-wave (km/s) = 3.44815 3.55978 3.50441
# Velocity P-wave (km/s) = 7.01828 7.17389 7.09651
#
# Compressibility (1/GPa) = 0.01756297
#
# Stress axis : x y z
#
# Youngs Moduli (GPa) = 57.98929 62.75147 68.00215
#
# Poissons Ratio (x) = 0.55593 0.25193
# Poissons Ratio (y) = 0.51374 0.17663
# Poissons Ratio (z) = 0.21483 0.16299
#
# Static dielectric constant tensor:
#      x y z
#    x 3.078630 0.000000 0.000000 
#    y 0.000000 3.346350 0.000000 
#    z 0.000000 0.000000 3.118890 
# 
# 
# High freq. dielectric constant tensor:
#      x y z
#    x 1.647010 0.000000 0.000000 
#    y 0.000000 1.663140 0.000000 
#    z 0.000000 0.000000 1.652550 
# 
# From -- ./inp_files/69246.got.cif
#   From: 2010.03.12/outbox.cif.g09.slc.cpg/sg63_35_cif.got.tgz:69246.got - 2010.04.10 19:34:48.
