data_PCOD8256203
_publ_section_title
;
Structure prediction by ZEFSAII (Michael W. Deem and Ramdas Pophale) SiO2 
 PCOD8256203
Probable space group: C M C M
;
_chemical_formula_sum "Si O2"
_cell_formula_units_Z 128
_cell_length_a 12.967554
_cell_length_b 23.677978
_cell_length_c 24.520587
_cell_angle_alpha 90.000000
_cell_angle_beta 90.000000
_cell_angle_gamma 90.000000
_cell_volume 7528.934874
_symmetry_space_group_name_H-M "C M C M"
_symmetry_group_IT_number 63
_symmetry_cell_setting 'orthorhombic'
loop_
_space_group_symop_operation_xyz
x,y,z
-x,-y,1/2+z
x,-y,-z
-x,y,1/2-z
-x,-y,-z
x,y,1/2-z
-x,y,z
x,-y,1/2+z
1/2+x,1/2+y,z
1/2-x,1/2-y,1/2+z
1/2+x,1/2-y,-z
1/2-x,1/2+y,1/2-z
1/2-x,1/2-y,-z
1/2+x,1/2+y,1/2-z
1/2-x,1/2+y,z
1/2+x,1/2-y,1/2+z
loop_
_atom_site_type_symbol
_atom_site_label
_atom_site_fract_x
_atom_site_fract_y
_atom_site_fract_z
Si Si1 0.261960 0.357834 0.813440
Si Si2 0.751874 0.816031 0.112353
Si Si3 0.617825 0.577781 0.601932
Si Si4 0.619657 0.845880 0.490176
Si Si5 0.782924 0.936521 0.508803
Si Si6 0.387722 0.246648 0.687278
Si Si7 0.121747 0.050619 0.376825
Si Si8 0.882769 0.705135 0.392460
O O1 0.226781 0.360978 0.750000
O O2 0.343759 0.308585 0.823533
O O3 0.315472 0.417305 0.829321
O O4 0.166809 0.342656 0.853096
O O5 0.806330 0.875322 0.126844
O O6 0.684684 0.815109 0.057085
O O7 0.675609 0.804434 0.161797
O O8 0.836130 0.767066 0.112776
O O9 0.500000 0.593184 0.615272
O O10 0.632714 0.579832 0.536724
O O11 0.645877 0.516349 0.626660
O O12 0.500000 0.855534 0.473098
O O13 0.674487 0.904895 0.503111
O O14 0.627485 0.808931 0.544174
O O15 0.838811 0.924316 0.565900
O O16 0.748541 0.000000 0.500000
O O17 0.392811 0.232222 0.750000
O O18 0.500000 0.246857 0.660168
O O19 0.000000 0.061760 0.370781
O O20 0.000000 0.708274 0.373392
#
# Coordination Sequence:
#
# PCOD8256203 Si02
#       8
#    16  16  16  16  16  16  16  16
#     4  10  20  34  53  76 100 127 166 212 258 305
#     4  10  19  32  51  74 104 134 171 206 248 299
#     4   9  18  31  49  74 103 134 166 202 245 300
#     4  10  19  31  48  73 105 135 169 210 255 304
#     4   9  17  30  48  71 101 135 172 204 246 301
#     4   9  18  33  52  73  97 127 164 207 251 295
#     4  10  18  31  51  73 100 131 165 206 254 302
#     4  10  20  34  52  73 102 137 170 209 255 303
#
# _framework density 17.001076999999999
#
# number of rings (size 3 to 8) (size 9 to 14) (size 15 to 20)
#    0.000    2.375    1.250    1.875    0.000    2.750 
#    0.000    0.625    0.000    2.625    0.000    0.000 
#    0.000    0.000    0.000    0.000    0.000    0.000 
#
# Total GULP energy -793350.647266 kJ/mol
# GULP energy per Si atom -12396.103864 kJ/mol
# Density = 1.696238 g / cm^3
# Si number density = 17.001077 Si / 1000 Ang^3
#
#
#
# Elastic Constant Matrix: (Units=GPa)
#
#
# Indices 1 2 3 4 5 6 
#
# 1 126.7624 49.6652 42.7371 0.0000 0.0000 0.0000
# 2 49.6652 80.9647 35.5557 0.0000 0.0000 0.0000
# 3 42.7371 35.5557 57.4461 0.0000 0.0000 0.0000
# 4 0.0000 0.0000 0.0000 24.2829 0.0000 0.0000
# 5 0.0000 0.0000 0.0000 0.0000 23.0577 0.0000
# 6 0.0000 0.0000 0.0000 0.0000 0.0000 21.6307
#
#
#
# Elastic Compliance Matrix: (Units=1/GPa)
#
#
# Indices 1 2 3 4 5 6 
#
# 1 0.011651 -0.004587 -0.005829 0.000000 0.000000 0.000000
# 2 -0.004587 0.018767 -0.008203 0.000000 0.000000 0.000000
# 3 -0.005829 -0.008203 0.026821 0.000000 0.000000 0.000000
# 4 0.000000 0.000000 0.000000 0.041181 0.000000 0.000000
# 5 0.000000 0.000000 0.000000 0.000000 0.043369 0.000000
# 6 0.000000 0.000000 0.000000 0.000000 0.000000 0.046231
#
#
# Mechanical properties :
#
#
# Convention : Reuss Voigt Hill
#
# Bulk Modulus (GPa) = 49.99635 57.89880 53.94757
# Shear Modulus (GPa) = 21.55858 22.94195 22.25027
#
# Velocity S-wave (km/s) = 3.56486 3.67746 3.62160
# Velocity P-wave (km/s) = 6.81292 7.22229 7.02059
#
# Compressibility (1/GPa) = 0.02000146
#
# Stress axis : x y z
#
# Youngs Moduli (GPa) = 85.82817 53.28366 37.28420
#
# Poissons Ratio (x) = 0.24444 0.21731
# Poissons Ratio (y) = 0.39373 0.30585
# Poissons Ratio (z) = 0.50026 0.43709
#
# Static dielectric constant tensor:
#      x y z
#    x 3.301520 0.000000 0.000000 
#    y 0.000000 3.167020 0.000000 
#    z 0.000000 0.000000 3.130800 
# 
# 
# High freq. dielectric constant tensor:
#      x y z
#    x 1.661080 0.000000 0.000000 
#    y 0.000000 1.652970 0.000000 
#    z 0.000000 0.000000 1.645690 
# 
# From -- ./inp_files/62016.got.cif
#   From: 2010.03.12/outbox.cif.g09.slc.cpg/sg63_32_cif.got.tgz:62016.got - 2010.04.10 19:34:48.
