data_PCOD8256153
_publ_section_title
;
Structure prediction by ZEFSAII (Michael W. Deem and Ramdas Pophale) SiO2 
 PCOD8256153
Probable space group: C M C M
;
_chemical_formula_sum "Si O2"
_cell_formula_units_Z 88
_cell_length_a 28.149623
_cell_length_b 24.627372
_cell_length_c 8.962682
_cell_angle_alpha 90.000000
_cell_angle_beta 90.000000
_cell_angle_gamma 90.000000
_cell_volume 6213.390386
_symmetry_space_group_name_H-M "C M C M"
_symmetry_group_IT_number 63
_symmetry_cell_setting 'orthorhombic'
loop_
_space_group_symop_operation_xyz
x,y,z
-x,-y,1/2+z
x,-y,-z
-x,y,1/2-z
-x,-y,-z
x,y,1/2-z
-x,y,z
x,-y,1/2+z
1/2+x,1/2+y,z
1/2-x,1/2-y,1/2+z
1/2+x,1/2-y,-z
1/2-x,1/2+y,1/2-z
1/2-x,1/2-y,-z
1/2+x,1/2+y,1/2-z
1/2-x,1/2+y,z
1/2+x,1/2-y,1/2+z
loop_
_atom_site_type_symbol
_atom_site_label
_atom_site_fract_x
_atom_site_fract_y
_atom_site_fract_z
Si Si1 0.948110 0.752575 0.075827
Si Si2 0.359835 0.718072 0.416244
Si Si3 0.420342 0.869585 0.573481
Si Si4 0.671786 0.842284 0.079300
Si Si5 0.759317 0.807386 0.926461
Si Si6 0.500000 0.941207 0.428723
O O1 0.948146 0.760110 0.250000
O O2 0.938692 0.690304 0.032650
O O3 0.000000 0.769048 0.010715
O O4 0.906498 0.791864 0.015725
O O5 0.376803 0.705919 0.250000
O O6 0.341797 0.779440 0.432139
O O7 0.315209 0.678666 0.457836
O O8 0.422319 0.880827 0.750000
O O9 0.366716 0.877225 0.512827
O O10 0.452971 0.911475 0.486014
O O11 0.673713 0.862406 0.250000
O O12 0.723698 0.850921 0.002543
O O13 0.749377 0.803926 0.750000
O O14 0.750000 0.750000 0.000000
O O15 0.500000 0.943917 0.250000
O O16 0.500000 0.000000 0.500000
#
# Coordination Sequence:
#
# PCOD8256153 Si02
#       6
#    16  16  16  16  16   8
#     4   9  16  25  36  50  67  88 114 143 175 210
#     4   8  15  23  31  46  66  87 112 138 166 201
#     4  10  18  31  45  57  72  88 110 139 175 216
#     4   9  16  25  37  54  70  86 109 134 166 207
#     4   9  15  23  33  47  67  89 111 136 167 204
#     4  12  24  36  48  60  74  92 114 144 182 224
#
# _framework density 14.162960999999999
#
# number of rings (size 3 to 8) (size 9 to 14) (size 15 to 20)
#    0.000    2.727    0.909    3.545    0.000    6.182 
#    0.000    0.000    0.000    0.000    0.000    0.000 
#    0.000    0.000    0.000    0.000    0.000    0.000 
#
# Total GULP energy -545157.390245 kJ/mol
# GULP energy per Si atom -12389.940687 kJ/mol
# Density = 1.413073 g / cm^3
# Si number density = 14.162961 Si / 1000 Ang^3
#
#
#
# Elastic Constant Matrix: (Units=GPa)
#
#
# Indices 1 2 3 4 5 6 
#
# 1 151.5379 29.4017 61.3045 0.0000 0.0000 0.0000
# 2 29.4017 17.0140 18.6242 0.0000 0.0000 0.0000
# 3 61.3045 18.6242 80.5973 0.0000 0.0000 0.0000
# 4 0.0000 0.0000 0.0000 10.9272 0.0000 0.0000
# 5 0.0000 0.0000 0.0000 0.0000 31.2289 0.0000
# 6 0.0000 0.0000 0.0000 0.0000 0.0000 2.0800
#
#
#
# Elastic Compliance Matrix: (Units=1/GPa)
#
#
# Indices 1 2 3 4 5 6 
#
# 1 0.011541 -0.013834 -0.005582 0.000000 0.000000 0.000000
# 2 -0.013834 0.095259 -0.011489 0.000000 0.000000 0.000000
# 3 -0.005582 -0.011489 0.019308 0.000000 0.000000 0.000000
# 4 0.000000 0.000000 0.000000 0.091514 0.000000 0.000000
# 5 0.000000 0.000000 0.000000 0.000000 0.032022 0.000000
# 6 0.000000 0.000000 0.000000 0.000000 0.000000 0.480774
#
#
# Mechanical properties :
#
#
# Convention : Reuss Voigt Hill
#
# Bulk Modulus (GPa) = 15.55286 51.97888 33.76587
# Shear Modulus (GPa) = 6.14506 18.16847 12.15677
#
# Velocity S-wave (km/s) = 2.08524 3.58553 2.93294
# Velocity P-wave (km/s) = 4.09913 7.34313 5.94661
#
# Compressibility (1/GPa) = 0.06429685
#
# Stress axis : x y z
#
# Youngs Moduli (GPa) = 86.64565 10.49775 51.79197
#
# Poissons Ratio (x) = 0.14523 0.28909
# Poissons Ratio (y) = 1.19867 0.59506
# Poissons Ratio (z) = 0.48364 0.12061
#
# Static dielectric constant tensor:
#      x y z
#    x 3.203090 0.000000 0.000000 
#    y 0.000000 2.146930 0.000000 
#    z 0.000000 0.000000 2.907180 
# 
# 
# High freq. dielectric constant tensor:
#      x y z
#    x 1.562910 0.000000 0.000000 
#    y 0.000000 1.441580 0.000000 
#    z 0.000000 0.000000 1.555950 
# 
# From -- ./inp_files/14354.got.cif
#   From: 2010.03.12/outbox.cif.g09.slc.cpg/sg63_8_cif.got.tgz:14354.got - 2010.04.10 19:34:48.
