data_PCOD8256619
_publ_section_title
;
Structure prediction by ZEFSAII (Michael W. Deem and Ramdas Pophale) SiO2 
 PCOD8256619
Probable space group: C M C M
;
_chemical_formula_sum "Si O2"
_cell_formula_units_Z 80
_cell_length_a 28.133748
_cell_length_b 23.075582
_cell_length_c 8.866688
_cell_angle_alpha 90.000000
_cell_angle_beta 90.000000
_cell_angle_gamma 90.000000
_cell_volume 5756.276982
_symmetry_space_group_name_H-M "C M C M"
_symmetry_group_IT_number 63
_symmetry_cell_setting 'orthorhombic'
loop_
_space_group_symop_operation_xyz
x,y,z
-x,-y,1/2+z
x,-y,-z
-x,y,1/2-z
-x,-y,-z
x,y,1/2-z
-x,y,z
x,-y,1/2+z
1/2+x,1/2+y,z
1/2-x,1/2-y,1/2+z
1/2+x,1/2-y,-z
1/2-x,1/2+y,1/2-z
1/2-x,1/2-y,-z
1/2+x,1/2+y,1/2-z
1/2-x,1/2+y,z
1/2+x,1/2-y,1/2+z
loop_
_atom_site_type_symbol
_atom_site_label
_atom_site_fract_x
_atom_site_fract_y
_atom_site_fract_z
Si Si1 0.821304 0.232420 0.416819
Si Si2 0.778900 0.330747 0.916390
Si Si3 0.777348 0.061213 0.070235
Si Si4 0.944868 0.939150 0.574563
Si Si5 0.364113 0.627325 0.571481
O O1 0.844055 0.234281 0.250000
O O2 0.817114 0.298431 0.477697
O O3 0.769379 0.205402 0.409332
O O4 0.854168 0.193791 0.525376
O O5 0.801470 0.334497 0.750000
O O6 0.765453 0.394969 0.975673
O O7 0.783048 0.057748 0.250000
O O8 0.826863 0.083044 0.002294
O O9 0.763384 0.000000 0.000000
O O10 0.931148 0.941587 0.750000
O O11 0.916028 0.888808 0.490199
O O12 0.000000 0.924734 0.550568
O O13 0.931064 0.000000 0.500000
O O14 0.361649 0.621368 0.750000
#
# Coordination Sequence:
#
# PCOD8256619 Si02
#       5
#    16  16  16  16  16
#     4   9  16  26  40  56  73  93 120 153 187 223
#     4   8  15  26  38  53  73  96 121 151 186 222
#     4  10  19  29  40  55  76 100 128 159 190 225
#     4  10  20  33  46  58  74  96 123 156 194 234
#     4  11  20  29  42  57  75  97 124 158 193 229
#
# _framework density 13.897872
#
# number of rings (size 3 to 8) (size 9 to 14) (size 15 to 20)
#    0.000    2.400    0.000    5.400    0.000    6.800 
#    0.000    0.000    0.000    0.000    0.000    0.000 
#    0.000    0.000    0.000    0.000    0.000    1.000 
#
# Total GULP energy -495896.695030 kJ/mol
# GULP energy per Si atom -12397.417376 kJ/mol
# Density = 1.386624 g / cm^3
# Si number density = 13.897872 Si / 1000 Ang^3
#
#
#
# Elastic Constant Matrix: (Units=GPa)
#
#
# Indices 1 2 3 4 5 6 
#
# 1 39.9288 39.2263 32.9307 0.0000 0.0000 0.0000
# 2 39.2263 99.6294 51.6702 0.0000 0.0000 0.0000
# 3 32.9307 51.6702 107.9237 0.0000 0.0000 0.0000
# 4 0.0000 0.0000 0.0000 24.8735 0.0000 0.0000
# 5 0.0000 0.0000 0.0000 0.0000 18.1209 0.0000
# 6 0.0000 0.0000 0.0000 0.0000 0.0000 16.1110
#
#
#
# Elastic Compliance Matrix: (Units=1/GPa)
#
#
# Indices 1 2 3 4 5 6 
#
# 1 0.044382 -0.013903 -0.006886 0.000000 0.000000 0.000000
# 2 -0.013903 0.017708 -0.004236 0.000000 0.000000 0.000000
# 3 -0.006886 -0.004236 0.013395 0.000000 0.000000 0.000000
# 4 0.000000 0.000000 0.000000 0.040203 0.000000 0.000000
# 5 0.000000 0.000000 0.000000 0.000000 0.055185 0.000000
# 6 0.000000 0.000000 0.000000 0.000000 0.000000 0.062069
#
#
# Mechanical properties :
#
#
# Convention : Reuss Voigt Hill
#
# Bulk Modulus (GPa) = 39.31533 55.01515 47.16524
# Shear Modulus (GPa) = 17.15443 20.06474 18.60959
#
# Velocity S-wave (km/s) = 3.51710 3.80376 3.66324
# Velocity P-wave (km/s) = 6.69653 7.67872 7.20438
#
# Compressibility (1/GPa) = 0.02543537
#
# Stress axis : x y z
#
# Youngs Moduli (GPa) = 22.53169 56.47223 74.65551
#
# Poissons Ratio (x) = 0.78513 0.51408
# Poissons Ratio (y) = 0.31326 0.31622
# Poissons Ratio (z) = 0.15515 0.23920
#
# Static dielectric constant tensor:
#      x y z
#    x 2.416370 0.000000 0.000000 
#    y 0.000000 2.867900 0.000000 
#    z 0.000000 0.000000 2.968370 
# 
# 
# High freq. dielectric constant tensor:
#      x y z
#    x 1.475850 0.000000 0.000000 
#    y 0.000000 1.520390 0.000000 
#    z 0.000000 0.000000 1.550660 
# 
# From -- ./inp_files/14554.got.cif
#   From: 2010.03.12/outbox.cif.g09.slc.cpg/sg63_8_cif.got.tgz:14554.got - 2010.04.10 19:34:48.
