data_PCOD8256664
_publ_section_title
;
Structure prediction by ZEFSAII (Michael W. Deem and Ramdas Pophale) SiO2 
 PCOD8256664
Probable space group: C M C M
;
_chemical_formula_sum "Si O2"
_cell_formula_units_Z 96
_cell_length_a 9.478989
_cell_length_b 23.175000
_cell_length_c 24.556353
_cell_angle_alpha 90.000000
_cell_angle_beta 90.000000
_cell_angle_gamma 90.000000
_cell_volume 5394.430844
_symmetry_space_group_name_H-M "C M C M"
_symmetry_group_IT_number 63
_symmetry_cell_setting 'orthorhombic'
loop_
_space_group_symop_operation_xyz
x,y,z
-x,-y,1/2+z
x,-y,-z
-x,y,1/2-z
-x,-y,-z
x,y,1/2-z
-x,y,z
x,-y,1/2+z
1/2+x,1/2+y,z
1/2-x,1/2-y,1/2+z
1/2+x,1/2-y,-z
1/2-x,1/2+y,1/2-z
1/2-x,1/2-y,-z
1/2+x,1/2+y,1/2-z
1/2-x,1/2+y,z
1/2+x,1/2-y,1/2+z
loop_
_atom_site_type_symbol
_atom_site_label
_atom_site_fract_x
_atom_site_fract_y
_atom_site_fract_z
Si Si1 0.156251 0.635345 0.901204
Si Si2 0.339677 0.818628 0.813911
Si Si3 0.834359 0.186642 0.812323
Si Si4 0.652049 0.258163 0.950461
Si Si5 0.661931 0.067635 0.491975
Si Si6 0.833131 0.875210 0.602229
O O1 0.258996 0.636620 0.848890
O O2 0.143128 0.701979 0.914653
O O3 0.000000 0.610833 0.886146
O O4 0.217412 0.599464 0.952939
O O5 0.330680 0.828191 0.750000
O O6 0.500000 0.826848 0.834605
O O7 0.289899 0.752586 0.827326
O O8 0.243098 0.870801 0.839044
O O9 0.792970 0.173540 0.750000
O O10 0.000000 0.179437 0.821595
O O11 0.500000 0.274731 0.974537
O O12 0.707392 0.311138 0.916016
O O13 0.750000 0.250000 0.000000
O O14 0.500000 0.087189 0.480674
O O15 0.760947 0.081172 0.440285
O O16 0.671807 0.000000 0.500000
O O17 0.000000 0.888899 0.607342
#
# Coordination Sequence:
#
# PCOD8256664 Si02
#       6
#    16  16  16  16  16  16
#     4  10  19  32  50  74 103 133 167 208 253 301
#     4   9  18  32  50  74 106 142 174 202 240 298
#     4   9  18  31  48  74 107 140 170 200 243 302
#     4  10  19  29  44  72 104 133 164 199 249 308
#     4  10  22  39  56  73  97 134 178 219 257 301
#     4  11  21  32  50  77 107 135 165 207 259 309
#
# _framework density 17.796132
#
# number of rings (size 3 to 8) (size 9 to 14) (size 15 to 20)
#    0.000    2.167    3.333    1.500    0.000    3.000 
#    0.000    1.667    0.000    1.000    0.000    2.333 
#    0.000    0.000    0.000    0.000    0.000    0.000 
#
# Total GULP energy -594667.438063 kJ/mol
# GULP energy per Si atom -12388.904960 kJ/mol
# Density = 1.775563 g / cm^3
# Si number density = 17.796132 Si / 1000 Ang^3
#
#
#
# Elastic Constant Matrix: (Units=GPa)
#
#
# Indices 1 2 3 4 5 6 
#
# 1 72.4844 18.5522 45.6407 0.0000 0.0000 0.0000
# 2 18.5522 51.9605 20.9644 0.0000 0.0000 0.0000
# 3 45.6407 20.9644 82.7022 0.0000 0.0000 0.0000
# 4 0.0000 0.0000 0.0000 12.7365 0.0000 0.0000
# 5 0.0000 0.0000 0.0000 0.0000 31.1446 0.0000
# 6 0.0000 0.0000 0.0000 0.0000 0.0000 20.6234
#
#
#
# Elastic Compliance Matrix: (Units=1/GPa)
#
#
# Indices 1 2 3 4 5 6 
#
# 1 0.021621 -0.003237 -0.011111 0.000000 0.000000 0.000000
# 2 -0.003237 0.021922 -0.003771 0.000000 0.000000 0.000000
# 3 -0.011111 -0.003771 0.019180 0.000000 0.000000 0.000000
# 4 0.000000 0.000000 0.000000 0.078514 0.000000 0.000000
# 5 0.000000 0.000000 0.000000 0.000000 0.032108 0.000000
# 6 0.000000 0.000000 0.000000 0.000000 0.000000 0.048489
#
#
# Mechanical properties :
#
#
# Convention : Reuss Voigt Hill
#
# Bulk Modulus (GPa) = 37.75736 41.94019 39.84877
# Shear Modulus (GPa) = 18.73358 21.03356 19.88357
#
# Velocity S-wave (km/s) = 3.24802 3.44163 3.34623
# Velocity P-wave (km/s) = 5.94381 6.27784 6.11311
#
# Compressibility (1/GPa) = 0.02648490
#
# Stress axis : x y z
#
# Youngs Moduli (GPa) = 46.25150 45.61525 52.13882
#
# Poissons Ratio (x) = 0.14763 0.57934
# Poissons Ratio (y) = 0.14969 0.19662
# Poissons Ratio (z) = 0.51392 0.17202
#
# Static dielectric constant tensor:
#      x y z
#    x 3.504570 0.000000 0.000000 
#    y 0.000000 3.002920 0.000000 
#    z 0.000000 0.000000 3.282630 
# 
# 
# High freq. dielectric constant tensor:
#      x y z
#    x 1.691620 0.000000 0.000000 
#    y 0.000000 1.649020 0.000000 
#    z 0.000000 0.000000 1.689180 
# 
# From -- ./inp_files/59870.got.cif
#   From: 2010.03.12/outbox.cif.g09.slc.cpg/sg63_30_cif.got.tgz:59870.got - 2010.04.10 19:34:48.
