data_PCOD8256700
_publ_section_title
;
Structure prediction by ZEFSAII (Michael W. Deem and Ramdas Pophale) SiO2 
 PCOD8256700
Probable space group: C M C M
;
_chemical_formula_sum "Si O2"
_cell_formula_units_Z 96
_cell_length_a 14.230166
_cell_length_b 14.909428
_cell_length_c 23.947279
_cell_angle_alpha 90.000000
_cell_angle_beta 90.000000
_cell_angle_gamma 90.000000
_cell_volume 5080.741771
_symmetry_space_group_name_H-M "C M C M"
_symmetry_group_IT_number 63
_symmetry_cell_setting 'orthorhombic'
loop_
_space_group_symop_operation_xyz
x,y,z
-x,-y,1/2+z
x,-y,-z
-x,y,1/2-z
-x,-y,-z
x,y,1/2-z
-x,y,z
x,-y,1/2+z
1/2+x,1/2+y,z
1/2-x,1/2-y,1/2+z
1/2+x,1/2-y,-z
1/2-x,1/2+y,1/2-z
1/2-x,1/2-y,-z
1/2+x,1/2+y,1/2-z
1/2-x,1/2+y,z
1/2+x,1/2-y,1/2+z
loop_
_atom_site_type_symbol
_atom_site_label
_atom_site_fract_x
_atom_site_fract_y
_atom_site_fract_z
Si Si1 0.686483 0.439104 0.128883
Si Si2 0.500000 0.505728 0.315902
Si Si3 0.105121 0.868484 0.483445
Si Si4 0.605059 0.161983 0.504344
Si Si5 0.243106 0.110605 0.421937
Si Si6 0.000000 0.211898 0.316212
Si Si7 0.678814 0.791160 0.123525
O O1 0.592004 0.451973 0.164306
O O2 0.665228 0.406304 0.066738
O O3 0.744112 0.532374 0.124359
O O4 0.755114 0.363580 0.156041
O O5 0.500000 0.506291 0.250000
O O6 0.500000 0.608664 0.338107
O O7 0.108370 0.761749 0.480069
O O8 0.147600 0.900759 0.542223
O O9 0.000000 0.906189 0.480581
O O10 0.500000 0.122783 0.502902
O O11 0.668499 0.101386 0.463641
O O12 0.642459 0.160966 0.567320
O O13 0.243063 0.205156 0.389998
O O14 0.908311 0.262708 0.338297
O O15 0.000000 0.215588 0.250000
#
# Coordination Sequence:
#
# PCOD8256700 Si02
#       7
#    16   8  16  16  16   8  16
#     4  12  22  35  62  88 121 155 197 248 300 362
#     4  11  26  44  64  91 114 148 207 274 315 347
#     4  10  19  29  52  84 117 155 191 229 290 354
#     4  10  19  34  54  80 128 164 195 235 280 366
#     4  11  21  34  52  90 126 161 189 239 290 367
#     4  11  24  46  69  83 111 159 210 259 311 352
#     4  11  21  39  59  90 120 158 201 245 302 350
#
# _framework density 18.894879
#
# number of rings (size 3 to 8) (size 9 to 14) (size 15 to 20)
#    0.000    1.167    6.667    1.500    2.333    1.333 
#    1.500    0.833    0.000    0.000    0.000    1.167 
#    0.000    0.000    0.000    0.000    0.000    0.000 
#
# Total GULP energy -595220.044087 kJ/mol
# GULP energy per Si atom -12400.417585 kJ/mol
# Density = 1.885187 g / cm^3
# Si number density = 18.894879 Si / 1000 Ang^3
#
#
#
# Elastic Constant Matrix: (Units=GPa)
#
#
# Indices 1 2 3 4 5 6 
#
# 1 135.0754 59.8270 29.9365 0.0000 0.0000 0.0000
# 2 59.8270 63.1773 31.1864 0.0000 0.0000 0.0000
# 3 29.9365 31.1864 52.4235 0.0000 0.0000 0.0000
# 4 0.0000 0.0000 0.0000 15.2827 0.0000 0.0000
# 5 0.0000 0.0000 0.0000 0.0000 14.0184 0.0000
# 6 0.0000 0.0000 0.0000 0.0000 0.0000 29.9504
#
#
#
# Elastic Compliance Matrix: (Units=1/GPa)
#
#
# Indices 1 2 3 4 5 6 
#
# 1 0.012752 -0.012007 -0.000139 0.000000 0.000000 0.000000
# 2 -0.012007 0.033715 -0.013200 0.000000 0.000000 0.000000
# 3 -0.000139 -0.013200 0.027007 0.000000 0.000000 0.000000
# 4 0.000000 0.000000 0.000000 0.065433 0.000000 0.000000
# 5 0.000000 0.000000 0.000000 0.000000 0.071335 0.000000
# 6 0.000000 0.000000 0.000000 0.000000 0.000000 0.033389
#
#
# Mechanical properties :
#
#
# Convention : Reuss Voigt Hill
#
# Bulk Modulus (GPa) = 43.89471 54.73066 49.31268
# Shear Modulus (GPa) = 16.56072 20.49872 18.52972
#
# Velocity S-wave (km/s) = 2.96373 3.29733 3.13497
# Velocity P-wave (km/s) = 5.91549 6.59737 6.26571
#
# Compressibility (1/GPa) = 0.02278179
#
# Stress axis : x y z
#
# Youngs Moduli (GPa) = 78.41656 29.66023 37.02678
#
# Poissons Ratio (x) = 0.35614 0.00515
# Poissons Ratio (y) = 0.94159 0.48876
# Poissons Ratio (z) = 0.01091 0.39152
#
# Static dielectric constant tensor:
#      x y z
#    x 3.721100 0.000000 0.000000 
#    y 0.000000 3.735000 0.000000 
#    z 0.000000 0.000000 3.084970 
# 
# 
# High freq. dielectric constant tensor:
#      x y z
#    x 1.742210 0.000000 0.000000 
#    y 0.000000 1.738570 0.000000 
#    z 0.000000 0.000000 1.691810 
# 
# From -- ./inp_files/54267.got.cif
#   From: 2010.03.12/outbox.cif.g09.slc.cpg/sg63_28_cif.got.tgz:54267.got - 2010.04.10 19:34:48.
