data_PCOD8256415
_publ_section_title
;
Structure prediction by ZEFSAII (Michael W. Deem and Ramdas Pophale) SiO2 
 PCOD8256415
Probable space group: C M C M
;
_chemical_formula_sum "Si O2"
_cell_formula_units_Z 112
_cell_length_a 13.567510
_cell_length_b 28.185300
_cell_length_c 14.546995
_cell_angle_alpha 90.000000
_cell_angle_beta 90.000000
_cell_angle_gamma 90.000000
_cell_volume 5562.834016
_symmetry_space_group_name_H-M "C M C M"
_symmetry_group_IT_number 63
_symmetry_cell_setting 'orthorhombic'
loop_
_space_group_symop_operation_xyz
x,y,z
-x,-y,1/2+z
x,-y,-z
-x,y,1/2-z
-x,-y,-z
x,y,1/2-z
-x,y,z
x,-y,1/2+z
1/2+x,1/2+y,z
1/2-x,1/2-y,1/2+z
1/2+x,1/2-y,-z
1/2-x,1/2+y,1/2-z
1/2-x,1/2-y,-z
1/2+x,1/2+y,1/2-z
1/2-x,1/2+y,z
1/2+x,1/2-y,1/2+z
loop_
_atom_site_type_symbol
_atom_site_label
_atom_site_fract_x
_atom_site_fract_y
_atom_site_fract_z
Si Si1 0.889343 0.648213 0.594822
Si Si2 0.609870 0.111195 0.390099
Si Si3 0.615912 0.355082 0.466841
Si Si4 0.780540 0.824373 0.851238
Si Si5 0.108260 0.497161 0.606758
Si Si6 0.736178 0.281254 0.358891
Si Si7 0.743193 0.422256 0.348606
O O1 0.878840 0.621602 0.498036
O O2 0.837662 0.699478 0.596144
O O3 0.831047 0.615406 0.665808
O O4 0.000000 0.655224 0.627694
O O5 0.500000 0.125139 0.358040
O O6 0.687240 0.142083 0.334695
O O7 0.631614 0.056719 0.365567
O O8 0.500000 0.363233 0.461543
O O9 0.645843 0.346244 0.573091
O O10 0.645098 0.309386 0.405452
O O11 0.668891 0.403202 0.428079
O O12 0.832560 0.819518 0.750000
O O13 0.736333 0.774049 0.884673
O O14 0.094308 0.500000 0.500000
O O15 0.203771 0.527472 0.634487
O O16 0.000000 0.512800 0.648952
O O17 0.730377 0.289483 0.250000
O O18 0.687022 0.425379 0.250000
#
# Coordination Sequence:
#
# PCOD8256415 Si02
#       7
#    16  16  16  16  16  16  16
#     4  10  18  32  56  86 121 155 189 235 292 354
#     4  10  20  35  60  90 120 156 194 232 290 368
#     4  11  23  41  63  86 117 158 207 259 307 352
#     4  11  23  41  61  86 123 160 203 253 301 359
#     4  10  18  33  57  88 124 157 190 231 289 367
#     4  10  22  38  59  90 122 157 203 248 298 358
#     4  11  22  36  58  89 121 156 200 247 301 356
#
# _framework density 20.133623
#
# number of rings (size 3 to 8) (size 9 to 14) (size 15 to 20)
#    0.000    1.571    4.286    2.571    0.000    5.429 
#    0.000    4.286    0.000    3.857    0.000    4.000 
#    0.000    0.000    0.000    0.000    0.000    0.000 
#
# Total GULP energy -693848.119651 kJ/mol
# GULP energy per Si atom -12390.144994 kJ/mol
# Density = 2.008780 g / cm^3
# Si number density = 20.133623 Si / 1000 Ang^3
#
#
#
# Elastic Constant Matrix: (Units=GPa)
#
#
# Indices 1 2 3 4 5 6 
#
# 1 141.8123 60.2770 37.5830 0.0000 0.0000 0.0000
# 2 60.2770 116.7051 28.7198 0.0000 0.0000 0.0000
# 3 37.5830 28.7198 105.7529 0.0000 0.0000 0.0000
# 4 0.0000 0.0000 0.0000 14.4118 0.0000 0.0000
# 5 0.0000 0.0000 0.0000 0.0000 10.5658 0.0000
# 6 0.0000 0.0000 0.0000 0.0000 0.0000 21.6969
#
#
#
# Elastic Compliance Matrix: (Units=1/GPa)
#
#
# Indices 1 2 3 4 5 6 
#
# 1 0.009484 -0.004361 -0.002186 0.000000 0.000000 0.000000
# 2 -0.004361 0.011187 -0.001488 0.000000 0.000000 0.000000
# 3 -0.002186 -0.001488 0.010637 0.000000 0.000000 0.000000
# 4 0.000000 0.000000 0.000000 0.069388 0.000000 0.000000
# 5 0.000000 0.000000 0.000000 0.000000 0.094645 0.000000
# 6 0.000000 0.000000 0.000000 0.000000 0.000000 0.046090
#
#
# Mechanical properties :
#
#
# Convention : Reuss Voigt Hill
#
# Bulk Modulus (GPa) = 65.62574 68.60333 67.11453
# Shear Modulus (GPa) = 19.04174 25.18094 22.11134
#
# Velocity S-wave (km/s) = 3.07867 3.54035 3.31755
# Velocity P-wave (km/s) = 6.73079 7.13162 6.93410
#
# Compressibility (1/GPa) = 0.01523792
#
# Stress axis : x y z
#
# Youngs Moduli (GPa) = 105.43556 89.38878 94.00932
#
# Poissons Ratio (x) = 0.38979 0.20554
# Poissons Ratio (y) = 0.45976 0.13993
# Poissons Ratio (z) = 0.23053 0.13305
#
# Static dielectric constant tensor:
#      x y z
#    x 3.516910 0.000000 0.000000 
#    y 0.000000 4.639220 0.000000 
#    z 0.000000 0.000000 3.783170 
# 
# 
# High freq. dielectric constant tensor:
#      x y z
#    x 1.754840 0.000000 0.000000 
#    y 0.000000 1.784100 0.000000 
#    z 0.000000 0.000000 1.799720 
# 
# From -- ./inp_files/32305.got.cif
#   From: 2010.03.12/outbox.cif.g09.slc.cpg/sg63_17_cif.got.tgz:32305.got - 2010.04.10 19:34:48.
