data_PCOD8256666
_publ_section_title
;
Structure prediction by ZEFSAII (Michael W. Deem and Ramdas Pophale) SiO2 
 PCOD8256666
Probable space group: C M C M
;
_chemical_formula_sum "Si O2"
_cell_formula_units_Z 112
_cell_length_a 14.288659
_cell_length_b 32.562855
_cell_length_c 14.798613
_cell_angle_alpha 90.000000
_cell_angle_beta 90.000000
_cell_angle_gamma 90.000000
_cell_volume 6885.491718
_symmetry_space_group_name_H-M "C M C M"
_symmetry_group_IT_number 63
_symmetry_cell_setting 'orthorhombic'
loop_
_space_group_symop_operation_xyz
x,y,z
-x,-y,1/2+z
x,-y,-z
-x,y,1/2-z
-x,-y,-z
x,y,1/2-z
-x,y,z
x,-y,1/2+z
1/2+x,1/2+y,z
1/2-x,1/2-y,1/2+z
1/2+x,1/2-y,-z
1/2-x,1/2+y,1/2-z
1/2-x,1/2-y,-z
1/2+x,1/2+y,1/2-z
1/2-x,1/2+y,z
1/2+x,1/2-y,1/2+z
loop_
_atom_site_type_symbol
_atom_site_label
_atom_site_fract_x
_atom_site_fract_y
_atom_site_fract_z
Si Si1 0.389246 0.298099 0.351120
Si Si2 0.392036 0.455048 0.006662
Si Si3 0.105976 0.746714 0.651229
Si Si4 0.111153 0.110479 0.852435
Si Si5 0.608625 0.781259 0.959868
Si Si6 0.105124 0.105924 0.145943
Si Si7 0.740599 0.676740 0.147765
O O1 0.352408 0.286692 0.250000
O O2 0.500000 0.299555 0.349200
O O3 0.351873 0.343571 0.379020
O O4 0.355385 0.263099 0.421306
O O5 0.500000 0.461028 0.033818
O O6 0.345714 0.424434 0.081388
O O7 0.343323 0.500000 0.000000
O O8 0.379591 0.435891 0.907940
O O9 0.119392 0.724976 0.750000
O O10 0.126161 0.715990 0.567914
O O11 0.173855 0.784557 0.642824
O O12 0.000000 0.763449 0.642024
O O13 0.141144 0.100031 0.750000
O O14 0.000000 0.110741 0.862445
O O15 0.500000 0.788110 0.935379
O O16 0.667913 0.817456 0.914037
O O17 0.120512 0.095208 0.250000
O O18 0.180363 0.138737 0.110878
O O19 0.000000 0.123235 0.128684
O O20 0.774529 0.668891 0.250000
#
# Coordination Sequence:
#
# PCOD8256666 Si02
#       7
#    16  16  16  16  16  16  16
#     4   8  14  24  37  55  78 104 135 168 206 254
#     4   9  17  27  41  61  81 104 138 178 217 257
#     4   9  18  31  44  59  81 112 151 189 220 254
#     4   8  14  24  37  53  75 103 132 164 206 253
#     4  10  19  29  45  65  86 115 148 187 231 264
#     4   9  18  31  46  64  88 120 154 184 215 257
#     4  10  19  30  44  63  87 115 150 187 224 264
#
# _framework density 16.266086000000001
#
# number of rings (size 3 to 8) (size 9 to 14) (size 15 to 20)
#    0.000    3.000    0.000    2.143    2.000    3.143 
#    0.000    2.857    0.000    0.000    0.000    0.000 
#    0.000    0.571    0.000    0.000    0.000    0.000 
#
# Total GULP energy -693915.018233 kJ/mol
# GULP energy per Si atom -12391.339611 kJ/mol
# Density = 1.622906 g / cm^3
# Si number density = 16.266086 Si / 1000 Ang^3
#
#
#
# Elastic Constant Matrix: (Units=GPa)
#
#
# Indices 1 2 3 4 5 6 
#
# 1 43.3682 34.9266 32.4802 0.0000 0.0000 0.0000
# 2 34.9266 84.9282 47.6477 0.0000 0.0000 0.0000
# 3 32.4802 47.6477 103.0016 0.0000 0.0000 0.0000
# 4 0.0000 0.0000 0.0000 19.1330 0.0000 0.0000
# 5 0.0000 0.0000 0.0000 0.0000 12.7486 0.0000
# 6 0.0000 0.0000 0.0000 0.0000 0.0000 -19.1227
#
#
#
# Elastic Compliance Matrix: (Units=1/GPa)
#
#
# Indices 1 2 3 4 5 6 
#
# 1 0.037275 -0.011796 -0.006297 0.000000 0.000000 0.000000
# 2 -0.011796 0.019635 -0.005363 0.000000 0.000000 0.000000
# 3 -0.006297 -0.005363 0.014175 0.000000 0.000000 0.000000
# 4 0.000000 0.000000 0.000000 0.052266 0.000000 0.000000
# 5 0.000000 0.000000 0.000000 0.000000 0.078440 0.000000
# 6 0.000000 0.000000 0.000000 0.000000 0.000000 -0.052294
#
#
# Mechanical properties :
#
#
# Convention : Reuss Voigt Hill
#
# Bulk Modulus (GPa) = 41.37087 51.26743 46.31915
# Shear Modulus (GPa) = 24.45384 10.30134 17.37759
#
# Velocity S-wave (km/s) = 3.88153 2.51928 3.27208
# Velocity P-wave (km/s) = 6.75110 6.32841 6.54317
#
# Compressibility (1/GPa) = 0.02417160
#
# Stress axis : x y z
#
# Youngs Moduli (GPa) = 26.82785 50.93030 70.54537
#
# Poissons Ratio (x) = 0.60078 0.44425
# Poissons Ratio (y) = 0.31647 0.37834
# Poissons Ratio (z) = 0.16894 0.27314
#
# Static dielectric constant tensor:
#      x y z
#    x 2.758370 0.000000 0.000000 
#    y 0.000000 3.060970 0.000000 
#    z 0.000000 0.000000 3.422470 
# 
# 
# High freq. dielectric constant tensor:
#      x y z
#    x 1.575320 0.000000 0.000000 
#    y 0.000000 1.589170 0.000000 
#    z 0.000000 0.000000 1.645900 
# 
# From -- ./inp_files/32748.got.cif
#   From: 2010.03.12/outbox.cif.g09.slc.cpg/sg63_17_cif.got.tgz:32748.got - 2010.04.10 19:34:48.
