data_PCOD8256328
_publ_section_title
;
Structure prediction by ZEFSAII (Michael W. Deem and Ramdas Pophale) SiO2 
 PCOD8256328
Probable space group: C M C M
;
_chemical_formula_sum "Si O2"
_cell_formula_units_Z 72
_cell_length_a 22.272594
_cell_length_b 19.154759
_cell_length_c 8.851412
_cell_angle_alpha 90.000000
_cell_angle_beta 90.000000
_cell_angle_gamma 90.000000
_cell_volume 3776.244004
_symmetry_space_group_name_H-M "C M C M"
_symmetry_group_IT_number 63
_symmetry_cell_setting 'orthorhombic'
loop_
_space_group_symop_operation_xyz
x,y,z
-x,-y,1/2+z
x,-y,-z
-x,y,1/2-z
-x,-y,-z
x,y,1/2-z
-x,y,z
x,-y,1/2+z
1/2+x,1/2+y,z
1/2-x,1/2-y,1/2+z
1/2+x,1/2-y,-z
1/2-x,1/2+y,1/2-z
1/2-x,1/2-y,-z
1/2+x,1/2+y,1/2-z
1/2-x,1/2+y,z
1/2+x,1/2-y,1/2+z
loop_
_atom_site_type_symbol
_atom_site_label
_atom_site_fract_x
_atom_site_fract_y
_atom_site_fract_z
Si Si1 0.114981 0.426292 0.575301
Si Si2 0.500000 0.077167 0.571241
Si Si3 0.297817 0.834052 0.419010
Si Si4 0.431744 0.573721 0.427776
Si Si5 0.175074 0.823222 0.921532
O O1 0.126873 0.500000 0.500000
O O2 0.100641 0.436174 0.750000
O O3 0.173577 0.381103 0.548641
O O4 0.059721 0.385970 0.492392
O O5 0.500000 0.075925 0.750000
O O6 0.500000 0.000000 0.500000
O O7 0.304724 0.865187 0.250000
O O8 0.227694 0.836443 0.458740
O O9 0.332272 0.760176 0.424756
O O10 0.411529 0.500000 0.500000
O O11 0.430233 0.563175 0.250000
O O12 0.500000 0.593533 0.480156
O O13 0.385317 0.635716 0.475049
O O14 0.191922 0.846513 0.750000
#
# Coordination Sequence:
#
# PCOD8256328 Si02
#       5
#    16   8  16  16  16
#     4  11  21  35  54  77 107 140 179 224 269 318
#     4  10  18  32  52  74 102 136 171 210 259 310
#     4  10  20  35  54  78 106 142 184 226 274 324
#     4   9  18  34  56  81 109 139 176 220 270 327
#     4   9  19  36  55  76 106 144 182 221 271 328
#
# _framework density 19.066565000000001
#
# number of rings (size 3 to 8) (size 9 to 14) (size 15 to 20)
#    0.000    2.222    0.000    5.000    0.000    2.667 
#    2.000    2.222    0.000    0.000    0.000    0.000 
#    0.000    0.000    0.000    0.000    0.000    0.000 
#
# Total GULP energy -446084.624593 kJ/mol
# GULP energy per Si atom -12391.239572 kJ/mol
# Density = 1.902317 g / cm^3
# Si number density = 19.066565 Si / 1000 Ang^3
#
#
#
# Elastic Constant Matrix: (Units=GPa)
#
#
# Indices 1 2 3 4 5 6 
#
# 1 109.3944 63.9812 38.8694 0.0000 0.0000 0.0000
# 2 63.9812 72.2735 35.7892 0.0000 0.0000 0.0000
# 3 38.8694 35.7892 117.3295 0.0000 0.0000 0.0000
# 4 0.0000 0.0000 0.0000 26.0210 0.0000 0.0000
# 5 0.0000 0.0000 0.0000 0.0000 29.1180 0.0000
# 6 0.0000 0.0000 0.0000 0.0000 0.0000 37.4735
#
#
#
# Elastic Compliance Matrix: (Units=1/GPa)
#
#
# Indices 1 2 3 4 5 6 
#
# 1 0.019144 -0.016264 -0.001381 0.000000 0.000000 0.000000
# 2 -0.016264 0.030115 -0.003798 0.000000 0.000000 0.000000
# 3 -0.001381 -0.003798 0.010139 0.000000 0.000000 0.000000
# 4 0.000000 0.000000 0.000000 0.038431 0.000000 0.000000
# 5 0.000000 0.000000 0.000000 0.000000 0.034343 0.000000
# 6 0.000000 0.000000 0.000000 0.000000 0.000000 0.026686
#
#
# Mechanical properties :
#
#
# Convention : Reuss Voigt Hill
#
# Bulk Modulus (GPa) = 60.56157 64.03077 62.29617
# Shear Modulus (GPa) = 24.12583 29.21299 26.66941
#
# Velocity S-wave (km/s) = 3.56103 3.91853 3.74405
# Velocity P-wave (km/s) = 6.98141 7.35723 7.17178
#
# Compressibility (1/GPa) = 0.01651212
#
# Stress axis : x y z
#
# Youngs Moduli (GPa) = 52.23558 33.20636 98.62798
#
# Poissons Ratio (x) = 0.54005 0.13623
# Poissons Ratio (y) = 0.84954 0.37460
# Poissons Ratio (z) = 0.07215 0.12612
#
# Static dielectric constant tensor:
#      x y z
#    x 3.991250 0.000000 0.000000 
#    y 0.000000 3.282150 0.000000 
#    z 0.000000 0.000000 3.602020 
# 
# 
# High freq. dielectric constant tensor:
#      x y z
#    x 1.748080 0.000000 0.000000 
#    y 0.000000 1.715430 0.000000 
#    z 0.000000 0.000000 1.748780 
# 
# From -- ./inp_files/7856.got.cif
#   From: 2010.03.12/outbox.cif.g09.slc.cpg/sg63_4_cif.got.tgz:7856.got - 2010.04.10 19:34:48.
