data_PCOD8256459
_publ_section_title
;
Structure prediction by ZEFSAII (Michael W. Deem and Ramdas Pophale) SiO2 
 PCOD8256459
Probable space group: C M C M
;
_chemical_formula_sum "Si O2"
_cell_formula_units_Z 112
_cell_length_a 19.173504
_cell_length_b 33.926669
_cell_length_c 9.328766
_cell_angle_alpha 90.000000
_cell_angle_beta 90.000000
_cell_angle_gamma 90.000000
_cell_volume 6068.298136
_symmetry_space_group_name_H-M "C M C M"
_symmetry_group_IT_number 63
_symmetry_cell_setting 'orthorhombic'
loop_
_space_group_symop_operation_xyz
x,y,z
-x,-y,1/2+z
x,-y,-z
-x,y,1/2-z
-x,-y,-z
x,y,1/2-z
-x,y,z
x,-y,1/2+z
1/2+x,1/2+y,z
1/2-x,1/2-y,1/2+z
1/2+x,1/2-y,-z
1/2-x,1/2+y,1/2-z
1/2-x,1/2-y,-z
1/2+x,1/2+y,1/2-z
1/2-x,1/2+y,z
1/2+x,1/2-y,1/2+z
loop_
_atom_site_type_symbol
_atom_site_label
_atom_site_fract_x
_atom_site_fract_y
_atom_site_fract_z
Si Si1 0.921589 0.537184 0.915755
Si Si2 0.198518 0.593140 0.917533
Si Si3 0.077226 0.110992 0.580677
Si Si4 0.920251 0.737686 0.918272
Si Si5 0.325447 0.458927 0.420025
Si Si6 0.144340 0.191902 0.918468
Si Si7 0.700220 0.180269 0.919105
O O1 0.917451 0.526033 0.750000
O O2 0.877584 0.575923 0.950623
O O3 0.000000 0.546421 0.966095
O O4 0.890389 0.500000 0.000000
O O5 0.214556 0.597697 0.750000
O O6 0.256068 0.563010 0.978340
O O7 0.200120 0.636475 0.988640
O O8 0.072077 0.112693 0.750000
O O9 0.110871 0.069491 0.534952
O O10 0.124676 0.147747 0.530250
O O11 0.000000 0.113912 0.512062
O O12 0.908675 0.744424 0.750000
O O13 0.865219 0.705375 0.979291
O O14 0.000000 0.724184 0.949911
O O15 0.905587 0.778524 0.997519
O O16 0.335098 0.500000 0.500000
O O17 0.322403 0.466720 0.250000
O O18 0.130928 0.197444 0.750000
O O19 0.225514 0.200310 0.957108
O O20 0.690965 0.176320 0.750000
#
# Coordination Sequence:
#
# PCOD8256459 Si02
#       7
#    16  16  16  16  16  16  16
#     4   9  17  28  44  67  93 122 158 199 241 286
#     4   9  16  29  49  71  94 123 162 203 239 281
#     4   9  17  30  50  74  96 123 163 204 239 282
#     4  10  21  34  49  75 109 137 160 198 255 305
#     4  10  19  32  50  71  96 126 159 199 243 288
#     4  10  18  33  57  78  96 128 174 214 243 285
#     4   9  17  31  52  75  99 129 168 208 245 290
#
# _framework density 18.456574
#
# number of rings (size 3 to 8) (size 9 to 14) (size 15 to 20)
#    0.000    2.571    1.429    1.286    0.000    1.714 
#    0.000    3.571    0.000    3.429    0.000    2.000 
#    0.000    0.000    0.000    0.000    0.000    0.000 
#
# Total GULP energy -694188.095805 kJ/mol
# GULP energy per Si atom -12396.215997 kJ/mol
# Density = 1.841457 g / cm^3
# Si number density = 18.456574 Si / 1000 Ang^3
#
#
#
# Elastic Constant Matrix: (Units=GPa)
#
#
# Indices 1 2 3 4 5 6 
#
# 1 130.2851 65.2825 26.0050 0.0000 0.0000 0.0000
# 2 65.2825 130.5452 28.0318 0.0000 0.0000 0.0000
# 3 26.0050 28.0318 23.2248 0.0000 0.0000 0.0000
# 4 0.0000 0.0000 0.0000 24.1102 0.0000 0.0000
# 5 0.0000 0.0000 0.0000 0.0000 16.6133 0.0000
# 6 0.0000 0.0000 0.0000 0.0000 0.0000 26.9303
#
#
#
# Elastic Compliance Matrix: (Units=1/GPa)
#
#
# Indices 1 2 3 4 5 6 
#
# 1 0.011200 -0.003925 -0.007803 0.000000 0.000000 0.000000
# 2 -0.003925 0.011716 -0.009745 0.000000 0.000000 0.000000
# 3 -0.007803 -0.009745 0.063557 0.000000 0.000000 0.000000
# 4 0.000000 0.000000 0.000000 0.041476 0.000000 0.000000
# 5 0.000000 0.000000 0.000000 0.000000 0.060193 0.000000
# 6 0.000000 0.000000 0.000000 0.000000 0.000000 0.037133
#
#
# Mechanical properties :
#
#
# Convention : Reuss Voigt Hill
#
# Bulk Modulus (GPa) = 22.97517 58.07710 40.52614
# Shear Modulus (GPa) = 17.68474 24.51315 21.09895
#
# Velocity S-wave (km/s) = 3.09881 3.64834 3.38474
# Velocity P-wave (km/s) = 5.02780 7.02014 6.10578
#
# Compressibility (1/GPa) = 0.04352525
#
# Stress axis : x y z
#
# Youngs Moduli (GPa) = 89.28770 85.35529 15.73396
#
# Poissons Ratio (x) = 0.33504 0.12277
# Poissons Ratio (y) = 0.35048 0.15334
# Poissons Ratio (z) = 0.69669 0.83183
#
# Static dielectric constant tensor:
#      x y z
#    x 3.702470 0.000000 0.000000 
#    y 0.000000 3.507530 0.000000 
#    z 0.000000 0.000000 2.891840 
# 
# 
# High freq. dielectric constant tensor:
#      x y z
#    x 1.732030 0.000000 0.000000 
#    y 0.000000 1.721000 0.000000 
#    z 0.000000 0.000000 1.657790 
# 
# From -- ./inp_files/23155.got.cif
#   From: 2010.03.12/outbox.cif.g09.slc.cpg/sg63_12_cif.got.tgz:23155.got - 2010.04.10 19:34:48.
