data_PCOD8257275
_publ_section_title
;
Structure prediction by ZEFSAII (Michael W. Deem and Ramdas Pophale) SiO2 
 PCOD8257275
Probable space group: C M C M
;
_chemical_formula_sum "Si O2"
_cell_formula_units_Z 80
_cell_length_a 8.878335
_cell_length_b 26.016000
_cell_length_c 19.213897
_cell_angle_alpha 90.000000
_cell_angle_beta 90.000000
_cell_angle_gamma 90.000000
_cell_volume 4438.002168
_symmetry_space_group_name_H-M "C M C M"
_symmetry_group_IT_number 63
_symmetry_cell_setting 'orthorhombic'
loop_
_space_group_symop_operation_xyz
x,y,z
-x,-y,1/2+z
x,-y,-z
-x,y,1/2-z
-x,-y,-z
x,y,1/2-z
-x,y,z
x,-y,1/2+z
1/2+x,1/2+y,z
1/2-x,1/2-y,1/2+z
1/2+x,1/2-y,-z
1/2-x,1/2+y,1/2-z
1/2-x,1/2-y,-z
1/2+x,1/2+y,1/2-z
1/2-x,1/2+y,z
1/2+x,1/2-y,1/2+z
loop_
_atom_site_type_symbol
_atom_site_label
_atom_site_fract_x
_atom_site_fract_y
_atom_site_fract_z
Si Si1 0.822995 0.449705 0.830060
Si Si2 0.321735 0.145142 0.917288
Si Si3 0.826060 0.055724 0.831536
Si Si4 0.676648 0.253678 0.074760
Si Si5 0.323672 0.858547 0.924871
O O1 0.788280 0.436712 0.750000
O O2 0.735773 0.500396 0.854634
O O3 0.755421 0.402804 0.875689
O O4 0.000000 0.458570 0.842093
O O5 0.500000 0.149711 0.914959
O O6 0.269296 0.098271 0.870824
O O7 0.252841 0.198269 0.885329
O O8 0.260326 0.137358 0.996260
O O9 0.801010 0.064183 0.750000
O O10 0.000000 0.059991 0.852583
O O11 0.500000 0.264007 0.068420
O O12 0.708918 0.197731 0.109624
O O13 0.750000 0.250000 0.000000
O O14 0.500000 0.867797 0.929245
#
# Coordination Sequence:
#
# PCOD8257275 Si02
#       5
#    16  16  16  16  16
#     4   9  17  32  53  72  93 126 164 197 234 286
#     4  10  19  32  51  73  98 129 165 204 244 290
#     4  10  21  36  51  69  96 127 159 200 249 296
#     4   9  16  29  48  71 101 133 164 200 244 290
#     4   8  16  30  49  74 100 127 161 200 239 281
#
# _framework density 18.026129000000001
#
# number of rings (size 3 to 8) (size 9 to 14) (size 15 to 20)
#    0.000    2.800    0.000    3.000    0.000    2.000 
#    0.000   11.000    0.000    3.600    0.000    0.000 
#    0.000    0.000    0.000    0.000    0.000    0.000 
#
# Total GULP energy -495748.003493 kJ/mol
# GULP energy per Si atom -12393.700087 kJ/mol
# Density = 1.798510 g / cm^3
# Si number density = 18.026129 Si / 1000 Ang^3
#
#
#
# Elastic Constant Matrix: (Units=GPa)
#
#
# Indices 1 2 3 4 5 6 
#
# 1 77.0147 56.8790 26.6614 0.0000 0.0000 0.0000
# 2 56.8790 174.9094 60.1643 0.0000 0.0000 0.0000
# 3 26.6614 60.1643 45.9463 0.0000 0.0000 0.0000
# 4 0.0000 0.0000 0.0000 4.5244 0.0000 0.0000
# 5 0.0000 0.0000 0.0000 0.0000 19.6995 0.0000
# 6 0.0000 0.0000 0.0000 0.0000 0.0000 33.8081
#
#
#
# Elastic Compliance Matrix: (Units=1/GPa)
#
#
# Indices 1 2 3 4 5 6 
#
# 1 0.017692 -0.004043 -0.004972 0.000000 0.000000 0.000000
# 2 -0.004043 0.011327 -0.012486 0.000000 0.000000 0.000000
# 3 -0.004972 -0.012486 0.040999 0.000000 0.000000 0.000000
# 4 0.000000 0.000000 0.000000 0.221022 0.000000 0.000000
# 5 0.000000 0.000000 0.000000 0.000000 0.050763 0.000000
# 6 0.000000 0.000000 0.000000 0.000000 0.000000 0.029579
#
#
# Mechanical properties :
#
#
# Convention : Reuss Voigt Hill
#
# Bulk Modulus (GPa) = 37.01491 65.03107 51.02299
# Shear Modulus (GPa) = 11.80952 21.88413 16.84682
#
# Velocity S-wave (km/s) = 2.56233 3.48806 3.06040
# Velocity P-wave (km/s) = 5.41597 7.23716 6.39176
#
# Compressibility (1/GPa) = 0.02701614
#
# Stress axis : x y z
#
# Youngs Moduli (GPa) = 56.52376 88.28644 24.39078
#
# Poissons Ratio (x) = 0.35694 0.12127
# Poissons Ratio (y) = 0.22852 0.30454
# Poissons Ratio (z) = 0.28103 1.10233
#
# Static dielectric constant tensor:
#      x y z
#    x 3.318290 0.000000 0.000000 
#    y 0.000000 3.928990 0.000000 
#    z 0.000000 0.000000 3.185290 
# 
# 
# High freq. dielectric constant tensor:
#      x y z
#    x 1.689510 0.000000 0.000000 
#    y 0.000000 1.720030 0.000000 
#    z 0.000000 0.000000 1.663550 
# 
# From -- ./inp_files/40497.got.cif
#   From: 2010.03.12/outbox.cif.g09.slc.cpg/sg63_21_cif.got.tgz:40497.got - 2010.04.10 19:34:48.
