data_PCOD8257215
_publ_section_title
;
Structure prediction by ZEFSAII (Michael W. Deem and Ramdas Pophale) SiO2 
 PCOD8257215
Probable space group: C M C M
;
_chemical_formula_sum "Si O2"
_cell_formula_units_Z 112
_cell_length_a 27.919028
_cell_length_b 16.849738
_cell_length_c 15.541956
_cell_angle_alpha 90.000000
_cell_angle_beta 90.000000
_cell_angle_gamma 90.000000
_cell_volume 7311.376049
_symmetry_space_group_name_H-M "C M C M"
_symmetry_group_IT_number 63
_symmetry_cell_setting 'orthorhombic'
loop_
_space_group_symop_operation_xyz
x,y,z
-x,-y,1/2+z
x,-y,-z
-x,y,1/2-z
-x,-y,-z
x,y,1/2-z
-x,y,z
x,-y,1/2+z
1/2+x,1/2+y,z
1/2-x,1/2-y,1/2+z
1/2+x,1/2-y,-z
1/2-x,1/2+y,1/2-z
1/2-x,1/2-y,-z
1/2+x,1/2+y,1/2-z
1/2-x,1/2+y,z
1/2+x,1/2-y,1/2+z
loop_
_atom_site_type_symbol
_atom_site_label
_atom_site_fract_x
_atom_site_fract_y
_atom_site_fract_z
Si Si1 0.552238 0.675068 0.351207
Si Si2 0.238331 0.118106 0.153393
Si Si3 0.137404 0.924613 0.443728
Si Si4 0.054532 0.996535 0.347672
Si Si5 0.851358 0.789937 0.924461
Si Si6 0.270908 0.569181 0.846489
Si Si7 0.781783 0.672680 0.988327
O O1 0.547676 0.671687 0.250000
O O2 0.500000 0.705785 0.387016
O O3 0.561532 0.585416 0.384686
O O4 0.598401 0.727813 0.375779
O O5 0.254465 0.143264 0.250000
O O6 0.188781 0.165029 0.133021
O O7 0.231365 0.024944 0.148193
O O8 0.280542 0.134739 0.083879
O O9 0.084877 0.937620 0.405886
O O10 0.135697 0.843768 0.495300
O O11 0.174407 0.909242 0.366521
O O12 0.155003 0.000000 0.500000
O O13 0.072968 0.992538 0.250000
O O14 0.000000 0.968767 0.354587
O O15 0.833720 0.703515 0.957639
O O16 0.257624 0.598904 0.750000
O O17 0.236973 0.611436 0.916489
O O18 0.750000 0.750000 0.000000
#
# Coordination Sequence:
#
# PCOD8257215 Si02
#       7
#    16  16  16  16  16  16  16
#     4   9  17  29  44  62  87 120 157 192 228 269
#     4  10  19  32  50  66  89 122 154 192 232 272
#     4  12  18  28  44  61  90 118 157 196 225 265
#     4   9  18  30  42  60  85 116 158 200 229 255
#     4  11  20  30  44  66  94 122 152 190 231 272
#     4  11  20  32  49  66  86 119 157 194 230 271
#     4  10  20  33  44  65  94 120 152 190 225 278
#
# _framework density 15.318593999999999
#
# number of rings (size 3 to 8) (size 9 to 14) (size 15 to 20)
#    0.000    1.714    5.714    2.143    0.000    6.000 
#    0.000    0.000    0.000    0.000    0.000    0.000 
#    0.000    2.286    0.000    3.143    0.000    0.714 
#
# Total GULP energy -693870.924603 kJ/mol
# GULP energy per Si atom -12390.552225 kJ/mol
# Density = 1.528373 g / cm^3
# Si number density = 15.318594 Si / 1000 Ang^3
#
#
#
# Elastic Constant Matrix: (Units=GPa)
#
#
# Indices 1 2 3 4 5 6 
#
# 1 93.4522 31.0000 39.1721 0.0000 0.0000 0.0000
# 2 31.0000 25.0165 24.4926 0.0000 0.0000 0.0000
# 3 39.1721 24.4926 99.3014 0.0000 0.0000 0.0000
# 4 0.0000 0.0000 0.0000 20.3907 0.0000 0.0000
# 5 0.0000 0.0000 0.0000 0.0000 23.1644 0.0000
# 6 0.0000 0.0000 0.0000 0.0000 0.0000 13.9826
#
#
#
# Elastic Compliance Matrix: (Units=1/GPa)
#
#
# Indices 1 2 3 4 5 6 
#
# 1 0.018517 -0.020823 -0.002169 0.000000 0.000000 0.000000
# 2 -0.020823 0.076115 -0.010560 0.000000 0.000000 0.000000
# 3 -0.002169 -0.010560 0.013530 0.000000 0.000000 0.000000
# 4 0.000000 0.000000 0.000000 0.049042 0.000000 0.000000
# 5 0.000000 0.000000 0.000000 0.000000 0.043170 0.000000
# 6 0.000000 0.000000 0.000000 0.000000 0.000000 0.071517
#
#
# Mechanical properties :
#
#
# Convention : Reuss Voigt Hill
#
# Bulk Modulus (GPa) = 24.35423 45.23327 34.79375
# Shear Modulus (GPa) = 14.17713 19.71456 16.94584
#
# Velocity S-wave (km/s) = 3.04548 3.59133 3.32961
# Velocity P-wave (km/s) = 5.31974 6.84027 6.12735
#
# Compressibility (1/GPa) = 0.04106063
#
# Stress axis : x y z
#
# Youngs Moduli (GPa) = 54.00450 13.13796 73.90784
#
# Poissons Ratio (x) = 0.27357 0.16028
# Poissons Ratio (y) = 1.12452 0.78044
# Poissons Ratio (z) = 0.11712 0.13873
#
# Static dielectric constant tensor:
#      x y z
#    x 3.319860 0.000000 0.000000 
#    y 0.000000 2.892940 0.000000 
#    z 0.000000 0.000000 3.593880 
# 
# 
# High freq. dielectric constant tensor:
#      x y z
#    x 1.569090 0.000000 0.000000 
#    y 0.000000 1.547550 0.000000 
#    z 0.000000 0.000000 1.601090 
# 
# From -- ./inp_files/38702.got.cif
#   From: 2010.03.12/outbox.cif.g09.slc.cpg/sg63_20_cif.got.tgz:38702.got - 2010.04.10 19:34:48.
