data_PCOD8257522
_publ_section_title
;
Structure prediction by ZEFSAII (Michael W. Deem and Ramdas Pophale) SiO2 
 PCOD8257522
Probable space group: C M C M
;
_chemical_formula_sum "Si O2"
_cell_formula_units_Z 96
_cell_length_a 11.898318
_cell_length_b 25.197076
_cell_length_c 18.382836
_cell_angle_alpha 90.000000
_cell_angle_beta 90.000000
_cell_angle_gamma 90.000000
_cell_volume 5511.226126
_symmetry_space_group_name_H-M "C M C M"
_symmetry_group_IT_number 63
_symmetry_cell_setting 'orthorhombic'
loop_
_space_group_symop_operation_xyz
x,y,z
-x,-y,1/2+z
x,-y,-z
-x,y,1/2-z
-x,-y,-z
x,y,1/2-z
-x,y,z
x,-y,1/2+z
1/2+x,1/2+y,z
1/2-x,1/2-y,1/2+z
1/2+x,1/2-y,-z
1/2-x,1/2+y,1/2-z
1/2-x,1/2-y,-z
1/2+x,1/2+y,1/2-z
1/2-x,1/2+y,z
1/2+x,1/2-y,1/2+z
loop_
_atom_site_type_symbol
_atom_site_label
_atom_site_fract_x
_atom_site_fract_y
_atom_site_fract_z
Si Si1 0.132155 0.400519 0.334540
Si Si2 0.000000 0.132955 0.328985
Si Si3 0.867277 0.710754 0.421315
Si Si4 0.743044 0.380290 0.662772
Si Si5 0.376012 0.981346 0.836417
Si Si6 0.298593 0.197138 0.916797
Si Si7 0.000000 0.743864 0.670523
O O1 0.160863 0.393748 0.250000
O O2 0.163039 0.459996 0.361333
O O3 0.211235 0.360913 0.380443
O O4 0.000000 0.387899 0.348761
O O5 0.884078 0.118102 0.370199
O O6 0.000000 0.194756 0.315851
O O7 0.000000 0.104243 0.250000
O O8 0.813355 0.670077 0.364190
O O9 0.818021 0.770345 0.411421
O O10 0.837609 0.689049 0.500786
O O11 0.000000 0.713796 0.408198
O O12 0.740602 0.376259 0.750000
O O13 0.795992 0.435179 0.633819
O O14 0.380447 0.980400 0.750000
O O15 0.500000 0.969884 0.867752
O O16 0.389763 0.230494 0.873625
O O17 0.000000 0.714884 0.750000
#
# Coordination Sequence:
#
# PCOD8257522 Si02
#       7
#    16   8  16  16  16  16   8
#     4   9  16  29  53  79 100 127 168 216 256 295
#     4   9  18  30  50  78  96 120 174 225 253 283
#     4  11  23  35  49  73 107 142 166 202 258 313
#     4  10  19  33  52  74 101 134 172 213 254 304
#     4   8  15  28  48  75 102 128 161 206 263 309
#     4  11  21  34  52  76 105 133 169 210 255 307
#     4  11  18  32  56  80  99 125 173 224 257 287
#
# _framework density 17.418990999999998
#
# number of rings (size 3 to 8) (size 9 to 14) (size 15 to 20)
#    0.000    2.167    3.333    2.000    0.000    1.667 
#    0.000    0.833    1.833    3.000    0.000    1.167 
#    0.000    0.000    0.000    0.000    0.000    0.000 
#
# Total GULP energy -594908.733126 kJ/mol
# GULP energy per Si atom -12393.931940 kJ/mol
# Density = 1.737934 g / cm^3
# Si number density = 17.418991 Si / 1000 Ang^3
#
#
#
# Elastic Constant Matrix: (Units=GPa)
#
#
# Indices 1 2 3 4 5 6 
#
# 1 133.9220 66.3785 26.0825 0.0000 0.0000 0.0000
# 2 66.3785 117.7519 28.5937 0.0000 0.0000 0.0000
# 3 26.0825 28.5937 51.1447 0.0000 0.0000 0.0000
# 4 0.0000 0.0000 0.0000 -89.2306 0.0000 0.0000
# 5 0.0000 0.0000 0.0000 0.0000 20.9073 0.0000
# 6 0.0000 0.0000 0.0000 0.0000 0.0000 39.5057
#
#
#
# Elastic Compliance Matrix: (Units=1/GPa)
#
#
# Indices 1 2 3 4 5 6 
#
# 1 0.010609 -0.005400 -0.002392 0.000000 0.000000 0.000000
# 2 -0.005400 0.012575 -0.004276 0.000000 0.000000 0.000000
# 3 -0.002392 -0.004276 0.023163 0.000000 0.000000 0.000000
# 4 0.000000 0.000000 0.000000 -0.011207 0.000000 0.000000
# 5 0.000000 0.000000 0.000000 0.000000 0.047830 0.000000
# 6 0.000000 0.000000 0.000000 0.000000 0.000000 0.025313
#
#
# Mechanical properties :
#
#
# Convention : Reuss Voigt Hill
#
# Bulk Modulus (GPa) = 45.02230 60.54756 52.78493
# Shear Modulus (GPa) = 35.75960 6.35407 21.05684
#
# Velocity S-wave (km/s) = 4.53582 1.91199 3.48061
# Velocity P-wave (km/s) = 7.30304 6.30153 6.82069
#
# Compressibility (1/GPa) = 0.02221122
#
# Stress axis : x y z
#
# Youngs Moduli (GPa) = 94.25742 79.52371 43.17258
#
# Poissons Ratio (x) = 0.42942 0.10325
# Poissons Ratio (y) = 0.50898 0.18463
# Poissons Ratio (z) = 0.22542 0.34008
#
# Static dielectric constant tensor:
#      x y z
#    x 3.401630 0.000000 0.000000 
#    y 0.000000 3.431120 0.000000 
#    z 0.000000 0.000000 3.232790 
# 
# 
# High freq. dielectric constant tensor:
#      x y z
#    x 1.658480 0.000000 0.000000 
#    y 0.000000 1.678900 0.000000 
#    z 0.000000 0.000000 1.648860 
# 
# From -- ./inp_files/53099.got.cif
#   From: 2010.03.12/outbox.cif.g09.slc.cpg/sg63_27_cif.got.tgz:53099.got - 2010.04.10 19:34:48.
