data_PCOD8257761
_publ_section_title
;
Structure prediction by ZEFSAII (Michael W. Deem and Ramdas Pophale) SiO2 
 PCOD8257761
Probable space group: C M C M
;
_chemical_formula_sum "Si O2"
_cell_formula_units_Z 64
_cell_length_a 20.980879
_cell_length_b 18.630739
_cell_length_c 8.669196
_cell_angle_alpha 90.000000
_cell_angle_beta 90.000000
_cell_angle_gamma 90.000000
_cell_volume 3388.695788
_symmetry_space_group_name_H-M "C M C M"
_symmetry_group_IT_number 63
_symmetry_cell_setting 'orthorhombic'
loop_
_space_group_symop_operation_xyz
x,y,z
-x,-y,1/2+z
x,-y,-z
-x,y,1/2-z
-x,-y,-z
x,y,1/2-z
-x,y,z
x,-y,1/2+z
1/2+x,1/2+y,z
1/2-x,1/2-y,1/2+z
1/2+x,1/2-y,-z
1/2-x,1/2+y,1/2-z
1/2-x,1/2-y,-z
1/2+x,1/2+y,1/2-z
1/2-x,1/2+y,z
1/2+x,1/2-y,1/2+z
loop_
_atom_site_type_symbol
_atom_site_label
_atom_site_fract_x
_atom_site_fract_y
_atom_site_fract_z
Si Si1 0.383796 0.665261 0.932470
Si Si2 0.500000 0.078891 0.434026
Si Si3 0.116646 0.671343 0.430669
Si Si4 0.500000 0.421340 0.931917
Si Si5 0.244250 0.171752 0.431212
O O1 0.391132 0.659352 0.750000
O O2 0.389316 0.747254 0.994584
O O3 0.437606 0.619441 0.012806
O O4 0.314734 0.632627 0.983508
O O5 0.500000 0.075389 0.250000
O O6 0.562019 0.120411 0.500532
O O7 0.500000 0.000000 0.500000
O O8 0.105769 0.677773 0.250000
O O9 0.186340 0.635993 0.465568
O O10 0.500000 0.426333 0.750000
O O11 0.500000 0.500000 0.000000
O O12 0.230434 0.174839 0.250000
O O13 0.250000 0.250000 0.500000
#
# Coordination Sequence:
#
# PCOD8257761 Si02
#       5
#    16   8  16   8  16
#     4  10  19  35  58  82 104 135 175 218 266 320
#     4  10  19  34  50  70 100 138 177 214 254 302
#     4   8  16  31  54  77 104 140 176 212 260 316
#     4  12  25  40  56  78 108 142 175 216 264 320
#     4   9  16  29  50  79 108 137 173 219 268 317
#
# _framework density 18.886323000000001
#
# number of rings (size 3 to 8) (size 9 to 14) (size 15 to 20)
#    0.000    2.500    0.000    4.875    0.000    2.000 
#    0.000   10.000    0.000    3.000    0.000    0.000 
#    0.000    0.000    0.000    0.000    0.000    0.000 
#
# Total GULP energy -396540.252923 kJ/mol
# GULP energy per Si atom -12391.882904 kJ/mol
# Density = 1.884334 g / cm^3
# Si number density = 18.886323 Si / 1000 Ang^3
#
#
#
# Elastic Constant Matrix: (Units=GPa)
#
#
# Indices 1 2 3 4 5 6 
#
# 1 207.7587 80.1653 55.2190 0.0000 0.0000 0.0000
# 2 80.1653 94.6946 33.3773 0.0000 0.0000 0.0000
# 3 55.2190 33.3773 85.8495 0.0000 0.0000 0.0000
# 4 0.0000 0.0000 0.0000 25.1833 0.0000 0.0000
# 5 0.0000 0.0000 0.0000 0.0000 31.1750 0.0000
# 6 0.0000 0.0000 0.0000 0.0000 0.0000 -2.3508
#
#
#
# Elastic Compliance Matrix: (Units=1/GPa)
#
#
# Indices 1 2 3 4 5 6 
#
# 1 0.007688 -0.005522 -0.002798 0.000000 0.000000 0.000000
# 2 -0.005522 0.016203 -0.002748 0.000000 0.000000 0.000000
# 3 -0.002798 -0.002748 0.014516 0.000000 0.000000 0.000000
# 4 0.000000 0.000000 0.000000 0.039709 0.000000 0.000000
# 5 0.000000 0.000000 0.000000 0.000000 0.032077 0.000000
# 6 0.000000 0.000000 0.000000 0.000000 0.000000 -0.425382
#
#
# Mechanical properties :
#
#
# Convention : Reuss Voigt Hill
#
# Bulk Modulus (GPa) = 61.45584 80.64734 71.05159
# Shear Modulus (GPa) = -17.38350 25.43759 4.02704
#
# Velocity S-wave (km/s) = -3.03715 3.67397 1.46181
# Velocity P-wave (km/s) = 4.50683 7.79689 6.36801
#
# Compressibility (1/GPa) = 0.01627185
#
# Stress axis : x y z
#
# Youngs Moduli (GPa) = 130.08050 61.71514 68.88812
#
# Poissons Ratio (x) = 0.34078 0.19274
# Poissons Ratio (y) = 0.71829 0.18931
# Poissons Ratio (z) = 0.36395 0.16960
#
# Static dielectric constant tensor:
#      x y z
#    x 4.421470 0.000000 0.000000 
#    y 0.000000 3.237700 0.000000 
#    z 0.000000 0.000000 3.487370 
# 
# 
# High freq. dielectric constant tensor:
#      x y z
#    x 1.764890 0.000000 0.000000 
#    y 0.000000 1.691800 0.000000 
#    z 0.000000 0.000000 1.721390 
# 
# From -- ./inp_files/7508.got.cif
#   From: 2010.03.12/outbox.cif.g09.slc.cpg/sg63_4_cif.got.tgz:7508.got - 2010.04.10 19:34:48.
