data_PCOD8257112
_publ_section_title
;
Structure prediction by ZEFSAII (Michael W. Deem and Ramdas Pophale) SiO2 
 PCOD8257112
Probable space group: C M C M
;
_chemical_formula_sum "Si O2"
_cell_formula_units_Z 64
_cell_length_a 9.109130
_cell_length_b 15.068655
_cell_length_c 24.517984
_cell_angle_alpha 90.000000
_cell_angle_beta 90.000000
_cell_angle_gamma 90.000000
_cell_volume 3365.395790
_symmetry_space_group_name_H-M "C M C M"
_symmetry_group_IT_number 63
_symmetry_cell_setting 'orthorhombic'
loop_
_space_group_symop_operation_xyz
x,y,z
-x,-y,1/2+z
x,-y,-z
-x,y,1/2-z
-x,-y,-z
x,y,1/2-z
-x,y,z
x,-y,1/2+z
1/2+x,1/2+y,z
1/2-x,1/2-y,1/2+z
1/2+x,1/2-y,-z
1/2-x,1/2+y,1/2-z
1/2-x,1/2-y,-z
1/2+x,1/2+y,1/2-z
1/2-x,1/2+y,z
1/2+x,1/2-y,1/2+z
loop_
_atom_site_type_symbol
_atom_site_label
_atom_site_fract_x
_atom_site_fract_y
_atom_site_fract_z
Si Si1 0.174155 0.758547 0.311010
Si Si2 0.673212 0.415703 0.111979
Si Si3 0.825813 0.398016 0.887448
Si Si4 0.161233 0.395404 0.006789
O O1 0.240358 0.757373 0.250000
O O2 0.223150 0.849052 0.340351
O O3 0.233049 0.672889 0.343659
O O4 0.000000 0.753798 0.309503
O O5 0.500000 0.428597 0.109295
O O6 0.747462 0.509273 0.124954
O O7 0.724368 0.372516 0.054485
O O8 0.000000 0.413904 0.883863
O O9 0.785281 0.359232 0.947722
O O10 0.000000 0.356932 0.021858
O O11 0.149258 0.500000 0.000000
#
# Coordination Sequence:
#
# PCOD8257112 Si02
#       4
#    16  16  16  16
#     4   9  19  35  52  71  98 133 170 203 241 294
#     4  10  19  31  51  78 103 127 159 203 251 292
#     4   9  18  34  54  73  97 133 169 198 238 295
#     4   8  15  29  49  73 101 130 160 196 241 295
#
# _framework density 19.01708
#
# number of rings (size 3 to 8) (size 9 to 14) (size 15 to 20)
#    0.000    3.000    0.000    2.250    0.000    6.500 
#    0.000    2.500    0.000    5.250    0.000    0.000 
#    0.000    0.000    0.000    0.000    0.000    0.000 
#
# Total GULP energy -396630.322842 kJ/mol
# GULP energy per Si atom -12394.697589 kJ/mol
# Density = 1.897380 g / cm^3
# Si number density = 19.017080 Si / 1000 Ang^3
#
#
#
# Elastic Constant Matrix: (Units=GPa)
#
#
# Indices 1 2 3 4 5 6 
#
# 1 52.9076 38.1518 40.5282 0.0000 0.0000 0.0000
# 2 38.1518 99.9437 72.4552 0.0000 0.0000 0.0000
# 3 40.5282 72.4552 167.5496 0.0000 0.0000 0.0000
# 4 0.0000 0.0000 0.0000 33.4477 0.0000 0.0000
# 5 0.0000 0.0000 0.0000 0.0000 21.9873 0.0000
# 6 0.0000 0.0000 0.0000 0.0000 0.0000 14.5045
#
#
#
# Elastic Compliance Matrix: (Units=1/GPa)
#
#
# Indices 1 2 3 4 5 6 
#
# 1 0.027097 -0.008146 -0.003032 0.000000 0.000000 0.000000
# 2 -0.008146 0.017024 -0.005391 0.000000 0.000000 0.000000
# 3 -0.003032 -0.005391 0.009033 0.000000 0.000000 0.000000
# 4 0.000000 0.000000 0.000000 0.029897 0.000000 0.000000
# 5 0.000000 0.000000 0.000000 0.000000 0.045481 0.000000
# 6 0.000000 0.000000 0.000000 0.000000 0.000000 0.068944
#
#
# Mechanical properties :
#
#
# Convention : Reuss Voigt Hill
#
# Bulk Modulus (GPa) = 49.96018 69.18571 59.57295
# Shear Modulus (GPa) = 21.07155 25.27230 23.17192
#
# Velocity S-wave (km/s) = 3.33232 3.64940 3.49446
# Velocity P-wave (km/s) = 6.41359 7.36324 6.90476
#
# Compressibility (1/GPa) = 0.02001594
#
# Stress axis : x y z
#
# Youngs Moduli (GPa) = 36.90389 58.74159 110.70293
#
# Poissons Ratio (x) = 0.47851 0.33564
# Poissons Ratio (y) = 0.30062 0.59684
# Poissons Ratio (z) = 0.11189 0.31670
#
# Static dielectric constant tensor:
#      x y z
#    x 3.217450 0.000000 0.000000 
#    y 0.000000 3.328820 0.000000 
#    z 0.000000 0.000000 4.072630 
# 
# 
# High freq. dielectric constant tensor:
#      x y z
#    x 1.710220 0.000000 0.000000 
#    y 0.000000 1.729430 0.000000 
#    z 0.000000 0.000000 1.745400 
# 
# From -- ./inp_files/59057.got.cif
#   From: 2010.03.12/outbox.cif.g09.slc.cpg/sg63_30_cif.got.tgz:59057.got - 2010.04.10 19:34:48.
