data_PCOD8257229
_publ_section_title
;
Structure prediction by ZEFSAII (Michael W. Deem and Ramdas Pophale) SiO2 
 PCOD8257229
Probable space group: C M C M
;
_chemical_formula_sum "Si O2"
_cell_formula_units_Z 96
_cell_length_a 8.901038
_cell_length_b 29.544274
_cell_length_c 20.675716
_cell_angle_alpha 90.000000
_cell_angle_beta 90.000000
_cell_angle_gamma 90.000000
_cell_volume 5437.190327
_symmetry_space_group_name_H-M "C M C M"
_symmetry_group_IT_number 63
_symmetry_cell_setting 'orthorhombic'
loop_
_space_group_symop_operation_xyz
x,y,z
-x,-y,1/2+z
x,-y,-z
-x,y,1/2-z
-x,-y,-z
x,y,1/2-z
-x,y,z
x,-y,1/2+z
1/2+x,1/2+y,z
1/2-x,1/2-y,1/2+z
1/2+x,1/2-y,-z
1/2-x,1/2+y,1/2-z
1/2-x,1/2-y,-z
1/2+x,1/2+y,1/2-z
1/2-x,1/2+y,z
1/2+x,1/2-y,1/2+z
loop_
_atom_site_type_symbol
_atom_site_label
_atom_site_fract_x
_atom_site_fract_y
_atom_site_fract_z
Si Si1 0.329528 0.380087 0.011687
Si Si2 0.326588 0.993752 0.179919
Si Si3 0.821255 0.713067 0.953509
Si Si4 0.322192 0.038373 0.051574
Si Si5 0.676746 0.303386 0.178020
Si Si6 0.832534 0.095988 0.655009
O O1 0.500000 0.367033 0.991702
O O2 0.231114 0.335140 0.019091
O O3 0.328557 0.407787 0.077976
O O4 0.256722 0.413511 0.959563
O O5 0.297749 0.017282 0.250000
O O6 0.500000 0.988874 0.164021
O O7 0.267013 0.943035 0.184768
O O8 0.257455 0.023051 0.121665
O O9 0.765643 0.722083 0.879425
O O10 0.000000 0.716254 0.955178
O O11 0.750000 0.750000 0.000000
O O12 0.500000 0.046412 0.050259
O O13 0.275390 0.000000 0.000000
O O14 0.710512 0.282886 0.250000
O O15 0.500000 0.300512 0.161462
O O16 0.729631 0.355544 0.178298
O O17 0.000000 0.089424 0.681760
#
# Coordination Sequence:
#
# PCOD8257229 Si02
#       6
#    16  16  16  16  16  16
#     4  10  20  34  53  77 103 134 175 218 265 314
#     4  10  20  31  44  66  99 136 173 215 260 305
#     4  11  22  37  58  82 110 140 177 222 273 324
#     4  10  19  32  50  72 100 135 177 217 256 304
#     4   9  18  33  52  77 111 145 175 212 262 320
#     4   9  17  29  46  70 101 135 169 205 249 304
#
# _framework density 17.656179000000002
#
# number of rings (size 3 to 8) (size 9 to 14) (size 15 to 20)
#    0.000    2.167    1.667    3.500    0.000    5.000 
#    0.000    0.000    0.000    1.000    0.000    2.333 
#    0.000    0.000    0.000    0.000    0.000    0.000 
#
# Total GULP energy -594963.106478 kJ/mol
# GULP energy per Si atom -12395.064718 kJ/mol
# Density = 1.761599 g / cm^3
# Si number density = 17.656179 Si / 1000 Ang^3
#
#
#
# Elastic Constant Matrix: (Units=GPa)
#
#
# Indices 1 2 3 4 5 6 
#
# 1 82.4871 39.0541 56.2313 0.0000 0.0000 0.0000
# 2 39.0541 66.6447 55.0483 0.0000 0.0000 0.0000
# 3 56.2313 55.0483 137.9444 0.0000 0.0000 0.0000
# 4 0.0000 0.0000 0.0000 18.8389 0.0000 0.0000
# 5 0.0000 0.0000 0.0000 0.0000 18.5193 0.0000
# 6 0.0000 0.0000 0.0000 0.0000 0.0000 28.7546
#
#
#
# Elastic Compliance Matrix: (Units=1/GPa)
#
#
# Indices 1 2 3 4 5 6 
#
# 1 0.018731 -0.006966 -0.004856 0.000000 0.000000 0.000000
# 2 -0.006966 0.024973 -0.007126 0.000000 0.000000 0.000000
# 3 -0.004856 -0.007126 0.012073 0.000000 0.000000 0.000000
# 4 0.000000 0.000000 0.000000 0.053082 0.000000 0.000000
# 5 0.000000 0.000000 0.000000 0.000000 0.053998 0.000000
# 6 0.000000 0.000000 0.000000 0.000000 0.000000 0.034777
#
#
# Mechanical properties :
#
#
# Convention : Reuss Voigt Hill
#
# Bulk Modulus (GPa) = 55.92445 65.30485 60.61465
# Shear Modulus (GPa) = 20.70480 22.33873 21.52176
#
# Velocity S-wave (km/s) = 3.42814 3.56083 3.49511
# Velocity P-wave (km/s) = 6.88567 7.34665 7.11989
#
# Compressibility (1/GPa) = 0.01788127
#
# Stress axis : x y z
#
# Youngs Moduli (GPa) = 53.38658 40.04281 82.83243
#
# Poissons Ratio (x) = 0.27893 0.40222
# Poissons Ratio (y) = 0.37188 0.59029
# Poissons Ratio (z) = 0.25924 0.28536
#
# Static dielectric constant tensor:
#      x y z
#    x 3.253580 0.000000 0.000000 
#    y 0.000000 2.992300 0.000000 
#    z 0.000000 0.000000 3.566870 
# 
# 
# High freq. dielectric constant tensor:
#      x y z
#    x 1.679990 0.000000 0.000000 
#    y 0.000000 1.647800 0.000000 
#    z 0.000000 0.000000 1.690430 
# 
# From -- ./inp_files/51334.got.cif
#   From: 2010.03.12/outbox.cif.g09.slc.cpg/sg63_26_cif.got.tgz:51334.got - 2010.04.10 19:34:48.
