data_PCOD8257566
_publ_section_title
;
Structure prediction by ZEFSAII (Michael W. Deem and Ramdas Pophale) SiO2 
 PCOD8257566
Probable space group: C M C M
;
_chemical_formula_sum "Si O2"
_cell_formula_units_Z 88
_cell_length_a 30.599703
_cell_length_b 18.038373
_cell_length_c 8.903423
_cell_angle_alpha 90.000000
_cell_angle_beta 90.000000
_cell_angle_gamma 90.000000
_cell_volume 4914.412211
_symmetry_space_group_name_H-M "C M C M"
_symmetry_group_IT_number 63
_symmetry_cell_setting 'orthorhombic'
loop_
_space_group_symop_operation_xyz
x,y,z
-x,-y,1/2+z
x,-y,-z
-x,y,1/2-z
-x,-y,-z
x,y,1/2-z
-x,y,z
x,-y,1/2+z
1/2+x,1/2+y,z
1/2-x,1/2-y,1/2+z
1/2+x,1/2-y,-z
1/2-x,1/2+y,1/2-z
1/2-x,1/2-y,-z
1/2+x,1/2+y,1/2-z
1/2-x,1/2+y,z
1/2+x,1/2-y,1/2+z
loop_
_atom_site_type_symbol
_atom_site_label
_atom_site_fract_x
_atom_site_fract_y
_atom_site_fract_z
Si Si1 0.883612 0.297032 0.074337
Si Si2 0.549870 0.078836 0.571983
Si Si3 0.586372 0.654342 0.579389
Si Si4 0.204835 0.773112 0.571112
Si Si5 0.325907 0.577329 0.577375
Si Si6 0.000000 0.077446 0.925465
O O1 0.884070 0.307967 0.250000
O O2 0.912923 0.364498 0.006615
O O3 0.832836 0.286892 0.020088
O O4 0.906366 0.220810 0.033706
O O5 0.553698 0.071494 0.750000
O O6 0.500000 0.104005 0.528637
O O7 0.560754 0.000000 0.500000
O O8 0.583994 0.684769 0.750000
O O9 0.622168 0.589382 0.568148
O O10 0.541698 0.621735 0.519590
O O11 0.207906 0.776118 0.750000
O O12 0.250000 0.750000 0.500000
O O13 0.196184 0.855239 0.510496
O O14 0.312962 0.500000 0.500000
O O15 0.309635 0.576390 0.750000
O O16 0.000000 0.065210 0.750000
O O17 0.000000 0.000000 0.000000
#
# Coordination Sequence:
#
# PCOD8257566 Si02
#       6
#    16  16  16  16  16   8
#     4   9  19  34  53  76 101 132 171 213 255 306
#     4   9  18  33  52  76 105 136 171 211 257 309
#     4   9  19  32  47  70 101 134 170 210 250 295
#     4  10  20  36  56  78 105 136 172 216 267 318
#     4  10  19  33  53  76 102 134 172 213 257 307
#     4  10  20  32  44  66  99 134 169 206 245 288
#
# _framework density 17.906514999999999
#
# number of rings (size 3 to 8) (size 9 to 14) (size 15 to 20)
#    0.000    2.545    0.000    1.636    1.273    2.909 
#    0.000    0.909    0.000    2.182    0.000    0.000 
#    0.000    0.000    0.000    0.000    0.000    0.000 
#
# Total GULP energy -545240.899770 kJ/mol
# GULP energy per Si atom -12391.838631 kJ/mol
# Density = 1.786576 g / cm^3
# Si number density = 17.906515 Si / 1000 Ang^3
#
#
#
# Elastic Constant Matrix: (Units=GPa)
#
#
# Indices 1 2 3 4 5 6 
#
# 1 154.0676 76.1013 41.2757 0.0000 0.0000 0.0000
# 2 76.1013 110.1771 33.0561 0.0000 0.0000 0.0000
# 3 41.2757 33.0561 35.2459 0.0000 0.0000 0.0000
# 4 0.0000 0.0000 0.0000 33.8891 0.0000 0.0000
# 5 0.0000 0.0000 0.0000 0.0000 23.5749 0.0000
# 6 0.0000 0.0000 0.0000 0.0000 0.0000 19.6809
#
#
#
# Elastic Compliance Matrix: (Units=1/GPa)
#
#
# Indices 1 2 3 4 5 6 
#
# 1 0.011354 -0.005362 -0.008268 0.000000 0.000000 0.000000
# 2 -0.005362 0.015162 -0.007941 0.000000 0.000000 0.000000
# 3 -0.008268 -0.007941 0.045502 0.000000 0.000000 0.000000
# 4 0.000000 0.000000 0.000000 0.029508 0.000000 0.000000
# 5 0.000000 0.000000 0.000000 0.000000 0.042418 0.000000
# 6 0.000000 0.000000 0.000000 0.000000 0.000000 0.050811
#
#
# Mechanical properties :
#
#
# Convention : Reuss Voigt Hill
#
# Bulk Modulus (GPa) = 34.62977 66.70632 50.66805
# Shear Modulus (GPa) = 20.20017 25.36616 22.78316
#
# Velocity S-wave (km/s) = 3.36235 3.76784 3.57086
# Velocity P-wave (km/s) = 5.86984 7.50082 6.73488
#
# Compressibility (1/GPa) = 0.02887689
#
# Stress axis : x y z
#
# Youngs Moduli (GPa) = 88.07315 65.95237 21.97704
#
# Poissons Ratio (x) = 0.35364 0.18170
# Poissons Ratio (y) = 0.47225 0.17452
# Poissons Ratio (z) = 0.72817 0.52374
#
# Static dielectric constant tensor:
#      x y z
#    x 3.635470 0.000000 0.000000 
#    y 0.000000 3.263470 0.000000 
#    z 0.000000 0.000000 3.253850 
# 
# 
# High freq. dielectric constant tensor:
#      x y z
#    x 1.695290 0.000000 0.000000 
#    y 0.000000 1.686230 0.000000 
#    z 0.000000 0.000000 1.691770 
# 
# From -- ./inp_files/14142.got.cif
#   From: 2010.03.12/outbox.cif.g09.slc.cpg/sg63_8_cif.got.tgz:14142.got - 2010.04.10 19:34:48.
