data_PCOD8257622
_publ_section_title
;
Structure prediction by ZEFSAII (Michael W. Deem and Ramdas Pophale) SiO2 
 PCOD8257622
Probable space group: C M C M
;
_chemical_formula_sum "Si O2"
_cell_formula_units_Z 72
_cell_length_a 16.794688
_cell_length_b 24.721389
_cell_length_c 9.291520
_cell_angle_alpha 90.000000
_cell_angle_beta 90.000000
_cell_angle_gamma 90.000000
_cell_volume 3857.727747
_symmetry_space_group_name_H-M "C M C M"
_symmetry_group_IT_number 63
_symmetry_cell_setting 'orthorhombic'
loop_
_space_group_symop_operation_xyz
x,y,z
-x,-y,1/2+z
x,-y,-z
-x,y,1/2-z
-x,-y,-z
x,y,1/2-z
-x,y,z
x,-y,1/2+z
1/2+x,1/2+y,z
1/2-x,1/2-y,1/2+z
1/2+x,1/2-y,-z
1/2-x,1/2+y,1/2-z
1/2-x,1/2-y,-z
1/2+x,1/2+y,1/2-z
1/2-x,1/2+y,z
1/2+x,1/2-y,1/2+z
loop_
_atom_site_type_symbol
_atom_site_label
_atom_site_fract_x
_atom_site_fract_y
_atom_site_fract_z
Si Si1 0.629746 0.642456 0.580288
Si Si2 0.408471 0.051659 0.917277
Si Si3 0.500000 0.557666 0.922258
Si Si4 0.588957 0.238436 0.417785
Si Si5 0.691569 0.846176 0.420623
O O1 0.631342 0.638189 0.750000
O O2 0.577558 0.591691 0.524382
O O3 0.590204 0.699001 0.533804
O O4 0.719963 0.641323 0.520989
O O5 0.395599 0.040971 0.750000
O O6 0.500000 0.061330 0.957516
O O7 0.361668 0.103797 0.970831
O O8 0.373725 0.000000 0.000000
O O9 0.500000 0.549410 0.750000
O O10 0.500000 0.500000 0.000000
O O11 0.610296 0.232711 0.250000
O O12 0.500000 0.216008 0.449772
O O13 0.655835 0.207210 0.507134
O O14 0.689922 0.837154 0.250000
#
# Coordination Sequence:
#
# PCOD8257622 Si02
#       5
#    16  16   8  16  16
#     4   9  18  35  56  75 103 142 177 213 265 324
#     4   9  18  32  48  67  96 131 165 203 252 306
#     4  10  20  38  60  80 106 144 187 228 269 320
#     4  10  19  33  54  78 105 141 179 211 256 323
#     4  10  20  33  52  79 106 135 173 220 271 315
#
# _framework density 18.663837000000001
#
# number of rings (size 3 to 8) (size 9 to 14) (size 15 to 20)
#    0.000    2.444    1.111    1.333    0.000    3.111 
#    0.000    4.444    0.000    0.000    0.000    0.000 
#    0.000    0.000    0.000    0.000    0.000    0.000 
#
# Total GULP energy -446330.839226 kJ/mol
# GULP energy per Si atom -12398.078867 kJ/mol
# Density = 1.862136 g / cm^3
# Si number density = 18.663837 Si / 1000 Ang^3
#
#
#
# Elastic Constant Matrix: (Units=GPa)
#
#
# Indices 1 2 3 4 5 6 
#
# 1 130.7316 75.8268 33.5479 0.0000 0.0000 0.0000
# 2 75.8268 134.8662 38.5912 0.0000 0.0000 0.0000
# 3 33.5479 38.5912 31.3643 0.0000 0.0000 0.0000
# 4 0.0000 0.0000 0.0000 33.2469 0.0000 0.0000
# 5 0.0000 0.0000 0.0000 0.0000 17.2949 0.0000
# 6 0.0000 0.0000 0.0000 0.0000 0.0000 17.0341
#
#
#
# Elastic Compliance Matrix: (Units=1/GPa)
#
#
# Indices 1 2 3 4 5 6 
#
# 1 0.012317 -0.004870 -0.007183 0.000000 0.000000 0.000000
# 2 -0.004870 0.013369 -0.011241 0.000000 0.000000 0.000000
# 3 -0.007183 -0.011241 0.053397 0.000000 0.000000 0.000000
# 4 0.000000 0.000000 0.000000 0.030078 0.000000 0.000000
# 5 0.000000 0.000000 0.000000 0.000000 0.057820 0.000000
# 6 0.000000 0.000000 0.000000 0.000000 0.000000 0.058706
#
#
# Mechanical properties :
#
#
# Convention : Reuss Voigt Hill
#
# Bulk Modulus (GPa) = 30.77236 65.87710 48.32473
# Shear Modulus (GPa) = 17.66119 23.44827 20.55473
#
# Velocity S-wave (km/s) = 3.07950 3.54835 3.32220
# Velocity P-wave (km/s) = 5.40073 7.22225 6.37687
#
# Compressibility (1/GPa) = 0.03249669
#
# Stress axis : x y z
#
# Youngs Moduli (GPa) = 81.18837 74.79830 18.72756
#
# Poissons Ratio (x) = 0.36425 0.13451
# Poissons Ratio (y) = 0.39537 0.21052
# Poissons Ratio (z) = 0.58315 0.84080
#
# Static dielectric constant tensor:
#      x y z
#    x 3.747820 0.000000 0.000000 
#    y 0.000000 3.515640 0.000000 
#    z 0.000000 0.000000 3.077640 
# 
# 
# High freq. dielectric constant tensor:
#      x y z
#    x 1.736550 0.000000 0.000000 
#    y 0.000000 1.729670 0.000000 
#    z 0.000000 0.000000 1.688530 
# 
# From -- ./inp_files/4623.got.cif
#   From: 2010.03.12/outbox.cif.g09.slc.cpg/sg63_3_cif.got.tgz:4623.got - 2010.04.10 19:34:48.
