data_PCOD8257457
_publ_section_title
;
Structure prediction by ZEFSAII (Michael W. Deem and Ramdas Pophale) SiO2 
 PCOD8257457
Probable space group: C M C M
;
_chemical_formula_sum "Si O2"
_cell_formula_units_Z 80
_cell_length_a 18.841032
_cell_length_b 13.583036
_cell_length_c 17.168661
_cell_angle_alpha 90.000000
_cell_angle_beta 90.000000
_cell_angle_gamma 90.000000
_cell_volume 4393.776527
_symmetry_space_group_name_H-M "C M C M"
_symmetry_group_IT_number 63
_symmetry_cell_setting 'orthorhombic'
loop_
_space_group_symop_operation_xyz
x,y,z
-x,-y,1/2+z
x,-y,-z
-x,y,1/2-z
-x,-y,-z
x,y,1/2-z
-x,y,z
x,-y,1/2+z
1/2+x,1/2+y,z
1/2-x,1/2-y,1/2+z
1/2+x,1/2-y,-z
1/2-x,1/2+y,1/2-z
1/2-x,1/2-y,-z
1/2+x,1/2+y,1/2-z
1/2-x,1/2+y,z
1/2+x,1/2-y,1/2+z
loop_
_atom_site_type_symbol
_atom_site_label
_atom_site_fract_x
_atom_site_fract_y
_atom_site_fract_z
Si Si1 0.188309 0.889821 0.419006
Si Si2 0.203691 0.304010 0.664731
Si Si3 0.650331 0.407995 0.837404
Si Si4 0.836025 0.609198 0.492556
Si Si5 0.081589 0.204530 0.465809
O O1 0.199952 0.812553 0.349938
O O2 0.255387 0.888529 0.476912
O O3 0.119425 0.860929 0.468496
O O4 0.177139 0.995294 0.381492
O O5 0.170223 0.326935 0.750000
O O6 0.285631 0.331794 0.664615
O O7 0.161150 0.363280 0.598793
O O8 0.624012 0.433685 0.750000
O O9 0.587463 0.353302 0.883841
O O10 0.868701 0.500000 0.500000
O O11 0.883337 0.686967 0.540315
O O12 0.000000 0.216446 0.488905
#
# Coordination Sequence:
#
# PCOD8257457 Si02
#       5
#    16  16  16  16  16
#     4  11  19  37  58  84 108 145 188 237 278 328
#     4  10  19  32  54  85 114 138 177 232 289 332
#     4  11  21  34  56  85 115 144 181 230 288 335
#     4  11  19  37  60  82 109 143 188 244 280 321
#     4  11  23  38  56  79 114 155 189 224 279 343
#
# _framework density 18.207571000000002
#
# number of rings (size 3 to 8) (size 9 to 14) (size 15 to 20)
#    0.000    1.200    6.000    2.400    0.000    2.400 
#    0.000    1.000    0.000   14.400    0.000    0.000 
#    0.000    0.000    0.000    0.000    0.000    0.000 
#
# Total GULP energy -495976.955600 kJ/mol
# GULP energy per Si atom -12399.423890 kJ/mol
# Density = 1.816613 g / cm^3
# Si number density = 18.207571 Si / 1000 Ang^3
#
#
#
# Elastic Constant Matrix: (Units=GPa)
#
#
# Indices 1 2 3 4 5 6 
#
# 1 95.4568 46.8162 38.0338 0.0000 0.0000 0.0000
# 2 46.8162 121.0643 64.4827 0.0000 0.0000 0.0000
# 3 38.0338 64.4827 127.3965 0.0000 0.0000 0.0000
# 4 0.0000 0.0000 0.0000 25.0741 0.0000 0.0000
# 5 0.0000 0.0000 0.0000 0.0000 14.9282 0.0000
# 6 0.0000 0.0000 0.0000 0.0000 0.0000 9.8719
#
#
#
# Elastic Compliance Matrix: (Units=1/GPa)
#
#
# Indices 1 2 3 4 5 6 
#
# 1 0.013243 -0.004128 -0.001864 0.000000 0.000000 0.000000
# 2 -0.004128 0.012596 -0.005143 0.000000 0.000000 0.000000
# 3 -0.001864 -0.005143 0.011009 0.000000 0.000000 0.000000
# 4 0.000000 0.000000 0.000000 0.039882 0.000000 0.000000
# 5 0.000000 0.000000 0.000000 0.000000 0.066987 0.000000
# 6 0.000000 0.000000 0.000000 0.000000 0.000000 0.101298
#
#
# Mechanical properties :
#
#
# Convention : Reuss Voigt Hill
#
# Bulk Modulus (GPa) = 68.59914 71.39810 69.99862
# Shear Modulus (GPa) = 18.37253 22.94718 20.65986
#
# Velocity S-wave (km/s) = 3.18002 3.55394 3.37216
# Velocity P-wave (km/s) = 7.15830 7.49261 7.32736
#
# Compressibility (1/GPa) = 0.01457744
#
# Stress axis : x y z
#
# Youngs Moduli (GPa) = 75.50907 79.39127 90.83312
#
# Poissons Ratio (x) = 0.32776 0.16933
# Poissons Ratio (y) = 0.31173 0.46715
# Poissons Ratio (z) = 0.14076 0.40831
#
# Static dielectric constant tensor:
#      x y z
#    x 2.958430 0.000000 0.000000 
#    y 0.000000 3.631020 0.000000 
#    z 0.000000 0.000000 3.660920 
# 
# 
# High freq. dielectric constant tensor:
#      x y z
#    x 1.663170 0.000000 0.000000 
#    y 0.000000 1.722840 0.000000 
#    z 0.000000 0.000000 1.712420 
# 
# From -- ./inp_files/35108.got.cif
#   From: 2010.03.12/outbox.cif.g09.slc.cpg/sg63_18_cif.got.tgz:35108.got - 2010.04.10 19:34:48.
