data_PCOD8257523
_publ_section_title
;
Structure prediction by ZEFSAII (Michael W. Deem and Ramdas Pophale) SiO2 
 PCOD8257523
Probable space group: C M C M
;
_chemical_formula_sum "Si O2"
_cell_formula_units_Z 96
_cell_length_a 14.995041
_cell_length_b 19.056596
_cell_length_c 19.082794
_cell_angle_alpha 90.000000
_cell_angle_beta 90.000000
_cell_angle_gamma 90.000000
_cell_volume 5452.993081
_symmetry_space_group_name_H-M "C M C M"
_symmetry_group_IT_number 63
_symmetry_cell_setting 'orthorhombic'
loop_
_space_group_symop_operation_xyz
x,y,z
-x,-y,1/2+z
x,-y,-z
-x,y,1/2-z
-x,-y,-z
x,y,1/2-z
-x,y,z
x,-y,1/2+z
1/2+x,1/2+y,z
1/2-x,1/2-y,1/2+z
1/2+x,1/2-y,-z
1/2-x,1/2+y,1/2-z
1/2-x,1/2-y,-z
1/2+x,1/2+y,1/2-z
1/2-x,1/2+y,z
1/2+x,1/2-y,1/2+z
loop_
_atom_site_type_symbol
_atom_site_label
_atom_site_fract_x
_atom_site_fract_y
_atom_site_fract_z
Si Si1 0.747648 0.640238 0.329151
Si Si2 0.397874 0.680402 0.533638
Si Si3 0.102235 0.670989 0.534647
Si Si4 0.253254 0.578167 0.473517
Si Si5 0.398298 0.756281 0.171888
Si Si6 0.398679 0.748507 0.672334
O O1 0.744520 0.608393 0.250000
O O2 0.747471 0.579723 0.388302
O O3 0.662559 0.689244 0.342943
O O4 0.837217 0.684484 0.340499
O O5 0.500000 0.660544 0.517559
O O6 0.372957 0.755669 0.501561
O O7 0.337492 0.620694 0.501458
O O8 0.378889 0.686489 0.617080
O O9 0.162163 0.609318 0.504280
O O10 0.121952 0.680870 0.617657
O O11 0.000000 0.650043 0.520550
O O12 0.263685 0.500000 0.500000
O O13 0.380808 0.785956 0.250000
O O14 0.500000 0.730308 0.162082
O O15 0.382255 0.717177 0.750000
O O16 0.500000 0.775440 0.662535
#
# Coordination Sequence:
#
# PCOD8257523 Si02
#       6
#    16  16  16  16  16  16
#     4  10  19  33  52  74 103 137 174 213 257 313
#     4  10  19  34  57  80 103 134 175 222 265 306
#     4  10  19  34  57  80 103 134 175 222 265 306
#     4  12  24  36  51  77 112 146 176 213 259 314
#     4   9  17  30  53  83 106 128 168 222 270 306
#     4   9  17  30  53  83 106 128 168 222 270 306
#
# _framework density 17.60501
#
# number of rings (size 3 to 8) (size 9 to 14) (size 15 to 20)
#    0.000    2.000    3.333    1.500    0.000    0.667 
#    0.000    1.667    0.000    0.000    0.000    0.000 
#    0.000    0.000    0.000    0.000    0.000    0.000 
#
# Total GULP energy -595075.689295 kJ/mol
# GULP energy per Si atom -12397.410194 kJ/mol
# Density = 1.756494 g / cm^3
# Si number density = 17.605010 Si / 1000 Ang^3
#
#
#
# Elastic Constant Matrix: (Units=GPa)
#
#
# Indices 1 2 3 4 5 6 
#
# 1 68.0165 8.2650 24.0208 0.0000 0.0000 0.0000
# 2 8.2650 29.4759 21.6048 0.0000 0.0000 0.0000
# 3 24.0208 21.6048 132.1411 0.0000 0.0000 0.0000
# 4 0.0000 0.0000 0.0000 22.0929 0.0000 0.0000
# 5 0.0000 0.0000 0.0000 0.0000 25.7735 0.0000
# 6 0.0000 0.0000 0.0000 0.0000 0.0000 9.9114
#
#
#
# Elastic Compliance Matrix: (Units=1/GPa)
#
#
# Indices 1 2 3 4 5 6 
#
# 1 0.015892 -0.002657 -0.002454 0.000000 0.000000 0.000000
# 2 -0.002657 0.038989 -0.005892 0.000000 0.000000 0.000000
# 3 -0.002454 -0.005892 0.008977 0.000000 0.000000 0.000000
# 4 0.000000 0.000000 0.000000 0.045263 0.000000 0.000000
# 5 0.000000 0.000000 0.000000 0.000000 0.038800 0.000000
# 6 0.000000 0.000000 0.000000 0.000000 0.000000 0.100893
#
#
# Mechanical properties :
#
#
# Convention : Reuss Voigt Hill
#
# Bulk Modulus (GPa) = 23.89363 37.49053 30.69208
# Shear Modulus (GPa) = 17.55789 23.27175 20.41482
#
# Velocity S-wave (km/s) = 3.16147 3.63971 3.40899
# Velocity P-wave (km/s) = 5.18922 6.24540 5.74165
#
# Compressibility (1/GPa) = 0.04185215
#
# Stress axis : x y z
#
# Youngs Moduli (GPa) = 62.92466 25.64794 111.39434
#
# Poissons Ratio (x) = 0.06815 0.27341
# Poissons Ratio (y) = 0.16720 0.65630
# Poissons Ratio (z) = 0.15445 0.15111
#
# Static dielectric constant tensor:
#      x y z
#    x 3.468730 0.000000 0.000000 
#    y 0.000000 2.719790 0.000000 
#    z 0.000000 0.000000 3.846130 
# 
# 
# High freq. dielectric constant tensor:
#      x y z
#    x 1.702240 0.000000 0.000000 
#    y 0.000000 1.606710 0.000000 
#    z 0.000000 0.000000 1.711240 
# 
# From -- ./inp_files/54150.got.cif
#   From: 2010.03.12/outbox.cif.g09.slc.cpg/sg63_28_cif.got.tgz:54150.got - 2010.04.10 19:34:48.
