data_PCOD8257301
_publ_section_title
;
Structure prediction by ZEFSAII (Michael W. Deem and Ramdas Pophale) SiO2 
 PCOD8257301
Probable space group: C M C M
;
_chemical_formula_sum "Si O2"
_cell_formula_units_Z 104
_cell_length_a 20.363570
_cell_length_b 27.847861
_cell_length_c 9.393274
_cell_angle_alpha 90.000000
_cell_angle_beta 90.000000
_cell_angle_gamma 90.000000
_cell_volume 5326.755356
_symmetry_space_group_name_H-M "C M C M"
_symmetry_group_IT_number 63
_symmetry_cell_setting 'orthorhombic'
loop_
_space_group_symop_operation_xyz
x,y,z
-x,-y,1/2+z
x,-y,-z
-x,y,1/2-z
-x,-y,-z
x,y,1/2-z
-x,y,z
x,-y,1/2+z
1/2+x,1/2+y,z
1/2-x,1/2-y,1/2+z
1/2+x,1/2-y,-z
1/2-x,1/2+y,1/2-z
1/2-x,1/2-y,-z
1/2+x,1/2+y,1/2-z
1/2-x,1/2+y,z
1/2+x,1/2-y,1/2+z
loop_
_atom_site_type_symbol
_atom_site_label
_atom_site_fract_x
_atom_site_fract_y
_atom_site_fract_z
Si Si1 0.500000 0.816150 0.581463
Si Si2 0.500000 0.044315 0.595916
Si Si3 0.385520 0.349310 0.917836
Si Si4 0.134478 0.636150 0.411228
Si Si5 0.500000 0.705459 0.921360
Si Si6 0.423673 0.454698 0.913945
Si Si7 0.244974 0.796590 0.908321
Si Si8 0.356734 0.049837 0.584735
O O1 0.500000 0.815424 0.750000
O O2 0.564888 0.844322 0.526320
O O3 0.500000 0.761029 0.528539
O O4 0.500000 0.020626 0.750000
O O5 0.431580 0.071279 0.572631
O O6 0.500000 0.000000 0.500000
O O7 0.402586 0.343063 0.750000
O O8 0.387680 0.405645 0.958920
O O9 0.312680 0.332131 0.959751
O O10 0.435996 0.319507 0.013231
O O11 0.124296 0.616767 0.250000
O O12 0.183892 0.680062 0.413999
O O13 0.174025 0.594735 0.501454
O O14 0.500000 0.700038 0.750000
O O15 0.411816 0.466683 0.750000
O O16 0.500000 0.447638 0.949911
O O17 0.394089 0.500000 0.000000
O O18 0.227514 0.779823 0.750000
O O19 0.250000 0.750000 0.000000
O O20 0.334161 0.044288 0.750000
O O21 0.345443 0.000000 0.500000
#
# Coordination Sequence:
#
# PCOD8257301 Si02
#       8
#     8   8  16  16   8  16  16  16
#     4   9  19  34  53  77 110 143 178 232 291 333
#     4   8  15  26  42  67  98 128 165 208 255 308
#     4  10  20  37  57  81 114 153 187 227 285 346
#     4  10  20  36  55  78 107 144 184 227 280 335
#     4  11  21  34  57  88 114 141 183 236 280 329
#     4   9  17  31  52  78 111 146 182 224 274 337
#     4  10  22  39  60  81 110 150 192 235 285 343
#     4  10  19  32  51  76 104 137 175 220 269 322
#
# _framework density 19.524079
#
# number of rings (size 3 to 8) (size 9 to 14) (size 15 to 20)
#    0.000    2.308    0.769    2.077    0.000    3.692 
#    0.000    4.615    0.000    1.846    0.000    0.000 
#    0.000    0.000    0.000    0.000    0.000    0.000 
#
# Total GULP energy -644205.887228 kJ/mol
# GULP energy per Si atom -12388.574754 kJ/mol
# Density = 1.947964 g / cm^3
# Si number density = 19.524079 Si / 1000 Ang^3
#
#
#
# Elastic Constant Matrix: (Units=GPa)
#
#
# Indices 1 2 3 4 5 6 
#
# 1 81.7185 39.8361 25.3640 0.0000 0.0000 0.0000
# 2 39.8361 167.0807 71.8032 0.0000 0.0000 0.0000
# 3 25.3640 71.8032 82.3155 0.0000 0.0000 0.0000
# 4 0.0000 0.0000 0.0000 39.2306 0.0000 0.0000
# 5 0.0000 0.0000 0.0000 0.0000 15.8660 0.0000
# 6 0.0000 0.0000 0.0000 0.0000 0.0000 24.2854
#
#
#
# Elastic Compliance Matrix: (Units=1/GPa)
#
#
# Indices 1 2 3 4 5 6 
#
# 1 0.014104 -0.002392 -0.002260 0.000000 0.000000 0.000000
# 2 -0.002392 0.009980 -0.007968 0.000000 0.000000 0.000000
# 3 -0.002260 -0.007968 0.019795 0.000000 0.000000 0.000000
# 4 0.000000 0.000000 0.000000 0.025490 0.000000 0.000000
# 5 0.000000 0.000000 0.000000 0.000000 0.063028 0.000000
# 6 0.000000 0.000000 0.000000 0.000000 0.000000 0.041177
#
#
# Mechanical properties :
#
#
# Convention : Reuss Voigt Hill
#
# Bulk Modulus (GPa) = 53.64801 67.23571 60.44186
# Shear Modulus (GPa) = 24.38697 28.81716 26.60207
#
# Velocity S-wave (km/s) = 3.53805 3.84602 3.69525
# Velocity P-wave (km/s) = 6.65041 7.36441 7.01650
#
# Compressibility (1/GPa) = 0.01864002
#
# Stress axis : x y z
#
# Youngs Moduli (GPa) = 70.89975 100.20275 50.51681
#
# Poissons Ratio (x) = 0.23965 0.11416
# Poissons Ratio (y) = 0.16957 0.40253
# Poissons Ratio (z) = 0.16022 0.79845
#
# Static dielectric constant tensor:
#      x y z
#    x 3.792980 0.000000 0.000000 
#    y 0.000000 3.587710 0.000000 
#    z 0.000000 0.000000 3.615080 
# 
# 
# High freq. dielectric constant tensor:
#      x y z
#    x 1.744410 0.000000 0.000000 
#    y 0.000000 1.768220 0.000000 
#    z 0.000000 0.000000 1.753470 
# 
# From -- ./inp_files/9220.got.cif
#   From: 2010.03.12/outbox.cif.g09.slc.cpg/sg63_5_cif.got.tgz:9220.got - 2010.04.10 19:34:48.
