data_PCOD8257080
_publ_section_title
;
Structure prediction by ZEFSAII (Michael W. Deem and Ramdas Pophale) SiO2 
 PCOD8257080
Probable space group: C M C M
;
_chemical_formula_sum "Si O2"
_cell_formula_units_Z 72
_cell_length_a 16.383741
_cell_length_b 27.363821
_cell_length_c 8.666939
_cell_angle_alpha 90.000000
_cell_angle_beta 90.000000
_cell_angle_gamma 90.000000
_cell_volume 3885.577312
_symmetry_space_group_name_H-M "C M C M"
_symmetry_group_IT_number 63
_symmetry_cell_setting 'orthorhombic'
loop_
_space_group_symop_operation_xyz
x,y,z
-x,-y,1/2+z
x,-y,-z
-x,y,1/2-z
-x,-y,-z
x,y,1/2-z
-x,y,z
x,-y,1/2+z
1/2+x,1/2+y,z
1/2-x,1/2-y,1/2+z
1/2+x,1/2-y,-z
1/2-x,1/2+y,1/2-z
1/2-x,1/2-y,-z
1/2+x,1/2+y,1/2-z
1/2-x,1/2+y,z
1/2+x,1/2-y,1/2+z
loop_
_atom_site_type_symbol
_atom_site_label
_atom_site_fract_x
_atom_site_fract_y
_atom_site_fract_z
Si Si1 0.500000 0.445427 0.067528
Si Si2 0.664049 0.391639 0.431833
Si Si3 0.810622 0.550619 0.071336
Si Si4 0.254166 0.803648 0.566271
Si Si5 0.411457 0.857724 0.928727
O O1 0.500000 0.451450 0.250000
O O2 0.421753 0.414220 0.011399
O O3 0.500000 0.500000 0.000000
O O4 0.664498 0.383859 0.250000
O O5 0.732469 0.430151 0.479963
O O6 0.680500 0.338526 0.508884
O O7 0.786079 0.545864 0.250000
O O8 0.887857 0.585840 0.048499
O O9 0.839081 0.500000 0.000000
O O10 0.251714 0.803245 0.750000
O O11 0.250000 0.750000 0.500000
O O12 0.340002 0.824410 0.499976
O O13 0.418368 0.844799 0.750000
O O14 0.500000 0.848058 0.008014
#
# Coordination Sequence:
#
# PCOD8257080 Si02
#       5
#     8  16  16  16  16
#     4  10  22  36  54  80 110 146 184 226 275 326
#     4  10  20  36  55  77 106 139 181 225 268 320
#     4  10  19  31  50  76 105 139 176 212 258 311
#     4  10  20  36  58  80 105 138 175 218 269 320
#     4   8  16  32  52  74 100 132 171 212 254 303
#
# _framework density 18.530063999999999
#
# number of rings (size 3 to 8) (size 9 to 14) (size 15 to 20)
#    0.000    2.444    0.000    4.000    0.000    4.000 
#    2.000    0.000    0.000   22.667    0.000    0.000 
#    0.000    0.000    0.000    0.000    0.000    0.000 
#
# Total GULP energy -446247.324072 kJ/mol
# GULP energy per Si atom -12395.759002 kJ/mol
# Density = 1.848789 g / cm^3
# Si number density = 18.530064 Si / 1000 Ang^3
#
#
#
# Elastic Constant Matrix: (Units=GPa)
#
#
# Indices 1 2 3 4 5 6 
#
# 1 136.2725 65.1154 30.2448 0.0000 0.0000 0.0000
# 2 65.1154 162.9149 39.5173 0.0000 0.0000 0.0000
# 3 30.2448 39.5173 57.5760 0.0000 0.0000 0.0000
# 4 0.0000 0.0000 0.0000 35.9285 0.0000 0.0000
# 5 0.0000 0.0000 0.0000 0.0000 20.4611 0.0000
# 6 0.0000 0.0000 0.0000 0.0000 0.0000 29.4245
#
#
#
# Elastic Compliance Matrix: (Units=1/GPa)
#
#
# Indices 1 2 3 4 5 6 
#
# 1 0.009443 -0.003085 -0.002843 0.000000 0.000000 0.000000
# 2 -0.003085 0.008372 -0.004126 0.000000 0.000000 0.000000
# 3 -0.002843 -0.004126 0.021694 0.000000 0.000000 0.000000
# 4 0.000000 0.000000 0.000000 0.027833 0.000000 0.000000
# 5 0.000000 0.000000 0.000000 0.000000 0.048873 0.000000
# 6 0.000000 0.000000 0.000000 0.000000 0.000000 0.033985
#
#
# Mechanical properties :
#
#
# Convention : Reuss Voigt Hill
#
# Bulk Modulus (GPa) = 51.54288 69.61314 60.57801
# Shear Modulus (GPa) = 28.28456 31.95520 30.11988
#
# Velocity S-wave (km/s) = 3.91117 4.15722 4.03607
# Velocity P-wave (km/s) = 6.94785 7.79054 7.38123
#
# Compressibility (1/GPa) = 0.01940132
#
# Stress axis : x y z
#
# Youngs Moduli (GPa) = 105.89555 119.44852 46.09650
#
# Poissons Ratio (x) = 0.36846 0.13107
# Poissons Ratio (y) = 0.32665 0.19018
# Poissons Ratio (z) = 0.30110 0.49280
#
# Static dielectric constant tensor:
#      x y z
#    x 3.726000 0.000000 0.000000 
#    y 0.000000 3.379590 0.000000 
#    z 0.000000 0.000000 3.293030 
# 
# 
# High freq. dielectric constant tensor:
#      x y z
#    x 1.719650 0.000000 0.000000 
#    y 0.000000 1.721820 0.000000 
#    z 0.000000 0.000000 1.708200 
# 
# From -- ./inp_files/4596.got.cif
#   From: 2010.03.12/outbox.cif.g09.slc.cpg/sg63_3_cif.got.tgz:4596.got - 2010.04.10 19:34:48.
