data_PCOD8257690
_publ_section_title
;
Structure prediction by ZEFSAII (Michael W. Deem and Ramdas Pophale) SiO2 
 PCOD8257690
Probable space group: C M C M
;
_chemical_formula_sum "Si O2"
_cell_formula_units_Z 80
_cell_length_a 24.773636
_cell_length_b 10.431477
_cell_length_c 16.784016
_cell_angle_alpha 90.000000
_cell_angle_beta 90.000000
_cell_angle_gamma 90.000000
_cell_volume 4337.419643
_symmetry_space_group_name_H-M "C M C M"
_symmetry_group_IT_number 63
_symmetry_cell_setting 'orthorhombic'
loop_
_space_group_symop_operation_xyz
x,y,z
-x,-y,1/2+z
x,-y,-z
-x,y,1/2-z
-x,-y,-z
x,y,1/2-z
-x,y,z
x,-y,1/2+z
1/2+x,1/2+y,z
1/2-x,1/2-y,1/2+z
1/2+x,1/2-y,-z
1/2-x,1/2+y,1/2-z
1/2-x,1/2-y,-z
1/2+x,1/2+y,1/2-z
1/2-x,1/2+y,z
1/2+x,1/2-y,1/2+z
loop_
_atom_site_type_symbol
_atom_site_label
_atom_site_fract_x
_atom_site_fract_y
_atom_site_fract_z
Si Si1 0.719859 0.539628 0.661411
Si Si2 0.797776 0.758241 0.653665
Si Si3 0.500000 0.276768 0.336186
Si Si4 0.100468 0.197085 0.445387
Si Si5 0.500000 0.849989 0.003210
Si Si6 0.897060 0.080394 0.887510
O O1 0.742334 0.530873 0.750000
O O2 0.757300 0.648278 0.620873
O O3 0.725239 0.397056 0.623612
O O4 0.657414 0.580880 0.663756
O O5 0.806185 0.758990 0.750000
O O6 0.853831 0.734123 0.607764
O O7 0.500000 0.205241 0.250000
O O8 0.500000 0.182695 0.410081
O O9 0.553940 0.361436 0.338226
O O10 0.051145 0.295717 0.449340
O O11 0.118988 0.163111 0.534771
O O12 0.082842 0.063240 0.406041
O O13 0.500000 0.000000 0.000000
#
# Coordination Sequence:
#
# PCOD8257690 Si02
#       6
#    16  16   8  16   8  16
#     4   9  17  31  49  73 105 137 170 214 266 312
#     4   9  18  33  51  74 103 136 174 218 263 315
#     4  10  19  33  55  83 104 130 173 220 270 315
#     4   9  18  34  53  74 101 135 174 212 264 314
#     4  10  21  39  55  73 111 146 173 216 265 320
#     4   9  17  31  55  78 101 130 170 221 262 314
#
# _framework density 18.444144999999999
#
# number of rings (size 3 to 8) (size 9 to 14) (size 15 to 20)
#    0.000    2.800    0.000    1.200    0.000    4.000 
#    7.200    1.500    0.000    0.000    0.000    0.000 
#    0.000    0.000    0.000    0.000    0.000    0.000 
#
# Total GULP energy -495606.077144 kJ/mol
# GULP energy per Si atom -12390.151929 kJ/mol
# Density = 1.840216 g / cm^3
# Si number density = 18.444145 Si / 1000 Ang^3
#
#
#
# Elastic Constant Matrix: (Units=GPa)
#
#
# Indices 1 2 3 4 5 6 
#
# 1 126.4424 87.6270 40.3308 0.0000 0.0000 0.0000
# 2 87.6270 125.8735 31.1604 0.0000 0.0000 0.0000
# 3 40.3308 31.1604 62.9303 0.0000 0.0000 0.0000
# 4 0.0000 0.0000 0.0000 12.8369 0.0000 0.0000
# 5 0.0000 0.0000 0.0000 0.0000 28.8020 0.0000
# 6 0.0000 0.0000 0.0000 0.0000 0.0000 32.3998
#
#
#
# Elastic Compliance Matrix: (Units=1/GPa)
#
#
# Indices 1 2 3 4 5 6 
#
# 1 0.016906 -0.010357 -0.005707 0.000000 0.000000 0.000000
# 2 -0.010357 0.015399 -0.000987 0.000000 0.000000 0.000000
# 3 -0.005707 -0.000987 0.020037 0.000000 0.000000 0.000000
# 4 0.000000 0.000000 0.000000 0.077900 0.000000 0.000000
# 5 0.000000 0.000000 0.000000 0.000000 0.034720 0.000000
# 6 0.000000 0.000000 0.000000 0.000000 0.000000 0.030864
#
#
# Mechanical properties :
#
#
# Convention : Reuss Voigt Hill
#
# Bulk Modulus (GPa) = 54.82374 70.38696 62.60535
# Shear Modulus (GPa) = 21.18571 25.21628 23.20099
#
# Velocity S-wave (km/s) = 3.39284 3.70154 3.55054
# Velocity P-wave (km/s) = 6.71842 7.51755 7.12919
#
# Compressibility (1/GPa) = 0.01824027
#
# Stress axis : x y z
#
# Youngs Moduli (GPa) = 59.14924 64.94048 49.90791
#
# Poissons Ratio (x) = 0.67257 0.28481
# Poissons Ratio (y) = 0.61259 0.04928
# Poissons Ratio (z) = 0.33755 0.06412
#
# Static dielectric constant tensor:
#      x y z
#    x 3.369940 0.000000 0.000000 
#    y 0.000000 3.386190 0.000000 
#    z 0.000000 0.000000 3.338740 
# 
# 
# High freq. dielectric constant tensor:
#      x y z
#    x 1.712470 0.000000 0.000000 
#    y 0.000000 1.703690 0.000000 
#    z 0.000000 0.000000 1.707220 
# 
# From -- ./inp_files/48853.got.cif
#   From: 2010.03.12/outbox.cif.g09.slc.cpg/sg63_25_cif.got.tgz:48853.got - 2010.04.10 19:34:48.
