data_PCOD8257336
_publ_section_title
;
Structure prediction by ZEFSAII (Michael W. Deem and Ramdas Pophale) SiO2 
 PCOD8257336
Probable space group: C M C M
;
_chemical_formula_sum "Si O2"
_cell_formula_units_Z 80
_cell_length_a 9.005803
_cell_length_b 18.293475
_cell_length_c 26.000126
_cell_angle_alpha 90.000000
_cell_angle_beta 90.000000
_cell_angle_gamma 90.000000
_cell_volume 4283.453991
_symmetry_space_group_name_H-M "C M C M"
_symmetry_group_IT_number 63
_symmetry_cell_setting 'orthorhombic'
loop_
_space_group_symop_operation_xyz
x,y,z
-x,-y,1/2+z
x,-y,-z
-x,y,1/2-z
-x,-y,-z
x,y,1/2-z
-x,y,z
x,-y,1/2+z
1/2+x,1/2+y,z
1/2-x,1/2-y,1/2+z
1/2+x,1/2-y,-z
1/2-x,1/2+y,1/2-z
1/2-x,1/2-y,-z
1/2+x,1/2+y,1/2-z
1/2-x,1/2+y,z
1/2+x,1/2-y,1/2+z
loop_
_atom_site_type_symbol
_atom_site_label
_atom_site_fract_x
_atom_site_fract_y
_atom_site_fract_z
Si Si1 0.323806 0.408416 0.250000
Si Si2 0.327234 0.339792 0.849193
Si Si3 0.324217 0.575771 0.250000
Si Si4 0.826920 0.668863 0.654901
Si Si5 0.333034 0.839013 0.548359
Si Si6 0.832477 0.165046 0.948125
O O1 0.500000 0.400534 0.250000
O O2 0.272383 0.492376 0.250000
O O3 0.259546 0.371050 0.199765
O O4 0.500000 0.355438 0.858364
O O5 0.261831 0.384309 0.800821
O O6 0.298388 0.254768 0.838647
O O7 0.242284 0.368211 0.899635
O O8 0.500000 0.584072 0.250000
O O9 0.762654 0.639693 0.600957
O O10 0.000000 0.649696 0.657793
O O11 0.500000 0.869521 0.545211
O O12 0.242009 0.868675 0.499249
O O13 0.332535 0.751921 0.548146
O O14 0.000000 0.134965 0.943181
#
# Coordination Sequence:
#
# PCOD8257336 Si02
#       6
#     8  16   8  16  16  16
#     4  11  22  35  51  71  98 131 166 204 246 295
#     4   9  17  32  53  74  97 129 168 205 242 288
#     4   9  19  35  53  71  94 129 170 206 242 291
#     4  10  19  32  52  76 101 129 163 205 248 289
#     4   9  16  26  43  72 105 131 158 197 245 291
#     4   9  16  27  45  71 102 133 163 196 238 290
#
# _framework density 18.676517
#
# number of rings (size 3 to 8) (size 9 to 14) (size 15 to 20)
#    0.000    2.600    0.000    2.700    0.000    7.200 
#    0.000    2.500    0.000    1.200    0.000    8.400 
#    0.000    0.000    0.000    0.000    0.000    0.000 
#
# Total GULP energy -496023.048522 kJ/mol
# GULP energy per Si atom -12400.576213 kJ/mol
# Density = 1.863401 g / cm^3
# Si number density = 18.676517 Si / 1000 Ang^3
#
#
#
# Elastic Constant Matrix: (Units=GPa)
#
#
# Indices 1 2 3 4 5 6 
#
# 1 119.6828 38.6591 79.8464 0.0000 0.0000 0.0000
# 2 38.6591 41.9168 51.6314 0.0000 0.0000 0.0000
# 3 79.8464 51.6314 196.2895 0.0000 0.0000 0.0000
# 4 0.0000 0.0000 0.0000 -6.8308 0.0000 0.0000
# 5 0.0000 0.0000 0.0000 0.0000 39.1599 0.0000
# 6 0.0000 0.0000 0.0000 0.0000 0.0000 14.1686
#
#
#
# Elastic Compliance Matrix: (Units=1/GPa)
#
#
# Indices 1 2 3 4 5 6 
#
# 1 0.013123 -0.008177 -0.003187 0.000000 0.000000 0.000000
# 2 -0.008177 0.040386 -0.007297 0.000000 0.000000 0.000000
# 3 -0.003187 -0.007297 0.008310 0.000000 0.000000 0.000000
# 4 0.000000 0.000000 0.000000 -0.146396 0.000000 0.000000
# 5 0.000000 0.000000 0.000000 0.000000 0.025536 0.000000
# 6 0.000000 0.000000 0.000000 0.000000 0.000000 0.070579
#
#
# Mechanical properties :
#
#
# Convention : Reuss Voigt Hill
#
# Bulk Modulus (GPa) = 40.82096 77.57364 59.19730
# Shear Modulus (GPa) = 87.67705 21.81635 54.74670
#
# Velocity S-wave (km/s) = 6.85908 3.42148 5.42003
# Velocity P-wave (km/s) = 9.19965 7.56533 8.42223
#
# Compressibility (1/GPa) = 0.02449722
#
# Stress axis : x y z
#
# Youngs Moduli (GPa) = 76.20082 24.76081 120.33171
#
# Poissons Ratio (x) = 0.20248 0.38353
# Poissons Ratio (y) = 0.62312 0.87803
# Poissons Ratio (z) = 0.24288 0.18067
#
# Static dielectric constant tensor:
#      x y z
#    x 3.496000 0.000000 0.000000 
#    y 0.000000 2.992310 0.000000 
#    z 0.000000 0.000000 3.762570 
# 
# 
# High freq. dielectric constant tensor:
#      x y z
#    x 1.727600 0.000000 0.000000 
#    y 0.000000 1.669870 0.000000 
#    z 0.000000 0.000000 1.746880 
# 
# From -- ./inp_files/59516.got.cif
#   From: 2010.03.12/outbox.cif.g09.slc.cpg/sg63_30_cif.got.tgz:59516.got - 2010.04.10 19:34:48.
