data_PCOD8257123
_publ_section_title
;
Structure prediction by ZEFSAII (Michael W. Deem and Ramdas Pophale) SiO2 
 PCOD8257123
Probable space group: C M C M
;
_chemical_formula_sum "Si O2"
_cell_formula_units_Z 96
_cell_length_a 9.158344
_cell_length_b 29.788131
_cell_length_c 18.778239
_cell_angle_alpha 90.000000
_cell_angle_beta 90.000000
_cell_angle_gamma 90.000000
_cell_volume 5122.890458
_symmetry_space_group_name_H-M "C M C M"
_symmetry_group_IT_number 63
_symmetry_cell_setting 'orthorhombic'
loop_
_space_group_symop_operation_xyz
x,y,z
-x,-y,1/2+z
x,-y,-z
-x,y,1/2-z
-x,-y,-z
x,y,1/2-z
-x,y,z
x,-y,1/2+z
1/2+x,1/2+y,z
1/2-x,1/2-y,1/2+z
1/2+x,1/2-y,-z
1/2-x,1/2+y,1/2-z
1/2-x,1/2-y,-z
1/2+x,1/2+y,1/2-z
1/2-x,1/2+y,z
1/2+x,1/2-y,1/2+z
loop_
_atom_site_type_symbol
_atom_site_label
_atom_site_fract_x
_atom_site_fract_y
_atom_site_fract_z
Si Si1 0.670163 0.683532 0.578860
Si Si2 0.828150 0.158639 0.420767
Si Si3 0.669773 0.971505 0.407216
Si Si4 0.170765 0.269503 0.667406
Si Si5 0.327002 0.933631 0.555955
Si Si6 0.828924 0.387154 0.328438
O O1 0.500000 0.677145 0.592406
O O2 0.708652 0.684026 0.495147
O O3 0.725738 0.728351 0.618208
O O4 0.748937 0.641079 0.612217
O O5 0.759884 0.186887 0.356296
O O6 0.759426 0.109417 0.416680
O O7 0.000000 0.154518 0.409275
O O8 0.500000 0.975511 0.422718
O O9 0.730888 0.946256 0.477182
O O10 0.706234 0.940156 0.339660
O O11 0.721989 0.022989 0.395968
O O12 0.204905 0.258703 0.750000
O O13 0.000000 0.278714 0.655536
O O14 0.500000 0.923153 0.559791
O O15 0.773244 0.373813 0.250000
O O16 0.000000 0.378154 0.336632
#
# Coordination Sequence:
#
# PCOD8257123 Si02
#       6
#    16  16  16  16  16  16
#     4  10  21  37  56  80 109 142 179 218 266 327
#     4  11  22  35  55  85 113 139 175 224 276 321
#     4   8  15  29  50  76 104 139 182 223 261 307
#     4  10  22  40  59  77 102 142 186 223 265 322
#     4   9  16  31  55  76 102 142 183 222 261 307
#     4  10  19  31  51  80 111 141 177 225 277 322
#
# _framework density 18.739421
#
# number of rings (size 3 to 8) (size 9 to 14) (size 15 to 20)
#    0.000    2.333    1.667    2.500    0.000    2.667 
#    0.000    3.333    0.000    3.000    0.000    0.000 
#    0.000    0.000    0.000    0.000    0.000    0.000 
#
# Total GULP energy -594963.445343 kJ/mol
# GULP energy per Si atom -12395.071778 kJ/mol
# Density = 1.869677 g / cm^3
# Si number density = 18.739421 Si / 1000 Ang^3
#
#
#
# Elastic Constant Matrix: (Units=GPa)
#
#
# Indices 1 2 3 4 5 6 
#
# 1 43.0945 38.1524 24.8202 0.0000 0.0000 0.0000
# 2 38.1524 127.5763 30.4715 0.0000 0.0000 0.0000
# 3 24.8202 30.4715 57.9645 0.0000 0.0000 0.0000
# 4 0.0000 0.0000 0.0000 21.6845 0.0000 0.0000
# 5 0.0000 0.0000 0.0000 0.0000 21.3863 0.0000
# 6 0.0000 0.0000 0.0000 0.0000 0.0000 26.8715
#
#
#
# Elastic Compliance Matrix: (Units=1/GPa)
#
#
# Indices 1 2 3 4 5 6 
#
# 1 0.037290 -0.008392 -0.011556 0.000000 0.000000 0.000000
# 2 -0.008392 0.010852 -0.002112 0.000000 0.000000 0.000000
# 3 -0.011556 -0.002112 0.023310 0.000000 0.000000 0.000000
# 4 0.000000 0.000000 0.000000 0.046116 0.000000 0.000000
# 5 0.000000 0.000000 0.000000 0.000000 0.046759 0.000000
# 6 0.000000 0.000000 0.000000 0.000000 0.000000 0.037214
#
#
# Mechanical properties :
#
#
# Convention : Reuss Voigt Hill
#
# Bulk Modulus (GPa) = 36.58475 46.16928 41.37702
# Shear Modulus (GPa) = 19.62546 23.00121 21.31333
#
# Velocity S-wave (km/s) = 3.23968 3.50726 3.37612
# Velocity P-wave (km/s) = 5.79304 6.41032 6.10948
#
# Compressibility (1/GPa) = 0.02733379
#
# Stress axis : x y z
#
# Youngs Moduli (GPa) = 26.81710 92.14564 42.89951
#
# Poissons Ratio (x) = 0.77325 0.49574
# Poissons Ratio (y) = 0.22504 0.09059
# Poissons Ratio (z) = 0.30990 0.19459
#
# Static dielectric constant tensor:
#      x y z
#    x 3.167780 0.000000 0.000000 
#    y 0.000000 3.594770 0.000000 
#    z 0.000000 0.000000 3.359270 
# 
# 
# High freq. dielectric constant tensor:
#      x y z
#    x 1.701840 0.000000 0.000000 
#    y 0.000000 1.740430 0.000000 
#    z 0.000000 0.000000 1.713770 
# 
# From -- ./inp_files/51297.got.cif
#   From: 2010.03.12/outbox.cif.g09.slc.cpg/sg63_26_cif.got.tgz:51297.got - 2010.04.10 19:34:48.
