data_PCOD8257099
_publ_section_title
;
Structure prediction by ZEFSAII (Michael W. Deem and Ramdas Pophale) SiO2 
 PCOD8257099
Probable space group: C M C M
;
_chemical_formula_sum "Si O2"
_cell_formula_units_Z 96
_cell_length_a 9.195982
_cell_length_b 23.447256
_cell_length_c 25.395607
_cell_angle_alpha 90.000000
_cell_angle_beta 90.000000
_cell_angle_gamma 90.000000
_cell_volume 5475.814600
_symmetry_space_group_name_H-M "C M C M"
_symmetry_group_IT_number 63
_symmetry_cell_setting 'orthorhombic'
loop_
_space_group_symop_operation_xyz
x,y,z
-x,-y,1/2+z
x,-y,-z
-x,y,1/2-z
-x,-y,-z
x,y,1/2-z
-x,y,z
x,-y,1/2+z
1/2+x,1/2+y,z
1/2-x,1/2-y,1/2+z
1/2+x,1/2-y,-z
1/2-x,1/2+y,1/2-z
1/2-x,1/2-y,-z
1/2+x,1/2+y,1/2-z
1/2-x,1/2+y,z
1/2+x,1/2-y,1/2+z
loop_
_atom_site_type_symbol
_atom_site_label
_atom_site_fract_x
_atom_site_fract_y
_atom_site_fract_z
Si Si1 0.666612 0.567783 0.811013
Si Si2 0.328289 0.368175 0.905249
Si Si3 0.828589 0.373374 0.400114
Si Si4 0.673142 0.561275 0.308075
Si Si5 0.667293 0.566701 0.992365
Si Si6 0.170291 0.252348 0.444758
O O1 0.683267 0.583394 0.750000
O O2 0.500000 0.574421 0.829420
O O3 0.766026 0.611699 0.842956
O O4 0.720862 0.503223 0.821786
O O5 0.500000 0.376511 0.903165
O O6 0.261326 0.395729 0.851958
O O7 0.268663 0.401263 0.956450
O O8 0.283815 0.301867 0.909069
O O9 0.761137 0.416049 0.442383
O O10 0.783800 0.308513 0.413047
O O11 0.000000 0.381476 0.399892
O O12 0.732637 0.578680 0.250000
O O13 0.500000 0.563613 0.306887
O O14 0.500000 0.584065 0.982369
O O15 0.684012 0.500000 0.000000
O O16 0.250000 0.250000 0.500000
O O17 0.000000 0.250962 0.457129
#
# Coordination Sequence:
#
# PCOD8257099 Si02
#       6
#    16  16  16  16  16  16
#     4   9  18  34  56  78 100 131 171 210 251 305
#     4   9  16  28  47  71  98 127 164 207 249 294
#     4  11  22  33  48  74 107 137 168 208 259 314
#     4   8  14  27  50  78 101 121 156 210 260 298
#     4  10  19  31  51  75  98 129 170 215 258 304
#     4  10  20  34  50  70  99 138 177 207 248 304
#
# _framework density 17.531637
#
# number of rings (size 3 to 8) (size 9 to 14) (size 15 to 20)
#    0.000    2.500    1.667    2.500    0.000    4.000 
#    0.000    0.833    0.000    3.000    0.000    0.000 
#    0.000    0.000    0.000    0.000    0.000    0.000 
#
# Total GULP energy -595150.580538 kJ/mol
# GULP energy per Si atom -12398.970428 kJ/mol
# Density = 1.749173 g / cm^3
# Si number density = 17.531637 Si / 1000 Ang^3
#
#
#
# Elastic Constant Matrix: (Units=GPa)
#
#
# Indices 1 2 3 4 5 6 
#
# 1 42.3090 38.5263 36.7693 0.0000 0.0000 0.0000
# 2 38.5263 115.5492 66.7777 0.0000 0.0000 0.0000
# 3 36.7693 66.7777 119.5975 0.0000 0.0000 0.0000
# 4 0.0000 0.0000 0.0000 31.0862 0.0000 0.0000
# 5 0.0000 0.0000 0.0000 0.0000 20.8684 0.0000
# 6 0.0000 0.0000 0.0000 0.0000 0.0000 12.6053
#
#
#
# Elastic Compliance Matrix: (Units=1/GPa)
#
#
# Indices 1 2 3 4 5 6 
#
# 1 0.037221 -0.008559 -0.006665 0.000000 0.000000 0.000000
# 2 -0.008559 0.014745 -0.005602 0.000000 0.000000 0.000000
# 3 -0.006665 -0.005602 0.013538 0.000000 0.000000 0.000000
# 4 0.000000 0.000000 0.000000 0.032169 0.000000 0.000000
# 5 0.000000 0.000000 0.000000 0.000000 0.047919 0.000000
# 6 0.000000 0.000000 0.000000 0.000000 0.000000 0.079331
#
#
# Mechanical properties :
#
#
# Convention : Reuss Voigt Hill
#
# Bulk Modulus (GPa) = 41.92089 62.40023 52.16056
# Shear Modulus (GPa) = 18.21325 21.93747 20.07536
#
# Velocity S-wave (km/s) = 3.22666 3.54122 3.38759
# Velocity P-wave (km/s) = 6.15185 7.23813 6.71699
#
# Compressibility (1/GPa) = 0.02385446
#
# Stress axis : x y z
#
# Youngs Moduli (GPa) = 26.86655 67.81819 73.86540
#
# Poissons Ratio (x) = 0.58043 0.49228
# Poissons Ratio (y) = 0.22994 0.41378
# Poissons Ratio (z) = 0.17905 0.37991
#
# Static dielectric constant tensor:
#      x y z
#    x 2.946140 0.000000 0.000000 
#    y 0.000000 3.483760 0.000000 
#    z 0.000000 0.000000 3.479940 
# 
# 
# High freq. dielectric constant tensor:
#      x y z
#    x 1.638590 0.000000 0.000000 
#    y 0.000000 1.681110 0.000000 
#    z 0.000000 0.000000 1.683020 
# 
# From -- ./inp_files/59862.got.cif
#   From: 2010.03.12/outbox.cif.g09.slc.cpg/sg63_30_cif.got.tgz:59862.got - 2010.04.10 19:34:48.
