data_PCOD8257366
_publ_section_title
;
Structure prediction by ZEFSAII (Michael W. Deem and Ramdas Pophale) SiO2 
 PCOD8257366
Probable space group: C M C M
;
_chemical_formula_sum "Si O2"
_cell_formula_units_Z 80
_cell_length_a 25.618949
_cell_length_b 17.480242
_cell_length_c 9.264570
_cell_angle_alpha 90.000000
_cell_angle_beta 90.000000
_cell_angle_gamma 90.000000
_cell_volume 4148.910028
_symmetry_space_group_name_H-M "C M C M"
_symmetry_group_IT_number 63
_symmetry_cell_setting 'orthorhombic'
loop_
_space_group_symop_operation_xyz
x,y,z
-x,-y,1/2+z
x,-y,-z
-x,y,1/2-z
-x,-y,-z
x,y,1/2-z
-x,y,z
x,-y,1/2+z
1/2+x,1/2+y,z
1/2-x,1/2-y,1/2+z
1/2+x,1/2-y,-z
1/2-x,1/2+y,1/2-z
1/2-x,1/2-y,-z
1/2+x,1/2+y,1/2-z
1/2-x,1/2+y,z
1/2+x,1/2-y,1/2+z
loop_
_atom_site_type_symbol
_atom_site_label
_atom_site_fract_x
_atom_site_fract_y
_atom_site_fract_z
Si Si1 0.056734 0.870672 0.087631
Si Si2 0.057692 0.311162 0.912538
Si Si3 0.267204 0.923261 0.579101
Si Si4 0.154455 0.864916 0.584786
Si Si5 0.656938 0.187198 0.919354
O O1 0.063642 0.900215 0.250000
O O2 0.057584 0.779713 0.081653
O O3 0.000000 0.898768 0.027251
O O4 0.105507 0.903037 0.997816
O O5 0.071488 0.338473 0.750000
O O6 0.000000 0.341725 0.956631
O O7 0.100624 0.343217 0.024386
O O8 0.278229 0.927605 0.750000
O O9 0.206233 0.911428 0.545534
O O10 0.297987 0.853060 0.510033
O O11 0.286138 0.000000 0.500000
O O12 0.139515 0.872221 0.750000
O O13 0.163460 0.776443 0.544872
O O14 0.662350 0.168947 0.750000
#
# Coordination Sequence:
#
# PCOD8257366 Si02
#       5
#    16  16  16  16  16
#     4   8  14  25  44  72 103 132 162 198 242 291
#     4   8  14  26  45  71 103 135 164 197 240 288
#     4  11  23  38  53  71  98 132 170 210 253 299
#     4   9  19  33  51  76 103 131 165 206 249 294
#     4  10  19  32  52  78 104 131 165 204 248 296
#
# _framework density 19.282174000000001
#
# number of rings (size 3 to 8) (size 9 to 14) (size 15 to 20)
#    0.000    2.800    0.000    3.000    0.000    3.200 
#    0.000    4.000    0.000    1.200    0.000    0.000 
#    0.000    0.000    0.000    0.000    0.000    0.000 
#
# Total GULP energy -495817.133798 kJ/mol
# GULP energy per Si atom -12395.428345 kJ/mol
# Density = 1.923829 g / cm^3
# Si number density = 19.282174 Si / 1000 Ang^3
#
#
#
# Elastic Constant Matrix: (Units=GPa)
#
#
# Indices 1 2 3 4 5 6 
#
# 1 51.6709 8.0303 37.0716 0.0000 0.0000 0.0000
# 2 8.0303 21.8391 19.5331 0.0000 0.0000 0.0000
# 3 37.0716 19.5331 88.8827 0.0000 0.0000 0.0000
# 4 0.0000 0.0000 0.0000 18.4038 0.0000 0.0000
# 5 0.0000 0.0000 0.0000 0.0000 43.1169 0.0000
# 6 0.0000 0.0000 0.0000 0.0000 0.0000 0.6979
#
#
#
# Elastic Compliance Matrix: (Units=1/GPa)
#
#
# Indices 1 2 3 4 5 6 
#
# 1 0.027618 0.000184 -0.011559 0.000000 0.000000 0.000000
# 2 0.000184 0.056993 -0.012601 0.000000 0.000000 0.000000
# 3 -0.011559 -0.012601 0.018841 0.000000 0.000000 0.000000
# 4 0.000000 0.000000 0.000000 0.054337 0.000000 0.000000
# 5 0.000000 0.000000 0.000000 0.000000 0.023193 0.000000
# 6 0.000000 0.000000 0.000000 0.000000 0.000000 1.432787
#
#
# Mechanical properties :
#
#
# Convention : Reuss Voigt Hill
#
# Bulk Modulus (GPa) = 18.01880 32.40698 25.21289
# Shear Modulus (GPa) = 2.97580 18.96089 10.96834
#
# Velocity S-wave (km/s) = 1.24364 3.13922 2.38761
# Velocity P-wave (km/s) = 3.38042 5.47566 4.55028
#
# Compressibility (1/GPa) = 0.05549759
#
# Stress axis : x y z
#
# Youngs Moduli (GPa) = 36.20806 17.54613 53.07466
#
# Poissons Ratio (x) = -0.00322 0.61351
# Poissons Ratio (y) = -0.00665 0.66882
# Poissons Ratio (z) = 0.41855 0.22111
#
# Static dielectric constant tensor:
#      x y z
#    x 3.973470 0.000000 0.000000 
#    y 0.000000 3.027350 0.000000 
#    z 0.000000 0.000000 3.575190 
# 
# 
# High freq. dielectric constant tensor:
#      x y z
#    x 1.766400 0.000000 0.000000 
#    y 0.000000 1.702490 0.000000 
#    z 0.000000 0.000000 1.750270 
# 
# From -- ./inp_files/12030.got.cif
#   From: 2010.03.12/outbox.cif.g09.slc.cpg/sg63_7_cif.got.tgz:12030.got - 2010.04.10 19:34:48.
