data_PCOD8257097
_publ_section_title
;
Structure prediction by ZEFSAII (Michael W. Deem and Ramdas Pophale) SiO2 
 PCOD8257097
Probable space group: C M C M
;
_chemical_formula_sum "Si O2"
_cell_formula_units_Z 104
_cell_length_a 26.173740
_cell_length_b 22.575787
_cell_length_c 8.820874
_cell_angle_alpha 90.000000
_cell_angle_beta 90.000000
_cell_angle_gamma 90.000000
_cell_volume 5212.190753
_symmetry_space_group_name_H-M "C M C M"
_symmetry_group_IT_number 63
_symmetry_cell_setting 'orthorhombic'
loop_
_space_group_symop_operation_xyz
x,y,z
-x,-y,1/2+z
x,-y,-z
-x,y,1/2-z
-x,-y,-z
x,y,1/2-z
-x,y,z
x,-y,1/2+z
1/2+x,1/2+y,z
1/2-x,1/2-y,1/2+z
1/2+x,1/2-y,-z
1/2-x,1/2+y,1/2-z
1/2-x,1/2-y,-z
1/2+x,1/2+y,1/2-z
1/2-x,1/2+y,z
1/2+x,1/2-y,1/2+z
loop_
_atom_site_type_symbol
_atom_site_label
_atom_site_fract_x
_atom_site_fract_y
_atom_site_fract_z
Si Si1 0.814980 0.797726 0.572945
Si Si2 0.201387 0.321782 0.929071
Si Si3 0.441640 0.768423 0.583349
Si Si4 0.649028 0.941229 0.570488
Si Si5 0.500000 0.564868 0.929954
Si Si6 0.440644 0.114104 0.927463
Si Si7 0.418652 0.351054 0.926530
O O1 0.813655 0.784048 0.750000
O O2 0.829697 0.735457 0.491797
O O3 0.760168 0.819666 0.513240
O O4 0.857607 0.848456 0.537632
O O5 0.198189 0.319568 0.750000
O O6 0.179549 0.383760 0.989821
O O7 0.415866 0.757761 0.750000
O O8 0.500000 0.783978 0.610453
O O9 0.417795 0.825649 0.501642
O O10 0.439732 0.712464 0.473465
O O11 0.648903 0.945632 0.750000
O O12 0.591256 0.938440 0.505635
O O13 0.675110 0.000000 0.500000
O O14 0.500000 0.560763 0.750000
O O15 0.500000 0.500000 0.000000
O O16 0.448134 0.598213 0.980791
O O17 0.429802 0.116633 0.750000
O O18 0.500000 0.103275 0.962061
O O19 0.429678 0.362233 0.750000
#
# Coordination Sequence:
#
# PCOD8257097 Si02
#       7
#    16  16  16  16   8  16  16
#     4   9  19  35  59  89 118 147 182 232 290 344
#     4   9  19  37  58  84 117 150 187 233 286 340
#     4  10  19  31  50  79 114 149 183 225 274 324
#     4  11  23  38  57  78 106 147 189 231 276 332
#     4  12  26  44  62  82 114 156 199 244 295 356
#     4  10  21  36  54  78 110 146 186 233 280 329
#     4  11  21  35  58  86 116 151 191 234 284 344
#
# _framework density 19.953222
#
# number of rings (size 3 to 8) (size 9 to 14) (size 15 to 20)
#    0.000    1.846    0.769    3.462    0.000    6.769 
#    0.000    0.769    0.000    1.846    0.000    0.000 
#    0.000    0.000    0.000    0.000    0.000    0.000 
#
# Total GULP energy -644669.584074 kJ/mol
# GULP energy per Si atom -12397.492001 kJ/mol
# Density = 1.990781 g / cm^3
# Si number density = 19.953222 Si / 1000 Ang^3
#
#
#
# Elastic Constant Matrix: (Units=GPa)
#
#
# Indices 1 2 3 4 5 6 
#
# 1 79.1960 54.0343 35.1077 0.0000 0.0000 0.0000
# 2 54.0343 133.5636 40.7223 0.0000 0.0000 0.0000
# 3 35.1077 40.7223 88.2912 0.0000 0.0000 0.0000
# 4 0.0000 0.0000 0.0000 35.6396 0.0000 0.0000
# 5 0.0000 0.0000 0.0000 0.0000 25.0896 0.0000
# 6 0.0000 0.0000 0.0000 0.0000 0.0000 24.9690
#
#
#
# Elastic Compliance Matrix: (Units=1/GPa)
#
#
# Indices 1 2 3 4 5 6 
#
# 1 0.018954 -0.006249 -0.004655 0.000000 0.000000 0.000000
# 2 -0.006249 0.010772 -0.002484 0.000000 0.000000 0.000000
# 3 -0.004655 -0.002484 0.014323 0.000000 0.000000 0.000000
# 4 0.000000 0.000000 0.000000 0.028059 0.000000 0.000000
# 5 0.000000 0.000000 0.000000 0.000000 0.039857 0.000000
# 6 0.000000 0.000000 0.000000 0.000000 0.000000 0.040050
#
#
# Mechanical properties :
#
#
# Convention : Reuss Voigt Hill
#
# Bulk Modulus (GPa) = 57.88903 62.30881 60.09892
# Shear Modulus (GPa) = 27.09346 28.55207 27.82277
#
# Velocity S-wave (km/s) = 3.68890 3.78689 3.73822
# Velocity P-wave (km/s) = 6.87163 7.10042 6.98696
#
# Compressibility (1/GPa) = 0.01727443
#
# Stress axis : x y z
#
# Youngs Moduli (GPa) = 52.76018 92.83044 69.81990
#
# Poissons Ratio (x) = 0.58007 0.32498
# Poissons Ratio (y) = 0.32968 0.17342
# Poissons Ratio (z) = 0.24558 0.23057
#
# Static dielectric constant tensor:
#      x y z
#    x 3.994660 0.000000 0.000000 
#    y 0.000000 3.585940 0.000000 
#    z 0.000000 0.000000 3.677090 
# 
# 
# High freq. dielectric constant tensor:
#      x y z
#    x 1.783750 0.000000 0.000000 
#    y 0.000000 1.760710 0.000000 
#    z 0.000000 0.000000 1.783980 
# 
# From -- ./inp_files/12585.got.cif
#   From: 2010.03.12/outbox.cif.g09.slc.cpg/sg63_7_cif.got.tgz:12585.got - 2010.04.10 19:34:48.
