data_PCOD8257314
_publ_section_title
;
Structure prediction by ZEFSAII (Michael W. Deem and Ramdas Pophale) SiO2 
 PCOD8257314
Probable space group: C M C M
;
_chemical_formula_sum "Si O2"
_cell_formula_units_Z 104
_cell_length_a 25.802113
_cell_length_b 21.394991
_cell_length_c 8.607139
_cell_angle_alpha 90.000000
_cell_angle_beta 90.000000
_cell_angle_gamma 90.000000
_cell_volume 4751.450373
_symmetry_space_group_name_H-M "C M C M"
_symmetry_group_IT_number 63
_symmetry_cell_setting 'orthorhombic'
loop_
_space_group_symop_operation_xyz
x,y,z
-x,-y,1/2+z
x,-y,-z
-x,y,1/2-z
-x,-y,-z
x,y,1/2-z
-x,y,z
x,-y,1/2+z
1/2+x,1/2+y,z
1/2-x,1/2-y,1/2+z
1/2+x,1/2-y,-z
1/2-x,1/2+y,1/2-z
1/2-x,1/2-y,-z
1/2+x,1/2+y,1/2-z
1/2-x,1/2+y,z
1/2+x,1/2-y,1/2+z
loop_
_atom_site_type_symbol
_atom_site_label
_atom_site_fract_x
_atom_site_fract_y
_atom_site_fract_z
Si Si1 0.787524 0.646403 0.431728
Si Si2 0.441312 0.820745 0.074956
Si Si3 0.642533 0.258361 0.071058
Si Si4 0.875017 0.564575 0.925533
Si Si5 0.000000 0.930013 0.066105
Si Si6 0.296049 0.436649 0.067352
Si Si7 0.606432 0.384320 0.931522
O O1 0.776174 0.644788 0.250000
O O2 0.807637 0.715998 0.481486
O O3 0.830173 0.595102 0.472337
O O4 0.735068 0.626544 0.520492
O O5 0.432176 0.793989 0.250000
O O6 0.500000 0.813225 0.022880
O O7 0.426414 0.893439 0.072129
O O8 0.408200 0.783913 0.948475
O O9 0.647826 0.279107 0.250000
O O10 0.634477 0.318356 0.964367
O O11 0.853980 0.556043 0.750000
O O12 0.891980 0.500000 0.000000
O O13 0.000000 0.934260 0.250000
O O14 0.949399 0.891533 0.012332
O O15 0.000000 0.000000 0.000000
O O16 0.299094 0.440759 0.250000
O O17 0.269250 0.500000 0.000000
O O18 0.353961 0.435775 0.996895
O O19 0.598151 0.393794 0.750000
#
# Coordination Sequence:
#
# PCOD8257314 Si02
#       7
#    16  16  16  16   8  16  16
#     4  10  21  39  62  89 123 164 210 258 312 373
#     4   9  19  35  54  77 110 153 201 255 313 375
#     4  10  22  40  62  91 125 163 209 261 315 374
#     4  10  19  32  51  77 111 153 201 254 312 374
#     4  12  26  48  74 102 136 172 215 264 319 378
#     4  12  25  43  67  96 130 167 211 261 316 377
#     4  12  26  45  69  98 131 170 213 259 316 378
#
# _framework density 21.888052999999999
#
# number of rings (size 3 to 8) (size 9 to 14) (size 15 to 20)
#    0.000    1.385    0.000    5.769    1.077    3.692 
#    0.000    0.000    0.000    0.000    0.000    0.000 
#    0.000    0.000    0.000    0.000    0.000    0.000 
#
# Total GULP energy -644815.947182 kJ/mol
# GULP energy per Si atom -12400.306677 kJ/mol
# Density = 2.183823 g / cm^3
# Si number density = 21.888053 Si / 1000 Ang^3
#
#
#
# Elastic Constant Matrix: (Units=GPa)
#
#
# Indices 1 2 3 4 5 6 
#
# 1 112.8901 23.9393 41.2270 0.0000 0.0000 0.0000
# 2 23.9393 100.3304 38.5002 0.0000 0.0000 0.0000
# 3 41.2270 38.5002 139.4543 0.0000 0.0000 0.0000
# 4 0.0000 0.0000 0.0000 38.5264 0.0000 0.0000
# 5 0.0000 0.0000 0.0000 0.0000 35.3265 0.0000
# 6 0.0000 0.0000 0.0000 0.0000 0.0000 23.3903
#
#
#
# Elastic Compliance Matrix: (Units=1/GPa)
#
#
# Indices 1 2 3 4 5 6 
#
# 1 0.010107 -0.001415 -0.002597 0.000000 0.000000 0.000000
# 2 -0.001415 0.011346 -0.002714 0.000000 0.000000 0.000000
# 3 -0.002597 -0.002714 0.008688 0.000000 0.000000 0.000000
# 4 0.000000 0.000000 0.000000 0.025956 0.000000 0.000000
# 5 0.000000 0.000000 0.000000 0.000000 0.028307 0.000000
# 6 0.000000 0.000000 0.000000 0.000000 0.000000 0.042753
#
#
# Mechanical properties :
#
#
# Convention : Reuss Voigt Hill
#
# Bulk Modulus (GPa) = 59.92213 62.22310 61.07262
# Shear Modulus (GPa) = 34.20618 36.04919 35.12769
#
# Velocity S-wave (km/s) = 3.95749 4.06270 4.01044
# Velocity P-wave (km/s) = 6.95114 7.10612 7.02906
#
# Compressibility (1/GPa) = 0.01668832
#
# Stress axis : x y z
#
# Youngs Moduli (GPa) = 98.94413 88.13549 115.10199
#
# Poissons Ratio (x) = 0.12470 0.29895
# Poissons Ratio (y) = 0.13999 0.31240
# Poissons Ratio (z) = 0.25698 0.23921
#
# Static dielectric constant tensor:
#      x y z
#    x 3.973880 0.000000 0.000000 
#    y 0.000000 4.042460 0.000000 
#    z 0.000000 0.000000 3.917780 
# 
# 
# High freq. dielectric constant tensor:
#      x y z
#    x 1.860780 0.000000 0.000000 
#    y 0.000000 1.867030 0.000000 
#    z 0.000000 0.000000 1.865700 
# 
# From -- ./inp_files/12611.got.cif
#   From: 2010.03.12/outbox.cif.g09.slc.cpg/sg63_7_cif.got.tgz:12611.got - 2010.04.10 19:34:48.
