data_PCOD8257561
_publ_section_title
;
Structure prediction by ZEFSAII (Michael W. Deem and Ramdas Pophale) SiO2 
 PCOD8257561
Probable space group: C M C M
;
_chemical_formula_sum "Si O2"
_cell_formula_units_Z 80
_cell_length_a 25.469791
_cell_length_b 19.935134
_cell_length_c 9.058392
_cell_angle_alpha 90.000000
_cell_angle_beta 90.000000
_cell_angle_gamma 90.000000
_cell_volume 4599.341439
_symmetry_space_group_name_H-M "C M C M"
_symmetry_group_IT_number 63
_symmetry_cell_setting 'orthorhombic'
loop_
_space_group_symop_operation_xyz
x,y,z
-x,-y,1/2+z
x,-y,-z
-x,y,1/2-z
-x,-y,-z
x,y,1/2-z
-x,y,z
x,-y,1/2+z
1/2+x,1/2+y,z
1/2-x,1/2-y,1/2+z
1/2+x,1/2-y,-z
1/2-x,1/2+y,1/2-z
1/2-x,1/2-y,-z
1/2+x,1/2+y,1/2-z
1/2-x,1/2+y,z
1/2+x,1/2-y,1/2+z
loop_
_atom_site_type_symbol
_atom_site_label
_atom_site_fract_x
_atom_site_fract_y
_atom_site_fract_z
Si Si1 0.812157 0.821634 0.078391
Si Si2 0.000000 0.931227 0.918760
Si Si3 0.500000 0.930955 0.419623
Si Si4 0.385829 0.427546 0.575760
Si Si5 0.309409 0.814859 0.078478
Si Si6 0.386688 0.928766 0.422951
O O1 0.827015 0.824139 0.250000
O O2 0.750737 0.834489 0.051142
O O3 0.843001 0.878830 0.992477
O O4 0.827409 0.749324 0.014521
O O5 0.055684 0.894708 0.955182
O O6 0.000000 0.951432 0.750000
O O7 0.000000 0.000000 0.000000
O O8 0.500000 0.949464 0.250000
O O9 0.444452 0.895168 0.458687
O O10 0.500000 0.000000 0.500000
O O11 0.380648 0.500000 0.500000
O O12 0.375310 0.435319 0.750000
O O13 0.320420 0.799316 0.250000
O O14 0.343540 0.876884 0.018595
O O15 0.379317 0.941080 0.250000
O O16 0.378484 0.000000 0.500000
#
# Coordination Sequence:
#
# PCOD8257561 Si02
#       6
#    16   8   8  16  16  16
#     4  10  20  34  51  71  96 129 166 202 245 293
#     4   8  16  30  49  72  97 127 159 193 239 290
#     4   8  14  26  45  68  93 121 151 187 233 280
#     4  10  19  33  53  76 101 128 161 201 243 290
#     4   9  19  35  51  68  95 131 167 202 242 289
#     4   9  17  30  49  72  96 122 155 194 235 280
#
# _framework density 17.393792999999999
#
# number of rings (size 3 to 8) (size 9 to 14) (size 15 to 20)
#    0.000    2.800    0.000    1.200    0.000    3.200 
#    0.000    3.000    0.000    3.600    0.000    0.000 
#    0.000    0.000    0.000    0.000    0.000    0.000 
#
# Total GULP energy -495546.704527 kJ/mol
# GULP energy per Si atom -12388.667613 kJ/mol
# Density = 1.735420 g / cm^3
# Si number density = 17.393793 Si / 1000 Ang^3
#
#
#
# Elastic Constant Matrix: (Units=GPa)
#
#
# Indices 1 2 3 4 5 6 
#
# 1 117.2981 82.0560 51.1485 0.0000 0.0000 0.0000
# 2 82.0560 107.8441 51.1954 0.0000 0.0000 0.0000
# 3 51.1485 51.1954 74.4480 0.0000 0.0000 0.0000
# 4 0.0000 0.0000 0.0000 30.9231 0.0000 0.0000
# 5 0.0000 0.0000 0.0000 0.0000 22.2099 0.0000
# 6 0.0000 0.0000 0.0000 0.0000 0.0000 0.4621
#
#
#
# Elastic Compliance Matrix: (Units=1/GPa)
#
#
# Indices 1 2 3 4 5 6 
#
# 1 0.019269 -0.012437 -0.004686 0.000000 0.000000 0.000000
# 2 -0.012437 0.021794 -0.006442 0.000000 0.000000 0.000000
# 3 -0.004686 -0.006442 0.021082 0.000000 0.000000 0.000000
# 4 0.000000 0.000000 0.000000 0.032338 0.000000 0.000000
# 5 0.000000 0.000000 0.000000 0.000000 0.045025 0.000000
# 6 0.000000 0.000000 0.000000 0.000000 0.000000 2.164245
#
#
# Mechanical properties :
#
#
# Convention : Reuss Voigt Hill
#
# Bulk Modulus (GPa) = 66.60365 74.26556 70.43461
# Shear Modulus (GPa) = 2.12234 18.39835 10.26034
#
# Velocity S-wave (km/s) = 1.10581 3.25584 2.43139
# Velocity P-wave (km/s) = 6.32496 7.54475 6.96163
#
# Compressibility (1/GPa) = 0.01501419
#
# Stress axis : x y z
#
# Youngs Moduli (GPa) = 51.89770 45.88501 47.43388
#
# Poissons Ratio (x) = 0.57065 0.22228
# Poissons Ratio (y) = 0.64543 0.30559
# Poissons Ratio (z) = 0.24320 0.29561
#
# Static dielectric constant tensor:
#      x y z
#    x 4.102560 0.000000 0.000000 
#    y 0.000000 2.956830 0.000000 
#    z 0.000000 0.000000 3.256290 
# 
# 
# High freq. dielectric constant tensor:
#      x y z
#    x 1.690780 0.000000 0.000000 
#    y 0.000000 1.641010 0.000000 
#    z 0.000000 0.000000 1.678810 
# 
# From -- ./inp_files/10067.got.cif
#   From: 2010.03.12/outbox.cif.g09.slc.cpg/sg63_6_cif.got.tgz:10067.got - 2010.04.10 19:34:48.
