data_PCOD8258301
_publ_section_title
;
Structure prediction by ZEFSAII (Michael W. Deem and Ramdas Pophale) SiO2 
 PCOD8258301
Probable space group: C M C M
;
_chemical_formula_sum "Si O2"
_cell_formula_units_Z 96
_cell_length_a 9.113200
_cell_length_b 32.733374
_cell_length_c 18.317040
_cell_angle_alpha 90.000000
_cell_angle_beta 90.000000
_cell_angle_gamma 90.000000
_cell_volume 5464.078977
_symmetry_space_group_name_H-M "C M C M"
_symmetry_group_IT_number 63
_symmetry_cell_setting 'orthorhombic'
loop_
_space_group_symop_operation_xyz
x,y,z
-x,-y,1/2+z
x,-y,-z
-x,y,1/2-z
-x,-y,-z
x,y,1/2-z
-x,y,z
x,-y,1/2+z
1/2+x,1/2+y,z
1/2-x,1/2-y,1/2+z
1/2+x,1/2-y,-z
1/2-x,1/2+y,1/2-z
1/2-x,1/2-y,-z
1/2+x,1/2+y,1/2-z
1/2-x,1/2+y,z
1/2+x,1/2-y,1/2+z
loop_
_atom_site_type_symbol
_atom_site_label
_atom_site_fract_x
_atom_site_fract_y
_atom_site_fract_z
Si Si1 0.174652 0.915215 0.830394
Si Si2 0.170344 0.674888 0.665709
Si Si3 0.331456 0.667840 0.098416
Si Si4 0.825279 0.042915 0.027368
Si Si5 0.328185 0.242107 0.166060
Si Si6 0.831477 0.124019 0.948234
O O1 0.236502 0.926517 0.750000
O O2 0.224806 0.869573 0.851513
O O3 0.233850 0.947463 0.890626
O O4 0.000000 0.916159 0.831193
O O5 0.200115 0.664563 0.750000
O O6 0.253349 0.715866 0.641745
O O7 0.231354 0.637086 0.619326
O O8 0.000000 0.681168 0.649265
O O9 0.500000 0.678553 0.116671
O O10 0.231044 0.706570 0.114410
O O11 0.313337 0.656061 0.014006
O O12 0.000000 0.040904 0.029368
O O13 0.776899 0.079168 0.973150
O O14 0.757730 0.000000 0.000000
O O15 0.289701 0.231835 0.250000
O O16 0.500000 0.247049 0.153425
O O17 0.000000 0.122293 0.922613
#
# Coordination Sequence:
#
# PCOD8258301 Si02
#       6
#    16  16  16  16  16  16
#     4   8  13  22  39  63  90 121 156 191 226 269
#     4  10  21  36  52  68  89 123 164 200 234 276
#     4   9  17  29  46  68  94 125 158 191 232 284
#     4   8  14  26  44  67  97 127 153 188 234 281
#     4  10  20  32  47  69  96 125 158 198 240 277
#     4   9  18  32  50  72  96 123 155 193 240 286
#
# _framework density 17.569291
#
# number of rings (size 3 to 8) (size 9 to 14) (size 15 to 20)
#    0.000    3.000    0.000    3.500    0.000    4.000 
#    0.000    0.833    0.000    3.500    0.000    0.000 
#    0.000   10.667    0.000    0.000    0.000    0.000 
#
# Total GULP energy -595099.853235 kJ/mol
# GULP energy per Si atom -12397.913609 kJ/mol
# Density = 1.752930 g / cm^3
# Si number density = 17.569291 Si / 1000 Ang^3
#
#
#
# Elastic Constant Matrix: (Units=GPa)
#
#
# Indices 1 2 3 4 5 6 
#
# 1 57.4096 41.6996 37.2854 0.0000 0.0000 0.0000
# 2 41.6996 127.1411 73.2005 0.0000 0.0000 0.0000
# 3 37.2854 73.2005 100.8815 0.0000 0.0000 0.0000
# 4 0.0000 0.0000 0.0000 24.8810 0.0000 0.0000
# 5 0.0000 0.0000 0.0000 0.0000 23.2989 0.0000
# 6 0.0000 0.0000 0.0000 0.0000 0.0000 17.3303
#
#
#
# Elastic Compliance Matrix: (Units=1/GPa)
#
#
# Indices 1 2 3 4 5 6 
#
# 1 0.024551 -0.004857 -0.005550 0.000000 0.000000 0.000000
# 2 -0.004857 0.014470 -0.008704 0.000000 0.000000 0.000000
# 3 -0.005550 -0.008704 0.018280 0.000000 0.000000 0.000000
# 4 0.000000 0.000000 0.000000 0.040191 0.000000 0.000000
# 5 0.000000 0.000000 0.000000 0.000000 0.042920 0.000000
# 6 0.000000 0.000000 0.000000 0.000000 0.000000 0.057702
#
#
# Mechanical properties :
#
#
# Convention : Reuss Voigt Hill
#
# Bulk Modulus (GPa) = 52.41509 65.53370 58.97440
# Shear Modulus (GPa) = 20.60196 21.98514 21.29355
#
# Velocity S-wave (km/s) = 3.42806 3.54126 3.48512
# Velocity P-wave (km/s) = 6.75033 7.35540 7.05935
#
# Compressibility (1/GPa) = 0.01907847
#
# Stress axis : x y z
#
# Youngs Moduli (GPa) = 40.73172 69.11023 54.70591
#
# Poissons Ratio (x) = 0.33567 0.30360
# Poissons Ratio (y) = 0.19784 0.47617
# Poissons Ratio (z) = 0.22605 0.60155
#
# Static dielectric constant tensor:
#      x y z
#    x 2.907470 0.000000 0.000000 
#    y 0.000000 3.297490 0.000000 
#    z 0.000000 0.000000 3.409630 
# 
# 
# High freq. dielectric constant tensor:
#      x y z
#    x 1.644360 0.000000 0.000000 
#    y 0.000000 1.670220 0.000000 
#    z 0.000000 0.000000 1.680680 
# 
# From -- ./inp_files/51384.got.cif
#   From: 2010.03.12/outbox.cif.g09.slc.cpg/sg63_26_cif.got.tgz:51384.got - 2010.04.10 19:34:48.
