data_PCOD8258886
_publ_section_title
;
Structure prediction by ZEFSAII (Michael W. Deem and Ramdas Pophale) SiO2 
 PCOD8258886
Probable space group: C M C M
;
_chemical_formula_sum "Si O2"
_cell_formula_units_Z 88
_cell_length_a 23.613585
_cell_length_b 19.762432
_cell_length_c 9.880371
_cell_angle_alpha 90.000000
_cell_angle_beta 90.000000
_cell_angle_gamma 90.000000
_cell_volume 4610.792386
_symmetry_space_group_name_H-M "C M C M"
_symmetry_group_IT_number 63
_symmetry_cell_setting 'orthorhombic'
loop_
_space_group_symop_operation_xyz
x,y,z
-x,-y,1/2+z
x,-y,-z
-x,y,1/2-z
-x,-y,-z
x,y,1/2-z
-x,y,z
x,-y,1/2+z
1/2+x,1/2+y,z
1/2-x,1/2-y,1/2+z
1/2+x,1/2-y,-z
1/2-x,1/2+y,1/2-z
1/2-x,1/2-y,-z
1/2+x,1/2+y,1/2-z
1/2-x,1/2+y,z
1/2+x,1/2-y,1/2+z
loop_
_atom_site_type_symbol
_atom_site_label
_atom_site_fract_x
_atom_site_fract_y
_atom_site_fract_z
Si Si1 0.000000 0.432273 0.908227
Si Si2 0.935824 0.803282 0.599286
Si Si3 0.277663 0.806341 0.593429
Si Si4 0.604119 0.445556 0.899327
Si Si5 0.590983 0.181013 0.406515
Si Si6 0.265009 0.551775 0.103176
O O1 0.056328 0.387656 0.941828
O O2 0.000000 0.453594 0.750000
O O3 0.000000 0.500000 0.000000
O O4 0.914002 0.781875 0.750000
O O5 0.901421 0.868731 0.545222
O O6 0.931655 0.741699 0.496897
O O7 0.000000 0.827292 0.607793
O O8 0.270251 0.784774 0.750000
O O9 0.250000 0.750000 0.500000
O O10 0.342586 0.825369 0.561080
O O11 0.241917 0.871944 0.553954
O O12 0.575629 0.450263 0.750000
O O13 0.669322 0.465445 0.885916
O O14 0.574769 0.500000 0.000000
O O15 0.580228 0.199601 0.250000
O O16 0.235519 0.542670 0.250000
O O17 0.234917 0.500000 0.000000
#
# Coordination Sequence:
#
# PCOD8258886 Si02
#       6
#     8  16  16  16  16  16
#     4  10  22  40  60  84 115 150 193 242 291 346
#     4  10  20  34  54  78 105 139 181 225 269 320
#     4  10  21  36  56  83 113 146 185 231 281 336
#     4   9  18  32  49  72 104 140 176 217 261 310
#     4  10  21  38  58  81 112 147 185 230 283 340
#     4   9  18  33  51  72 102 137 174 215 262 315
#
# _framework density 19.085656
#
# number of rings (size 3 to 8) (size 9 to 14) (size 15 to 20)
#    0.000    2.364    0.909    1.091    0.000    5.455 
#    0.000    3.636    0.000    0.000    0.000    0.000 
#    0.000    0.000    0.000    0.000    0.000    0.000 
#
# Total GULP energy -545318.151220 kJ/mol
# GULP energy per Si atom -12393.594346 kJ/mol
# Density = 1.904222 g / cm^3
# Si number density = 19.085656 Si / 1000 Ang^3
#
#
#
# Elastic Constant Matrix: (Units=GPa)
#
#
# Indices 1 2 3 4 5 6 
#
# 1 65.2287 29.5529 35.0599 0.0000 0.0000 0.0000
# 2 29.5529 157.1824 103.3723 0.0000 0.0000 0.0000
# 3 35.0599 103.3723 108.9295 0.0000 0.0000 0.0000
# 4 0.0000 0.0000 0.0000 45.1153 0.0000 0.0000
# 5 0.0000 0.0000 0.0000 0.0000 20.7257 0.0000
# 6 0.0000 0.0000 0.0000 0.0000 0.0000 29.9086
#
#
#
# Elastic Compliance Matrix: (Units=1/GPa)
#
#
# Indices 1 2 3 4 5 6 
#
# 1 0.018618 0.001172 -0.007104 0.000000 0.000000 0.000000
# 2 0.001172 0.016999 -0.016509 0.000000 0.000000 0.000000
# 3 -0.007104 -0.016509 0.027133 0.000000 0.000000 0.000000
# 4 0.000000 0.000000 0.000000 0.022165 0.000000 0.000000
# 5 0.000000 0.000000 0.000000 0.000000 0.048249 0.000000
# 6 0.000000 0.000000 0.000000 0.000000 0.000000 0.033435
#
#
# Mechanical properties :
#
#
# Convention : Reuss Voigt Hill
#
# Bulk Modulus (GPa) = 55.96686 74.14564 65.05625
# Shear Modulus (GPa) = 22.99489 30.04027 26.51758
#
# Velocity S-wave (km/s) = 3.47483 3.97163 3.73151
# Velocity P-wave (km/s) = 6.74440 7.74371 7.26127
#
# Compressibility (1/GPa) = 0.01786772
#
# Stress axis : x y z
#
# Youngs Moduli (GPa) = 53.71036 58.82738 36.85487
#
# Poissons Ratio (x) = -0.06893 0.26183
# Poissons Ratio (y) = -0.06293 0.60843
# Poissons Ratio (z) = 0.38158 0.97117
#
# Static dielectric constant tensor:
#      x y z
#    x 3.495110 0.000000 0.000000 
#    y 0.000000 3.419050 0.000000 
#    z 0.000000 0.000000 3.821450 
# 
# 
# High freq. dielectric constant tensor:
#      x y z
#    x 1.734550 0.000000 0.000000 
#    y 0.000000 1.739040 0.000000 
#    z 0.000000 0.000000 1.743590 
# 
# From -- ./inp_files/23772.got.cif
#   From: 2010.03.12/outbox.cif.g09.slc.cpg/sg63_12_cif.got.tgz:23772.got - 2010.04.10 19:34:48.
