data_PCOD8258912
_publ_section_title
;
Structure prediction by ZEFSAII (Michael W. Deem and Ramdas Pophale) SiO2 
 PCOD8258912
Probable space group: C M C M
;
_chemical_formula_sum "Si O2"
_cell_formula_units_Z 96
_cell_length_a 19.554820
_cell_length_b 30.553566
_cell_length_c 8.764466
_cell_angle_alpha 90.000000
_cell_angle_beta 90.000000
_cell_angle_gamma 90.000000
_cell_volume 5236.500974
_symmetry_space_group_name_H-M "C M C M"
_symmetry_group_IT_number 63
_symmetry_cell_setting 'orthorhombic'
loop_
_space_group_symop_operation_xyz
x,y,z
-x,-y,1/2+z
x,-y,-z
-x,y,1/2-z
-x,-y,-z
x,y,1/2-z
-x,y,z
x,-y,1/2+z
1/2+x,1/2+y,z
1/2-x,1/2-y,1/2+z
1/2+x,1/2-y,-z
1/2-x,1/2+y,1/2-z
1/2-x,1/2-y,-z
1/2+x,1/2+y,1/2-z
1/2-x,1/2+y,z
1/2+x,1/2-y,1/2+z
loop_
_atom_site_type_symbol
_atom_site_label
_atom_site_fract_x
_atom_site_fract_y
_atom_site_fract_z
Si Si1 0.424190 0.326259 0.422964
Si Si2 0.788426 0.291580 0.929921
Si Si3 0.711470 0.627716 0.927001
Si Si4 0.422698 0.764508 0.072094
Si Si5 0.428065 0.952856 0.571564
Si Si6 0.779728 0.548036 0.069393
O O1 0.416720 0.308148 0.250000
O O2 0.500000 0.346010 0.449934
O O3 0.369153 0.364059 0.453360
O O4 0.410117 0.286472 0.537156
O O5 0.782923 0.288038 0.750000
O O6 0.750000 0.250000 0.000000
O O7 0.754960 0.336289 0.984459
O O8 0.868051 0.293071 0.978925
O O9 0.731587 0.629430 0.750000
O O10 0.724517 0.579883 0.994868
O O11 0.410578 0.772317 0.250000
O O12 0.500000 0.778089 0.023848
O O13 0.427259 0.960009 0.750000
O O14 0.500000 0.927785 0.524384
O O15 0.355243 0.931351 0.525837
O O16 0.430149 0.000000 0.500000
O O17 0.768525 0.545615 0.250000
O O18 0.770075 0.500000 0.000000
#
# Coordination Sequence:
#
# PCOD8258912 Si02
#       6
#    16  16  16  16  16  16
#     4   9  18  33  54  79 106 139 180 225 274 330
#     4  12  23  36  55  80 112 148 184 226 273 327
#     4  11  22  36  56  82 111 144 182 228 277 332
#     4  10  20  34  54  80 111 147 186 228 274 327
#     4   8  14  26  46  71  97 127 166 211 258 308
#     4  10  20  35  55  79 108 142 181 228 278 332
#
# _framework density 18.332853
#
# number of rings (size 3 to 8) (size 9 to 14) (size 15 to 20)
#    0.000    2.000    1.667    3.000    0.000    2.333 
#    0.000    0.833    0.000    3.500    0.000    0.000 
#    0.000    0.000    0.000    0.000    0.000    0.000 
#
# Total GULP energy -594816.295822 kJ/mol
# GULP energy per Si atom -12392.006163 kJ/mol
# Density = 1.829113 g / cm^3
# Si number density = 18.332853 Si / 1000 Ang^3
#
#
#
# Elastic Constant Matrix: (Units=GPa)
#
#
# Indices 1 2 3 4 5 6 
#
# 1 136.6247 54.5453 52.5826 0.0000 0.0000 0.0000
# 2 54.5453 77.4160 37.0086 0.0000 0.0000 0.0000
# 3 52.5826 37.0086 99.6799 0.0000 0.0000 0.0000
# 4 0.0000 0.0000 0.0000 27.8573 0.0000 0.0000
# 5 0.0000 0.0000 0.0000 0.0000 25.2952 0.0000
# 6 0.0000 0.0000 0.0000 0.0000 0.0000 25.9186
#
#
#
# Elastic Compliance Matrix: (Units=1/GPa)
#
#
# Indices 1 2 3 4 5 6 
#
# 1 0.011158 -0.006137 -0.003607 0.000000 0.000000 0.000000
# 2 -0.006137 0.019080 -0.003847 0.000000 0.000000 0.000000
# 3 -0.003607 -0.003847 0.013363 0.000000 0.000000 0.000000
# 4 0.000000 0.000000 0.000000 0.035897 0.000000 0.000000
# 5 0.000000 0.000000 0.000000 0.000000 0.039533 0.000000
# 6 0.000000 0.000000 0.000000 0.000000 0.000000 0.038582
#
#
# Mechanical properties :
#
#
# Convention : Reuss Voigt Hill
#
# Bulk Modulus (GPa) = 60.90463 66.88817 63.89640
# Shear Modulus (GPa) = 26.27863 27.11983 26.69923
#
# Velocity S-wave (km/s) = 3.79016 3.85034 3.82037
# Velocity P-wave (km/s) = 7.24206 7.50543 7.37492
#
# Compressibility (1/GPa) = 0.01641911
#
# Stress axis : x y z
#
# Youngs Moduli (GPa) = 89.62355 52.41086 74.83230
#
# Poissons Ratio (x) = 0.32164 0.26995
# Poissons Ratio (y) = 0.55002 0.28785
# Poissons Ratio (z) = 0.32331 0.20160
#
# Static dielectric constant tensor:
#      x y z
#    x 4.033190 0.000000 0.000000 
#    y 0.000000 2.968130 0.000000 
#    z 0.000000 0.000000 3.458340 
# 
# 
# High freq. dielectric constant tensor:
#      x y z
#    x 1.729650 0.000000 0.000000 
#    y 0.000000 1.663530 0.000000 
#    z 0.000000 0.000000 1.722320 
# 
# From -- ./inp_files/8607.got.cif
#   From: 2010.03.12/outbox.cif.g09.slc.cpg/sg63_5_cif.got.tgz:8607.got - 2010.04.10 19:34:48.
