data_PCOD8258962
_publ_section_title
;
Structure prediction by ZEFSAII (Michael W. Deem and Ramdas Pophale) SiO2 
 PCOD8258962
Probable space group: C M C M
;
_chemical_formula_sum "Si O2"
_cell_formula_units_Z 64
_cell_length_a 24.180565
_cell_length_b 8.204772
_cell_length_c 16.595204
_cell_angle_alpha 90.000000
_cell_angle_beta 90.000000
_cell_angle_gamma 90.000000
_cell_volume 3292.422469
_symmetry_space_group_name_H-M "C M C M"
_symmetry_group_IT_number 63
_symmetry_cell_setting 'orthorhombic'
loop_
_space_group_symop_operation_xyz
x,y,z
-x,-y,1/2+z
x,-y,-z
-x,y,1/2-z
-x,-y,-z
x,y,1/2-z
-x,y,z
x,-y,1/2+z
1/2+x,1/2+y,z
1/2-x,1/2-y,1/2+z
1/2+x,1/2-y,-z
1/2-x,1/2+y,1/2-z
1/2-x,1/2-y,-z
1/2+x,1/2+y,1/2-z
1/2-x,1/2+y,z
1/2+x,1/2-y,1/2+z
loop_
_atom_site_type_symbol
_atom_site_label
_atom_site_fract_x
_atom_site_fract_y
_atom_site_fract_z
Si Si1 0.098495 0.877578 0.429309
Si Si2 0.500000 0.820424 0.340677
Si Si3 0.615061 0.314808 0.843247
Si Si4 0.500000 0.871715 0.575225
Si Si5 0.188546 0.309334 0.484768
O O1 0.052712 0.741580 0.418257
O O2 0.154833 0.785133 0.447502
O O3 0.080483 0.000000 0.500000
O O4 0.110642 0.988506 0.350553
O O5 0.500000 0.757675 0.250000
O O6 0.443190 0.753414 0.380099
O O7 0.500000 0.015843 0.345654
O O8 0.624639 0.265894 0.750000
O O9 0.665190 0.239134 0.895974
O O10 0.500000 0.000000 0.500000
O O11 0.183092 0.500000 0.500000
O O12 0.250000 0.250000 0.500000
#
# Coordination Sequence:
#
# PCOD8258962 Si02
#       5
#    16   8  16   8  16
#     4  10  20  34  55  81 112 149 192 239 285 337
#     4  10  21  35  53  81 118 151 183 229 286 338
#     4  10  21  39  60  85 117 154 194 240 293 349
#     4  12  20  31  54  85 116 153 199 237 279 342
#     4  11  22  40  61  83 113 150 191 240 291 345
#
# _framework density 19.438575
#
# number of rings (size 3 to 8) (size 9 to 14) (size 15 to 20)
#    0.000    1.500    0.000    8.625    0.000    1.000 
#    0.000    6.250    0.000    0.000    0.000    0.000 
#    0.000    0.000    0.000    0.000    0.000    0.000 
#
# Total GULP energy -396590.214783 kJ/mol
# GULP energy per Si atom -12393.444212 kJ/mol
# Density = 1.939433 g / cm^3
# Si number density = 19.438575 Si / 1000 Ang^3
#
#
#
# Elastic Constant Matrix: (Units=GPa)
#
#
# Indices 1 2 3 4 5 6 
#
# 1 174.9068 70.9473 55.7440 0.0000 0.0000 0.0000
# 2 70.9473 165.1249 43.2547 0.0000 0.0000 0.0000
# 3 55.7440 43.2547 72.8138 0.0000 0.0000 0.0000
# 4 0.0000 0.0000 0.0000 27.1102 0.0000 0.0000
# 5 0.0000 0.0000 0.0000 0.0000 25.3918 0.0000
# 6 0.0000 0.0000 0.0000 0.0000 0.0000 45.5511
#
#
#
# Elastic Compliance Matrix: (Units=1/GPa)
#
#
# Indices 1 2 3 4 5 6 
#
# 1 0.008199 -0.002225 -0.004955 0.000000 0.000000 0.000000
# 2 -0.002225 0.007776 -0.002916 0.000000 0.000000 0.000000
# 3 -0.004955 -0.002916 0.019260 0.000000 0.000000 0.000000
# 4 0.000000 0.000000 0.000000 0.036886 0.000000 0.000000
# 5 0.000000 0.000000 0.000000 0.000000 0.039383 0.000000
# 6 0.000000 0.000000 0.000000 0.000000 0.000000 0.021953
#
#
# Mechanical properties :
#
#
# Convention : Reuss Voigt Hill
#
# Bulk Modulus (GPa) = 66.47944 83.63751 75.05847
# Shear Modulus (GPa) = 31.51333 35.80392 33.65862
#
# Velocity S-wave (km/s) = 4.03075 4.29639 4.16569
# Velocity P-wave (km/s) = 7.47908 8.22994 7.86348
#
# Compressibility (1/GPa) = 0.01504225
#
# Stress axis : x y z
#
# Youngs Moduli (GPa) = 121.96538 128.60522 51.92237
#
# Poissons Ratio (x) = 0.28611 0.25729
# Poissons Ratio (y) = 0.27134 0.15140
# Poissons Ratio (z) = 0.60438 0.37501
#
# Static dielectric constant tensor:
#      x y z
#    x 3.658950 0.000000 0.000000 
#    y 0.000000 4.036640 0.000000 
#    z 0.000000 0.000000 3.431640 
# 
# 
# High freq. dielectric constant tensor:
#      x y z
#    x 1.761730 0.000000 0.000000 
#    y 0.000000 1.778680 0.000000 
#    z 0.000000 0.000000 1.737170 
# 
# From -- ./inp_files/46557.got.cif
#   From: 2010.03.12/outbox.cif.g09.slc.cpg/sg63_24_cif.got.tgz:46557.got - 2010.04.10 19:34:48.
