data_PCOD8258972
_publ_section_title
;
Structure prediction by ZEFSAII (Michael W. Deem and Ramdas Pophale) SiO2 
 PCOD8258972
Probable space group: C M C M
;
_chemical_formula_sum "Si O2"
_cell_formula_units_Z 88
_cell_length_a 19.270110
_cell_length_b 27.297090
_cell_length_c 8.647094
_cell_angle_alpha 90.000000
_cell_angle_beta 90.000000
_cell_angle_gamma 90.000000
_cell_volume 4548.526460
_symmetry_space_group_name_H-M "C M C M"
_symmetry_group_IT_number 63
_symmetry_cell_setting 'orthorhombic'
loop_
_space_group_symop_operation_xyz
x,y,z
-x,-y,1/2+z
x,-y,-z
-x,y,1/2-z
-x,-y,-z
x,y,1/2-z
-x,y,z
x,-y,1/2+z
1/2+x,1/2+y,z
1/2-x,1/2-y,1/2+z
1/2+x,1/2-y,-z
1/2-x,1/2+y,1/2-z
1/2-x,1/2-y,-z
1/2+x,1/2+y,1/2-z
1/2-x,1/2+y,z
1/2+x,1/2-y,1/2+z
loop_
_atom_site_type_symbol
_atom_site_label
_atom_site_fract_x
_atom_site_fract_y
_atom_site_fract_z
Si Si1 0.578799 0.773044 0.434556
Si Si2 0.185277 0.805598 0.921148
Si Si3 0.174767 0.651563 0.434846
Si Si4 0.000000 0.053009 0.930894
Si Si5 0.276441 0.051287 0.566875
Si Si6 0.862234 0.084980 0.076877
O O1 0.580706 0.774778 0.250000
O O2 0.500000 0.762697 0.490873
O O3 0.631457 0.731648 0.504597
O O4 0.603299 0.825047 0.504762
O O5 0.197504 0.784472 0.750000
O O6 0.261377 0.813745 0.999443
O O7 0.150352 0.857938 0.913279
O O8 0.178606 0.648483 0.250000
O O9 0.179358 0.596481 0.499172
O O10 0.000000 0.049647 0.750000
O O11 0.933382 0.081664 0.987273
O O12 0.000000 0.000000 0.000000
O O13 0.282880 0.051261 0.750000
O O14 0.196550 0.056194 0.516621
O O15 0.306064 0.000000 0.500000
O O16 0.866379 0.062445 0.250000
#
# Coordination Sequence:
#
# PCOD8258972 Si02
#       6
#    16  16  16   8  16  16
#     4  10  20  34  55  82 112 147 188 229 276 333
#     4   8  17  33  55  80 106 143 187 228 273 326
#     4  10  20  36  56  81 113 147 187 230 276 328
#     4  12  24  36  48  68 100 144 190 234 283 332
#     4  11  21  36  58  83 110 139 178 226 277 331
#     4  10  20  35  54  77 106 142 185 231 279 328
#
# _framework density 19.346923
#
# number of rings (size 3 to 8) (size 9 to 14) (size 15 to 20)
#    0.000    2.000    0.000    5.727    1.273    0.364 
#    0.000    4.545    0.000    0.545    0.000    0.000 
#    0.000    0.000    0.000    0.000    0.000    0.000 
#
# Total GULP energy -545398.608098 kJ/mol
# GULP energy per Si atom -12395.422911 kJ/mol
# Density = 1.930289 g / cm^3
# Si number density = 19.346923 Si / 1000 Ang^3
#
#
#
# Elastic Constant Matrix: (Units=GPa)
#
#
# Indices 1 2 3 4 5 6 
#
# 1 78.5040 50.5360 30.5870 0.0000 0.0000 0.0000
# 2 50.5360 96.3886 28.9314 0.0000 0.0000 0.0000
# 3 30.5870 28.9314 96.1861 0.0000 0.0000 0.0000
# 4 0.0000 0.0000 0.0000 26.6775 0.0000 0.0000
# 5 0.0000 0.0000 0.0000 0.0000 25.4378 0.0000
# 6 0.0000 0.0000 0.0000 0.0000 0.0000 9.9079
#
#
#
# Elastic Compliance Matrix: (Units=1/GPa)
#
#
# Indices 1 2 3 4 5 6 
#
# 1 0.020287 -0.009564 -0.003575 0.000000 0.000000 0.000000
# 2 -0.009564 0.015913 -0.001745 0.000000 0.000000 0.000000
# 3 -0.003575 -0.001745 0.012058 0.000000 0.000000 0.000000
# 4 0.000000 0.000000 0.000000 0.037485 0.000000 0.000000
# 5 0.000000 0.000000 0.000000 0.000000 0.039312 0.000000
# 6 0.000000 0.000000 0.000000 0.000000 0.000000 0.100930
#
#
# Mechanical properties :
#
#
# Convention : Reuss Voigt Hill
#
# Bulk Modulus (GPa) = 54.07941 54.57638 54.32789
# Shear Modulus (GPa) = 19.09014 23.13958 21.11486
#
# Velocity S-wave (km/s) = 3.14463 3.46212 3.30719
# Velocity P-wave (km/s) = 6.41857 6.65224 6.53645
#
# Compressibility (1/GPa) = 0.01849133
#
# Stress axis : x y z
#
# Youngs Moduli (GPa) = 49.29145 62.84316 82.93132
#
# Poissons Ratio (x) = 0.60101 0.29646
# Poissons Ratio (y) = 0.47141 0.14472
# Poissons Ratio (z) = 0.17621 0.10967
#
# Static dielectric constant tensor:
#      x y z
#    x 3.469700 0.000000 0.000000 
#    y 0.000000 3.598090 0.000000 
#    z 0.000000 0.000000 1.716250 
# 
# 
# High freq. dielectric constant tensor:
#      x y z
#    x 1.736310 0.000000 0.000000 
#    y 0.000000 1.759720 0.000000 
#    z 0.000000 0.000000 1.744440 
# 
# From -- ./inp_files/6774.got.cif
#   From: 2010.03.12/outbox.cif.g09.slc.cpg/sg63_4_cif.got.tgz:6774.got - 2010.04.10 19:34:48.
