data_PCOD8258472
_publ_section_title
;
Structure prediction by ZEFSAII (Michael W. Deem and Ramdas Pophale) SiO2 
 PCOD8258472
Probable space group: C M C M
;
_chemical_formula_sum "Si O2"
_cell_formula_units_Z 96
_cell_length_a 9.445538
_cell_length_b 22.781808
_cell_length_c 23.612504
_cell_angle_alpha 90.000000
_cell_angle_beta 90.000000
_cell_angle_gamma 90.000000
_cell_volume 5081.090514
_symmetry_space_group_name_H-M "C M C M"
_symmetry_group_IT_number 63
_symmetry_cell_setting 'orthorhombic'
loop_
_space_group_symop_operation_xyz
x,y,z
-x,-y,1/2+z
x,-y,-z
-x,y,1/2-z
-x,-y,-z
x,y,1/2-z
-x,y,z
x,-y,1/2+z
1/2+x,1/2+y,z
1/2-x,1/2-y,1/2+z
1/2+x,1/2-y,-z
1/2-x,1/2+y,1/2-z
1/2-x,1/2-y,-z
1/2+x,1/2+y,1/2-z
1/2-x,1/2+y,z
1/2+x,1/2-y,1/2+z
loop_
_atom_site_type_symbol
_atom_site_label
_atom_site_fract_x
_atom_site_fract_y
_atom_site_fract_z
Si Si1 0.835925 0.438827 0.315097
Si Si2 0.667444 0.658883 0.311018
Si Si3 0.666202 0.386242 0.981995
Si Si4 0.831897 0.772962 0.585057
Si Si5 0.335721 0.141707 0.584047
Si Si6 0.164733 0.041689 0.127827
O O1 0.779754 0.431807 0.250000
O O2 0.813435 0.378592 0.350689
O O3 0.754714 0.486816 0.351901
O O4 0.000000 0.456403 0.313650
O O5 0.736420 0.671382 0.250000
O O6 0.500000 0.666563 0.309132
O O7 0.732193 0.705113 0.355152
O O8 0.702825 0.592758 0.328424
O O9 0.500000 0.388163 0.994449
O O10 0.713844 0.320740 0.961852
O O11 0.704919 0.435741 0.935389
O O12 0.749980 0.399674 0.040075
O O13 0.773928 0.707546 0.575411
O O14 0.000000 0.771760 0.588820
O O15 0.500000 0.138244 0.567501
O O16 0.000000 0.024630 0.130005
#
# Coordination Sequence:
#
# PCOD8258472 Si02
#       6
#    16  16  16  16  16  16
#     4  10  22  37  50  69 100 134 165 198 237 284
#     4   8  13  23  44  73  97 118 154 205 250 284
#     4   9  18  33  53  77 101 123 156 205 252 288
#     4   8  15  28  46  70  99 128 158 196 242 288
#     4  10  20  33  50  72  99 132 165 194 233 291
#     4   9  18  33  53  75  97 124 162 206 248 289
#
# _framework density 18.893583
#
# number of rings (size 3 to 8) (size 9 to 14) (size 15 to 20)
#    0.000    3.000    0.000    3.000    0.000    3.667 
#    0.000    6.667    0.000    1.000    0.000    0.000 
#    0.000    0.000    0.000    0.000    0.000    0.000 
#
# Total GULP energy -594750.693575 kJ/mol
# GULP energy per Si atom -12390.639449 kJ/mol
# Density = 1.885058 g / cm^3
# Si number density = 18.893583 Si / 1000 Ang^3
#
#
#
# Elastic Constant Matrix: (Units=GPa)
#
#
# Indices 1 2 3 4 5 6 
#
# 1 32.7507 25.3831 33.4722 0.0000 0.0000 0.0000
# 2 25.3831 64.2504 35.3932 0.0000 0.0000 0.0000
# 3 33.4722 35.3932 129.1753 0.0000 0.0000 0.0000
# 4 0.0000 0.0000 0.0000 20.9767 0.0000 0.0000
# 5 0.0000 0.0000 0.0000 0.0000 25.5702 0.0000
# 6 0.0000 0.0000 0.0000 0.0000 0.0000 21.6714
#
#
#
# Elastic Compliance Matrix: (Units=1/GPa)
#
#
# Indices 1 2 3 4 5 6 
#
# 1 0.051923 -0.015430 -0.009226 0.000000 0.000000 0.000000
# 2 -0.015430 0.022916 -0.002281 0.000000 0.000000 0.000000
# 3 -0.009226 -0.002281 0.010757 0.000000 0.000000 0.000000
# 4 0.000000 0.000000 0.000000 0.047672 0.000000 0.000000
# 5 0.000000 0.000000 0.000000 0.000000 0.039108 0.000000
# 6 0.000000 0.000000 0.000000 0.000000 0.000000 0.046144
#
#
# Mechanical properties :
#
#
# Convention : Reuss Voigt Hill
#
# Bulk Modulus (GPa) = 31.52463 46.07483 38.79973
# Shear Modulus (GPa) = 17.66982 22.43884 20.05433
#
# Velocity S-wave (km/s) = 3.06147 3.44996 3.26150
# Velocity P-wave (km/s) = 5.40540 6.34894 5.89608
#
# Compressibility (1/GPa) = 0.03172123
#
# Stress axis : x y z
#
# Youngs Moduli (GPa) = 19.25946 43.63690 92.96203
#
# Poissons Ratio (x) = 0.67333 0.85771
# Poissons Ratio (y) = 0.29718 0.21201
# Poissons Ratio (z) = 0.17770 0.09952
#
# Static dielectric constant tensor:
#      x y z
#    x 2.981280 0.000000 0.000000 
#    y 0.000000 3.511120 0.000000 
#    z 0.000000 0.000000 3.000900 
# 
# 
# High freq. dielectric constant tensor:
#      x y z
#    x 1.687170 0.000000 0.000000 
#    y 0.000000 1.728680 0.000000 
#    z 0.000000 0.000000 1.749020 
# 
# From -- ./inp_files/59942.got.cif
#   From: 2010.03.12/outbox.cif.g09.slc.cpg/sg63_30_cif.got.tgz:59942.got - 2010.04.10 19:34:48.
