data_PCOD8258471
_publ_section_title
;
Structure prediction by ZEFSAII (Michael W. Deem and Ramdas Pophale) SiO2 
 PCOD8258471
Probable space group: C M C M
;
_chemical_formula_sum "Si O2"
_cell_formula_units_Z 96
_cell_length_a 30.003016
_cell_length_b 19.191536
_cell_length_c 9.145435
_cell_angle_alpha 90.000000
_cell_angle_beta 90.000000
_cell_angle_gamma 90.000000
_cell_volume 5265.977704
_symmetry_space_group_name_H-M "C M C M"
_symmetry_group_IT_number 63
_symmetry_cell_setting 'orthorhombic'
loop_
_space_group_symop_operation_xyz
x,y,z
-x,-y,1/2+z
x,-y,-z
-x,y,1/2-z
-x,-y,-z
x,y,1/2-z
-x,y,z
x,-y,1/2+z
1/2+x,1/2+y,z
1/2-x,1/2-y,1/2+z
1/2+x,1/2-y,-z
1/2-x,1/2+y,1/2-z
1/2-x,1/2-y,-z
1/2+x,1/2+y,1/2-z
1/2-x,1/2+y,z
1/2+x,1/2-y,1/2+z
loop_
_atom_site_type_symbol
_atom_site_label
_atom_site_fract_x
_atom_site_fract_y
_atom_site_fract_z
Si Si1 0.201484 0.569948 0.420179
Si Si2 0.050584 0.570936 0.421575
Si Si3 0.126237 0.673106 0.423035
Si Si4 0.696015 0.428730 0.578127
Si Si5 0.871115 0.830013 0.422641
Si Si6 0.050276 0.930788 0.420071
O O1 0.186033 0.500000 0.500000
O O2 0.193892 0.556467 0.250000
O O3 0.170914 0.633611 0.476370
O O4 0.252516 0.588303 0.455500
O O5 0.064727 0.500000 0.500000
O O6 0.056831 0.558680 0.250000
O O7 0.082518 0.632370 0.479922
O O8 0.000000 0.592129 0.460698
O O9 0.124801 0.677087 0.250000
O O10 0.125897 0.751499 0.484131
O O11 0.681219 0.500000 0.500000
O O12 0.686516 0.436053 0.750000
O O13 0.668671 0.365653 0.510234
O O14 0.860770 0.833434 0.250000
O O15 0.917968 0.866596 0.460823
O O16 0.052111 0.947613 0.250000
O O17 0.000000 0.911505 0.469922
O O18 0.067669 0.000000 0.500000
#
# Coordination Sequence:
#
# PCOD8258471 Si02
#       6
#    16  16  16  16  16  16
#     4   9  18  33  52  72  95 126 163 201 239 281
#     4   9  17  30  50  74  98 127 164 204 243 284
#     4   9  18  32  49  71 100 131 161 195 239 289
#     4  10  20  34  52  73  96 124 161 202 241 283
#     4  10  20  33  50  72  99 130 160 194 239 289
#     4   9  18  32  50  71  93 120 156 195 233 276
#
# _framework density 18.230233999999999
#
# number of rings (size 3 to 8) (size 9 to 14) (size 15 to 20)
#    0.000    2.667    0.000    1.500    0.000    4.000 
#    0.000    5.000    0.000    0.000    0.000    4.667 
#    0.000    0.000    0.000    0.000    0.000    0.000 
#
# Total GULP energy -595237.527713 kJ/mol
# GULP energy per Si atom -12400.781827 kJ/mol
# Density = 1.818874 g / cm^3
# Si number density = 18.230234 Si / 1000 Ang^3
#
#
#
# Elastic Constant Matrix: (Units=GPa)
#
#
# Indices 1 2 3 4 5 6 
#
# 1 117.3513 98.3330 38.5616 0.0000 0.0000 0.0000
# 2 98.3330 187.7358 48.3279 0.0000 0.0000 0.0000
# 3 38.5616 48.3279 41.3844 0.0000 0.0000 0.0000
# 4 0.0000 0.0000 0.0000 26.3043 0.0000 0.0000
# 5 0.0000 0.0000 0.0000 0.0000 19.4056 0.0000
# 6 0.0000 0.0000 0.0000 0.0000 0.0000 23.9763
#
#
#
# Elastic Compliance Matrix: (Units=1/GPa)
#
#
# Indices 1 2 3 4 5 6 
#
# 1 0.016727 -0.006791 -0.007657 0.000000 0.000000 0.000000
# 2 -0.006791 0.010373 -0.005786 0.000000 0.000000 0.000000
# 3 -0.007657 -0.005786 0.038055 0.000000 0.000000 0.000000
# 4 0.000000 0.000000 0.000000 0.038017 0.000000 0.000000
# 5 0.000000 0.000000 0.000000 0.000000 0.051531 0.000000
# 6 0.000000 0.000000 0.000000 0.000000 0.000000 0.041708
#
#
# Mechanical properties :
#
#
# Convention : Reuss Voigt Hill
#
# Bulk Modulus (GPa) = 40.50399 79.65741 60.08070
# Shear Modulus (GPa) = 20.39932 24.68719 22.54325
#
# Velocity S-wave (km/s) = 3.34875 3.68392 3.52033
# Velocity P-wave (km/s) = 6.10069 7.86671 7.03930
#
# Compressibility (1/GPa) = 0.02468893
#
# Stress axis : x y z
#
# Youngs Moduli (GPa) = 59.78200 96.40559 26.27807
#
# Poissons Ratio (x) = 0.65465 0.20120
# Poissons Ratio (y) = 0.40595 0.15204
# Poissons Ratio (z) = 0.45773 0.55778
#
# Static dielectric constant tensor:
#      x y z
#    x 3.582190 0.000000 0.000000 
#    y 0.000000 3.527110 0.000000 
#    z 0.000000 0.000000 3.172470 
# 
# 
# High freq. dielectric constant tensor:
#      x y z
#    x 1.720130 0.000000 0.000000 
#    y 0.000000 1.702780 0.000000 
#    z 0.000000 0.000000 1.684690 
# 
# From -- ./inp_files/25014.got.cif
#   From: 2010.03.12/outbox.cif.g09.slc.cpg/sg63_13_cif.got.tgz:25014.got - 2010.04.10 19:34:48.
