data_PCOD8258148
_publ_section_title
;
Structure prediction by ZEFSAII (Michael W. Deem and Ramdas Pophale) SiO2 
 PCOD8258148
Probable space group: C M C M
;
_chemical_formula_sum "Si O2"
_cell_formula_units_Z 52
_cell_length_a 9.666938
_cell_length_b 15.995180
_cell_length_c 19.012172
_cell_angle_alpha 90.000000
_cell_angle_beta 90.000000
_cell_angle_gamma 90.000000
_cell_volume 2939.745942
_symmetry_space_group_name_H-M "C M C M"
_symmetry_group_IT_number 63
_symmetry_cell_setting 'orthorhombic'
loop_
_space_group_symop_operation_xyz
x,y,z
-x,-y,1/2+z
x,-y,-z
-x,y,1/2-z
-x,-y,-z
x,y,1/2-z
-x,y,z
x,-y,1/2+z
1/2+x,1/2+y,z
1/2-x,1/2-y,1/2+z
1/2+x,1/2-y,-z
1/2-x,1/2+y,1/2-z
1/2-x,1/2-y,-z
1/2+x,1/2+y,1/2-z
1/2-x,1/2+y,z
1/2+x,1/2-y,1/2+z
loop_
_atom_site_type_symbol
_atom_site_label
_atom_site_fract_x
_atom_site_fract_y
_atom_site_fract_z
Si Si1 0.269425 0.664840 0.383370
Si Si2 0.348037 0.919570 0.750000
Si Si3 0.000000 0.270656 0.963080
Si Si4 0.500000 0.792132 0.126152
Si Si5 0.000000 0.579099 0.750000
Si Si6 0.000000 0.904776 0.522791
O O1 0.233098 0.606848 0.318598
O O2 0.360765 0.741796 0.355194
O O3 0.359976 0.606923 0.433763
O O4 0.135295 0.697924 0.423491
O O5 0.500000 0.876279 0.750000
O O6 0.363381 0.020437 0.750000
O O7 0.000000 0.309844 0.042053
O O8 0.000000 0.168781 0.963506
O O9 0.500000 0.871704 0.176527
O O10 0.000000 0.000000 0.500000
#
# Coordination Sequence:
#
# PCOD8258148 Si02
#       6
#    16   8   8   8   4   8
#     4  10  20  38  59  79 112 150 184 226 273 336
#     4  10  21  36  55  82 111 141 192 230 271 322
#     4  10  19  37  59  83 107 148 185 223 267 341
#     4  10  20  35  58  82 108 145 184 222 281 329
#     4  10  22  36  52  84 108 142 186 232 266 328
#     4  10  22  36  56  87 115 140 182 236 289 324
#
# _framework density 17.688603000000001
#
# number of rings (size 3 to 8) (size 9 to 14) (size 15 to 20)
#    0.462    1.846    1.538    4.615    0.000    6.769 
#    0.000    2.308    0.000    3.692    0.000    0.000 
#    0.000    0.000    0.000    0.000    0.000    0.000 
#
# Total GULP energy -322184.416778 kJ/mol
# GULP energy per Si atom -12391.708338 kJ/mol
# Density = 1.764834 g / cm^3
# Si number density = 17.688603 Si / 1000 Ang^3
#
#
#
# Elastic Constant Matrix: (Units=GPa)
#
#
# Indices 1 2 3 4 5 6 
#
# 1 147.0804 72.1174 57.0737 0.0000 0.0000 0.0000
# 2 72.1174 149.6124 94.5313 0.0000 0.0000 0.0000
# 3 57.0737 94.5313 99.7039 0.0000 0.0000 0.0000
# 4 0.0000 0.0000 0.0000 24.3483 0.0000 0.0000
# 5 0.0000 0.0000 0.0000 0.0000 42.5367 0.0000
# 6 0.0000 0.0000 0.0000 0.0000 0.0000 22.5382
#
#
#
# Elastic Compliance Matrix: (Units=1/GPa)
#
#
# Indices 1 2 3 4 5 6 
#
# 1 0.009174 -0.002754 -0.002641 0.000000 0.000000 0.000000
# 2 -0.002754 0.017497 -0.015013 0.000000 0.000000 0.000000
# 3 -0.002641 -0.015013 0.025776 0.000000 0.000000 0.000000
# 4 0.000000 0.000000 0.000000 0.041071 0.000000 0.000000
# 5 0.000000 0.000000 0.000000 0.000000 0.023509 0.000000
# 6 0.000000 0.000000 0.000000 0.000000 0.000000 0.044369
#
#
# Mechanical properties :
#
#
# Convention : Reuss Voigt Hill
#
# Bulk Modulus (GPa) = 85.97162 93.76018 89.86590
# Shear Modulus (GPa) = 24.26147 29.39625 26.82886
#
# Velocity S-wave (km/s) = 3.70751 4.08103 3.89875
# Velocity P-wave (km/s) = 8.18754 8.67914 8.43692
#
# Compressibility (1/GPa) = 0.01163175
#
# Stress axis : x y z
#
# Youngs Moduli (GPa) = 109.00542 57.15181 38.79615
#
# Poissons Ratio (x) = 0.15737 0.10245
# Poissons Ratio (y) = 0.30015 0.58246
# Poissons Ratio (z) = 0.28785 0.85804
#
# Static dielectric constant tensor:
#      x y z
#    x 3.417640 0.000000 0.000000 
#    y 0.000000 3.156660 0.000000 
#    z 0.000000 0.000000 3.260610 
# 
# 
# High freq. dielectric constant tensor:
#      x y z
#    x 1.700950 0.000000 0.000000 
#    y 0.000000 1.671750 0.000000 
#    z 0.000000 0.000000 1.686750 
# 
# From -- ./inp_files/39563.got.cif
#   From: 2010.03.12/outbox.cif.g09.slc.cpg/sg63_20_cif.got.tgz:39563.got - 2010.04.10 19:34:48.
