data_PCOD8258823
_publ_section_title
;
Structure prediction by ZEFSAII (Michael W. Deem and Ramdas Pophale) SiO2 
 PCOD8258823
Probable space group: C M C M
;
_chemical_formula_sum "Si O2"
_cell_formula_units_Z 80
_cell_length_a 9.241639
_cell_length_b 18.586097
_cell_length_c 25.649349
_cell_angle_alpha 90.000000
_cell_angle_beta 90.000000
_cell_angle_gamma 90.000000
_cell_volume 4405.686052
_symmetry_space_group_name_H-M "C M C M"
_symmetry_group_IT_number 63
_symmetry_cell_setting 'orthorhombic'
loop_
_space_group_symop_operation_xyz
x,y,z
-x,-y,1/2+z
x,-y,-z
-x,y,1/2-z
-x,-y,-z
x,y,1/2-z
-x,y,z
x,-y,1/2+z
1/2+x,1/2+y,z
1/2-x,1/2-y,1/2+z
1/2+x,1/2-y,-z
1/2-x,1/2+y,1/2-z
1/2-x,1/2-y,-z
1/2+x,1/2+y,1/2-z
1/2-x,1/2+y,z
1/2+x,1/2-y,1/2+z
loop_
_atom_site_type_symbol
_atom_site_label
_atom_site_fract_x
_atom_site_fract_y
_atom_site_fract_z
Si Si1 0.331412 0.544657 0.348280
Si Si2 0.328408 0.453215 0.250000
Si Si3 0.668233 0.788332 0.953475
Si Si4 0.166811 0.456403 0.549334
Si Si5 0.830895 0.302990 0.250000
Si Si6 0.331682 0.710156 0.350061
O O1 0.500000 0.533420 0.357661
O O2 0.274895 0.497158 0.300351
O O3 0.251421 0.517131 0.399838
O O4 0.295244 0.627687 0.336100
O O5 0.500000 0.445008 0.250000
O O6 0.258022 0.375654 0.250000
O O7 0.500000 0.766946 0.953906
O O8 0.692047 0.872768 0.961317
O O9 0.737289 0.762960 0.898885
O O10 0.750000 0.750000 0.000000
O O11 0.228183 0.500000 0.500000
O O12 0.000000 0.474990 0.558803
O O13 0.787136 0.257519 0.300666
O O14 0.000000 0.320985 0.250000
O O15 0.500000 0.719191 0.364394
#
# Coordination Sequence:
#
# PCOD8258823 Si02
#       6
#    16   8  16  16   8  16
#     4   9  18  34  55  75  98 132 171 208 247 295
#     4  10  21  35  51  77 109 134 162 208 260 302
#     4  10  20  34  53  77 104 135 170 209 254 302
#     4   9  19  35  53  74 101 132 167 208 251 295
#     4  10  21  35  53  77 103 134 170 208 254 304
#     4   9  18  35  56  75  98 133 176 214 249 297
#
# _framework density 18.158352000000001
#
# number of rings (size 3 to 8) (size 9 to 14) (size 15 to 20)
#    0.000    2.600    0.000    1.200    0.000    6.800 
#    0.000    6.000    0.000    6.000    0.000    0.000 
#    0.000    0.000    0.000    0.000    0.000    0.000 
#
# Total GULP energy -496117.417367 kJ/mol
# GULP energy per Si atom -12402.935434 kJ/mol
# Density = 1.811702 g / cm^3
# Si number density = 18.158352 Si / 1000 Ang^3
#
#
#
# Elastic Constant Matrix: (Units=GPa)
#
#
# Indices 1 2 3 4 5 6 
#
# 1 70.0878 46.1986 79.1407 0.0000 0.0000 0.0000
# 2 46.1986 84.6632 87.3658 0.0000 0.0000 0.0000
# 3 79.1407 87.3658 197.7606 0.0000 0.0000 0.0000
# 4 0.0000 0.0000 0.0000 39.0117 0.0000 0.0000
# 5 0.0000 0.0000 0.0000 0.0000 34.1750 0.0000
# 6 0.0000 0.0000 0.0000 0.0000 0.0000 29.5877
#
#
#
# Elastic Compliance Matrix: (Units=1/GPa)
#
#
# Indices 1 2 3 4 5 6 
#
# 1 0.028030 -0.006837 -0.008197 0.000000 0.000000 0.000000
# 2 -0.006837 0.023375 -0.007591 0.000000 0.000000 0.000000
# 3 -0.008197 -0.007591 0.011690 0.000000 0.000000 0.000000
# 4 0.000000 0.000000 0.000000 0.025633 0.000000 0.000000
# 5 0.000000 0.000000 0.000000 0.000000 0.029261 0.000000
# 6 0.000000 0.000000 0.000000 0.000000 0.000000 0.033798
#
#
# Mechanical properties :
#
#
# Convention : Reuss Voigt Hill
#
# Bulk Modulus (GPa) = 56.03238 86.43576 71.23407
# Shear Modulus (GPa) = 24.63244 29.87531 27.25387
#
# Velocity S-wave (km/s) = 3.68711 4.06059 3.87835
# Velocity P-wave (km/s) = 7.00364 8.34799 7.70519
#
# Compressibility (1/GPa) = 0.01784682
#
# Stress axis : x y z
#
# Youngs Moduli (GPa) = 35.67631 42.78076 85.54205
#
# Poissons Ratio (x) = 0.29248 0.70117
# Poissons Ratio (y) = 0.24391 0.64931
# Poissons Ratio (z) = 0.29243 0.32473
#
# Static dielectric constant tensor:
#      x y z
#    x 3.324210 0.000000 0.000000 
#    y 0.000000 3.303040 0.000000 
#    z 0.000000 0.000000 3.634890 
# 
# 
# High freq. dielectric constant tensor:
#      x y z
#    x 1.699180 0.000000 0.000000 
#    y 0.000000 1.697780 0.000000 
#    z 0.000000 0.000000 1.716860 
# 
# From -- ./inp_files/66807.got.cif
#   From: 2010.03.12/outbox.cif.g09.slc.cpg/sg63_34_cif.got.tgz:66807.got - 2010.04.10 19:34:48.
