data_PCOD8258428
_publ_section_title
;
Structure prediction by ZEFSAII (Michael W. Deem and Ramdas Pophale) SiO2 
 PCOD8258428
Probable space group: C M C M
;
_chemical_formula_sum "Si O2"
_cell_formula_units_Z 112
_cell_length_a 9.369746
_cell_length_b 27.753671
_cell_length_c 24.590340
_cell_angle_alpha 90.000000
_cell_angle_beta 90.000000
_cell_angle_gamma 90.000000
_cell_volume 6394.591224
_symmetry_space_group_name_H-M "C M C M"
_symmetry_group_IT_number 63
_symmetry_cell_setting 'orthorhombic'
loop_
_space_group_symop_operation_xyz
x,y,z
-x,-y,1/2+z
x,-y,-z
-x,y,1/2-z
-x,-y,-z
x,y,1/2-z
-x,y,z
x,-y,1/2+z
1/2+x,1/2+y,z
1/2-x,1/2-y,1/2+z
1/2+x,1/2-y,-z
1/2-x,1/2+y,1/2-z
1/2-x,1/2-y,-z
1/2+x,1/2+y,1/2-z
1/2-x,1/2+y,z
1/2+x,1/2-y,1/2+z
loop_
_atom_site_type_symbol
_atom_site_label
_atom_site_fract_x
_atom_site_fract_y
_atom_site_fract_z
Si Si1 0.844099 0.368218 0.186174
Si Si2 0.665683 0.277999 0.311314
Si Si3 0.329738 0.025770 0.809369
Si Si4 0.330877 0.920782 0.010171
Si Si5 0.336581 0.233375 0.421184
Si Si6 0.331328 0.010549 0.080880
Si Si7 0.334246 0.675592 0.995751
O O1 0.863835 0.364135 0.250000
O O2 0.740867 0.326087 0.166340
O O3 0.777966 0.420720 0.172921
O O4 0.000000 0.361891 0.158083
O O5 0.715799 0.262341 0.250000
O O6 0.500000 0.290428 0.310521
O O7 0.697614 0.236764 0.356306
O O8 0.267452 0.010649 0.750000
O O9 0.500000 0.027250 0.805672
O O10 0.277211 0.988718 0.856215
O O11 0.500000 0.910544 0.013584
O O12 0.284038 0.940986 0.950370
O O13 0.278426 0.961466 0.052355
O O14 0.245607 0.872464 0.023521
O O15 0.500000 0.216983 0.430514
O O16 0.310140 0.285165 0.448824
O O17 0.233364 0.193734 0.447349
O O18 0.500000 0.008178 0.078317
O O19 0.500000 0.664749 0.005792
#
# Coordination Sequence:
#
# PCOD8258428 Si02
#       7
#    16  16  16  16  16  16  16
#     4   8  14  23  36  59  89 118 146 175 211 258
#     4   9  17  29  45  65  91 120 146 178 223 273
#     4   8  13  22  38  62  91 118 146 184 222 258
#     4   9  17  30  48  67  90 120 152 189 229 267
#     4   9  19  34  49  68  93 120 152 187 226 274
#     4   8  15  27  43  66  91 119 155 185 219 270
#     4  10  20  33  49  69  92 119 154 193 231 270
#
# _framework density 17.514802
#
# number of rings (size 3 to 8) (size 9 to 14) (size 15 to 20)
#    0.000    3.286    0.000    2.143    2.000    1.143 
#    0.000    1.429    0.000    1.714    0.000    4.000 
#    0.000    0.000    0.000    0.000    0.000    0.000 
#
# Total GULP energy -693776.759057 kJ/mol
# GULP energy per Si atom -12388.870697 kJ/mol
# Density = 1.747494 g / cm^3
# Si number density = 17.514802 Si / 1000 Ang^3
#
#
#
# Elastic Constant Matrix: (Units=GPa)
#
#
# Indices 1 2 3 4 5 6 
#
# 1 43.6698 18.9780 14.9526 0.0000 0.0000 0.0000
# 2 18.9780 41.9811 7.7226 0.0000 0.0000 0.0000
# 3 14.9526 7.7226 87.9202 0.0000 0.0000 0.0000
# 4 0.0000 0.0000 0.0000 21.1160 0.0000 0.0000
# 5 0.0000 0.0000 0.0000 0.0000 13.7906 0.0000
# 6 0.0000 0.0000 0.0000 0.0000 0.0000 19.5244
#
#
#
# Elastic Compliance Matrix: (Units=1/GPa)
#
#
# Indices 1 2 3 4 5 6 
#
# 1 0.029787 -0.012739 -0.003947 0.000000 0.000000 0.000000
# 2 -0.012739 0.029660 -0.000439 0.000000 0.000000 0.000000
# 3 -0.003947 -0.000439 0.012084 0.000000 0.000000 0.000000
# 4 0.000000 0.000000 0.000000 0.047357 0.000000 0.000000
# 5 0.000000 0.000000 0.000000 0.000000 0.072513 0.000000
# 6 0.000000 0.000000 0.000000 0.000000 0.000000 0.051218
#
#
# Mechanical properties :
#
#
# Convention : Reuss Voigt Hill
#
# Bulk Modulus (GPa) = 26.82358 28.54196 27.68277
# Shear Modulus (GPa) = 17.28334 19.68071 18.48203
#
# Velocity S-wave (km/s) = 3.14472 3.35574 3.25194
# Velocity P-wave (km/s) = 5.34170 5.59875 5.47173
#
# Compressibility (1/GPa) = 0.03728064
#
# Stress axis : x y z
#
# Youngs Moduli (GPa) = 33.57188 33.71559 82.75590
#
# Poissons Ratio (x) = 0.42952 0.32663
# Poissons Ratio (y) = 0.42769 0.03630
# Poissons Ratio (z) = 0.13250 0.01479
#
# Static dielectric constant tensor:
#      x y z
#    x 3.138850 0.000000 0.000000 
#    y 0.000000 3.087530 0.000000 
#    z 0.000000 0.000000 3.641940 
# 
# 
# High freq. dielectric constant tensor:
#      x y z
#    x 1.641110 0.000000 0.000000 
#    y 0.000000 1.644610 0.000000 
#    z 0.000000 0.000000 1.683890 
# 
# From -- ./inp_files/61950.got.cif
#   From: 2010.03.12/outbox.cif.g09.slc.cpg/sg63_31_cif.got.tgz:61950.got - 2010.04.10 19:34:48.
