data_PCOD8258954
_publ_section_title
;
Structure prediction by ZEFSAII (Michael W. Deem and Ramdas Pophale) SiO2 
 PCOD8258954
Probable space group: C M C M
;
_chemical_formula_sum "Si O2"
_cell_formula_units_Z 80
_cell_length_a 23.840006
_cell_length_b 9.934283
_cell_length_c 17.300391
_cell_angle_alpha 90.000000
_cell_angle_beta 90.000000
_cell_angle_gamma 90.000000
_cell_volume 4097.309839
_symmetry_space_group_name_H-M "C M C M"
_symmetry_group_IT_number 63
_symmetry_cell_setting 'orthorhombic'
loop_
_space_group_symop_operation_xyz
x,y,z
-x,-y,1/2+z
x,-y,-z
-x,y,1/2-z
-x,-y,-z
x,y,1/2-z
-x,y,z
x,-y,1/2+z
1/2+x,1/2+y,z
1/2-x,1/2-y,1/2+z
1/2+x,1/2-y,-z
1/2-x,1/2+y,1/2-z
1/2-x,1/2-y,-z
1/2+x,1/2+y,1/2-z
1/2-x,1/2+y,z
1/2+x,1/2-y,1/2+z
loop_
_atom_site_type_symbol
_atom_site_label
_atom_site_fract_x
_atom_site_fract_y
_atom_site_fract_z
Si Si1 0.000000 0.881659 0.664962
Si Si2 0.103135 0.587516 0.929253
Si Si3 0.711058 0.942085 0.160945
Si Si4 0.733400 0.686816 0.082927
Si Si5 0.500000 0.937992 0.336289
Si Si6 0.605491 0.614224 0.063742
O O1 0.941437 0.930894 0.626322
O O2 0.000000 0.946138 0.750000
O O3 0.000000 0.721666 0.670784
O O4 0.148518 0.601174 0.861584
O O5 0.087739 0.735352 0.963607
O O6 0.052189 0.512453 0.887065
O O7 0.125624 0.500000 0.000000
O O8 0.716873 0.984151 0.250000
O O9 0.746432 0.806869 0.143704
O O10 0.726700 0.064387 0.104803
O O11 0.670284 0.626940 0.090721
O O12 0.750000 0.750000 0.000000
O O13 0.500000 0.002291 0.250000
O O14 0.601809 0.500000 0.000000
#
# Coordination Sequence:
#
# PCOD8258954 Si02
#       6
#     8  16  16  16   8  16
#     4   9  19  34  55  81 108 137 178 228 278 329
#     4  10  20  34  55  79 107 142 181 224 271 330
#     4  11  22  36  55  82 112 144 183 231 281 333
#     4  11  22  38  58  82 113 150 189 231 281 341
#     4   9  17  32  53  79 106 137 178 224 272 323
#     4  10  20  35  57  80 105 140 181 226 271 327
#
# _framework density 19.525006000000001
#
# number of rings (size 3 to 8) (size 9 to 14) (size 15 to 20)
#    0.000    1.800    0.000    6.000    0.000    5.600 
#    0.000    0.000    0.000    3.600    0.000    0.000 
#    0.000    0.000    0.000    0.000    0.000    0.000 
#
# Total GULP energy -495530.567091 kJ/mol
# GULP energy per Si atom -12388.264177 kJ/mol
# Density = 1.948057 g / cm^3
# Si number density = 19.525006 Si / 1000 Ang^3
#
#
#
# Elastic Constant Matrix: (Units=GPa)
#
#
# Indices 1 2 3 4 5 6 
#
# 1 94.9446 29.5580 40.2150 0.0000 0.0000 0.0000
# 2 29.5580 97.2312 53.6717 0.0000 0.0000 0.0000
# 3 40.2150 53.6717 123.8711 0.0000 0.0000 0.0000
# 4 0.0000 0.0000 0.0000 30.5479 0.0000 0.0000
# 5 0.0000 0.0000 0.0000 0.0000 26.8966 0.0000
# 6 0.0000 0.0000 0.0000 0.0000 0.0000 13.9773
#
#
#
# Elastic Compliance Matrix: (Units=1/GPa)
#
#
# Indices 1 2 3 4 5 6 
#
# 1 0.012516 -0.002053 -0.003174 0.000000 0.000000 0.000000
# 2 -0.002053 0.013855 -0.005337 0.000000 0.000000 0.000000
# 3 -0.003174 -0.005337 0.011416 0.000000 0.000000 0.000000
# 4 0.000000 0.000000 0.000000 0.032735 0.000000 0.000000
# 5 0.000000 0.000000 0.000000 0.000000 0.037179 0.000000
# 6 0.000000 0.000000 0.000000 0.000000 0.000000 0.071544
#
#
# Mechanical properties :
#
#
# Convention : Reuss Voigt Hill
#
# Bulk Modulus (GPa) = 60.02552 62.54848 61.28700
# Shear Modulus (GPa) = 24.28070 27.12452 25.70261
#
# Velocity S-wave (km/s) = 3.53025 3.73127 3.63215
# Velocity P-wave (km/s) = 6.88669 7.11813 7.00337
#
# Compressibility (1/GPa) = 0.01665958
#
# Stress axis : x y z
#
# Youngs Moduli (GPa) = 79.89864 72.17817 87.59974
#
# Poissons Ratio (x) = 0.14817 0.27803
# Poissons Ratio (y) = 0.16402 0.46748
# Poissons Ratio (z) = 0.25358 0.38518
#
# Static dielectric constant tensor:
#      x y z
#    x 3.727570 0.000000 0.000000 
#    y 0.000000 3.542270 0.000000 
#    z 0.000000 0.000000 3.486220 
# 
# 
# High freq. dielectric constant tensor:
#      x y z
#    x 1.768640 0.000000 0.000000 
#    y 0.000000 1.749210 0.000000 
#    z 0.000000 0.000000 1.750890 
# 
# From -- ./inp_files/36521.got.cif
#   From: 2010.03.12/outbox.cif.g09.slc.cpg/sg63_19_cif.got.tgz:36521.got - 2010.04.10 19:34:48.
