data_PCOD8258800
_publ_section_title
;
Structure prediction by ZEFSAII (Michael W. Deem and Ramdas Pophale) SiO2 
 PCOD8258800
Probable space group: C M C M
;
_chemical_formula_sum "Si O2"
_cell_formula_units_Z 80
_cell_length_a 9.107953
_cell_length_b 25.147948
_cell_length_c 19.438240
_cell_angle_alpha 90.000000
_cell_angle_beta 90.000000
_cell_angle_gamma 90.000000
_cell_volume 4452.257503
_symmetry_space_group_name_H-M "C M C M"
_symmetry_group_IT_number 63
_symmetry_cell_setting 'orthorhombic'
loop_
_space_group_symop_operation_xyz
x,y,z
-x,-y,1/2+z
x,-y,-z
-x,y,1/2-z
-x,-y,-z
x,y,1/2-z
-x,y,z
x,-y,1/2+z
1/2+x,1/2+y,z
1/2-x,1/2-y,1/2+z
1/2+x,1/2-y,-z
1/2-x,1/2+y,1/2-z
1/2-x,1/2-y,-z
1/2+x,1/2+y,1/2-z
1/2-x,1/2+y,z
1/2+x,1/2-y,1/2+z
loop_
_atom_site_type_symbol
_atom_site_label
_atom_site_fract_x
_atom_site_fract_y
_atom_site_fract_z
Si Si1 0.334309 0.494716 0.668178
Si Si2 0.169603 0.687640 0.563323
Si Si3 0.328949 0.309900 0.925093
Si Si4 0.829126 0.400957 0.171399
Si Si5 0.330784 0.109541 0.331242
O O1 0.330529 0.494403 0.750000
O O2 0.500000 0.492054 0.639875
O O3 0.258779 0.548633 0.641406
O O4 0.245485 0.443945 0.640105
O O5 0.267711 0.670908 0.498513
O O6 0.203010 0.747691 0.586174
O O7 0.213097 0.650450 0.627062
O O8 0.000000 0.680847 0.542256
O O9 0.500000 0.323489 0.921537
O O10 0.246211 0.339555 0.864033
O O11 0.784474 0.388433 0.250000
O O12 0.000000 0.415023 0.165953
O O13 0.311412 0.114690 0.250000
O O14 0.500000 0.107667 0.353101
#
# Coordination Sequence:
#
# PCOD8258800 Si02
#       5
#    16  16  16  16  16
#     4   9  17  30  49  74 103 132 162 201 250 298
#     4   9  19  35  53  73 101 137 171 204 248 301
#     4  10  20  34  53  75 101 134 170 210 253 296
#     4   9  17  31  52  76 101 131 167 204 244 295
#     4  10  20  34  53  76 102 133 168 206 249 299
#
# _framework density 17.968413000000002
#
# number of rings (size 3 to 8) (size 9 to 14) (size 15 to 20)
#    0.000    2.600    0.000    1.800    0.000    6.000 
#    0.000    3.000    0.000    8.400    0.000    0.000 
#    0.000    0.000    0.000    0.000    0.000    0.000 
#
# Total GULP energy -496097.682900 kJ/mol
# GULP energy per Si atom -12402.442073 kJ/mol
# Density = 1.792752 g / cm^3
# Si number density = 17.968413 Si / 1000 Ang^3
#
#
#
# Elastic Constant Matrix: (Units=GPa)
#
#
# Indices 1 2 3 4 5 6 
#
# 1 118.4271 66.9446 47.3578 0.0000 0.0000 0.0000
# 2 66.9446 113.7601 50.6911 0.0000 0.0000 0.0000
# 3 47.3578 50.6911 53.9553 0.0000 0.0000 0.0000
# 4 0.0000 0.0000 0.0000 12.4176 0.0000 0.0000
# 5 0.0000 0.0000 0.0000 0.0000 28.1349 0.0000
# 6 0.0000 0.0000 0.0000 0.0000 0.0000 35.3943
#
#
#
# Elastic Compliance Matrix: (Units=1/GPa)
#
#
# Indices 1 2 3 4 5 6 
#
# 1 0.014443 -0.004903 -0.008070 0.000000 0.000000 0.000000
# 2 -0.004903 0.016785 -0.011466 0.000000 0.000000 0.000000
# 3 -0.008070 -0.011466 0.036390 0.000000 0.000000 0.000000
# 4 0.000000 0.000000 0.000000 0.080531 0.000000 0.000000
# 5 0.000000 0.000000 0.000000 0.000000 0.035543 0.000000
# 6 0.000000 0.000000 0.000000 0.000000 0.000000 0.028253
#
#
# Mechanical properties :
#
#
# Convention : Reuss Voigt Hill
#
# Bulk Modulus (GPa) = 53.36550 68.45884 60.91217
# Shear Modulus (GPa) = 18.72171 23.26597 20.99384
#
# Velocity S-wave (km/s) = 3.23139 3.60227 3.42186
# Velocity P-wave (km/s) = 6.60958 7.44876 7.04168
#
# Compressibility (1/GPa) = 0.01873870
#
# Stress axis : x y z
#
# Youngs Moduli (GPa) = 69.23813 59.57720 27.48033
#
# Poissons Ratio (x) = 0.29211 0.22178
# Poissons Ratio (y) = 0.33948 0.31509
# Poissons Ratio (z) = 0.55878 0.68311
#
# Static dielectric constant tensor:
#      x y z
#    x 3.465980 0.000000 0.000000 
#    y 0.000000 3.407830 0.000000 
#    z 0.000000 0.000000 3.078090 
# 
# 
# High freq. dielectric constant tensor:
#      x y z
#    x 1.705550 0.000000 0.000000 
#    y 0.000000 1.702520 0.000000 
#    z 0.000000 0.000000 1.668710 
# 
# From -- ./inp_files/40445.got.cif
#   From: 2010.03.12/outbox.cif.g09.slc.cpg/sg63_21_cif.got.tgz:40445.got - 2010.04.10 19:34:48.
