data_PCOD8258238
_publ_section_title
;
Structure prediction by ZEFSAII (Michael W. Deem and Ramdas Pophale) SiO2 
 PCOD8258238
Probable space group: C M C M
;
_chemical_formula_sum "Si O2"
_cell_formula_units_Z 128
_cell_length_a 22.262724
_cell_length_b 18.521263
_cell_length_c 17.887253
_cell_angle_alpha 90.000000
_cell_angle_beta 90.000000
_cell_angle_gamma 90.000000
_cell_volume 7375.518398
_symmetry_space_group_name_H-M "C M C M"
_symmetry_group_IT_number 63
_symmetry_cell_setting 'orthorhombic'
loop_
_space_group_symop_operation_xyz
x,y,z
-x,-y,1/2+z
x,-y,-z
-x,y,1/2-z
-x,-y,-z
x,y,1/2-z
-x,y,z
x,-y,1/2+z
1/2+x,1/2+y,z
1/2-x,1/2-y,1/2+z
1/2+x,1/2-y,-z
1/2-x,1/2+y,1/2-z
1/2-x,1/2-y,-z
1/2+x,1/2+y,1/2-z
1/2-x,1/2+y,z
1/2+x,1/2-y,1/2+z
loop_
_atom_site_type_symbol
_atom_site_label
_atom_site_fract_x
_atom_site_fract_y
_atom_site_fract_z
Si Si1 0.837630 0.625905 0.664988
Si Si2 0.766167 0.517525 0.168377
Si Si3 0.672827 0.453180 0.431601
Si Si4 0.932190 0.532320 0.577908
Si Si5 0.383548 0.091244 0.162128
Si Si6 0.432210 0.608699 0.663794
Si Si7 0.368429 0.248292 0.163912
Si Si8 0.759959 0.195845 0.569364
O O1 0.857013 0.652671 0.750000
O O2 0.790980 0.562705 0.678150
O O3 0.893758 0.597431 0.614733
O O4 0.802617 0.686691 0.615821
O O5 0.745973 0.546595 0.250000
O O6 0.710085 0.512862 0.114159
O O7 0.817305 0.568473 0.132316
O O8 0.649369 0.500000 0.500000
O O9 0.613596 0.435834 0.385383
O O10 0.712131 0.382390 0.454431
O O11 0.905484 0.500000 0.500000
O O12 0.933822 0.462796 0.631839
O O13 0.000000 0.561248 0.566855
O O14 0.384414 0.081754 0.250000
O O15 0.396170 0.172603 0.135218
O O16 0.421513 0.588059 0.750000
O O17 0.500000 0.591376 0.638838
O O18 0.420453 0.693530 0.650969
O O19 0.349990 0.241734 0.250000
O O20 0.307164 0.265943 0.122829
O O21 0.750000 0.250000 0.500000
#
# Coordination Sequence:
#
# PCOD8258238 Si02
#       8
#    16  16  16  16  16  16  16  16
#     4   9  18  33  52  70  95 138 182 216 254 307
#     4   8  15  28  46  69  96 127 162 198 240 292
#     4  10  20  31  48  74 102 131 162 199 249 301
#     4  10  21  33  48  73 106 141 179 222 258 297
#     4   9  18  30  49  74 102 134 165 205 256 306
#     4   9  18  34  53  71  93 127 169 207 247 296
#     4   9  18  32  50  74 103 130 162 206 257 314
#     4  10  21  32  51  76 104 135 166 212 262 314
#
# _framework density 17.354711999999999
#
# number of rings (size 3 to 8) (size 9 to 14) (size 15 to 20)
#    0.000    2.750    0.000    1.875    3.500    8.250 
#    0.000    1.250    0.000    0.000    0.000    0.000 
#    0.000    0.000    0.000    0.000    0.000    0.000 
#
# Total GULP energy -792973.715433 kJ/mol
# GULP energy per Si atom -12390.214304 kJ/mol
# Density = 1.731521 g / cm^3
# Si number density = 17.354712 Si / 1000 Ang^3
#
#
#
# Elastic Constant Matrix: (Units=GPa)
#
#
# Indices 1 2 3 4 5 6 
#
# 1 85.5841 18.4195 50.0235 0.0000 0.0000 0.0000
# 2 18.4195 43.0258 32.6812 0.0000 0.0000 0.0000
# 3 50.0235 32.6812 82.2571 0.0000 0.0000 0.0000
# 4 0.0000 0.0000 0.0000 29.1614 0.0000 0.0000
# 5 0.0000 0.0000 0.0000 0.0000 24.0367 0.0000
# 6 0.0000 0.0000 0.0000 0.0000 0.0000 14.9698
#
#
#
# Elastic Compliance Matrix: (Units=1/GPa)
#
#
# Indices 1 2 3 4 5 6 
#
# 1 0.018151 0.000879 -0.011388 0.000000 0.000000 0.000000
# 2 0.000879 0.033330 -0.013777 0.000000 0.000000 0.000000
# 3 -0.011388 -0.013777 0.024556 0.000000 0.000000 0.000000
# 4 0.000000 0.000000 0.000000 0.034292 0.000000 0.000000
# 5 0.000000 0.000000 0.000000 0.000000 0.041603 0.000000
# 6 0.000000 0.000000 0.000000 0.000000 0.000000 0.066801
#
#
# Mechanical properties :
#
#
# Convention : Reuss Voigt Hill
#
# Bulk Modulus (GPa) = 36.40816 45.90174 41.15495
# Shear Modulus (GPa) = 18.08582 20.94976 19.51779
#
# Velocity S-wave (km/s) = 3.23170 3.47818 3.35720
# Velocity P-wave (km/s) = 5.91182 6.52969 6.22842
#
# Compressibility (1/GPa) = 0.02746637
#
# Stress axis : x y z
#
# Youngs Moduli (GPa) = 55.09251 30.00294 40.72334
#
# Poissons Ratio (x) = -0.02638 0.46375
# Poissons Ratio (y) = -0.04844 0.56104
# Poissons Ratio (z) = 0.62738 0.41335
#
# Static dielectric constant tensor:
#      x y z
#    x 3.116640 0.000000 0.000000 
#    y 0.000000 3.235260 0.000000 
#    z 0.000000 0.000000 3.419490 
# 
# 
# High freq. dielectric constant tensor:
#      x y z
#    x 1.654180 0.000000 0.000000 
#    y 0.000000 1.648220 0.000000 
#    z 0.000000 0.000000 1.674480 
# 
# From -- ./inp_files/47511.got.cif
#   From: 2010.03.12/outbox.cif.g09.slc.cpg/sg63_24_cif.got.tgz:47511.got - 2010.04.10 19:34:48.
