data_PCOD8258501
_publ_section_title
;
Structure prediction by ZEFSAII (Michael W. Deem and Ramdas Pophale) SiO2 
 PCOD8258501
Probable space group: C M C M
;
_chemical_formula_sum "Si O2"
_cell_formula_units_Z 80
_cell_length_a 9.143492
_cell_length_b 25.345445
_cell_length_c 18.519086
_cell_angle_alpha 90.000000
_cell_angle_beta 90.000000
_cell_angle_gamma 90.000000
_cell_volume 4291.721763
_symmetry_space_group_name_H-M "C M C M"
_symmetry_group_IT_number 63
_symmetry_cell_setting 'orthorhombic'
loop_
_space_group_symop_operation_xyz
x,y,z
-x,-y,1/2+z
x,-y,-z
-x,y,1/2-z
-x,-y,-z
x,y,1/2-z
-x,y,z
x,-y,1/2+z
1/2+x,1/2+y,z
1/2-x,1/2-y,1/2+z
1/2+x,1/2-y,-z
1/2-x,1/2+y,1/2-z
1/2-x,1/2-y,-z
1/2+x,1/2+y,1/2-z
1/2-x,1/2+y,z
1/2+x,1/2-y,1/2+z
loop_
_atom_site_type_symbol
_atom_site_label
_atom_site_fract_x
_atom_site_fract_y
_atom_site_fract_z
Si Si1 0.826311 0.595681 0.330499
Si Si2 0.329631 0.893444 0.333413
Si Si3 0.170222 0.311657 0.932987
Si Si4 0.674129 0.996118 0.081449
Si Si5 0.170873 0.808948 0.079341
O O1 0.759633 0.595910 0.250000
O O2 0.778129 0.649502 0.369650
O O3 0.762894 0.545572 0.373722
O O4 0.000000 0.591897 0.326786
O O5 0.299364 0.906513 0.250000
O O6 0.500000 0.883078 0.347670
O O7 0.271446 0.942384 0.381039
O O8 0.241745 0.841155 0.355154
O O9 0.204507 0.252574 0.906682
O O10 0.000000 0.319168 0.951789
O O11 0.259253 0.327224 0.004104
O O12 0.500000 0.997830 0.081257
O O13 0.735382 0.000000 0.000000
O O14 0.000000 0.820608 0.076534
#
# Coordination Sequence:
#
# PCOD8258501 Si02
#       5
#    16  16  16  16  16
#     4   9  16  27  47  75 101 123 155 204 254 293
#     4  10  20  33  50  74 104 135 166 202 247 300
#     4   9  18  33  53  75  99 129 166 207 249 294
#     4   9  16  27  47  74 100 126 160 205 252 294
#     4  10  20  33  51  74 100 132 169 207 246 293
#
# _framework density 18.640536999999998
#
# number of rings (size 3 to 8) (size 9 to 14) (size 15 to 20)
#    0.000    2.600    0.000    2.400    0.000    7.600 
#    0.000    2.000    0.000    6.000    0.000    0.000 
#    0.000    0.000    0.000    0.000    0.000    0.000 
#
# Total GULP energy -496061.789109 kJ/mol
# GULP energy per Si atom -12401.544728 kJ/mol
# Density = 1.859811 g / cm^3
# Si number density = 18.640537 Si / 1000 Ang^3
#
#
#
# Elastic Constant Matrix: (Units=GPa)
#
#
# Indices 1 2 3 4 5 6 
#
# 1 37.5693 31.3173 32.8575 0.0000 0.0000 0.0000
# 2 31.3173 121.7392 77.1659 0.0000 0.0000 0.0000
# 3 32.8575 77.1659 145.3252 0.0000 0.0000 0.0000
# 4 0.0000 0.0000 0.0000 36.6742 0.0000 0.0000
# 5 0.0000 0.0000 0.0000 0.0000 19.5754 0.0000
# 6 0.0000 0.0000 0.0000 0.0000 0.0000 20.0908
#
#
#
# Elastic Compliance Matrix: (Units=1/GPa)
#
#
# Indices 1 2 3 4 5 6 
#
# 1 0.036025 -0.006187 -0.004860 0.000000 0.000000 0.000000
# 2 -0.006187 0.013444 -0.005740 0.000000 0.000000 0.000000
# 3 -0.004860 -0.005740 0.011028 0.000000 0.000000 0.000000
# 4 0.000000 0.000000 0.000000 0.027267 0.000000 0.000000
# 5 0.000000 0.000000 0.000000 0.000000 0.051085 0.000000
# 6 0.000000 0.000000 0.000000 0.000000 0.000000 0.049774
#
#
# Mechanical properties :
#
#
# Convention : Reuss Voigt Hill
#
# Bulk Modulus (GPa) = 37.14210 65.25726 51.19968
# Shear Modulus (GPa) = 21.62903 26.15428 23.89166
#
# Velocity S-wave (km/s) = 3.41005 3.74984 3.58397
# Velocity P-wave (km/s) = 5.95594 7.33708 6.68229
#
# Compressibility (1/GPa) = 0.02692363
#
# Stress axis : x y z
#
# Youngs Moduli (GPa) = 27.75829 74.38198 90.68047
#
# Poissons Ratio (x) = 0.46019 0.44071
# Poissons Ratio (y) = 0.17174 0.52049
# Poissons Ratio (z) = 0.13491 0.42694
#
# Static dielectric constant tensor:
#      x y z
#    x 2.973990 0.000000 0.000000 
#    y 0.000000 3.567830 0.000000 
#    z 0.000000 0.000000 3.552590 
# 
# 
# High freq. dielectric constant tensor:
#      x y z
#    x 1.671830 0.000000 0.000000 
#    y 0.000000 1.737280 0.000000 
#    z 0.000000 0.000000 1.730340 
# 
# From -- ./inp_files/40514.got.cif
#   From: 2010.03.12/outbox.cif.g09.slc.cpg/sg63_21_cif.got.tgz:40514.got - 2010.04.10 19:34:48.
