data_PCOD8258518
_publ_section_title
;
Structure prediction by ZEFSAII (Michael W. Deem and Ramdas Pophale) SiO2 
 PCOD8258518
Probable space group: C M C M
;
_chemical_formula_sum "Si O2"
_cell_formula_units_Z 96
_cell_length_a 9.066513
_cell_length_b 19.468648
_cell_length_c 30.483398
_cell_angle_alpha 90.000000
_cell_angle_beta 90.000000
_cell_angle_gamma 90.000000
_cell_volume 5380.708416
_symmetry_space_group_name_H-M "C M C M"
_symmetry_group_IT_number 63
_symmetry_cell_setting 'orthorhombic'
loop_
_space_group_symop_operation_xyz
x,y,z
-x,-y,1/2+z
x,-y,-z
-x,y,1/2-z
-x,-y,-z
x,y,1/2-z
-x,y,z
x,-y,1/2+z
1/2+x,1/2+y,z
1/2-x,1/2-y,1/2+z
1/2+x,1/2-y,-z
1/2-x,1/2+y,1/2-z
1/2-x,1/2-y,-z
1/2+x,1/2+y,1/2-z
1/2-x,1/2+y,z
1/2+x,1/2-y,1/2+z
loop_
_atom_site_type_symbol
_atom_site_label
_atom_site_fract_x
_atom_site_fract_y
_atom_site_fract_z
Si Si1 0.671894 0.933265 0.800971
Si Si2 0.668280 0.826375 0.950051
Si Si3 0.165724 0.327513 0.138924
Si Si4 0.171563 0.928288 0.199574
Si Si5 0.830245 0.165156 0.134433
Si Si6 0.668216 0.812420 0.456050
O O1 0.705763 0.921066 0.750000
O O2 0.500000 0.936306 0.811209
O O3 0.742950 0.870110 0.826380
O O4 0.742126 0.004694 0.817032
O O5 0.500000 0.833117 0.934297
O O6 0.769408 0.861465 0.912815
O O7 0.709623 0.746720 0.955555
O O8 0.689655 0.858325 0.999472
O O9 0.280619 0.363046 0.171140
O O10 0.195975 0.246227 0.138890
O O11 0.187723 0.355966 0.088959
O O12 0.000000 0.343027 0.155515
O O13 0.209763 0.911906 0.250000
O O14 0.000000 0.942097 0.192751
O O15 0.000000 0.144418 0.137762
O O16 0.500000 0.781409 0.455865
#
# Coordination Sequence:
#
# PCOD8258518 Si02
#       6
#    16  16  16  16  16  16
#     4  10  21  37  56  75  96 127 167 206 247 300
#     4   9  15  25  44  69  98 131 166 202 242 290
#     4   9  18  32  50  74 103 133 165 201 243 290
#     4  10  21  36  53  73  98 129 165 204 247 296
#     4  10  20  33  50  75 106 135 165 204 249 293
#     4   8  15  27  43  67  99 132 164 201 246 293
#
# _framework density 17.841515999999999
#
# number of rings (size 3 to 8) (size 9 to 14) (size 15 to 20)
#    0.000    2.667    0.000    3.000    0.000    6.667 
#    0.000    3.333    0.000    1.000    0.000    7.000 
#    0.000    0.000    0.000    0.000    0.000    0.000 
#
# Total GULP energy -594910.205664 kJ/mol
# GULP energy per Si atom -12393.962618 kJ/mol
# Density = 1.780091 g / cm^3
# Si number density = 17.841516 Si / 1000 Ang^3
#
#
#
# Elastic Constant Matrix: (Units=GPa)
#
#
# Indices 1 2 3 4 5 6 
#
# 1 95.5242 34.4955 59.6169 0.0000 0.0000 0.0000
# 2 34.4955 46.1449 44.9466 0.0000 0.0000 0.0000
# 3 59.6169 44.9466 111.2522 0.0000 0.0000 0.0000
# 4 0.0000 0.0000 0.0000 3.5715 0.0000 0.0000
# 5 0.0000 0.0000 0.0000 0.0000 32.6132 0.0000
# 6 0.0000 0.0000 0.0000 0.0000 0.0000 27.9224
#
#
#
# Elastic Compliance Matrix: (Units=1/GPa)
#
#
# Indices 1 2 3 4 5 6 
#
# 1 0.016749 -0.006230 -0.006458 0.000000 0.000000 0.000000
# 2 -0.006230 0.038049 -0.012034 0.000000 0.000000 0.000000
# 3 -0.006458 -0.012034 0.017311 0.000000 0.000000 0.000000
# 4 0.000000 0.000000 0.000000 0.279997 0.000000 0.000000
# 5 0.000000 0.000000 0.000000 0.000000 0.030662 0.000000
# 6 0.000000 0.000000 0.000000 0.000000 0.000000 0.035814
#
#
# Mechanical properties :
#
#
# Convention : Reuss Voigt Hill
#
# Bulk Modulus (GPa) = 44.12029 59.00437 51.56233
# Shear Modulus (GPa) = 10.51343 20.41221 15.46282
#
# Velocity S-wave (km/s) = 2.43012 3.38610 2.94713
# Velocity P-wave (km/s) = 5.71460 6.95922 6.36739
#
# Compressibility (1/GPa) = 0.02266531
#
# Stress axis : x y z
#
# Youngs Moduli (GPa) = 59.70507 26.28168 57.76641
#
# Poissons Ratio (x) = 0.16374 0.37307
# Poissons Ratio (y) = 0.37197 0.69514
# Poissons Ratio (z) = 0.38559 0.31626
#
# Static dielectric constant tensor:
#      x y z
#    x 3.398630 0.000000 0.000000 
#    y 0.000000 2.822800 0.000000 
#    z 0.000000 0.000000 3.693730 
# 
# 
# High freq. dielectric constant tensor:
#      x y z
#    x 1.704460 0.000000 0.000000 
#    y 0.000000 1.632390 0.000000 
#    z 0.000000 0.000000 1.709470 
# 
# From -- ./inp_files/66942.got.cif
#   From: 2010.03.12/outbox.cif.g09.slc.cpg/sg63_34_cif.got.tgz:66942.got - 2010.04.10 19:34:48.
