data_PCOD8258445
_publ_section_title
;
Structure prediction by ZEFSAII (Michael W. Deem and Ramdas Pophale) SiO2 
 PCOD8258445
Probable space group: C M C M
;
_chemical_formula_sum "Si O2"
_cell_formula_units_Z 88
_cell_length_a 30.233694
_cell_length_b 17.844211
_cell_length_c 9.361313
_cell_angle_alpha 90.000000
_cell_angle_beta 90.000000
_cell_angle_gamma 90.000000
_cell_volume 5050.394804
_symmetry_space_group_name_H-M "C M C M"
_symmetry_group_IT_number 63
_symmetry_cell_setting 'orthorhombic'
loop_
_space_group_symop_operation_xyz
x,y,z
-x,-y,1/2+z
x,-y,-z
-x,y,1/2-z
-x,-y,-z
x,y,1/2-z
-x,y,z
x,-y,1/2+z
1/2+x,1/2+y,z
1/2-x,1/2-y,1/2+z
1/2+x,1/2-y,-z
1/2-x,1/2+y,1/2-z
1/2-x,1/2-y,-z
1/2+x,1/2+y,1/2-z
1/2-x,1/2+y,z
1/2+x,1/2-y,1/2+z
loop_
_atom_site_type_symbol
_atom_site_label
_atom_site_fract_x
_atom_site_fract_y
_atom_site_fract_z
Si Si1 0.886664 0.287936 0.084069
Si Si2 0.550270 0.074876 0.584340
Si Si3 0.591520 0.644180 0.584209
Si Si4 0.207284 0.768761 0.588229
Si Si5 0.333452 0.571184 0.418421
Si Si6 0.000000 0.072415 0.591677
O O1 0.895307 0.265777 0.250000
O O2 0.912041 0.364467 0.044491
O O3 0.833430 0.288872 0.057005
O O4 0.905784 0.226982 0.977950
O O5 0.553165 0.055010 0.750000
O O6 0.500000 0.102474 0.546364
O O7 0.562367 0.000000 0.500000
O O8 0.606630 0.642477 0.750000
O O9 0.619207 0.584385 0.492183
O O10 0.541157 0.624587 0.561394
O O11 0.222073 0.761049 0.750000
O O12 0.250000 0.750000 0.500000
O O13 0.194758 0.854378 0.552981
O O14 0.311273 0.500000 0.500000
O O15 0.338945 0.554721 0.250000
O O16 0.000000 0.040546 0.750000
O O17 0.000000 0.000000 0.500000
#
# Coordination Sequence:
#
# PCOD8258445 Si02
#       6
#    16  16  16  16  16   8
#     4   9  19  35  53  76 103 133 172 215 258 308
#     4   9  18  33  53  77 105 138 175 214 262 315
#     4  10  20  33  49  72 101 134 171 210 250 296
#     4   9  19  35  54  76 104 133 167 213 260 309
#     4  10  20  35  54  77 102 131 169 212 255 305
#     4  10  22  34  44  66  99 132 167 204 243 286
#
# _framework density 17.424381
#
# number of rings (size 3 to 8) (size 9 to 14) (size 15 to 20)
#    0.000    2.545    0.000    2.727    1.273    7.273 
#    0.000    0.909    0.000    4.364    0.000    0.000 
#    0.000    0.000    0.000    0.000    0.000    0.000 
#
# Total GULP energy -545352.897654 kJ/mol
# GULP energy per Si atom -12394.384038 kJ/mol
# Density = 1.738472 g / cm^3
# Si number density = 17.424381 Si / 1000 Ang^3
#
#
#
# Elastic Constant Matrix: (Units=GPa)
#
#
# Indices 1 2 3 4 5 6 
#
# 1 130.2534 67.6519 67.0854 0.0000 0.0000 0.0000
# 2 67.6519 108.7463 59.1103 0.0000 0.0000 0.0000
# 3 67.0854 59.1103 92.9333 0.0000 0.0000 0.0000
# 4 0.0000 0.0000 0.0000 36.6433 0.0000 0.0000
# 5 0.0000 0.0000 0.0000 0.0000 30.9543 0.0000
# 6 0.0000 0.0000 0.0000 0.0000 0.0000 23.5874
#
#
#
# Elastic Compliance Matrix: (Units=1/GPa)
#
#
# Indices 1 2 3 4 5 6 
#
# 1 0.013688 -0.004806 -0.006824 0.000000 0.000000 0.000000
# 2 -0.004806 0.015743 -0.006544 0.000000 0.000000 0.000000
# 3 -0.006824 -0.006544 0.019849 0.000000 0.000000 0.000000
# 4 0.000000 0.000000 0.000000 0.027290 0.000000 0.000000
# 5 0.000000 0.000000 0.000000 0.000000 0.032306 0.000000
# 6 0.000000 0.000000 0.000000 0.000000 0.000000 0.042395
#
#
# Mechanical properties :
#
#
# Convention : Reuss Voigt Hill
#
# Bulk Modulus (GPa) = 77.33049 79.95870 78.64460
# Shear Modulus (GPa) = 26.05128 27.44270 26.74699
#
# Velocity S-wave (km/s) = 3.87085 3.97288 3.92220
# Velocity P-wave (km/s) = 8.02839 8.18741 8.10829
#
# Compressibility (1/GPa) = 0.01293151
#
# Stress axis : x y z
#
# Youngs Moduli (GPa) = 73.05487 63.52196 50.38161
#
# Poissons Ratio (x) = 0.30531 0.34381
# Poissons Ratio (y) = 0.35112 0.32968
# Poissons Ratio (z) = 0.49853 0.41566
#
# Static dielectric constant tensor:
#      x y z
#    x 3.307090 0.000000 0.000000 
#    y 0.000000 3.177200 0.000000 
#    z 0.000000 0.000000 3.391680 
# 
# 
# High freq. dielectric constant tensor:
#      x y z
#    x 1.665720 0.000000 0.000000 
#    y 0.000000 1.667940 0.000000 
#    z 0.000000 0.000000 1.683630 
# 
# From -- ./inp_files/14243.got.cif
#   From: 2010.03.12/outbox.cif.g09.slc.cpg/sg63_8_cif.got.tgz:14243.got - 2010.04.10 19:34:48.
