data_PCOD8258359
_publ_section_title
;
Structure prediction by ZEFSAII (Michael W. Deem and Ramdas Pophale) SiO2 
 PCOD8258359
Probable space group: C M C M
;
_chemical_formula_sum "Si O2"
_cell_formula_units_Z 112
_cell_length_a 9.361865
_cell_length_b 18.194606
_cell_length_c 35.804785
_cell_angle_alpha 90.000000
_cell_angle_beta 90.000000
_cell_angle_gamma 90.000000
_cell_volume 6098.823990
_symmetry_space_group_name_H-M "C M C M"
_symmetry_group_IT_number 63
_symmetry_cell_setting 'orthorhombic'
loop_
_space_group_symop_operation_xyz
x,y,z
-x,-y,1/2+z
x,-y,-z
-x,y,1/2-z
-x,-y,-z
x,y,1/2-z
-x,y,z
x,-y,1/2+z
1/2+x,1/2+y,z
1/2-x,1/2-y,1/2+z
1/2+x,1/2-y,-z
1/2-x,1/2+y,1/2-z
1/2-x,1/2-y,-z
1/2+x,1/2+y,1/2-z
1/2-x,1/2+y,z
1/2+x,1/2-y,1/2+z
loop_
_atom_site_type_symbol
_atom_site_label
_atom_site_fract_x
_atom_site_fract_y
_atom_site_fract_z
Si Si1 0.169581 0.922046 0.790954
Si Si2 0.332668 0.825826 0.497716
Si Si3 0.833016 0.585481 0.427581
Si Si4 0.830618 0.418810 0.427809
Si Si5 0.835753 0.912721 0.293112
Si Si6 0.332405 0.165989 0.644862
Si Si7 0.831983 0.165269 0.137835
O O1 0.229019 0.897945 0.750000
O O2 0.221309 0.004604 0.800367
O O3 0.000000 0.922433 0.789084
O O4 0.224831 0.866466 0.822608
O O5 0.500000 0.808685 0.493518
O O6 0.250000 0.750000 0.500000
O O7 0.300104 0.874118 0.533907
O O8 0.272093 0.871081 0.462371
O O9 0.775698 0.502181 0.431018
O O10 0.747930 0.624837 0.395119
O O11 0.000000 0.587159 0.417674
O O12 0.774972 0.383736 0.389196
O O13 0.000000 0.417147 0.429451
O O14 0.816015 0.891162 0.250000
O O15 0.743674 0.856490 0.317092
O O16 0.000000 0.905774 0.305284
O O17 0.500000 0.156062 0.650937
O O18 0.292957 0.249542 0.635654
O O19 0.000000 0.151293 0.133225
#
# Coordination Sequence:
#
# PCOD8258359 Si02
#       7
#    16  16  16  16  16  16  16
#     4   8  15  30  51  72  95 128 169 205 240 290
#     4  10  20  35  55  77 102 132 166 205 249 296
#     4  10  20  34  54  76  98 132 173 205 240 293
#     4   9  18  34  53  73 101 135 170 206 244 291
#     4   9  18  33  52  72  96 129 167 206 247 291
#     4  10  20  32  49  74 102 132 164 202 250 297
#     4  10  20  33  51  76 104 132 162 203 253 295
#
# _framework density 18.364197000000001
#
# number of rings (size 3 to 8) (size 9 to 14) (size 15 to 20)
#    0.000    2.571    0.000    3.000    0.000    4.857 
#    0.000    2.857    0.000    3.000    0.000    0.000 
#    0.000    0.000    0.000    0.000    0.000    0.000 
#
# Total GULP energy -694418.242738 kJ/mol
# GULP energy per Si atom -12400.325763 kJ/mol
# Density = 1.832240 g / cm^3
# Si number density = 18.364197 Si / 1000 Ang^3
#
#
#
# Elastic Constant Matrix: (Units=GPa)
#
#
# Indices 1 2 3 4 5 6 
#
# 1 33.2386 49.7593 45.0384 0.0000 0.0000 0.0000
# 2 49.7593 157.2367 84.1513 0.0000 0.0000 0.0000
# 3 45.0384 84.1513 133.3766 0.0000 0.0000 0.0000
# 4 0.0000 0.0000 0.0000 22.5191 0.0000 0.0000
# 5 0.0000 0.0000 0.0000 0.0000 30.5065 0.0000
# 6 0.0000 0.0000 0.0000 0.0000 0.0000 17.2880
#
#
#
# Elastic Compliance Matrix: (Units=1/GPa)
#
#
# Indices 1 2 3 4 5 6 
#
# 1 0.073228 -0.015007 -0.015259 0.000000 0.000000 0.000000
# 2 -0.015007 0.012678 -0.002931 0.000000 0.000000 0.000000
# 3 -0.015259 -0.002931 0.014499 0.000000 0.000000 0.000000
# 4 0.000000 0.000000 0.000000 0.044407 0.000000 0.000000
# 5 0.000000 0.000000 0.000000 0.000000 0.032780 0.000000
# 6 0.000000 0.000000 0.000000 0.000000 0.000000 0.057843
#
#
# Mechanical properties :
#
#
# Convention : Reuss Voigt Hill
#
# Bulk Modulus (GPa) = 29.40271 75.74998 52.57634
# Shear Modulus (GPa) = 15.96591 23.72291 19.84441
#
# Velocity S-wave (km/s) = 2.95176 3.59806 3.29082
# Velocity P-wave (km/s) = 5.25955 7.65504 6.56744
#
# Compressibility (1/GPa) = 0.03401047
#
# Stress axis : x y z
#
# Youngs Moduli (GPa) = 13.65596 78.87786 68.96801
#
# Poissons Ratio (x) = 1.18376 1.05237
# Poissons Ratio (y) = 0.20494 0.20215
# Poissons Ratio (z) = 0.20837 0.23120
#
# Static dielectric constant tensor:
#      x y z
#    x 3.020010 0.000000 0.000000 
#    y 0.000000 3.536950 0.000000 
#    z 0.000000 0.000000 3.930510 
# 
# 
# High freq. dielectric constant tensor:
#      x y z
#    x 1.673650 0.000000 0.000000 
#    y 0.000000 1.722400 0.000000 
#    z 0.000000 0.000000 1.728720 
# 
# From -- ./inp_files/72841.got.cif
#   From: 2010.03.12/outbox.cif.g09.slc.cpg/sg63_37_cif.got.tgz:72841.got - 2010.04.10 19:34:48.
