data_PCOD8258983
_publ_section_title
;
Structure prediction by ZEFSAII (Michael W. Deem and Ramdas Pophale) SiO2 
 PCOD8258983
Probable space group: C M C M
;
_chemical_formula_sum "Si O2"
_cell_formula_units_Z 96
_cell_length_a 20.467736
_cell_length_b 28.529907
_cell_length_c 8.622939
_cell_angle_alpha 90.000000
_cell_angle_beta 90.000000
_cell_angle_gamma 90.000000
_cell_volume 5035.301459
_symmetry_space_group_name_H-M "C M C M"
_symmetry_group_IT_number 63
_symmetry_cell_setting 'orthorhombic'
loop_
_space_group_symop_operation_xyz
x,y,z
-x,-y,1/2+z
x,-y,-z
-x,y,1/2-z
-x,-y,-z
x,y,1/2-z
-x,y,z
x,-y,1/2+z
1/2+x,1/2+y,z
1/2-x,1/2-y,1/2+z
1/2+x,1/2-y,-z
1/2-x,1/2+y,1/2-z
1/2-x,1/2-y,-z
1/2+x,1/2+y,1/2-z
1/2-x,1/2+y,z
1/2+x,1/2-y,1/2+z
loop_
_atom_site_type_symbol
_atom_site_label
_atom_site_fract_x
_atom_site_fract_y
_atom_site_fract_z
Si Si1 0.163201 0.212966 0.571246
Si Si2 0.575517 0.635703 0.067429
Si Si3 0.299579 0.907190 0.429459
Si Si4 0.204509 0.687905 0.075792
Si Si5 0.069480 0.550608 0.931826
Si Si6 0.331136 0.551244 0.067660
O O1 0.180941 0.200359 0.750000
O O2 0.100749 0.182516 0.519455
O O3 0.152406 0.269363 0.557503
O O4 0.221393 0.203715 0.452060
O O5 0.584432 0.643253 0.250000
O O6 0.500000 0.628149 0.022345
O O7 0.615557 0.589662 0.010895
O O8 0.289975 0.919607 0.250000
O O9 0.307411 0.851802 0.449340
O O10 0.367158 0.925207 0.504484
O O11 0.240071 0.930616 0.520128
O O12 0.200581 0.667369 0.250000
O O13 0.080101 0.547444 0.750000
O O14 0.000000 0.576805 0.969148
O O15 0.064512 0.500000 0.000000
O O16 0.333740 0.546034 0.250000
O O17 0.347280 0.500000 0.000000
#
# Coordination Sequence:
#
# PCOD8258983 Si02
#       6
#    16  16  16  16  16  16
#     4  10  20  35  57  84 111 143 185 228 275 332
#     4  10  22  40  60  82 113 154 195 238 291 346
#     4  11  21  34  56  85 114 147 187 232 281 336
#     4  10  20  34  55  83 114 144 178 226 277 330
#     4   9  19  35  53  75 105 142 183 224 269 326
#     4  11  23  38  57  82 114 149 191 243 291 342
#
# _framework density 19.065393
#
# number of rings (size 3 to 8) (size 9 to 14) (size 15 to 20)
#    0.000    1.833    1.667    2.500    0.000    6.000 
#    0.000    0.833    0.000    3.000    0.000    0.000 
#    0.000    0.000    0.000    0.000    0.000    0.000 
#
# Total GULP energy -594813.904758 kJ/mol
# GULP energy per Si atom -12391.956349 kJ/mol
# Density = 1.902200 g / cm^3
# Si number density = 19.065393 Si / 1000 Ang^3
#
#
#
# Elastic Constant Matrix: (Units=GPa)
#
#
# Indices 1 2 3 4 5 6 
#
# 1 130.6471 47.8729 18.6309 0.0000 0.0000 0.0000
# 2 47.8729 92.9332 16.7634 0.0000 0.0000 0.0000
# 3 18.6309 16.7634 36.6028 0.0000 0.0000 0.0000
# 4 0.0000 0.0000 0.0000 31.6171 0.0000 0.0000
# 5 0.0000 0.0000 0.0000 0.0000 6.3640 0.0000
# 6 0.0000 0.0000 0.0000 0.0000 0.0000 24.7044
#
#
#
# Elastic Compliance Matrix: (Units=1/GPa)
#
#
# Indices 1 2 3 4 5 6 
#
# 1 0.009708 -0.004479 -0.002890 0.000000 0.000000 0.000000
# 2 -0.004479 0.013796 -0.004038 0.000000 0.000000 0.000000
# 3 -0.002890 -0.004038 0.030641 0.000000 0.000000 0.000000
# 4 0.000000 0.000000 0.000000 0.031628 0.000000 0.000000
# 5 0.000000 0.000000 0.000000 0.000000 0.157135 0.000000
# 6 0.000000 0.000000 0.000000 0.000000 0.000000 0.040479
#
#
# Mechanical properties :
#
#
# Convention : Reuss Voigt Hill
#
# Bulk Modulus (GPa) = 31.91873 47.41305 39.66589
# Shear Modulus (GPa) = 15.79054 24.33149 20.06102
#
# Velocity S-wave (km/s) = 2.88102 3.57629 3.24732
# Velocity P-wave (km/s) = 5.27685 6.47887 5.90850
#
# Compressibility (1/GPa) = 0.03132957
#
# Stress axis : x y z
#
# Youngs Moduli (GPa) = 103.01091 72.48263 32.63626
#
# Poissons Ratio (x) = 0.32469 0.09431
# Poissons Ratio (y) = 0.46144 0.13180
# Poissons Ratio (z) = 0.29767 0.29272
#
# Static dielectric constant tensor:
#      x y z
#    x 3.853120 0.000000 0.000000 
#    y 0.000000 3.728960 0.000000 
#    z 0.000000 0.000000 3.454620 
# 
# 
# High freq. dielectric constant tensor:
#      x y z
#    x 1.731170 0.000000 0.000000 
#    y 0.000000 1.742030 0.000000 
#    z 0.000000 0.000000 1.744970 
# 
# From -- ./inp_files/8585.got.cif
#   From: 2010.03.12/outbox.cif.g09.slc.cpg/sg63_5_cif.got.tgz:8585.got - 2010.04.10 19:34:48.
