data_PCOD8258245
_publ_section_title
;
Structure prediction by ZEFSAII (Michael W. Deem and Ramdas Pophale) SiO2 
 PCOD8258245
Probable space group: C M C M
;
_chemical_formula_sum "Si O2"
_cell_formula_units_Z 96
_cell_length_a 25.118510
_cell_length_b 23.525644
_cell_length_c 8.671936
_cell_angle_alpha 90.000000
_cell_angle_beta 90.000000
_cell_angle_gamma 90.000000
_cell_volume 5124.499544
_symmetry_space_group_name_H-M "C M C M"
_symmetry_group_IT_number 63
_symmetry_cell_setting 'orthorhombic'
loop_
_space_group_symop_operation_xyz
x,y,z
-x,-y,1/2+z
x,-y,-z
-x,y,1/2-z
-x,-y,-z
x,y,1/2-z
-x,y,z
x,-y,1/2+z
1/2+x,1/2+y,z
1/2-x,1/2-y,1/2+z
1/2+x,1/2-y,-z
1/2-x,1/2+y,1/2-z
1/2-x,1/2-y,-z
1/2+x,1/2+y,1/2-z
1/2-x,1/2+y,z
1/2+x,1/2-y,1/2+z
loop_
_atom_site_type_symbol
_atom_site_label
_atom_site_fract_x
_atom_site_fract_y
_atom_site_fract_z
Si Si1 0.597872 0.138614 0.431974
Si Si2 0.187209 0.939668 0.933023
Si Si3 0.191778 0.558792 0.069771
Si Si4 0.000000 0.062061 0.068319
Si Si5 0.938224 0.246495 0.069611
Si Si6 0.403561 0.368697 0.431412
Si Si7 0.500000 0.061903 0.430785
O O1 0.594007 0.151456 0.250000
O O2 0.654176 0.110891 0.480118
O O3 0.592581 0.196329 0.526805
O O4 0.551818 0.095880 0.486609
O O5 0.179583 0.939636 0.750000
O O6 0.248087 0.928203 0.983838
O O7 0.153746 0.889273 0.009569
O O8 0.167494 0.000000 0.000000
O O9 0.189028 0.549977 0.250000
O O10 0.170346 0.500000 0.000000
O O11 0.000000 0.057775 0.250000
O O12 0.948046 0.094966 0.016017
O O13 0.000000 0.000000 0.000000
O O14 0.932330 0.233557 0.250000
O O15 0.000000 0.251499 0.021386
O O16 0.910306 0.197015 0.973039
O O17 0.408715 0.377504 0.250000
O O18 0.500000 0.054839 0.250000
O O19 0.500000 0.000000 0.500000
#
# Coordination Sequence:
#
# PCOD8258245 Si02
#       7
#    16  16  16   8  16  16   8
#     4  10  20  36  56  82 114 151 192 235 284 340
#     4  10  20  37  59  85 117 152 191 236 285 339
#     4   9  19  35  58  85 116 153 192 236 287 340
#     4  12  24  39  58  85 118 149 183 229 281 338
#     4  11  23  39  59  83 112 150 192 236 285 339
#     4  12  24  39  60  85 113 149 190 233 284 340
#     4  10  20  31  50  79 114 147 181 229 281 334
#
# _framework density 18.733536999999998
#
# number of rings (size 3 to 8) (size 9 to 14) (size 15 to 20)
#    0.000    1.500    1.667    4.250    0.000    2.667 
#    0.000    0.833    0.000    0.000    0.000    0.000 
#    0.000    0.000    0.000    0.000    0.000    0.000 
#
# Total GULP energy -595435.565222 kJ/mol
# GULP energy per Si atom -12404.907609 kJ/mol
# Density = 1.869090 g / cm^3
# Si number density = 18.733537 Si / 1000 Ang^3
#
#
#
# Elastic Constant Matrix: (Units=GPa)
#
#
# Indices 1 2 3 4 5 6 
#
# 1 106.6893 61.7087 36.9701 0.0000 0.0000 0.0000
# 2 61.7087 139.8762 43.2464 0.0000 0.0000 0.0000
# 3 36.9701 43.2464 88.3345 0.0000 0.0000 0.0000
# 4 0.0000 0.0000 0.0000 37.8652 0.0000 0.0000
# 5 0.0000 0.0000 0.0000 0.0000 19.0629 0.0000
# 6 0.0000 0.0000 0.0000 0.0000 0.0000 27.8200
#
#
#
# Elastic Compliance Matrix: (Units=1/GPa)
#
#
# Indices 1 2 3 4 5 6 
#
# 1 0.013299 -0.004886 -0.003174 0.000000 0.000000 0.000000
# 2 -0.004886 0.010219 -0.002958 0.000000 0.000000 0.000000
# 3 -0.003174 -0.002958 0.014097 0.000000 0.000000 0.000000
# 4 0.000000 0.000000 0.000000 0.026409 0.000000 0.000000
# 5 0.000000 0.000000 0.000000 0.000000 0.052458 0.000000
# 6 0.000000 0.000000 0.000000 0.000000 0.000000 0.035945
#
#
# Mechanical properties :
#
#
# Convention : Reuss Voigt Hill
#
# Bulk Modulus (GPa) = 64.18728 68.75005 66.46866
# Shear Modulus (GPa) = 27.83083 29.81460 28.82272
#
# Velocity S-wave (km/s) = 3.85855 3.99370 3.92671
# Velocity P-wave (km/s) = 7.36131 7.61871 7.49112
#
# Compressibility (1/GPa) = 0.01557941
#
# Stress axis : x y z
#
# Youngs Moduli (GPa) = 75.19547 97.85505 70.93559
#
# Poissons Ratio (x) = 0.47808 0.22515
# Poissons Ratio (y) = 0.36738 0.20985
# Poissons Ratio (z) = 0.23867 0.28949
#
# Static dielectric constant tensor:
#      x y z
#    x 3.747380 0.000000 0.000000 
#    y 0.000000 3.357680 0.000000 
#    z 0.000000 0.000000 3.445920 
# 
# 
# High freq. dielectric constant tensor:
#      x y z
#    x 1.730110 0.000000 0.000000 
#    y 0.000000 1.729960 0.000000 
#    z 0.000000 0.000000 1.733470 
# 
# From -- ./inp_files/10535.got.cif
#   From: 2010.03.12/outbox.cif.g09.slc.cpg/sg63_6_cif.got.tgz:10535.got - 2010.04.10 19:34:48.
