data_PCOD8258639
_publ_section_title
;
Structure prediction by ZEFSAII (Michael W. Deem and Ramdas Pophale) SiO2 
 PCOD8258639
Probable space group: C M C M
;
_chemical_formula_sum "Si O2"
_cell_formula_units_Z 64
_cell_length_a 17.354553
_cell_length_b 23.277444
_cell_length_c 8.978453
_cell_angle_alpha 90.000000
_cell_angle_beta 90.000000
_cell_angle_gamma 90.000000
_cell_volume 3627.022387
_symmetry_space_group_name_H-M "C M C M"
_symmetry_group_IT_number 63
_symmetry_cell_setting 'orthorhombic'
loop_
_space_group_symop_operation_xyz
x,y,z
-x,-y,1/2+z
x,-y,-z
-x,y,1/2-z
-x,-y,-z
x,y,1/2-z
-x,y,z
x,-y,1/2+z
1/2+x,1/2+y,z
1/2-x,1/2-y,1/2+z
1/2+x,1/2-y,-z
1/2-x,1/2+y,1/2-z
1/2-x,1/2-y,-z
1/2+x,1/2+y,1/2-z
1/2-x,1/2+y,z
1/2+x,1/2-y,1/2+z
loop_
_atom_site_type_symbol
_atom_site_label
_atom_site_fract_x
_atom_site_fract_y
_atom_site_fract_z
Si Si1 0.500000 0.746390 0.418130
Si Si2 0.084972 0.863546 0.582677
Si Si3 0.800858 0.058009 0.922481
Si Si4 0.376110 0.940575 0.425994
Si Si5 0.000000 0.363397 0.925953
O O1 0.500000 0.772215 0.250000
O O2 0.575735 0.705603 0.439611
O O3 0.500000 0.795678 0.541034
O O4 0.113510 0.876820 0.750000
O O5 0.147121 0.888201 0.469015
O O6 0.000000 0.891944 0.557125
O O7 0.810499 0.047315 0.750000
O O8 0.712768 0.071739 0.964554
O O9 0.830116 0.000000 0.000000
O O10 0.391846 0.943335 0.250000
O O11 0.423913 0.889636 0.499993
O O12 0.403424 0.000000 0.500000
O O13 0.000000 0.374014 0.750000
#
# Coordination Sequence:
#
# PCOD8258639 Si02
#       5
#     8  16  16  16   8
#     4   8  18  37  56  75 102 138 175 216 259 300
#     4   8  17  34  55  76 104 139 173 213 260 302
#     4  10  20  33  53  79 107 139 173 212 258 307
#     4  10  21  37  55  78 108 138 170 212 260 309
#     4  12  23  35  56  81 102 134 175 214 260 312
#
# _framework density 17.645327999999999
#
# number of rings (size 3 to 8) (size 9 to 14) (size 15 to 20)
#    0.750    1.750    0.000    3.000    0.000    5.000 
#    0.000    1.250    0.000    0.000    0.000    0.000 
#    0.000    0.000    0.000    0.000    0.000    0.000 
#
# Total GULP energy -396667.101527 kJ/mol
# GULP energy per Si atom -12395.846923 kJ/mol
# Density = 1.760517 g / cm^3
# Si number density = 17.645328 Si / 1000 Ang^3
#
#
#
# Elastic Constant Matrix: (Units=GPa)
#
#
# Indices 1 2 3 4 5 6 
#
# 1 76.1688 49.0135 43.8553 0.0000 0.0000 0.0000
# 2 49.0135 94.6410 45.0469 0.0000 0.0000 0.0000
# 3 43.8553 45.0469 92.9376 0.0000 0.0000 0.0000
# 4 0.0000 0.0000 0.0000 36.2858 0.0000 0.0000
# 5 0.0000 0.0000 0.0000 0.0000 30.7930 0.0000
# 6 0.0000 0.0000 0.0000 0.0000 0.0000 9.5157
#
#
#
# Elastic Compliance Matrix: (Units=1/GPa)
#
#
# Indices 1 2 3 4 5 6 
#
# 1 0.022276 -0.008492 -0.006395 0.000000 0.000000 0.000000
# 2 -0.008492 0.016973 -0.004219 0.000000 0.000000 0.000000
# 3 -0.006395 -0.004219 0.015823 0.000000 0.000000 0.000000
# 4 0.000000 0.000000 0.000000 0.027559 0.000000 0.000000
# 5 0.000000 0.000000 0.000000 0.000000 0.032475 0.000000
# 6 0.000000 0.000000 0.000000 0.000000 0.000000 0.105089
#
#
# Mechanical properties :
#
#
# Convention : Reuss Voigt Hill
#
# Bulk Modulus (GPa) = 59.32113 59.95320 59.63717
# Shear Modulus (GPa) = 18.93750 23.70768 21.32259
#
# Velocity S-wave (km/s) = 3.27957 3.66945 3.47997
# Velocity P-wave (km/s) = 6.93054 7.21136 7.07234
#
# Compressibility (1/GPa) = 0.01685740
#
# Stress axis : x y z
#
# Youngs Moduli (GPa) = 44.89234 58.91855 63.20031
#
# Poissons Ratio (x) = 0.50035 0.40417
# Poissons Ratio (y) = 0.38124 0.26666
# Poissons Ratio (z) = 0.28709 0.24859
#
# Static dielectric constant tensor:
#      x y z
#    x 3.182500 0.000000 0.000000 
#    y 0.000000 3.066150 0.000000 
#    z 0.000000 0.000000 3.254080 
# 
# 
# High freq. dielectric constant tensor:
#      x y z
#    x 1.673450 0.000000 0.000000 
#    y 0.000000 1.668600 0.000000 
#    z 0.000000 0.000000 1.691030 
# 
# From -- ./inp_files/5754.got.cif
#   From: 2010.03.12/outbox.cif.g09.slc.cpg/sg63_3_cif.got.tgz:5754.got - 2010.04.10 19:34:48.
