data_PCOD8258945
_publ_section_title
;
Structure prediction by ZEFSAII (Michael W. Deem and Ramdas Pophale) SiO2 
 PCOD8258945
Probable space group: C M C M
;
_chemical_formula_sum "Si O2"
_cell_formula_units_Z 88
_cell_length_a 21.969414
_cell_length_b 22.927551
_cell_length_c 8.990275
_cell_angle_alpha 90.000000
_cell_angle_beta 90.000000
_cell_angle_gamma 90.000000
_cell_volume 4528.445210
_symmetry_space_group_name_H-M "C M C M"
_symmetry_group_IT_number 63
_symmetry_cell_setting 'orthorhombic'
loop_
_space_group_symop_operation_xyz
x,y,z
-x,-y,1/2+z
x,-y,-z
-x,y,1/2-z
-x,-y,-z
x,y,1/2-z
-x,y,z
x,-y,1/2+z
1/2+x,1/2+y,z
1/2-x,1/2-y,1/2+z
1/2+x,1/2-y,-z
1/2-x,1/2+y,1/2-z
1/2-x,1/2-y,-z
1/2+x,1/2+y,1/2-z
1/2-x,1/2+y,z
1/2+x,1/2-y,1/2+z
loop_
_atom_site_type_symbol
_atom_site_label
_atom_site_fract_x
_atom_site_fract_y
_atom_site_fract_z
Si Si1 0.662427 0.650577 0.578231
Si Si2 0.760804 0.440782 0.420268
Si Si3 0.184881 0.738174 0.925013
Si Si4 0.500000 0.064777 0.071438
Si Si5 0.383219 0.120687 0.577644
Si Si6 0.932771 0.945586 0.079687
O O1 0.670983 0.669828 0.750000
O O2 0.722311 0.615126 0.522336
O O3 0.647008 0.705432 0.473773
O O4 0.603271 0.612800 0.552446
O O5 0.741669 0.500000 0.500000
O O6 0.742514 0.449836 0.250000
O O7 0.832327 0.429259 0.441646
O O8 0.195091 0.732954 0.750000
O O9 0.147147 0.681300 0.979436
O O10 0.250000 0.750000 0.000000
O O11 0.500000 0.058629 0.250000
O O12 0.559092 0.101681 0.020772
O O13 0.500000 0.000000 0.000000
O O14 0.403497 0.126066 0.750000
O O15 0.935523 0.962429 0.250000
O O16 0.000000 0.935860 0.012456
O O17 0.899961 0.000000 0.000000
#
# Coordination Sequence:
#
# PCOD8258945 Si02
#       6
#    16  16  16   8  16  16
#     4  10  20  36  55  80 118 154 193 242 292 350
#     4  10  20  34  54  83 115 150 189 239 297 350
#     4  11  22  39  63  88 118 155 194 240 294 352
#     4  12  26  44  68  96 124 162 207 254 311 372
#     4  10  22  42  63  86 121 160 200 249 305 358
#     4   9  18  33  54  79 112 152 190 235 286 337
#
# _framework density 19.432718000000001
#
# number of rings (size 3 to 8) (size 9 to 14) (size 15 to 20)
#    0.000    1.818    1.818    2.455    0.000    5.091 
#    1.636    0.000    0.000    0.000    0.000    0.000 
#    0.000    0.000    0.000    0.000    0.000    0.000 
#
# Total GULP energy -545399.660930 kJ/mol
# GULP energy per Si atom -12395.446839 kJ/mol
# Density = 1.938849 g / cm^3
# Si number density = 19.432718 Si / 1000 Ang^3
#
#
#
# Elastic Constant Matrix: (Units=GPa)
#
#
# Indices 1 2 3 4 5 6 
#
# 1 96.7232 46.5127 44.0763 0.0000 0.0000 0.0000
# 2 46.5127 137.2183 56.9780 0.0000 0.0000 0.0000
# 3 44.0763 56.9780 69.4766 0.0000 0.0000 0.0000
# 4 0.0000 0.0000 0.0000 37.6876 0.0000 0.0000
# 5 0.0000 0.0000 0.0000 0.0000 13.1652 0.0000
# 6 0.0000 0.0000 0.0000 0.0000 0.0000 34.5196
#
#
#
# Elastic Compliance Matrix: (Units=1/GPa)
#
#
# Indices 1 2 3 4 5 6 
#
# 1 0.014799 -0.001695 -0.007998 0.000000 0.000000 0.000000
# 2 -0.001695 0.011245 -0.008147 0.000000 0.000000 0.000000
# 3 -0.007998 -0.008147 0.026149 0.000000 0.000000 0.000000
# 4 0.000000 0.000000 0.000000 0.026534 0.000000 0.000000
# 5 0.000000 0.000000 0.000000 0.000000 0.075958 0.000000
# 6 0.000000 0.000000 0.000000 0.000000 0.000000 0.028969
#
#
# Mechanical properties :
#
#
# Convention : Reuss Voigt Hill
#
# Bulk Modulus (GPa) = 60.56106 66.50581 63.53343
# Shear Modulus (GPa) = 22.23830 27.46455 24.85142
#
# Velocity S-wave (km/s) = 3.38653 3.76349 3.57997
# Velocity P-wave (km/s) = 6.82082 7.29267 7.06069
#
# Compressibility (1/GPa) = 0.01651226
#
# Stress axis : x y z
#
# Youngs Moduli (GPa) = 67.57361 88.92786 38.24304
#
# Poissons Ratio (x) = 0.15075 0.30587
# Poissons Ratio (y) = 0.11455 0.31155
# Poissons Ratio (z) = 0.54046 0.72447
#
# Static dielectric constant tensor:
#      x y z
#    x 3.841720 0.000000 0.000000 
#    y 0.000000 3.865610 0.000000 
#    z 0.000000 0.000000 2.923670 
# 
# 
# High freq. dielectric constant tensor:
#      x y z
#    x 1.759560 0.000000 0.000000 
#    y 0.000000 1.766050 0.000000 
#    z 0.000000 0.000000 1.743940 
# 
# From -- ./inp_files/8230.got.cif
#   From: 2010.03.12/outbox.cif.g09.slc.cpg/sg63_5_cif.got.tgz:8230.got - 2010.04.10 19:34:48.
