data_PCOD8258818
_publ_section_title
;
Structure prediction by ZEFSAII (Michael W. Deem and Ramdas Pophale) SiO2 
 PCOD8258818
Probable space group: C M C M
;
_chemical_formula_sum "Si O2"
_cell_formula_units_Z 80
_cell_length_a 9.404152
_cell_length_b 29.243267
_cell_length_c 16.228017
_cell_angle_alpha 90.000000
_cell_angle_beta 90.000000
_cell_angle_gamma 90.000000
_cell_volume 4462.836574
_symmetry_space_group_name_H-M "C M C M"
_symmetry_group_IT_number 63
_symmetry_cell_setting 'orthorhombic'
loop_
_space_group_symop_operation_xyz
x,y,z
-x,-y,1/2+z
x,-y,-z
-x,y,1/2-z
-x,-y,-z
x,y,1/2-z
-x,y,z
x,-y,1/2+z
1/2+x,1/2+y,z
1/2-x,1/2-y,1/2+z
1/2+x,1/2-y,-z
1/2-x,1/2+y,1/2-z
1/2-x,1/2-y,-z
1/2+x,1/2+y,1/2-z
1/2-x,1/2+y,z
1/2+x,1/2-y,1/2+z
loop_
_atom_site_type_symbol
_atom_site_label
_atom_site_fract_x
_atom_site_fract_y
_atom_site_fract_z
Si Si1 0.331226 0.488800 0.408950
Si Si2 0.169241 0.105755 0.659280
Si Si3 0.335818 0.795363 0.904577
Si Si4 0.330201 0.452172 0.750000
Si Si5 0.333167 0.856824 0.750000
Si Si6 0.665348 0.693632 0.566689
O O1 0.268649 0.500000 0.500000
O O2 0.500000 0.491626 0.411056
O O3 0.277086 0.437390 0.393110
O O4 0.279363 0.521495 0.333570
O O5 0.233760 0.100738 0.750000
O O6 0.226962 0.153097 0.622612
O O7 0.000000 0.106143 0.662953
O O8 0.500000 0.802627 0.926973
O O9 0.290348 0.825950 0.827691
O O10 0.305695 0.741638 0.886956
O O11 0.243041 0.811252 0.980515
O O12 0.500000 0.446504 0.750000
O O13 0.257654 0.402791 0.750000
O O14 0.500000 0.868984 0.750000
O O15 0.500000 0.686721 0.548305
#
# Coordination Sequence:
#
# PCOD8258818 Si02
#       6
#    16  16  16   8   8  16
#     4   9  17  29  46  72 105 130 152 198 261 304
#     4   9  16  27  46  74 102 126 157 200 249 299
#     4   9  19  35  50  70 102 136 167 202 245 295
#     4  10  20  34  53  77 101 127 168 216 251 294
#     4  10  22  36  51  69 101 143 172 198 245 302
#     4   9  18  31  53  78  99 125 165 210 247 291
#
# _framework density 17.925819000000001
#
# number of rings (size 3 to 8) (size 9 to 14) (size 15 to 20)
#    0.000    2.800    1.000    0.000    4.200    0.800 
#    0.000    0.000    0.000    2.400    0.000    0.000 
#    0.000    0.000    0.000    0.000    0.000    0.000 
#
# Total GULP energy -495772.084046 kJ/mol
# GULP energy per Si atom -12394.302101 kJ/mol
# Density = 1.788502 g / cm^3
# Si number density = 17.925819 Si / 1000 Ang^3
#
#
#
# Elastic Constant Matrix: (Units=GPa)
#
#
# Indices 1 2 3 4 5 6 
#
# 1 18.3235 27.6613 24.1490 0.0000 0.0000 0.0000
# 2 27.6613 160.1326 96.6118 0.0000 0.0000 0.0000
# 3 24.1490 96.6118 151.7927 0.0000 0.0000 0.0000
# 4 0.0000 0.0000 0.0000 36.8375 0.0000 0.0000
# 5 0.0000 0.0000 0.0000 0.0000 15.7826 0.0000
# 6 0.0000 0.0000 0.0000 0.0000 0.0000 23.8317
#
#
#
# Elastic Compliance Matrix: (Units=1/GPa)
#
#
# Indices 1 2 3 4 5 6 
#
# 1 0.077220 -0.009622 -0.006161 0.000000 0.000000 0.000000
# 2 -0.009622 0.011337 -0.005685 0.000000 0.000000 0.000000
# 3 -0.006161 -0.005685 0.011186 0.000000 0.000000 0.000000
# 4 0.000000 0.000000 0.000000 0.027146 0.000000 0.000000
# 5 0.000000 0.000000 0.000000 0.000000 0.063361 0.000000
# 6 0.000000 0.000000 0.000000 0.000000 0.000000 0.041961
#
#
# Mechanical properties :
#
#
# Convention : Reuss Voigt Hill
#
# Bulk Modulus (GPa) = 17.60330 69.67699 43.64015
# Shear Modulus (GPa) = 17.00208 27.41214 22.20711
#
# Velocity S-wave (km/s) = 3.08306 3.91474 3.52353
# Velocity P-wave (km/s) = 4.74501 7.70633 6.39932
#
# Compressibility (1/GPa) = 0.05680752
#
# Stress axis : x y z
#
# Youngs Moduli (GPa) = 12.95006 88.20990 89.39562
#
# Poissons Ratio (x) = 0.84874 0.55077
# Poissons Ratio (y) = 0.12460 0.50818
# Poissons Ratio (z) = 0.07979 0.50144
#
# Static dielectric constant tensor:
#      x y z
#    x 2.845910 0.000000 0.000000 
#    y 0.000000 3.553030 0.000000 
#    z 0.000000 0.000000 3.573350 
# 
# 
# High freq. dielectric constant tensor:
#      x y z
#    x 1.640160 0.000000 0.000000 
#    y 0.000000 1.710470 0.000000 
#    z 0.000000 0.000000 1.703040 
# 
# From -- ./inp_files/30065.got.cif
#   From: 2010.03.12/outbox.cif.g09.slc.cpg/sg63_16_cif.got.tgz:30065.got - 2010.04.10 19:34:48.
