data_PCOD8258973
_publ_section_title
;
Structure prediction by ZEFSAII (Michael W. Deem and Ramdas Pophale) SiO2 
 PCOD8258973
Probable space group: C M C M
;
_chemical_formula_sum "Si O2"
_cell_formula_units_Z 72
_cell_length_a 29.160419
_cell_length_b 14.030784
_cell_length_c 8.780738
_cell_angle_alpha 90.000000
_cell_angle_beta 90.000000
_cell_angle_gamma 90.000000
_cell_volume 3592.582232
_symmetry_space_group_name_H-M "C M C M"
_symmetry_group_IT_number 63
_symmetry_cell_setting 'orthorhombic'
loop_
_space_group_symop_operation_xyz
x,y,z
-x,-y,1/2+z
x,-y,-z
-x,y,1/2-z
-x,-y,-z
x,y,1/2-z
-x,y,z
x,-y,1/2+z
1/2+x,1/2+y,z
1/2-x,1/2-y,1/2+z
1/2+x,1/2-y,-z
1/2-x,1/2+y,1/2-z
1/2-x,1/2-y,-z
1/2+x,1/2+y,1/2-z
1/2-x,1/2+y,z
1/2+x,1/2-y,1/2+z
loop_
_atom_site_type_symbol
_atom_site_label
_atom_site_fract_x
_atom_site_fract_y
_atom_site_fract_z
Si Si1 0.817856 0.219275 0.428837
Si Si2 0.088825 0.216322 0.569903
Si Si3 0.000000 0.897037 0.430446
Si Si4 0.053244 0.400742 0.072300
Si Si5 0.228294 0.396216 0.570843
O O1 0.822073 0.234467 0.250000
O O2 0.864774 0.175191 0.495807
O O3 0.808541 0.322292 0.503622
O O4 0.778737 0.142975 0.470976
O O5 0.092779 0.212063 0.750000
O O6 0.083499 0.324009 0.514562
O O7 0.045404 0.156299 0.509877
O O8 0.000000 0.902474 0.250000
O O9 0.000000 0.000000 0.500000
O O10 0.064901 0.400291 0.250000
O O11 0.000000 0.379707 0.041043
O O12 0.068109 0.500000 0.000000
O O13 0.221146 0.500000 0.500000
O O14 0.220694 0.403036 0.750000
#
# Coordination Sequence:
#
# PCOD8258973 Si02
#       5
#    16  16   8  16  16
#     4  10  22  39  60  89 120 153 196 241 292 350
#     4  11  22  39  60  85 119 156 198 246 295 344
#     4  10  24  42  61  84 115 156 201 248 292 340
#     4  10  20  34  55  82 112 149 190 236 288 345
#     4  10  21  39  63  89 120 155 191 239 294 352
#
# _framework density 20.041294000000001
#
# number of rings (size 3 to 8) (size 9 to 14) (size 15 to 20)
#    0.000    1.778    1.111    2.667    0.000    7.111 
#    0.000    8.889    0.000    0.000    0.000    0.000 
#    0.000    0.000    0.000    0.000    0.000    0.000 
#
# Total GULP energy -446560.305249 kJ/mol
# GULP energy per Si atom -12404.452924 kJ/mol
# Density = 1.999568 g / cm^3
# Si number density = 20.041294 Si / 1000 Ang^3
#
#
#
# Elastic Constant Matrix: (Units=GPa)
#
#
# Indices 1 2 3 4 5 6 
#
# 1 123.4418 33.7042 36.7266 0.0000 0.0000 0.0000
# 2 33.7042 93.4148 30.6546 0.0000 0.0000 0.0000
# 3 36.7266 30.6546 71.6014 0.0000 0.0000 0.0000
# 4 0.0000 0.0000 0.0000 35.4512 0.0000 0.0000
# 5 0.0000 0.0000 0.0000 0.0000 36.5006 0.0000
# 6 0.0000 0.0000 0.0000 0.0000 0.0000 17.8741
#
#
#
# Elastic Compliance Matrix: (Units=1/GPa)
#
#
# Indices 1 2 3 4 5 6 
#
# 1 0.009943 -0.002227 -0.004147 0.000000 0.000000 0.000000
# 2 -0.002227 0.012953 -0.004404 0.000000 0.000000 0.000000
# 3 -0.004147 -0.004404 0.017978 0.000000 0.000000 0.000000
# 4 0.000000 0.000000 0.000000 0.028208 0.000000 0.000000
# 5 0.000000 0.000000 0.000000 0.000000 0.027397 0.000000
# 6 0.000000 0.000000 0.000000 0.000000 0.000000 0.055947
#
#
# Mechanical properties :
#
#
# Convention : Reuss Voigt Hill
#
# Bulk Modulus (GPa) = 51.75769 54.51431 53.13600
# Shear Modulus (GPa) = 27.71313 30.45669 29.08491
#
# Velocity S-wave (km/s) = 3.72264 3.90256 3.81366
# Velocity P-wave (km/s) = 6.66025 6.89686 6.77959
#
# Compressibility (1/GPa) = 0.01932080
#
# Stress axis : x y z
#
# Youngs Moduli (GPa) = 100.57705 77.19999 55.62216
#
# Poissons Ratio (x) = 0.17189 0.23064
# Poissons Ratio (y) = 0.22394 0.24494
# Poissons Ratio (z) = 0.41705 0.33996
#
# Static dielectric constant tensor:
#      x y z
#    x 3.870790 0.000000 0.000000 
#    y 0.000000 3.539030 0.000000 
#    z 0.000000 0.000000 3.580570 
# 
# 
# High freq. dielectric constant tensor:
#      x y z
#    x 1.789170 0.000000 0.000000 
#    y 0.000000 1.776820 0.000000 
#    z 0.000000 0.000000 1.792130 
# 
# From -- ./inp_files/11725.got.cif
#   From: 2010.03.12/outbox.cif.g09.slc.cpg/sg63_6_cif.got.tgz:11725.got - 2010.04.10 19:34:48.
