data_PCOD8258459
_publ_section_title
;
Structure prediction by ZEFSAII (Michael W. Deem and Ramdas Pophale) SiO2 
 PCOD8258459
Probable space group: C M C M
;
_chemical_formula_sum "Si O2"
_cell_formula_units_Z 104
_cell_length_a 31.753829
_cell_length_b 19.317310
_cell_length_c 9.682065
_cell_angle_alpha 90.000000
_cell_angle_beta 90.000000
_cell_angle_gamma 90.000000
_cell_volume 5938.964714
_symmetry_space_group_name_H-M "C M C M"
_symmetry_group_IT_number 63
_symmetry_cell_setting 'orthorhombic'
loop_
_space_group_symop_operation_xyz
x,y,z
-x,-y,1/2+z
x,-y,-z
-x,y,1/2-z
-x,-y,-z
x,y,1/2-z
-x,y,z
x,-y,1/2+z
1/2+x,1/2+y,z
1/2-x,1/2-y,1/2+z
1/2+x,1/2-y,-z
1/2-x,1/2+y,1/2-z
1/2-x,1/2-y,-z
1/2+x,1/2+y,1/2-z
1/2-x,1/2+y,z
1/2+x,1/2-y,1/2+z
loop_
_atom_site_type_symbol
_atom_site_label
_atom_site_fract_x
_atom_site_fract_y
_atom_site_fract_z
Si Si1 0.500000 0.430246 0.088542
Si Si2 0.776811 0.838626 0.092617
Si Si3 0.152500 0.063897 0.593406
Si Si4 0.404350 0.202194 0.911818
Si Si5 0.690515 0.783269 0.091720
Si Si6 0.049210 0.563648 0.591344
Si Si7 0.578320 0.333746 0.090352
O O1 0.500000 0.450472 0.250000
O O2 0.540800 0.385353 0.049371
O O3 0.500000 0.500000 0.000000
O O4 0.785999 0.816016 0.250000
O O5 0.799192 0.912429 0.064268
O O6 0.726378 0.842356 0.065209
O O7 0.798841 0.783102 0.996857
O O8 0.146252 0.039120 0.750000
O O9 0.122306 0.128292 0.560032
O O10 0.139828 0.000000 0.500000
O O11 0.411146 0.217618 0.750000
O O12 0.355342 0.188607 0.948482
O O13 0.428057 0.133136 0.958841
O O14 0.423932 0.265730 0.996342
O O15 0.691159 0.759068 0.250000
O O16 0.066030 0.500000 0.500000
O O17 0.059967 0.546976 0.750000
O O18 0.000000 0.575384 0.568007
O O19 0.574500 0.311147 0.250000
#
# Coordination Sequence:
#
# PCOD8258459 Si02
#       7
#     8  16  16  16  16  16  16
#     4  10  22  38  54  74 103 140 179 218 261 308
#     4   9  17  31  49  70  98 131 166 206 250 296
#     4  10  20  33  50  71 100 137 174 214 255 298
#     4  10  20  33  53  81 107 133 168 213 257 303
#     4   9  17  30  50  74  99 128 163 204 251 300
#     4   9  19  36  55  76 103 134 168 204 248 304
#     4  10  21  36  52  75 105 136 174 216 258 305
#
# _framework density 17.511471
#
# number of rings (size 3 to 8) (size 9 to 14) (size 15 to 20)
#    0.000    2.462    1.538    0.462    1.077    2.462 
#    0.000    0.769    0.000    0.000    0.000    0.000 
#    0.000    0.000    0.000    0.000    0.000    0.000 
#
# Total GULP energy -644711.225906 kJ/mol
# GULP energy per Si atom -12398.292806 kJ/mol
# Density = 1.747161 g / cm^3
# Si number density = 17.511471 Si / 1000 Ang^3
#
#
#
# Elastic Constant Matrix: (Units=GPa)
#
#
# Indices 1 2 3 4 5 6 
#
# 1 92.2496 58.7655 41.6953 0.0000 0.0000 0.0000
# 2 58.7655 129.3319 68.3157 0.0000 0.0000 0.0000
# 3 41.6953 68.3157 68.5683 0.0000 0.0000 0.0000
# 4 0.0000 0.0000 0.0000 35.1600 0.0000 0.0000
# 5 0.0000 0.0000 0.0000 0.0000 20.9287 0.0000
# 6 0.0000 0.0000 0.0000 0.0000 0.0000 18.7684
#
#
#
# Elastic Compliance Matrix: (Units=1/GPa)
#
#
# Indices 1 2 3 4 5 6 
#
# 1 0.016115 -0.004530 -0.005286 0.000000 0.000000 0.000000
# 2 -0.004530 0.017595 -0.014776 0.000000 0.000000 0.000000
# 3 -0.005286 -0.014776 0.032519 0.000000 0.000000 0.000000
# 4 0.000000 0.000000 0.000000 0.028441 0.000000 0.000000
# 5 0.000000 0.000000 0.000000 0.000000 0.047781 0.000000
# 6 0.000000 0.000000 0.000000 0.000000 0.000000 0.053281
#
#
# Mechanical properties :
#
#
# Convention : Reuss Voigt Hill
#
# Bulk Modulus (GPa) = 58.66336 69.74476 64.20406
# Shear Modulus (GPa) = 19.95218 23.06298 21.50758
#
# Velocity S-wave (km/s) = 3.37913 3.63302 3.50837
# Velocity P-wave (km/s) = 6.98551 7.58373 7.29076
#
# Compressibility (1/GPa) = 0.01704642
#
# Stress axis : x y z
#
# Youngs Moduli (GPa) = 62.05337 56.83325 30.75087
#
# Poissons Ratio (x) = 0.25747 0.16254
# Poissons Ratio (y) = 0.28112 0.45436
# Poissons Ratio (z) = 0.32800 0.83975
#
# Static dielectric constant tensor:
#      x y z
#    x 3.546180 0.000000 0.000000 
#    y 0.000000 3.039420 0.000000 
#    z 0.000000 0.000000 3.257310 
# 
# 
# High freq. dielectric constant tensor:
#      x y z
#    x 1.688920 0.000000 0.000000 
#    y 0.000000 1.655420 0.000000 
#    z 0.000000 0.000000 1.677750 
# 
# From -- ./inp_files/14486.got.cif
#   From: 2010.03.12/outbox.cif.g09.slc.cpg/sg63_8_cif.got.tgz:14486.got - 2010.04.10 19:34:48.
