data_PCOD8259766
_publ_section_title
;
Structure prediction by ZEFSAII (Michael W. Deem and Ramdas Pophale) SiO2 
 PCOD8259766
Probable space group: C M C M
;
_chemical_formula_sum "Si O2"
_cell_formula_units_Z 80
_cell_length_a 18.326745
_cell_length_b 10.098699
_cell_length_c 21.782200
_cell_angle_alpha 90.000000
_cell_angle_beta 90.000000
_cell_angle_gamma 90.000000
_cell_volume 4031.368577
_symmetry_space_group_name_H-M "C M C M"
_symmetry_group_IT_number 63
_symmetry_cell_setting 'orthorhombic'
loop_
_space_group_symop_operation_xyz
x,y,z
-x,-y,1/2+z
x,-y,-z
-x,y,1/2-z
-x,-y,-z
x,y,1/2-z
-x,y,z
x,-y,1/2+z
1/2+x,1/2+y,z
1/2-x,1/2-y,1/2+z
1/2+x,1/2-y,-z
1/2-x,1/2+y,1/2-z
1/2-x,1/2-y,-z
1/2+x,1/2+y,1/2-z
1/2-x,1/2+y,z
1/2+x,1/2-y,1/2+z
loop_
_atom_site_type_symbol
_atom_site_label
_atom_site_fract_x
_atom_site_fract_y
_atom_site_fract_z
Si Si1 0.083381 0.588108 0.441222
Si Si2 0.287999 0.266710 0.436673
Si Si3 0.419141 0.652324 0.179281
Si Si4 0.219861 0.971540 0.867306
Si Si5 0.365433 0.944880 0.318981
O O1 0.108541 0.500000 0.500000
O O2 0.127714 0.724660 0.442709
O O3 0.095728 0.521739 0.374591
O O4 0.000000 0.627220 0.448818
O O5 0.250000 0.250000 0.500000
O O6 0.282350 0.420991 0.421218
O O7 0.247450 0.171755 0.388510
O O8 0.431409 0.628328 0.250000
O O9 0.500000 0.641709 0.147460
O O10 0.362668 0.539719 0.157300
O O11 0.382371 0.793078 0.166376
O O12 0.278320 0.026906 0.817781
O O13 0.394999 0.982109 0.250000
#
# Coordination Sequence:
#
# PCOD8259766 Si02
#       5
#    16  16  16  16  16
#     4  10  22  39  61  89 124 162 205 258 316 372
#     4  11  22  39  61  87 119 161 207 255 308 368
#     4  10  21  37  59  90 127 162 200 253 316 374
#     4  11  21  38  61  89 120 157 209 256 300 374
#     4  10  20  38  63  90 122 163 210 254 307 379
#
# _framework density 19.844377000000001
#
# number of rings (size 3 to 8) (size 9 to 14) (size 15 to 20)
#    0.000    1.600    2.000    4.200    0.000    2.000 
#    0.000    1.000    0.000    2.400    0.000    0.000 
#    0.000    0.000    0.000    0.000    0.000    0.000 
#
# Total GULP energy -495640.514589 kJ/mol
# GULP energy per Si atom -12391.012865 kJ/mol
# Density = 1.979921 g / cm^3
# Si number density = 19.844377 Si / 1000 Ang^3
#
#
#
# Elastic Constant Matrix: (Units=GPa)
#
#
# Indices 1 2 3 4 5 6 
#
# 1 147.3844 39.1723 22.3967 0.0000 0.0000 0.0000
# 2 39.1723 61.0678 17.3066 0.0000 0.0000 0.0000
# 3 22.3967 17.3066 78.1637 0.0000 0.0000 0.0000
# 4 0.0000 0.0000 0.0000 30.4023 0.0000 0.0000
# 5 0.0000 0.0000 0.0000 0.0000 28.1619 0.0000
# 6 0.0000 0.0000 0.0000 0.0000 0.0000 14.0449
#
#
#
# Elastic Compliance Matrix: (Units=1/GPa)
#
#
# Indices 1 2 3 4 5 6 
#
# 1 0.008298 -0.004960 -0.001279 0.000000 0.000000 0.000000
# 2 -0.004960 0.020436 -0.003104 0.000000 0.000000 0.000000
# 3 -0.001279 -0.003104 0.013847 0.000000 0.000000 0.000000
# 4 0.000000 0.000000 0.000000 0.032892 0.000000 0.000000
# 5 0.000000 0.000000 0.000000 0.000000 0.035509 0.000000
# 6 0.000000 0.000000 0.000000 0.000000 0.000000 0.071200
#
#
# Mechanical properties :
#
#
# Convention : Reuss Voigt Hill
#
# Bulk Modulus (GPa) = 41.84903 49.37411 45.61157
# Shear Modulus (GPa) = 23.94239 28.37116 26.15677
#
# Velocity S-wave (km/s) = 3.47725 3.78522 3.63450
# Velocity P-wave (km/s) = 6.10378 6.63615 6.37552
#
# Compressibility (1/GPa) = 0.02389542
#
# Stress axis : x y z
#
# Youngs Moduli (GPa) = 120.51565 48.93221 72.21545
#
# Poissons Ratio (x) = 0.24270 0.09239
# Poissons Ratio (y) = 0.59776 0.22413
# Poissons Ratio (z) = 0.15418 0.15187
#
# Static dielectric constant tensor:
#      x y z
#    x 3.876660 0.000000 0.000000 
#    y 0.000000 4.185070 0.000000 
#    z 0.000000 0.000000 3.643290 
# 
# 
# High freq. dielectric constant tensor:
#      x y z
#    x 1.787300 0.000000 0.000000 
#    y 0.000000 1.757150 0.000000 
#    z 0.000000 0.000000 1.772410 
# 
# From -- ./inp_files/69752.got.cif
#   From: 2010.03.12/outbox.cif.g09.slc.cpg/sg63_35_cif.got.tgz:69752.got - 2010.04.10 19:34:48.
