data_PCOD8259054
_publ_section_title
;
Structure prediction by ZEFSAII (Michael W. Deem and Ramdas Pophale) SiO2 
 PCOD8259054
Probable space group: C M C M
;
_chemical_formula_sum "Si O2"
_cell_formula_units_Z 96
_cell_length_a 21.781143
_cell_length_b 14.864882
_cell_length_c 14.437385
_cell_angle_alpha 90.000000
_cell_angle_beta 90.000000
_cell_angle_gamma 90.000000
_cell_volume 4674.451631
_symmetry_space_group_name_H-M "C M C M"
_symmetry_group_IT_number 63
_symmetry_cell_setting 'orthorhombic'
loop_
_space_group_symop_operation_xyz
x,y,z
-x,-y,1/2+z
x,-y,-z
-x,y,1/2-z
-x,-y,-z
x,y,1/2-z
-x,y,z
x,-y,1/2+z
1/2+x,1/2+y,z
1/2-x,1/2-y,1/2+z
1/2+x,1/2-y,-z
1/2-x,1/2+y,1/2-z
1/2-x,1/2-y,-z
1/2+x,1/2+y,1/2-z
1/2-x,1/2+y,z
1/2+x,1/2-y,1/2+z
loop_
_atom_site_type_symbol
_atom_site_label
_atom_site_fract_x
_atom_site_fract_y
_atom_site_fract_z
Si Si1 0.312480 0.368140 0.989290
Si Si2 0.674283 0.838674 0.517312
Si Si3 0.067928 0.416298 0.855823
Si Si4 0.898109 0.617684 0.854608
Si Si5 0.500000 0.253126 0.860440
Si Si6 0.500000 0.453424 0.642535
Si Si7 0.633268 0.498310 0.359955
O O1 0.330438 0.268260 0.016010
O O2 0.348692 0.402693 0.898200
O O3 0.241569 0.374228 0.957555
O O4 0.327968 0.426495 0.081120
O O5 0.622761 0.872808 0.587376
O O6 0.662959 0.880446 0.415966
O O7 0.079054 0.388045 0.750000
O O8 0.067092 0.523732 0.866266
O O9 0.000000 0.382807 0.888311
O O10 0.877247 0.634390 0.750000
O O11 0.940456 0.698167 0.893989
O O12 0.500000 0.251382 0.750000
O O13 0.500000 0.353672 0.904299
O O14 0.500000 0.430958 0.750000
O O15 0.560326 0.511849 0.617632
O O16 0.647031 0.489732 0.250000
#
# Coordination Sequence:
#
# PCOD8259054 Si02
#       7
#    16  16  16  16   8   8  16
#     4  10  25  43  60  92 124 161 212 254 306 382
#     4  11  24  41  60  88 129 165 206 256 311 371
#     4  10  22  40  61  92 128 167 211 255 310 373
#     4  10  20  34  58  90 122 160 204 250 304 367
#     4   9  16  30  54  89 124 150 193 251 302 364
#     4   9  18  35  63  91 118 155 199 251 319 370
#     4  10  22  43  67  91 121 158 204 264 316 370
#
# _framework density 20.537168000000001
#
# number of rings (size 3 to 8) (size 9 to 14) (size 15 to 20)
#    0.000    2.000    0.833    1.500    5.833    6.000 
#    3.000    3.333    0.000    0.000    0.000    0.000 
#    0.000    0.000    0.000    0.000    0.000    0.000 
#
# Total GULP energy -594947.741495 kJ/mol
# GULP energy per Si atom -12394.744614 kJ/mol
# Density = 2.049042 g / cm^3
# Si number density = 20.537168 Si / 1000 Ang^3
#
#
#
# Elastic Constant Matrix: (Units=GPa)
#
#
# Indices 1 2 3 4 5 6 
#
# 1 135.7328 47.7561 59.2261 0.0000 0.0000 0.0000
# 2 47.7561 78.1089 39.5595 0.0000 0.0000 0.0000
# 3 59.2261 39.5595 108.3361 0.0000 0.0000 0.0000
# 4 0.0000 0.0000 0.0000 21.0101 0.0000 0.0000
# 5 0.0000 0.0000 0.0000 0.0000 20.8939 0.0000
# 6 0.0000 0.0000 0.0000 0.0000 0.0000 24.6686
#
#
#
# Elastic Compliance Matrix: (Units=1/GPa)
#
#
# Indices 1 2 3 4 5 6 
#
# 1 0.010796 -0.004431 -0.004284 0.000000 0.000000 0.000000
# 2 -0.004431 0.017526 -0.003977 0.000000 0.000000 0.000000
# 3 -0.004284 -0.003977 0.013025 0.000000 0.000000 0.000000
# 4 0.000000 0.000000 0.000000 0.047596 0.000000 0.000000
# 5 0.000000 0.000000 0.000000 0.000000 0.047861 0.000000
# 6 0.000000 0.000000 0.000000 0.000000 0.000000 0.040537
#
#
# Mechanical properties :
#
#
# Convention : Reuss Voigt Hill
#
# Bulk Modulus (GPa) = 62.64791 68.36235 65.50513
# Shear Modulus (GPa) = 24.03313 25.02359 24.52836
#
# Velocity S-wave (km/s) = 3.42457 3.49442 3.45967
# Velocity P-wave (km/s) = 6.79763 7.04562 6.92273
#
# Compressibility (1/GPa) = 0.01596222
#
# Stress axis : x y z
#
# Youngs Moduli (GPa) = 92.63032 57.05770 76.77613
#
# Poissons Ratio (x) = 0.25281 0.32890
# Poissons Ratio (y) = 0.41043 0.30537
# Poissons Ratio (z) = 0.39682 0.22695
#
# Static dielectric constant tensor:
#      x y z
#    x 3.950970 0.000000 0.000000 
#    y 0.000000 3.692510 0.000000 
#    z 0.000000 0.000000 3.659300 
# 
# 
# High freq. dielectric constant tensor:
#      x y z
#    x 1.811740 0.000000 0.000000 
#    y 0.000000 1.798150 0.000000 
#    z 0.000000 0.000000 1.795910 
# 
# From -- ./inp_files/35406.got.cif
#   From: 2010.03.12/outbox.cif.g09.slc.cpg/sg63_18_cif.got.tgz:35406.got - 2010.04.10 19:34:48.
