data_PCOD8259842
_publ_section_title
;
Structure prediction by ZEFSAII (Michael W. Deem and Ramdas Pophale) SiO2 
 PCOD8259842
Probable space group: C M C M
;
_chemical_formula_sum "Si O2"
_cell_formula_units_Z 56
_cell_length_a 15.139389
_cell_length_b 11.812478
_cell_length_c 14.692991
_cell_angle_alpha 90.000000
_cell_angle_beta 90.000000
_cell_angle_gamma 90.000000
_cell_volume 2627.601937
_symmetry_space_group_name_H-M "C M C M"
_symmetry_group_IT_number 63
_symmetry_cell_setting 'orthorhombic'
loop_
_space_group_symop_operation_xyz
x,y,z
-x,-y,1/2+z
x,-y,-z
-x,y,1/2-z
-x,-y,-z
x,y,1/2-z
-x,y,z
x,-y,1/2+z
1/2+x,1/2+y,z
1/2-x,1/2-y,1/2+z
1/2+x,1/2-y,-z
1/2-x,1/2+y,1/2-z
1/2-x,1/2-y,-z
1/2+x,1/2+y,1/2-z
1/2-x,1/2+y,z
1/2+x,1/2-y,1/2+z
loop_
_atom_site_type_symbol
_atom_site_label
_atom_site_fract_x
_atom_site_fract_y
_atom_site_fract_z
Si Si1 0.399141 0.291070 0.750000
Si Si2 0.158039 0.606133 0.612340
Si Si3 0.800812 0.974218 0.250000
Si Si4 0.101202 0.239169 0.750000
Si Si5 0.400432 0.129688 0.079861
O O1 0.500000 0.334727 0.750000
O O2 0.381986 0.214552 0.837904
O O3 0.331510 0.396305 0.750000
O O4 0.247754 0.560294 0.658710
O O5 0.091363 0.499507 0.615398
O O6 0.166691 0.640509 0.505810
O O7 0.887495 0.895383 0.250000
O O8 0.143831 0.294018 0.659282
O O9 0.000000 0.274958 0.750000
O O10 0.500000 0.170718 0.054416
#
# Coordination Sequence:
#
# PCOD8259842 Si02
#       5
#     8  16   8   8  16
#     4  11  22  41  64  88 127 174 212 249 303 382
#     4  10  22  37  65  91 123 152 207 263 312 359
#     4  11  25  39  56  91 132 163 208 250 313 372
#     4  10  22  40  63  85 123 167 206 255 309 370
#     4  10  20  40  67  94 118 154 209 263 316 367
#
# _framework density 21.312208999999999
#
# number of rings (size 3 to 8) (size 9 to 14) (size 15 to 20)
#    0.000    1.714    0.000    5.571    8.000    2.286 
#    5.143    0.000    0.000    5.143    0.000    0.000 
#    0.000    0.000    0.000    0.000    0.000    0.000 
#
# Total GULP energy -346996.673717 kJ/mol
# GULP energy per Si atom -12392.738347 kJ/mol
# Density = 2.126370 g / cm^3
# Si number density = 21.312209 Si / 1000 Ang^3
#
#
#
# Elastic Constant Matrix: (Units=GPa)
#
#
# Indices 1 2 3 4 5 6 
#
# 1 77.2181 33.7889 45.5156 0.0000 0.0000 0.0000
# 2 33.7889 125.6228 79.9268 0.0000 0.0000 0.0000
# 3 45.5156 79.9268 174.3791 0.0000 0.0000 0.0000
# 4 0.0000 0.0000 0.0000 -3.3923 0.0000 0.0000
# 5 0.0000 0.0000 0.0000 0.0000 14.5600 0.0000
# 6 0.0000 0.0000 0.0000 0.0000 0.0000 34.8347
#
#
#
# Elastic Compliance Matrix: (Units=1/GPa)
#
#
# Indices 1 2 3 4 5 6 
#
# 1 0.015758 -0.002289 -0.003064 0.000000 0.000000 0.000000
# 2 -0.002289 0.011570 -0.004706 0.000000 0.000000 0.000000
# 3 -0.003064 -0.004706 0.008691 0.000000 0.000000 0.000000
# 4 0.000000 0.000000 0.000000 -0.294788 0.000000 0.000000
# 5 0.000000 0.000000 0.000000 0.000000 0.068681 0.000000
# 6 0.000000 0.000000 0.000000 0.000000 0.000000 0.028707
#
#
# Mechanical properties :
#
#
# Convention : Reuss Voigt Hill
#
# Bulk Modulus (GPa) = 62.88526 77.29806 70.09166
# Shear Modulus (GPa) = -36.77462 23.73308 -6.52077
#
# Velocity S-wave (km/s) = -4.15844 3.34067 -1.75108
# Velocity P-wave (km/s) = 2.55223 7.15739 5.37318
#
# Compressibility (1/GPa) = 0.01590198
#
# Stress axis : x y z
#
# Youngs Moduli (GPa) = 63.46005 86.43076 115.05925
#
# Poissons Ratio (x) = 0.19784 0.35253
# Poissons Ratio (y) = 0.14526 0.54143
# Poissons Ratio (z) = 0.19443 0.40671
#
# Static dielectric constant tensor:
#      x y z
#    x 3.541400 0.000000 0.000000 
#    y 0.000000 3.733270 0.000000 
#    z 0.000000 0.000000 4.140580 
# 
# 
# High freq. dielectric constant tensor:
#      x y z
#    x 1.812820 0.000000 0.000000 
#    y 0.000000 1.831860 0.000000 
#    z 0.000000 0.000000 1.845600 
# 
# From -- ./inp_files/30851.got.cif
#   From: 2010.03.12/outbox.cif.g09.slc.cpg/sg63_16_cif.got.tgz:30851.got - 2010.04.10 19:34:48.
