data_PCOD8259325
_publ_section_title
;
Structure prediction by ZEFSAII (Michael W. Deem and Ramdas Pophale) SiO2 
 PCOD8259325
Probable space group: C M C M
;
_chemical_formula_sum "Si O2"
_cell_formula_units_Z 56
_cell_length_a 12.941173
_cell_length_b 8.408525
_cell_length_c 21.653605
_cell_angle_alpha 90.000000
_cell_angle_beta 90.000000
_cell_angle_gamma 90.000000
_cell_volume 2356.262508
_symmetry_space_group_name_H-M "C M C M"
_symmetry_group_IT_number 63
_symmetry_cell_setting 'orthorhombic'
loop_
_space_group_symop_operation_xyz
x,y,z
-x,-y,1/2+z
x,-y,-z
-x,y,1/2-z
-x,-y,-z
x,y,1/2-z
-x,y,z
x,-y,1/2+z
1/2+x,1/2+y,z
1/2-x,1/2-y,1/2+z
1/2+x,1/2-y,-z
1/2-x,1/2+y,1/2-z
1/2-x,1/2-y,-z
1/2+x,1/2+y,1/2-z
1/2-x,1/2+y,z
1/2+x,1/2-y,1/2+z
loop_
_atom_site_type_symbol
_atom_site_label
_atom_site_fract_x
_atom_site_fract_y
_atom_site_fract_z
Si Si1 0.264011 0.500000 0.000000
Si Si2 0.683861 0.593454 0.177464
Si Si3 0.618297 0.778535 0.432348
Si Si4 0.112125 0.751862 0.322172
O O1 0.338293 0.366738 0.972604
O O2 0.189112 0.568279 0.946272
O O3 0.660401 0.619284 0.250000
O O4 0.623179 0.730209 0.140173
O O5 0.806435 0.613541 0.162915
O O6 0.650637 0.421576 0.151653
O O7 0.500000 0.814324 0.450474
O O8 0.100530 0.776179 0.250000
O O9 0.000000 0.707774 0.351316
#
# Coordination Sequence:
#
# PCOD8259325 Si02
#       4
#     8  16  16  16
#     4  10  24  42  60  86 112 150 204 242 276 334
#     4  10  20  35  59  90 119 149 188 233 288 352
#     4  11  22  40  63  85 116 153 191 240 289 336
#     4   9  18  34  53  77 115 154 185 224 275 335
#
# _framework density 23.766452999999998
#
# number of rings (size 3 to 8) (size 9 to 14) (size 15 to 20)
#    0.000    2.000    0.000    3.429    0.000    1.714 
#    0.000   12.857    0.000   17.143    0.000    0.000 
#    0.000    0.000    0.000    0.000    0.000    0.000 
#
# Total GULP energy -347109.744482 kJ/mol
# GULP energy per Si atom -12396.776589 kJ/mol
# Density = 2.371236 g / cm^3
# Si number density = 23.766453 Si / 1000 Ang^3
#
#
#
# Elastic Constant Matrix: (Units=GPa)
#
#
# Indices 1 2 3 4 5 6 
#
# 1 167.0336 13.5973 7.8116 0.0000 0.0000 0.0000
# 2 13.5973 24.3345 -4.1260 0.0000 0.0000 0.0000
# 3 7.8116 -4.1260 65.5355 0.0000 0.0000 0.0000
# 4 0.0000 0.0000 0.0000 26.9442 0.0000 0.0000
# 5 0.0000 0.0000 0.0000 0.0000 25.1378 0.0000
# 6 0.0000 0.0000 0.0000 0.0000 0.0000 34.3139
#
#
#
# Elastic Compliance Matrix: (Units=1/GPa)
#
#
# Indices 1 2 3 4 5 6 
#
# 1 0.006335 -0.003707 -0.000988 0.000000 0.000000 0.000000
# 2 -0.003707 0.043707 0.003194 0.000000 0.000000 0.000000
# 3 -0.000988 0.003194 0.015578 0.000000 0.000000 0.000000
# 4 0.000000 0.000000 0.000000 0.037114 0.000000 0.000000
# 5 0.000000 0.000000 0.000000 0.000000 0.039781 0.000000
# 6 0.000000 0.000000 0.000000 0.000000 0.000000 0.029143
#
#
# Mechanical properties :
#
#
# Convention : Reuss Voigt Hill
#
# Bulk Modulus (GPa) = 15.97058 32.38550 24.17804
# Shear Modulus (GPa) = 25.57115 33.25389 29.41252
#
# Velocity S-wave (km/s) = 3.28370 3.74464 3.52172
# Velocity P-wave (km/s) = 4.59471 5.68793 5.17029
#
# Compressibility (1/GPa) = 0.06261512
#
# Stress axis : x y z
#
# Youngs Moduli (GPa) = 157.85728 22.87969 64.19398
#
# Poissons Ratio (x) = 0.08482 0.06346
# Poissons Ratio (y) = 0.58522 -0.20501
# Poissons Ratio (z) = 0.15604 -0.07307
#
# Static dielectric constant tensor:
#      x y z
#    x 4.691120 0.000000 0.000000 
#    y 0.000000 4.120520 0.000000 
#    z 0.000000 0.000000 4.150180 
# 
# 
# High freq. dielectric constant tensor:
#      x y z
#    x 1.948140 0.000000 0.000000 
#    y 0.000000 1.932450 0.000000 
#    z 0.000000 0.000000 1.931270 
# 
# From -- ./inp_files/62291.got.cif
#   From: 2010.03.12/outbox.cif.g09.slc.cpg/sg63_32_cif.got.tgz:62291.got - 2010.04.10 19:34:48.
