data_PCOD8259598
_publ_section_title
;
Structure prediction by ZEFSAII (Michael W. Deem and Ramdas Pophale) SiO2 
 PCOD8259598
Probable space group: C M C M
;
_chemical_formula_sum "Si O2"
_cell_formula_units_Z 96
_cell_length_a 24.111947
_cell_length_b 23.799513
_cell_length_c 8.582647
_cell_angle_alpha 90.000000
_cell_angle_beta 90.000000
_cell_angle_gamma 90.000000
_cell_volume 4925.174262
_symmetry_space_group_name_H-M "C M C M"
_symmetry_group_IT_number 63
_symmetry_cell_setting 'orthorhombic'
loop_
_space_group_symop_operation_xyz
x,y,z
-x,-y,1/2+z
x,-y,-z
-x,y,1/2-z
-x,-y,-z
x,y,1/2-z
-x,y,z
x,-y,1/2+z
1/2+x,1/2+y,z
1/2-x,1/2-y,1/2+z
1/2+x,1/2-y,-z
1/2-x,1/2+y,1/2-z
1/2-x,1/2-y,-z
1/2+x,1/2+y,1/2-z
1/2-x,1/2+y,z
1/2+x,1/2-y,1/2+z
loop_
_atom_site_type_symbol
_atom_site_label
_atom_site_fract_x
_atom_site_fract_y
_atom_site_fract_z
Si Si1 0.436661 0.059791 0.066407
Si Si2 0.842080 0.767736 0.932320
Si Si3 0.153734 0.357559 0.433788
Si Si4 0.437049 0.650177 0.430344
Si Si5 0.135041 0.059855 0.931851
Si Si6 0.731370 0.368866 0.566115
O O1 0.431876 0.056769 0.250000
O O2 0.500000 0.072001 0.012968
O O3 0.397879 0.109530 0.005622
O O4 0.416278 0.000000 0.000000
O O5 0.833321 0.761546 0.750000
O O6 0.842745 0.705584 0.006507
O O7 0.901248 0.795097 0.972571
O O8 0.792661 0.808440 0.995360
O O9 0.145394 0.357310 0.250000
O O10 0.211949 0.385790 0.479786
O O11 0.428003 0.633228 0.250000
O O12 0.500000 0.665680 0.467910
O O13 0.418408 0.598643 0.537917
O O14 0.148739 0.057018 0.750000
O O15 0.187834 0.082928 0.025215
O O16 0.119341 0.000000 0.000000
O O17 0.741247 0.367912 0.750000
#
# Coordination Sequence:
#
# PCOD8259598 Si02
#       6
#    16  16  16  16  16  16
#     4  10  22  41  61  81 108 142 180 224 273 321
#     4   8  17  33  54  81 113 147 181 221 268 318
#     4  11  21  34  57  88 115 143 181 219 264 324
#     4   9  18  35  57  80 109 146 186 227 271 318
#     4  11  22  37  56  79 108 142 183 229 278 327
#     4  10  20  37  57  79 111 147 183 224 271 318
#
# _framework density 19.491696000000001
#
# number of rings (size 3 to 8) (size 9 to 14) (size 15 to 20)
#    0.000    2.167    0.000    4.500    0.000    3.000 
#    0.000   12.500    0.000    0.000    0.000    0.000 
#    0.000    0.000    0.000    0.000    0.000    0.000 
#
# Total GULP energy -595203.527745 kJ/mol
# GULP energy per Si atom -12400.073495 kJ/mol
# Density = 1.944733 g / cm^3
# Si number density = 19.491696 Si / 1000 Ang^3
#
#
#
# Elastic Constant Matrix: (Units=GPa)
#
#
# Indices 1 2 3 4 5 6 
#
# 1 113.4910 27.1772 24.7751 0.0000 0.0000 0.0000
# 2 27.1772 64.5937 25.4376 0.0000 0.0000 0.0000
# 3 24.7751 25.4376 59.5101 0.0000 0.0000 0.0000
# 4 0.0000 0.0000 0.0000 26.9861 0.0000 0.0000
# 5 0.0000 0.0000 0.0000 0.0000 30.0854 0.0000
# 6 0.0000 0.0000 0.0000 0.0000 0.0000 16.3563
#
#
#
# Elastic Compliance Matrix: (Units=1/GPa)
#
#
# Indices 1 2 3 4 5 6 
#
# 1 0.010198 -0.003149 -0.002900 0.000000 0.000000 0.000000
# 2 -0.003149 0.019587 -0.007062 0.000000 0.000000 0.000000
# 3 -0.002900 -0.007062 0.021030 0.000000 0.000000 0.000000
# 4 0.000000 0.000000 0.000000 0.037056 0.000000 0.000000
# 5 0.000000 0.000000 0.000000 0.000000 0.033239 0.000000
# 6 0.000000 0.000000 0.000000 0.000000 0.000000 0.061138
#
#
# Mechanical properties :
#
#
# Convention : Reuss Voigt Hill
#
# Bulk Modulus (GPa) = 40.65935 43.59716 42.12826
# Shear Modulus (GPa) = 23.07686 25.36588 24.22137
#
# Velocity S-wave (km/s) = 3.44457 3.61136 3.52895
# Velocity P-wave (km/s) = 6.06013 6.30911 6.18587
#
# Compressibility (1/GPa) = 0.02459459
#
# Stress axis : x y z
#
# Youngs Moduli (GPa) = 98.05517 51.05378 47.55204
#
# Poissons Ratio (x) = 0.16076 0.13789
# Poissons Ratio (y) = 0.30877 0.33579
# Poissons Ratio (z) = 0.28434 0.36052
#
# Static dielectric constant tensor:
#      x y z
#    x 3.605880 0.000000 0.000000 
#    y 0.000000 3.728630 0.000000 
#    z 0.000000 0.000000 3.436400 
# 
# 
# High freq. dielectric constant tensor:
#      x y z
#    x 1.763300 0.000000 0.000000 
#    y 0.000000 1.757640 0.000000 
#    z 0.000000 0.000000 1.750060 
# 
# From -- ./inp_files/10494.got.cif
#   From: 2010.03.12/outbox.cif.g09.slc.cpg/sg63_6_cif.got.tgz:10494.got - 2010.04.10 19:34:48.
