data_PCOD8259025
_publ_section_title
;
Structure prediction by ZEFSAII (Michael W. Deem and Ramdas Pophale) SiO2 
 PCOD8259025
Probable space group: C M C M
;
_chemical_formula_sum "Si O2"
_cell_formula_units_Z 72
_cell_length_a 16.790734
_cell_length_b 24.910146
_cell_length_c 8.638937
_cell_angle_alpha 90.000000
_cell_angle_beta 90.000000
_cell_angle_gamma 90.000000
_cell_volume 3613.318640
_symmetry_space_group_name_H-M "C M C M"
_symmetry_group_IT_number 63
_symmetry_cell_setting 'orthorhombic'
loop_
_space_group_symop_operation_xyz
x,y,z
-x,-y,1/2+z
x,-y,-z
-x,y,1/2-z
-x,-y,-z
x,y,1/2-z
-x,y,z
x,-y,1/2+z
1/2+x,1/2+y,z
1/2-x,1/2-y,1/2+z
1/2+x,1/2-y,-z
1/2-x,1/2+y,1/2-z
1/2-x,1/2-y,-z
1/2+x,1/2+y,1/2-z
1/2-x,1/2+y,z
1/2+x,1/2-y,1/2+z
loop_
_atom_site_type_symbol
_atom_site_label
_atom_site_fract_x
_atom_site_fract_y
_atom_site_fract_z
Si Si1 0.912712 0.742668 0.933685
Si Si2 0.372314 0.360837 0.567488
Si Si3 0.000000 0.059996 0.933134
Si Si4 0.911046 0.554047 0.568066
Si Si5 0.700846 0.150100 0.566637
O O1 0.909192 0.741306 0.750000
O O2 0.903044 0.803327 0.994201
O O3 0.840451 0.705282 0.994200
O O4 0.000000 0.721634 0.988687
O O5 0.384914 0.366673 0.750000
O O6 0.420908 0.408518 0.486662
O O7 0.280073 0.363565 0.525678
O O8 0.000000 0.055799 0.750000
O O9 0.000000 0.000000 0.000000
O O10 0.872104 0.500000 0.500000
O O11 0.913075 0.549106 0.750000
O O12 0.859588 0.604154 0.515914
O O13 0.000000 0.561867 0.500822
O O14 0.717836 0.151460 0.750000
#
# Coordination Sequence:
#
# PCOD8259025 Si02
#       5
#    16  16   8  16  16
#     4   9  17  33  59  86 117 157 199 245 300 356
#     4  11  22  39  61  87 121 155 192 243 303 359
#     4  12  26  46  70  92 116 152 201 250 301 362
#     4   9  18  33  53  77 108 148 192 237 287 342
#     4  10  20  34  56  86 117 154 202 247 293 354
#
# _framework density 19.926279999999998
#
# number of rings (size 3 to 8) (size 9 to 14) (size 15 to 20)
#    0.000    2.000    1.111    3.000    0.000    4.444 
#    0.000    3.333    0.000    1.333    0.000    0.000 
#    0.000    0.000    0.000    0.000    0.000    0.000 
#
# Total GULP energy -446317.054603 kJ/mol
# GULP energy per Si atom -12397.695961 kJ/mol
# Density = 1.988093 g / cm^3
# Si number density = 19.926280 Si / 1000 Ang^3
#
#
#
# Elastic Constant Matrix: (Units=GPa)
#
#
# Indices 1 2 3 4 5 6 
#
# 1 134.2649 73.4263 34.8213 0.0000 0.0000 0.0000
# 2 73.4263 162.9006 45.0221 0.0000 0.0000 0.0000
# 3 34.8213 45.0221 51.9501 0.0000 0.0000 0.0000
# 4 0.0000 0.0000 0.0000 27.0267 0.0000 0.0000
# 5 0.0000 0.0000 0.0000 0.0000 24.8929 0.0000
# 6 0.0000 0.0000 0.0000 0.0000 0.0000 37.4984
#
#
#
# Elastic Compliance Matrix: (Units=1/GPa)
#
#
# Indices 1 2 3 4 5 6 
#
# 1 0.010436 -0.003643 -0.003837 0.000000 0.000000 0.000000
# 2 -0.003643 0.009344 -0.005656 0.000000 0.000000 0.000000
# 3 -0.003837 -0.005656 0.026723 0.000000 0.000000 0.000000
# 4 0.000000 0.000000 0.000000 0.037000 0.000000 0.000000
# 5 0.000000 0.000000 0.000000 0.000000 0.040172 0.000000
# 6 0.000000 0.000000 0.000000 0.000000 0.000000 0.026668
#
#
# Mechanical properties :
#
#
# Convention : Reuss Voigt Hill
#
# Bulk Modulus (GPa) = 49.43274 72.85058 61.14166
# Shear Modulus (GPa) = 27.26886 30.94000 29.10443
#
# Velocity S-wave (km/s) = 3.70332 3.94474 3.82593
# Velocity P-wave (km/s) = 6.56870 7.57544 7.08996
#
# Compressibility (1/GPa) = 0.02022951
#
# Stress axis : x y z
#
# Youngs Moduli (GPa) = 95.82610 107.02020 37.42079
#
# Poissons Ratio (x) = 0.38989 0.14360
# Poissons Ratio (y) = 0.34911 0.21165
# Poissons Ratio (z) = 0.36773 0.60530
#
# Static dielectric constant tensor:
#      x y z
#    x 3.834520 0.000000 0.000000 
#    y 0.000000 3.861550 0.000000 
#    z 0.000000 0.000000 3.327500 
# 
# 
# High freq. dielectric constant tensor:
#      x y z
#    x 1.787560 0.000000 0.000000 
#    y 0.000000 1.788110 0.000000 
#    z 0.000000 0.000000 1.748950 
# 
# From -- ./inp_files/4619.got.cif
#   From: 2010.03.12/outbox.cif.g09.slc.cpg/sg63_3_cif.got.tgz:4619.got - 2010.04.10 19:34:48.
