data_PCOD8259539
_publ_section_title
;
Structure prediction by ZEFSAII (Michael W. Deem and Ramdas Pophale) SiO2 
 PCOD8259539
Probable space group: C M C M
;
_chemical_formula_sum "Si O2"
_cell_formula_units_Z 80
_cell_length_a 7.876004
_cell_length_b 27.434562
_cell_length_c 17.794734
_cell_angle_alpha 90.000000
_cell_angle_beta 90.000000
_cell_angle_gamma 90.000000
_cell_volume 3844.992167
_symmetry_space_group_name_H-M "C M C M"
_symmetry_group_IT_number 63
_symmetry_cell_setting 'orthorhombic'
loop_
_space_group_symop_operation_xyz
x,y,z
-x,-y,1/2+z
x,-y,-z
-x,y,1/2-z
-x,-y,-z
x,y,1/2-z
-x,y,z
x,-y,1/2+z
1/2+x,1/2+y,z
1/2-x,1/2-y,1/2+z
1/2+x,1/2-y,-z
1/2-x,1/2+y,1/2-z
1/2-x,1/2-y,-z
1/2+x,1/2+y,1/2-z
1/2-x,1/2+y,z
1/2+x,1/2-y,1/2+z
loop_
_atom_site_type_symbol
_atom_site_label
_atom_site_fract_x
_atom_site_fract_y
_atom_site_fract_z
Si Si1 0.193584 0.638971 0.951159
Si Si2 0.000000 0.116686 0.333575
Si Si3 0.500000 0.517837 0.412053
Si Si4 0.302012 0.284714 0.165368
Si Si5 0.798574 0.321392 0.892176
Si Si6 0.313938 0.031603 0.574412
O O1 0.215333 0.670144 0.876060
O O2 0.268823 0.584689 0.942734
O O3 0.000000 0.629883 0.969433
O O4 0.266374 0.667611 0.023185
O O5 0.825740 0.147742 0.339026
O O6 0.000000 0.093633 0.250000
O O7 0.000000 0.075490 0.398128
O O8 0.500000 0.500000 0.500000
O O9 0.672431 0.495828 0.374456
O O10 0.229913 0.281751 0.250000
O O11 0.500000 0.295088 0.166239
O O12 0.259843 0.235116 0.122094
O O13 0.000000 0.332972 0.876966
O O14 0.500000 0.035389 0.614693
O O15 0.339077 0.000000 0.500000
#
# Coordination Sequence:
#
# PCOD8259539 Si02
#       6
#    16   8   8  16  16  16
#     4  10  21  36  62  94 117 158 211 258 307 370
#     4  12  26  40  64  98 122 162 213 255 320 379
#     4  10  20  36  60  86 116 158 196 243 306 359
#     4  10  22  38  57  85 125 170 206 248 314 371
#     4  10  22  41  63  89 125 162 207 258 311 370
#     4   9  18  34  57  86 117 146 192 247 303 354
#
# _framework density 20.806284999999999
#
# number of rings (size 3 to 8) (size 9 to 14) (size 15 to 20)
#    0.000    2.000    0.000    3.600    4.200    4.000 
#    0.000    1.000    0.000    1.200    0.000    0.000 
#    0.000    0.000    0.000    0.000    0.000    0.000 
#
# Total GULP energy -495603.860144 kJ/mol
# GULP energy per Si atom -12390.096504 kJ/mol
# Density = 2.075893 g / cm^3
# Si number density = 20.806285 Si / 1000 Ang^3
#
#
#
# Elastic Constant Matrix: (Units=GPa)
#
#
# Indices 1 2 3 4 5 6 
#
# 1 102.0261 41.3489 15.2701 0.0000 0.0000 0.0000
# 2 41.3489 156.1726 33.2666 0.0000 0.0000 0.0000
# 3 15.2701 33.2666 58.6823 0.0000 0.0000 0.0000
# 4 0.0000 0.0000 0.0000 16.9482 0.0000 0.0000
# 5 0.0000 0.0000 0.0000 0.0000 20.5802 0.0000
# 6 0.0000 0.0000 0.0000 0.0000 0.0000 31.4217
#
#
#
# Elastic Compliance Matrix: (Units=1/GPa)
#
#
# Indices 1 2 3 4 5 6 
#
# 1 0.011078 -0.002637 -0.001387 0.000000 0.000000 0.000000
# 2 -0.002637 0.007911 -0.003798 0.000000 0.000000 0.000000
# 3 -0.001387 -0.003798 0.019555 0.000000 0.000000 0.000000
# 4 0.000000 0.000000 0.000000 0.059003 0.000000 0.000000
# 5 0.000000 0.000000 0.000000 0.000000 0.048590 0.000000
# 6 0.000000 0.000000 0.000000 0.000000 0.000000 0.031825
#
#
# Mechanical properties :
#
#
# Convention : Reuss Voigt Hill
#
# Bulk Modulus (GPa) = 43.67308 55.18357 49.42833
# Shear Modulus (GPa) = 24.84582 28.92306 26.88444
#
# Velocity S-wave (km/s) = 3.45940 3.73247 3.59852
# Velocity P-wave (km/s) = 6.08214 6.71976 6.40889
#
# Compressibility (1/GPa) = 0.02289740
#
# Stress axis : x y z
#
# Youngs Moduli (GPa) = 90.26905 126.41391 51.13765
#
# Poissons Ratio (x) = 0.33342 0.07095
# Poissons Ratio (y) = 0.23808 0.19423
# Poissons Ratio (z) = 0.12525 0.48013
#
# Static dielectric constant tensor:
#      x y z
#    x 4.666440 0.000000 0.000000 
#    y 0.000000 3.827330 0.000000 
#    z 0.000000 0.000000 3.497620 
# 
# 
# High freq. dielectric constant tensor:
#      x y z
#    x 1.829740 0.000000 0.000000 
#    y 0.000000 1.823820 0.000000 
#    z 0.000000 0.000000 1.771100 
# 
# From -- ./inp_files/40579.got.cif
#   From: 2010.03.12/outbox.cif.g09.slc.cpg/sg63_21_cif.got.tgz:40579.got - 2010.04.10 19:34:48.
