data_PCOD8259721
_publ_section_title
;
Structure prediction by ZEFSAII (Michael W. Deem and Ramdas Pophale) SiO2 
 PCOD8259721
Probable space group: C M C M
;
_chemical_formula_sum "Si O2"
_cell_formula_units_Z 80
_cell_length_a 9.212144
_cell_length_b 19.051558
_cell_length_c 24.289921
_cell_angle_alpha 90.000000
_cell_angle_beta 90.000000
_cell_angle_gamma 90.000000
_cell_volume 4263.019484
_symmetry_space_group_name_H-M "C M C M"
_symmetry_group_IT_number 63
_symmetry_cell_setting 'orthorhombic'
loop_
_space_group_symop_operation_xyz
x,y,z
-x,-y,1/2+z
x,-y,-z
-x,y,1/2-z
-x,-y,-z
x,y,1/2-z
-x,y,z
x,-y,1/2+z
1/2+x,1/2+y,z
1/2-x,1/2-y,1/2+z
1/2+x,1/2-y,-z
1/2-x,1/2+y,1/2-z
1/2-x,1/2-y,-z
1/2+x,1/2+y,1/2-z
1/2-x,1/2+y,z
1/2+x,1/2-y,1/2+z
loop_
_atom_site_type_symbol
_atom_site_label
_atom_site_fract_x
_atom_site_fract_y
_atom_site_fract_z
Si Si1 0.169974 0.771125 0.147956
Si Si2 0.832176 0.869516 0.250000
Si Si3 0.827037 0.517457 0.250000
Si Si4 0.172465 0.611566 0.351655
Si Si5 0.835876 0.435531 0.531081
Si Si6 0.163781 0.299439 0.460016
O O1 0.206917 0.821338 0.198373
O O2 0.222932 0.691489 0.160320
O O3 0.258156 0.804014 0.098097
O O4 0.000000 0.771110 0.133286
O O5 0.737795 0.939771 0.250000
O O6 0.000000 0.891694 0.250000
O O7 0.771155 0.560009 0.196356
O O8 0.000000 0.511249 0.250000
O O9 0.238357 0.586384 0.410728
O O10 0.000000 0.610703 0.353596
O O11 0.754920 0.500000 0.500000
O O12 0.834655 0.374954 0.486734
O O13 0.000000 0.458366 0.545683
O O14 0.250000 0.250000 0.500000
O O15 0.000000 0.271524 0.452576
#
# Coordination Sequence:
#
# PCOD8259721 Si02
#       6
#    16   8   8  16  16  16
#     4  10  20  38  60  81 109 149 194 231 273 334
#     4  10  23  39  57  81 115 150 180 228 294 340
#     4  10  21  35  59  85 107 138 190 240 272 322
#     4   9  17  33  55  79 105 142 188 230 266 316
#     4   9  18  31  51  79 111 143 179 223 272 322
#     4  11  21  35  58  86 115 146 182 231 282 332
#
# _framework density 18.766041999999999
#
# number of rings (size 3 to 8) (size 9 to 14) (size 15 to 20)
#    0.000    2.200    2.000    1.200    2.800    3.200 
#    0.000    1.000    0.000    3.600    0.000    0.000 
#    0.000    0.000    0.000    0.000    0.000    0.000 
#
# Total GULP energy -495858.344785 kJ/mol
# GULP energy per Si atom -12396.458620 kJ/mol
# Density = 1.872333 g / cm^3
# Si number density = 18.766042 Si / 1000 Ang^3
#
#
#
# Elastic Constant Matrix: (Units=GPa)
#
#
# Indices 1 2 3 4 5 6 
#
# 1 50.6982 32.4609 50.5306 0.0000 0.0000 0.0000
# 2 32.4609 132.5977 78.0878 0.0000 0.0000 0.0000
# 3 50.5306 78.0878 170.8160 0.0000 0.0000 0.0000
# 4 0.0000 0.0000 0.0000 31.6189 0.0000 0.0000
# 5 0.0000 0.0000 0.0000 0.0000 25.9666 0.0000
# 6 0.0000 0.0000 0.0000 0.0000 0.0000 25.1917
#
#
#
# Elastic Compliance Matrix: (Units=1/GPa)
#
#
# Indices 1 2 3 4 5 6 
#
# 1 0.028698 -0.002772 -0.007222 0.000000 0.000000 0.000000
# 2 -0.002772 0.010588 -0.004020 0.000000 0.000000 0.000000
# 3 -0.007222 -0.004020 0.009828 0.000000 0.000000 0.000000
# 4 0.000000 0.000000 0.000000 0.031627 0.000000 0.000000
# 5 0.000000 0.000000 0.000000 0.000000 0.038511 0.000000
# 6 0.000000 0.000000 0.000000 0.000000 0.000000 0.039696
#
#
# Mechanical properties :
#
#
# Convention : Reuss Voigt Hill
#
# Bulk Modulus (GPa) = 47.42669 75.14116 61.28392
# Shear Modulus (GPa) = 25.77264 29.42427 27.59845
#
# Velocity S-wave (km/s) = 3.70992 3.96403 3.83908
# Velocity P-wave (km/s) = 6.60899 7.81533 7.23734
#
# Compressibility (1/GPa) = 0.02108517
#
# Stress axis : x y z
#
# Youngs Moduli (GPa) = 34.84596 94.44912 101.74614
#
# Poissons Ratio (x) = 0.26185 0.73481
# Poissons Ratio (y) = 0.09660 0.40902
# Poissons Ratio (z) = 0.25166 0.37969
#
# Static dielectric constant tensor:
#      x y z
#    x 2.730870 0.000000 0.000000 
#    y 0.000000 3.583160 0.000000 
#    z 0.000000 0.000000 3.553460 
# 
# 
# High freq. dielectric constant tensor:
#      x y z
#    x 1.681080 0.000000 0.000000 
#    y 0.000000 1.741090 0.000000 
#    z 0.000000 0.000000 1.747360 
# 
# From -- ./inp_files/52444.got.cif
#   From: 2010.03.12/outbox.cif.g09.slc.cpg/sg63_27_cif.got.tgz:52444.got - 2010.04.10 19:34:48.
