data_PCOD8259075
_publ_section_title
;
Structure prediction by ZEFSAII (Michael W. Deem and Ramdas Pophale) SiO2 
 PCOD8259075
Probable space group: C M C M
;
_chemical_formula_sum "Si O2"
_cell_formula_units_Z 72
_cell_length_a 31.181982
_cell_length_b 9.630164
_cell_length_c 13.963977
_cell_angle_alpha 90.000000
_cell_angle_beta 90.000000
_cell_angle_gamma 90.000000
_cell_volume 4193.209147
_symmetry_space_group_name_H-M "C M C M"
_symmetry_group_IT_number 63
_symmetry_cell_setting 'orthorhombic'
loop_
_space_group_symop_operation_xyz
x,y,z
-x,-y,1/2+z
x,-y,-z
-x,y,1/2-z
-x,-y,-z
x,y,1/2-z
-x,y,z
x,-y,1/2+z
1/2+x,1/2+y,z
1/2-x,1/2-y,1/2+z
1/2+x,1/2-y,-z
1/2-x,1/2+y,1/2-z
1/2-x,1/2-y,-z
1/2+x,1/2+y,1/2-z
1/2-x,1/2+y,z
1/2+x,1/2-y,1/2+z
loop_
_atom_site_type_symbol
_atom_site_label
_atom_site_fract_x
_atom_site_fract_y
_atom_site_fract_z
Si Si1 0.281815 0.500000 0.750000
Si Si2 0.929173 0.664390 0.250000
Si Si3 0.166545 0.718788 0.750000
Si Si4 0.929173 0.335611 0.250000
Si Si5 0.666545 0.781212 0.750000
Si Si6 0.500000 0.164917 0.894950
Si Si7 0.500000 0.835083 0.605050
Si Si8 0.295614 0.000000 0.885559
O O1 0.311328 0.366418 0.750000
O O2 0.311327 0.633583 0.750000
O O3 0.252831 0.500000 0.654336
O O4 0.920199 0.500000 0.250000
O O5 0.884308 0.744341 0.250000
O O6 0.956641 0.712314 0.342008
O O7 0.115692 0.744341 0.750000
O O8 0.180093 0.635947 0.654147
O O9 0.956641 0.287686 0.157992
O O10 0.680092 0.864054 0.654147
O O11 0.500000 1.000000 0.897925
O O12 0.500000 0.231934 1.000000
O O13 0.295721 0.000000 0.000000
#
# Coordination Sequence:
#
# PCOD8259075 Si02
#       8
#     8   8   8   8   8   8   8  16
#     4  10  22  36  52  73 106 135 168 208 254 304
#     4   9  15  29  45  69 101 123 161 206 242 293
#     4  10  20  35  52  78 103 132 170 211 248 300
#     4   9  15  29  45  69 101 123 161 206 242 293
#     4  10  20  35  52  78 103 132 170 211 248 300
#     4   8  15  25  44  69  96 127 155 199 253 289
#     4   8  15  25  44  69  96 127 155 199 253 289
#     4  10  20  36  56  74  98 133 172 215 256 294
#
# _framework density 17.170621000000001
#
# number of rings (size 3 to 8) (size 9 to 14) (size 15 to 20)
#    0.000    2.889    2.222    4.000    0.000    5.333 
#    0.000    0.000    0.000    2.667    0.000    1.556 
#    0.000    0.000    0.000    0.000    0.000    0.000 
#
# Total GULP energy -446247.216818 kJ/mol
# GULP energy per Si atom -12395.756023 kJ/mol
# Density = 1.713154 g / cm^3
# Si number density = 17.170621 Si / 1000 Ang^3
#
#
#
# Elastic Constant Matrix: (Units=GPa)
#
#
# Indices 1 2 3 4 5 6 
#
# 1 180.9503 51.8162 72.8231 0.0000 0.0000 0.0000
# 2 51.8162 77.3940 38.0951 0.0000 0.0000 0.0000
# 3 72.8231 38.0951 179.6986 0.0000 0.0000 0.0000
# 4 0.0000 0.0000 0.0000 4.9904 0.0000 0.0000
# 5 0.0000 0.0000 0.0000 0.0000 7.4871 0.0000
# 6 0.0000 0.0000 0.0000 0.0000 0.0000 -40.6631
#
#
#
# Elastic Compliance Matrix: (Units=1/GPa)
#
#
# Indices 1 2 3 4 5 6 
#
# 1 0.007556 -0.003965 -0.002221 0.000000 0.000000 0.000000
# 2 -0.003965 0.016507 -0.001892 0.000000 0.000000 0.000000
# 3 -0.002221 -0.001892 0.006866 0.000000 0.000000 0.000000
# 4 0.000000 0.000000 0.000000 0.200384 0.000000 0.000000
# 5 0.000000 0.000000 0.000000 0.000000 0.133563 0.000000
# 6 0.000000 0.000000 0.000000 0.000000 0.000000 -0.024592
#
#
# Mechanical properties :
#
#
# Convention : Reuss Voigt Hill
#
# Bulk Modulus (GPa) = 67.70025 84.83465 76.26745
# Shear Modulus (GPa) = 13.83638 12.71678 13.27658
#
# Velocity S-wave (km/s) = 2.84177 2.72437 2.78369
# Velocity P-wave (km/s) = 7.09092 7.70781 7.40579
#
# Compressibility (1/GPa) = 0.01477099
#
# Stress axis : x y z
#
# Youngs Moduli (GPa) = 132.34742 60.57935 145.63891
#
# Poissons Ratio (x) = 0.24022 0.32352
# Poissons Ratio (y) = 0.52480 0.27562
# Poissons Ratio (z) = 0.29400 0.11465
#
# Static dielectric constant tensor:
#      x y z
#    x 3.308580 0.000000 0.000000 
#    y 0.000000 2.629070 0.000000 
#    z 0.000000 0.000000 3.475510 
# 
# 
# High freq. dielectric constant tensor:
#      x y z
#    x 1.675360 0.000000 0.000000 
#    y 0.000000 1.617290 0.000000 
#    z 0.000000 0.000000 1.657920 
# 
# From -- ./inp_files/38376.got.cif
#   From: 2010.03.12/outbox.cif.g09.slc.cpg/sg63_20_cif.got.tgz:38376.got - 2010.04.10 19:34:48.
