data_PCOD8259337
_publ_section_title
;
Structure prediction by ZEFSAII (Michael W. Deem and Ramdas Pophale) SiO2 
 PCOD8259337
Probable space group: C M C M
;
_chemical_formula_sum "Si O2"
_cell_formula_units_Z 128
_cell_length_a 21.133615
_cell_length_b 12.963871
_cell_length_c 22.377757
_cell_angle_alpha 90.000000
_cell_angle_beta 90.000000
_cell_angle_gamma 90.000000
_cell_volume 6130.911482
_symmetry_space_group_name_H-M "C M C M"
_symmetry_group_IT_number 63
_symmetry_cell_setting 'orthorhombic'
loop_
_space_group_symop_operation_xyz
x,y,z
-x,-y,1/2+z
x,-y,-z
-x,y,1/2-z
-x,-y,-z
x,y,1/2-z
-x,y,z
x,-y,1/2+z
1/2+x,1/2+y,z
1/2-x,1/2-y,1/2+z
1/2+x,1/2-y,-z
1/2-x,1/2+y,1/2-z
1/2-x,1/2-y,-z
1/2+x,1/2+y,1/2-z
1/2-x,1/2+y,z
1/2+x,1/2-y,1/2+z
loop_
_atom_site_type_symbol
_atom_site_label
_atom_site_fract_x
_atom_site_fract_y
_atom_site_fract_z
Si Si1 0.930636 0.825969 0.181482
Si Si2 0.387794 0.093087 0.317163
Si Si3 0.427356 0.934337 0.558895
Si Si4 0.332357 0.509746 0.865574
Si Si5 0.751952 0.158455 0.315348
Si Si6 0.247661 0.670655 0.917710
Si Si7 0.069966 0.911333 0.951817
Si Si8 0.147259 0.266230 0.502932
O O1 0.933841 0.856087 0.250000
O O2 0.916665 0.706227 0.172853
O O3 0.874276 0.893964 0.155139
O O4 0.000000 0.850716 0.152322
O O5 0.407667 0.052305 0.250000
O O6 0.413558 0.021961 0.373115
O O7 0.312797 0.096048 0.321742
O O8 0.500000 0.903502 0.554054
O O9 0.382469 0.835265 0.554903
O O10 0.409230 0.000000 0.500000
O O11 0.307342 0.427780 0.817296
O O12 0.268781 0.557513 0.895397
O O13 0.374937 0.438918 0.906795
O O14 0.755497 0.212120 0.250000
O O15 0.757440 0.246705 0.364629
O O16 0.178816 0.666337 0.949273
O O17 0.299156 0.696818 0.967805
O O18 0.089242 0.802198 0.979695
O O19 0.000000 0.898550 0.922150
O O20 0.066135 0.000000 0.000000
#
# Coordination Sequence:
#
# PCOD8259337 Si02
#       8
#    16  16  16  16  16  16  16  16
#     4  10  20  35  60  90 120 156 200 258 323 382
#     4  10  21  40  62  91 125 162 206 259 326 379
#     4  11  24  40  63  93 124 165 212 260 311 369
#     4  12  22  38  59  89 122 162 203 253 305 379
#     4  11  23  39  60  87 122 161 202 256 310 369
#     4  11  23  37  62  87 119 159 202 251 303 364
#     4  11  23  38  59  91 125 158 198 248 311 381
#     4  11  22  41  60  88 122 164 201 249 309 366
#
# _framework density 20.877808000000002
#
# number of rings (size 3 to 8) (size 9 to 14) (size 15 to 20)
#    0.000    1.125    5.000    1.500    1.750    1.250 
#    0.000    0.000    0.000    0.000    0.000    0.000 
#    0.000    0.000    0.000    0.000    0.000    0.000 
#
# Total GULP energy -792960.967696 kJ/mol
# GULP energy per Si atom -12390.015120 kJ/mol
# Density = 2.083029 g / cm^3
# Si number density = 20.877808 Si / 1000 Ang^3
#
#
#
# Elastic Constant Matrix: (Units=GPa)
#
#
# Indices 1 2 3 4 5 6 
#
# 1 95.9347 27.2919 33.7493 0.0000 0.0000 0.0000
# 2 27.2919 34.7583 25.4089 0.0000 0.0000 0.0000
# 3 33.7493 25.4089 132.8697 0.0000 0.0000 0.0000
# 4 0.0000 0.0000 0.0000 27.7733 0.0000 0.0000
# 5 0.0000 0.0000 0.0000 0.0000 20.9035 0.0000
# 6 0.0000 0.0000 0.0000 0.0000 0.0000 33.0771
#
#
#
# Elastic Compliance Matrix: (Units=1/GPa)
#
#
# Indices 1 2 3 4 5 6 
#
# 1 0.013729 -0.009568 -0.001657 0.000000 0.000000 0.000000
# 2 -0.009568 0.040114 -0.005241 0.000000 0.000000 0.000000
# 3 -0.001657 -0.005241 0.008949 0.000000 0.000000 0.000000
# 4 0.000000 0.000000 0.000000 0.036006 0.000000 0.000000
# 5 0.000000 0.000000 0.000000 0.000000 0.047839 0.000000
# 6 0.000000 0.000000 0.000000 0.000000 0.000000 0.030232
#
#
# Mechanical properties :
#
#
# Convention : Reuss Voigt Hill
#
# Bulk Modulus (GPa) = 33.49013 48.49587 40.99300
# Shear Modulus (GPa) = 22.75263 28.15828 25.45546
#
# Velocity S-wave (km/s) = 3.30479 3.67647 3.49558
# Velocity P-wave (km/s) = 5.53516 6.42657 5.99745
#
# Compressibility (1/GPa) = 0.02985955
#
# Stress axis : x y z
#
# Youngs Moduli (GPa) = 72.83962 24.92904 111.73995
#
# Poissons Ratio (x) = 0.23852 0.18520
# Poissons Ratio (y) = 0.69694 0.58560
# Poissons Ratio (z) = 0.12073 0.13065
#
# Static dielectric constant tensor:
#      x y z
#    x 4.315950 0.000000 0.000000 
#    y 0.000000 2.654860 0.000000 
#    z 0.000000 0.000000 4.172190 
# 
# 
# High freq. dielectric constant tensor:
#      x y z
#    x 1.832370 0.000000 0.000000 
#    y 0.000000 1.781600 0.000000 
#    z 0.000000 0.000000 1.825110 
# 
# From -- ./inp_files/65187.got.cif
#   From: 2010.03.12/outbox.cif.g09.slc.cpg/sg63_33_cif.got.tgz:65187.got - 2010.04.10 19:34:48.
