data_PCOD8259847
_publ_section_title
;
Structure prediction by ZEFSAII (Michael W. Deem and Ramdas Pophale) SiO2 
 PCOD8259847
Probable space group: C M C M
;
_chemical_formula_sum "Si O2"
_cell_formula_units_Z 88
_cell_length_a 28.112918
_cell_length_b 9.351152
_cell_length_c 16.678902
_cell_angle_alpha 90.000000
_cell_angle_beta 90.000000
_cell_angle_gamma 90.000000
_cell_volume 4384.686014
_symmetry_space_group_name_H-M "C M C M"
_symmetry_group_IT_number 63
_symmetry_cell_setting 'orthorhombic'
loop_
_space_group_symop_operation_xyz
x,y,z
-x,-y,1/2+z
x,-y,-z
-x,y,1/2-z
-x,-y,-z
x,y,1/2-z
-x,y,z
x,-y,1/2+z
1/2+x,1/2+y,z
1/2-x,1/2-y,1/2+z
1/2+x,1/2-y,-z
1/2-x,1/2+y,1/2-z
1/2-x,1/2-y,-z
1/2+x,1/2+y,1/2-z
1/2-x,1/2+y,z
1/2+x,1/2-y,1/2+z
loop_
_atom_site_type_symbol
_atom_site_label
_atom_site_fract_x
_atom_site_fract_y
_atom_site_fract_z
Si Si1 0.171299 0.441677 0.342127
Si Si2 0.000000 0.677702 0.878943
Si Si3 0.925611 0.828585 0.250000
Si Si4 0.599126 0.846371 0.460255
Si Si5 0.500000 0.926322 0.750000
Si Si6 0.000000 0.077404 0.250000
Si Si7 0.235653 0.123125 0.942240
Si Si8 0.642326 0.256061 0.384963
O O1 0.178195 0.396835 0.250000
O O2 0.132566 0.335197 0.381653
O O3 0.220834 0.430650 0.388429
O O4 0.150419 0.599759 0.348688
O O5 0.045130 0.685010 0.937112
O O6 0.000000 0.529587 0.827977
O O7 0.000000 0.820344 0.826696
O O8 0.954492 0.678019 0.250000
O O9 0.893744 0.839749 0.171361
O O10 0.955175 0.973597 0.250000
O O11 0.619098 0.737088 0.526499
O O12 0.604159 0.000000 0.500000
O O13 0.192927 0.165141 0.883628
O O14 0.250000 0.250000 0.000000
O O15 0.217273 0.000000 0.000000
#
# Coordination Sequence:
#
# PCOD8259847 Si02
#       8
#    16   8   8  16   4   4  16  16
#     4  11  22  38  66  99 135 168 220 274 324 383
#     4  11  23  39  69 101 131 164 222 271 335 382
#     4  11  24  46  66  92 134 176 226 261 334 394
#     4  10  21  38  64 102 132 170 218 275 321 388
#     4  10  20  40  70  94 124 178 210 272 318 380
#     4  10  28  46  60  98 146 170 200 294 342 392
#     4  12  23  44  64  93 133 176 217 269 328 382
#     4  11  23  41  68  93 129 177 220 269 321 394
#
# _framework density 20.069852000000001
#
# number of rings (size 3 to 8) (size 9 to 14) (size 15 to 20)
#    0.000    1.091    4.545    3.000    3.818    2.909 
#    0.000    0.909    0.000    0.000    0.000    0.000 
#    0.000    0.000    0.000    0.000    0.000    0.000 
#
# Total GULP energy -545655.064663 kJ/mol
# GULP energy per Si atom -12401.251470 kJ/mol
# Density = 2.002417 g / cm^3
# Si number density = 20.069852 Si / 1000 Ang^3
#
#
#
# Elastic Constant Matrix: (Units=GPa)
#
#
# Indices 1 2 3 4 5 6 
#
# 1 123.0316 5.6989 34.8424 0.0000 0.0000 0.0000
# 2 5.6989 59.4292 14.5332 0.0000 0.0000 0.0000
# 3 34.8424 14.5332 112.8916 0.0000 0.0000 0.0000
# 4 0.0000 0.0000 0.0000 10.8980 0.0000 0.0000
# 5 0.0000 0.0000 0.0000 0.0000 261.6595 0.0000
# 6 0.0000 0.0000 0.0000 0.0000 0.0000 27.1552
#
#
#
# Elastic Compliance Matrix: (Units=1/GPa)
#
#
# Indices 1 2 3 4 5 6 
#
# 1 0.008908 -0.000188 -0.002725 0.000000 0.000000 0.000000
# 2 -0.000188 0.017378 -0.002179 0.000000 0.000000 0.000000
# 3 -0.002725 -0.002179 0.009980 0.000000 0.000000 0.000000
# 4 0.000000 0.000000 0.000000 0.091760 0.000000 0.000000
# 5 0.000000 0.000000 0.000000 0.000000 0.003822 0.000000
# 6 0.000000 0.000000 0.000000 0.000000 0.000000 0.036825
#
#
# Mechanical properties :
#
#
# Convention : Reuss Voigt Hill
#
# Bulk Modulus (GPa) = 38.34163 45.05572 41.69867
# Shear Modulus (GPa) = 26.65932 75.96106 51.31019
#
# Velocity S-wave (km/s) = 3.64858 6.15877 5.06175
# Velocity P-wave (km/s) = 6.07413 8.54823 7.41509
#
# Compressibility (1/GPa) = 0.02608131
#
# Stress axis : x y z
#
# Youngs Moduli (GPa) = 112.25242 57.54519 100.20322
#
# Poissons Ratio (x) = 0.01081 0.27308
# Poissons Ratio (y) = 0.02108 0.21836
# Poissons Ratio (z) = 0.30592 0.12540
#
# Static dielectric constant tensor:
#      x y z
#    x 4.864920 0.000000 0.000000 
#    y 0.000000 3.490510 0.000000 
#    z 0.000000 0.000000 3.797520 
# 
# 
# High freq. dielectric constant tensor:
#      x y z
#    x 1.800920 0.000000 0.000000 
#    y 0.000000 1.763460 0.000000 
#    z 0.000000 0.000000 1.791450 
# 
# From -- ./inp_files/49536.got.cif
#   From: 2010.03.12/outbox.cif.g09.slc.cpg/sg63_25_cif.got.tgz:49536.got - 2010.04.10 19:34:48.
