data_PCOD8259504
_publ_section_title
;
Structure prediction by ZEFSAII (Michael W. Deem and Ramdas Pophale) SiO2 
 PCOD8259504
Probable space group: C M C M
;
_chemical_formula_sum "Si O2"
_cell_formula_units_Z 80
_cell_length_a 11.489256
_cell_length_b 19.941176
_cell_length_c 18.442631
_cell_angle_alpha 90.000000
_cell_angle_beta 90.000000
_cell_angle_gamma 90.000000
_cell_volume 4225.377836
_symmetry_space_group_name_H-M "C M C M"
_symmetry_group_IT_number 63
_symmetry_cell_setting 'orthorhombic'
loop_
_space_group_symop_operation_xyz
x,y,z
-x,-y,1/2+z
x,-y,-z
-x,y,1/2-z
-x,-y,-z
x,y,1/2-z
-x,y,z
x,-y,1/2+z
1/2+x,1/2+y,z
1/2-x,1/2-y,1/2+z
1/2+x,1/2-y,-z
1/2-x,1/2+y,1/2-z
1/2-x,1/2-y,-z
1/2+x,1/2+y,1/2-z
1/2-x,1/2+y,z
1/2+x,1/2-y,1/2+z
loop_
_atom_site_type_symbol
_atom_site_label
_atom_site_fract_x
_atom_site_fract_y
_atom_site_fract_z
Si Si1 0.000000 0.254102 0.835390
Si Si2 0.253888 0.580131 0.335369
Si Si3 0.500000 0.097718 0.164530
Si Si4 0.701369 0.681683 0.585406
Si Si5 0.864239 0.057722 0.665546
Si Si6 0.866032 0.198995 0.423443
O O1 0.885397 0.217425 0.860391
O O2 0.000000 0.254779 0.750000
O O3 0.000000 0.328060 0.869754
O O4 0.260913 0.594094 0.250000
O O5 0.334784 0.518116 0.358288
O O6 0.295482 0.647957 0.373248
O O7 0.120470 0.562012 0.359713
O O8 0.500000 0.104195 0.250000
O O9 0.717495 0.606939 0.617947
O O10 0.820272 0.724560 0.585085
O O11 0.647525 0.675275 0.505832
O O12 0.834757 0.068030 0.750000
O O13 0.000000 0.071658 0.649562
O O14 0.000000 0.198514 0.399992
#
# Coordination Sequence:
#
# PCOD8259504 Si02
#       6
#     8  16   8  16  16  16
#     4  11  18  34  64  86 105 142 200 248 272 323
#     4  10  21  37  58  83 112 151 192 235 286 337
#     4   9  18  34  58  82 105 143 197 241 273 329
#     4  11  22  37  58  86 114 147 190 232 287 338
#     4  10  20  36  59  85 112 144 189 241 284 331
#     4  11  23  38  57  82 119 153 183 232 286 343
#
# _framework density 18.933216999999999
#
# number of rings (size 3 to 8) (size 9 to 14) (size 15 to 20)
#    0.000    1.600    4.000    1.200    0.000    2.800 
#    1.800    2.000    0.000    1.200    0.000    0.000 
#    0.000    0.000    0.000    0.000    0.000    0.000 
#
# Total GULP energy -495915.001346 kJ/mol
# GULP energy per Si atom -12397.875034 kJ/mol
# Density = 1.889012 g / cm^3
# Si number density = 18.933217 Si / 1000 Ang^3
#
#
#
# Elastic Constant Matrix: (Units=GPa)
#
#
# Indices 1 2 3 4 5 6 
#
# 1 103.8467 30.3848 28.1710 0.0000 0.0000 0.0000
# 2 30.3848 95.2105 36.9991 0.0000 0.0000 0.0000
# 3 28.1710 36.9991 63.6523 0.0000 0.0000 0.0000
# 4 0.0000 0.0000 0.0000 8.2861 0.0000 0.0000
# 5 0.0000 0.0000 0.0000 0.0000 20.8751 0.0000
# 6 0.0000 0.0000 0.0000 0.0000 0.0000 24.2773
#
#
#
# Elastic Compliance Matrix: (Units=1/GPa)
#
#
# Indices 1 2 3 4 5 6 
#
# 1 0.011272 -0.002143 -0.003743 0.000000 0.000000 0.000000
# 2 -0.002143 0.013975 -0.007175 0.000000 0.000000 0.000000
# 3 -0.003743 -0.007175 0.021538 0.000000 0.000000 0.000000
# 4 0.000000 0.000000 0.000000 0.120685 0.000000 0.000000
# 5 0.000000 0.000000 0.000000 0.000000 0.047904 0.000000
# 6 0.000000 0.000000 0.000000 0.000000 0.000000 0.041191
#
#
# Mechanical properties :
#
#
# Convention : Reuss Voigt Hill
#
# Bulk Modulus (GPa) = 48.39591 50.42435 49.41013
# Shear Modulus (GPa) = 17.26677 21.83131 19.54904
#
# Velocity S-wave (km/s) = 3.02318 3.39937 3.21678
# Velocity P-wave (km/s) = 6.14842 6.48831 6.32065
#
# Compressibility (1/GPa) = 0.02066290
#
# Stress axis : x y z
#
# Youngs Moduli (GPa) = 88.71587 71.55613 46.43034
#
# Poissons Ratio (x) = 0.15332 0.17380
# Poissons Ratio (y) = 0.19008 0.33314
# Poissons Ratio (z) = 0.33209 0.51341
#
# Static dielectric constant tensor:
#      x y z
#    x 3.747050 0.000000 0.000000 
#    y 0.000000 3.611370 0.000000 
#    z 0.000000 0.000000 3.421190 
# 
# 
# High freq. dielectric constant tensor:
#      x y z
#    x 1.733230 0.000000 0.000000 
#    y 0.000000 1.736810 0.000000 
#    z 0.000000 0.000000 1.725900 
# 
# From -- ./inp_files/52470.got.cif
#   From: 2010.03.12/outbox.cif.g09.slc.cpg/sg63_27_cif.got.tgz:52470.got - 2010.04.10 19:34:48.
