data_PCOD8259153
_publ_section_title
;
Structure prediction by ZEFSAII (Michael W. Deem and Ramdas Pophale) SiO2 
 PCOD8259153
Probable space group: C M C M
;
_chemical_formula_sum "Si O2"
_cell_formula_units_Z 80
_cell_length_a 26.960526
_cell_length_b 18.668736
_cell_length_c 8.640897
_cell_angle_alpha 90.000000
_cell_angle_beta 90.000000
_cell_angle_gamma 90.000000
_cell_volume 4349.127139
_symmetry_space_group_name_H-M "C M C M"
_symmetry_group_IT_number 63
_symmetry_cell_setting 'orthorhombic'
loop_
_space_group_symop_operation_xyz
x,y,z
-x,-y,1/2+z
x,-y,-z
-x,y,1/2-z
-x,-y,-z
x,y,1/2-z
-x,y,z
x,-y,1/2+z
1/2+x,1/2+y,z
1/2-x,1/2-y,1/2+z
1/2+x,1/2-y,-z
1/2-x,1/2+y,1/2-z
1/2-x,1/2-y,-z
1/2+x,1/2+y,1/2-z
1/2-x,1/2+y,z
1/2+x,1/2-y,1/2+z
loop_
_atom_site_type_symbol
_atom_site_label
_atom_site_fract_x
_atom_site_fract_y
_atom_site_fract_z
Si Si1 0.654563 0.076218 0.434204
Si Si2 0.945902 0.642821 0.430281
Si Si3 0.108824 0.215287 0.930589
Si Si4 0.444113 0.426926 0.066986
Si Si5 0.298379 0.213871 0.931480
O O1 0.655476 0.075759 0.250000
O O2 0.598955 0.094490 0.498462
O O3 0.692980 0.136163 0.491758
O O4 0.671542 0.000000 0.500000
O O5 0.949466 0.626875 0.250000
O O6 0.934089 0.726254 0.459122
O O7 0.000000 0.625159 0.506597
O O8 0.124075 0.214362 0.750000
O O9 0.088866 0.139270 0.990254
O O10 0.156385 0.233202 0.032624
O O11 0.444248 0.430152 0.250000
O O12 0.500000 0.417281 0.003085
O O13 0.420681 0.500000 0.000000
O O14 0.292224 0.203035 0.750000
O O15 0.250000 0.250000 0.000000
#
# Coordination Sequence:
#
# PCOD8259153 Si02
#       5
#    16  16  16  16  16
#     4  10  20  35  55  80 110 142 175 211 254 302
#     4   8  14  26  47  74 103 137 175 211 247 293
#     4   9  17  31  51  74 101 134 174 216 259 308
#     4   9  17  29  47  72 104 141 176 211 254 304
#     4  11  22  38  59  80 102 130 169 216 267 317
#
# _framework density 18.394494999999999
#
# number of rings (size 3 to 8) (size 9 to 14) (size 15 to 20)
#    0.000    2.600    0.000    4.200    0.000    3.600 
#    0.000    1.000    0.000   21.600    0.000    0.000 
#    0.000    0.000    0.000    0.000    0.000    0.000 
#
# Total GULP energy -495876.839055 kJ/mol
# GULP energy per Si atom -12396.920976 kJ/mol
# Density = 1.835263 g / cm^3
# Si number density = 18.394495 Si / 1000 Ang^3
#
#
#
# Elastic Constant Matrix: (Units=GPa)
#
#
# Indices 1 2 3 4 5 6 
#
# 1 103.7373 57.2504 32.2170 0.0000 0.0000 0.0000
# 2 57.2504 158.7049 38.2497 0.0000 0.0000 0.0000
# 3 32.2170 38.2497 67.1514 0.0000 0.0000 0.0000
# 4 0.0000 0.0000 0.0000 30.1656 0.0000 0.0000
# 5 0.0000 0.0000 0.0000 0.0000 22.1824 0.0000
# 6 0.0000 0.0000 0.0000 0.0000 0.0000 18.2835
#
#
#
# Elastic Compliance Matrix: (Units=1/GPa)
#
#
# Indices 1 2 3 4 5 6 
#
# 1 0.012949 -0.003679 -0.004117 0.000000 0.000000 0.000000
# 2 -0.003679 0.008349 -0.002991 0.000000 0.000000 0.000000
# 3 -0.004117 -0.002991 0.018570 0.000000 0.000000 0.000000
# 4 0.000000 0.000000 0.000000 0.033150 0.000000 0.000000
# 5 0.000000 0.000000 0.000000 0.000000 0.045081 0.000000
# 6 0.000000 0.000000 0.000000 0.000000 0.000000 0.054694
#
#
# Mechanical properties :
#
#
# Convention : Reuss Voigt Hill
#
# Bulk Modulus (GPa) = 54.65889 65.00307 59.83098
# Shear Modulus (GPa) = 24.94217 27.58472 26.26344
#
# Velocity S-wave (km/s) = 3.68633 3.87669 3.78271
# Velocity P-wave (km/s) = 6.92084 7.44670 7.18858
#
# Compressibility (1/GPa) = 0.01829529
#
# Stress axis : x y z
#
# Youngs Moduli (GPa) = 77.22897 119.77728 53.84944
#
# Poissons Ratio (x) = 0.44063 0.22169
# Poissons Ratio (y) = 0.28411 0.16104
# Poissons Ratio (z) = 0.31794 0.35820
#
# Static dielectric constant tensor:
#      x y z
#    x 3.596870 0.000000 0.000000 
#    y 0.000000 3.472960 0.000000 
#    z 0.000000 0.000000 3.155060 
# 
# 
# High freq. dielectric constant tensor:
#      x y z
#    x 1.701520 0.000000 0.000000 
#    y 0.000000 1.717610 0.000000 
#    z 0.000000 0.000000 1.693600 
# 
# From -- ./inp_files/11995.got.cif
#   From: 2010.03.12/outbox.cif.g09.slc.cpg/sg63_6_cif.got.tgz:11995.got - 2010.04.10 19:34:48.
