data_PCOD8259005
_publ_section_title
;
Structure prediction by ZEFSAII (Michael W. Deem and Ramdas Pophale) SiO2 
 PCOD8259005
Probable space group: C M C M
;
_chemical_formula_sum "Si O2"
_cell_formula_units_Z 80
_cell_length_a 7.551736
_cell_length_b 23.320192
_cell_length_c 22.753907
_cell_angle_alpha 90.000000
_cell_angle_beta 90.000000
_cell_angle_gamma 90.000000
_cell_volume 4007.143540
_symmetry_space_group_name_H-M "C M C M"
_symmetry_group_IT_number 63
_symmetry_cell_setting 'orthorhombic'
loop_
_space_group_symop_operation_xyz
x,y,z
-x,-y,1/2+z
x,-y,-z
-x,y,1/2-z
-x,-y,-z
x,y,1/2-z
-x,y,z
x,-y,1/2+z
1/2+x,1/2+y,z
1/2-x,1/2-y,1/2+z
1/2+x,1/2-y,-z
1/2-x,1/2+y,1/2-z
1/2-x,1/2-y,-z
1/2+x,1/2+y,1/2-z
1/2-x,1/2+y,z
1/2+x,1/2-y,1/2+z
loop_
_atom_site_type_symbol
_atom_site_label
_atom_site_fract_x
_atom_site_fract_y
_atom_site_fract_z
Si Si1 0.500000 0.311020 0.182417
Si Si2 0.290391 0.065165 0.998511
Si Si3 0.302281 0.119037 0.623293
Si Si4 0.705042 0.491083 0.316595
Si Si5 0.701447 0.394295 0.621463
Si Si6 0.000000 0.324567 0.817592
O O1 0.500000 0.332948 0.250000
O O2 0.324962 0.332792 0.149514
O O3 0.500000 0.243300 0.179433
O O4 0.500000 0.063389 0.003614
O O5 0.228559 0.096735 0.939197
O O6 0.212374 0.103641 0.051044
O O7 0.214508 0.000000 0.000000
O O8 0.500000 0.145244 0.617432
O O9 0.315573 0.064724 0.666515
O O10 0.744445 0.508268 0.250000
O O11 0.500000 0.476447 0.327370
O O12 0.769102 0.544173 0.355755
O O13 0.500000 0.381895 0.641682
O O14 0.824514 0.345587 0.649012
O O15 0.000000 0.345855 0.750000
#
# Coordination Sequence:
#
# PCOD8259005 Si02
#       6
#     8  16  16  16  16   8
#     4  11  26  48  67  88 126 172 219 268 318 381
#     4  10  20  37  62  95 135 174 208 252 320 395
#     4  11  23  38  63  95 127 167 211 259 317 382
#     4  10  20  34  55  91 133 161 197 256 316 379
#     4  11  23  39  65  97 128 168 213 261 321 385
#     4  11  26  48  69  88 126 174 217 270 320 379
#
# _framework density 19.964345000000002
#
# number of rings (size 3 to 8) (size 9 to 14) (size 15 to 20)
#    0.000    1.400    4.000    1.200    2.800    4.000 
#    0.000    3.000    0.000    0.000    0.000    0.000 
#    0.000    0.000    0.000    0.000    0.000    0.000 
#
# Total GULP energy -496165.013890 kJ/mol
# GULP energy per Si atom -12404.125347 kJ/mol
# Density = 1.991890 g / cm^3
# Si number density = 19.964345 Si / 1000 Ang^3
#
#
#
# Elastic Constant Matrix: (Units=GPa)
#
#
# Indices 1 2 3 4 5 6 
#
# 1 92.4711 40.5615 39.2896 0.0000 0.0000 0.0000
# 2 40.5615 79.6462 41.7918 0.0000 0.0000 0.0000
# 3 39.2896 41.7918 132.9420 0.0000 0.0000 0.0000
# 4 0.0000 0.0000 0.0000 28.8126 0.0000 0.0000
# 5 0.0000 0.0000 0.0000 0.0000 24.3399 0.0000
# 6 0.0000 0.0000 0.0000 0.0000 0.0000 20.2472
#
#
#
# Elastic Compliance Matrix: (Units=1/GPa)
#
#
# Indices 1 2 3 4 5 6 
#
# 1 0.014515 -0.006157 -0.002354 0.000000 0.000000 0.000000
# 2 -0.006157 0.017647 -0.003728 0.000000 0.000000 0.000000
# 3 -0.002354 -0.003728 0.009390 0.000000 0.000000 0.000000
# 4 0.000000 0.000000 0.000000 0.034707 0.000000 0.000000
# 5 0.000000 0.000000 0.000000 0.000000 0.041085 0.000000
# 6 0.000000 0.000000 0.000000 0.000000 0.000000 0.049390
#
#
# Mechanical properties :
#
#
# Convention : Reuss Voigt Hill
#
# Bulk Modulus (GPa) = 58.56911 60.92725 59.74818
# Shear Modulus (GPa) = 25.39320 26.90769 26.15045
#
# Velocity S-wave (km/s) = 3.57028 3.67520 3.62312
# Velocity P-wave (km/s) = 6.81149 6.97092 6.89167
#
# Compressibility (1/GPa) = 0.01707385
#
# Stress axis : x y z
#
# Youngs Moduli (GPa) = 68.89375 56.66640 106.49831
#
# Poissons Ratio (x) = 0.34888 0.25073
# Poissons Ratio (y) = 0.42416 0.39703
# Poissons Ratio (z) = 0.16220 0.21125
#
# Static dielectric constant tensor:
#      x y z
#    x 3.844390 0.000000 0.000000 
#    y 0.000000 3.307560 0.000000 
#    z 0.000000 0.000000 3.856240 
# 
# 
# High freq. dielectric constant tensor:
#      x y z
#    x 1.784650 0.000000 0.000000 
#    y 0.000000 1.745990 0.000000 
#    z 0.000000 0.000000 1.795860 
# 
# From -- ./inp_files/50946.got.cif
#   From: 2010.03.12/outbox.cif.g09.slc.cpg/sg63_26_cif.got.tgz:50946.got - 2010.04.10 19:34:48.
