data_PCOD8259923
_publ_section_title
;
Structure prediction by ZEFSAII (Michael W. Deem and Ramdas Pophale) SiO2 
 PCOD8259923
Probable space group: C M C M
;
_chemical_formula_sum "Si O2"
_cell_formula_units_Z 80
_cell_length_a 7.695251
_cell_length_b 31.286866
_cell_length_c 17.823930
_cell_angle_alpha 90.000000
_cell_angle_beta 90.000000
_cell_angle_gamma 90.000000
_cell_volume 4291.294500
_symmetry_space_group_name_H-M "C M C M"
_symmetry_group_IT_number 63
_symmetry_cell_setting 'orthorhombic'
loop_
_space_group_symop_operation_xyz
x,y,z
-x,-y,1/2+z
x,-y,-z
-x,y,1/2-z
-x,-y,-z
x,y,1/2-z
-x,y,z
x,-y,1/2+z
1/2+x,1/2+y,z
1/2-x,1/2-y,1/2+z
1/2+x,1/2-y,-z
1/2-x,1/2+y,1/2-z
1/2-x,1/2-y,-z
1/2+x,1/2+y,1/2-z
1/2-x,1/2+y,z
1/2+x,1/2-y,1/2+z
loop_
_atom_site_type_symbol
_atom_site_label
_atom_site_fract_x
_atom_site_fract_y
_atom_site_fract_z
Si Si1 0.500000 0.049792 0.513773
Si Si2 0.303484 0.653209 0.885879
Si Si3 0.300097 0.392314 0.959779
Si Si4 0.700670 0.748734 0.913696
Si Si5 0.302120 0.668504 0.331937
Si Si6 0.500000 0.096020 0.832798
O O1 0.325289 0.067831 0.475583
O O2 0.500000 0.059832 0.602965
O O3 0.500000 0.000000 0.500000
O O4 0.500000 0.644895 0.856764
O O5 0.252318 0.702820 0.878271
O O6 0.171419 0.625201 0.837674
O O7 0.288720 0.641577 0.973199
O O8 0.500000 0.408348 0.949803
O O9 0.223063 0.367297 0.887474
O O10 0.500000 0.758957 0.905021
O O11 0.800245 0.784317 0.866683
O O12 0.750000 0.750000 0.000000
O O13 0.208801 0.667323 0.250000
O O14 0.500000 0.655540 0.321559
O O15 0.500000 0.074430 0.750000
#
# Coordination Sequence:
#
# PCOD8259923 Si02
#       6
#     8  16  16  16  16   8
#     4  10  22  40  64  90 110 136 182 228 284 357
#     4   9  19  34  53  78 107 150 194 227 267 327
#     4   9  18  36  58  80 108 145 184 222 276 336
#     4  11  21  31  51  76 108 150 196 239 277 320
#     4  10  21  35  51  76 112 151 192 235 278 323
#     4  10  22  38  60  82 112 146 182 232 287 333
#
# _framework density 18.642392999999998
#
# number of rings (size 3 to 8) (size 9 to 14) (size 15 to 20)
#    0.000    2.200    2.000    0.600    4.200    2.000 
#    0.000    3.000    0.000    0.000    0.000    0.000 
#    0.000    0.000    0.000    0.000    0.000    0.000 
#
# Total GULP energy -495857.816337 kJ/mol
# GULP energy per Si atom -12396.445408 kJ/mol
# Density = 1.859996 g / cm^3
# Si number density = 18.642393 Si / 1000 Ang^3
#
#
#
# Elastic Constant Matrix: (Units=GPa)
#
#
# Indices 1 2 3 4 5 6 
#
# 1 80.8779 48.6448 30.6833 0.0000 0.0000 0.0000
# 2 48.6448 129.1883 57.8956 0.0000 0.0000 0.0000
# 3 30.6833 57.8956 131.5356 0.0000 0.0000 0.0000
# 4 0.0000 0.0000 0.0000 16.1772 0.0000 0.0000
# 5 0.0000 0.0000 0.0000 0.0000 14.7867 0.0000
# 6 0.0000 0.0000 0.0000 0.0000 0.0000 23.0367
#
#
#
# Elastic Compliance Matrix: (Units=1/GPa)
#
#
# Indices 1 2 3 4 5 6 
#
# 1 0.016178 -0.005482 -0.001361 0.000000 0.000000 0.000000
# 2 -0.005482 0.011500 -0.003783 0.000000 0.000000 0.000000
# 3 -0.001361 -0.003783 0.009585 0.000000 0.000000 0.000000
# 4 0.000000 0.000000 0.000000 0.061815 0.000000 0.000000
# 5 0.000000 0.000000 0.000000 0.000000 0.067628 0.000000
# 6 0.000000 0.000000 0.000000 0.000000 0.000000 0.043409
#
#
# Mechanical properties :
#
#
# Convention : Reuss Voigt Hill
#
# Bulk Modulus (GPa) = 62.45547 68.44990 65.45269
# Shear Modulus (GPa) = 21.12343 24.42534 22.77438
#
# Velocity S-wave (km/s) = 3.36979 3.62360 3.49900
# Velocity P-wave (km/s) = 6.97963 7.36915 7.17703
#
# Compressibility (1/GPa) = 0.01601141
#
# Stress axis : x y z
#
# Youngs Moduli (GPa) = 61.81369 86.95590 104.32848
#
# Poissons Ratio (x) = 0.47666 0.14199
# Poissons Ratio (y) = 0.33884 0.39468
# Poissons Ratio (z) = 0.08413 0.32896
#
# Static dielectric constant tensor:
#      x y z
#    x 3.657550 0.000000 0.000000 
#    y 0.000000 3.052460 0.000000 
#    z 0.000000 0.000000 3.648220 
# 
# 
# High freq. dielectric constant tensor:
#      x y z
#    x 1.732390 0.000000 0.000000 
#    y 0.000000 1.688500 0.000000 
#    z 0.000000 0.000000 1.721230 
# 
# From -- ./inp_files/40613.got.cif
#   From: 2010.03.12/outbox.cif.g09.slc.cpg/sg63_21_cif.got.tgz:40613.got - 2010.04.10 19:34:48.
