data_PCOD8259235
_publ_section_title
;
Structure prediction by ZEFSAII (Michael W. Deem and Ramdas Pophale) SiO2 
 PCOD8259235
Probable space group: C M C M
;
_chemical_formula_sum "Si O2"
_cell_formula_units_Z 104
_cell_length_a 19.698235
_cell_length_b 32.167994
_cell_length_c 8.771243
_cell_angle_alpha 90.000000
_cell_angle_beta 90.000000
_cell_angle_gamma 90.000000
_cell_volume 5557.921856
_symmetry_space_group_name_H-M "C M C M"
_symmetry_group_IT_number 63
_symmetry_cell_setting 'orthorhombic'
loop_
_space_group_symop_operation_xyz
x,y,z
-x,-y,1/2+z
x,-y,-z
-x,y,1/2-z
-x,-y,-z
x,y,1/2-z
-x,y,z
x,-y,1/2+z
1/2+x,1/2+y,z
1/2-x,1/2-y,1/2+z
1/2+x,1/2-y,-z
1/2-x,1/2+y,1/2-z
1/2-x,1/2-y,-z
1/2+x,1/2+y,1/2-z
1/2-x,1/2+y,z
1/2+x,1/2-y,1/2+z
loop_
_atom_site_type_symbol
_atom_site_label
_atom_site_fract_x
_atom_site_fract_y
_atom_site_fract_z
Si Si1 0.077318 0.315107 0.575794
Si Si2 0.078057 0.772079 0.928255
Si Si3 0.768026 0.543781 0.073335
Si Si4 0.669305 0.339977 0.074811
Si Si5 0.184724 0.628585 0.574592
Si Si6 0.500000 0.543329 0.577514
Si Si7 0.124297 0.079225 0.421360
O O1 0.094083 0.302926 0.750000
O O2 0.090877 0.275783 0.468058
O O3 0.123634 0.353133 0.523436
O O4 0.000000 0.330255 0.559833
O O5 0.091664 0.778972 0.750000
O O6 0.000000 0.784729 0.970253
O O7 0.133312 0.797311 0.026300
O O8 0.790059 0.544940 0.250000
O O9 0.686947 0.547958 0.056631
O O10 0.790928 0.500000 0.000000
O O11 0.801875 0.582095 0.985253
O O12 0.650008 0.350413 0.250000
O O13 0.750989 0.340112 0.057474
O O14 0.643572 0.373818 0.956109
O O15 0.162958 0.624987 0.750000
O O16 0.500000 0.500000 0.500000
O O17 0.500000 0.532137 0.750000
O O18 0.566428 0.568854 0.539594
O O19 0.095993 0.076623 0.250000
#
# Coordination Sequence:
#
# PCOD8259235 Si02
#       7
#    16  16  16  16  16   8  16
#     4  10  21  38  60  85 112 143 180 223 273 331
#     4  10  21  36  55  79 109 148 191 233 276 327
#     4  10  20  35  57  82 109 142 179 223 271 324
#     4  10  21  36  54  79 110 145 186 230 277 325
#     4  10  21  37  58  84 113 145 183 225 271 328
#     4  12  24  36  50  70  98 136 182 232 282 332
#     4  10  21  36  53  74 103 140 182 229 278 327
#
# _framework density 18.712031
#
# number of rings (size 3 to 8) (size 9 to 14) (size 15 to 20)
#    0.000    1.846    0.000    3.923    1.077    7.385 
#    0.000    0.000    0.000    0.462    0.000    0.000 
#    0.000    0.000    0.000    0.000    0.000    0.000 
#
# Total GULP energy -644824.740851 kJ/mol
# GULP energy per Si atom -12400.475786 kJ/mol
# Density = 1.866944 g / cm^3
# Si number density = 18.712031 Si / 1000 Ang^3
#
#
#
# Elastic Constant Matrix: (Units=GPa)
#
#
# Indices 1 2 3 4 5 6 
#
# 1 75.5122 44.4982 39.8238 0.0000 0.0000 0.0000
# 2 44.4982 82.6968 30.9231 0.0000 0.0000 0.0000
# 3 39.8238 30.9231 104.3712 0.0000 0.0000 0.0000
# 4 0.0000 0.0000 0.0000 36.4804 0.0000 0.0000
# 5 0.0000 0.0000 0.0000 0.0000 28.6391 0.0000
# 6 0.0000 0.0000 0.0000 0.0000 0.0000 17.8437
#
#
#
# Elastic Compliance Matrix: (Units=1/GPa)
#
#
# Indices 1 2 3 4 5 6 
#
# 1 0.021845 -0.009714 -0.005457 0.000000 0.000000 0.000000
# 2 -0.009714 0.017919 -0.001602 0.000000 0.000000 0.000000
# 3 -0.005457 -0.001602 0.012138 0.000000 0.000000 0.000000
# 4 0.000000 0.000000 0.000000 0.027412 0.000000 0.000000
# 5 0.000000 0.000000 0.000000 0.000000 0.034917 0.000000
# 6 0.000000 0.000000 0.000000 0.000000 0.000000 0.056042
#
#
# Mechanical properties :
#
#
# Convention : Reuss Voigt Hill
#
# Bulk Modulus (GPa) = 54.48193 54.78558 54.63376
# Shear Modulus (GPa) = 23.81643 26.41497 25.11570
#
# Velocity S-wave (km/s) = 3.57148 3.76128 3.66761
# Velocity P-wave (km/s) = 6.79607 6.94297 6.86991
#
# Compressibility (1/GPa) = 0.01835471
#
# Stress axis : x y z
#
# Youngs Moduli (GPa) = 45.77650 55.80795 82.38461
#
# Poissons Ratio (x) = 0.54212 0.44959
# Poissons Ratio (y) = 0.44468 0.13201
# Poissons Ratio (z) = 0.24981 0.08943
#
# Static dielectric constant tensor:
#      x y z
#    x 3.342850 0.000000 0.000000 
#    y 0.000000 3.476620 0.000000 
#    z 0.000000 0.000000 3.545180 
# 
# 
# High freq. dielectric constant tensor:
#      x y z
#    x 1.710290 0.000000 0.000000 
#    y 0.000000 1.720810 0.000000 
#    z 0.000000 0.000000 1.746810 
# 
# From -- ./inp_files/9129.got.cif
#   From: 2010.03.12/outbox.cif.g09.slc.cpg/sg63_5_cif.got.tgz:9129.got - 2010.04.10 19:34:48.
