data_PCOD8259672
_publ_section_title
;
Structure prediction by ZEFSAII (Michael W. Deem and Ramdas Pophale) SiO2 
 PCOD8259672
Probable space group: C M C M
;
_chemical_formula_sum "Si O2"
_cell_formula_units_Z 96
_cell_length_a 20.290562
_cell_length_b 14.387103
_cell_length_c 16.684117
_cell_angle_alpha 90.000000
_cell_angle_beta 90.000000
_cell_angle_gamma 90.000000
_cell_volume 4870.467567
_symmetry_space_group_name_H-M "C M C M"
_symmetry_group_IT_number 63
_symmetry_cell_setting 'orthorhombic'
loop_
_space_group_symop_operation_xyz
x,y,z
-x,-y,1/2+z
x,-y,-z
-x,y,1/2-z
-x,-y,-z
x,y,1/2-z
-x,y,z
x,-y,1/2+z
1/2+x,1/2+y,z
1/2-x,1/2-y,1/2+z
1/2+x,1/2-y,-z
1/2-x,1/2+y,1/2-z
1/2-x,1/2-y,-z
1/2+x,1/2+y,1/2-z
1/2-x,1/2+y,z
1/2+x,1/2-y,1/2+z
loop_
_atom_site_type_symbol
_atom_site_label
_atom_site_fract_x
_atom_site_fract_y
_atom_site_fract_z
Si Si1 0.424017 0.033385 0.589318
Si Si2 0.926751 0.919041 0.845069
Si Si3 0.232611 0.238775 0.591640
Si Si4 0.624729 0.778880 0.343440
Si Si5 0.309126 0.073591 0.341310
Si Si6 0.188161 0.947621 0.154621
O O1 0.500000 0.015471 0.610069
O O2 0.406485 0.141473 0.600975
O O3 0.406715 0.000000 0.500000
O O4 0.380429 0.973029 0.650019
O O5 0.923970 0.917582 0.750000
O O6 0.906738 0.816764 0.875232
O O7 0.000000 0.943759 0.876332
O O8 0.875697 0.996074 0.876466
O O9 0.250000 0.250000 0.500000
O O10 0.296893 0.227279 0.646858
O O11 0.191239 0.329761 0.612574
O O12 0.186421 0.149957 0.608044
O O13 0.608679 0.798679 0.250000
O O14 0.293835 0.096182 0.250000
O O15 0.252960 0.003765 0.373563
O O16 0.187342 0.931283 0.250000
#
# Coordination Sequence:
#
# PCOD8259672 Si02
#       6
#    16  16  16  16  16  16
#     4  11  24  40  59  88 127 164 200 250 315 377
#     4   9  18  34  60  93 122 149 191 248 303 354
#     4  12  24  37  59  89 123 161 203 253 309 365
#     4  11  20  37  64  92 120 154 207 263 306 354
#     4  11  22  38  61  88 120 156 203 255 301 361
#     4  10  20  37  61  89 121 155 198 250 302 361
#
# _framework density 19.710633000000001
#
# number of rings (size 3 to 8) (size 9 to 14) (size 15 to 20)
#    0.000    1.333    3.333    3.500    0.000    2.000 
#    0.000    0.833    0.000    5.000    0.000    0.000 
#    0.000    0.000    0.000    0.000    0.000    0.000 
#
# Total GULP energy -595383.029898 kJ/mol
# GULP energy per Si atom -12403.813123 kJ/mol
# Density = 1.966577 g / cm^3
# Si number density = 19.710633 Si / 1000 Ang^3
#
#
#
# Elastic Constant Matrix: (Units=GPa)
#
#
# Indices 1 2 3 4 5 6 
#
# 1 128.1700 63.8471 17.9964 0.0000 0.0000 0.0000
# 2 63.8471 175.4381 47.4437 0.0000 0.0000 0.0000
# 3 17.9964 47.4437 57.9490 0.0000 0.0000 0.0000
# 4 0.0000 0.0000 0.0000 25.4864 0.0000 0.0000
# 5 0.0000 0.0000 0.0000 0.0000 21.7481 0.0000
# 6 0.0000 0.0000 0.0000 0.0000 0.0000 27.7654
#
#
#
# Elastic Compliance Matrix: (Units=1/GPa)
#
#
# Indices 1 2 3 4 5 6 
#
# 1 0.009531 -0.003427 -0.000154 0.000000 0.000000 0.000000
# 2 -0.003427 0.008553 -0.005938 0.000000 0.000000 0.000000
# 3 -0.000154 -0.005938 0.022166 0.000000 0.000000 0.000000
# 4 0.000000 0.000000 0.000000 0.039237 0.000000 0.000000
# 5 0.000000 0.000000 0.000000 0.000000 0.045981 0.000000
# 6 0.000000 0.000000 0.000000 0.000000 0.000000 0.036016
#
#
# Mechanical properties :
#
#
# Convention : Reuss Voigt Hill
#
# Bulk Modulus (GPa) = 47.14452 68.90348 58.02400
# Shear Modulus (GPa) = 26.65343 30.48462 28.56903
#
# Velocity S-wave (km/s) = 3.68127 3.93696 3.81126
# Velocity P-wave (km/s) = 6.48376 7.46322 6.99067
#
# Compressibility (1/GPa) = 0.02121137
#
# Stress axis : x y z
#
# Youngs Moduli (GPa) = 104.92235 116.91769 45.11372
#
# Poissons Ratio (x) = 0.40066 0.00696
# Poissons Ratio (y) = 0.35955 0.26790
# Poissons Ratio (z) = 0.01618 0.69429
#
# Static dielectric constant tensor:
#      x y z
#    x 3.695660 0.000000 0.000000 
#    y 0.000000 3.763940 0.000000 
#    z 0.000000 0.000000 3.305360 
# 
# 
# High freq. dielectric constant tensor:
#      x y z
#    x 1.765200 0.000000 0.000000 
#    y 0.000000 1.780330 0.000000 
#    z 0.000000 0.000000 1.748900 
# 
# From -- ./inp_files/35375.got.cif
#   From: 2010.03.12/outbox.cif.g09.slc.cpg/sg63_18_cif.got.tgz:35375.got - 2010.04.10 19:34:48.
