data_PCOD8259514
_publ_section_title
;
Structure prediction by ZEFSAII (Michael W. Deem and Ramdas Pophale) SiO2 
 PCOD8259514
Probable space group: C M C M
;
_chemical_formula_sum "Si O2"
_cell_formula_units_Z 112
_cell_length_a 25.040866
_cell_length_b 14.445589
_cell_length_c 15.514632
_cell_angle_alpha 90.000000
_cell_angle_beta 90.000000
_cell_angle_gamma 90.000000
_cell_volume 5612.108740
_symmetry_space_group_name_H-M "C M C M"
_symmetry_group_IT_number 63
_symmetry_cell_setting 'orthorhombic'
loop_
_space_group_symop_operation_xyz
x,y,z
-x,-y,1/2+z
x,-y,-z
-x,y,1/2-z
-x,-y,-z
x,y,1/2-z
-x,y,z
x,-y,1/2+z
1/2+x,1/2+y,z
1/2-x,1/2-y,1/2+z
1/2+x,1/2-y,-z
1/2-x,1/2+y,1/2-z
1/2-x,1/2-y,-z
1/2+x,1/2+y,1/2-z
1/2-x,1/2+y,z
1/2+x,1/2-y,1/2+z
loop_
_atom_site_type_symbol
_atom_site_label
_atom_site_fract_x
_atom_site_fract_y
_atom_site_fract_z
Si Si1 0.558901 0.908269 0.845144
Si Si2 0.595105 0.780013 0.509263
Si Si3 0.258638 0.436897 0.154574
Si Si4 0.835260 0.894172 0.844825
Si Si5 0.197492 0.803791 0.016886
Si Si6 0.140057 0.552777 0.912813
Si Si7 0.440003 0.584030 0.433777
O O1 0.567896 0.864370 0.750000
O O2 0.500000 0.953242 0.851386
O O3 0.601372 0.989698 0.856377
O O4 0.560072 0.829023 0.917819
O O5 0.651299 0.758845 0.558315
O O6 0.608913 0.850785 0.430645
O O7 0.566861 0.685674 0.477506
O O8 0.267498 0.392827 0.250000
O O9 0.284769 0.537581 0.153128
O O10 0.292059 0.387675 0.080113
O O11 0.195634 0.433819 0.137062
O O12 0.835890 0.846584 0.750000
O O13 0.894915 0.935624 0.860817
O O14 0.825773 0.824368 0.922241
O O15 0.250000 0.750000 0.000000
O O16 0.154884 0.500000 0.000000
O O17 0.432627 0.500000 0.500000
O O18 0.500000 0.580759 0.394236
#
# Coordination Sequence:
#
# PCOD8259514 Si02
#       7
#    16  16  16  16  16  16  16
#     4  10  22  39  59  88 123 156 199 252 302 359
#     4  10  21  37  62  88 117 160 205 249 301 367
#     4  11  22  37  60  88 119 155 201 250 305 371
#     4  10  22  38  59  84 116 157 200 251 304 359
#     4  11  21  37  56  83 121 155 194 244 301 362
#     4  10  20  36  59  86 119 159 199 243 301 365
#     4  10  21  40  64  90 121 161 209 259 309 362
#
# _framework density 19.956847
#
# number of rings (size 3 to 8) (size 9 to 14) (size 15 to 20)
#    0.000    1.714    1.429    3.857    2.000    4.571 
#    0.000    1.429    0.000    0.857    0.000    0.000 
#    0.000    0.000    0.000    0.000    0.000    0.000 
#
# Total GULP energy -693764.615295 kJ/mol
# GULP energy per Si atom -12388.653845 kJ/mol
# Density = 1.991142 g / cm^3
# Si number density = 19.956847 Si / 1000 Ang^3
#
#
#
# Elastic Constant Matrix: (Units=GPa)
#
#
# Indices 1 2 3 4 5 6 
#
# 1 122.5159 17.9619 42.9641 0.0000 0.0000 0.0000
# 2 17.9619 81.8553 27.4871 0.0000 0.0000 0.0000
# 3 42.9641 27.4871 113.3153 0.0000 0.0000 0.0000
# 4 0.0000 0.0000 0.0000 8.5691 0.0000 0.0000
# 5 0.0000 0.0000 0.0000 0.0000 33.0570 0.0000
# 6 0.0000 0.0000 0.0000 0.0000 0.0000 27.0977
#
#
#
# Elastic Compliance Matrix: (Units=1/GPa)
#
#
# Indices 1 2 3 4 5 6 
#
# 1 0.009481 -0.000951 -0.003364 0.000000 0.000000 0.000000
# 2 -0.000951 0.013395 -0.002889 0.000000 0.000000 0.000000
# 3 -0.003364 -0.002889 0.010801 0.000000 0.000000 0.000000
# 4 0.000000 0.000000 0.000000 0.116699 0.000000 0.000000
# 5 0.000000 0.000000 0.000000 0.000000 0.030251 0.000000
# 6 0.000000 0.000000 0.000000 0.000000 0.000000 0.036904
#
#
# Mechanical properties :
#
#
# Convention : Reuss Voigt Hill
#
# Bulk Modulus (GPa) = 51.89362 54.94584 53.41973
# Shear Modulus (GPa) = 20.97647 29.02965 25.00306
#
# Velocity S-wave (km/s) = 3.24557 3.81809 3.54341
# Velocity P-wave (km/s) = 6.33280 6.85778 6.60051
#
# Compressibility (1/GPa) = 0.01927019
#
# Stress axis : x y z
#
# Youngs Moduli (GPa) = 105.46976 74.65252 92.58175
#
# Poissons Ratio (x) = 0.07098 0.31147
# Poissons Ratio (y) = 0.10028 0.26745
# Poissons Ratio (z) = 0.35483 0.21566
#
# Static dielectric constant tensor:
#      x y z
#    x 3.778840 0.000000 0.000000 
#    y 0.000000 3.424430 0.000000 
#    z 0.000000 0.000000 3.644490 
# 
# 
# High freq. dielectric constant tensor:
#      x y z
#    x 1.803670 0.000000 0.000000 
#    y 0.000000 1.765430 0.000000 
#    z 0.000000 0.000000 1.770470 
# 
# From -- ./inp_files/37981.got.cif
#   From: 2010.03.12/outbox.cif.g09.slc.cpg/sg63_19_cif.got.tgz:37981.got - 2010.04.10 19:34:48.
