data_PCOD8259570
_publ_section_title
;
Structure prediction by ZEFSAII (Michael W. Deem and Ramdas Pophale) SiO2 
 PCOD8259570
Probable space group: C M C M
;
_chemical_formula_sum "Si O2"
_cell_formula_units_Z 96
_cell_length_a 11.904767
_cell_length_b 22.114333
_cell_length_c 17.591366
_cell_angle_alpha 90.000000
_cell_angle_beta 90.000000
_cell_angle_gamma 90.000000
_cell_volume 4631.208240
_symmetry_space_group_name_H-M "C M C M"
_symmetry_group_IT_number 63
_symmetry_cell_setting 'orthorhombic'
loop_
_space_group_symop_operation_xyz
x,y,z
-x,-y,1/2+z
x,-y,-z
-x,y,1/2-z
-x,-y,-z
x,y,1/2-z
-x,y,z
x,-y,1/2+z
1/2+x,1/2+y,z
1/2-x,1/2-y,1/2+z
1/2+x,1/2-y,-z
1/2-x,1/2+y,1/2-z
1/2-x,1/2-y,-z
1/2+x,1/2+y,1/2-z
1/2-x,1/2+y,z
1/2+x,1/2-y,1/2+z
loop_
_atom_site_type_symbol
_atom_site_label
_atom_site_fract_x
_atom_site_fract_y
_atom_site_fract_z
Si Si1 0.874112 0.472793 0.078946
Si Si2 0.000000 0.856969 0.661187
Si Si3 0.500000 0.493257 0.660340
Si Si4 0.780896 0.183478 0.086594
Si Si5 0.873732 0.407057 0.664195
Si Si6 0.371039 0.296039 0.078355
Si Si7 0.187127 0.087202 0.660548
O O1 0.872505 0.522389 0.145424
O O2 0.800185 0.417503 0.110455
O O3 0.000000 0.447845 0.064771
O O4 0.826988 0.500000 0.000000
O O5 0.892144 0.818202 0.637444
O O6 0.000000 0.864666 0.750000
O O7 0.000000 0.925321 0.624638
O O8 0.500000 0.488643 0.750000
O O9 0.609640 0.530696 0.634725
O O10 0.705508 0.125285 0.103715
O O11 0.706339 0.241605 0.108711
O O12 0.817407 0.180381 0.999563
O O13 0.827692 0.398129 0.750000
O O14 0.000000 0.381186 0.657331
O O15 0.500000 0.274506 0.066199
O O16 0.371146 0.349425 0.140154
O O17 0.212225 0.086276 0.750000
#
# Coordination Sequence:
#
# PCOD8259570 Si02
#       7
#    16   8   8  16  16  16  16
#     4  10  21  38  60  90 127 166 208 256 312 382
#     4  11  22  39  63  95 130 165 207 265 337 387
#     4   9  20  37  61  91 129 163 194 253 318 377
#     4  11  23  41  63  90 125 163 211 267 319 381
#     4  10  20  36  61  92 123 159 207 260 315 372
#     4  11  24  44  65  87 121 168 220 261 316 387
#     4  11  22  39  62  93 129 167 212 263 319 381
#
# _framework density 20.728930999999999
#
# number of rings (size 3 to 8) (size 9 to 14) (size 15 to 20)
#    0.000    1.500    1.667    3.500    0.000    3.667 
#    1.500    1.250    0.000    0.000    0.000    0.000 
#    0.000    0.000    0.000    0.000    0.000    0.000 
#
# Total GULP energy -595280.599877 kJ/mol
# GULP energy per Si atom -12401.679164 kJ/mol
# Density = 2.068175 g / cm^3
# Si number density = 20.728931 Si / 1000 Ang^3
#
#
#
# Elastic Constant Matrix: (Units=GPa)
#
#
# Indices 1 2 3 4 5 6 
#
# 1 119.8468 45.0612 36.1779 0.0000 0.0000 0.0000
# 2 45.0612 80.3013 23.4404 0.0000 0.0000 0.0000
# 3 36.1779 23.4404 73.8483 0.0000 0.0000 0.0000
# 4 0.0000 0.0000 0.0000 32.7950 0.0000 0.0000
# 5 0.0000 0.0000 0.0000 0.0000 36.1390 0.0000
# 6 0.0000 0.0000 0.0000 0.0000 0.0000 40.0303
#
#
#
# Elastic Compliance Matrix: (Units=1/GPa)
#
#
# Indices 1 2 3 4 5 6 
#
# 1 0.011541 -0.005319 -0.003966 0.000000 0.000000 0.000000
# 2 -0.005319 0.016176 -0.002529 0.000000 0.000000 0.000000
# 3 -0.003966 -0.002529 0.016287 0.000000 0.000000 0.000000
# 4 0.000000 0.000000 0.000000 0.030492 0.000000 0.000000
# 5 0.000000 0.000000 0.000000 0.000000 0.027671 0.000000
# 6 0.000000 0.000000 0.000000 0.000000 0.000000 0.024981
#
#
# Mechanical properties :
#
#
# Convention : Reuss Voigt Hill
#
# Bulk Modulus (GPa) = 49.07436 53.70616 51.39026
# Shear Modulus (GPa) = 31.73267 33.08063 32.40665
#
# Velocity S-wave (km/s) = 3.91684 3.99917 3.95822
# Velocity P-wave (km/s) = 6.64690 6.87673 6.76279
#
# Compressibility (1/GPa) = 0.02037724
#
# Stress axis : x y z
#
# Youngs Moduli (GPa) = 86.64921 61.82076 61.39975
#
# Poissons Ratio (x) = 0.32880 0.24349
# Poissons Ratio (y) = 0.46085 0.15527
# Poissons Ratio (z) = 0.34362 0.15634
#
# Static dielectric constant tensor:
#      x y z
#    x 3.963550 0.000000 0.000000 
#    y 0.000000 3.658820 0.000000 
#    z 0.000000 0.000000 3.579440 
# 
# 
# High freq. dielectric constant tensor:
#      x y z
#    x 1.825770 0.000000 0.000000 
#    y 0.000000 1.794920 0.000000 
#    z 0.000000 0.000000 1.808510 
# 
# From -- ./inp_files/42542.got.cif
#   From: 2010.03.12/outbox.cif.g09.slc.cpg/sg63_22_cif.got.tgz:42542.got - 2010.04.10 19:34:48.
