data_PCOD8259694
_publ_section_title
;
Structure prediction by ZEFSAII (Michael W. Deem and Ramdas Pophale) SiO2 
 PCOD8259694
Probable space group: C M C M
;
_chemical_formula_sum "Si O2"
_cell_formula_units_Z 80
_cell_length_a 13.517665
_cell_length_b 13.571169
_cell_length_c 18.749009
_cell_angle_alpha 90.000000
_cell_angle_beta 90.000000
_cell_angle_gamma 90.000000
_cell_volume 3439.515379
_symmetry_space_group_name_H-M "C M C M"
_symmetry_group_IT_number 63
_symmetry_cell_setting 'orthorhombic'
loop_
_space_group_symop_operation_xyz
x,y,z
-x,-y,1/2+z
x,-y,-z
-x,y,1/2-z
-x,-y,-z
x,y,1/2-z
-x,y,z
x,-y,1/2+z
1/2+x,1/2+y,z
1/2-x,1/2-y,1/2+z
1/2+x,1/2-y,-z
1/2-x,1/2+y,1/2-z
1/2-x,1/2-y,-z
1/2+x,1/2+y,1/2-z
1/2-x,1/2+y,z
1/2+x,1/2-y,1/2+z
loop_
_atom_site_type_symbol
_atom_site_label
_atom_site_fract_x
_atom_site_fract_y
_atom_site_fract_z
Si Si1 0.607356 0.797442 0.666606
Si Si2 0.187481 0.121575 0.331072
Si Si3 0.301784 0.103439 0.971240
Si Si4 0.110415 0.192075 0.030433
Si Si5 0.209329 0.901182 0.330038
O O1 0.598256 0.814035 0.750000
O O2 0.500000 0.824015 0.631666
O O3 0.698653 0.865362 0.639567
O O4 0.630236 0.682863 0.649138
O O5 0.177592 0.162328 0.250000
O O6 0.117993 0.185064 0.383125
O O7 0.156525 0.007453 0.334858
O O8 0.367184 0.196374 0.997169
O O9 0.301011 0.102647 0.884916
O O10 0.187812 0.115036 0.997044
O O11 0.345347 0.000000 0.000000
O O12 0.000000 0.164435 0.006152
O O13 0.251085 0.883996 0.250000
#
# Coordination Sequence:
#
# PCOD8259694 Si02
#       5
#    16  16  16  16  16
#     4   9  18  34  59  89 120 158 203 248 297 355
#     4  10  20  38  62  92 130 162 200 258 311 357
#     4  11  23  44  64  88 125 164 202 253 310 366
#     4  11  25  42  63  92 122 162 211 254 308 369
#     4  10  20  37  63  91 123 160 200 250 306 362
#
# _framework density 23.25909
#
# number of rings (size 3 to 8) (size 9 to 14) (size 15 to 20)
#    0.000    1.800    4.000    0.000    0.000    2.800 
#    0.000    3.000    0.000    1.200    0.000    0.000 
#    0.000    0.000    0.000    0.000    0.000    0.000 
#
# Total GULP energy -495769.762779 kJ/mol
# GULP energy per Si atom -12394.244069 kJ/mol
# Density = 2.320615 g / cm^3
# Si number density = 23.259090 Si / 1000 Ang^3
#
#
#
# Elastic Constant Matrix: (Units=GPa)
#
#
# Indices 1 2 3 4 5 6 
#
# 1 86.8246 10.3237 -5.5126 0.0000 0.0000 0.0000
# 2 10.3237 110.9179 -10.7840 0.0000 0.0000 0.0000
# 3 -5.5126 -10.7840 42.2757 0.0000 0.0000 0.0000
# 4 0.0000 0.0000 0.0000 24.9480 0.0000 0.0000
# 5 0.0000 0.0000 0.0000 0.0000 18.4595 0.0000
# 6 0.0000 0.0000 0.0000 0.0000 0.0000 15.3377
#
#
#
# Elastic Compliance Matrix: (Units=1/GPa)
#
#
# Indices 1 2 3 4 5 6 
#
# 1 0.011714 -0.000966 0.001281 0.000000 0.000000 0.000000
# 2 -0.000966 0.009325 0.002253 0.000000 0.000000 0.000000
# 3 0.001281 0.002253 0.024396 0.000000 0.000000 0.000000
# 4 0.000000 0.000000 0.000000 0.040083 0.000000 0.000000
# 5 0.000000 0.000000 0.000000 0.000000 0.054173 0.000000
# 6 0.000000 0.000000 0.000000 0.000000 0.000000 0.065199
#
#
# Mechanical properties :
#
#
# Convention : Reuss Voigt Hill
#
# Bulk Modulus (GPa) = 19.77449 25.34137 22.55793
# Shear Modulus (GPa) = 23.08301 28.14845 25.61573
#
# Velocity S-wave (km/s) = 3.15370 3.48259 3.32222
# Velocity P-wave (km/s) = 4.66706 5.20482 4.94325
#
# Compressibility (1/GPa) = 0.05057021
#
# Stress axis : x y z
#
# Youngs Moduli (GPa) = 85.37057 107.24349 40.99049
#
# Poissons Ratio (x) = 0.10356 -0.05251
# Poissons Ratio (y) = 0.08244 -0.09234
# Poissons Ratio (z) = -0.10937 -0.24158
#
# Static dielectric constant tensor:
#      x y z
#    x 4.152220 0.000000 0.000000 
#    y 0.000000 4.133160 0.000000 
#    z 0.000000 0.000000 4.532850 
# 
# 
# High freq. dielectric constant tensor:
#      x y z
#    x 1.864710 0.000000 0.000000 
#    y 0.000000 1.916020 0.000000 
#    z 0.000000 0.000000 1.943240 
# 
# From -- ./inp_files/53993.got.cif
#   From: 2010.03.12/outbox.cif.g09.slc.cpg/sg63_27_cif.got.tgz:53993.got - 2010.04.10 19:34:48.
