data_PCOD8259149
_publ_section_title
;
Structure prediction by ZEFSAII (Michael W. Deem and Ramdas Pophale) SiO2 
 PCOD8259149
Probable space group: C M C M
;
_chemical_formula_sum "Si O2"
_cell_formula_units_Z 96
_cell_length_a 18.731231
_cell_length_b 29.853836
_cell_length_c 8.500216
_cell_angle_alpha 90.000000
_cell_angle_beta 90.000000
_cell_angle_gamma 90.000000
_cell_volume 4753.313123
_symmetry_space_group_name_H-M "C M C M"
_symmetry_group_IT_number 63
_symmetry_cell_setting 'orthorhombic'
loop_
_space_group_symop_operation_xyz
x,y,z
-x,-y,1/2+z
x,-y,-z
-x,y,1/2-z
-x,-y,-z
x,y,1/2-z
-x,y,z
x,-y,1/2+z
1/2+x,1/2+y,z
1/2-x,1/2-y,1/2+z
1/2+x,1/2-y,-z
1/2-x,1/2+y,1/2-z
1/2-x,1/2-y,-z
1/2+x,1/2+y,1/2-z
1/2-x,1/2+y,z
1/2+x,1/2-y,1/2+z
loop_
_atom_site_type_symbol
_atom_site_label
_atom_site_fract_x
_atom_site_fract_y
_atom_site_fract_z
Si Si1 0.919055 0.951537 0.563383
Si Si2 0.721823 0.796553 0.937801
Si Si3 0.079498 0.431071 0.570834
Si Si4 0.420198 0.165513 0.567682
Si Si5 0.285994 0.044201 0.571300
Si Si6 0.197461 0.116975 0.431516
O O1 0.912210 0.953105 0.750000
O O2 0.870503 0.910316 0.493795
O O3 0.000000 0.941932 0.508497
O O4 0.893450 0.000000 0.500000
O O5 0.716893 0.797735 0.750000
O O6 0.779329 0.834335 0.999188
O O7 0.750000 0.750000 0.000000
O O8 0.642364 0.801697 0.008816
O O9 0.104567 0.439348 0.750000
O O10 0.084243 0.378518 0.536799
O O11 0.128609 0.458902 0.449461
O O12 0.000000 0.448839 0.542747
O O13 0.406929 0.153338 0.750000
O O14 0.500000 0.187253 0.547191
O O15 0.262107 0.050731 0.750000
O O16 0.265632 0.086192 0.463807
O O17 0.248784 0.000000 0.500000
O O18 0.181240 0.122972 0.250000
#
# Coordination Sequence:
#
# PCOD8259149 Si02
#       6
#    16  16  16  16  16  16
#     4   9  18  34  57  85 116 150 189 232 284 350
#     4  11  23  39  61  87 119 155 197 248 303 359
#     4  10  20  35  55  79 110 148 189 233 281 331
#     4  10  20  36  60  88 116 150 194 239 289 350
#     4  12  24  36  54  79 112 151 192 237 284 339
#     4  10  21  38  58  82 113 150 192 238 291 350
#
# _framework density 20.196439000000002
#
# number of rings (size 3 to 8) (size 9 to 14) (size 15 to 20)
#    0.000    1.667    1.667    3.500    0.000    5.000 
#    0.000    0.833    0.000    3.000    0.000    0.000 
#    0.000    0.000    0.000    0.000    0.000    0.000 
#
# Total GULP energy -594816.716268 kJ/mol
# GULP energy per Si atom -12392.014922 kJ/mol
# Density = 2.015047 g / cm^3
# Si number density = 20.196439 Si / 1000 Ang^3
#
#
#
# Elastic Constant Matrix: (Units=GPa)
#
#
# Indices 1 2 3 4 5 6 
#
# 1 123.0837 55.0515 27.1108 0.0000 0.0000 0.0000
# 2 55.0515 132.3945 15.2380 0.0000 0.0000 0.0000
# 3 27.1108 15.2380 37.7996 0.0000 0.0000 0.0000
# 4 0.0000 0.0000 0.0000 29.0265 0.0000 0.0000
# 5 0.0000 0.0000 0.0000 0.0000 26.0515 0.0000
# 6 0.0000 0.0000 0.0000 0.0000 0.0000 25.3282
#
#
#
# Elastic Compliance Matrix: (Units=1/GPa)
#
#
# Indices 1 2 3 4 5 6 
#
# 1 0.011335 -0.003961 -0.006533 0.000000 0.000000 0.000000
# 2 -0.003961 0.009305 -0.000910 0.000000 0.000000 0.000000
# 3 -0.006533 -0.000910 0.031508 0.000000 0.000000 0.000000
# 4 0.000000 0.000000 0.000000 0.034451 0.000000 0.000000
# 5 0.000000 0.000000 0.000000 0.000000 0.038385 0.000000
# 6 0.000000 0.000000 0.000000 0.000000 0.000000 0.039482
#
#
# Mechanical properties :
#
#
# Convention : Reuss Voigt Hill
#
# Bulk Modulus (GPa) = 34.08375 54.23095 44.15735
# Shear Modulus (GPa) = 25.37357 29.13973 27.25665
#
# Velocity S-wave (km/s) = 3.54833 3.80256 3.67764
# Velocity P-wave (km/s) = 5.80520 6.79627 6.32019
#
# Compressibility (1/GPa) = 0.02933949
#
# Stress axis : x y z
#
# Youngs Moduli (GPa) = 88.21925 107.46731 31.73820
#
# Poissons Ratio (x) = 0.42573 0.20735
# Poissons Ratio (y) = 0.34948 0.02888
# Poissons Ratio (z) = 0.57634 0.09778
#
# Static dielectric constant tensor:
#      x y z
#    x 4.036930 0.000000 0.000000 
#    y 0.000000 3.799630 0.000000 
#    z 0.000000 0.000000 3.549070 
# 
# 
# High freq. dielectric constant tensor:
#      x y z
#    x 1.799660 0.000000 0.000000 
#    y 0.000000 1.767740 0.000000 
#    z 0.000000 0.000000 1.781940 
# 
# From -- ./inp_files/8622.got.cif
#   From: 2010.03.12/outbox.cif.g09.slc.cpg/sg63_5_cif.got.tgz:8622.got - 2010.04.10 19:34:48.
