data_PCOD8260031
_publ_section_title
;
Structure prediction by ZEFSAII (Michael W. Deem and Ramdas Pophale) SiO2 
 PCOD8260031
Probable space group: C M C M
;
_chemical_formula_sum "Si O2"
_cell_formula_units_Z 56
_cell_length_a 15.078468
_cell_length_b 19.886626
_cell_length_c 8.772442
_cell_angle_alpha 90.000000
_cell_angle_beta 90.000000
_cell_angle_gamma 90.000000
_cell_volume 2630.503175
_symmetry_space_group_name_H-M "C M C M"
_symmetry_group_IT_number 63
_symmetry_cell_setting 'orthorhombic'
loop_
_space_group_symop_operation_xyz
x,y,z
-x,-y,1/2+z
x,-y,-z
-x,y,1/2-z
-x,-y,-z
x,y,1/2-z
-x,y,z
x,-y,1/2+z
1/2+x,1/2+y,z
1/2-x,1/2-y,1/2+z
1/2+x,1/2-y,-z
1/2-x,1/2+y,1/2-z
1/2-x,1/2-y,-z
1/2+x,1/2+y,1/2-z
1/2-x,1/2+y,z
1/2+x,1/2-y,1/2+z
loop_
_atom_site_type_symbol
_atom_site_label
_atom_site_fract_x
_atom_site_fract_y
_atom_site_fract_z
Si Si1 0.846097 0.810663 0.572747
Si Si2 0.500000 0.075037 0.568412
Si Si3 0.857856 0.326922 0.928625
Si Si4 0.399942 0.561846 0.915370
O O1 0.855645 0.794667 0.750000
O O2 0.886571 0.747322 0.482340
O O3 0.745701 0.831247 0.528660
O O4 0.903520 0.873804 0.523702
O O5 0.500000 0.069835 0.750000
O O6 0.587808 0.115075 0.514854
O O7 0.500000 0.000000 0.500000
O O8 0.876417 0.334930 0.750000
O O9 0.354233 0.575952 0.750000
O O10 0.500000 0.539176 0.884653
O O11 0.349599 0.500000 0.000000
#
# Coordination Sequence:
#
# PCOD8260031 Si02
#       4
#    16   8  16  16
#     4  10  21  38  62  90 120 158 201 247 299 358
#     4  12  26  44  66  92 123 162 207 256 312 372
#     4  10  22  41  63  89 121 156 200 250 300 357
#     4  10  21  36  55  82 117 156 196 242 293 349
#
# _framework density 21.288703000000002
#
# number of rings (size 3 to 8) (size 9 to 14) (size 15 to 20)
#    0.000    1.714    0.000    3.857    2.000    6.286 
#    0.000    0.000    0.000    0.000    0.000    0.000 
#    0.000    0.000    0.000    0.000    0.000    0.000 
#
# Total GULP energy -347106.891480 kJ/mol
# GULP energy per Si atom -12396.674696 kJ/mol
# Density = 2.124025 g / cm^3
# Si number density = 21.288703 Si / 1000 Ang^3
#
#
#
# Elastic Constant Matrix: (Units=GPa)
#
#
# Indices 1 2 3 4 5 6 
#
# 1 54.6063 38.5170 38.6649 0.0000 0.0000 0.0000
# 2 38.5170 177.1053 66.0975 0.0000 0.0000 0.0000
# 3 38.6649 66.0975 131.0059 0.0000 0.0000 0.0000
# 4 0.0000 0.0000 0.0000 44.1459 0.0000 0.0000
# 5 0.0000 0.0000 0.0000 0.0000 27.2049 0.0000
# 6 0.0000 0.0000 0.0000 0.0000 0.0000 17.7772
#
#
#
# Elastic Compliance Matrix: (Units=1/GPa)
#
#
# Indices 1 2 3 4 5 6 
#
# 1 0.024581 -0.003250 -0.005615 0.000000 0.000000 0.000000
# 2 -0.003250 0.007386 -0.002767 0.000000 0.000000 0.000000
# 3 -0.005615 -0.002767 0.010687 0.000000 0.000000 0.000000
# 4 0.000000 0.000000 0.000000 0.022652 0.000000 0.000000
# 5 0.000000 0.000000 0.000000 0.000000 0.036758 0.000000
# 6 0.000000 0.000000 0.000000 0.000000 0.000000 0.056252
#
#
# Mechanical properties :
#
#
# Convention : Reuss Voigt Hill
#
# Bulk Modulus (GPa) = 51.57609 72.14184 61.85896
# Shear Modulus (GPa) = 26.58949 32.45480 29.52214
#
# Velocity S-wave (km/s) = 3.53795 3.90873 3.72795
# Velocity P-wave (km/s) = 6.40070 7.37101 6.90293
#
# Compressibility (1/GPa) = 0.01938883
#
# Stress axis : x y z
#
# Youngs Moduli (GPa) = 40.68116 135.39104 93.57511
#
# Poissons Ratio (x) = 0.44008 0.52542
# Poissons Ratio (y) = 0.13223 0.25894
# Poissons Ratio (z) = 0.22842 0.37465
#
# Static dielectric constant tensor:
#      x y z
#    x 3.668870 0.000000 0.000000 
#    y 0.000000 3.811590 0.000000 
#    z 0.000000 0.000000 4.162380 
# 
# 
# High freq. dielectric constant tensor:
#      x y z
#    x 1.812940 0.000000 0.000000 
#    y 0.000000 1.842570 0.000000 
#    z 0.000000 0.000000 1.854450 
# 
# From -- ./inp_files/3977.got.cif
#   From: 2010.03.12/outbox.cif.g09.slc.cpg/sg63_2_cif.got.tgz:3977.got - 2010.04.10 19:34:48.
