data_PCOD8260928
_publ_section_title
;
Structure prediction by ZEFSAII (Michael W. Deem and Ramdas Pophale) SiO2 
 PCOD8260928
Probable space group: C M C M
;
_chemical_formula_sum "Si O2"
_cell_formula_units_Z 96
_cell_length_a 8.820522
_cell_length_b 23.996897
_cell_length_c 26.206474
_cell_angle_alpha 90.000000
_cell_angle_beta 90.000000
_cell_angle_gamma 90.000000
_cell_volume 5546.997458
_symmetry_space_group_name_H-M "C M C M"
_symmetry_group_IT_number 63
_symmetry_cell_setting 'orthorhombic'
loop_
_space_group_symop_operation_xyz
x,y,z
-x,-y,1/2+z
x,-y,-z
-x,y,1/2-z
-x,-y,-z
x,y,1/2-z
-x,y,z
x,-y,1/2+z
1/2+x,1/2+y,z
1/2-x,1/2-y,1/2+z
1/2+x,1/2-y,-z
1/2-x,1/2+y,1/2-z
1/2-x,1/2-y,-z
1/2+x,1/2+y,1/2-z
1/2-x,1/2+y,z
1/2+x,1/2-y,1/2+z
loop_
_atom_site_type_symbol
_atom_site_label
_atom_site_fract_x
_atom_site_fract_y
_atom_site_fract_z
Si Si1 0.322944 0.923624 0.034348
Si Si2 0.325219 0.660948 0.605950
Si Si3 0.322424 0.417478 0.194020
Si Si4 0.825430 0.270848 0.552168
Si Si5 0.676064 0.502900 0.110970
Si Si6 0.174198 0.885902 0.565960
O O1 0.500000 0.926137 0.021867
O O2 0.285746 0.868418 0.066249
O O3 0.273945 0.978804 0.064339
O O4 0.229075 0.920132 0.982703
O O5 0.500000 0.644541 0.593952
O O6 0.281715 0.639191 0.662708
O O7 0.300898 0.726928 0.598463
O O8 0.243133 0.415702 0.250000
O O9 0.500000 0.421158 0.202248
O O10 0.267998 0.472749 0.163103
O O11 0.750000 0.250000 0.500000
O O12 0.764021 0.328880 0.574038
O O13 0.000000 0.278950 0.538869
O O14 0.500000 0.487911 0.101187
O O15 0.698085 0.570210 0.113055
O O16 0.000000 0.869264 0.559394
#
# Coordination Sequence:
#
# PCOD8260928 Si02
#       6
#    16  16  16  16  16  16
#     4  11  20  29  46  70  97 129 164 201 238 286
#     4   9  18  32  49  71  99 128 160 201 246 289
#     4   8  14  29  55  79  93 113 156 209 252 294
#     4  11  21  32  48  69  98 135 171 202 237 285
#     4   9  19  33  48  69  97 128 160 199 248 294
#     4  11  21  32  46  65  97 136 168 198 237 286
#
# _framework density 17.306660000000001
#
# number of rings (size 3 to 8) (size 9 to 14) (size 15 to 20)
#    0.000    2.167    1.667    4.000    0.000    4.000 
#    0.000    0.000    0.000    9.000    0.000    0.000 
#    0.000    0.000    0.000    0.000    0.000    0.333 
#
# Total GULP energy -594835.628557 kJ/mol
# GULP energy per Si atom -12392.408928 kJ/mol
# Density = 1.726727 g / cm^3
# Si number density = 17.306660 Si / 1000 Ang^3
#
#
#
# Elastic Constant Matrix: (Units=GPa)
#
#
# Indices 1 2 3 4 5 6 
#
# 1 62.8199 42.3423 15.1714 0.0000 0.0000 0.0000
# 2 42.3423 145.4639 63.2684 0.0000 0.0000 0.0000
# 3 15.1714 63.2684 94.9582 0.0000 0.0000 0.0000
# 4 0.0000 0.0000 0.0000 7.6225 0.0000 0.0000
# 5 0.0000 0.0000 0.0000 0.0000 7.1192 0.0000
# 6 0.0000 0.0000 0.0000 0.0000 0.0000 26.6916
#
#
#
# Elastic Compliance Matrix: (Units=1/GPa)
#
#
# Indices 1 2 3 4 5 6 
#
# 1 0.019866 -0.006198 0.000956 0.000000 0.000000 0.000000
# 2 -0.006198 0.011614 -0.006748 0.000000 0.000000 0.000000
# 3 0.000956 -0.006748 0.014874 0.000000 0.000000 0.000000
# 4 0.000000 0.000000 0.000000 0.131190 0.000000 0.000000
# 5 0.000000 0.000000 0.000000 0.000000 0.140466 0.000000
# 6 0.000000 0.000000 0.000000 0.000000 0.000000 0.037465
#
#
# Mechanical properties :
#
#
# Convention : Reuss Voigt Hill
#
# Bulk Modulus (GPa) = 44.69650 60.53402 52.61526
# Shear Modulus (GPa) = 12.92284 20.45065 16.68675
#
# Velocity S-wave (km/s) = 2.73554 3.44126 3.10849
# Velocity P-wave (km/s) = 5.98831 7.13042 6.58418
#
# Compressibility (1/GPa) = 0.02237312
#
# Stress axis : x y z
#
# Youngs Moduli (GPa) = 50.33850 86.10595 67.23149
#
# Poissons Ratio (x) = 0.53371 -0.06427
# Poissons Ratio (y) = 0.31201 0.45365
# Poissons Ratio (z) = -0.04812 0.58101
#
# Static dielectric constant tensor:
#      x y z
#    x 3.121130 0.000000 0.000000 
#    y 0.000000 3.407410 0.000000 
#    z 0.000000 0.000000 3.311240 
# 
# 
# High freq. dielectric constant tensor:
#      x y z
#    x 1.658140 0.000000 0.000000 
#    y 0.000000 1.675930 0.000000 
#    z 0.000000 0.000000 1.631210 
# 
# From -- ./inp_files/67195.got.cif
#   From: 2010.03.12/outbox.cif.g09.slc.cpg/sg63_34_cif.got.tgz:67195.got - 2010.04.10 19:34:48.
