data_PCOD8260324
_publ_section_title
;
Structure prediction by ZEFSAII (Michael W. Deem and Ramdas Pophale) SiO2 
 PCOD8260324
Probable space group: C M C M
;
_chemical_formula_sum "Si O2"
_cell_formula_units_Z 80
_cell_length_a 8.529240
_cell_length_b 18.230275
_cell_length_c 25.102578
_cell_angle_alpha 90.000000
_cell_angle_beta 90.000000
_cell_angle_gamma 90.000000
_cell_volume 3903.209662
_symmetry_space_group_name_H-M "C M C M"
_symmetry_group_IT_number 63
_symmetry_cell_setting 'orthorhombic'
loop_
_space_group_symop_operation_xyz
x,y,z
-x,-y,1/2+z
x,-y,-z
-x,y,1/2-z
-x,-y,-z
x,y,1/2-z
-x,y,z
x,-y,1/2+z
1/2+x,1/2+y,z
1/2-x,1/2-y,1/2+z
1/2+x,1/2-y,-z
1/2-x,1/2+y,1/2-z
1/2-x,1/2-y,-z
1/2+x,1/2+y,1/2-z
1/2-x,1/2+y,z
1/2+x,1/2-y,1/2+z
loop_
_atom_site_type_symbol
_atom_site_label
_atom_site_fract_x
_atom_site_fract_y
_atom_site_fract_z
Si Si1 0.818222 0.083946 0.505555
Si Si2 0.318653 0.070143 0.310015
Si Si3 0.680176 0.823692 0.098360
Si Si4 0.319117 0.166834 0.408350
Si Si5 0.819045 0.916061 0.311475
O O1 0.715080 0.118332 0.552205
O O2 0.789099 0.125464 0.450430
O O3 0.000000 0.090241 0.521188
O O4 0.765414 0.000000 0.500000
O O5 0.275127 0.095486 0.250000
O O6 0.500000 0.047526 0.313789
O O7 0.278235 0.136803 0.349453
O O8 0.218523 0.999641 0.327423
O O9 0.500000 0.799729 0.095943
O O10 0.787201 0.752884 0.089840
O O11 0.715121 0.859782 0.155224
O O12 0.500000 0.152808 0.422953
O O13 0.777401 0.902571 0.250000
O O14 0.000000 0.900798 0.323999
#
# Coordination Sequence:
#
# PCOD8260324 Si02
#       5
#    16  16  16  16  16
#     4  11  24  42  64  88 116 151 193 241 292 349
#     4   9  19  37  61  88 118 154 195 238 286 342
#     4  12  25  40  60  86 119 156 195 241 292 347
#     4  11  23  39  60  87 121 157 195 241 292 347
#     4  10  21  38  61  88 119 155 195 240 289 343
#
# _framework density 20.495953
#
# number of rings (size 3 to 8) (size 9 to 14) (size 15 to 20)
#    0.000    1.400    0.000    5.400    0.000    8.400 
#    0.000    2.000    0.000    0.000    0.000    0.000 
#    0.000    0.000    0.000    0.000    0.000    0.000 
#
# Total GULP energy -496296.910695 kJ/mol
# GULP energy per Si atom -12407.422767 kJ/mol
# Density = 2.044930 g / cm^3
# Si number density = 20.495953 Si / 1000 Ang^3
#
#
#
# Elastic Constant Matrix: (Units=GPa)
#
#
# Indices 1 2 3 4 5 6 
#
# 1 53.4451 15.0317 22.8428 0.0000 0.0000 0.0000
# 2 15.0317 117.7119 53.4102 0.0000 0.0000 0.0000
# 3 22.8428 53.4102 101.2248 0.0000 0.0000 0.0000
# 4 0.0000 0.0000 0.0000 26.9832 0.0000 0.0000
# 5 0.0000 0.0000 0.0000 0.0000 33.1164 0.0000
# 6 0.0000 0.0000 0.0000 0.0000 0.0000 40.2471
#
#
#
# Elastic Compliance Matrix: (Units=1/GPa)
#
#
# Indices 1 2 3 4 5 6 
#
# 1 0.020751 -0.000690 -0.004318 0.000000 0.000000 0.000000
# 2 -0.000690 0.011192 -0.005750 0.000000 0.000000 0.000000
# 3 -0.004318 -0.005750 0.013887 0.000000 0.000000 0.000000
# 4 0.000000 0.000000 0.000000 0.037060 0.000000 0.000000
# 5 0.000000 0.000000 0.000000 0.000000 0.030197 0.000000
# 6 0.000000 0.000000 0.000000 0.000000 0.000000 0.024847
#
#
# Mechanical properties :
#
#
# Convention : Reuss Voigt Hill
#
# Bulk Modulus (GPa) = 41.12988 50.55015 45.84001
# Shear Modulus (GPa) = 29.84097 32.14248 30.99173
#
# Velocity S-wave (km/s) = 3.81982 3.96439 3.89278
# Velocity P-wave (km/s) = 6.29012 6.75812 6.52832
#
# Compressibility (1/GPa) = 0.02431323
#
# Stress axis : x y z
#
# Youngs Moduli (GPa) = 48.19120 89.34680 72.00835
#
# Poissons Ratio (x) = 0.06169 0.31096
# Poissons Ratio (y) = 0.03327 0.41403
# Poissons Ratio (z) = 0.20811 0.51372
#
# Static dielectric constant tensor:
#      x y z
#    x 3.678830 0.000000 0.000000 
#    y 0.000000 3.669770 0.000000 
#    z 0.000000 0.000000 3.852880 
# 
# 
# High freq. dielectric constant tensor:
#      x y z
#    x 1.805430 0.000000 0.000000 
#    y 0.000000 1.800820 0.000000 
#    z 0.000000 0.000000 1.813660 
# 
# From -- ./inp_files/66623.got.cif
#   From: 2010.03.12/outbox.cif.g09.slc.cpg/sg63_34_cif.got.tgz:66623.got - 2010.04.10 19:34:48.
