data_PCOD8260751
_publ_section_title
;
Structure prediction by ZEFSAII (Michael W. Deem and Ramdas Pophale) SiO2 
 PCOD8260751
Probable space group: C M C M
;
_chemical_formula_sum "Si O2"
_cell_formula_units_Z 56
_cell_length_a 17.162428
_cell_length_b 8.325928
_cell_length_c 16.999664
_cell_angle_alpha 90.000000
_cell_angle_beta 90.000000
_cell_angle_gamma 90.000000
_cell_volume 2429.135365
_symmetry_space_group_name_H-M "C M C M"
_symmetry_group_IT_number 63
_symmetry_cell_setting 'orthorhombic'
loop_
_space_group_symop_operation_xyz
x,y,z
-x,-y,1/2+z
x,-y,-z
-x,y,1/2-z
-x,-y,-z
x,y,1/2-z
-x,y,z
x,-y,1/2+z
1/2+x,1/2+y,z
1/2-x,1/2-y,1/2+z
1/2+x,1/2-y,-z
1/2-x,1/2+y,1/2-z
1/2-x,1/2-y,-z
1/2+x,1/2+y,1/2-z
1/2-x,1/2+y,z
1/2+x,1/2-y,1/2+z
loop_
_atom_site_type_symbol
_atom_site_label
_atom_site_fract_x
_atom_site_fract_y
_atom_site_fract_z
Si Si1 0.629873 0.328446 0.250000
Si Si2 0.663774 0.789362 0.091427
Si Si3 0.000000 0.119753 0.878784
Si Si4 0.228395 0.000000 0.000000
Si Si5 0.777483 0.147336 0.250000
Si Si6 0.000000 0.235319 0.447739
O O1 0.577250 0.339914 0.328121
O O2 0.682388 0.164916 0.250000
O O3 0.697726 0.462332 0.250000
O O4 0.717377 0.942171 0.071877
O O5 0.683196 0.734636 0.177401
O O6 0.573728 0.838112 0.082112
O O7 0.674601 0.644731 0.028590
O O8 0.000000 0.934069 0.902097
O O9 0.000000 0.224435 0.957674
#
# Coordination Sequence:
#
# PCOD8260751 Si02
#       6
#     8  16   8   8   8   8
#     4  11  24  42  68  95 134 166 224 265 332 378
#     4  11  24  41  66  96 134 169 222 266 326 384
#     4  10  22  42  64  96 126 175 216 270 315 400
#     4  10  24  42  64  96 128 174 220 272 316 386
#     4  12  24  40  66 102 128 176 208 280 316 392
#     4  11  22  39  68  94 128 172 218 266 325 387
#
# _framework density 23.053470999999998
#
# number of rings (size 3 to 8) (size 9 to 14) (size 15 to 20)
#    0.000    1.143    2.857    3.429    8.000    1.143 
#    0.000    0.000    0.000    3.429    0.000    0.000 
#    0.000    0.000    0.000    0.000    0.000    0.000 
#
# Total GULP energy -347299.761183 kJ/mol
# GULP energy per Si atom -12403.562899 kJ/mol
# Density = 2.300100 g / cm^3
# Si number density = 23.053471 Si / 1000 Ang^3
#
#
#
# Elastic Constant Matrix: (Units=GPa)
#
#
# Indices 1 2 3 4 5 6 
#
# 1 175.7137 19.0793 37.9238 0.0000 0.0000 0.0000
# 2 19.0793 31.9825 -15.2789 0.0000 0.0000 0.0000
# 3 37.9238 -15.2789 101.4277 0.0000 0.0000 0.0000
# 4 0.0000 0.0000 0.0000 18.6110 0.0000 0.0000
# 5 0.0000 0.0000 0.0000 0.0000 44.9723 0.0000
# 6 0.0000 0.0000 0.0000 0.0000 0.0000 32.9568
#
#
#
# Elastic Compliance Matrix: (Units=1/GPa)
#
#
# Indices 1 2 3 4 5 6 
#
# 1 0.007101 -0.005931 -0.003549 0.000000 0.000000 0.000000
# 2 -0.005931 0.038646 0.008039 0.000000 0.000000 0.000000
# 3 -0.003549 0.008039 0.012397 0.000000 0.000000 0.000000
# 4 0.000000 0.000000 0.000000 0.053732 0.000000 0.000000
# 5 0.000000 0.000000 0.000000 0.000000 0.022236 0.000000
# 6 0.000000 0.000000 0.000000 0.000000 0.000000 0.030343
#
#
# Mechanical properties :
#
#
# Convention : Reuss Voigt Hill
#
# Bulk Modulus (GPa) = 18.09533 43.61916 30.85725
# Shear Modulus (GPa) = 26.91695 37.13466 32.02580
#
# Velocity S-wave (km/s) = 3.42071 4.01784 3.73124
# Velocity P-wave (km/s) = 4.84437 6.36286 5.65482
#
# Compressibility (1/GPa) = 0.05526287
#
# Stress axis : x y z
#
# Youngs Moduli (GPa) = 140.82542 25.87588 80.66421
#
# Poissons Ratio (x) = 0.15348 0.28624
# Poissons Ratio (y) = 0.83529 -0.64848
# Poissons Ratio (z) = 0.49973 -0.20802
#
# Static dielectric constant tensor:
#      x y z
#    x 4.424670 0.000000 0.000000 
#    y 0.000000 4.032440 0.000000 
#    z 0.000000 0.000000 4.236540 
# 
# 
# High freq. dielectric constant tensor:
#      x y z
#    x 1.927890 0.000000 0.000000 
#    y 0.000000 1.880980 0.000000 
#    z 0.000000 0.000000 1.926580 
# 
# From -- ./inp_files/45050.got.cif
#   From: 2010.03.12/outbox.cif.g09.slc.cpg/sg63_23_cif.got.tgz:45050.got - 2010.04.10 19:34:48.
