data_PCOD8260217
_publ_section_title
;
Structure prediction by ZEFSAII (Michael W. Deem and Ramdas Pophale) SiO2 
 PCOD8260217
Probable space group: C M C M
;
_chemical_formula_sum "Si O2"
_cell_formula_units_Z 104
_cell_length_a 11.402726
_cell_length_b 24.540503
_cell_length_c 19.103918
_cell_angle_alpha 90.000000
_cell_angle_beta 90.000000
_cell_angle_gamma 90.000000
_cell_volume 5345.823232
_symmetry_space_group_name_H-M "C M C M"
_symmetry_group_IT_number 63
_symmetry_cell_setting 'orthorhombic'
loop_
_space_group_symop_operation_xyz
x,y,z
-x,-y,1/2+z
x,-y,-z
-x,y,1/2-z
-x,-y,-z
x,y,1/2-z
-x,y,z
x,-y,1/2+z
1/2+x,1/2+y,z
1/2-x,1/2-y,1/2+z
1/2+x,1/2-y,-z
1/2-x,1/2+y,1/2-z
1/2-x,1/2-y,-z
1/2+x,1/2+y,1/2-z
1/2-x,1/2+y,z
1/2+x,1/2-y,1/2+z
loop_
_atom_site_type_symbol
_atom_site_label
_atom_site_fract_x
_atom_site_fract_y
_atom_site_fract_z
Si Si1 0.000000 0.334815 0.934071
Si Si2 0.240008 0.815232 0.943179
Si Si3 0.778960 0.801169 0.406510
Si Si4 0.500000 0.962639 0.569202
Si Si5 0.798512 0.493068 0.828269
Si Si6 0.500000 0.258503 0.331726
Si Si7 0.864154 0.896694 0.669729
Si Si8 0.365822 0.110585 0.670632
O O1 0.122316 0.314928 0.967091
O O2 0.000000 0.398980 0.944088
O O3 0.000000 0.304709 0.857728
O O4 0.209589 0.756081 0.912544
O O5 0.208766 0.859989 0.884770
O O6 0.174088 0.822880 0.017507
O O7 0.683873 0.842546 0.377295
O O8 0.888661 0.793767 0.355721
O O9 0.500000 0.000000 0.500000
O O10 0.614984 0.972658 0.613187
O O11 0.850114 0.482717 0.750000
O O12 0.677538 0.459546 0.837400
O O13 0.781986 0.557735 0.838728
O O14 0.500000 0.254520 0.250000
O O15 0.843658 0.876359 0.750000
O O16 0.000000 0.893963 0.649411
O O17 0.363992 0.131416 0.750000
O O18 0.500000 0.095841 0.648161
#
# Coordination Sequence:
#
# PCOD8260217 Si02
#       8
#     8  16  16   8  16   8  16  16
#     4  10  22  38  59  95 116 164 204 254 317 355
#     4  10  22  39  61  88 122 160 203 248 317 368
#     4  10  23  39  59  87 123 163 197 254 308 365
#     4  12  23  34  61  96 123 156 195 251 305 369
#     4  10  21  39  59  86 121 158 197 248 308 362
#     4  10  22  42  64  89 120 162 222 259 299 371
#     4  10  22  40  63  89 120 159 207 257 305 370
#     4  10  21  37  60  88 118 157 200 248 306 366
#
# _framework density 19.454440999999999
#
# number of rings (size 3 to 8) (size 9 to 14) (size 15 to 20)
#    0.000    1.846    2.308    0.692    4.308    4.308 
#    1.385    1.538    0.000    1.385    0.000    0.000 
#    0.000    0.000    0.000    0.000    0.000    0.000 
#
# Total GULP energy -644328.831397 kJ/mol
# GULP energy per Si atom -12390.939065 kJ/mol
# Density = 1.941016 g / cm^3
# Si number density = 19.454441 Si / 1000 Ang^3
#
#
#
# Elastic Constant Matrix: (Units=GPa)
#
#
# Indices 1 2 3 4 5 6 
#
# 1 69.9224 34.7387 31.5514 0.0000 0.0000 0.0000
# 2 34.7387 130.1401 54.2722 0.0000 0.0000 0.0000
# 3 31.5514 54.2722 96.7971 0.0000 0.0000 0.0000
# 4 0.0000 0.0000 0.0000 28.6675 0.0000 0.0000
# 5 0.0000 0.0000 0.0000 0.0000 25.6571 0.0000
# 6 0.0000 0.0000 0.0000 0.0000 0.0000 27.4506
#
#
#
# Elastic Compliance Matrix: (Units=1/GPa)
#
#
# Indices 1 2 3 4 5 6 
#
# 1 0.017629 -0.003014 -0.004056 0.000000 0.000000 0.000000
# 2 -0.003014 0.010544 -0.004930 0.000000 0.000000 0.000000
# 3 -0.004056 -0.004930 0.014417 0.000000 0.000000 0.000000
# 4 0.000000 0.000000 0.000000 0.034883 0.000000 0.000000
# 5 0.000000 0.000000 0.000000 0.000000 0.038976 0.000000
# 6 0.000000 0.000000 0.000000 0.000000 0.000000 0.036429
#
#
# Mechanical properties :
#
#
# Convention : Reuss Voigt Hill
#
# Bulk Modulus (GPa) = 53.79082 59.77603 56.78342
# Shear Modulus (GPa) = 27.31117 28.10819 27.70968
#
# Velocity S-wave (km/s) = 3.75087 3.80520 3.77813
# Velocity P-wave (km/s) = 6.81677 7.07806 6.94864
#
# Compressibility (1/GPa) = 0.01859053
#
# Stress axis : x y z
#
# Youngs Moduli (GPa) = 56.72314 94.83715 69.36276
#
# Poissons Ratio (x) = 0.28587 0.28136
# Poissons Ratio (y) = 0.17098 0.34192
# Poissons Ratio (z) = 0.23009 0.46750
#
# Static dielectric constant tensor:
#      x y z
#    x 3.479640 0.000000 0.000000 
#    y 0.000000 3.745280 0.000000 
#    z 0.000000 0.000000 3.605730 
# 
# 
# High freq. dielectric constant tensor:
#      x y z
#    x 1.742870 0.000000 0.000000 
#    y 0.000000 1.760860 0.000000 
#    z 0.000000 0.000000 1.764020 
# 
# From -- ./inp_files/42827.got.cif
#   From: 2010.03.12/outbox.cif.g09.slc.cpg/sg63_22_cif.got.tgz:42827.got - 2010.04.10 19:34:48.
