data_PCOD8260306
_publ_section_title
;
Structure prediction by ZEFSAII (Michael W. Deem and Ramdas Pophale) SiO2 
 PCOD8260306
Probable space group: C M C M
;
_chemical_formula_sum "Si O2"
_cell_formula_units_Z 80
_cell_length_a 15.557168
_cell_length_b 10.153586
_cell_length_c 27.193925
_cell_angle_alpha 90.000000
_cell_angle_beta 90.000000
_cell_angle_gamma 90.000000
_cell_volume 4295.580762
_symmetry_space_group_name_H-M "C M C M"
_symmetry_group_IT_number 63
_symmetry_cell_setting 'orthorhombic'
loop_
_space_group_symop_operation_xyz
x,y,z
-x,-y,1/2+z
x,-y,-z
-x,y,1/2-z
-x,-y,-z
x,y,1/2-z
-x,y,z
x,-y,1/2+z
1/2+x,1/2+y,z
1/2-x,1/2-y,1/2+z
1/2+x,1/2-y,-z
1/2-x,1/2+y,1/2-z
1/2-x,1/2-y,-z
1/2+x,1/2+y,1/2-z
1/2-x,1/2+y,z
1/2+x,1/2-y,1/2+z
loop_
_atom_site_type_symbol
_atom_site_label
_atom_site_fract_x
_atom_site_fract_y
_atom_site_fract_z
Si Si1 0.172742 0.966529 0.695320
Si Si2 0.823800 0.736063 0.195662
Si Si3 0.253808 0.124230 0.466224
Si Si4 0.903890 0.970427 0.906140
Si Si5 0.904093 0.273784 0.596116
O O1 0.132301 0.944171 0.750000
O O2 0.211789 0.114178 0.691771
O O3 0.246576 0.862170 0.684871
O O4 0.102123 0.947471 0.652725
O O5 0.863129 0.710511 0.250000
O O6 0.897135 0.712209 0.155192
O O7 0.250000 0.250000 0.500000
O O8 0.165248 0.115679 0.435608
O O9 0.334445 0.132928 0.429438
O O10 0.269821 0.000000 0.500000
O O11 0.000000 0.928032 0.922307
O O12 0.887403 0.122864 0.919742
O O13 0.000000 0.318146 0.580853
#
# Coordination Sequence:
#
# PCOD8260306 Si02
#       5
#    16  16  16  16  16
#     4   9  17  31  56  86 115 147 183 225 274 333
#     4   9  17  31  56  85 114 148 184 223 274 336
#     4  12  24  40  62  83 111 148 194 244 287 332
#     4  10  21  38  61  87 115 150 190 230 283 345
#     4  10  21  38  60  87 117 147 188 235 284 340
#
# _framework density 18.623791000000001
#
# number of rings (size 3 to 8) (size 9 to 14) (size 15 to 20)
#    0.000    2.000    4.000    0.000    0.000    2.400 
#    0.000    4.000    0.000    0.000    0.000    5.600 
#    0.000    0.000    0.000    0.000    0.000    0.000 
#
# Total GULP energy -495837.544320 kJ/mol
# GULP energy per Si atom -12395.938608 kJ/mol
# Density = 1.858140 g / cm^3
# Si number density = 18.623791 Si / 1000 Ang^3
#
#
#
# Elastic Constant Matrix: (Units=GPa)
#
#
# Indices 1 2 3 4 5 6 
#
# 1 138.4512 47.2494 67.5049 0.0000 0.0000 0.0000
# 2 47.2494 81.3184 47.7347 0.0000 0.0000 0.0000
# 3 67.5049 47.7347 114.4078 0.0000 0.0000 0.0000
# 4 0.0000 0.0000 0.0000 30.1782 0.0000 0.0000
# 5 0.0000 0.0000 0.0000 0.0000 16.2738 0.0000
# 6 0.0000 0.0000 0.0000 0.0000 0.0000 26.6439
#
#
#
# Elastic Compliance Matrix: (Units=1/GPa)
#
#
# Indices 1 2 3 4 5 6 
#
# 1 0.010789 -0.003353 -0.004967 0.000000 0.000000 0.000000
# 2 -0.003353 0.017328 -0.005251 0.000000 0.000000 0.000000
# 3 -0.004967 -0.005251 0.013862 0.000000 0.000000 0.000000
# 4 0.000000 0.000000 0.000000 0.033137 0.000000 0.000000
# 5 0.000000 0.000000 0.000000 0.000000 0.061448 0.000000
# 6 0.000000 0.000000 0.000000 0.000000 0.000000 0.037532
#
#
# Mechanical properties :
#
#
# Convention : Reuss Voigt Hill
#
# Bulk Modulus (GPa) = 67.40058 73.23951 70.32005
# Shear Modulus (GPa) = 24.25012 26.06506 25.15759
#
# Velocity S-wave (km/s) = 3.61238 3.74512 3.67935
# Velocity P-wave (km/s) = 7.32586 7.62315 7.47598
#
# Compressibility (1/GPa) = 0.01483667
#
# Stress axis : x y z
#
# Youngs Moduli (GPa) = 92.68926 57.70892 72.13822
#
# Poissons Ratio (x) = 0.19351 0.35829
# Poissons Ratio (y) = 0.31081 0.37883
# Poissons Ratio (z) = 0.46036 0.30305
#
# Static dielectric constant tensor:
#      x y z
#    x 3.220310 0.000000 0.000000 
#    y 0.000000 3.331990 0.000000 
#    z 0.000000 0.000000 3.711090 
# 
# 
# High freq. dielectric constant tensor:
#      x y z
#    x 1.699520 0.000000 0.000000 
#    y 0.000000 1.711050 0.000000 
#    z 0.000000 0.000000 1.744490 
# 
# From -- ./inp_files/62535.got.cif
#   From: 2010.03.12/outbox.cif.g09.slc.cpg/sg63_32_cif.got.tgz:62535.got - 2010.04.10 19:34:48.
