data_PCOD8260193
_publ_section_title
;
Structure prediction by ZEFSAII (Michael W. Deem and Ramdas Pophale) SiO2 
 PCOD8260193
Probable space group: C M C M
;
_chemical_formula_sum "Si O2"
_cell_formula_units_Z 56
_cell_length_a 33.940086
_cell_length_b 4.958501
_cell_length_c 15.157524
_cell_angle_alpha 90.000000
_cell_angle_beta 90.000000
_cell_angle_gamma 90.000000
_cell_volume 2550.889277
_symmetry_space_group_name_H-M "C M C M"
_symmetry_group_IT_number 63
_symmetry_cell_setting 'orthorhombic'
loop_
_space_group_symop_operation_xyz
x,y,z
-x,-y,1/2+z
x,-y,-z
-x,y,1/2-z
-x,-y,-z
x,y,1/2-z
-x,y,z
x,-y,1/2+z
1/2+x,1/2+y,z
1/2-x,1/2-y,1/2+z
1/2+x,1/2-y,-z
1/2-x,1/2+y,1/2-z
1/2-x,1/2-y,-z
1/2+x,1/2+y,1/2-z
1/2-x,1/2+y,z
1/2+x,1/2-y,1/2+z
loop_
_atom_site_type_symbol
_atom_site_label
_atom_site_fract_x
_atom_site_fract_y
_atom_site_fract_z
Si Si1 0.776310 0.626908 0.750000
Si Si2 0.043088 0.744770 0.059434
Si Si3 0.881690 0.933227 0.151244
Si Si4 0.664514 0.921469 0.402365
O O1 0.761340 0.320979 0.750000
O O2 0.800674 0.686535 0.839632
O O3 0.074591 0.821832 0.133371
O O4 0.000000 0.665876 0.100751
O O5 0.059692 0.500000 0.000000
O O6 0.036472 0.000000 0.000000
O O7 0.880715 0.048516 0.250000
O O8 0.852117 0.685827 0.143786
O O9 0.868403 0.182839 0.088535
O O10 0.679809 0.000000 0.500000
#
# Coordination Sequence:
#
# PCOD8260193 Si02
#       4
#     8  16  16  16
#     4  12  26  46  70  98 135 162 209 274 336 402
#     4  10  21  37  58  89 129 172 219 269 321 376
#     4  12  22  40  65  95 132 171 225 277 320 383
#     4  12  25  44  69  98 130 173 219 266 331 399
#
# _framework density 21.953126999999999
#
# number of rings (size 3 to 8) (size 9 to 14) (size 15 to 20)
#    0.000    0.571    2.857    6.857    0.000    1.714 
#    0.000    0.000    0.000    8.571    0.000    0.000 
#    0.000    0.000    0.000    0.000    0.000    0.000 
#
# Total GULP energy -347236.515320 kJ/mol
# GULP energy per Si atom -12401.304119 kJ/mol
# Density = 2.190316 g / cm^3
# Si number density = 21.953127 Si / 1000 Ang^3
#
#
#
# Elastic Constant Matrix: (Units=GPa)
#
#
# Indices 1 2 3 4 5 6 
#
# 1 99.0544 21.4366 53.6187 0.0000 0.0000 0.0000
# 2 21.4366 122.2384 23.4543 0.0000 0.0000 0.0000
# 3 53.6187 23.4543 118.8339 0.0000 0.0000 0.0000
# 4 0.0000 0.0000 0.0000 32.4972 0.0000 0.0000
# 5 0.0000 0.0000 0.0000 0.0000 22.4094 0.0000
# 6 0.0000 0.0000 0.0000 0.0000 0.0000 38.9268
#
#
#
# Elastic Compliance Matrix: (Units=1/GPa)
#
#
# Indices 1 2 3 4 5 6 
#
# 1 0.013539 -0.001249 -0.005862 0.000000 0.000000 0.000000
# 2 -0.001249 0.008618 -0.001137 0.000000 0.000000 0.000000
# 3 -0.005862 -0.001137 0.011285 0.000000 0.000000 0.000000
# 4 0.000000 0.000000 0.000000 0.030772 0.000000 0.000000
# 5 0.000000 0.000000 0.000000 0.000000 0.044624 0.000000
# 6 0.000000 0.000000 0.000000 0.000000 0.000000 0.025689
#
#
# Mechanical properties :
#
#
# Convention : Reuss Voigt Hill
#
# Bulk Modulus (GPa) = 59.01838 59.68288 59.35063
# Shear Modulus (GPa) = 31.91358 34.87450 33.39404
#
# Velocity S-wave (km/s) = 3.81690 3.99004 3.90443
# Velocity P-wave (km/s) = 6.80934 6.96223 6.88621
#
# Compressibility (1/GPa) = 0.01694387
#
# Stress axis : x y z
#
# Youngs Moduli (GPa) = 73.85960 116.03556 88.61566
#
# Poissons Ratio (x) = 0.14499 0.51950
# Poissons Ratio (y) = 0.09229 0.10077
# Poissons Ratio (z) = 0.43299 0.13195
#
# Static dielectric constant tensor:
#      x y z
#    x 4.171970 0.000000 0.000000 
#    y 0.000000 4.047610 0.000000 
#    z 0.000000 0.000000 3.736640 
# 
# 
# High freq. dielectric constant tensor:
#      x y z
#    x 1.864920 0.000000 0.000000 
#    y 0.000000 1.884000 0.000000 
#    z 0.000000 0.000000 1.845820 
# 
# From -- ./inp_files/38194.got.cif
#   From: 2010.03.12/outbox.cif.g09.slc.cpg/sg63_20_cif.got.tgz:38194.got - 2010.04.10 19:34:48.
