data_PCOD8260417
_publ_section_title
;
Structure prediction by ZEFSAII (Michael W. Deem and Ramdas Pophale) SiO2 
 PCOD8260417
Probable space group: C M C M
;
_chemical_formula_sum "Si O2"
_cell_formula_units_Z 64
_cell_length_a 8.757408
_cell_length_b 14.702868
_cell_length_c 23.952885
_cell_angle_alpha 90.000000
_cell_angle_beta 90.000000
_cell_angle_gamma 90.000000
_cell_volume 3084.149851
_symmetry_space_group_name_H-M "C M C M"
_symmetry_group_IT_number 63
_symmetry_cell_setting 'orthorhombic'
loop_
_space_group_symop_operation_xyz
x,y,z
-x,-y,1/2+z
x,-y,-z
-x,y,1/2-z
-x,-y,-z
x,y,1/2-z
-x,y,z
x,-y,1/2+z
1/2+x,1/2+y,z
1/2-x,1/2-y,1/2+z
1/2+x,1/2-y,-z
1/2-x,1/2+y,1/2-z
1/2-x,1/2-y,-z
1/2+x,1/2+y,1/2-z
1/2-x,1/2+y,z
1/2+x,1/2-y,1/2+z
loop_
_atom_site_type_symbol
_atom_site_label
_atom_site_fract_x
_atom_site_fract_y
_atom_site_fract_z
Si Si1 0.319622 0.085436 0.376679
Si Si2 0.332110 0.892213 0.501168
Si Si3 0.677446 0.391289 0.390409
Si Si4 0.675434 0.742407 0.315145
O O1 0.500000 0.090495 0.366324
O O2 0.276106 0.132553 0.436308
O O3 0.230141 0.140340 0.329154
O O4 0.271465 0.980563 0.373903
O O5 0.500000 0.850492 0.489482
O O6 0.217328 0.857075 0.453386
O O7 0.343346 0.000000 0.500000
O O8 0.500000 0.413996 0.387414
O O9 0.717461 0.312823 0.347182
O O10 0.697275 0.759414 0.250000
O O11 0.500000 0.755332 0.333093
#
# Coordination Sequence:
#
# PCOD8260417 Si02
#       4
#    16  16  16  16
#     4  10  21  39  63  89 119 154 190 236 292 346
#     4   8  16  33  57  86 119 152 188 231 283 344
#     4  11  22  37  61  90 120 155 192 235 288 344
#     4  11  25  43  61  83 113 152 200 248 290 339
#
# _framework density 20.751261
#
# number of rings (size 3 to 8) (size 9 to 14) (size 15 to 20)
#    0.000    2.000    0.000    5.250    0.000    9.500 
#    0.000    0.000    0.000    0.000    0.000    0.000 
#    0.000    0.000    0.000    0.000    0.000    0.000 
#
# Total GULP energy -396807.226021 kJ/mol
# GULP energy per Si atom -12400.225813 kJ/mol
# Density = 2.070403 g / cm^3
# Si number density = 20.751261 Si / 1000 Ang^3
#
#
#
# Elastic Constant Matrix: (Units=GPa)
#
#
# Indices 1 2 3 4 5 6 
#
# 1 90.4746 11.4737 40.2399 0.0000 0.0000 0.0000
# 2 11.4737 39.9585 5.9347 0.0000 0.0000 0.0000
# 3 40.2399 5.9347 61.4061 0.0000 0.0000 0.0000
# 4 0.0000 0.0000 0.0000 33.4935 0.0000 0.0000
# 5 0.0000 0.0000 0.0000 0.0000 30.3665 0.0000
# 6 0.0000 0.0000 0.0000 0.0000 0.0000 30.6203
#
#
#
# Elastic Compliance Matrix: (Units=1/GPa)
#
#
# Indices 1 2 3 4 5 6 
#
# 1 0.015963 -0.003074 -0.010164 0.000000 0.000000 0.000000
# 2 -0.003074 0.025982 -0.000497 0.000000 0.000000 0.000000
# 3 -0.010164 -0.000497 0.022993 0.000000 0.000000 0.000000
# 4 0.000000 0.000000 0.000000 0.029857 0.000000 0.000000
# 5 0.000000 0.000000 0.000000 0.000000 0.032931 0.000000
# 6 0.000000 0.000000 0.000000 0.000000 0.000000 0.032658
#
#
# Mechanical properties :
#
#
# Convention : Reuss Voigt Hill
#
# Bulk Modulus (GPa) = 26.68793 34.12618 30.40705
# Shear Modulus (GPa) = 24.95716 27.84212 26.39964
#
# Velocity S-wave (km/s) = 3.47173 3.66691 3.57065
# Velocity P-wave (km/s) = 5.38139 5.86595 5.62888
#
# Compressibility (1/GPa) = 0.03747012
#
# Stress axis : x y z
#
# Youngs Moduli (GPa) = 62.64452 38.48752 43.49090
#
# Poissons Ratio (x) = 0.11832 0.44202
# Poissons Ratio (y) = 0.19258 0.02160
# Poissons Ratio (z) = 0.63670 0.01911
#
# Static dielectric constant tensor:
#      x y z
#    x 3.744120 0.000000 0.000000 
#    y 0.000000 3.502070 0.000000 
#    z 0.000000 0.000000 4.079780 
# 
# 
# High freq. dielectric constant tensor:
#      x y z
#    x 1.816730 0.000000 0.000000 
#    y 0.000000 1.802330 0.000000 
#    z 0.000000 0.000000 1.811310 
# 
# From -- ./inp_files/50326.got.cif
#   From: 2010.03.12/outbox.cif.g09.slc.cpg/sg63_26_cif.got.tgz:50326.got - 2010.04.10 19:34:48.
