data_PCOD8260665
_publ_section_title
;
Structure prediction by ZEFSAII (Michael W. Deem and Ramdas Pophale) SiO2 
 PCOD8260665
Probable space group: C M C M
;
_chemical_formula_sum "Si O2"
_cell_formula_units_Z 96
_cell_length_a 20.079989
_cell_length_b 14.241855
_cell_length_c 17.294379
_cell_angle_alpha 90.000000
_cell_angle_beta 90.000000
_cell_angle_gamma 90.000000
_cell_volume 4945.782374
_symmetry_space_group_name_H-M "C M C M"
_symmetry_group_IT_number 63
_symmetry_cell_setting 'orthorhombic'
loop_
_space_group_symop_operation_xyz
x,y,z
-x,-y,1/2+z
x,-y,-z
-x,y,1/2-z
-x,-y,-z
x,y,1/2-z
-x,y,z
x,-y,1/2+z
1/2+x,1/2+y,z
1/2-x,1/2-y,1/2+z
1/2+x,1/2-y,-z
1/2-x,1/2+y,1/2-z
1/2-x,1/2-y,-z
1/2+x,1/2+y,1/2-z
1/2-x,1/2+y,z
1/2+x,1/2-y,1/2+z
loop_
_atom_site_type_symbol
_atom_site_label
_atom_site_fract_x
_atom_site_fract_y
_atom_site_fract_z
Si Si1 0.732912 0.230527 0.412009
Si Si2 0.624948 0.713742 0.160275
Si Si3 0.805600 0.522934 0.087339
Si Si4 0.924113 0.581153 0.661132
Si Si5 0.312789 0.588549 0.838668
Si Si6 0.422854 0.472227 0.913233
O O1 0.750000 0.250000 0.500000
O O2 0.798092 0.229263 0.358855
O O3 0.692610 0.134452 0.400890
O O4 0.685662 0.314703 0.385509
O O5 0.617404 0.683385 0.250000
O O6 0.585768 0.809278 0.142996
O O7 0.593360 0.636364 0.103623
O O8 0.877958 0.482461 0.107156
O O9 0.749511 0.477213 0.140730
O O10 0.786133 0.500000 0.000000
O O11 0.905855 0.560481 0.750000
O O12 0.000000 0.553969 0.642694
O O13 0.307323 0.614894 0.750000
O O14 0.381453 0.535191 0.854079
O O15 0.500000 0.493158 0.899062
O O16 0.401274 0.500000 0.000000
#
# Coordination Sequence:
#
# PCOD8260665 Si02
#       6
#    16  16  16  16  16  16
#     4  12  23  39  63  93 129 163 206 256 311 372
#     4  11  21  37  64  93 123 161 210 268 318 363
#     4  12  23  40  65  92 123 166 206 255 308 373
#     4  10  22  40  62  92 128 161 204 261 314 368
#     4  12  24  39  62  93 128 163 205 259 313 370
#     4  11  24  41  62  90 127 170 213 260 317 377
#
# _framework density 19.410478000000001
#
# number of rings (size 3 to 8) (size 9 to 14) (size 15 to 20)
#    0.000    0.667    5.000    3.500    0.000    4.333 
#    0.000    0.833    0.000    0.000    0.000    0.000 
#    0.000    0.000    0.000    0.000    0.000    0.000 
#
# Total GULP energy -595516.520805 kJ/mol
# GULP energy per Si atom -12406.594183 kJ/mol
# Density = 1.936630 g / cm^3
# Si number density = 19.410478 Si / 1000 Ang^3
#
#
#
# Elastic Constant Matrix: (Units=GPa)
#
#
# Indices 1 2 3 4 5 6 
#
# 1 94.7217 35.6677 25.2463 0.0000 0.0000 0.0000
# 2 35.6677 134.4298 40.8759 0.0000 0.0000 0.0000
# 3 25.2463 40.8759 98.2849 0.0000 0.0000 0.0000
# 4 0.0000 0.0000 0.0000 34.3116 0.0000 0.0000
# 5 0.0000 0.0000 0.0000 0.0000 27.7518 0.0000
# 6 0.0000 0.0000 0.0000 0.0000 0.0000 13.6483
#
#
#
# Elastic Compliance Matrix: (Units=1/GPa)
#
#
# Indices 1 2 3 4 5 6 
#
# 1 0.012071 -0.002587 -0.002025 0.000000 0.000000 0.000000
# 2 -0.002587 0.009070 -0.003108 0.000000 0.000000 0.000000
# 3 -0.002025 -0.003108 0.011987 0.000000 0.000000 0.000000
# 4 0.000000 0.000000 0.000000 0.029145 0.000000 0.000000
# 5 0.000000 0.000000 0.000000 0.000000 0.036034 0.000000
# 6 0.000000 0.000000 0.000000 0.000000 0.000000 0.073269
#
#
# Mechanical properties :
#
#
# Convention : Reuss Voigt Hill
#
# Bulk Modulus (GPa) = 56.53133 59.00180 57.76656
# Shear Modulus (GPa) = 25.91862 30.18544 28.05203
#
# Velocity S-wave (km/s) = 3.65813 3.94777 3.80570
# Velocity P-wave (km/s) = 6.85783 7.15840 7.00973
#
# Compressibility (1/GPa) = 0.01768931
#
# Stress axis : x y z
#
# Youngs Moduli (GPa) = 82.84268 110.25113 83.42343
#
# Poissons Ratio (x) = 0.28523 0.16891
# Poissons Ratio (y) = 0.21432 0.25925
# Poissons Ratio (z) = 0.16773 0.34262
#
# Static dielectric constant tensor:
#      x y z
#    x 3.485630 0.000000 0.000000 
#    y 0.000000 3.822110 0.000000 
#    z 0.000000 0.000000 1.228030 
# 
# 
# High freq. dielectric constant tensor:
#      x y z
#    x 1.750410 0.000000 0.000000 
#    y 0.000000 1.765150 0.000000 
#    z 0.000000 0.000000 1.764140 
# 
# From -- ./inp_files/35362.got.cif
#   From: 2010.03.12/outbox.cif.g09.slc.cpg/sg63_18_cif.got.tgz:35362.got - 2010.04.10 19:34:48.
