data_PCOD8260572
_publ_section_title
;
Structure prediction by ZEFSAII (Michael W. Deem and Ramdas Pophale) SiO2 
 PCOD8260572
Probable space group: C M C M
;
_chemical_formula_sum "Si O2"
_cell_formula_units_Z 96
_cell_length_a 19.555222
_cell_length_b 14.815801
_cell_length_c 17.078931
_cell_angle_alpha 90.000000
_cell_angle_beta 90.000000
_cell_angle_gamma 90.000000
_cell_volume 4948.215105
_symmetry_space_group_name_H-M "C M C M"
_symmetry_group_IT_number 63
_symmetry_cell_setting 'orthorhombic'
loop_
_space_group_symop_operation_xyz
x,y,z
-x,-y,1/2+z
x,-y,-z
-x,y,1/2-z
-x,-y,-z
x,y,1/2-z
-x,y,z
x,-y,1/2+z
1/2+x,1/2+y,z
1/2-x,1/2-y,1/2+z
1/2+x,1/2-y,-z
1/2-x,1/2+y,1/2-z
1/2-x,1/2-y,-z
1/2+x,1/2+y,1/2-z
1/2-x,1/2+y,z
1/2+x,1/2-y,1/2+z
loop_
_atom_site_type_symbol
_atom_site_label
_atom_site_fract_x
_atom_site_fract_y
_atom_site_fract_z
Si Si1 0.791669 0.974956 0.341228
Si Si2 0.707038 0.702573 0.930624
Si Si3 0.077689 0.085640 0.160754
Si Si4 0.078006 0.408587 0.965872
Si Si5 0.685428 0.129032 0.339436
Si Si6 0.422911 0.718934 0.475968
O O1 0.784236 0.947359 0.250000
O O2 0.766972 0.893418 0.397684
O O3 0.869995 0.004714 0.359758
O O4 0.744291 0.059174 0.363308
O O5 0.711343 0.770316 0.857541
O O6 0.750000 0.750000 0.000000
O O7 0.629997 0.682575 0.959684
O O8 0.089524 0.117552 0.250000
O O9 0.092108 0.173913 0.107963
O O10 0.000000 0.049975 0.147998
O O11 0.116520 0.386606 0.886573
O O12 0.000000 0.424150 0.941841
O O13 0.109997 0.500000 0.000000
O O14 0.086308 0.327825 0.029516
O O15 0.665340 0.119939 0.250000
O O16 0.500000 0.695531 0.504310
#
# Coordination Sequence:
#
# PCOD8260572 Si02
#       6
#    16  16  16  16  16  16
#     4  10  22  39  57  82 114 147 186 232 281 334
#     4  11  23  36  58  83 109 149 190 229 279 340
#     4   9  18  35  58  82 113 149 184 227 281 340
#     4   9  19  36  58  80 110 145 186 236 279 329
#     4  10  22  38  57  81 113 147 185 234 284 336
#     4   9  19  35  54  82 111 141 182 230 281 326
#
# _framework density 19.400935
#
# number of rings (size 3 to 8) (size 9 to 14) (size 15 to 20)
#    0.000    2.333    0.000    1.500    4.667    3.000 
#    0.000    3.333    0.000    6.000    0.000    0.000 
#    0.000    0.000    0.000    0.000    0.000    0.000 
#
# Total GULP energy -594966.038705 kJ/mol
# GULP energy per Si atom -12395.125806 kJ/mol
# Density = 1.935678 g / cm^3
# Si number density = 19.400935 Si / 1000 Ang^3
#
#
#
# Elastic Constant Matrix: (Units=GPa)
#
#
# Indices 1 2 3 4 5 6 
#
# 1 76.6689 39.4356 40.1020 0.0000 0.0000 0.0000
# 2 39.4356 118.9337 64.5404 0.0000 0.0000 0.0000
# 3 40.1020 64.5404 85.3090 0.0000 0.0000 0.0000
# 4 0.0000 0.0000 0.0000 38.5660 0.0000 0.0000
# 5 0.0000 0.0000 0.0000 0.0000 25.5349 0.0000
# 6 0.0000 0.0000 0.0000 0.0000 0.0000 25.8822
#
#
#
# Elastic Compliance Matrix: (Units=1/GPa)
#
#
# Indices 1 2 3 4 5 6 
#
# 1 0.017656 -0.002291 -0.006567 0.000000 0.000000 0.000000
# 2 -0.002291 0.014561 -0.009940 0.000000 0.000000 0.000000
# 3 -0.006567 -0.009940 0.022329 0.000000 0.000000 0.000000
# 4 0.000000 0.000000 0.000000 0.025930 0.000000 0.000000
# 5 0.000000 0.000000 0.000000 0.000000 0.039162 0.000000
# 6 0.000000 0.000000 0.000000 0.000000 0.000000 0.038637
#
#
# Mechanical properties :
#
#
# Convention : Reuss Voigt Hill
#
# Bulk Modulus (GPa) = 58.98955 63.22971 61.10963
# Shear Modulus (GPa) = 24.81152 27.11885 25.96519
#
# Velocity S-wave (km/s) = 3.58003 3.74279 3.66231
# Velocity P-wave (km/s) = 6.89640 7.16518 7.03207
#
# Compressibility (1/GPa) = 0.01695215
#
# Stress axis : x y z
#
# Youngs Moduli (GPa) = 56.63746 68.67458 44.78556
#
# Poissons Ratio (x) = 0.15733 0.29409
# Poissons Ratio (y) = 0.12975 0.44515
# Poissons Ratio (z) = 0.37191 0.68259
#
# Static dielectric constant tensor:
#      x y z
#    x 3.701470 0.000000 0.000000 
#    y 0.000000 3.659800 0.000000 
#    z 0.000000 0.000000 3.428110 
# 
# 
# High freq. dielectric constant tensor:
#      x y z
#    x 1.764800 0.000000 0.000000 
#    y 0.000000 1.755230 0.000000 
#    z 0.000000 0.000000 1.742900 
# 
# From -- ./inp_files/35394.got.cif
#   From: 2010.03.12/outbox.cif.g09.slc.cpg/sg63_18_cif.got.tgz:35394.got - 2010.04.10 19:34:48.
