data_PCOD8260975
_publ_section_title
;
Structure prediction by ZEFSAII (Michael W. Deem and Ramdas Pophale) SiO2 
 PCOD8260975
Probable space group: C M C M
;
_chemical_formula_sum "Si O2"
_cell_formula_units_Z 96
_cell_length_a 9.186845
_cell_length_b 25.165766
_cell_length_c 24.979551
_cell_angle_alpha 90.000000
_cell_angle_beta 90.000000
_cell_angle_gamma 90.000000
_cell_volume 5775.122103
_symmetry_space_group_name_H-M "C M C M"
_symmetry_group_IT_number 63
_symmetry_cell_setting 'orthorhombic'
loop_
_space_group_symop_operation_xyz
x,y,z
-x,-y,1/2+z
x,-y,-z
-x,y,1/2-z
-x,-y,-z
x,y,1/2-z
-x,y,z
x,-y,1/2+z
1/2+x,1/2+y,z
1/2-x,1/2-y,1/2+z
1/2+x,1/2-y,-z
1/2-x,1/2+y,1/2-z
1/2-x,1/2-y,-z
1/2+x,1/2+y,1/2-z
1/2-x,1/2+y,z
1/2+x,1/2-y,1/2+z
loop_
_atom_site_type_symbol
_atom_site_label
_atom_site_fract_x
_atom_site_fract_y
_atom_site_fract_z
Si Si1 0.339966 0.937325 0.507387
Si Si2 0.671795 0.059976 0.609698
Si Si3 0.828942 0.651321 0.810986
Si Si4 0.668956 0.870967 0.687260
Si Si5 0.160922 0.747177 0.186438
Si Si6 0.672603 0.551504 0.109973
O O1 0.500000 0.915649 0.524121
O O2 0.293896 0.914739 0.449024
O O3 0.225042 0.922775 0.553537
O O4 0.348183 0.000000 0.500000
O O5 0.500000 0.047179 0.614906
O O6 0.725973 0.102091 0.653647
O O7 0.760445 0.006384 0.619568
O O8 0.777078 0.641323 0.750000
O O9 0.765557 0.706280 0.834739
O O10 0.000000 0.656916 0.814629
O O11 0.696744 0.878080 0.750000
O O12 0.500000 0.882547 0.673645
O O13 0.712167 0.811394 0.667848
O O14 0.774903 0.911405 0.657807
O O15 0.158010 0.746920 0.250000
O O16 0.000000 0.758859 0.163915
O O17 0.500000 0.547423 0.109576
#
# Coordination Sequence:
#
# PCOD8260975 Si02
#       6
#    16  16  16  16  16  16
#     4   8  15  30  49  64  84 120 162 195 222 265
#     4   9  18  32  48  67  93 127 162 188 219 273
#     4   9  17  29  47  71  96 121 149 184 227 271
#     4   9  18  33  51  68  90 124 159 186 220 274
#     4   8  15  29  48  68  89 117 154 189 221 264
#     4  11  21  30  45  71  98 120 148 193 241 276
#
# _framework density 16.623024999999998
#
# number of rings (size 3 to 8) (size 9 to 14) (size 15 to 20)
#    0.000    3.000    0.000    3.500    0.000    5.333 
#    0.000    3.333    0.000    1.000    0.000    0.000 
#    0.000    0.000    0.000    0.000    0.000    0.000 
#
# Total GULP energy -594907.188817 kJ/mol
# GULP energy per Si atom -12393.899767 kJ/mol
# Density = 1.658519 g / cm^3
# Si number density = 16.623025 Si / 1000 Ang^3
#
#
#
# Elastic Constant Matrix: (Units=GPa)
#
#
# Indices 1 2 3 4 5 6 
#
# 1 81.6282 56.5919 45.4955 0.0000 0.0000 0.0000
# 2 56.5919 97.7812 53.2352 0.0000 0.0000 0.0000
# 3 45.4955 53.2352 78.8658 0.0000 0.0000 0.0000
# 4 0.0000 0.0000 0.0000 1.9824 0.0000 0.0000
# 5 0.0000 0.0000 0.0000 0.0000 17.2122 0.0000
# 6 0.0000 0.0000 0.0000 0.0000 0.0000 28.0640
#
#
#
# Elastic Compliance Matrix: (Units=1/GPa)
#
#
# Indices 1 2 3 4 5 6 
#
# 1 0.022446 -0.009393 -0.006608 0.000000 0.000000 0.000000
# 2 -0.009393 0.020100 -0.008149 0.000000 0.000000 0.000000
# 3 -0.006608 -0.008149 0.021992 0.000000 0.000000 0.000000
# 4 0.000000 0.000000 0.000000 0.504445 0.000000 0.000000
# 5 0.000000 0.000000 0.000000 0.000000 0.058098 0.000000
# 6 0.000000 0.000000 0.000000 0.000000 0.000000 0.035633
#
#
# Mechanical properties :
#
#
# Convention : Reuss Voigt Hill
#
# Bulk Modulus (GPa) = 61.58414 63.21336 62.39875
# Shear Modulus (GPa) = 6.97908 16.31522 11.64715
#
# Velocity S-wave (km/s) = 2.05123 3.13626 2.64988
# Velocity P-wave (km/s) = 6.53743 7.15716 6.85430
#
# Compressibility (1/GPa) = 0.01623795
#
# Stress axis : x y z
#
# Youngs Moduli (GPa) = 44.55192 49.75157 45.47055
#
# Poissons Ratio (x) = 0.46733 0.30046
# Poissons Ratio (y) = 0.41848 0.37054
# Poissons Ratio (z) = 0.29439 0.40542
#
# Static dielectric constant tensor:
#      x y z
#    x 3.090750 0.000000 0.000000 
#    y 0.000000 3.112570 0.000000 
#    z 0.000000 0.000000 3.350380 
# 
# 
# High freq. dielectric constant tensor:
#      x y z
#    x 1.632120 0.000000 0.000000 
#    y 0.000000 1.623640 0.000000 
#    z 0.000000 0.000000 1.627850 
# 
# From -- ./inp_files/59926.got.cif
#   From: 2010.03.12/outbox.cif.g09.slc.cpg/sg63_30_cif.got.tgz:59926.got - 2010.04.10 19:34:48.
