data_PCOD8260909
_publ_section_title
;
Structure prediction by ZEFSAII (Michael W. Deem and Ramdas Pophale) SiO2 
 PCOD8260909
Probable space group: C M C M
;
_chemical_formula_sum "Si O2"
_cell_formula_units_Z 80
_cell_length_a 22.758299
_cell_length_b 24.575815
_cell_length_c 10.104941
_cell_angle_alpha 90.000000
_cell_angle_beta 90.000000
_cell_angle_gamma 90.000000
_cell_volume 5651.731354
_symmetry_space_group_name_H-M "C M C M"
_symmetry_group_IT_number 63
_symmetry_cell_setting 'orthorhombic'
loop_
_space_group_symop_operation_xyz
x,y,z
-x,-y,1/2+z
x,-y,-z
-x,y,1/2-z
-x,-y,-z
x,y,1/2-z
-x,y,z
x,-y,1/2+z
1/2+x,1/2+y,z
1/2-x,1/2-y,1/2+z
1/2+x,1/2-y,-z
1/2-x,1/2+y,1/2-z
1/2-x,1/2-y,-z
1/2+x,1/2+y,1/2-z
1/2-x,1/2+y,z
1/2+x,1/2-y,1/2+z
loop_
_atom_site_type_symbol
_atom_site_label
_atom_site_fract_x
_atom_site_fract_y
_atom_site_fract_z
Si Si1 0.883869 0.877647 0.012957
Si Si2 0.067011 0.055651 0.750000
Si Si3 0.931576 0.073060 0.250000
Si Si4 0.733578 0.672410 0.600283
Si Si5 0.678644 0.791368 0.897662
Si Si6 0.065790 0.767207 0.096534
O O1 0.902996 0.921172 0.120445
O O2 0.814919 0.866438 0.034494
O O3 0.920867 0.821958 0.016872
O O4 0.895864 0.903845 0.872661
O O5 0.000000 0.074859 0.750000
O O6 0.072901 0.991373 0.750000
O O7 0.000000 0.091295 0.250000
O O8 0.749074 0.653077 0.750000
O O9 0.710186 0.733397 0.605666
O O10 0.791236 0.669511 0.506328
O O11 0.682496 0.817536 0.750000
O O12 0.610652 0.781526 0.940334
O O13 0.074395 0.782767 0.250000
O O14 0.000000 0.746860 0.064793
#
# Coordination Sequence:
#
# PCOD8260909 Si02
#       6
#    16   8   8  16  16  16
#     4  11  19  31  45  60  76 104 140 174 205 243
#     4  11  20  34  48  55  74 106 137 172 213 253
#     4  11  24  32  40  61  82 100 131 178 223 245
#     4   9  16  28  42  58  76 100 133 165 199 238
#     4   8  15  25  40  60  79 101 128 164 201 229
#     4   9  15  26  44  62  81 108 140 166 194 239
#
# _framework density 14.154954
#
# number of rings (size 3 to 8) (size 9 to 14) (size 15 to 20)
#    0.000    2.400    2.000    3.600    1.400    1.600 
#    5.400    0.000    0.000    0.000    0.000    0.000 
#    0.000    0.000    0.000    0.000    0.000    6.000 
#
# Total GULP energy -495856.961730 kJ/mol
# GULP energy per Si atom -12396.424043 kJ/mol
# Density = 1.412274 g / cm^3
# Si number density = 14.154954 Si / 1000 Ang^3
#
#
#
# Elastic Constant Matrix: (Units=GPa)
#
#
# Indices 1 2 3 4 5 6 
#
# 1 109.2642 36.2960 55.5263 0.0000 0.0000 0.0000
# 2 36.2960 33.7336 33.9957 0.0000 0.0000 0.0000
# 3 55.5263 33.9957 115.3825 0.0000 0.0000 0.0000
# 4 0.0000 0.0000 0.0000 53.4078 0.0000 0.0000
# 5 0.0000 0.0000 0.0000 0.0000 23.7272 0.0000
# 6 0.0000 0.0000 0.0000 0.0000 0.0000 21.0266
#
#
#
# Elastic Compliance Matrix: (Units=1/GPa)
#
#
# Indices 1 2 3 4 5 6 
#
# 1 0.015201 -0.012777 -0.003551 0.000000 0.000000 0.000000
# 2 -0.012777 0.052904 -0.009438 0.000000 0.000000 0.000000
# 3 -0.003551 -0.009438 0.013156 0.000000 0.000000 0.000000
# 4 0.000000 0.000000 0.000000 0.018724 0.000000 0.000000
# 5 0.000000 0.000000 0.000000 0.000000 0.042146 0.000000
# 6 0.000000 0.000000 0.000000 0.000000 0.000000 0.047559
#
#
# Mechanical properties :
#
#
# Convention : Reuss Voigt Hill
#
# Bulk Modulus (GPa) = 33.63792 56.66849 45.15321
# Shear Modulus (GPa) = 19.90989 28.46980 24.18984
#
# Velocity S-wave (km/s) = 3.75449 4.48961 4.13841
# Velocity P-wave (km/s) = 6.52768 8.18516 7.40295
#
# Compressibility (1/GPa) = 0.02972835
#
# Stress axis : x y z
#
# Youngs Moduli (GPa) = 65.78526 18.90228 76.00900
#
# Poissons Ratio (x) = 0.24152 0.26988
# Poissons Ratio (y) = 0.84057 0.71739
# Poissons Ratio (z) = 0.23358 0.17840
#
# Static dielectric constant tensor:
#      x y z
#    x 2.993530 0.000000 0.000000 
#    y 0.000000 2.425300 0.000000 
#    z 0.000000 0.000000 2.897200 
# 
# 
# High freq. dielectric constant tensor:
#      x y z
#    x 1.536610 0.000000 0.000000 
#    y 0.000000 1.487030 0.000000 
#    z 0.000000 0.000000 1.548250 
# 
# From -- ./inp_files/10365.got.cif
#   From: 2010.03.12/outbox.cif.g09.slc.cpg/sg63_6_cif.got.tgz:10365.got - 2010.04.10 19:34:48.
