data_PCOD8260137
_publ_section_title
;
Structure prediction by ZEFSAII (Michael W. Deem and Ramdas Pophale) SiO2 
 PCOD8260137
Probable space group: C M C M
;
_chemical_formula_sum "Si O2"
_cell_formula_units_Z 96
_cell_length_a 23.014035
_cell_length_b 25.543356
_cell_length_c 8.919909
_cell_angle_alpha 90.000000
_cell_angle_beta 90.000000
_cell_angle_gamma 90.000000
_cell_volume 5243.619251
_symmetry_space_group_name_H-M "C M C M"
_symmetry_group_IT_number 63
_symmetry_cell_setting 'orthorhombic'
loop_
_space_group_symop_operation_xyz
x,y,z
-x,-y,1/2+z
x,-y,-z
-x,y,1/2-z
-x,-y,-z
x,y,1/2-z
-x,y,z
x,-y,1/2+z
1/2+x,1/2+y,z
1/2-x,1/2-y,1/2+z
1/2+x,1/2-y,-z
1/2-x,1/2+y,1/2-z
1/2-x,1/2-y,-z
1/2+x,1/2+y,1/2-z
1/2-x,1/2+y,z
1/2+x,1/2-y,1/2+z
loop_
_atom_site_type_symbol
_atom_site_label
_atom_site_fract_x
_atom_site_fract_y
_atom_site_fract_z
Si Si1 0.879436 0.659622 0.576364
Si Si2 0.749946 0.806344 0.424150
Si Si3 0.565981 0.947869 0.425638
Si Si4 0.567631 0.256550 0.422758
Si Si5 0.066210 0.946410 0.926759
Si Si6 0.360749 0.346750 0.572493
O O1 0.896027 0.669219 0.750000
O O2 0.811381 0.666370 0.548337
O O3 0.895438 0.601309 0.524068
O O4 0.916841 0.698389 0.474614
O O5 0.763902 0.798644 0.250000
O O6 0.750000 0.750000 0.500000
O O7 0.797704 0.844452 0.496823
O O8 0.568628 0.956094 0.250000
O O9 0.500000 0.938420 0.480654
O O10 0.592363 0.000000 0.500000
O O11 0.585756 0.263964 0.250000
O O12 0.500000 0.266982 0.446683
O O13 0.602445 0.296507 0.525773
O O14 0.069979 0.952734 0.750000
O O15 0.106667 0.899081 0.983284
O O16 0.000000 0.934740 0.977901
O O17 0.089113 0.000000 0.000000
O O18 0.353365 0.345922 0.750000
#
# Coordination Sequence:
#
# PCOD8260137 Si02
#       6
#    16  16  16  16  16  16
#     4  10  21  37  57  79 107 146 186 225 275 333
#     4  11  22  37  57  81 110 148 191 232 278 330
#     4   9  18  34  56  81 108 140 179 222 272 329
#     4  11  23  35  52  82 114 142 178 228 281 332
#     4   9  19  36  58  83 110 143 184 229 280 337
#     4  11  22  37  57  81 111 149 188 227 278 336
#
# _framework density 18.307966
#
# number of rings (size 3 to 8) (size 9 to 14) (size 15 to 20)
#    0.000    1.833    1.667    2.500    0.000    5.333 
#    0.000    4.167    0.000    4.000    0.000    0.000 
#    0.000    0.000    0.000    0.000    0.000    0.000 
#
# Total GULP energy -595396.963640 kJ/mol
# GULP energy per Si atom -12404.103409 kJ/mol
# Density = 1.826630 g / cm^3
# Si number density = 18.307966 Si / 1000 Ang^3
#
#
#
# Elastic Constant Matrix: (Units=GPa)
#
#
# Indices 1 2 3 4 5 6 
#
# 1 78.6155 48.1717 32.2204 0.0000 0.0000 0.0000
# 2 48.1717 138.6630 35.6371 0.0000 0.0000 0.0000
# 3 32.2204 35.6371 59.3001 0.0000 0.0000 0.0000
# 4 0.0000 0.0000 0.0000 33.8870 0.0000 0.0000
# 5 0.0000 0.0000 0.0000 0.0000 27.4784 0.0000
# 6 0.0000 0.0000 0.0000 0.0000 0.0000 26.6735
#
#
#
# Elastic Compliance Matrix: (Units=1/GPa)
#
#
# Indices 1 2 3 4 5 6 
#
# 1 0.018508 -0.004548 -0.007323 0.000000 0.000000 0.000000
# 2 -0.004548 0.009646 -0.003326 0.000000 0.000000 0.000000
# 3 -0.007323 -0.003326 0.022841 0.000000 0.000000 0.000000
# 4 0.000000 0.000000 0.000000 0.029510 0.000000 0.000000
# 5 0.000000 0.000000 0.000000 0.000000 0.036392 0.000000
# 6 0.000000 0.000000 0.000000 0.000000 0.000000 0.037490
#
#
# Mechanical properties :
#
#
# Convention : Reuss Voigt Hill
#
# Bulk Modulus (GPa) = 48.53990 56.51523 52.52756
# Shear Modulus (GPa) = 26.08921 28.31107 27.20014
#
# Velocity S-wave (km/s) = 3.77904 3.93667 3.85866
# Velocity P-wave (km/s) = 6.75367 7.18327 6.97178
#
# Compressibility (1/GPa) = 0.02060161
#
# Stress axis : x y z
#
# Youngs Moduli (GPa) = 54.03014 103.66522 43.78009
#
# Poissons Ratio (x) = 0.47143 0.32062
# Poissons Ratio (y) = 0.24571 0.14562
# Poissons Ratio (z) = 0.39568 0.34481
#
# Static dielectric constant tensor:
#      x y z
#    x 3.671890 0.000000 0.000000 
#    y 0.000000 3.466360 0.000000 
#    z 0.000000 0.000000 3.400450 
# 
# 
# High freq. dielectric constant tensor:
#      x y z
#    x 1.709560 0.000000 0.000000 
#    y 0.000000 1.711500 0.000000 
#    z 0.000000 0.000000 1.713370 
# 
# From -- ./inp_files/10451.got.cif
#   From: 2010.03.12/outbox.cif.g09.slc.cpg/sg63_6_cif.got.tgz:10451.got - 2010.04.10 19:34:48.
