data_PCOD8260565
_publ_section_title
;
Structure prediction by ZEFSAII (Michael W. Deem and Ramdas Pophale) SiO2 
 PCOD8260565
Probable space group: C M C M
;
_chemical_formula_sum "Si O2"
_cell_formula_units_Z 64
_cell_length_a 13.186890
_cell_length_b 21.920270
_cell_length_c 10.541324
_cell_angle_alpha 90.000000
_cell_angle_beta 90.000000
_cell_angle_gamma 90.000000
_cell_volume 3047.077110
_symmetry_space_group_name_H-M "C M C M"
_symmetry_group_IT_number 63
_symmetry_cell_setting 'orthorhombic'
loop_
_space_group_symop_operation_xyz
x,y,z
-x,-y,1/2+z
x,-y,-z
-x,y,1/2-z
-x,-y,-z
x,y,1/2-z
-x,y,z
x,-y,1/2+z
1/2+x,1/2+y,z
1/2-x,1/2-y,1/2+z
1/2+x,1/2-y,-z
1/2-x,1/2+y,1/2-z
1/2-x,1/2-y,-z
1/2+x,1/2+y,1/2-z
1/2-x,1/2+y,z
1/2+x,1/2-y,1/2+z
loop_
_atom_site_type_symbol
_atom_site_label
_atom_site_fract_x
_atom_site_fract_y
_atom_site_fract_z
Si Si1 0.384209 0.953079 0.608877
Si Si2 0.253766 0.351757 0.514806
Si Si3 0.611520 0.248557 0.605442
Si Si4 0.383271 0.549476 0.893300
O O1 0.374696 0.982777 0.750000
O O2 0.500000 0.932953 0.582394
O O3 0.312292 0.894377 0.606590
O O4 0.348556 0.000000 0.500000
O O5 0.336757 0.314764 0.594596
O O6 0.177952 0.304657 0.452150
O O7 0.313087 0.391227 0.409461
O O8 0.597925 0.231831 0.750000
O O9 0.500000 0.250425 0.540197
O O10 0.366040 0.523342 0.750000
O O11 0.500000 0.568738 0.911927
O O12 0.352524 0.500000 0.000000
#
# Coordination Sequence:
#
# PCOD8260565 Si02
#       4
#    16  16  16  16
#     4  10  22  39  59  86 119 153 190 234 285 341
#     4  11  21  36  60  84 111 151 194 234 282 339
#     4  10  22  38  56  82 114 148 189 237 286 335
#     4  10  22  39  59  86 119 153 190 234 285 341
#
# _framework density 21.003734999999999
#
# number of rings (size 3 to 8) (size 9 to 14) (size 15 to 20)
#    0.000    1.750    0.000    3.750    0.000    6.000 
#    0.000    5.000    0.000   12.000    0.000    0.000 
#    0.000    0.000    0.000    0.000    0.000    0.000 
#
# Total GULP energy -396718.925673 kJ/mol
# GULP energy per Si atom -12397.466427 kJ/mol
# Density = 2.095593 g / cm^3
# Si number density = 21.003735 Si / 1000 Ang^3
#
#
#
# Elastic Constant Matrix: (Units=GPa)
#
#
# Indices 1 2 3 4 5 6 
#
# 1 137.3571 59.4710 31.3916 0.0000 0.0000 0.0000
# 2 59.4710 105.1447 45.8380 0.0000 0.0000 0.0000
# 3 31.3916 45.8380 127.0661 0.0000 0.0000 0.0000
# 4 0.0000 0.0000 0.0000 24.6187 0.0000 0.0000
# 5 0.0000 0.0000 0.0000 0.0000 13.2818 0.0000
# 6 0.0000 0.0000 0.0000 0.0000 0.0000 30.6517
#
#
#
# Elastic Compliance Matrix: (Units=1/GPa)
#
#
# Indices 1 2 3 4 5 6 
#
# 1 0.009667 -0.005253 -0.000493 0.000000 0.000000 0.000000
# 2 -0.005253 0.014140 -0.003803 0.000000 0.000000 0.000000
# 3 -0.000493 -0.003803 0.009364 0.000000 0.000000 0.000000
# 4 0.000000 0.000000 0.000000 0.040620 0.000000 0.000000
# 5 0.000000 0.000000 0.000000 0.000000 0.075291 0.000000
# 6 0.000000 0.000000 0.000000 0.000000 0.000000 0.032625
#
#
# Mechanical properties :
#
#
# Convention : Reuss Voigt Hill
#
# Bulk Modulus (GPa) = 71.06222 71.44103 71.25162
# Shear Modulus (GPa) = 24.33143 29.23493 26.78318
#
# Velocity S-wave (km/s) = 3.40727 3.73485 3.57482
# Velocity P-wave (km/s) = 7.02751 7.25852 7.14395
#
# Compressibility (1/GPa) = 0.01407218
#
# Stress axis : x y z
#
# Youngs Moduli (GPa) = 103.44073 70.72268 106.79500
#
# Poissons Ratio (x) = 0.37150 0.05269
# Poissons Ratio (y) = 0.54336 0.40615
# Poissons Ratio (z) = 0.05104 0.26896
#
# Static dielectric constant tensor:
#      x y z
#    x 4.322250 0.000000 0.000000 
#    y 0.000000 3.718260 0.000000 
#    z 0.000000 0.000000 3.729550 
# 
# 
# High freq. dielectric constant tensor:
#      x y z
#    x 1.856480 0.000000 0.000000 
#    y 0.000000 1.809690 0.000000 
#    z 0.000000 0.000000 1.814970 
# 
# From -- ./inp_files/4269.got.cif
#   From: 2010.03.12/outbox.cif.g09.slc.cpg/sg63_3_cif.got.tgz:4269.got - 2010.04.10 19:34:48.
