data_PCOD8260545
_publ_section_title
;
Structure prediction by ZEFSAII (Michael W. Deem and Ramdas Pophale) SiO2 
 PCOD8260545
Probable space group: C M C M
;
_chemical_formula_sum "Si O2"
_cell_formula_units_Z 88
_cell_length_a 17.907386
_cell_length_b 29.245117
_cell_length_c 8.805811
_cell_angle_alpha 90.000000
_cell_angle_beta 90.000000
_cell_angle_gamma 90.000000
_cell_volume 4611.634910
_symmetry_space_group_name_H-M "C M C M"
_symmetry_group_IT_number 63
_symmetry_cell_setting 'orthorhombic'
loop_
_space_group_symop_operation_xyz
x,y,z
-x,-y,1/2+z
x,-y,-z
-x,y,1/2-z
-x,-y,-z
x,y,1/2-z
-x,y,z
x,-y,1/2+z
1/2+x,1/2+y,z
1/2-x,1/2-y,1/2+z
1/2+x,1/2-y,-z
1/2-x,1/2+y,1/2-z
1/2-x,1/2-y,-z
1/2+x,1/2+y,1/2-z
1/2-x,1/2+y,z
1/2+x,1/2-y,1/2+z
loop_
_atom_site_type_symbol
_atom_site_label
_atom_site_fract_x
_atom_site_fract_y
_atom_site_fract_z
Si Si1 0.216155 0.450991 0.927702
Si Si2 0.135365 0.102915 0.427738
Si Si3 0.588220 0.209308 0.084518
Si Si4 0.416350 0.889090 0.567967
Si Si5 0.000000 0.950375 0.429242
Si Si6 0.413601 0.691946 0.930480
O O1 0.208643 0.458335 0.750000
O O2 0.285229 0.418734 0.968828
O O3 0.141099 0.427114 0.992989
O O4 0.228068 0.500000 0.000000
O O5 0.117410 0.099628 0.250000
O O6 0.137255 0.155468 0.481559
O O7 0.073310 0.076149 0.520759
O O8 0.626778 0.208683 0.250000
O O9 0.500000 0.210844 0.106911
O O10 0.607878 0.161220 0.000515
O O11 0.611077 0.257535 0.005492
O O12 0.414143 0.885677 0.750000
O O13 0.500000 0.902345 0.513259
O O14 0.000000 0.954959 0.250000
O O15 0.000000 0.000000 0.500000
O O16 0.400710 0.688914 0.750000
O O17 0.500000 0.681684 0.969076
#
# Coordination Sequence:
#
# PCOD8260545 Si02
#       6
#    16  16  16  16   8  16
#     4  10  22  37  53  75 103 136 173 216 264 312
#     4  11  22  35  50  73 106 141 175 212 261 311
#     4   7  11  22  45  76 104 130 167 210 248 293
#     4   8  14  29  54  80 104 133 172 214 253 304
#     4  12  24  38  56  76  98 130 178 226 263 308
#     4   9  16  28  49  77 104 134 175 216 250 294
#
# _framework density 19.082170000000001
#
# number of rings (size 3 to 8) (size 9 to 14) (size 15 to 20)
#    0.000    2.727    0.909    4.091    0.000    3.273 
#    0.000    0.909    0.000    1.091    0.000    2.545 
#    0.000    0.000    0.000    0.000    0.000    0.000 
#
# Total GULP energy -545160.449798 kJ/mol
# GULP energy per Si atom -12390.010223 kJ/mol
# Density = 1.903874 g / cm^3
# Si number density = 19.082170 Si / 1000 Ang^3
#
#
#
# Elastic Constant Matrix: (Units=GPa)
#
#
# Indices 1 2 3 4 5 6 
#
# 1 89.8995 43.8729 33.4697 0.0000 0.0000 0.0000
# 2 43.8729 107.8080 32.1763 0.0000 0.0000 0.0000
# 3 33.4697 32.1763 46.9964 0.0000 0.0000 0.0000
# 4 0.0000 0.0000 0.0000 9.5983 0.0000 0.0000
# 5 0.0000 0.0000 0.0000 0.0000 4.8809 0.0000
# 6 0.0000 0.0000 0.0000 0.0000 0.0000 43.4403
#
#
#
# Elastic Compliance Matrix: (Units=1/GPa)
#
#
# Indices 1 2 3 4 5 6 
#
# 1 0.016409 -0.004009 -0.008941 0.000000 0.000000 0.000000
# 2 -0.004009 0.012637 -0.005797 0.000000 0.000000 0.000000
# 3 -0.008941 -0.005797 0.031615 0.000000 0.000000 0.000000
# 4 0.000000 0.000000 0.000000 0.104185 0.000000 0.000000
# 5 0.000000 0.000000 0.000000 0.000000 0.204880 0.000000
# 6 0.000000 0.000000 0.000000 0.000000 0.000000 0.023020
#
#
# Mechanical properties :
#
#
# Convention : Reuss Voigt Hill
#
# Bulk Modulus (GPa) = 43.16574 51.52686 47.34630
# Shear Modulus (GPa) = 11.41648 20.59624 16.00636
#
# Velocity S-wave (km/s) = 2.44863 3.28890 2.89937
# Velocity P-wave (km/s) = 5.53755 6.44079 6.00617
#
# Compressibility (1/GPa) = 0.02316652
#
# Stress axis : x y z
#
# Youngs Moduli (GPa) = 60.94271 79.12977 31.63062
#
# Poissons Ratio (x) = 0.31724 0.28281
# Poissons Ratio (y) = 0.24432 0.18337
# Poissons Ratio (z) = 0.54490 0.45873
#
# Static dielectric constant tensor:
#      x y z
#    x 3.382210 0.000000 0.000000 
#    y 0.000000 3.956300 0.000000 
#    z 0.000000 0.000000 3.102850 
# 
# 
# High freq. dielectric constant tensor:
#      x y z
#    x 1.717920 0.000000 0.000000 
#    y 0.000000 1.767980 0.000000 
#    z 0.000000 0.000000 1.696190 
# 
# From -- ./inp_files/6905.got.cif
#   From: 2010.03.12/outbox.cif.g09.slc.cpg/sg63_4_cif.got.tgz:6905.got - 2010.04.10 19:34:48.
