data_PCOD8260116
_publ_section_title
;
Structure prediction by ZEFSAII (Michael W. Deem and Ramdas Pophale) SiO2 
 PCOD8260116
Probable space group: C M C M
;
_chemical_formula_sum "Si O2"
_cell_formula_units_Z 80
_cell_length_a 29.657981
_cell_length_b 14.510079
_cell_length_c 9.859021
_cell_angle_alpha 90.000000
_cell_angle_beta 90.000000
_cell_angle_gamma 90.000000
_cell_volume 4242.727620
_symmetry_space_group_name_H-M "C M C M"
_symmetry_group_IT_number 63
_symmetry_cell_setting 'orthorhombic'
loop_
_space_group_symop_operation_xyz
x,y,z
-x,-y,1/2+z
x,-y,-z
-x,y,1/2-z
-x,-y,-z
x,y,1/2-z
-x,y,z
x,-y,1/2+z
1/2+x,1/2+y,z
1/2-x,1/2-y,1/2+z
1/2+x,1/2-y,-z
1/2-x,1/2+y,1/2-z
1/2-x,1/2-y,-z
1/2+x,1/2+y,1/2-z
1/2-x,1/2+y,z
1/2+x,1/2-y,1/2+z
loop_
_atom_site_type_symbol
_atom_site_label
_atom_site_fract_x
_atom_site_fract_y
_atom_site_fract_z
Si Si1 0.435196 0.424106 0.599143
Si Si2 0.169426 0.928835 0.896350
Si Si3 0.868463 0.591204 0.589337
Si Si4 0.550409 0.780574 0.409371
Si Si5 0.707118 0.763336 0.406221
O O1 0.457884 0.500000 0.500000
O O2 0.457119 0.429781 0.750000
O O3 0.383076 0.448105 0.612119
O O4 0.443252 0.323044 0.533317
O O5 0.192159 0.947388 0.750000
O O6 0.175375 0.823334 0.938610
O O7 0.193021 0.000000 0.000000
O O8 0.866305 0.500000 0.500000
O O9 0.872688 0.568582 0.750000
O O10 0.911796 0.649143 0.535160
O O11 0.822349 0.646712 0.559350
O O12 0.558075 0.773448 0.250000
O O13 0.500000 0.816812 0.446219
O O14 0.722881 0.765784 0.250000
O O15 0.750000 0.750000 0.500000
#
# Coordination Sequence:
#
# PCOD8260116 Si02
#       5
#    16  16  16  16  16
#     4   9  16  29  50  76 105 138 173 210 257 313
#     4   9  17  31  51  74 101 133 167 206 253 307
#     4  10  21  39  59  80 109 144 183 229 275 320
#     4   9  17  32  56  81 107 145 187 222 266 327
#     4  10  21  37  56  78 107 140 176 217 265 322
#
# _framework density 18.855795000000001
#
# number of rings (size 3 to 8) (size 9 to 14) (size 15 to 20)
#    0.000    2.600    2.000    0.000    0.000    3.200 
#    0.000    5.000    0.000    1.200    0.000    0.000 
#    0.000    0.000    0.000    0.000    0.000    0.000 
#
# Total GULP energy -495676.887599 kJ/mol
# GULP energy per Si atom -12391.922190 kJ/mol
# Density = 1.881288 g / cm^3
# Si number density = 18.855795 Si / 1000 Ang^3
#
#
#
# Elastic Constant Matrix: (Units=GPa)
#
#
# Indices 1 2 3 4 5 6 
#
# 1 95.3057 50.8907 45.4922 0.0000 0.0000 0.0000
# 2 50.8907 155.9678 74.1271 0.0000 0.0000 0.0000
# 3 45.4922 74.1271 75.9756 0.0000 0.0000 0.0000
# 4 0.0000 0.0000 0.0000 38.1540 0.0000 0.0000
# 5 0.0000 0.0000 0.0000 0.0000 16.1908 0.0000
# 6 0.0000 0.0000 0.0000 0.0000 0.0000 3.9487
#
#
#
# Elastic Compliance Matrix: (Units=1/GPa)
#
#
# Indices 1 2 3 4 5 6 
#
# 1 0.014802 -0.001151 -0.007740 0.000000 0.000000 0.000000
# 2 -0.001151 0.012045 -0.011063 0.000000 0.000000 0.000000
# 3 -0.007740 -0.011063 0.028590 0.000000 0.000000 0.000000
# 4 0.000000 0.000000 0.000000 0.026210 0.000000 0.000000
# 5 0.000000 0.000000 0.000000 0.000000 0.061764 0.000000
# 6 0.000000 0.000000 0.000000 0.000000 0.000000 0.253245
#
#
# Mechanical properties :
#
#
# Convention : Reuss Voigt Hill
#
# Bulk Modulus (GPa) = 64.39324 74.25211 69.32267
# Shear Modulus (GPa) = 11.31893 22.10797 16.71345
#
# Velocity S-wave (km/s) = 2.45274 3.42786 2.98045
# Velocity P-wave (km/s) = 6.49967 7.42505 6.97772
#
# Compressibility (1/GPa) = 0.01552958
#
# Stress axis : x y z
#
# Youngs Moduli (GPa) = 67.56022 83.02250 34.97749
#
# Poissons Ratio (x) = 0.09557 0.27071
# Poissons Ratio (y) = 0.07777 0.38694
# Poissons Ratio (z) = 0.52289 0.91844
#
# Static dielectric constant tensor:
#      x y z
#    x 3.432660 0.000000 0.000000 
#    y 0.000000 3.578350 0.000000 
#    z 0.000000 0.000000 3.532800 
# 
# 
# High freq. dielectric constant tensor:
#      x y z
#    x 1.730440 0.000000 0.000000 
#    y 0.000000 1.733300 0.000000 
#    z 0.000000 0.000000 1.706010 
# 
# From -- ./inp_files/25637.got.cif
#   From: 2010.03.12/outbox.cif.g09.slc.cpg/sg63_13_cif.got.tgz:25637.got - 2010.04.10 19:34:48.
