data_PCOD8260797
_publ_section_title
;
Structure prediction by ZEFSAII (Michael W. Deem and Ramdas Pophale) SiO2 
 PCOD8260797
Probable space group: C M C M
;
_chemical_formula_sum "Si O2"
_cell_formula_units_Z 88
_cell_length_a 21.098840
_cell_length_b 22.043505
_cell_length_c 9.552654
_cell_angle_alpha 90.000000
_cell_angle_beta 90.000000
_cell_angle_gamma 90.000000
_cell_volume 4442.866632
_symmetry_space_group_name_H-M "C M C M"
_symmetry_group_IT_number 63
_symmetry_cell_setting 'orthorhombic'
loop_
_space_group_symop_operation_xyz
x,y,z
-x,-y,1/2+z
x,-y,-z
-x,y,1/2-z
-x,-y,-z
x,y,1/2-z
-x,y,z
x,-y,1/2+z
1/2+x,1/2+y,z
1/2-x,1/2-y,1/2+z
1/2+x,1/2-y,-z
1/2-x,1/2+y,1/2-z
1/2-x,1/2-y,-z
1/2+x,1/2+y,1/2-z
1/2-x,1/2+y,z
1/2+x,1/2-y,1/2+z
loop_
_atom_site_type_symbol
_atom_site_label
_atom_site_fract_x
_atom_site_fract_y
_atom_site_fract_z
Si Si1 0.133241 0.115341 0.911886
Si Si2 0.740190 0.558359 0.418377
Si Si3 0.574336 0.049805 0.250000
Si Si4 0.312758 0.255581 0.408777
Si Si5 0.359929 0.130121 0.475237
Si Si6 0.500000 0.439740 0.409669
Si Si7 0.424131 0.909462 0.250000
O O1 0.151246 0.100174 0.750000
O O2 0.147316 0.184990 0.948810
O O3 0.060010 0.102546 0.942337
O O4 0.171287 0.072461 0.018964
O O5 0.767260 0.500000 0.500000
O O6 0.738299 0.549228 0.250000
O O7 0.785923 0.613093 0.463662
O O8 0.500000 0.054250 0.250000
O O9 0.600159 0.083286 0.115494
O O10 0.596146 0.979970 0.250000
O O11 0.288861 0.258569 0.250000
O O12 0.250000 0.250000 0.500000
O O13 0.362101 0.199999 0.428044
O O14 0.391472 0.125858 0.624754
O O15 0.500000 0.500000 0.500000
O O16 0.500000 0.461750 0.250000
O O17 0.500000 0.901864 0.250000
#
# Coordination Sequence:
#
# PCOD8260797 Si02
#       7
#    16  16   8  16  16   8   8
#     4  10  23  42  66  95 127 172 215 267 331 387
#     4  12  24  38  62  97 130 162 215 273 329 393
#     4  11  22  44  67  94 130 171 218 269 323 391
#     4  11  23  42  65  93 131 171 215 266 324 387
#     4  12  24  41  64  96 128 170 221 266 326 386
#     4  10  22  44  68  96 130 168 215 265 326 392
#     4  11  26  44  65  94 134 175 216 267 331 385
#
# _framework density 19.807032
#
# number of rings (size 3 to 8) (size 9 to 14) (size 15 to 20)
#    0.000    0.909    3.636    3.273    3.818    3.636 
#    3.273    0.000    0.000    0.000    0.000    0.000 
#    0.000    0.000    0.000    0.000    0.000    0.000 
#
# Total GULP energy -545645.764982 kJ/mol
# GULP energy per Si atom -12401.040113 kJ/mol
# Density = 1.976195 g / cm^3
# Si number density = 19.807032 Si / 1000 Ang^3
#
#
#
# Elastic Constant Matrix: (Units=GPa)
#
#
# Indices 1 2 3 4 5 6 
#
# 1 110.0724 43.8305 50.9915 0.0000 0.0000 0.0000
# 2 43.8305 118.3990 40.3645 0.0000 0.0000 0.0000
# 3 50.9915 40.3645 126.6292 0.0000 0.0000 0.0000
# 4 0.0000 0.0000 0.0000 32.1057 0.0000 0.0000
# 5 0.0000 0.0000 0.0000 0.0000 42.6416 0.0000
# 6 0.0000 0.0000 0.0000 0.0000 0.0000 30.7883
#
#
#
# Elastic Compliance Matrix: (Units=1/GPa)
#
#
# Indices 1 2 3 4 5 6 
#
# 1 0.012146 -0.003174 -0.003879 0.000000 0.000000 0.000000
# 2 -0.003174 0.010305 -0.002007 0.000000 0.000000 0.000000
# 3 -0.003879 -0.002007 0.010099 0.000000 0.000000 0.000000
# 4 0.000000 0.000000 0.000000 0.031147 0.000000 0.000000
# 5 0.000000 0.000000 0.000000 0.000000 0.023451 0.000000
# 6 0.000000 0.000000 0.000000 0.000000 0.000000 0.032480
#
#
# Mechanical properties :
#
#
# Convention : Reuss Voigt Hill
#
# Bulk Modulus (GPa) = 69.29979 69.49709 69.39844
# Shear Modulus (GPa) = 35.07349 35.76805 35.42077
#
# Velocity S-wave (km/s) = 4.21260 4.25411 4.23341
# Velocity P-wave (km/s) = 7.66321 7.70021 7.68173
#
# Compressibility (1/GPa) = 0.01443006
#
# Stress axis : x y z
#
# Youngs Moduli (GPa) = 82.33299 97.03928 99.02090
#
# Poissons Ratio (x) = 0.30798 0.38413
# Poissons Ratio (y) = 0.26131 0.19872
# Poissons Ratio (z) = 0.31939 0.19474
#
# Static dielectric constant tensor:
#      x y z
#    x 3.630810 0.000000 0.000000 
#    y 0.000000 3.763430 0.000000 
#    z 0.000000 0.000000 3.721160 
# 
# 
# High freq. dielectric constant tensor:
#      x y z
#    x 1.771740 0.000000 0.000000 
#    y 0.000000 1.782110 0.000000 
#    z 0.000000 0.000000 1.781530 
# 
# From -- ./inp_files/8315.got.cif
#   From: 2010.03.12/outbox.cif.g09.slc.cpg/sg63_5_cif.got.tgz:8315.got - 2010.04.10 19:34:48.
