data_PCOD8260421
_publ_section_title
;
Structure prediction by ZEFSAII (Michael W. Deem and Ramdas Pophale) SiO2 
 PCOD8260421
Probable space group: C M C M
;
_chemical_formula_sum "Si O2"
_cell_formula_units_Z 104
_cell_length_a 19.300258
_cell_length_b 26.442724
_cell_length_c 10.238927
_cell_angle_alpha 90.000000
_cell_angle_beta 90.000000
_cell_angle_gamma 90.000000
_cell_volume 5225.450682
_symmetry_space_group_name_H-M "C M C M"
_symmetry_group_IT_number 63
_symmetry_cell_setting 'orthorhombic'
loop_
_space_group_symop_operation_xyz
x,y,z
-x,-y,1/2+z
x,-y,-z
-x,y,1/2-z
-x,-y,-z
x,y,1/2-z
-x,y,z
x,-y,1/2+z
1/2+x,1/2+y,z
1/2-x,1/2-y,1/2+z
1/2+x,1/2-y,-z
1/2-x,1/2+y,1/2-z
1/2-x,1/2-y,-z
1/2+x,1/2+y,1/2-z
1/2-x,1/2+y,z
1/2+x,1/2-y,1/2+z
loop_
_atom_site_type_symbol
_atom_site_label
_atom_site_fract_x
_atom_site_fract_y
_atom_site_fract_z
Si Si1 0.919045 0.145632 0.250000
Si Si2 0.080537 0.827103 0.030870
Si Si3 0.081610 0.967117 0.750000
Si Si4 0.579907 0.214365 0.102313
Si Si5 0.300654 0.600550 0.897110
Si Si6 0.655360 0.500000 0.000000
Si Si7 0.080531 0.541679 0.898074
Si Si8 0.841780 0.645398 0.599076
O O1 0.897117 0.176717 0.378449
O O2 0.885687 0.089508 0.250000
O O3 0.000000 0.137364 0.250000
O O4 0.095830 0.773944 0.098503
O O5 0.125991 0.870746 0.096918
O O6 0.000000 0.842683 0.047140
O O7 0.106423 0.997834 0.625020
O O8 0.000000 0.965416 0.750000
O O9 0.595376 0.195366 0.250000
O O10 0.500000 0.204139 0.064813
O O11 0.628172 0.187337 0.997441
O O12 0.286459 0.582206 0.750000
O O13 0.298193 0.550579 0.987807
O O14 0.238881 0.638433 0.938288
O O15 0.094565 0.522751 0.750000
O O16 0.119896 0.593065 0.927750
O O17 0.000000 0.552639 0.921399
O O18 0.108006 0.500000 0.000000
O O19 0.851769 0.662707 0.750000
#
# Coordination Sequence:
#
# PCOD8260421 Si02
#       8
#     8  16   8  16  16   8  16  16
#     4   9  18  34  56  87 118 148 202 255 295 351
#     4  10  21  39  63  89 121 160 203 255 306 358
#     4  11  22  38  60  89 120 158 208 263 309 359
#     4  10  22  41  65  95 124 153 198 252 307 366
#     4  11  24  41  59  86 123 166 210 251 302 365
#     4  12  23  40  58  86 125 164 206 254 306 364
#     4   9  18  34  57  85 113 146 189 238 294 353
#     4  10  23  41  60  87 123 162 202 247 299 363
#
# _framework density 19.902591000000001
#
# number of rings (size 3 to 8) (size 9 to 14) (size 15 to 20)
#    0.000    1.846    2.308    1.154    2.154    3.692 
#    2.769    1.538    0.000    0.000    0.000    0.000 
#    0.000    0.000    0.000    0.000    0.000    0.000 
#
# Total GULP energy -644826.643011 kJ/mol
# GULP energy per Si atom -12400.512366 kJ/mol
# Density = 1.985729 g / cm^3
# Si number density = 19.902591 Si / 1000 Ang^3
#
#
#
# Elastic Constant Matrix: (Units=GPa)
#
#
# Indices 1 2 3 4 5 6 
#
# 1 85.4875 49.4265 38.7494 0.0000 0.0000 0.0000
# 2 49.4265 91.1917 42.2409 0.0000 0.0000 0.0000
# 3 38.7494 42.2409 109.1775 0.0000 0.0000 0.0000
# 4 0.0000 0.0000 0.0000 41.3049 0.0000 0.0000
# 5 0.0000 0.0000 0.0000 0.0000 20.4150 0.0000
# 6 0.0000 0.0000 0.0000 0.0000 0.0000 10.7407
#
#
#
# Elastic Compliance Matrix: (Units=1/GPa)
#
#
# Indices 1 2 3 4 5 6 
#
# 1 0.017891 -0.008231 -0.003165 0.000000 0.000000 0.000000
# 2 -0.008231 0.017147 -0.003713 0.000000 0.000000 0.000000
# 3 -0.003165 -0.003713 0.011719 0.000000 0.000000 0.000000
# 4 0.000000 0.000000 0.000000 0.024210 0.000000 0.000000
# 5 0.000000 0.000000 0.000000 0.000000 0.048984 0.000000
# 6 0.000000 0.000000 0.000000 0.000000 0.000000 0.093104
#
#
# Mechanical properties :
#
#
# Convention : Reuss Voigt Hill
#
# Bulk Modulus (GPa) = 60.46239 60.74334 60.60286
# Shear Modulus (GPa) = 20.09754 24.85478 22.47616
#
# Velocity S-wave (km/s) = 3.18118 3.53770 3.36416
# Velocity P-wave (km/s) = 6.62859 6.87559 6.75322
#
# Compressibility (1/GPa) = 0.01653921
#
# Stress axis : x y z
#
# Youngs Moduli (GPa) = 55.89291 58.31937 85.32875
#
# Poissons Ratio (x) = 0.48002 0.27010
# Poissons Ratio (y) = 0.46005 0.31681
# Poissons Ratio (z) = 0.17693 0.21653
#
# Static dielectric constant tensor:
#      x y z
#    x 3.589240 0.000000 0.000000 
#    y 0.000000 3.491690 0.000000 
#    z 0.000000 0.000000 3.754010 
# 
# 
# High freq. dielectric constant tensor:
#      x y z
#    x 1.764460 0.000000 0.000000 
#    y 0.000000 1.767950 0.000000 
#    z 0.000000 0.000000 1.786600 
# 
# From -- ./inp_files/8852.got.cif
#   From: 2010.03.12/outbox.cif.g09.slc.cpg/sg63_5_cif.got.tgz:8852.got - 2010.04.10 19:34:48.
