data_PCOD8260187
_publ_section_title
;
Structure prediction by ZEFSAII (Michael W. Deem and Ramdas Pophale) SiO2 
 PCOD8260187
Probable space group: C M C M
;
_chemical_formula_sum "Si O2"
_cell_formula_units_Z 88
_cell_length_a 19.937374
_cell_length_b 24.296167
_cell_length_c 8.798368
_cell_angle_alpha 90.000000
_cell_angle_beta 90.000000
_cell_angle_gamma 90.000000
_cell_volume 4261.945017
_symmetry_space_group_name_H-M "C M C M"
_symmetry_group_IT_number 63
_symmetry_cell_setting 'orthorhombic'
loop_
_space_group_symop_operation_xyz
x,y,z
-x,-y,1/2+z
x,-y,-z
-x,y,1/2-z
-x,-y,-z
x,y,1/2-z
-x,y,z
x,-y,1/2+z
1/2+x,1/2+y,z
1/2-x,1/2-y,1/2+z
1/2+x,1/2-y,-z
1/2-x,1/2+y,1/2-z
1/2-x,1/2-y,-z
1/2+x,1/2+y,1/2-z
1/2-x,1/2+y,z
1/2+x,1/2-y,1/2+z
loop_
_atom_site_type_symbol
_atom_site_label
_atom_site_fract_x
_atom_site_fract_y
_atom_site_fract_z
Si Si1 0.132987 0.126246 0.926556
Si Si2 0.740149 0.444956 0.928418
Si Si3 0.823129 0.247024 0.573253
Si Si4 0.425999 0.837255 0.575734
Si Si5 0.000000 0.939058 0.428335
Si Si6 0.884019 0.555998 0.570783
O O1 0.147899 0.112947 0.750000
O O2 0.134423 0.191462 0.956728
O O3 0.063809 0.097547 0.978613
O O4 0.191224 0.104736 0.035425
O O5 0.750745 0.452060 0.750000
O O6 0.707740 0.500000 0.000000
O O7 0.810238 0.432616 0.007410
O O8 0.810936 0.255273 0.750000
O O9 0.750000 0.250000 0.500000
O O10 0.870365 0.295640 0.508672
O O11 0.408725 0.852116 0.750000
O O12 0.500000 0.809979 0.564939
O O13 0.428995 0.892575 0.476740
O O14 0.000000 0.948481 0.250000
O O15 0.000000 0.000000 0.500000
O O16 0.914201 0.500000 0.500000
O O17 0.882053 0.549398 0.750000
#
# Coordination Sequence:
#
# PCOD8260187 Si02
#       6
#    16  16  16  16   8  16
#     4  10  21  37  58  85 117 158 203 250 301 364
#     4  11  21  35  57  85 117 153 196 247 302 357
#     4  10  22  39  62  89 119 157 203 251 303 359
#     4  10  22  40  62  88 120 158 200 245 295 355
#     4  10  22  38  58  84 120 160 205 252 305 366
#     4  11  22  38  61  88 119 154 195 243 297 356
#
# _framework density 20.647849000000001
#
# number of rings (size 3 to 8) (size 9 to 14) (size 15 to 20)
#    0.000    1.636    0.000    6.000    1.273    7.273 
#    0.000    0.000    0.000    0.000    0.000    0.000 
#    0.000    0.000    0.000    0.000    0.000    0.000 
#
# Total GULP energy -545590.096086 kJ/mol
# GULP energy per Si atom -12399.774911 kJ/mol
# Density = 2.060085 g / cm^3
# Si number density = 20.647849 Si / 1000 Ang^3
#
#
#
# Elastic Constant Matrix: (Units=GPa)
#
#
# Indices 1 2 3 4 5 6 
#
# 1 110.8084 68.6880 36.3966 0.0000 0.0000 0.0000
# 2 68.6880 140.2231 44.2574 0.0000 0.0000 0.0000
# 3 36.3966 44.2574 106.6450 0.0000 0.0000 0.0000
# 4 0.0000 0.0000 0.0000 32.2829 0.0000 0.0000
# 5 0.0000 0.0000 0.0000 0.0000 24.7682 0.0000
# 6 0.0000 0.0000 0.0000 0.0000 0.0000 39.8814
#
#
#
# Elastic Compliance Matrix: (Units=1/GPa)
#
#
# Indices 1 2 3 4 5 6 
#
# 1 0.013365 -0.005877 -0.002122 0.000000 0.000000 0.000000
# 2 -0.005877 0.010791 -0.002472 0.000000 0.000000 0.000000
# 3 -0.002122 -0.002472 0.011127 0.000000 0.000000 0.000000
# 4 0.000000 0.000000 0.000000 0.030976 0.000000 0.000000
# 5 0.000000 0.000000 0.000000 0.000000 0.040374 0.000000
# 6 0.000000 0.000000 0.000000 0.000000 0.000000 0.025074
#
#
# Mechanical properties :
#
#
# Convention : Reuss Voigt Hill
#
# Bulk Modulus (GPa) = 69.73767 72.92894 71.33331
# Shear Modulus (GPa) = 31.76014 33.27547 32.51780
#
# Velocity S-wave (km/s) = 3.92622 4.01879 3.97278
# Velocity P-wave (km/s) = 7.37575 7.54528 7.46100
#
# Compressibility (1/GPa) = 0.01433945
#
# Stress axis : x y z
#
# Youngs Moduli (GPa) = 74.82459 92.67362 89.86937
#
# Poissons Ratio (x) = 0.54462 0.19073
# Poissons Ratio (y) = 0.43973 0.22219
# Poissons Ratio (z) = 0.15880 0.22912
#
# Static dielectric constant tensor:
#      x y z
#    x 3.767820 0.000000 0.000000 
#    y 0.000000 3.911570 0.000000 
#    z 0.000000 0.000000 3.623800 
# 
# 
# High freq. dielectric constant tensor:
#      x y z
#    x 1.812000 0.000000 0.000000 
#    y 0.000000 1.817670 0.000000 
#    z 0.000000 0.000000 1.798350 
# 
# From -- ./inp_files/8229.got.cif
#   From: 2010.03.12/outbox.cif.g09.slc.cpg/sg63_5_cif.got.tgz:8229.got - 2010.04.10 19:34:48.
