data_PCOD8260971
_publ_section_title
;
Structure prediction by ZEFSAII (Michael W. Deem and Ramdas Pophale) SiO2 
 PCOD8260971
Probable space group: C M C M
;
_chemical_formula_sum "Si O2"
_cell_formula_units_Z 80
_cell_length_a 23.307689
_cell_length_b 25.988286
_cell_length_c 9.083341
_cell_angle_alpha 90.000000
_cell_angle_beta 90.000000
_cell_angle_gamma 90.000000
_cell_volume 5502.023874
_symmetry_space_group_name_H-M "C M C M"
_symmetry_group_IT_number 63
_symmetry_cell_setting 'orthorhombic'
loop_
_space_group_symop_operation_xyz
x,y,z
-x,-y,1/2+z
x,-y,-z
-x,y,1/2-z
-x,-y,-z
x,y,1/2-z
-x,y,z
x,-y,1/2+z
1/2+x,1/2+y,z
1/2-x,1/2-y,1/2+z
1/2+x,1/2-y,-z
1/2-x,1/2+y,1/2-z
1/2-x,1/2-y,-z
1/2+x,1/2+y,1/2-z
1/2-x,1/2+y,z
1/2+x,1/2-y,1/2+z
loop_
_atom_site_type_symbol
_atom_site_label
_atom_site_fract_x
_atom_site_fract_y
_atom_site_fract_z
Si Si1 0.690212 0.646108 0.919377
Si Si2 0.387517 0.259013 0.080938
Si Si3 0.221943 0.702274 0.419674
Si Si4 0.000000 0.101634 0.425152
Si Si5 0.500000 0.721049 0.077653
Si Si6 0.109867 0.052814 0.577088
O O1 0.704739 0.656128 0.750000
O O2 0.645195 0.689477 0.973936
O O3 0.663846 0.590219 0.946959
O O4 0.750551 0.650818 0.008457
O O5 0.405933 0.266145 0.250000
O O6 0.346928 0.208406 0.061222
O O7 0.444094 0.250628 0.985225
O O8 0.239211 0.703615 0.250000
O O9 0.250000 0.750000 0.500000
O O10 0.000000 0.161374 0.468906
O O11 0.054862 0.075182 0.495798
O O12 0.000000 0.093150 0.250000
O O13 0.500000 0.728242 0.250000
O O14 0.096293 0.045355 0.750000
O O15 0.127732 0.000000 0.500000
#
# Coordination Sequence:
#
# PCOD8260971 Si02
#       6
#    16  16  16   8   8  16
#     4   9  18  31  46  62  81 108 139 175 219 259
#     4   9  17  30  44  60  83 111 139 169 212 258
#     4   9  17  28  44  64  83 106 136 170 211 256
#     4  11  22  34  45  61  82 110 150 189 227 259
#     4  11  21  28  42  65  85 110 145 183 214 247
#     4  11  22  35  48  62  82 111 147 186 228 264
#
# _framework density 14.540105000000001
#
# number of rings (size 3 to 8) (size 9 to 14) (size 15 to 20)
#    0.000    2.200    2.000    3.300    0.000    6.400 
#    0.000    0.000    0.000    0.000    0.000    0.000 
#    0.000    0.000    0.000    0.900    0.000   11.800 
#
# Total GULP energy -495865.248992 kJ/mol
# GULP energy per Si atom -12396.631225 kJ/mol
# Density = 1.450701 g / cm^3
# Si number density = 14.540105 Si / 1000 Ang^3
#
#
#
# Elastic Constant Matrix: (Units=GPa)
#
#
# Indices 1 2 3 4 5 6 
#
# 1 94.3582 46.3004 56.3306 0.0000 0.0000 0.0000
# 2 46.3004 49.9653 39.1451 0.0000 0.0000 0.0000
# 3 56.3306 39.1451 86.4968 0.0000 0.0000 0.0000
# 4 0.0000 0.0000 0.0000 21.2393 0.0000 0.0000
# 5 0.0000 0.0000 0.0000 0.0000 27.9055 0.0000
# 6 0.0000 0.0000 0.0000 0.0000 0.0000 -40.8371
#
#
#
# Elastic Compliance Matrix: (Units=1/GPa)
#
#
# Indices 1 2 3 4 5 6 
#
# 1 0.022600 -0.014581 -0.008119 0.000000 0.000000 0.000000
# 2 -0.014581 0.040416 -0.008795 0.000000 0.000000 0.000000
# 3 -0.008119 -0.008795 0.020829 0.000000 0.000000 0.000000
# 4 0.000000 0.000000 0.000000 0.047083 0.000000 0.000000
# 5 0.000000 0.000000 0.000000 0.000000 0.035835 0.000000
# 6 0.000000 0.000000 0.000000 0.000000 0.000000 -0.024488
#
#
# Mechanical properties :
#
#
# Convention : Reuss Voigt Hill
#
# Bulk Modulus (GPa) = 47.95165 57.15250 52.55207
# Shear Modulus (GPa) = 23.56092 7.59780 15.57936
#
# Velocity S-wave (km/s) = 4.02980 2.28840 3.27689
# Velocity P-wave (km/s) = 7.39614 6.80988 7.10905
#
# Compressibility (1/GPa) = 0.02085434
#
# Stress axis : x y z
#
# Youngs Moduli (GPa) = 44.24839 24.74285 48.01055
#
# Poissons Ratio (x) = 0.36078 0.38980
# Poissons Ratio (y) = 0.64519 0.42224
# Poissons Ratio (z) = 0.35926 0.21760
#
# Static dielectric constant tensor:
#      x y z
#    x 3.037010 0.000000 0.000000 
#    y 0.000000 2.897460 0.000000 
#    z 0.000000 0.000000 3.027230 
# 
# 
# High freq. dielectric constant tensor:
#      x y z
#    x 1.545580 0.000000 0.000000 
#    y 0.000000 1.514430 0.000000 
#    z 0.000000 0.000000 1.572250 
# 
# From -- ./inp_files/8437.got.cif
#   From: 2010.03.12/outbox.cif.g09.slc.cpg/sg63_5_cif.got.tgz:8437.got - 2010.04.10 19:34:48.
