data_PCOD8260533
_publ_section_title
;
Structure prediction by ZEFSAII (Michael W. Deem and Ramdas Pophale) SiO2 
 PCOD8260533
Probable space group: C M C M
;
_chemical_formula_sum "Si O2"
_cell_formula_units_Z 96
_cell_length_a 17.072048
_cell_length_b 16.674365
_cell_length_c 17.174277
_cell_angle_alpha 90.000000
_cell_angle_beta 90.000000
_cell_angle_gamma 90.000000
_cell_volume 4888.925174
_symmetry_space_group_name_H-M "C M C M"
_symmetry_group_IT_number 63
_symmetry_cell_setting 'orthorhombic'
loop_
_space_group_symop_operation_xyz
x,y,z
-x,-y,1/2+z
x,-y,-z
-x,y,1/2-z
-x,-y,-z
x,y,1/2-z
-x,y,z
x,-y,1/2+z
1/2+x,1/2+y,z
1/2-x,1/2-y,1/2+z
1/2+x,1/2-y,-z
1/2-x,1/2+y,1/2-z
1/2-x,1/2-y,-z
1/2+x,1/2+y,1/2-z
1/2-x,1/2+y,z
1/2+x,1/2-y,1/2+z
loop_
_atom_site_type_symbol
_atom_site_label
_atom_site_fract_x
_atom_site_fract_y
_atom_site_fract_z
Si Si1 0.000000 0.821247 0.657387
Si Si2 0.413791 0.727230 0.840765
Si Si3 0.188166 0.371377 0.658867
Si Si4 0.678532 0.584231 0.593114
Si Si5 0.342467 0.052597 0.658134
Si Si6 0.000000 0.364095 0.158353
Si Si7 0.152024 0.097165 0.087412
O O1 0.000000 0.728267 0.634079
O O2 0.924689 0.860940 0.619366
O O3 0.000000 0.834016 0.750000
O O4 0.423038 0.742409 0.750000
O O5 0.500000 0.722043 0.879628
O O6 0.368157 0.803256 0.877480
O O7 0.367796 0.644939 0.852542
O O8 0.198316 0.359022 0.750000
O O9 0.152066 0.458156 0.639239
O O10 0.273227 0.358132 0.622392
O O11 0.771181 0.591950 0.610001
O O12 0.657806 0.604865 0.504928
O O13 0.650281 0.495080 0.614962
O O14 0.328972 0.067891 0.750000
O O15 0.421855 0.092981 0.626023
O O16 0.000000 0.375268 0.250000
#
# Coordination Sequence:
#
# PCOD8260533 Si02
#       7
#     8  16  16  16  16   8  16
#     4  11  24  39  59  87 116 147 193 243 289 341
#     4  10  22  36  56  86 117 149 191 239 283 337
#     4   9  19  37  60  84 113 149 190 234 285 342
#     4  10  22  39  60  82 116 152 194 236 290 347
#     4   9  18  36  62  87 114 152 193 236 287 341
#     4   9  20  36  59  88 116 147 190 240 281 332
#     4  10  23  40  60  82 114 153 192 238 292 344
#
# _framework density 19.636218
#
# number of rings (size 3 to 8) (size 9 to 14) (size 15 to 20)
#    0.000    2.333    0.000    1.000    5.833    3.333 
#    0.000    0.000    0.000    2.000    0.000    0.000 
#    0.000    0.000    0.000    0.000    0.000    0.000 
#
# Total GULP energy -595270.198971 kJ/mol
# GULP energy per Si atom -12401.462479 kJ/mol
# Density = 1.959153 g / cm^3
# Si number density = 19.636218 Si / 1000 Ang^3
#
#
#
# Elastic Constant Matrix: (Units=GPa)
#
#
# Indices 1 2 3 4 5 6 
#
# 1 184.2334 95.4059 34.7111 0.0000 0.0000 0.0000
# 2 95.4059 114.4447 26.1336 0.0000 0.0000 0.0000
# 3 34.7111 26.1336 36.4309 0.0000 0.0000 0.0000
# 4 0.0000 0.0000 0.0000 20.6141 0.0000 0.0000
# 5 0.0000 0.0000 0.0000 0.0000 14.5179 0.0000
# 6 0.0000 0.0000 0.0000 0.0000 0.0000 39.8730
#
#
#
# Elastic Compliance Matrix: (Units=1/GPa)
#
#
# Indices 1 2 3 4 5 6 
#
# 1 0.010079 -0.007426 -0.004276 0.000000 0.000000 0.000000
# 2 -0.007426 0.015921 -0.004345 0.000000 0.000000 0.000000
# 3 -0.004276 -0.004345 0.034641 0.000000 0.000000 0.000000
# 4 0.000000 0.000000 0.000000 0.048511 0.000000 0.000000
# 5 0.000000 0.000000 0.000000 0.000000 0.068881 0.000000
# 6 0.000000 0.000000 0.000000 0.000000 0.000000 0.025080
#
#
# Mechanical properties :
#
#
# Convention : Reuss Voigt Hill
#
# Bulk Modulus (GPa) = 35.03189 71.95668 53.49429
# Shear Modulus (GPa) = 20.43139 26.92488 23.67814
#
# Velocity S-wave (km/s) = 3.22917 3.70697 3.47629
# Velocity P-wave (km/s) = 5.63760 7.41934 6.58897
#
# Compressibility (1/GPa) = 0.02854542
#
# Stress axis : x y z
#
# Youngs Moduli (GPa) = 99.21527 62.81172 28.86770
#
# Poissons Ratio (x) = 0.46643 0.12345
# Poissons Ratio (y) = 0.73676 0.12544
# Poissons Ratio (z) = 0.42428 0.27294
#
# Static dielectric constant tensor:
#      x y z
#    x 3.886400 0.000000 0.000000 
#    y 0.000000 3.705140 0.000000 
#    z 0.000000 0.000000 3.343930 
# 
# 
# High freq. dielectric constant tensor:
#      x y z
#    x 1.777650 0.000000 0.000000 
#    y 0.000000 1.772310 0.000000 
#    z 0.000000 0.000000 1.744450 
# 
# From -- ./inp_files/54262.got.cif
#   From: 2010.03.12/outbox.cif.g09.slc.cpg/sg63_28_cif.got.tgz:54262.got - 2010.04.10 19:34:48.
