data_PCOD8260987
_publ_section_title
;
Structure prediction by ZEFSAII (Michael W. Deem and Ramdas Pophale) SiO2 
 PCOD8260987
Probable space group: C M C M
;
_chemical_formula_sum "Si O2"
_cell_formula_units_Z 96
_cell_length_a 8.693110
_cell_length_b 25.336461
_cell_length_c 25.297571
_cell_angle_alpha 90.000000
_cell_angle_beta 90.000000
_cell_angle_gamma 90.000000
_cell_volume 5571.856861
_symmetry_space_group_name_H-M "C M C M"
_symmetry_group_IT_number 63
_symmetry_cell_setting 'orthorhombic'
loop_
_space_group_symop_operation_xyz
x,y,z
-x,-y,1/2+z
x,-y,-z
-x,y,1/2-z
-x,-y,-z
x,y,1/2-z
-x,y,z
x,-y,1/2+z
1/2+x,1/2+y,z
1/2-x,1/2-y,1/2+z
1/2+x,1/2-y,-z
1/2-x,1/2+y,1/2-z
1/2-x,1/2-y,-z
1/2+x,1/2+y,1/2-z
1/2-x,1/2+y,z
1/2+x,1/2-y,1/2+z
loop_
_atom_site_type_symbol
_atom_site_label
_atom_site_fract_x
_atom_site_fract_y
_atom_site_fract_z
Si Si1 0.332105 0.690370 0.250000
Si Si2 0.830867 0.997115 0.062664
Si Si3 0.830336 0.684666 0.750000
Si Si4 0.318096 0.611848 0.052519
Si Si5 0.683778 0.302521 0.862786
Si Si6 0.178576 0.608852 0.938304
Si Si7 0.680268 0.689228 0.641512
O O1 0.500000 0.663392 0.250000
O O2 0.347385 0.753070 0.250000
O O3 0.249211 0.675951 0.305764
O O4 0.778241 0.055751 0.080973
O O5 0.000000 0.983386 0.085873
O O6 0.712448 0.951549 0.079792
O O7 0.841726 0.000000 0.000000
O O8 0.741222 0.666756 0.697344
O O9 0.000000 0.658425 0.750000
O O10 0.500000 0.614772 0.039935
O O11 0.262824 0.657830 0.091659
O O12 0.223419 0.618645 0.998921
O O13 0.500000 0.298966 0.858677
O O14 0.746460 0.244787 0.875745
O O15 0.279933 0.647562 0.903408
O O16 0.000000 0.620940 0.929804
O O17 0.500000 0.697180 0.645819
#
# Coordination Sequence:
#
# PCOD8260987 Si02
#       7
#     8  16   8  16  16  16  16
#     4   7  12  25  47  70  91 118 153 190 224 270
#     4   8  15  30  49  68  92 123 160 201 242 287
#     4   9  17  33  53  72  95 124 161 200 236 280
#     4   9  18  32  50  71  97 129 161 198 246 296
#     4   9  17  31  50  72  98 128 161 196 239 289
#     4  11  21  32  48  70  96 128 164 203 245 289
#     4  11  21  33  50  73 100 129 161 198 240 285
#
# _framework density 17.229444000000001
#
# number of rings (size 3 to 8) (size 9 to 14) (size 15 to 20)
#    0.000    2.667    0.000    5.250    0.000    4.333 
#    0.000    0.000    0.000    1.000    0.000    3.500 
#    0.000    0.000    0.000    0.000    0.000    0.000 
#
# Total GULP energy -594822.641908 kJ/mol
# GULP energy per Si atom -12392.138373 kJ/mol
# Density = 1.719023 g / cm^3
# Si number density = 17.229444 Si / 1000 Ang^3
#
#
#
# Elastic Constant Matrix: (Units=GPa)
#
#
# Indices 1 2 3 4 5 6 
#
# 1 57.6365 19.2442 21.9130 0.0000 0.0000 0.0000
# 2 19.2442 92.3562 48.0637 0.0000 0.0000 0.0000
# 3 21.9130 48.0637 79.6420 0.0000 0.0000 0.0000
# 4 0.0000 0.0000 0.0000 -0.2198 0.0000 0.0000
# 5 0.0000 0.0000 0.0000 0.0000 22.8117 0.0000
# 6 0.0000 0.0000 0.0000 0.0000 0.0000 23.2795
#
#
#
# Elastic Compliance Matrix: (Units=1/GPa)
#
#
# Indices 1 2 3 4 5 6 
#
# 1 0.019594 -0.001862 -0.004268 0.000000 0.000000 0.000000
# 2 -0.001862 0.015962 -0.009121 0.000000 0.000000 0.000000
# 3 -0.004268 -0.009121 0.019235 0.000000 0.000000 0.000000
# 4 0.000000 0.000000 0.000000 -4.549169 0.000000 0.000000
# 5 0.000000 0.000000 0.000000 0.000000 0.043837 0.000000
# 6 0.000000 0.000000 0.000000 0.000000 0.000000 0.042956
#
#
# Mechanical properties :
#
#
# Convention : Reuss Voigt Hill
#
# Bulk Modulus (GPa) = 41.16817 45.34181 43.25499
# Shear Modulus (GPa) = -1.14443 18.53521 8.69539
#
# Velocity S-wave (km/s) = -0.81589 3.28348 2.24895
# Velocity P-wave (km/s) = 4.80192 6.38346 5.64832
#
# Compressibility (1/GPa) = 0.02429061
#
# Stress axis : x y z
#
# Youngs Moduli (GPa) = 51.03523 62.64773 51.98905
#
# Poissons Ratio (x) = 0.11665 0.22187
# Poissons Ratio (y) = 0.09502 0.47419
# Poissons Ratio (z) = 0.21780 0.57140
#
# Static dielectric constant tensor:
#      x y z
#    x 3.102480 0.000000 0.000000 
#    y 0.000000 3.351550 0.000000 
#    z 0.000000 0.000000 3.364790 
# 
# 
# High freq. dielectric constant tensor:
#      x y z
#    x 1.656140 0.000000 0.000000 
#    y 0.000000 1.651100 0.000000 
#    z 0.000000 0.000000 1.651690 
# 
# From -- ./inp_files/60315.got.cif
#   From: 2010.03.12/outbox.cif.g09.slc.cpg/sg63_31_cif.got.tgz:60315.got - 2010.04.10 19:34:48.
