data_PCOD8261661
_publ_section_title
;
Structure prediction by ZEFSAII (Michael W. Deem and Ramdas Pophale) SiO2 
 PCOD8261661
Probable space group: C M C A
;
_chemical_formula_sum "Si O2"
_cell_formula_units_Z 88
_cell_length_a 21.092889
_cell_length_b 14.183343
_cell_length_c 17.652898
_cell_angle_alpha 90.000000
_cell_angle_beta 90.000000
_cell_angle_gamma 90.000000
_cell_volume 5281.176532
_symmetry_space_group_name_H-M "C M C A"
_symmetry_group_IT_number 64
_symmetry_cell_setting 'orthorhombic'
loop_
_space_group_symop_operation_xyz
x,y,z
-x,1/2-y,1/2+z
x,-y,-z
-x,1/2+y,1/2-z
-x,-y,-z
x,1/2+y,1/2-z
-x,y,z
x,1/2-y,1/2+z
1/2+x,1/2+y,z
1/2-x,-y,1/2+z
1/2+x,1/2-y,-z
1/2-x,y,1/2-z
1/2-x,1/2-y,-z
1/2+x,y,1/2-z
1/2-x,1/2+y,z
1/2+x,-y,1/2+z
loop_
_atom_site_type_symbol
_atom_site_label
_atom_site_fract_x
_atom_site_fract_y
_atom_site_fract_z
Si Si1 0.867066 0.063875 0.858797
Si Si2 0.000000 0.408784 0.413067
Si Si3 0.815273 0.744843 0.706754
Si Si4 0.874054 0.349100 0.663998
Si Si5 0.709456 0.000000 0.500000
Si Si6 0.500000 0.632073 0.077640
Si Si7 0.248634 0.319370 0.569951
O O1 0.828147 0.133962 0.804866
O O2 0.936354 0.112001 0.865783
O O3 0.867708 0.961041 0.820180
O O4 0.836185 0.055861 0.942158
O O5 0.000000 0.342252 0.488270
O O6 0.000000 0.520061 0.427122
O O7 0.750000 0.756568 0.750000
O O8 0.870862 0.795738 0.755027
O O9 0.807301 0.796489 0.625616
O O10 0.939463 0.326408 0.621357
O O11 0.818930 0.308599 0.610902
O O12 0.755728 0.072999 0.457965
O O13 0.250000 0.250000 0.500000
#
# Coordination Sequence:
#
# PCOD8261661 Si02
#       7
#    16   8  16  16   8   8  16
#     4  10  18  31  51  72 102 125 168 207 252 288
#     4   9  16  27  50  80  89 123 167 214 238 287
#     4  10  21  33  47  73 104 131 163 201 245 307
#     4   9  20  33  48  73 100 133 157 203 257 295
#     4  10  18  29  52  74  94 135 158 208 250 280
#     4   9  16  31  52  70 103 121 164 204 253 290
#     4  10  18  32  50  74 102 127 168 203 240 298
#
# _framework density 16.662953999999999
#
# number of rings (size 3 to 8) (size 9 to 14) (size 15 to 20)
#    0.000    2.364    1.818    3.273    0.000    4.364 
#    0.000    0.000    0.000    0.000    0.000    0.000 
#    0.000    3.636    0.000    0.000    0.000    0.000 
#
# Total GULP energy -545422.655081 kJ/mol
# GULP energy per Si atom -12395.969434 kJ/mol
# Density = 1.662503 g / cm^3
# Si number density = 16.662954 Si / 1000 Ang^3
#
#
#
# Elastic Constant Matrix: (Units=GPa)
#
#
# Indices 1 2 3 4 5 6 
#
# 1 54.9668 24.3318 28.2221 0.0000 0.0000 0.0000
# 2 24.3318 73.2439 44.1004 0.0000 0.0000 0.0000
# 3 28.2221 44.1004 97.0752 0.0000 0.0000 0.0000
# 4 0.0000 0.0000 0.0000 36.7120 0.0000 0.0000
# 5 0.0000 0.0000 0.0000 0.0000 16.7925 0.0000
# 6 0.0000 0.0000 0.0000 0.0000 0.0000 13.0033
#
#
#
# Elastic Compliance Matrix: (Units=1/GPa)
#
#
# Indices 1 2 3 4 5 6 
#
# 1 0.022588 -0.004886 -0.004347 0.000000 0.000000 0.000000
# 2 -0.004886 0.019851 -0.007597 0.000000 0.000000 0.000000
# 3 -0.004347 -0.007597 0.015017 0.000000 0.000000 0.000000
# 4 0.000000 0.000000 0.000000 0.027239 0.000000 0.000000
# 5 0.000000 0.000000 0.000000 0.000000 0.059551 0.000000
# 6 0.000000 0.000000 0.000000 0.000000 0.000000 0.076904
#
#
# Mechanical properties :
#
#
# Convention : Reuss Voigt Hill
#
# Bulk Modulus (GPa) = 42.02841 46.51049 44.26945
# Shear Modulus (GPa) = 19.03018 21.87700 20.45359
#
# Velocity S-wave (km/s) = 3.38311 3.62734 3.50735
# Velocity P-wave (km/s) = 6.36695 6.74660 6.55952
#
# Compressibility (1/GPa) = 0.02379343
#
# Stress axis : x y z
#
# Youngs Moduli (GPa) = 44.27188 50.37603 66.59341
#
# Poissons Ratio (x) = 0.24616 0.28948
# Poissons Ratio (y) = 0.21633 0.50594
# Poissons Ratio (z) = 0.19245 0.38273
#
# Static dielectric constant tensor:
#      x y z
#    x 3.188030 0.000000 0.000000 
#    y 0.000000 3.006300 0.000000 
#    z 0.000000 0.000000 3.298170 
# 
# 
# High freq. dielectric constant tensor:
#      x y z
#    x 1.628700 0.000000 0.000000 
#    y 0.000000 1.622530 0.000000 
#    z 0.000000 0.000000 1.642380 
# 
# From -- ./inp_files/34284.got.cif
#   From: 2010.03.12/outbox.cif.g09.slc.cpg/sg64_18_cif.got.tgz:34284.got - 2010.04.10 20:19:32.
