data_PCOD8261991
_publ_section_title
;
Structure prediction by ZEFSAII (Michael W. Deem and Ramdas Pophale) SiO2 
 PCOD8261991
Probable space group: C M C A
;
_chemical_formula_sum "Si O2"
_cell_formula_units_Z 96
_cell_length_a 18.572455
_cell_length_b 21.198373
_cell_length_c 13.294135
_cell_angle_alpha 90.000000
_cell_angle_beta 90.000000
_cell_angle_gamma 90.000000
_cell_volume 5233.978436
_symmetry_space_group_name_H-M "C M C A"
_symmetry_group_IT_number 64
_symmetry_cell_setting 'orthorhombic'
loop_
_space_group_symop_operation_xyz
x,y,z
-x,1/2-y,1/2+z
x,-y,-z
-x,1/2+y,1/2-z
-x,-y,-z
x,1/2+y,1/2-z
-x,y,z
x,1/2-y,1/2+z
1/2+x,1/2+y,z
1/2-x,-y,1/2+z
1/2+x,1/2-y,-z
1/2-x,y,1/2-z
1/2-x,1/2-y,-z
1/2+x,y,1/2-z
1/2-x,1/2+y,z
1/2+x,-y,1/2+z
loop_
_atom_site_type_symbol
_atom_site_label
_atom_site_fract_x
_atom_site_fract_y
_atom_site_fract_z
Si Si1 0.716222 0.472702 0.894745
Si Si2 0.731530 0.665647 0.426747
Si Si3 0.420155 0.617013 0.410086
Si Si4 0.920655 0.127559 0.639748
Si Si5 0.861909 0.000773 0.700944
Si Si6 0.786810 0.293363 0.147519
O O1 0.732337 0.399044 0.896498
O O2 0.788285 0.509636 0.862043
O O3 0.652693 0.481204 0.815403
O O4 0.688867 0.500000 0.000000
O O5 0.646671 0.665665 0.392092
O O6 0.773846 0.718783 0.364130
O O7 0.743911 0.673720 0.546617
O O8 0.500000 0.646082 0.384490
O O9 0.416550 0.599890 0.527369
O O10 0.412111 0.552314 0.348695
O O11 0.870762 0.188844 0.656610
O O12 0.000000 0.151397 0.668133
O O13 0.899865 0.068389 0.708757
O O14 0.750000 0.318680 0.250000
#
# Coordination Sequence:
#
# PCOD8261991 Si02
#       6
#    16  16  16  16  16  16
#     4  10  20  32  52  82 115 140 185 230 282 329
#     4   9  20  36  52  86 110 141 186 231 269 329
#     4   9  17  32  55  82 112 140 175 234 285 320
#     4  10  20  34  54  83 114 141 185 232 274 323
#     4  10  19  29  54  83 108 144 177 229 285 334
#     4  10  21  34  59  78 109 147 185 227 274 315
#
# _framework density 18.341688000000001
#
# number of rings (size 3 to 8) (size 9 to 14) (size 15 to 20)
#    0.000    2.333    0.000    4.000    9.333    1.333 
#    0.000    0.833    0.000    3.000    0.000    0.000 
#    0.000    0.000    0.000    0.000    0.000    0.000 
#
# Total GULP energy -594986.776195 kJ/mol
# GULP energy per Si atom -12395.557837 kJ/mol
# Density = 1.829994 g / cm^3
# Si number density = 18.341688 Si / 1000 Ang^3
#
#
#
# Elastic Constant Matrix: (Units=GPa)
#
#
# Indices 1 2 3 4 5 6 
#
# 1 128.3819 75.0677 55.5517 0.0000 0.0000 0.0000
# 2 75.0677 92.7424 29.8599 0.0000 0.0000 0.0000
# 3 55.5517 29.8599 95.0132 0.0000 0.0000 0.0000
# 4 0.0000 0.0000 0.0000 17.2173 0.0000 0.0000
# 5 0.0000 0.0000 0.0000 0.0000 19.9850 0.0000
# 6 0.0000 0.0000 0.0000 0.0000 0.0000 23.5768
#
#
#
# Elastic Compliance Matrix: (Units=1/GPa)
#
#
# Indices 1 2 3 4 5 6 
#
# 1 0.017829 -0.012322 -0.006552 0.000000 0.000000 0.000000
# 2 -0.012322 0.020512 0.000758 0.000000 0.000000 0.000000
# 3 -0.006552 0.000758 0.014117 0.000000 0.000000 0.000000
# 4 0.000000 0.000000 0.000000 0.058081 0.000000 0.000000
# 5 0.000000 0.000000 0.000000 0.000000 0.050038 0.000000
# 6 0.000000 0.000000 0.000000 0.000000 0.000000 0.042415
#
#
# Mechanical properties :
#
#
# Convention : Reuss Voigt Hill
#
# Bulk Modulus (GPa) = 61.62550 70.78847 66.20699
# Shear Modulus (GPa) = 20.43882 22.53301 21.48591
#
# Velocity S-wave (km/s) = 3.34179 3.50882 3.42632
# Velocity P-wave (km/s) = 6.96862 7.42252 7.19915
#
# Compressibility (1/GPa) = 0.01622705
#
# Stress axis : x y z
#
# Youngs Moduli (GPa) = 56.08799 48.75172 70.83477
#
# Poissons Ratio (x) = 0.60071 0.46410
# Poissons Ratio (y) = 0.69111 -0.05368
# Poissons Ratio (z) = 0.36748 -0.03695
#
# Static dielectric constant tensor:
#      x y z
#    x 3.470960 0.000000 0.000000 
#    y 0.000000 3.180090 0.000000 
#    z 0.000000 0.000000 3.411790 
# 
# 
# High freq. dielectric constant tensor:
#      x y z
#    x 1.694670 0.000000 0.000000 
#    y 0.000000 1.697860 0.000000 
#    z 0.000000 0.000000 1.708440 
# 
# From -- ./inp_files/17347.got.cif
#   From: 2010.03.12/outbox.cif.g09.slc.cpg/sg64_9_cif.got.tgz:17347.got - 2010.04.10 20:19:32.
