data_PCOD8261065
_publ_section_title
;
Structure prediction by ZEFSAII (Michael W. Deem and Ramdas Pophale) SiO2 
 PCOD8261065
Probable space group: C M C M
;
_chemical_formula_sum "Si O2"
_cell_formula_units_Z 80
_cell_length_a 8.923671
_cell_length_b 19.045139
_cell_length_c 25.384687
_cell_angle_alpha 90.000000
_cell_angle_beta 90.000000
_cell_angle_gamma 90.000000
_cell_volume 4314.192403
_symmetry_space_group_name_H-M "C M C M"
_symmetry_group_IT_number 63
_symmetry_cell_setting 'orthorhombic'
loop_
_space_group_symop_operation_xyz
x,y,z
-x,-y,1/2+z
x,-y,-z
-x,y,1/2-z
-x,-y,-z
x,y,1/2-z
-x,y,z
x,-y,1/2+z
1/2+x,1/2+y,z
1/2-x,1/2-y,1/2+z
1/2+x,1/2-y,-z
1/2-x,1/2+y,1/2-z
1/2-x,1/2-y,-z
1/2+x,1/2+y,1/2-z
1/2-x,1/2+y,z
1/2+x,1/2-y,1/2+z
loop_
_atom_site_type_symbol
_atom_site_label
_atom_site_fract_x
_atom_site_fract_y
_atom_site_fract_z
Si Si1 0.827417 0.557589 0.042545
Si Si2 0.176524 0.291228 0.653401
Si Si3 0.823471 0.960031 0.250000
Si Si4 0.821969 0.801801 0.250000
Si Si5 0.676696 0.703284 0.044333
Si Si6 0.170732 0.451978 0.661779
O O1 0.720039 0.623073 0.033382
O O2 0.803915 0.526250 0.101006
O O3 0.000000 0.581758 0.035708
O O4 0.780996 0.500000 0.000000
O O5 0.235880 0.238896 0.698350
O O6 0.263175 0.270574 0.600582
O O7 0.214871 0.370748 0.670511
O O8 0.000000 0.284015 0.642531
O O9 0.757666 0.880833 0.250000
O O10 0.773828 0.999493 0.302582
O O11 0.000000 0.956286 0.250000
O O12 0.000000 0.800481 0.250000
O O13 0.500000 0.712039 0.042640
O O14 0.750000 0.750000 0.000000
O O15 0.000000 0.464315 0.679246
#
# Coordination Sequence:
#
# PCOD8261065 Si02
#       6
#    16  16   8   8  16  16
#     4   9  19  37  59  82 108 139 178 222 269 322
#     4   9  18  37  60  77  99 138 185 223 261 314
#     4  11  22  33  49  77 110 137 168 216 266 313
#     4   9  19  35  55  79 106 137 174 220 272 319
#     4  11  22  36  55  81 112 144 181 223 269 320
#     4   9  18  34  56  77 100 136 176 213 258 315
#
# _framework density 18.543447
#
# number of rings (size 3 to 8) (size 9 to 14) (size 15 to 20)
#    0.000    2.400    0.000    3.900    0.000    6.800 
#    0.000    6.500    0.000    0.000    0.000    0.000 
#    0.000    0.000    0.000    0.000    0.000    0.000 
#
# Total GULP energy -496074.298858 kJ/mol
# GULP energy per Si atom -12401.857471 kJ/mol
# Density = 1.850124 g / cm^3
# Si number density = 18.543447 Si / 1000 Ang^3
#
#
#
# Elastic Constant Matrix: (Units=GPa)
#
#
# Indices 1 2 3 4 5 6 
#
# 1 83.0507 48.4388 60.2520 0.0000 0.0000 0.0000
# 2 48.4388 115.4813 96.5793 0.0000 0.0000 0.0000
# 3 60.2520 96.5793 158.9975 0.0000 0.0000 0.0000
# 4 0.0000 0.0000 0.0000 39.2464 0.0000 0.0000
# 5 0.0000 0.0000 0.0000 0.0000 32.3958 0.0000
# 6 0.0000 0.0000 0.0000 0.0000 0.0000 27.2587
#
#
#
# Elastic Compliance Matrix: (Units=1/GPa)
#
#
# Indices 1 2 3 4 5 6 
#
# 1 0.017316 -0.003608 -0.004370 0.000000 0.000000 0.000000
# 2 -0.003608 0.018353 -0.009780 0.000000 0.000000 0.000000
# 3 -0.004370 -0.009780 0.013886 0.000000 0.000000 0.000000
# 4 0.000000 0.000000 0.000000 0.025480 0.000000 0.000000
# 5 0.000000 0.000000 0.000000 0.000000 0.030868 0.000000
# 6 0.000000 0.000000 0.000000 0.000000 0.000000 0.036686
#
#
# Mechanical properties :
#
#
# Convention : Reuss Voigt Hill
#
# Bulk Modulus (GPa) = 71.24036 85.34109 78.29072
# Shear Modulus (GPa) = 27.35457 29.93082 28.64269
#
# Velocity S-wave (km/s) = 3.84495 4.02193 3.93444
# Velocity P-wave (km/s) = 7.62974 8.22740 7.93420
#
# Compressibility (1/GPa) = 0.01403699
#
# Stress axis : x y z
#
# Youngs Moduli (GPa) = 57.75082 54.48843 72.01368
#
# Poissons Ratio (x) = 0.19662 0.31469
# Poissons Ratio (y) = 0.20839 0.70432
# Poissons Ratio (z) = 0.25237 0.53292
#
# Static dielectric constant tensor:
#      x y z
#    x 3.237150 0.000000 0.000000 
#    y 0.000000 3.458120 0.000000 
#    z 0.000000 0.000000 3.641470 
# 
# 
# High freq. dielectric constant tensor:
#      x y z
#    x 1.704540 0.000000 0.000000 
#    y 0.000000 1.714820 0.000000 
#    z 0.000000 0.000000 1.734000 
# 
# From -- ./inp_files/66678.got.cif
#   From: 2010.03.12/outbox.cif.g09.slc.cpg/sg63_34_cif.got.tgz:66678.got - 2010.04.10 19:34:48.
