data_PCOD8261663
_publ_section_title
;
Structure prediction by ZEFSAII (Michael W. Deem and Ramdas Pophale) SiO2 
 PCOD8261663
Probable space group: C M C A
;
_chemical_formula_sum "Si O2"
_cell_formula_units_Z 80
_cell_length_a 16.677444
_cell_length_b 28.796619
_cell_length_c 8.542876
_cell_angle_alpha 90.000000
_cell_angle_beta 90.000000
_cell_angle_gamma 90.000000
_cell_volume 4102.750377
_symmetry_space_group_name_H-M "C M C A"
_symmetry_group_IT_number 64
_symmetry_cell_setting 'orthorhombic'
loop_
_space_group_symop_operation_xyz
x,y,z
-x,1/2-y,1/2+z
x,-y,-z
-x,1/2+y,1/2-z
-x,-y,-z
x,1/2+y,1/2-z
-x,y,z
x,1/2-y,1/2+z
1/2+x,1/2+y,z
1/2-x,-y,1/2+z
1/2+x,1/2-y,-z
1/2-x,y,1/2-z
1/2-x,1/2-y,-z
1/2+x,y,1/2-z
1/2-x,1/2+y,z
1/2+x,-y,1/2+z
loop_
_atom_site_type_symbol
_atom_site_label
_atom_site_fract_x
_atom_site_fract_y
_atom_site_fract_z
Si Si1 0.764485 0.699428 0.067158
Si Si2 0.408687 0.355436 0.445713
Si Si3 0.839070 0.951922 0.930905
Si Si4 0.851646 0.451644 0.921979
Si Si5 0.174262 0.370989 0.355048
O O1 0.750000 0.698580 0.250000
O O2 0.750000 0.750000 0.000000
O O3 0.854636 0.681008 0.041125
O O4 0.701351 0.666709 0.980826
O O5 0.500000 0.342835 0.483232
O O6 0.390878 0.408977 0.487156
O O7 0.391477 0.348941 0.260771
O O8 0.877954 0.947555 0.759290
O O9 0.743498 0.948235 0.928530
O O10 0.868651 0.912183 0.049360
O O11 0.869581 0.000000 0.000000
O O12 0.881224 0.500000 0.000000
O O13 0.250000 0.388631 0.250000
#
# Coordination Sequence:
#
# PCOD8261663 Si02
#       5
#    16  16  16  16  16
#     4  11  22  42  68  91 114 153 197 244 296 356
#     4  11  23  39  60  90 126 158 195 245 302 355
#     4  10  18  29  55  87 114 154 211 254 282 337
#     4  10  19  32  55  85 121 160 201 248 293 345
#     4  10  19  35  57  83 115 154 197 240 292 350
#
# _framework density 19.499115
#
# number of rings (size 3 to 8) (size 9 to 14) (size 15 to 20)
#    0.000    1.600    4.000    4.200    2.800    0.400 
#    0.000    8.000    0.000    2.400    0.000    0.000 
#    0.000    0.000    0.000    0.000    0.000    0.000 
#
# Total GULP energy -495981.107022 kJ/mol
# GULP energy per Si atom -12399.527676 kJ/mol
# Density = 1.945473 g / cm^3
# Si number density = 19.499115 Si / 1000 Ang^3
#
#
#
# Elastic Constant Matrix: (Units=GPa)
#
#
# Indices 1 2 3 4 5 6 
#
# 1 85.1906 46.9944 37.5414 0.0000 0.0000 0.0000
# 2 46.9944 141.4748 67.6916 0.0000 0.0000 0.0000
# 3 37.5414 67.6916 178.4518 0.0000 0.0000 0.0000
# 4 0.0000 0.0000 0.0000 40.6395 0.0000 0.0000
# 5 0.0000 0.0000 0.0000 0.0000 11.6175 0.0000
# 6 0.0000 0.0000 0.0000 0.0000 0.0000 11.0597
#
#
#
# Elastic Compliance Matrix: (Units=1/GPa)
#
#
# Indices 1 2 3 4 5 6 
#
# 1 0.014700 -0.004158 -0.001515 0.000000 0.000000 0.000000
# 2 -0.004158 0.009812 -0.002847 0.000000 0.000000 0.000000
# 3 -0.001515 -0.002847 0.007003 0.000000 0.000000 0.000000
# 4 0.000000 0.000000 0.000000 0.024607 0.000000 0.000000
# 5 0.000000 0.000000 0.000000 0.000000 0.086077 0.000000
# 6 0.000000 0.000000 0.000000 0.000000 0.000000 0.090418
#
#
# Mechanical properties :
#
#
# Convention : Reuss Voigt Hill
#
# Bulk Modulus (GPa) = 69.09178 78.84136 73.96657
# Shear Modulus (GPa) = 19.64779 29.52266 24.58523
#
# Velocity S-wave (km/s) = 3.17775 3.89530 3.55468
# Velocity P-wave (km/s) = 6.99817 7.79437 7.40698
#
# Compressibility (1/GPa) = 0.01447350
#
# Stress axis : x y z
#
# Youngs Moduli (GPa) = 68.02830 101.91757 142.80548
#
# Poissons Ratio (x) = 0.42376 0.21638
# Poissons Ratio (y) = 0.28286 0.40659
# Poissons Ratio (z) = 0.10308 0.29018
#
# Static dielectric constant tensor:
#      x y z
#    x 3.246320 0.000000 0.000000 
#    y 0.000000 3.718720 0.000000 
#    z 0.000000 0.000000 3.956430 
# 
# 
# High freq. dielectric constant tensor:
#      x y z
#    x 1.709470 0.000000 0.000000 
#    y 0.000000 1.760290 0.000000 
#    z 0.000000 0.000000 1.783330 
# 
# From -- ./inp_files/7263.got.cif
#   From: 2010.03.12/outbox.cif.g09.slc.cpg/sg64_4_cif.got.tgz:7263.got - 2010.04.10 20:19:32.
