data_PCOD8261282
_publ_section_title
;
Structure prediction by ZEFSAII (Michael W. Deem and Ramdas Pophale) SiO2 
 PCOD8261282
Probable space group: C M C M
;
_chemical_formula_sum "Si O2"
_cell_formula_units_Z 80
_cell_length_a 9.672062
_cell_length_b 25.764637
_cell_length_c 19.898337
_cell_angle_alpha 90.000000
_cell_angle_beta 90.000000
_cell_angle_gamma 90.000000
_cell_volume 4958.609198
_symmetry_space_group_name_H-M "C M C M"
_symmetry_group_IT_number 63
_symmetry_cell_setting 'orthorhombic'
loop_
_space_group_symop_operation_xyz
x,y,z
-x,-y,1/2+z
x,-y,-z
-x,y,1/2-z
-x,-y,-z
x,y,1/2-z
-x,y,z
x,-y,1/2+z
1/2+x,1/2+y,z
1/2-x,1/2-y,1/2+z
1/2+x,1/2-y,-z
1/2-x,1/2+y,1/2-z
1/2-x,1/2-y,-z
1/2+x,1/2+y,1/2-z
1/2-x,1/2+y,z
1/2+x,1/2-y,1/2+z
loop_
_atom_site_type_symbol
_atom_site_label
_atom_site_fract_x
_atom_site_fract_y
_atom_site_fract_z
Si Si1 0.335914 0.943744 0.576533
Si Si2 0.835308 0.355357 0.325044
Si Si3 0.846409 0.759009 0.670177
Si Si4 0.661524 0.853294 0.828089
Si Si5 0.664645 0.059160 0.926188
O O1 0.500000 0.943961 0.577764
O O2 0.280049 0.902649 0.630889
O O3 0.284352 0.928243 0.501850
O O4 0.283183 0.001653 0.595128
O O5 0.776106 0.365353 0.250000
O O6 0.793042 0.298100 0.352195
O O7 0.771824 0.398521 0.375084
O O8 0.000000 0.358639 0.322741
O O9 0.853440 0.759262 0.750000
O O10 0.740611 0.802599 0.644273
O O11 0.000000 0.770294 0.641023
O O12 0.692607 0.863825 0.750000
O O13 0.500000 0.843950 0.841122
O O14 0.500000 0.061200 0.923514
#
# Coordination Sequence:
#
# PCOD8261282 Si02
#       5
#    16  16  16  16  16
#     4   8  14  23  34  51  76 102 124 149 188 232
#     4   8  13  21  35  54  72  92 123 160 190 217
#     4   8  14  25  39  55  76 100 125 154 189 225
#     4   9  16  25  38  57  79 101 126 155 184 218
#     4   8  13  22  35  51  74 101 124 151 191 230
#
# _framework density 16.133555000000001
#
# number of rings (size 3 to 8) (size 9 to 14) (size 15 to 20)
#    0.000    3.800    0.000    2.400    0.000    0.800 
#    0.000    5.000    0.000    0.000    0.000    4.200 
#    0.000    6.400    0.000    0.000    0.000    0.000 
#
# Total GULP energy -495614.518120 kJ/mol
# GULP energy per Si atom -12390.362953 kJ/mol
# Density = 1.609683 g / cm^3
# Si number density = 16.133555 Si / 1000 Ang^3
#
#
#
# Elastic Constant Matrix: (Units=GPa)
#
#
# Indices 1 2 3 4 5 6 
#
# 1 20.7082 33.0174 19.3439 0.0000 0.0000 0.0000
# 2 33.0174 171.3783 84.2698 0.0000 0.0000 0.0000
# 3 19.3439 84.2698 79.2803 0.0000 0.0000 0.0000
# 4 0.0000 0.0000 0.0000 19.5044 0.0000 0.0000
# 5 0.0000 0.0000 0.0000 0.0000 6.3850 0.0000
# 6 0.0000 0.0000 0.0000 0.0000 0.0000 18.7427
#
#
#
# Elastic Compliance Matrix: (Units=1/GPa)
#
#
# Indices 1 2 3 4 5 6 
#
# 1 0.070963 -0.010805 -0.005829 0.000000 0.000000 0.000000
# 2 -0.010805 0.013869 -0.012106 0.000000 0.000000 0.000000
# 3 -0.005829 -0.012106 0.026904 0.000000 0.000000 0.000000
# 4 0.000000 0.000000 0.000000 0.051270 0.000000 0.000000
# 5 0.000000 0.000000 0.000000 0.000000 0.156617 0.000000
# 6 0.000000 0.000000 0.000000 0.000000 0.000000 0.053354
#
#
# Mechanical properties :
#
#
# Convention : Reuss Voigt Hill
#
# Bulk Modulus (GPa) = 18.43137 60.51433 39.47285
# Shear Modulus (GPa) = 11.14717 17.90879 14.52798
#
# Velocity S-wave (km/s) = 2.63141 3.33533 3.00406
# Velocity P-wave (km/s) = 4.54769 7.24033 6.04582
#
# Compressibility (1/GPa) = 0.05425532
#
# Stress axis : x y z
#
# Youngs Moduli (GPa) = 14.09180 72.10084 37.16974
#
# Poissons Ratio (x) = 0.77907 0.21667
# Poissons Ratio (y) = 0.15227 0.44997
# Poissons Ratio (z) = 0.08215 0.87285
#
# Static dielectric constant tensor:
#      x y z
#    x 2.565760 0.000000 0.000000 
#    y 0.000000 3.551010 0.000000 
#    z 0.000000 0.000000 3.107720 
# 
# 
# High freq. dielectric constant tensor:
#      x y z
#    x 1.551420 0.000000 0.000000 
#    y 0.000000 1.634610 0.000000 
#    z 0.000000 0.000000 1.602680 
# 
# From -- ./inp_files/40692.got.cif
#   From: 2010.03.12/outbox.cif.g09.slc.cpg/sg63_21_cif.got.tgz:40692.got - 2010.04.10 19:34:48.
