data_PCOD8261907
_publ_section_title
;
Structure prediction by ZEFSAII (Michael W. Deem and Ramdas Pophale) SiO2 
 PCOD8261907
Probable space group: C M C A
;
_chemical_formula_sum "Si O2"
_cell_formula_units_Z 64
_cell_length_a 22.793723
_cell_length_b 18.675679
_cell_length_c 7.327527
_cell_angle_alpha 90.000000
_cell_angle_beta 90.000000
_cell_angle_gamma 90.000000
_cell_volume 3119.242174
_symmetry_space_group_name_H-M "C M C A"
_symmetry_group_IT_number 64
_symmetry_cell_setting 'orthorhombic'
loop_
_space_group_symop_operation_xyz
x,y,z
-x,1/2-y,1/2+z
x,-y,-z
-x,1/2+y,1/2-z
-x,-y,-z
x,1/2+y,1/2-z
-x,y,z
x,1/2-y,1/2+z
1/2+x,1/2+y,z
1/2-x,-y,1/2+z
1/2+x,1/2-y,-z
1/2-x,y,1/2-z
1/2-x,1/2-y,-z
1/2+x,y,1/2-z
1/2-x,1/2+y,z
1/2+x,-y,1/2+z
loop_
_atom_site_type_symbol
_atom_site_label
_atom_site_fract_x
_atom_site_fract_y
_atom_site_fract_z
Si Si1 0.123449 0.081492 0.483336
Si Si2 0.125116 0.828750 0.868304
Si Si3 0.500000 0.286654 0.834948
Si Si4 0.500000 0.862800 0.049535
Si Si5 0.818178 0.184708 0.759913
O O1 0.127458 0.105078 0.272268
O O2 0.057537 0.088090 0.563835
O O3 0.167601 0.128614 0.602128
O O4 0.143931 0.000000 0.500000
O O5 0.146785 0.758182 0.763590
O O6 0.058494 0.814835 0.936952
O O7 0.164924 0.847685 0.042624
O O8 0.500000 0.317142 0.633430
O O9 0.500000 0.200571 0.801171
O O10 0.750000 0.202712 0.750000
#
# Coordination Sequence:
#
# PCOD8261907 Si02
#       5
#    16  16   8   8  16
#     4  11  25  42  61  96 132 167 209 267 332 384
#     4  11  22  40  69  96 125 162 218 267 318 384
#     4  10  18  34  63 100 115 156 209 268 315 374
#     4  10  19  36  65  91 128 160 206 267 332 383
#     4  12  24  41  66  94 122 173 221 266 314 382
#
# _framework density 20.517804999999999
#
# number of rings (size 3 to 8) (size 9 to 14) (size 15 to 20)
#    0.000    1.000    5.000    2.625    0.000    1.000 
#    4.500    0.000    0.000    6.000    0.000    0.000 
#    0.000    0.000    0.000    0.000    0.000    0.000 
#
# Total GULP energy -396912.527855 kJ/mol
# GULP energy per Si atom -12403.516495 kJ/mol
# Density = 2.047111 g / cm^3
# Si number density = 20.517805 Si / 1000 Ang^3
#
#
#
# Elastic Constant Matrix: (Units=GPa)
#
#
# Indices 1 2 3 4 5 6 
#
# 1 118.1581 21.9620 36.1533 0.0000 0.0000 0.0000
# 2 21.9620 91.0366 17.2770 0.0000 0.0000 0.0000
# 3 36.1533 17.2770 82.8324 0.0000 0.0000 0.0000
# 4 0.0000 0.0000 0.0000 26.6053 0.0000 0.0000
# 5 0.0000 0.0000 0.0000 0.0000 28.1625 0.0000
# 6 0.0000 0.0000 0.0000 0.0000 0.0000 7.0973
#
#
#
# Elastic Compliance Matrix: (Units=1/GPa)
#
#
# Indices 1 2 3 4 5 6 
#
# 1 0.010000 -0.001649 -0.004021 0.000000 0.000000 0.000000
# 2 -0.001649 0.011709 -0.001722 0.000000 0.000000 0.000000
# 3 -0.004021 -0.001722 0.014187 0.000000 0.000000 0.000000
# 4 0.000000 0.000000 0.000000 0.037587 0.000000 0.000000
# 5 0.000000 0.000000 0.000000 0.000000 0.035508 0.000000
# 6 0.000000 0.000000 0.000000 0.000000 0.000000 0.140899
#
#
# Mechanical properties :
#
#
# Convention : Reuss Voigt Hill
#
# Bulk Modulus (GPa) = 47.36817 49.20129 48.28473
# Shear Modulus (GPa) = 18.40184 26.81534 22.60859
#
# Velocity S-wave (km/s) = 2.99803 3.61907 3.32309
# Velocity P-wave (km/s) = 5.92628 6.44169 6.18935
#
# Compressibility (1/GPa) = 0.02111122
#
# Stress axis : x y z
#
# Youngs Moduli (GPa) = 99.99989 85.40165 70.48862
#
# Poissons Ratio (x) = 0.14086 0.28341
# Poissons Ratio (y) = 0.16494 0.12141
# Poissons Ratio (z) = 0.40206 0.14710
#
# Static dielectric constant tensor:
#      x y z
#    x 3.916100 0.000000 0.000000 
#    y 0.000000 3.440580 0.000000 
#    z 0.000000 0.000000 3.703630 
# 
# 
# High freq. dielectric constant tensor:
#      x y z
#    x 1.812220 0.000000 0.000000 
#    y 0.000000 1.774210 0.000000 
#    z 0.000000 0.000000 1.806930 
# 
# From -- ./inp_files/7788.got.cif
#   From: 2010.03.12/outbox.cif.g09.slc.cpg/sg64_4_cif.got.tgz:7788.got - 2010.04.10 20:19:32.
