data_PCOD8261337
_publ_section_title
;
Structure prediction by ZEFSAII (Michael W. Deem and Ramdas Pophale) SiO2 
 PCOD8261337
Probable space group: C M C M
;
_chemical_formula_sum "Si O2"
_cell_formula_units_Z 56
_cell_length_a 15.012696
_cell_length_b 18.058445
_cell_length_c 14.092144
_cell_angle_alpha 90.000000
_cell_angle_beta 90.000000
_cell_angle_gamma 90.000000
_cell_volume 3820.464016
_symmetry_space_group_name_H-M "C M C M"
_symmetry_group_IT_number 63
_symmetry_cell_setting 'orthorhombic'
loop_
_space_group_symop_operation_xyz
x,y,z
-x,-y,1/2+z
x,-y,-z
-x,y,1/2-z
-x,-y,-z
x,y,1/2-z
-x,y,z
x,-y,1/2+z
1/2+x,1/2+y,z
1/2-x,1/2-y,1/2+z
1/2+x,1/2-y,-z
1/2-x,1/2+y,1/2-z
1/2-x,1/2-y,-z
1/2+x,1/2+y,1/2-z
1/2-x,1/2+y,z
1/2+x,1/2-y,1/2+z
loop_
_atom_site_type_symbol
_atom_site_label
_atom_site_fract_x
_atom_site_fract_y
_atom_site_fract_z
Si Si1 0.601590 0.276467 0.858136
Si Si2 0.314032 0.000000 0.000000
Si Si3 0.754801 0.388390 0.639647
Si Si4 0.397346 0.148553 0.497356
O O1 0.615604 0.250212 0.750000
O O2 0.500000 0.300692 0.877003
O O3 0.662060 0.347377 0.880736
O O4 0.629792 0.208207 0.923836
O O5 0.252424 0.032087 0.085487
O O6 0.376666 0.933474 0.039691
O O7 0.772022 0.401853 0.750000
O O8 0.836585 0.339356 0.596768
O O9 0.500000 0.155745 0.467928
#
# Coordination Sequence:
#
# PCOD8261337 Si02
#       4
#    16   8  16  16
#     4   9  17  30  49  68  87 117 154 187 215 253
#     4   8  19  28  45  66  92 118 145 176 225 270
#     4   9  18  31  45  66  92 119 149 182 223 263
#     4   9  17  30  46  67  92 116 147 181 219 266
#
# _framework density 14.657905
#
# number of rings (size 3 to 8) (size 9 to 14) (size 15 to 20)
#    1.714    1.429    0.000    1.286    0.000    1.714 
#    0.000    0.714    0.000    0.000    0.000    0.000 
#    0.000    0.000    0.000    0.000    0.000    0.000 
#
# Total GULP energy -346873.236473 kJ/mol
# GULP energy per Si atom -12388.329874 kJ/mol
# Density = 1.462454 g / cm^3
# Si number density = 14.657905 Si / 1000 Ang^3
#
#
#
# Elastic Constant Matrix: (Units=GPa)
#
#
# Indices 1 2 3 4 5 6 
#
# 1 78.9961 43.3119 57.3041 0.0000 0.0000 0.0000
# 2 43.3119 57.6898 52.3899 0.0000 0.0000 0.0000
# 3 57.3041 52.3899 105.9253 0.0000 0.0000 0.0000
# 4 0.0000 0.0000 0.0000 28.2387 0.0000 0.0000
# 5 0.0000 0.0000 0.0000 0.0000 23.9327 0.0000
# 6 0.0000 0.0000 0.0000 0.0000 0.0000 28.4344
#
#
#
# Elastic Compliance Matrix: (Units=1/GPa)
#
#
# Indices 1 2 3 4 5 6 
#
# 1 0.024424 -0.011505 -0.007522 0.000000 0.000000 0.000000
# 2 -0.011505 0.036888 -0.012020 0.000000 0.000000 0.000000
# 3 -0.007522 -0.012020 0.019455 0.000000 0.000000 0.000000
# 4 0.000000 0.000000 0.000000 0.035412 0.000000 0.000000
# 5 0.000000 0.000000 0.000000 0.000000 0.041784 0.000000
# 6 0.000000 0.000000 0.000000 0.000000 0.000000 0.035169
#
#
# Mechanical properties :
#
#
# Convention : Reuss Voigt Hill
#
# Bulk Modulus (GPa) = 53.55936 60.95812 57.25874
# Shear Modulus (GPa) = 19.12398 22.09485 20.60942
#
# Velocity S-wave (km/s) = 3.61596 3.88670 3.75377
# Velocity P-wave (km/s) = 7.35204 7.86253 7.61156
#
# Compressibility (1/GPa) = 0.01867087
#
# Stress axis : x y z
#
# Youngs Moduli (GPa) = 40.94367 27.10911 51.39983
#
# Poissons Ratio (x) = 0.31190 0.38665
# Poissons Ratio (y) = 0.47107 0.61784
# Poissons Ratio (z) = 0.30800 0.32586
#
# Static dielectric constant tensor:
#      x y z
#    x 2.788340 0.000000 0.000000 
#    y 0.000000 2.702470 0.000000 
#    z 0.000000 0.000000 2.738310 
# 
# 
# High freq. dielectric constant tensor:
#      x y z
#    x 1.559240 0.000000 0.000000 
#    y 0.000000 1.548230 0.000000 
#    z 0.000000 0.000000 1.553510 
# 
# From -- ./inp_files/31242.got.cif
#   From: 2010.03.12/outbox.cif.g09.slc.cpg/sg63_16_cif.got.tgz:31242.got - 2010.04.10 19:34:48.
