data_PCOD8261024
_publ_section_title
;
Structure prediction by ZEFSAII (Michael W. Deem and Ramdas Pophale) SiO2 
 PCOD8261024
Probable space group: C M C M
;
_chemical_formula_sum "Si O2"
_cell_formula_units_Z 96
_cell_length_a 12.158077
_cell_length_b 22.328489
_cell_length_c 17.106848
_cell_angle_alpha 90.000000
_cell_angle_beta 90.000000
_cell_angle_gamma 90.000000
_cell_volume 4644.021491
_symmetry_space_group_name_H-M "C M C M"
_symmetry_group_IT_number 63
_symmetry_cell_setting 'orthorhombic'
loop_
_space_group_symop_operation_xyz
x,y,z
-x,-y,1/2+z
x,-y,-z
-x,y,1/2-z
-x,-y,-z
x,y,1/2-z
-x,y,z
x,-y,1/2+z
1/2+x,1/2+y,z
1/2-x,1/2-y,1/2+z
1/2+x,1/2-y,-z
1/2-x,1/2+y,1/2-z
1/2-x,1/2-y,-z
1/2+x,1/2+y,1/2-z
1/2-x,1/2+y,z
1/2+x,1/2-y,1/2+z
loop_
_atom_site_type_symbol
_atom_site_label
_atom_site_fract_x
_atom_site_fract_y
_atom_site_fract_z
Si Si1 0.500000 0.419103 0.419599
Si Si2 0.500000 0.442366 0.602526
Si Si3 0.376378 0.915856 0.933455
Si Si4 0.120848 0.730028 0.657584
Si Si5 0.376086 0.951366 0.108009
Si Si6 0.791622 0.866270 0.337753
Si Si7 0.309502 0.638545 0.159404
O O1 0.500000 0.424014 0.512336
O O2 0.500000 0.486044 0.383748
O O3 0.394187 0.381362 0.392747
O O4 0.607648 0.415997 0.643722
O O5 0.500000 0.890772 0.929649
O O6 0.298832 0.867420 0.893195
O O7 0.366772 0.977494 0.885501
O O8 0.341164 0.928341 0.022149
O O9 0.121577 0.722415 0.750000
O O10 0.220240 0.688681 0.624755
O O11 0.136725 0.798934 0.633903
O O12 0.000000 0.710222 0.625080
O O13 0.500000 0.931031 0.128157
O O14 0.290965 0.922750 0.168473
O O15 0.833846 0.851825 0.250000
O O16 0.275795 0.638895 0.250000
#
# Coordination Sequence:
#
# PCOD8261024 Si02
#       7
#     8   8  16  16  16  16  16
#     4  11  25  41  57  87 125 159 188 233 308 367
#     4  11  23  41  63  83 119 161 196 241 292 351
#     4   9  19  35  54  81 119 154 184 229 293 353
#     4   9  19  38  60  82 111 149 194 241 292 343
#     4   9  18  35  57  80 113 155 191 229 285 345
#     4  11  22  37  59  85 115 150 191 239 290 347
#     4  11  21  36  61  87 111 150 201 247 288 341
#
# _framework density 20.671738999999999
#
# number of rings (size 3 to 8) (size 9 to 14) (size 15 to 20)
#    0.000    2.000    0.833    4.000    0.000    7.333 
#    1.500    5.000    0.000    0.000    0.000    0.000 
#    0.000    0.000    0.000    0.000    0.000    0.000 
#
# Total GULP energy -595150.890297 kJ/mol
# GULP energy per Si atom -12398.976881 kJ/mol
# Density = 2.062469 g / cm^3
# Si number density = 20.671739 Si / 1000 Ang^3
#
#
#
# Elastic Constant Matrix: (Units=GPa)
#
#
# Indices 1 2 3 4 5 6 
#
# 1 133.3178 49.7406 28.7135 0.0000 0.0000 0.0000
# 2 49.7406 90.2910 15.6572 0.0000 0.0000 0.0000
# 3 28.7135 15.6572 43.4046 0.0000 0.0000 0.0000
# 4 0.0000 0.0000 0.0000 26.6657 0.0000 0.0000
# 5 0.0000 0.0000 0.0000 0.0000 14.5914 0.0000
# 6 0.0000 0.0000 0.0000 0.0000 0.0000 34.4091
#
#
#
# Elastic Compliance Matrix: (Units=1/GPa)
#
#
# Indices 1 2 3 4 5 6 
#
# 1 0.010417 -0.004847 -0.005143 0.000000 0.000000 0.000000
# 2 -0.004847 0.014069 -0.001869 0.000000 0.000000 0.000000
# 3 -0.005143 -0.001869 0.027115 0.000000 0.000000 0.000000
# 4 0.000000 0.000000 0.000000 0.037501 0.000000 0.000000
# 5 0.000000 0.000000 0.000000 0.000000 0.068533 0.000000
# 6 0.000000 0.000000 0.000000 0.000000 0.000000 0.029062
#
#
# Mechanical properties :
#
#
# Convention : Reuss Voigt Hill
#
# Bulk Modulus (GPa) = 35.86193 50.58177 43.22185
# Shear Modulus (GPa) = 22.75727 26.66005 24.70866
#
# Velocity S-wave (km/s) = 3.32156 3.59512 3.46104
# Velocity P-wave (km/s) = 5.66536 6.46183 6.07666
#
# Compressibility (1/GPa) = 0.02788472
#
# Stress axis : x y z
#
# Youngs Moduli (GPa) = 95.99883 71.07610 36.87958
#
# Poissons Ratio (x) = 0.34449 0.18966
# Poissons Ratio (y) = 0.46528 0.06893
# Poissons Ratio (z) = 0.49369 0.13284
#
# Static dielectric constant tensor:
#      x y z
#    x 3.873400 0.000000 0.000000 
#    y 0.000000 3.745390 0.000000 
#    z 0.000000 0.000000 3.479310 
# 
# 
# High freq. dielectric constant tensor:
#      x y z
#    x 1.817450 0.000000 0.000000 
#    y 0.000000 1.801280 0.000000 
#    z 0.000000 0.000000 1.787490 
# 
# From -- ./inp_files/42587.got.cif
#   From: 2010.03.12/outbox.cif.g09.slc.cpg/sg63_22_cif.got.tgz:42587.got - 2010.04.10 19:34:48.
