data_PCOD8261270
_publ_section_title
;
Structure prediction by ZEFSAII (Michael W. Deem and Ramdas Pophale) SiO2 
 PCOD8261270
Probable space group: C M C M
;
_chemical_formula_sum "Si O2"
_cell_formula_units_Z 112
_cell_length_a 31.171401
_cell_length_b 33.621686
_cell_length_c 10.009313
_cell_angle_alpha 90.000000
_cell_angle_beta 90.000000
_cell_angle_gamma 90.000000
_cell_volume 10490.110917
_symmetry_space_group_name_H-M "C M C M"
_symmetry_group_IT_number 63
_symmetry_cell_setting 'orthorhombic'
loop_
_space_group_symop_operation_xyz
x,y,z
-x,-y,1/2+z
x,-y,-z
-x,y,1/2-z
-x,-y,-z
x,y,1/2-z
-x,y,z
x,-y,1/2+z
1/2+x,1/2+y,z
1/2-x,1/2-y,1/2+z
1/2+x,1/2-y,-z
1/2-x,1/2+y,1/2-z
1/2-x,1/2-y,-z
1/2+x,1/2+y,1/2-z
1/2-x,1/2+y,z
1/2+x,1/2-y,1/2+z
loop_
_atom_site_type_symbol
_atom_site_label
_atom_site_fract_x
_atom_site_fract_y
_atom_site_fract_z
Si Si1 0.100634 0.114188 0.596667
Si Si2 0.049664 0.964889 0.403282
Si Si3 0.306257 0.774121 0.399684
Si Si4 0.950368 0.806111 0.403506
Si Si5 0.388285 0.270991 0.600316
Si Si6 0.245757 0.807326 0.899697
Si Si7 0.336349 0.352300 0.899663
O O1 0.115813 0.114496 0.750000
O O2 0.076462 0.073930 0.558930
O O3 0.068029 0.150134 0.567971
O O4 0.143110 0.117029 0.504972
O O5 0.057424 0.977776 0.250000
O O6 0.000000 0.954810 0.428521
O O7 0.065421 0.000000 0.500000
O O8 0.304018 0.791634 0.250000
O O9 0.355698 0.764741 0.438690
O O10 0.286270 0.806788 0.500012
O O11 0.279429 0.733847 0.407644
O O12 0.943207 0.793858 0.250000
O O13 0.927104 0.772931 0.494776
O O14 0.000000 0.806760 0.442413
O O15 0.406538 0.264210 0.750000
O O16 0.362322 0.311651 0.595441
O O17 0.263378 0.813946 0.750000
O O18 0.213109 0.843002 0.938772
O O19 0.338665 0.370407 0.750000
#
# Coordination Sequence:
#
# PCOD8261270 Si02
#       7
#    16  16  16  16  16  16  16
#     4   9  16  25  36  47  58  72  88 107 133 164
#     4   9  17  28  39  49  60  72  87 109 136 166
#     4   8  13  20  29  40  54  71  89 108 127 148
#     4   9  16  24  33  44  56  70  89 112 137 165
#     4   8  14  23  31  40  55  72  89 109 132 156
#     4   8  13  20  29  41  56  72  88 105 125 148
#     4   8  14  23  32  43  59  74  87 105 127 153
#
# _framework density 10.676722
#
# number of rings (size 3 to 8) (size 9 to 14) (size 15 to 20)
#    0.000    3.571    0.000    2.143    0.000    3.714 
#    0.000    5.714    0.000    2.571    0.000    0.000 
#    0.000    0.000    0.000    0.000    0.000    0.000 
#
# Total GULP energy -693991.737899 kJ/mol
# GULP energy per Si atom -12392.709605 kJ/mol
# Density = 1.065242 g / cm^3
# Si number density = 10.676722 Si / 1000 Ang^3
#
#
#
# Elastic Constant Matrix: (Units=GPa)
#
#
# Indices 1 2 3 4 5 6 
#
# 1 60.0258 33.5884 54.0070 0.0000 0.0000 0.0000
# 2 33.5884 27.6299 34.5788 0.0000 0.0000 0.0000
# 3 54.0070 34.5788 78.7483 0.0000 0.0000 0.0000
# 4 0.0000 0.0000 0.0000 13.7127 0.0000 0.0000
# 5 0.0000 0.0000 0.0000 0.0000 21.1158 0.0000
# 6 0.0000 0.0000 0.0000 0.0000 0.0000 16.0868
#
#
#
# Elastic Compliance Matrix: (Units=1/GPa)
#
#
# Indices 1 2 3 4 5 6 
#
# 1 0.065989 -0.052349 -0.022270 0.000000 0.000000 0.000000
# 2 -0.052349 0.121875 -0.017614 0.000000 0.000000 0.000000
# 3 -0.022270 -0.017614 0.035706 0.000000 0.000000 0.000000
# 4 0.000000 0.000000 0.000000 0.072925 0.000000 0.000000
# 5 0.000000 0.000000 0.000000 0.000000 0.047358 0.000000
# 6 0.000000 0.000000 0.000000 0.000000 0.000000 0.062163
#
#
# Mechanical properties :
#
#
# Convention : Reuss Voigt Hill
#
# Bulk Modulus (GPa) = 25.57265 45.63915 35.60590
# Shear Modulus (GPa) = 8.28480 13.13171 10.70826
#
# Velocity S-wave (km/s) = 2.78864 3.51085 3.17038
# Velocity P-wave (km/s) = 5.86280 7.69896 6.84275
#
# Compressibility (1/GPa) = 0.03910428
#
# Stress axis : x y z
#
# Youngs Moduli (GPa) = 15.15404 8.20516 28.00657
#
# Poissons Ratio (x) = 0.42953 0.62370
# Poissons Ratio (y) = 0.79330 0.49330
# Poissons Ratio (z) = 0.33748 0.14452
#
# Static dielectric constant tensor:
#      x y z
#    x 2.360920 0.000000 0.000000 
#    y 0.000000 2.013660 0.000000 
#    z 0.000000 0.000000 2.509280 
# 
# 
# High freq. dielectric constant tensor:
#      x y z
#    x 1.386610 0.000000 0.000000 
#    y 0.000000 1.347400 0.000000 
#    z 0.000000 0.000000 1.415010 
# 
# From -- ./inp_files/24200.got.cif
#   From: 2010.03.12/outbox.cif.g09.slc.cpg/sg63_13_cif.got.tgz:24200.got - 2010.04.10 19:34:48.
