data_PCOD8261356
_publ_section_title
;
Structure prediction by ZEFSAII (Michael W. Deem and Ramdas Pophale) SiO2 
 PCOD8261356
Probable space group: C M C M
;
_chemical_formula_sum "Si O2"
_cell_formula_units_Z 112
_cell_length_a 31.796999
_cell_length_b 20.934338
_cell_length_c 9.769663
_cell_angle_alpha 90.000000
_cell_angle_beta 90.000000
_cell_angle_gamma 90.000000
_cell_volume 6503.167622
_symmetry_space_group_name_H-M "C M C M"
_symmetry_group_IT_number 63
_symmetry_cell_setting 'orthorhombic'
loop_
_space_group_symop_operation_xyz
x,y,z
-x,-y,1/2+z
x,-y,-z
-x,y,1/2-z
-x,-y,-z
x,y,1/2-z
-x,y,z
x,-y,1/2+z
1/2+x,1/2+y,z
1/2-x,1/2-y,1/2+z
1/2+x,1/2-y,-z
1/2-x,1/2+y,1/2-z
1/2-x,1/2-y,-z
1/2+x,1/2+y,1/2-z
1/2-x,1/2+y,z
1/2+x,1/2-y,1/2+z
loop_
_atom_site_type_symbol
_atom_site_label
_atom_site_fract_x
_atom_site_fract_y
_atom_site_fract_z
Si Si1 0.548903 0.439220 0.590997
Si Si2 0.047374 0.303176 0.410714
Si Si3 0.172166 0.554457 0.596374
Si Si4 0.268113 0.167493 0.905692
Si Si5 0.600113 0.315126 0.587521
Si Si6 0.804174 0.193543 0.408140
Si Si7 0.573814 0.059025 0.591428
O O1 0.562117 0.500000 0.500000
O O2 0.558350 0.454751 0.750000
O O3 0.500000 0.422270 0.569803
O O4 0.575934 0.378769 0.538265
O O5 0.055841 0.307378 0.250000
O O6 0.077904 0.248688 0.474348
O O7 0.055158 0.374640 0.468373
O O8 0.000000 0.281920 0.444571
O O9 0.190432 0.500000 0.500000
O O10 0.181838 0.532816 0.750000
O O11 0.195520 0.618684 0.556881
O O12 0.123311 0.566200 0.573257
O O13 0.252403 0.161933 0.750000
O O14 0.290768 0.234092 0.933547
O O15 0.227963 0.152077 0.001108
O O16 0.597687 0.310781 0.750000
O O17 0.648413 0.317441 0.538163
O O18 0.800053 0.173246 0.250000
O O19 0.560956 0.047141 0.750000
O O20 0.556631 0.000000 0.500000
#
# Coordination Sequence:
#
# PCOD8261356 Si02
#       7
#    16  16  16  16  16  16  16
#     4   9  17  30  49  71  93 118 148 182 221 267
#     4   9  16  26  44  70  94 117 150 191 228 260
#     4   9  17  29  45  64  87 116 149 184 220 257
#     4   9  17  30  46  65  89 115 145 182 222 263
#     4   9  16  28  47  70  93 116 148 189 226 262
#     4   9  17  29  47  68  89 115 145 179 221 266
#     4   9  17  29  45  66  92 122 155 188 223 264
#
# _framework density 17.222377000000002
#
# number of rings (size 3 to 8) (size 9 to 14) (size 15 to 20)
#    0.000    3.000    0.000    1.286    0.000    6.000 
#    0.000    1.429    0.000    6.857    0.000    0.000 
#    0.000    0.000    0.000    0.000    0.000    0.000 
#
# Total GULP energy -694186.435436 kJ/mol
# GULP energy per Si atom -12396.186347 kJ/mol
# Density = 1.718318 g / cm^3
# Si number density = 17.222377 Si / 1000 Ang^3
#
#
#
# Elastic Constant Matrix: (Units=GPa)
#
#
# Indices 1 2 3 4 5 6 
#
# 1 76.7020 37.1048 25.8924 0.0000 0.0000 0.0000
# 2 37.1048 91.6172 32.0433 0.0000 0.0000 0.0000
# 3 25.8924 32.0433 40.1458 0.0000 0.0000 0.0000
# 4 0.0000 0.0000 0.0000 25.9686 0.0000 0.0000
# 5 0.0000 0.0000 0.0000 0.0000 16.0613 0.0000
# 6 0.0000 0.0000 0.0000 0.0000 0.0000 26.0053
#
#
#
# Elastic Compliance Matrix: (Units=1/GPa)
#
#
# Indices 1 2 3 4 5 6 
#
# 1 0.017886 -0.004452 -0.007982 0.000000 0.000000 0.000000
# 2 -0.004452 0.016250 -0.010099 0.000000 0.000000 0.000000
# 3 -0.007982 -0.010099 0.038118 0.000000 0.000000 0.000000
# 4 0.000000 0.000000 0.000000 0.038508 0.000000 0.000000
# 5 0.000000 0.000000 0.000000 0.000000 0.062262 0.000000
# 6 0.000000 0.000000 0.000000 0.000000 0.000000 0.038454
#
#
# Mechanical properties :
#
#
# Convention : Reuss Voigt Hill
#
# Bulk Modulus (GPa) = 36.78133 44.28287 40.53210
# Shear Modulus (GPa) = 18.82485 21.16867 19.99676
#
# Velocity S-wave (km/s) = 3.30971 3.50971 3.41118
# Velocity P-wave (km/s) = 6.00072 6.49556 6.25304
#
# Compressibility (1/GPa) = 0.02718771
#
# Stress axis : x y z
#
# Youngs Moduli (GPa) = 55.91092 61.53769 26.23414
#
# Poissons Ratio (x) = 0.27396 0.20940
# Poissons Ratio (y) = 0.24891 0.26494
# Poissons Ratio (z) = 0.44629 0.62148
#
# Static dielectric constant tensor:
#      x y z
#    x 3.288440 0.000000 0.000000 
#    y 0.000000 3.306290 0.000000 
#    z 0.000000 0.000000 3.031920 
# 
# 
# High freq. dielectric constant tensor:
#      x y z
#    x 1.667030 0.000000 0.000000 
#    y 0.000000 1.664210 0.000000 
#    z 0.000000 0.000000 1.628270 
# 
# From -- ./inp_files/25187.got.cif
#   From: 2010.03.12/outbox.cif.g09.slc.cpg/sg63_13_cif.got.tgz:25187.got - 2010.04.10 19:34:48.
