data_PCOD8261863
_publ_section_title
;
Structure prediction by ZEFSAII (Michael W. Deem and Ramdas Pophale) SiO2 
 PCOD8261863
Probable space group: C M C A
;
_chemical_formula_sum "Si O2"
_cell_formula_units_Z 128
_cell_length_a 22.685819
_cell_length_b 16.357486
_cell_length_c 18.251413
_cell_angle_alpha 90.000000
_cell_angle_beta 90.000000
_cell_angle_gamma 90.000000
_cell_volume 6772.788482
_symmetry_space_group_name_H-M "C M C A"
_symmetry_group_IT_number 64
_symmetry_cell_setting 'orthorhombic'
loop_
_space_group_symop_operation_xyz
x,y,z
-x,1/2-y,1/2+z
x,-y,-z
-x,1/2+y,1/2-z
-x,-y,-z
x,1/2+y,1/2-z
-x,y,z
x,1/2-y,1/2+z
1/2+x,1/2+y,z
1/2-x,-y,1/2+z
1/2+x,1/2-y,-z
1/2-x,y,1/2-z
1/2-x,1/2-y,-z
1/2+x,y,1/2-z
1/2-x,1/2+y,z
1/2+x,-y,1/2+z
loop_
_atom_site_type_symbol
_atom_site_label
_atom_site_fract_x
_atom_site_fract_y
_atom_site_fract_z
Si Si1 0.846581 0.742214 0.996365
Si Si2 0.935143 0.175899 0.247016
Si Si3 0.747014 0.474206 0.875396
Si Si4 0.564962 0.858336 0.907299
Si Si5 0.567308 0.465556 0.343749
Si Si6 0.259299 0.872488 0.479132
Si Si7 0.156780 0.037599 0.250281
Si Si8 0.933901 0.287341 0.119052
O O1 0.883505 0.681557 0.046971
O O2 0.822296 0.825916 0.033481
O O3 0.791342 0.693033 0.965095
O O4 0.889432 0.766240 0.929467
O O5 0.936504 0.194016 0.333032
O O6 0.880005 0.118138 0.230256
O O7 0.925857 0.260420 0.203467
O O8 0.000000 0.137784 0.225553
O O9 0.752754 0.559237 0.918385
O O10 0.800971 0.451377 0.821592
O O11 0.690072 0.485064 0.823915
O O12 0.740913 0.404150 0.936761
O O13 0.500000 0.852742 0.945440
O O14 0.580072 0.954038 0.893026
O O15 0.500000 0.465408 0.316086
O O16 0.609649 0.467564 0.272515
O O17 0.580826 0.383831 0.389709
O O18 0.000000 0.269695 0.091701
#
# Coordination Sequence:
#
# PCOD8261863 Si02
#       8
#    16  16  16  16  16  16  16  16
#     4  11  21  34  53  74 102 139 177 214 256 309
#     4   9  18  33  53  77 106 135 164 205 258 311
#     4  10  21  36  54  74 101 136 175 217 260 309
#     4   9  18  33  53  78 106 136 170 211 262 314
#     4   9  18  32  52  80 109 134 167 213 264 312
#     4  10  22  37  50  72 104 138 174 216 263 304
#     4  10  18  33  57  79  98 131 174 213 257 311
#     4  10  20  33  52  80 110 139 172 212 257 310
#
# _framework density 18.899158
#
# number of rings (size 3 to 8) (size 9 to 14) (size 15 to 20)
#    0.000    2.250    0.000    4.500    0.000    2.500 
#    0.000    1.875    0.000    8.250    0.000    9.625 
#    0.000    0.000    0.000    0.000    0.000    0.000 
#
# Total GULP energy -792906.636531 kJ/mol
# GULP energy per Si atom -12389.166196 kJ/mol
# Density = 1.885614 g / cm^3
# Si number density = 18.899158 Si / 1000 Ang^3
#
#
#
# Elastic Constant Matrix: (Units=GPa)
#
#
# Indices 1 2 3 4 5 6 
#
# 1 108.4418 38.1880 36.4933 0.0000 0.0000 0.0000
# 2 38.1880 75.8354 25.7094 0.0000 0.0000 0.0000
# 3 36.4933 25.7094 77.7529 0.0000 0.0000 0.0000
# 4 0.0000 0.0000 0.0000 21.6712 0.0000 0.0000
# 5 0.0000 0.0000 0.0000 0.0000 33.7598 0.0000
# 6 0.0000 0.0000 0.0000 0.0000 0.0000 27.1655
#
#
#
# Elastic Compliance Matrix: (Units=1/GPa)
#
#
# Indices 1 2 3 4 5 6 
#
# 1 0.012318 -0.004779 -0.004201 0.000000 0.000000 0.000000
# 2 -0.004779 0.016705 -0.003281 0.000000 0.000000 0.000000
# 3 -0.004201 -0.003281 0.015918 0.000000 0.000000 0.000000
# 4 0.000000 0.000000 0.000000 0.046144 0.000000 0.000000
# 5 0.000000 0.000000 0.000000 0.000000 0.029621 0.000000
# 6 0.000000 0.000000 0.000000 0.000000 0.000000 0.036811
#
#
# Mechanical properties :
#
#
# Convention : Reuss Voigt Hill
#
# Bulk Modulus (GPa) = 48.97271 51.42350 50.19811
# Shear Modulus (GPa) = 26.47659 27.29528 26.88593
#
# Velocity S-wave (km/s) = 3.74697 3.80446 3.77583
# Velocity P-wave (km/s) = 6.68496 6.82401 6.75484
#
# Compressibility (1/GPa) = 0.02041954
#
# Stress axis : x y z
#
# Youngs Moduli (GPa) = 81.18040 59.86219 62.82199
#
# Poissons Ratio (x) = 0.28606 0.26394
# Poissons Ratio (y) = 0.38793 0.20610
# Poissons Ratio (z) = 0.34108 0.19639
#
# Static dielectric constant tensor:
#      x y z
#    x 3.837810 0.000000 0.000000 
#    y 0.000000 3.386410 0.000000 
#    z 0.000000 0.000000 3.405360 
# 
# 
# High freq. dielectric constant tensor:
#      x y z
#    x 1.754980 0.000000 0.000000 
#    y 0.000000 1.714820 0.000000 
#    z 0.000000 0.000000 1.722930 
# 
# From -- ./inp_files/35170.got.cif
#   From: 2010.03.12/outbox.cif.g09.slc.cpg/sg64_18_cif.got.tgz:35170.got - 2010.04.10 20:19:32.
