data_PCOD8261090
_publ_section_title
;
Structure prediction by ZEFSAII (Michael W. Deem and Ramdas Pophale) SiO2 
 PCOD8261090
Probable space group: C M C M
;
_chemical_formula_sum "Si O2"
_cell_formula_units_Z 80
_cell_length_a 18.582087
_cell_length_b 26.682075
_cell_length_c 8.985230
_cell_angle_alpha 90.000000
_cell_angle_beta 90.000000
_cell_angle_gamma 90.000000
_cell_volume 4454.954657
_symmetry_space_group_name_H-M "C M C M"
_symmetry_group_IT_number 63
_symmetry_cell_setting 'orthorhombic'
loop_
_space_group_symop_operation_xyz
x,y,z
-x,-y,1/2+z
x,-y,-z
-x,y,1/2-z
-x,-y,-z
x,y,1/2-z
-x,y,z
x,-y,1/2+z
1/2+x,1/2+y,z
1/2-x,1/2-y,1/2+z
1/2+x,1/2-y,-z
1/2-x,1/2+y,1/2-z
1/2-x,1/2-y,-z
1/2+x,1/2+y,1/2-z
1/2-x,1/2+y,z
1/2+x,1/2-y,1/2+z
loop_
_atom_site_type_symbol
_atom_site_label
_atom_site_fract_x
_atom_site_fract_y
_atom_site_fract_z
Si Si1 0.919828 0.551105 0.923799
Si Si2 0.853277 0.948829 0.419244
Si Si3 0.417676 0.654819 0.925289
Si Si4 0.213739 0.797691 0.926167
Si Si5 0.284638 0.111459 0.921065
O O1 0.916356 0.540753 0.750000
O O2 0.864566 0.594763 0.968322
O O3 0.000000 0.567585 0.974469
O O4 0.895804 0.500000 0.000000
O O5 0.873761 0.958492 0.250000
O O6 0.900110 0.901790 0.479855
O O7 0.769054 0.935688 0.439769
O O8 0.873907 0.000000 0.500000
O O9 0.400934 0.659076 0.750000
O O10 0.500000 0.668042 0.962716
O O11 0.367018 0.694336 0.010826
O O12 0.209993 0.790730 0.750000
O O13 0.250000 0.750000 0.000000
O O14 0.263164 0.844841 0.967169
O O15 0.281676 0.130776 0.750000
#
# Coordination Sequence:
#
# PCOD8261090 Si02
#       5
#    16  16  16  16  16
#     4   9  17  29  47  72 103 138 172 209 255 304
#     4   9  17  28  45  71 102 137 172 205 244 292
#     4   9  19  37  57  77 106 140 170 206 255 304
#     4  11  22  37  58  80 101 129 169 214 261 310
#     4   9  18  33  50  70 100 135 172 214 259 306
#
# _framework density 17.957533999999999
#
# number of rings (size 3 to 8) (size 9 to 14) (size 15 to 20)
#    0.000    2.600    0.000    3.600    0.000    4.800 
#    0.000    1.000    0.000    3.600    0.000    0.000 
#    0.000    0.000    0.000    0.000    0.000    0.000 
#
# Total GULP energy -495924.122730 kJ/mol
# GULP energy per Si atom -12398.103068 kJ/mol
# Density = 1.791666 g / cm^3
# Si number density = 17.957534 Si / 1000 Ang^3
#
#
#
# Elastic Constant Matrix: (Units=GPa)
#
#
# Indices 1 2 3 4 5 6 
#
# 1 134.2454 57.6162 49.6271 0.0000 0.0000 0.0000
# 2 57.6162 94.0191 49.6081 0.0000 0.0000 0.0000
# 3 49.6271 49.6081 80.6960 0.0000 0.0000 0.0000
# 4 0.0000 0.0000 0.0000 33.9085 0.0000 0.0000
# 5 0.0000 0.0000 0.0000 0.0000 24.4719 0.0000
# 6 0.0000 0.0000 0.0000 0.0000 0.0000 18.7407
#
#
#
# Elastic Compliance Matrix: (Units=1/GPa)
#
#
# Indices 1 2 3 4 5 6 
#
# 1 0.010851 -0.004631 -0.003827 0.000000 0.000000 0.000000
# 2 -0.004631 0.017719 -0.008045 0.000000 0.000000 0.000000
# 3 -0.003827 -0.008045 0.019691 0.000000 0.000000 0.000000
# 4 0.000000 0.000000 0.000000 0.029491 0.000000 0.000000
# 5 0.000000 0.000000 0.000000 0.000000 0.040863 0.000000
# 6 0.000000 0.000000 0.000000 0.000000 0.000000 0.053360
#
#
# Mechanical properties :
#
#
# Convention : Reuss Voigt Hill
#
# Bulk Modulus (GPa) = 65.54490 69.18483 67.36487
# Shear Modulus (GPa) = 23.80224 25.56482 24.68353
#
# Velocity S-wave (km/s) = 3.64466 3.77719 3.71151
# Velocity P-wave (km/s) = 7.36821 7.59167 7.48077
#
# Compressibility (1/GPa) = 0.01525672
#
# Stress axis : x y z
#
# Youngs Moduli (GPa) = 92.15715 56.43802 50.78455
#
# Poissons Ratio (x) = 0.26134 0.19433
# Poissons Ratio (y) = 0.42674 0.40855
# Poissons Ratio (z) = 0.35265 0.45403
#
# Static dielectric constant tensor:
#      x y z
#    x 3.528250 0.000000 0.000000 
#    y 0.000000 3.172060 0.000000 
#    z 0.000000 0.000000 2.917370 
# 
# 
# High freq. dielectric constant tensor:
#      x y z
#    x 1.701340 0.000000 0.000000 
#    y 0.000000 1.677180 0.000000 
#    z 0.000000 0.000000 1.687270 
# 
# From -- ./inp_files/6434.got.cif
#   From: 2010.03.12/outbox.cif.g09.slc.cpg/sg63_4_cif.got.tgz:6434.got - 2010.04.10 19:34:48.
