data_PCOD8261705
_publ_section_title
;
Structure prediction by ZEFSAII (Michael W. Deem and Ramdas Pophale) SiO2 
 PCOD8261705
Probable space group: C M C A
;
_chemical_formula_sum "Si O2"
_cell_formula_units_Z 96
_cell_length_a 24.215587
_cell_length_b 13.224585
_cell_length_c 18.082805
_cell_angle_alpha 90.000000
_cell_angle_beta 90.000000
_cell_angle_gamma 90.000000
_cell_volume 5790.857158
_symmetry_space_group_name_H-M "C M C A"
_symmetry_group_IT_number 64
_symmetry_cell_setting 'orthorhombic'
loop_
_space_group_symop_operation_xyz
x,y,z
-x,1/2-y,1/2+z
x,-y,-z
-x,1/2+y,1/2-z
-x,-y,-z
x,1/2+y,1/2-z
-x,y,z
x,1/2-y,1/2+z
1/2+x,1/2+y,z
1/2-x,-y,1/2+z
1/2+x,1/2-y,-z
1/2-x,y,1/2-z
1/2-x,1/2-y,-z
1/2+x,y,1/2-z
1/2-x,1/2+y,z
1/2+x,-y,1/2+z
loop_
_atom_site_type_symbol
_atom_site_label
_atom_site_fract_x
_atom_site_fract_y
_atom_site_fract_z
Si Si1 0.262699 0.644420 0.835525
Si Si2 0.439465 0.866239 0.077116
Si Si3 0.060803 0.409240 0.904372
Si Si4 0.832065 0.254580 0.073068
Si Si5 0.671488 0.313570 0.596202
Si Si6 0.773365 0.549212 0.419930
O O1 0.250000 0.641389 0.750000
O O2 0.209895 0.669847 0.886355
O O3 0.308992 0.729376 0.846402
O O4 0.286372 0.535567 0.859004
O O5 0.500000 0.821263 0.096557
O O6 0.393639 0.783796 0.100437
O O7 0.430690 0.973461 0.118385
O O8 0.435541 0.893382 0.991554
O O9 0.111483 0.344853 0.871716
O O10 0.000000 0.372688 0.875986
O O11 0.818110 0.138501 0.091908
O O12 0.827538 0.266434 0.985361
O O13 0.711581 0.410298 0.594222
O O14 0.778916 0.500000 0.500000
#
# Coordination Sequence:
#
# PCOD8261705 Si02
#       6
#    16  16  16  16  16  16
#     4  11  22  33  46  72 101 127 162 207 245 291
#     4   8  14  25  44  73 100 123 158 206 244 277
#     4   8  14  24  44  74 101 122 156 205 247 280
#     4  10  18  31  52  71  95 129 161 199 244 300
#     4  10  18  30  52  71  97 128 161 198 246 299
#     4  11  18  30  48  70  94 134 168 194 242 298
#
# _framework density 16.577857000000002
#
# number of rings (size 3 to 8) (size 9 to 14) (size 15 to 20)
#    0.000    2.333    3.333    3.000    2.333    2.667 
#    0.000    0.000    0.000    2.500    0.000    0.000 
#    0.000    0.000    0.000    0.000    0.000    0.000 
#
# Total GULP energy -594899.837737 kJ/mol
# GULP energy per Si atom -12393.746620 kJ/mol
# Density = 1.654013 g / cm^3
# Si number density = 16.577857 Si / 1000 Ang^3
#
#
#
# Elastic Constant Matrix: (Units=GPa)
#
#
# Indices 1 2 3 4 5 6 
#
# 1 148.6403 68.6455 19.1690 0.0000 0.0000 0.0000
# 2 68.6455 112.0941 32.4136 0.0000 0.0000 0.0000
# 3 19.1690 32.4136 60.7030 0.0000 0.0000 0.0000
# 4 0.0000 0.0000 0.0000 13.8892 0.0000 0.0000
# 5 0.0000 0.0000 0.0000 0.0000 6.2182 0.0000
# 6 0.0000 0.0000 0.0000 0.0000 0.0000 31.0054
#
#
#
# Elastic Compliance Matrix: (Units=1/GPa)
#
#
# Indices 1 2 3 4 5 6 
#
# 1 0.009381 -0.005781 0.000124 0.000000 0.000000 0.000000
# 2 -0.005781 0.014113 -0.005710 0.000000 0.000000 0.000000
# 3 0.000124 -0.005710 0.019483 0.000000 0.000000 0.000000
# 4 0.000000 0.000000 0.000000 0.071998 0.000000 0.000000
# 5 0.000000 0.000000 0.000000 0.000000 0.160817 0.000000
# 6 0.000000 0.000000 0.000000 0.000000 0.000000 0.032252
#
#
# Mechanical properties :
#
#
# Convention : Reuss Voigt Hill
#
# Bulk Modulus (GPa) = 49.39777 62.43261 55.91519
# Shear Modulus (GPa) = 14.81364 23.63653 19.22509
#
# Velocity S-wave (km/s) = 2.99252 3.78006 3.40911
# Velocity P-wave (km/s) = 6.46548 7.53617 7.02126
#
# Compressibility (1/GPa) = 0.02024383
#
# Stress axis : x y z
#
# Youngs Moduli (GPa) = 106.59336 70.85907 51.32579
#
# Poissons Ratio (x) = 0.40964 -0.00639
# Poissons Ratio (y) = 0.61623 0.29307
# Poissons Ratio (z) = -0.01326 0.40461
#
# Static dielectric constant tensor:
#      x y z
#    x 3.438120 0.000000 0.000000 
#    y 0.000000 3.384090 0.000000 
#    z 0.000000 0.000000 2.681670 
# 
# 
# High freq. dielectric constant tensor:
#      x y z
#    x 1.636930 0.000000 0.000000 
#    y 0.000000 1.638120 0.000000 
#    z 0.000000 0.000000 1.591670 
# 
# From -- ./inp_files/34971.got.cif
#   From: 2010.03.12/outbox.cif.g09.slc.cpg/sg64_18_cif.got.tgz:34971.got - 2010.04.10 20:19:32.
