data_PCOD8261408
_publ_section_title
;
Structure prediction by ZEFSAII (Michael W. Deem and Ramdas Pophale) SiO2 
 PCOD8261408
Probable space group: C M C A
;
_chemical_formula_sum "Si O2"
_cell_formula_units_Z 112
_cell_length_a 17.447167
_cell_length_b 24.699358
_cell_length_c 14.543904
_cell_angle_alpha 90.000000
_cell_angle_beta 90.000000
_cell_angle_gamma 90.000000
_cell_volume 6267.460164
_symmetry_space_group_name_H-M "C M C A"
_symmetry_group_IT_number 64
_symmetry_cell_setting 'orthorhombic'
loop_
_space_group_symop_operation_xyz
x,y,z
-x,1/2-y,1/2+z
x,-y,-z
-x,1/2+y,1/2-z
-x,-y,-z
x,1/2+y,1/2-z
-x,y,z
x,1/2-y,1/2+z
1/2+x,1/2+y,z
1/2-x,-y,1/2+z
1/2+x,1/2-y,-z
1/2-x,y,1/2-z
1/2-x,1/2-y,-z
1/2+x,y,1/2-z
1/2-x,1/2+y,z
1/2+x,-y,1/2+z
loop_
_atom_site_type_symbol
_atom_site_label
_atom_site_fract_x
_atom_site_fract_y
_atom_site_fract_z
Si Si1 0.309666 0.418987 0.831888
Si Si2 0.911991 0.407721 0.117031
Si Si3 0.335409 0.300508 0.786222
Si Si4 0.412997 0.817972 0.892069
Si Si5 0.587437 0.214942 0.907086
Si Si6 0.411837 0.992019 0.776895
Si Si7 0.166278 0.426351 0.932886
O O1 0.250000 0.420320 0.750000
O O2 0.350139 0.360018 0.830986
O O3 0.370301 0.467517 0.813452
O O4 0.259543 0.431141 0.923751
O O5 0.892108 0.344787 0.132501
O O6 0.901052 0.442545 0.211220
O O7 0.000000 0.412038 0.081927
O O8 0.856933 0.432886 0.038710
O O9 0.250000 0.292662 0.750000
O O10 0.393004 0.286745 0.701818
O O11 0.353174 0.257068 0.864737
O O12 0.500000 0.839294 0.889902
O O13 0.355075 0.867834 0.893282
O O14 0.400554 0.781742 0.982753
O O15 0.500000 0.230220 0.881804
O O16 0.500000 0.976162 0.766619
O O17 0.378878 0.969497 0.872142
#
# Coordination Sequence:
#
# PCOD8261408 Si02
#       7
#    16  16  16  16  16  16  16
#     4   9  18  30  44  72 105 128 158 202 249 296
#     4   9  18  31  48  74 103 128 163 209 254 300
#     4  11  19  33  49  73 104 138 170 207 253 305
#     4  10  18  31  51  73  99 132 168 212 258 295
#     4   9  20  34  50  74 102 133 173 215 255 300
#     4  10  17  27  48  74  98 127 159 199 250 301
#     4  10  16  29  45  72 102 129 154 201 254 302
#
# _framework density 17.870077999999999
#
# number of rings (size 3 to 8) (size 9 to 14) (size 15 to 20)
#    0.000    2.286    4.286    3.000    0.000    2.286 
#    0.000    2.143    0.000    0.000    0.000    0.000 
#    0.000   22.857    0.000    0.571    0.000    0.000 
#
# Total GULP energy -693988.985886 kJ/mol
# GULP energy per Si atom -12392.660462 kJ/mol
# Density = 1.782940 g / cm^3
# Si number density = 17.870078 Si / 1000 Ang^3
#
#
#
# Elastic Constant Matrix: (Units=GPa)
#
#
# Indices 1 2 3 4 5 6 
#
# 1 85.0190 45.1133 43.2407 0.0000 0.0000 0.0000
# 2 45.1133 59.5898 37.5474 0.0000 0.0000 0.0000
# 3 43.2407 37.5474 55.4002 0.0000 0.0000 0.0000
# 4 0.0000 0.0000 0.0000 23.5787 0.0000 0.0000
# 5 0.0000 0.0000 0.0000 0.0000 26.5617 0.0000
# 6 0.0000 0.0000 0.0000 0.0000 0.0000 18.8158
#
#
#
# Elastic Compliance Matrix: (Units=1/GPa)
#
#
# Indices 1 2 3 4 5 6 
#
# 1 0.022753 -0.010534 -0.010619 0.000000 0.000000 0.000000
# 2 -0.010534 0.034166 -0.014934 0.000000 0.000000 0.000000
# 3 -0.010619 -0.014934 0.036461 0.000000 0.000000 0.000000
# 4 0.000000 0.000000 0.000000 0.042411 0.000000 0.000000
# 5 0.000000 0.000000 0.000000 0.000000 0.037648 0.000000
# 6 0.000000 0.000000 0.000000 0.000000 0.000000 0.053147
#
#
# Mechanical properties :
#
#
# Convention : Reuss Voigt Hill
#
# Bulk Modulus (GPa) = 47.15984 50.20128 48.68056
# Shear Modulus (GPa) = 16.34900 18.73177 17.54038
#
# Velocity S-wave (km/s) = 3.02798 3.24113 3.13637
# Velocity P-wave (km/s) = 6.21873 6.49307 6.35738
#
# Compressibility (1/GPa) = 0.02120448
#
# Stress axis : x y z
#
# Youngs Moduli (GPa) = 43.95080 29.26862 27.42678
#
# Poissons Ratio (x) = 0.30831 0.29126
# Poissons Ratio (y) = 0.46298 0.40960
# Poissons Ratio (z) = 0.46673 0.43710
#
# Static dielectric constant tensor:
#      x y z
#    x 3.509970 0.000000 0.000000 
#    y 0.000000 3.307370 0.000000 
#    z 0.000000 0.000000 3.225510 
# 
# 
# High freq. dielectric constant tensor:
#      x y z
#    x 1.686000 0.000000 0.000000 
#    y 0.000000 1.683450 0.000000 
#    z 0.000000 0.000000 1.656470 
# 
# From -- ./inp_files/24440.got.cif
#   From: 2010.03.12/outbox.cif.g09.slc.cpg/sg64_13_cif.got.tgz:24440.got - 2010.04.10 20:19:32.
