data_PCOD8261921
_publ_section_title
;
Structure prediction by ZEFSAII (Michael W. Deem and Ramdas Pophale) SiO2 
 PCOD8261921
Probable space group: C M C A
;
_chemical_formula_sum "Si O2"
_cell_formula_units_Z 88
_cell_length_a 12.610538
_cell_length_b 13.988752
_cell_length_c 27.422056
_cell_angle_alpha 90.000000
_cell_angle_beta 90.000000
_cell_angle_gamma 90.000000
_cell_volume 4837.406673
_symmetry_space_group_name_H-M "C M C A"
_symmetry_group_IT_number 64
_symmetry_cell_setting 'orthorhombic'
loop_
_space_group_symop_operation_xyz
x,y,z
-x,1/2-y,1/2+z
x,-y,-z
-x,1/2+y,1/2-z
-x,-y,-z
x,1/2+y,1/2-z
-x,y,z
x,1/2-y,1/2+z
1/2+x,1/2+y,z
1/2-x,-y,1/2+z
1/2+x,1/2-y,-z
1/2-x,y,1/2-z
1/2-x,1/2-y,-z
1/2+x,y,1/2-z
1/2-x,1/2+y,z
1/2+x,-y,1/2+z
loop_
_atom_site_type_symbol
_atom_site_label
_atom_site_fract_x
_atom_site_fract_y
_atom_site_fract_z
Si Si1 0.193815 0.414907 0.066621
Si Si2 0.377106 0.615719 0.461418
Si Si3 0.625337 0.795738 0.392634
Si Si4 0.500000 0.567615 0.296717
Si Si5 0.340485 0.765466 0.787741
Si Si6 0.500000 0.131311 0.760407
Si Si7 0.000000 0.095930 0.633587
O O1 0.189370 0.529573 0.062685
O O2 0.311451 0.386214 0.085329
O O3 0.105208 0.377847 0.104104
O O4 0.169076 0.364738 0.015077
O O5 0.500000 0.583707 0.464835
O O6 0.362493 0.710324 0.430509
O O7 0.500000 0.819594 0.383553
O O8 0.685610 0.765520 0.342944
O O9 0.600637 0.634082 0.290682
O O10 0.500000 0.484446 0.255352
O O11 0.500000 0.517363 0.350386
O O12 0.250000 0.789435 0.750000
O O13 0.398403 0.674233 0.765336
O O14 0.500000 0.160684 0.817592
#
# Coordination Sequence:
#
# PCOD8261921 Si02
#       7
#    16  16  16   8  16   8   8
#     4  11  19  35  64  89 117 153 204 249 293 348
#     4  10  20  38  61  92 119 155 206 251 290 357
#     4  11  23  39  60  86 125 160 196 239 309 362
#     4   9  21  38  58  81 113 143 197 240 299 338
#     4  11  21  40  57  83 115 154 191 242 296 353
#     4   9  21  36  55  82 116 142 194 238 288 345
#     4  10  18  35  59  91 109 147 203 251 285 341
#
# _framework density 18.191565000000001
#
# number of rings (size 3 to 8) (size 9 to 14) (size 15 to 20)
#    0.545    1.091    3.636    3.273    0.000    0.727 
#    3.273    1.818    2.000    0.000    0.000    0.000 
#    0.000    0.000    0.000    0.000    0.000    0.000 
#
# Total GULP energy -545290.781150 kJ/mol
# GULP energy per Si atom -12392.972299 kJ/mol
# Density = 1.815016 g / cm^3
# Si number density = 18.191565 Si / 1000 Ang^3
#
#
#
# Elastic Constant Matrix: (Units=GPa)
#
#
# Indices 1 2 3 4 5 6 
#
# 1 96.6129 33.7869 45.9154 0.0000 0.0000 0.0000
# 2 33.7869 77.1506 36.5684 0.0000 0.0000 0.0000
# 3 45.9154 36.5684 104.8388 0.0000 0.0000 0.0000
# 4 0.0000 0.0000 0.0000 27.1202 0.0000 0.0000
# 5 0.0000 0.0000 0.0000 0.0000 20.2180 0.0000
# 6 0.0000 0.0000 0.0000 0.0000 0.0000 11.1221
#
#
#
# Elastic Compliance Matrix: (Units=1/GPa)
#
#
# Indices 1 2 3 4 5 6 
#
# 1 0.013967 -0.003854 -0.004772 0.000000 0.000000 0.000000
# 2 -0.003854 0.016593 -0.004100 0.000000 0.000000 0.000000
# 3 -0.004772 -0.004100 0.013059 0.000000 0.000000 0.000000
# 4 0.000000 0.000000 0.000000 0.036873 0.000000 0.000000
# 5 0.000000 0.000000 0.000000 0.000000 0.049461 0.000000
# 6 0.000000 0.000000 0.000000 0.000000 0.000000 0.089911
#
#
# Mechanical properties :
#
#
# Convention : Reuss Voigt Hill
#
# Bulk Modulus (GPa) = 55.05042 56.79375 55.92209
# Shear Modulus (GPa) = 19.89096 22.51416 21.20256
#
# Velocity S-wave (km/s) = 3.31027 3.52179 3.41767
# Velocity P-wave (km/s) = 6.70356 6.91556 6.81039
#
# Compressibility (1/GPa) = 0.01816516
#
# Stress axis : x y z
#
# Youngs Moduli (GPa) = 71.59933 60.26714 76.57810
#
# Poissons Ratio (x) = 0.23229 0.36546
# Poissons Ratio (y) = 0.27597 0.31394
# Poissons Ratio (z) = 0.34170 0.24707
#
# Static dielectric constant tensor:
#      x y z
#    x 3.186260 0.000000 0.000000 
#    y 0.000000 3.157220 0.000000 
#    z 0.000000 0.000000 3.582690 
# 
# 
# High freq. dielectric constant tensor:
#      x y z
#    x 1.689830 0.000000 0.000000 
#    y 0.000000 1.692510 0.000000 
#    z 0.000000 0.000000 1.725410 
# 
# From -- ./inp_files/52765.got.cif
#   From: 2010.03.12/outbox.cif.g09.slc.cpg/sg64_27_cif.got.tgz:52765.got - 2010.04.10 20:19:32.
