data_PCOD8261958
_publ_section_title
;
Structure prediction by ZEFSAII (Michael W. Deem and Ramdas Pophale) SiO2 
 PCOD8261958
Probable space group: C M C A
;
_chemical_formula_sum "Si O2"
_cell_formula_units_Z 104
_cell_length_a 31.645269
_cell_length_b 17.661359
_cell_length_c 9.551804
_cell_angle_alpha 90.000000
_cell_angle_beta 90.000000
_cell_angle_gamma 90.000000
_cell_volume 5338.488512
_symmetry_space_group_name_H-M "C M C A"
_symmetry_group_IT_number 64
_symmetry_cell_setting 'orthorhombic'
loop_
_space_group_symop_operation_xyz
x,y,z
-x,1/2-y,1/2+z
x,-y,-z
-x,1/2+y,1/2-z
-x,-y,-z
x,1/2+y,1/2-z
-x,y,z
x,1/2-y,1/2+z
1/2+x,1/2+y,z
1/2-x,-y,1/2+z
1/2+x,1/2-y,-z
1/2-x,y,1/2-z
1/2-x,1/2-y,-z
1/2+x,y,1/2-z
1/2-x,1/2+y,z
1/2+x,-y,1/2+z
loop_
_atom_site_type_symbol
_atom_site_label
_atom_site_fract_x
_atom_site_fract_y
_atom_site_fract_z
Si Si1 0.451860 0.821081 0.478195
Si Si2 0.193334 0.588379 0.742996
Si Si3 0.549912 0.527052 0.345472
Si Si4 0.893576 0.446562 0.378436
Si Si5 0.746380 0.340840 0.475255
Si Si6 0.250000 0.555409 0.250000
Si Si7 0.047622 0.690926 0.205897
O O1 0.500000 0.844125 0.435364
O O2 0.420184 0.889939 0.473331
O O3 0.430557 0.758609 0.377731
O O4 0.451273 0.787236 0.632715
O O5 0.143438 0.588655 0.716277
O O6 0.213389 0.633894 0.614206
O O7 0.204522 0.634035 0.886562
O O8 0.209510 0.500911 0.747228
O O9 0.561228 0.500000 0.500000
O O10 0.500000 0.523617 0.314069
O O11 0.572600 0.478206 0.229404
O O12 0.569161 0.611041 0.328434
O O13 0.874251 0.500000 0.500000
O O14 0.750000 0.250000 0.500000
O O15 0.747036 0.388438 0.618268
O O16 0.000000 0.685691 0.147799
#
# Coordination Sequence:
#
# PCOD8261958 Si02
#       7
#    16  16  16  16  16   8  16
#     4  10  21  37  60  82 115 163 211 259 313 367
#     4  10  22  39  59  92 122 155 196 235 300 362
#     4  10  22  38  58  84 117 160 213 266 311 362
#     4  12  23  39  59  87 125 162 207 257 302 366
#     4  10  20  40  67  91 119 152 195 241 290 357
#     4  10  18  38  68  86 114 158 192 234 292 362
#     4   9  19  37  57  81 109 153 210 258 311 363
#
# _framework density 19.481169999999999
#
# number of rings (size 3 to 8) (size 9 to 14) (size 15 to 20)
#    0.000    2.000    1.538    4.154    2.154    1.846 
#    2.769    1.538    0.000    0.000    0.000    0.000 
#    0.000    0.000    0.000    0.000    0.000    0.000 
#
# Total GULP energy -644400.739706 kJ/mol
# GULP energy per Si atom -12392.321917 kJ/mol
# Density = 1.943683 g / cm^3
# Si number density = 19.481170 Si / 1000 Ang^3
#
#
#
# Elastic Constant Matrix: (Units=GPa)
#
#
# Indices 1 2 3 4 5 6 
#
# 1 70.0388 35.3753 37.3461 0.0000 0.0000 0.0000
# 2 35.3753 127.4390 61.4601 0.0000 0.0000 0.0000
# 3 37.3461 61.4601 134.5728 0.0000 0.0000 0.0000
# 4 0.0000 0.0000 0.0000 44.3028 0.0000 0.0000
# 5 0.0000 0.0000 0.0000 0.0000 -3.8615 0.0000
# 6 0.0000 0.0000 0.0000 0.0000 0.0000 106.1050
#
#
#
# Elastic Compliance Matrix: (Units=1/GPa)
#
#
# Indices 1 2 3 4 5 6 
#
# 1 0.017763 -0.003275 -0.003434 0.000000 0.000000 0.000000
# 2 -0.003275 0.010667 -0.003963 0.000000 0.000000 0.000000
# 3 -0.003434 -0.003963 0.010194 0.000000 0.000000 0.000000
# 4 0.000000 0.000000 0.000000 0.022572 0.000000 0.000000
# 5 0.000000 0.000000 0.000000 0.000000 -0.258967 0.000000
# 6 0.000000 0.000000 0.000000 0.000000 0.000000 0.009425
#
#
# Mechanical properties :
#
#
# Convention : Reuss Voigt Hill
#
# Bulk Modulus (GPa) = 57.86812 66.71264 62.29038
# Shear Modulus (GPa) = -31.00906 42.50052 5.74573
#
# Velocity S-wave (km/s) = -3.99400 4.67585 1.71924
# Velocity P-wave (km/s) = 2.91544 7.96683 5.99876
#
# Compressibility (1/GPa) = 0.01728067
#
# Stress axis : x y z
#
# Youngs Moduli (GPa) = 56.29745 93.74616 98.09887
#
# Poissons Ratio (x) = 0.30698 0.33686
# Poissons Ratio (y) = 0.18435 0.38876
# Poissons Ratio (z) = 0.19332 0.37151
#
# Static dielectric constant tensor:
#      x y z
#    x 3.254400 0.000000 0.000000 
#    y 0.000000 3.590410 0.000000 
#    z 0.000000 0.000000 3.610850 
# 
# 
# High freq. dielectric constant tensor:
#      x y z
#    x 1.724990 0.000000 0.000000 
#    y 0.000000 1.765650 0.000000 
#    z 0.000000 0.000000 1.777230 
# 
# From -- ./inp_files/11204.got.cif
#   From: 2010.03.12/outbox.cif.g09.slc.cpg/sg64_6_cif.got.tgz:11204.got - 2010.04.10 20:19:32.
