data_PCOD8261692
_publ_section_title
;
Structure prediction by ZEFSAII (Michael W. Deem and Ramdas Pophale) SiO2 
 PCOD8261692
Probable space group: C M C A
;
_chemical_formula_sum "Si O2"
_cell_formula_units_Z 112
_cell_length_a 13.961955
_cell_length_b 25.029813
_cell_length_c 15.604697
_cell_angle_alpha 90.000000
_cell_angle_beta 90.000000
_cell_angle_gamma 90.000000
_cell_volume 5453.297353
_symmetry_space_group_name_H-M "C M C A"
_symmetry_group_IT_number 64
_symmetry_cell_setting 'orthorhombic'
loop_
_space_group_symop_operation_xyz
x,y,z
-x,1/2-y,1/2+z
x,-y,-z
-x,1/2+y,1/2-z
-x,-y,-z
x,1/2+y,1/2-z
-x,y,z
x,1/2-y,1/2+z
1/2+x,1/2+y,z
1/2-x,-y,1/2+z
1/2+x,1/2-y,-z
1/2-x,y,1/2-z
1/2-x,1/2-y,-z
1/2+x,y,1/2-z
1/2-x,1/2+y,z
1/2+x,-y,1/2+z
loop_
_atom_site_type_symbol
_atom_site_label
_atom_site_fract_x
_atom_site_fract_y
_atom_site_fract_z
Si Si1 0.609409 0.508245 0.195745
Si Si2 0.885813 0.312458 0.598749
Si Si3 0.612842 0.714267 0.913489
Si Si4 0.888576 0.200334 0.284282
Si Si5 0.889499 0.582370 0.151085
Si Si6 0.294646 0.577105 0.059808
Si Si7 0.110004 0.595394 0.611688
O O1 0.500000 0.525555 0.181772
O O2 0.643196 0.534447 0.284977
O O3 0.668628 0.527427 0.114320
O O4 0.620570 0.442995 0.195469
O O5 0.850539 0.281510 0.512669
O O6 0.850084 0.285332 0.688172
O O7 0.842559 0.370989 0.600055
O O8 0.000000 0.317979 0.599154
O O9 0.500000 0.721965 0.915196
O O10 0.660701 0.761198 0.855937
O O11 0.640100 0.656860 0.870926
O O12 0.868811 0.138494 0.302581
O O13 0.000000 0.212957 0.286501
O O14 0.821521 0.579133 0.067890
O O15 0.000000 0.577080 0.121850
O O16 0.321974 0.570556 0.961165
O O17 0.000000 0.594682 0.578464
#
# Coordination Sequence:
#
# PCOD8261692 Si02
#       7
#    16  16  16  16  16  16  16
#     4  10  18  30  50  81 111 132 166 220 275 324
#     4   9  16  27  47  77 110 137 173 221 266 316
#     4   8  15  28  47  76 109 142 173 209 261 321
#     4   9  16  29  48  72 109 145 178 217 261 314
#     4  10  21  33  49  79 108 138 182 225 262 314
#     4  11  18  29  50  79 105 139 170 215 275 321
#     4   9  18  31  51  81 113 136 169 221 275 328
#
# _framework density 20.538032999999999
#
# number of rings (size 3 to 8) (size 9 to 14) (size 15 to 20)
#    0.000    2.571    1.429    3.000    0.000    1.143 
#    0.000    2.857    0.000    1.714   18.571    0.000 
#    0.000    0.000    0.000    0.000    0.000    0.000 
#
# Total GULP energy -693814.008367 kJ/mol
# GULP energy per Si atom -12389.535864 kJ/mol
# Density = 2.049129 g / cm^3
# Si number density = 20.538033 Si / 1000 Ang^3
#
#
#
# Elastic Constant Matrix: (Units=GPa)
#
#
# Indices 1 2 3 4 5 6 
#
# 1 39.8291 15.7083 27.0338 0.0000 0.0000 0.0000
# 2 15.7083 68.6674 70.3387 0.0000 0.0000 0.0000
# 3 27.0338 70.3387 105.1456 0.0000 0.0000 0.0000
# 4 0.0000 0.0000 0.0000 31.4663 0.0000 0.0000
# 5 0.0000 0.0000 0.0000 0.0000 21.5565 0.0000
# 6 0.0000 0.0000 0.0000 0.0000 0.0000 1.3148
#
#
#
# Elastic Compliance Matrix: (Units=1/GPa)
#
#
# Indices 1 2 3 4 5 6 
#
# 1 0.030659 0.003371 -0.010138 0.000000 0.000000 0.000000
# 2 0.003371 0.046638 -0.032066 0.000000 0.000000 0.000000
# 3 -0.010138 -0.032066 0.033568 0.000000 0.000000 0.000000
# 4 0.000000 0.000000 0.000000 0.031780 0.000000 0.000000
# 5 0.000000 0.000000 0.000000 0.000000 0.046390 0.000000
# 6 0.000000 0.000000 0.000000 0.000000 0.000000 0.760546
#
#
# Mechanical properties :
#
#
# Convention : Reuss Voigt Hill
#
# Bulk Modulus (GPa) = 30.12087 48.86707 39.49397
# Shear Modulus (GPa) = 4.81550 17.57161 11.19356
#
# Velocity S-wave (km/s) = 1.53289 2.92818 2.33709
# Velocity P-wave (km/s) = 4.22265 5.93948 5.15306
#
# Compressibility (1/GPa) = 0.03319958
#
# Stress axis : x y z
#
# Youngs Moduli (GPa) = 32.61721 21.44153 29.79014
#
# Poissons Ratio (x) = -0.07228 0.30200
# Poissons Ratio (y) = -0.10995 0.95525
# Poissons Ratio (z) = 0.33066 0.68755
#
# Static dielectric constant tensor:
#      x y z
#    x 3.568570 0.000000 0.000000 
#    y 0.000000 3.805900 0.000000 
#    z 0.000000 0.000000 3.815000 
# 
# 
# High freq. dielectric constant tensor:
#      x y z
#    x 1.790390 0.000000 0.000000 
#    y 0.000000 1.793060 0.000000 
#    z 0.000000 0.000000 1.778270 
# 
# From -- ./inp_files/24417.got.cif
#   From: 2010.03.12/outbox.cif.g09.slc.cpg/sg64_13_cif.got.tgz:24417.got - 2010.04.10 20:19:32.
