data_PCOD8261190
_publ_section_title
;
Structure prediction by ZEFSAII (Michael W. Deem and Ramdas Pophale) SiO2 
 PCOD8261190
Probable space group: C M C M
;
_chemical_formula_sum "Si O2"
_cell_formula_units_Z 80
_cell_length_a 28.443707
_cell_length_b 8.136869
_cell_length_c 17.897591
_cell_angle_alpha 90.000000
_cell_angle_beta 90.000000
_cell_angle_gamma 90.000000
_cell_volume 4142.267102
_symmetry_space_group_name_H-M "C M C M"
_symmetry_group_IT_number 63
_symmetry_cell_setting 'orthorhombic'
loop_
_space_group_symop_operation_xyz
x,y,z
-x,-y,1/2+z
x,-y,-z
-x,y,1/2-z
-x,-y,-z
x,y,1/2-z
-x,y,z
x,-y,1/2+z
1/2+x,1/2+y,z
1/2-x,1/2-y,1/2+z
1/2+x,1/2-y,-z
1/2-x,1/2+y,1/2-z
1/2-x,1/2-y,-z
1/2+x,1/2+y,1/2-z
1/2-x,1/2+y,z
1/2+x,1/2-y,1/2+z
loop_
_atom_site_type_symbol
_atom_site_label
_atom_site_fract_x
_atom_site_fract_y
_atom_site_fract_z
Si Si1 0.449051 0.817710 0.968687
Si Si2 0.393590 0.088973 0.166345
Si Si3 0.220236 0.090380 0.076282
Si Si4 0.202017 0.220609 0.834300
Si Si5 0.862639 0.343434 0.052658
O O1 0.500000 0.726985 0.976964
O O2 0.435457 0.828422 0.881303
O O3 0.406167 0.736930 0.016501
O O4 0.454014 0.000000 0.000000
O O5 0.412115 0.059967 0.250000
O O6 0.350288 0.212927 0.164824
O O7 0.377440 0.911990 0.133815
O O8 0.266545 0.171368 0.110382
O O9 0.182459 0.230170 0.058694
O O10 0.199307 0.965379 0.136639
O O11 0.234845 0.000000 0.000000
O O12 0.222786 0.223416 0.750000
O O13 0.851310 0.500000 0.000000
#
# Coordination Sequence:
#
# PCOD8261190 Si02
#       5
#    16  16  16  16  16
#     4   8  15  30  51  76 104 130 163 213 267 310
#     4   9  18  33  52  75 104 137 174 214 258 314
#     4  12  23  36  56  78 104 142 187 225 260 316
#     4  11  24  38  52  76 111 145 177 219 271 319
#     4   9  19  35  53  77 106 135 170 217 266 308
#
# _framework density 19.313096000000002
#
# number of rings (size 3 to 8) (size 9 to 14) (size 15 to 20)
#    0.000    2.600    0.000    4.800    0.000    7.600 
#    0.000    0.000    0.000    5.400    0.000    0.000 
#    0.000    0.000    0.000    0.000    0.000    0.000 
#
# Total GULP energy -495745.121218 kJ/mol
# GULP energy per Si atom -12393.628030 kJ/mol
# Density = 1.926914 g / cm^3
# Si number density = 19.313096 Si / 1000 Ang^3
#
#
#
# Elastic Constant Matrix: (Units=GPa)
#
#
# Indices 1 2 3 4 5 6 
#
# 1 74.4403 20.8685 43.8297 0.0000 0.0000 0.0000
# 2 20.8685 58.6186 34.0819 0.0000 0.0000 0.0000
# 3 43.8297 34.0819 121.2585 0.0000 0.0000 0.0000
# 4 0.0000 0.0000 0.0000 28.0796 0.0000 0.0000
# 5 0.0000 0.0000 0.0000 0.0000 16.4308 0.0000
# 6 0.0000 0.0000 0.0000 0.0000 0.0000 -11.3869
#
#
#
# Elastic Compliance Matrix: (Units=1/GPa)
#
#
# Indices 1 2 3 4 5 6 
#
# 1 0.017511 -0.003053 -0.005471 0.000000 0.000000 0.000000
# 2 -0.003053 0.020924 -0.004778 0.000000 0.000000 0.000000
# 3 -0.005471 -0.004778 0.011567 0.000000 0.000000 0.000000
# 4 0.000000 0.000000 0.000000 0.035613 0.000000 0.000000
# 5 0.000000 0.000000 0.000000 0.000000 0.060861 0.000000
# 6 0.000000 0.000000 0.000000 0.000000 0.000000 -0.087820
#
#
# Mechanical properties :
#
#
# Convention : Reuss Voigt Hill
#
# Bulk Modulus (GPa) = 42.73749 50.20863 46.47306
# Shear Modulus (GPa) = 53.72896 16.99386 35.36141
#
# Velocity S-wave (km/s) = 5.28019 2.96955 4.28361
# Velocity P-wave (km/s) = 7.70393 6.14909 6.97000
#
# Compressibility (1/GPa) = 0.02339866
#
# Stress axis : x y z
#
# Youngs Moduli (GPa) = 57.10727 47.79190 86.45024
#
# Poissons Ratio (x) = 0.14590 0.47300
# Poissons Ratio (y) = 0.17434 0.41303
# Poissons Ratio (z) = 0.31246 0.22833
#
# Static dielectric constant tensor:
#      x y z
#    x 4.217140 0.000000 0.000000 
#    y 0.000000 3.322600 0.000000 
#    z 0.000000 0.000000 4.033530 
# 
# 
# High freq. dielectric constant tensor:
#      x y z
#    x 1.753090 0.000000 0.000000 
#    y 0.000000 1.715710 0.000000 
#    z 0.000000 0.000000 1.764580 
# 
# From -- ./inp_files/49392.got.cif
#   From: 2010.03.12/outbox.cif.g09.slc.cpg/sg63_25_cif.got.tgz:49392.got - 2010.04.10 19:34:48.
