data_PCOD8261480
_publ_section_title
;
Structure prediction by ZEFSAII (Michael W. Deem and Ramdas Pophale) SiO2 
 PCOD8261480
Probable space group: C M C A
;
_chemical_formula_sum "Si O2"
_cell_formula_units_Z 64
_cell_length_a 8.437528
_cell_length_b 18.963276
_cell_length_c 21.137794
_cell_angle_alpha 90.000000
_cell_angle_beta 90.000000
_cell_angle_gamma 90.000000
_cell_volume 3382.114094
_symmetry_space_group_name_H-M "C M C A"
_symmetry_group_IT_number 64
_symmetry_cell_setting 'orthorhombic'
loop_
_space_group_symop_operation_xyz
x,y,z
-x,1/2-y,1/2+z
x,-y,-z
-x,1/2+y,1/2-z
-x,-y,-z
x,1/2+y,1/2-z
-x,y,z
x,1/2-y,1/2+z
1/2+x,1/2+y,z
1/2-x,-y,1/2+z
1/2+x,1/2-y,-z
1/2-x,y,1/2-z
1/2-x,1/2-y,-z
1/2+x,y,1/2-z
1/2-x,1/2+y,z
1/2+x,-y,1/2+z
loop_
_atom_site_type_symbol
_atom_site_label
_atom_site_fract_x
_atom_site_fract_y
_atom_site_fract_z
Si Si1 0.184967 0.551803 0.944059
Si Si2 0.684283 0.956318 0.314731
Si Si3 0.313670 0.800636 0.187508
Si Si4 0.185026 0.793544 0.058131
O O1 0.228279 0.513802 0.877376
O O2 0.280540 0.624065 0.952287
O O3 0.000000 0.569853 0.946031
O O4 0.236160 0.500000 0.000000
O O5 0.500000 0.972730 0.320317
O O6 0.750000 0.991960 0.250000
O O7 0.715939 0.873170 0.312641
O O8 0.500000 0.814811 0.191740
O O9 0.250000 0.758378 0.250000
O O10 0.270039 0.762588 0.121609
O O11 0.000000 0.780819 0.065027
O O12 0.250000 0.750000 0.000000
#
# Coordination Sequence:
#
# PCOD8261480 Si02
#       4
#    16  16  16  16
#     4  10  20  34  52  75 103 133 166 205 250 298
#     4  10  17  27  45  69  97 127 163 205 247 290
#     4  10  17  28  46  70  98 127 163 205 249 292
#     4  11  21  34  52  75 103 134 169 207 250 298
#
# _framework density 18.923075999999998
#
# number of rings (size 3 to 8) (size 9 to 14) (size 15 to 20)
#    0.000    1.750    0.000   12.000    0.000    2.000 
#    0.000    0.000    0.000    1.500    0.000    3.500 
#    0.000    0.000    0.000    0.000    0.000    0.000 
#
# Total GULP energy -396642.845774 kJ/mol
# GULP energy per Si atom -12395.088930 kJ/mol
# Density = 1.888001 g / cm^3
# Si number density = 18.923076 Si / 1000 Ang^3
#
#
#
# Elastic Constant Matrix: (Units=GPa)
#
#
# Indices 1 2 3 4 5 6 
#
# 1 97.9036 14.2060 42.2725 0.0000 0.0000 0.0000
# 2 14.2060 28.0987 41.6656 0.0000 0.0000 0.0000
# 3 42.2725 41.6656 217.7824 0.0000 0.0000 0.0000
# 4 0.0000 0.0000 0.0000 26.9773 0.0000 0.0000
# 5 0.0000 0.0000 0.0000 0.0000 40.2183 0.0000
# 6 0.0000 0.0000 0.0000 0.0000 0.0000 17.9176
#
#
#
# Elastic Compliance Matrix: (Units=1/GPa)
#
#
# Indices 1 2 3 4 5 6 
#
# 1 0.011385 -0.003461 -0.001548 0.000000 0.000000 0.000000
# 2 -0.003461 0.050736 -0.009035 0.000000 0.000000 0.000000
# 3 -0.001548 -0.009035 0.006621 0.000000 0.000000 0.000000
# 4 0.000000 0.000000 0.000000 0.037068 0.000000 0.000000
# 5 0.000000 0.000000 0.000000 0.000000 0.024864 0.000000
# 6 0.000000 0.000000 0.000000 0.000000 0.000000 0.055811
#
#
# Mechanical properties :
#
#
# Convention : Reuss Voigt Hill
#
# Bulk Modulus (GPa) = 24.59771 60.00809 42.30290
# Shear Modulus (GPa) = 21.91807 33.39868 27.65838
#
# Velocity S-wave (km/s) = 3.40703 4.20571 3.82726
# Velocity P-wave (km/s) = 5.33893 7.44073 6.47567
#
# Compressibility (1/GPa) = 0.04065419
#
# Stress axis : x y z
#
# Youngs Moduli (GPa) = 87.83832 19.71003 151.04197
#
# Poissons Ratio (x) = 0.06821 0.23377
# Poissons Ratio (y) = 0.30399 1.36464
# Poissons Ratio (z) = 0.13595 0.17808
#
# Static dielectric constant tensor:
#      x y z
#    x 3.525890 0.000000 0.000000 
#    y 0.000000 2.539500 0.000000 
#    z 0.000000 0.000000 4.390950 
# 
# 
# High freq. dielectric constant tensor:
#      x y z
#    x 1.756580 0.000000 0.000000 
#    y 0.000000 1.647640 0.000000 
#    z 0.000000 0.000000 1.775570 
# 
# From -- ./inp_files/29237.got.cif
#   From: 2010.03.12/outbox.cif.g09.slc.cpg/sg64_15_cif.got.tgz:29237.got - 2010.04.10 20:19:32.
