data_PCOD8262049
_publ_section_title
;
Structure prediction by ZEFSAII (Michael W. Deem and Ramdas Pophale) SiO2 
 PCOD8262049
Probable space group: C M C A
;
_chemical_formula_sum "Si O2"
_cell_formula_units_Z 80
_cell_length_a 26.645193
_cell_length_b 35.698873
_cell_length_c 5.120196
_cell_angle_alpha 90.000000
_cell_angle_beta 90.000000
_cell_angle_gamma 90.000000
_cell_volume 4870.347644
_symmetry_space_group_name_H-M "C M C A"
_symmetry_group_IT_number 64
_symmetry_cell_setting 'orthorhombic'
loop_
_space_group_symop_operation_xyz
x,y,z
-x,1/2-y,1/2+z
x,-y,-z
-x,1/2+y,1/2-z
-x,-y,-z
x,1/2+y,1/2-z
-x,y,z
x,1/2-y,1/2+z
1/2+x,1/2+y,z
1/2-x,-y,1/2+z
1/2+x,1/2-y,-z
1/2-x,y,1/2-z
1/2-x,1/2-y,-z
1/2+x,y,1/2-z
1/2-x,1/2+y,z
1/2+x,-y,1/2+z
loop_
_atom_site_type_symbol
_atom_site_label
_atom_site_fract_x
_atom_site_fract_y
_atom_site_fract_z
Si Si1 0.809243 0.100134 0.732096
Si Si2 0.555937 0.955585 0.519563
Si Si3 0.885452 0.044236 0.524352
Si Si4 0.809482 0.144435 0.237674
Si Si5 0.809839 0.728255 0.262293
O O1 0.750000 0.093213 0.750000
O O2 0.833213 0.061302 0.630253
O O3 0.827217 0.130614 0.520203
O O4 0.828368 0.116014 0.010848
O O5 0.500000 0.940276 0.578567
O O6 0.573588 0.942002 0.235717
O O7 0.555279 0.000000 0.500000
O O8 0.594301 0.941195 0.744257
O O9 0.877212 0.000000 0.500000
O O10 0.750000 0.145638 0.250000
O O11 0.830721 0.186243 0.193035
O O12 0.830443 0.754367 0.494033
O O13 0.750000 0.727678 0.250000
#
# Coordination Sequence:
#
# PCOD8262049 Si02
#       5
#    16  16  16  16  16
#     4  10  19  31  43  58  84 120 155 183 210 244
#     4   9  17  30  48  67  85 103 130 177 232 279
#     4  10  19  31  46  65  85 110 149 187 218 256
#     4   9  17  28  41  56  79 112 148 180 212 252
#     4   9  15  23  37  57  77  99 135 181 216 244
#
# _framework density 16.425932
#
# number of rings (size 3 to 8) (size 9 to 14) (size 15 to 20)
#    0.000    2.600    0.000    3.000    0.000    7.200 
#    0.000    6.000    0.000    0.000    0.000    0.000 
#    0.000    0.000    0.000    0.000    0.000  252.000 
#
# Total GULP energy -495603.264883 kJ/mol
# GULP energy per Si atom -12390.081622 kJ/mol
# Density = 1.638855 g / cm^3
# Si number density = 16.425932 Si / 1000 Ang^3
#
#
#
# Elastic Constant Matrix: (Units=GPa)
#
#
# Indices 1 2 3 4 5 6 
#
# 1 46.7829 30.4442 29.0244 0.0000 0.0000 0.0000
# 2 30.4442 71.4316 39.7370 0.0000 0.0000 0.0000
# 3 29.0244 39.7370 129.3075 0.0000 0.0000 0.0000
# 4 0.0000 0.0000 0.0000 28.2011 0.0000 0.0000
# 5 0.0000 0.0000 0.0000 0.0000 22.0118 0.0000
# 6 0.0000 0.0000 0.0000 0.0000 0.0000 2.2155
#
#
#
# Elastic Compliance Matrix: (Units=1/GPa)
#
#
# Indices 1 2 3 4 5 6 
#
# 1 0.030822 -0.011203 -0.003476 0.000000 0.000000 0.000000
# 2 -0.011203 0.020958 -0.003926 0.000000 0.000000 0.000000
# 3 -0.003476 -0.003926 0.009720 0.000000 0.000000 0.000000
# 4 0.000000 0.000000 0.000000 0.035460 0.000000 0.000000
# 5 0.000000 0.000000 0.000000 0.000000 0.045430 0.000000
# 6 0.000000 0.000000 0.000000 0.000000 0.000000 0.451356
#
#
# Mechanical properties :
#
#
# Convention : Reuss Voigt Hill
#
# Bulk Modulus (GPa) = 41.16706 49.54814 45.35760
# Shear Modulus (GPa) = 7.82410 20.37346 14.09878
#
# Velocity S-wave (km/s) = 2.18486 3.52564 2.93290
# Velocity P-wave (km/s) = 5.61083 6.84132 6.25640
#
# Compressibility (1/GPa) = 0.02429127
#
# Stress axis : x y z
#
# Youngs Moduli (GPa) = 32.44447 47.71439 102.87968
#
# Poissons Ratio (x) = 0.53454 0.35757
# Poissons Ratio (y) = 0.36347 0.40390
# Poissons Ratio (z) = 0.11276 0.18732
#
# Static dielectric constant tensor:
#      x y z
#    x 2.746950 0.000000 0.000000 
#    y 0.000000 3.037690 0.000000 
#    z 0.000000 0.000000 3.515140 
# 
# 
# High freq. dielectric constant tensor:
#      x y z
#    x 1.570710 0.000000 0.000000 
#    y 0.000000 1.610620 0.000000 
#    z 0.000000 0.000000 1.660640 
# 
# From -- ./inp_files/3417.got.cif
#   From: 2010.03.12/outbox.cif.g09.slc.cpg/sg64_2_cif.got.tgz:3417.got - 2010.04.10 20:19:32.
