data_PCOD8262644
_publ_section_title
;
Structure prediction by ZEFSAII (Michael W. Deem and Ramdas Pophale) SiO2 
 PCOD8262644
Probable space group: C M C A
;
_chemical_formula_sum "Si O2"
_cell_formula_units_Z 112
_cell_length_a 16.367032
_cell_length_b 16.854313
_cell_length_c 21.363691
_cell_angle_alpha 90.000000
_cell_angle_beta 90.000000
_cell_angle_gamma 90.000000
_cell_volume 5893.282694
_symmetry_space_group_name_H-M "C M C A"
_symmetry_group_IT_number 64
_symmetry_cell_setting 'orthorhombic'
loop_
_space_group_symop_operation_xyz
x,y,z
-x,1/2-y,1/2+z
x,-y,-z
-x,1/2+y,1/2-z
-x,-y,-z
x,1/2+y,1/2-z
-x,y,z
x,1/2-y,1/2+z
1/2+x,1/2+y,z
1/2-x,-y,1/2+z
1/2+x,1/2-y,-z
1/2-x,y,1/2-z
1/2-x,1/2-y,-z
1/2+x,y,1/2-z
1/2-x,1/2+y,z
1/2+x,-y,1/2+z
loop_
_atom_site_type_symbol
_atom_site_label
_atom_site_fract_x
_atom_site_fract_y
_atom_site_fract_z
Si Si1 0.597320 0.182123 0.639665
Si Si2 0.698625 0.679964 0.312905
Si Si3 0.595326 0.511534 0.814014
Si Si4 0.797678 0.674835 0.524483
Si Si5 0.190281 0.533261 0.933951
Si Si6 0.686276 0.100658 0.399238
Si Si7 0.403557 0.024299 0.177784
O O1 0.500000 0.196348 0.644994
O O2 0.647227 0.238528 0.687337
O O3 0.624760 0.092253 0.653371
O O4 0.629003 0.201296 0.569938
O O5 0.750000 0.669557 0.250000
O O6 0.765605 0.674889 0.368442
O O7 0.633833 0.611446 0.327297
O O8 0.500000 0.513316 0.808043
O O9 0.615795 0.431801 0.853323
O O10 0.630918 0.510652 0.743409
O O11 0.750000 0.750000 0.500000
O O12 0.729267 0.619930 0.557452
O O13 0.843677 0.629310 0.467303
O O14 0.258502 0.475992 0.907136
O O15 0.120395 0.533393 0.880320
O O16 0.154926 0.500000 0.000000
O O17 0.500000 0.033290 0.177570
#
# Coordination Sequence:
#
# PCOD8262644 Si02
#       7
#    16  16  16  16  16  16  16
#     4  11  24  40  59  90 125 159 199 254 315 361
#     4  11  21  37  60  88 119 163 201 245 305 368
#     4  10  21  38  60  87 119 154 198 253 305 356
#     4  11  21  38  60  84 120 162 201 250 299 363
#     4   9  20  35  57  87 116 151 202 247 291 356
#     4  10  19  37  60  86 114 151 205 250 290 357
#     4  10  21  38  61  88 121 158 199 251 305 364
#
# _framework density 19.004688000000002
#
# number of rings (size 3 to 8) (size 9 to 14) (size 15 to 20)
#    0.000    1.714    4.286    0.429    0.000    2.000 
#    0.000    2.143    0.000    0.000    0.000    0.000 
#    0.000    0.000    0.000    0.000    0.000    0.000 
#
# Total GULP energy -694064.632581 kJ/mol
# GULP energy per Si atom -12394.011296 kJ/mol
# Density = 1.896143 g / cm^3
# Si number density = 19.004688 Si / 1000 Ang^3
#
#
#
# Elastic Constant Matrix: (Units=GPa)
#
#
# Indices 1 2 3 4 5 6 
#
# 1 39.7232 27.5336 23.4339 0.0000 0.0000 0.0000
# 2 27.5336 72.9204 17.4784 0.0000 0.0000 0.0000
# 3 23.4339 17.4784 104.9584 0.0000 0.0000 0.0000
# 4 0.0000 0.0000 0.0000 32.5118 0.0000 0.0000
# 5 0.0000 0.0000 0.0000 0.0000 33.7632 0.0000
# 6 0.0000 0.0000 0.0000 0.0000 0.0000 25.8136
#
#
#
# Elastic Compliance Matrix: (Units=1/GPa)
#
#
# Indices 1 2 3 4 5 6 
#
# 1 0.037715 -0.012730 -0.006301 0.000000 0.000000 0.000000
# 2 -0.012730 0.018581 -0.000252 0.000000 0.000000 0.000000
# 3 -0.006301 -0.000252 0.010976 0.000000 0.000000 0.000000
# 4 0.000000 0.000000 0.000000 0.030758 0.000000 0.000000
# 5 0.000000 0.000000 0.000000 0.000000 0.029618 0.000000
# 6 0.000000 0.000000 0.000000 0.000000 0.000000 0.038739
#
#
# Mechanical properties :
#
#
# Convention : Reuss Voigt Hill
#
# Bulk Modulus (GPa) = 34.83566 39.38818 37.11192
# Shear Modulus (GPa) = 23.30763 28.36145 25.83454
#
# Velocity S-wave (km/s) = 3.50582 3.86727 3.69097
# Velocity P-wave (km/s) = 5.89555 6.38056 6.14284
#
# Compressibility (1/GPa) = 0.02870622
#
# Stress axis : x y z
#
# Youngs Moduli (GPa) = 26.51463 53.81912 91.10568
#
# Poissons Ratio (x) = 0.68514 0.57402
# Poissons Ratio (y) = 0.33754 0.02295
# Poissons Ratio (z) = 0.16706 0.01356
#
# Static dielectric constant tensor:
#      x y z
#    x 3.287200 0.000000 0.000000 
#    y 0.000000 3.530680 0.000000 
#    z 0.000000 0.000000 4.121070 
# 
# 
# High freq. dielectric constant tensor:
#      x y z
#    x 1.718970 0.000000 0.000000 
#    y 0.000000 1.734210 0.000000 
#    z 0.000000 0.000000 1.755620 
# 
# From -- ./inp_files/40372.got.cif
#   From: 2010.03.12/outbox.cif.g09.slc.cpg/sg64_21_cif.got.tgz:40372.got - 2010.04.10 20:19:32.
