data_PCOD8262816
_publ_section_title
;
Structure prediction by ZEFSAII (Michael W. Deem and Ramdas Pophale) SiO2 
 PCOD8262816
Probable space group: C M C A
;
_chemical_formula_sum "Si O2"
_cell_formula_units_Z 88
_cell_length_a 23.411104
_cell_length_b 13.405221
_cell_length_c 15.168136
_cell_angle_alpha 90.000000
_cell_angle_beta 90.000000
_cell_angle_gamma 90.000000
_cell_volume 4760.231637
_symmetry_space_group_name_H-M "C M C A"
_symmetry_group_IT_number 64
_symmetry_cell_setting 'orthorhombic'
loop_
_space_group_symop_operation_xyz
x,y,z
-x,1/2-y,1/2+z
x,-y,-z
-x,1/2+y,1/2-z
-x,-y,-z
x,1/2+y,1/2-z
-x,y,z
x,1/2-y,1/2+z
1/2+x,1/2+y,z
1/2-x,-y,1/2+z
1/2+x,1/2-y,-z
1/2-x,y,1/2-z
1/2-x,1/2-y,-z
1/2+x,y,1/2-z
1/2-x,1/2+y,z
1/2+x,-y,1/2+z
loop_
_atom_site_type_symbol
_atom_site_label
_atom_site_fract_x
_atom_site_fract_y
_atom_site_fract_z
Si Si1 0.389600 0.505703 0.678742
Si Si2 0.000000 0.793485 0.118586
Si Si3 0.389766 0.795959 0.092740
Si Si4 0.500000 0.830156 0.581491
Si Si5 0.878580 0.705025 0.108165
Si Si6 0.182562 0.169092 0.749994
Si Si7 0.000000 0.997197 0.211634
O O1 0.406803 0.586901 0.603582
O O2 0.362818 0.408084 0.633650
O O3 0.342370 0.556120 0.743775
O O4 0.444546 0.473384 0.733569
O O5 0.055164 0.724289 0.131295
O O6 0.000000 0.879536 0.191607
O O7 0.000000 0.844175 0.023063
O O8 0.444701 0.729629 0.114305
O O9 0.340955 0.768224 0.165098
O O10 0.366127 0.776979 0.994918
O O11 0.500000 0.940087 0.621819
O O12 0.838337 0.781432 0.159660
O O13 0.250000 0.165985 0.750000
#
# Coordination Sequence:
#
# PCOD8262816 Si02
#       7
#    16   8  16   8  16  16   8
#     4  10  22  34  59  84 114 146 199 231 288 344
#     4  10  20  35  55  93 118 152 188 221 294 361
#     4   9  21  38  59  87 120 146 199 231 288 354
#     4  10  20  33  59  89 123 149 183 231 290 362
#     4  11  20  39  63  83 119 158 183 244 296 341
#     4  10  23  39  57  85 114 152 203 249 283 342
#     4  12  19  34  57  84 125 153 175 236 293 345
#
# _framework density 18.486497
#
# number of rings (size 3 to 8) (size 9 to 14) (size 15 to 20)
#    1.091    0.727    1.818    3.000    0.000    3.636 
#    0.000    3.636    0.000    2.182    0.000    0.000 
#    0.000    0.000    0.000    0.000    0.000    0.000 
#
# Total GULP energy -545508.429757 kJ/mol
# GULP energy per Si atom -12397.918858 kJ/mol
# Density = 1.844442 g / cm^3
# Si number density = 18.486497 Si / 1000 Ang^3
#
#
#
# Elastic Constant Matrix: (Units=GPa)
#
#
# Indices 1 2 3 4 5 6 
#
# 1 128.5241 19.1577 47.3092 0.0000 0.0000 0.0000
# 2 19.1577 73.6067 35.4970 0.0000 0.0000 0.0000
# 3 47.3092 35.4970 103.0966 0.0000 0.0000 0.0000
# 4 0.0000 0.0000 0.0000 36.1396 0.0000 0.0000
# 5 0.0000 0.0000 0.0000 0.0000 5.2933 0.0000
# 6 0.0000 0.0000 0.0000 0.0000 0.0000 -5.2439
#
#
#
# Elastic Compliance Matrix: (Units=1/GPa)
#
#
# Indices 1 2 3 4 5 6 
#
# 1 0.009374 -0.000438 -0.004151 0.000000 0.000000 0.000000
# 2 -0.000438 0.016311 -0.005415 0.000000 0.000000 0.000000
# 3 -0.004151 -0.005415 0.013469 0.000000 0.000000 0.000000
# 4 0.000000 0.000000 0.000000 0.027670 0.000000 0.000000
# 5 0.000000 0.000000 0.000000 0.000000 0.188917 0.000000
# 6 0.000000 0.000000 0.000000 0.000000 0.000000 -0.190698
#
#
# Mechanical properties :
#
#
# Convention : Reuss Voigt Hill
#
# Bulk Modulus (GPa) = 52.22973 56.57279 54.40126
# Shear Modulus (GPa) = 54.68514 20.78872 37.73693
#
# Velocity S-wave (km/s) = 5.44475 3.35705 4.52300
# Velocity P-wave (km/s) = 8.23659 6.75981 7.53447
#
# Compressibility (1/GPa) = 0.01914618
#
# Stress axis : x y z
#
# Youngs Moduli (GPa) = 106.68065 61.30778 74.24609
#
# Poissons Ratio (x) = 0.02686 0.30817
# Poissons Ratio (y) = 0.04673 0.40204
# Poissons Ratio (z) = 0.44279 0.33198
#
# Static dielectric constant tensor:
#      x y z
#    x 3.106210 0.000000 0.000000 
#    y 0.000000 3.242850 0.000000 
#    z 0.000000 0.000000 3.375780 
# 
# 
# High freq. dielectric constant tensor:
#      x y z
#    x 1.694360 0.000000 0.000000 
#    y 0.000000 1.713060 0.000000 
#    z 0.000000 0.000000 1.722740 
# 
# From -- ./inp_files/27320.got.cif
#   From: 2010.03.12/outbox.cif.g09.slc.cpg/sg64_14_cif.got.tgz:27320.got - 2010.04.10 20:19:32.
