data_PCOD8262800
_publ_section_title
;
Structure prediction by ZEFSAII (Michael W. Deem and Ramdas Pophale) SiO2 
 PCOD8262800
Probable space group: C M C A
;
_chemical_formula_sum "Si O2"
_cell_formula_units_Z 64
_cell_length_a 15.144787
_cell_length_b 13.242910
_cell_length_c 15.617863
_cell_angle_alpha 90.000000
_cell_angle_beta 90.000000
_cell_angle_gamma 90.000000
_cell_volume 3132.335021
_symmetry_space_group_name_H-M "C M C A"
_symmetry_group_IT_number 64
_symmetry_cell_setting 'orthorhombic'
loop_
_space_group_symop_operation_xyz
x,y,z
-x,1/2-y,1/2+z
x,-y,-z
-x,1/2+y,1/2-z
-x,-y,-z
x,1/2+y,1/2-z
-x,y,z
x,1/2-y,1/2+z
1/2+x,1/2+y,z
1/2-x,-y,1/2+z
1/2+x,1/2-y,-z
1/2-x,y,1/2-z
1/2-x,1/2-y,-z
1/2+x,y,1/2-z
1/2-x,1/2+y,z
1/2+x,-y,1/2+z
loop_
_atom_site_type_symbol
_atom_site_label
_atom_site_fract_x
_atom_site_fract_y
_atom_site_fract_z
Si Si1 0.403179 0.154905 0.375669
Si Si2 0.768548 0.642661 0.040817
Si Si3 0.099430 0.611786 0.901821
Si Si4 0.158661 0.934829 0.707661
O O1 0.500000 0.132182 0.414731
O O2 0.329181 0.098787 0.434927
O O3 0.383833 0.274289 0.371356
O O4 0.402273 0.118515 0.277710
O O5 0.824876 0.644026 0.129212
O O6 0.750000 0.750000 0.000000
O O7 0.826119 0.579495 0.971990
O O8 0.109941 0.536332 0.822611
O O9 0.000000 0.601562 0.940044
O O10 0.250000 0.968764 0.750000
#
# Coordination Sequence:
#
# PCOD8262800 Si02
#       4
#    16  16  16  16
#     4   9  19  36  55  78 109 142 178 222 271 322
#     4   9  19  34  52  77 109 141 175 218 267 315
#     4  10  20  34  55  82 109 139 180 226 268 318
#     4  10  20  33  54  79 107 144 179 219 269 321
#
# _framework density 20.432043
#
# number of rings (size 3 to 8) (size 9 to 14) (size 15 to 20)
#    0.000    2.500    0.000    1.500    0.000    8.000 
#    0.000    0.000    0.000   13.500    0.000    0.000 
#    0.000    0.000    0.000    0.000    0.000    0.000 
#
# Total GULP energy -396420.061604 kJ/mol
# GULP energy per Si atom -12388.126925 kJ/mol
# Density = 2.038554 g / cm^3
# Si number density = 20.432043 Si / 1000 Ang^3
#
#
#
# Elastic Constant Matrix: (Units=GPa)
#
#
# Indices 1 2 3 4 5 6 
#
# 1 150.2042 43.2338 66.3147 0.0000 0.0000 0.0000
# 2 43.2338 64.1270 37.6658 0.0000 0.0000 0.0000
# 3 66.3147 37.6658 109.7015 0.0000 0.0000 0.0000
# 4 0.0000 0.0000 0.0000 35.5770 0.0000 0.0000
# 5 0.0000 0.0000 0.0000 0.0000 27.7867 0.0000
# 6 0.0000 0.0000 0.0000 0.0000 0.0000 17.2944
#
#
#
# Elastic Compliance Matrix: (Units=1/GPa)
#
#
# Indices 1 2 3 4 5 6 
#
# 1 0.009810 -0.003922 -0.004584 0.000000 0.000000 0.000000
# 2 -0.003922 0.021101 -0.004874 0.000000 0.000000 0.000000
# 3 -0.004584 -0.004874 0.013560 0.000000 0.000000 0.000000
# 4 0.000000 0.000000 0.000000 0.028108 0.000000 0.000000
# 5 0.000000 0.000000 0.000000 0.000000 0.035988 0.000000
# 6 0.000000 0.000000 0.000000 0.000000 0.000000 0.057822
#
#
# Mechanical properties :
#
#
# Convention : Reuss Voigt Hill
#
# Bulk Modulus (GPa) = 56.45953 68.71792 62.58873
# Shear Modulus (GPa) = 25.11892 27.91952 26.51922
#
# Velocity S-wave (km/s) = 3.51007 3.70057 3.60658
# Velocity P-wave (km/s) = 6.64231 7.20864 6.93126
#
# Compressibility (1/GPa) = 0.01771180
#
# Stress axis : x y z
#
# Youngs Moduli (GPa) = 101.93624 47.39128 73.74561
#
# Poissons Ratio (x) = 0.18585 0.33803
# Poissons Ratio (y) = 0.39975 0.35946
# Poissons Ratio (z) = 0.46725 0.23100
#
# Static dielectric constant tensor:
#      x y z
#    x 4.160780 0.000000 0.000000 
#    y 0.000000 3.400700 0.000000 
#    z 0.000000 0.000000 3.884220 
# 
# 
# High freq. dielectric constant tensor:
#      x y z
#    x 1.814350 0.000000 0.000000 
#    y 0.000000 1.781250 0.000000 
#    z 0.000000 0.000000 1.791530 
# 
# From -- ./inp_files/15507.got.cif
#   From: 2010.03.12/outbox.cif.g09.slc.cpg/sg64_8_cif.got.tgz:15507.got - 2010.04.10 20:19:32.
