data_PCOD8262868
_publ_section_title
;
Structure prediction by ZEFSAII (Michael W. Deem and Ramdas Pophale) SiO2 
 PCOD8262868
Probable space group: C M C A
;
_chemical_formula_sum "Si O2"
_cell_formula_units_Z 112
_cell_length_a 33.133629
_cell_length_b 14.500115
_cell_length_c 13.283799
_cell_angle_alpha 90.000000
_cell_angle_beta 90.000000
_cell_angle_gamma 90.000000
_cell_volume 6382.087399
_symmetry_space_group_name_H-M "C M C A"
_symmetry_group_IT_number 64
_symmetry_cell_setting 'orthorhombic'
loop_
_space_group_symop_operation_xyz
x,y,z
-x,1/2-y,1/2+z
x,-y,-z
-x,1/2+y,1/2-z
-x,-y,-z
x,1/2+y,1/2-z
-x,y,z
x,1/2-y,1/2+z
1/2+x,1/2+y,z
1/2-x,-y,1/2+z
1/2+x,1/2-y,-z
1/2-x,y,1/2-z
1/2-x,1/2-y,-z
1/2+x,y,1/2-z
1/2-x,1/2+y,z
1/2+x,-y,1/2+z
loop_
_atom_site_type_symbol
_atom_site_label
_atom_site_fract_x
_atom_site_fract_y
_atom_site_fract_z
Si Si1 0.304525 0.419212 0.578613
Si Si2 0.835743 0.731186 0.507099
Si Si3 0.046550 0.107918 0.988293
Si Si4 0.147350 0.526858 0.265719
Si Si5 0.215939 0.928972 0.912258
Si Si6 0.109235 0.661468 0.679313
Si Si7 0.598869 0.805183 0.648639
O O1 0.303674 0.500000 0.500000
O O2 0.312911 0.326340 0.518579
O O3 0.340701 0.439642 0.655237
O O4 0.260623 0.407464 0.632267
O O5 0.804040 0.661934 0.457840
O O6 0.852629 0.697889 0.615186
O O7 0.872193 0.746083 0.429852
O O8 0.058208 0.165444 0.089115
O O9 0.000000 0.127093 0.965473
O O10 0.071973 0.140989 0.893042
O O11 0.055798 0.000000 0.000000
O O12 0.188431 0.521899 0.329293
O O13 0.124755 0.428880 0.261842
O O14 0.117174 0.599277 0.314045
O O15 0.222261 0.000000 0.000000
O O16 0.092053 0.736090 0.758549
#
# Coordination Sequence:
#
# PCOD8262868 Si02
#       7
#    16  16  16  16  16  16  16
#     4  11  22  35  50  76 112 147 182 235 286 329
#     4  10  20  35  54  78 106 144 196 229 272 340
#     4  10  21  38  62  91 116 144 185 227 275 341
#     4  11  20  35  55  80 106 144 191 234 268 340
#     4  10  20  34  54  73 106 146 189 240 284 312
#     4  11  20  36  61  85 110 150 185 229 282 332
#     4  10  21  35  59  85 109 147 182 226 279 329
#
# _framework density 17.549116000000001
#
# number of rings (size 3 to 8) (size 9 to 14) (size 15 to 20)
#    0.000    1.571    4.286    1.714    0.000    0.571 
#    0.000    0.000    0.000    0.000    0.000    1.000 
#    0.000    0.000    0.000    0.000    0.000    0.000 
#
# Total GULP energy -694309.739567 kJ/mol
# GULP energy per Si atom -12398.388207 kJ/mol
# Density = 1.750917 g / cm^3
# Si number density = 17.549116 Si / 1000 Ang^3
#
#
#
# Elastic Constant Matrix: (Units=GPa)
#
#
# Indices 1 2 3 4 5 6 
#
# 1 83.4933 28.7218 19.1323 0.0000 0.0000 0.0000
# 2 28.7218 69.8089 12.2827 0.0000 0.0000 0.0000
# 3 19.1323 12.2827 59.3657 0.0000 0.0000 0.0000
# 4 0.0000 0.0000 0.0000 32.9451 0.0000 0.0000
# 5 0.0000 0.0000 0.0000 0.0000 19.6415 0.0000
# 6 0.0000 0.0000 0.0000 0.0000 0.0000 42.0381
#
#
#
# Elastic Compliance Matrix: (Units=1/GPa)
#
#
# Indices 1 2 3 4 5 6 
#
# 1 0.014660 -0.005397 -0.003608 0.000000 0.000000 0.000000
# 2 -0.005397 0.016853 -0.001747 0.000000 0.000000 0.000000
# 3 -0.003608 -0.001747 0.018369 0.000000 0.000000 0.000000
# 4 0.000000 0.000000 0.000000 0.030354 0.000000 0.000000
# 5 0.000000 0.000000 0.000000 0.000000 0.050912 0.000000
# 6 0.000000 0.000000 0.000000 0.000000 0.000000 0.023788
#
#
# Mechanical properties :
#
#
# Convention : Reuss Voigt Hill
#
# Bulk Modulus (GPa) = 35.23959 36.99349 36.11654
# Shear Modulus (GPa) = 26.89613 29.09368 27.99491
#
# Velocity S-wave (km/s) = 3.91912 4.07608 3.99837
# Velocity P-wave (km/s) = 6.37208 6.57862 6.47618
#
# Compressibility (1/GPa) = 0.02837718
#
# Stress axis : x y z
#
# Youngs Moduli (GPa) = 68.21119 59.33742 54.43918
#
# Poissons Ratio (x) = 0.32024 0.19642
# Poissons Ratio (y) = 0.36813 0.09513
# Poissons Ratio (z) = 0.24611 0.10369
#
# Static dielectric constant tensor:
#      x y z
#    x 3.250000 0.000000 0.000000 
#    y 0.000000 3.272740 0.000000 
#    z 0.000000 0.000000 3.276960 
# 
# 
# High freq. dielectric constant tensor:
#      x y z
#    x 1.669730 0.000000 0.000000 
#    y 0.000000 1.684020 0.000000 
#    z 0.000000 0.000000 1.678920 
# 
# From -- ./inp_files/19868.got.cif
#   From: 2010.03.12/outbox.cif.g09.slc.cpg/sg64_10_cif.got.tgz:19868.got - 2010.04.10 20:19:32.
