data_PCOD8262991
_publ_section_title
;
Structure prediction by ZEFSAII (Michael W. Deem and Ramdas Pophale) SiO2 
 PCOD8262991
Probable space group: C M C A
;
_chemical_formula_sum "Si O2"
_cell_formula_units_Z 128
_cell_length_a 25.773417
_cell_length_b 11.376155
_cell_length_c 22.891873
_cell_angle_alpha 90.000000
_cell_angle_beta 90.000000
_cell_angle_gamma 90.000000
_cell_volume 6711.951799
_symmetry_space_group_name_H-M "C M C A"
_symmetry_group_IT_number 64
_symmetry_cell_setting 'orthorhombic'
loop_
_space_group_symop_operation_xyz
x,y,z
-x,1/2-y,1/2+z
x,-y,-z
-x,1/2+y,1/2-z
-x,-y,-z
x,1/2+y,1/2-z
-x,y,z
x,1/2-y,1/2+z
1/2+x,1/2+y,z
1/2-x,-y,1/2+z
1/2+x,1/2-y,-z
1/2-x,y,1/2-z
1/2-x,1/2-y,-z
1/2+x,y,1/2-z
1/2-x,1/2+y,z
1/2+x,-y,1/2+z
loop_
_atom_site_type_symbol
_atom_site_label
_atom_site_fract_x
_atom_site_fract_y
_atom_site_fract_z
Si Si1 0.193875 0.981584 0.122639
Si Si2 0.877764 0.887717 0.962498
Si Si3 0.204267 0.892980 0.646531
Si Si4 0.850848 0.301650 0.290486
Si Si5 0.296980 0.225275 0.541316
Si Si6 0.378830 0.067339 0.817032
Si Si7 0.559362 0.230076 0.367211
Si Si8 0.439632 0.362551 0.740263
O O1 0.154624 0.910300 0.164675
O O2 0.218902 0.891533 0.076709
O O3 0.163052 0.080406 0.087872
O O4 0.239561 0.048608 0.157663
O O5 0.926241 0.833039 0.928140
O O6 0.850671 0.794471 0.006077
O O7 0.896671 0.000000 0.000000
O O8 0.193611 0.796113 0.697151
O O9 0.197089 0.835843 0.583352
O O10 0.160274 0.991023 0.645652
O O11 0.843645 0.352625 0.225844
O O12 0.907731 0.239556 0.294320
O O13 0.250000 0.250000 0.500000
O O14 0.409303 0.148660 0.862280
O O15 0.419392 0.990486 0.778947
O O16 0.500000 0.265399 0.371417
O O17 0.569470 0.148858 0.310057
O O18 0.500000 0.348145 0.723737
#
# Coordination Sequence:
#
# PCOD8262991 Si02
#       8
#    16  16  16  16  16  16  16  16
#     4  10  20  35  55  82 111 147 189 226 277 337
#     4  10  21  37  57  79 111 144 186 245 283 324
#     4  10  21  35  56  82 114 150 188 228 281 340
#     4   9  20  36  52  82 120 145 186 225 276 341
#     4  10  20  36  56  81 107 142 193 240 276 325
#     4  10  20  36  56  84 116 150 183 229 279 340
#     4  10  21  36  58  85 110 146 191 231 281 340
#     4   9  18  36  61  85 113 148 185 232 285 341
#
# _framework density 19.070457999999999
#
# number of rings (size 3 to 8) (size 9 to 14) (size 15 to 20)
#    0.000    2.250    1.250    1.125    1.750    1.250 
#    0.000    5.625    0.000   11.250    0.000    0.000 
#    0.000    0.000    0.000    0.000    0.000    0.000 
#
# Total GULP energy -793482.743055 kJ/mol
# GULP energy per Si atom -12398.167860 kJ/mol
# Density = 1.902705 g / cm^3
# Si number density = 19.070458 Si / 1000 Ang^3
#
#
#
# Elastic Constant Matrix: (Units=GPa)
#
#
# Indices 1 2 3 4 5 6 
#
# 1 81.7454 47.8350 53.1951 0.0000 0.0000 0.0000
# 2 47.8350 95.9143 50.5168 0.0000 0.0000 0.0000
# 3 53.1951 50.5168 89.5875 0.0000 0.0000 0.0000
# 4 0.0000 0.0000 0.0000 35.8822 0.0000 0.0000
# 5 0.0000 0.0000 0.0000 0.0000 35.7665 0.0000
# 6 0.0000 0.0000 0.0000 0.0000 0.0000 25.2596
#
#
#
# Elastic Compliance Matrix: (Units=1/GPa)
#
#
# Indices 1 2 3 4 5 6 
#
# 1 0.022007 -0.005822 -0.009784 0.000000 0.000000 0.000000
# 2 -0.005822 0.016371 -0.005774 0.000000 0.000000 0.000000
# 3 -0.009784 -0.005774 0.020228 0.000000 0.000000 0.000000
# 4 0.000000 0.000000 0.000000 0.027869 0.000000 0.000000
# 5 0.000000 0.000000 0.000000 0.000000 0.027959 0.000000
# 6 0.000000 0.000000 0.000000 0.000000 0.000000 0.039589
#
#
# Mechanical properties :
#
#
# Convention : Reuss Voigt Hill
#
# Bulk Modulus (GPa) = 63.11313 63.37120 63.24217
# Shear Modulus (GPa) = 24.74442 27.09501 25.91971
#
# Velocity S-wave (km/s) = 3.60603 3.77342 3.69067
# Velocity P-wave (km/s) = 7.10665 7.23098 7.16908
#
# Compressibility (1/GPa) = 0.01584456
#
# Stress axis : x y z
#
# Youngs Moduli (GPa) = 45.43970 61.08420 49.43677
#
# Poissons Ratio (x) = 0.35565 0.48370
# Poissons Ratio (y) = 0.26456 0.28545
# Poissons Ratio (z) = 0.44459 0.35270
#
# Static dielectric constant tensor:
#      x y z
#    x 3.424220 0.000000 0.000000 
#    y 0.000000 3.733890 0.000000 
#    z 0.000000 0.000000 3.755990 
# 
# 
# High freq. dielectric constant tensor:
#      x y z
#    x 1.727770 0.000000 0.000000 
#    y 0.000000 1.751570 0.000000 
#    z 0.000000 0.000000 1.733750 
# 
# From -- ./inp_files/46762.got.cif
#   From: 2010.03.12/outbox.cif.g09.slc.cpg/sg64_24_cif.got.tgz:46762.got - 2010.04.10 20:19:32.
