data_PCOD8262722
_publ_section_title
;
Structure prediction by ZEFSAII (Michael W. Deem and Ramdas Pophale) SiO2 
 PCOD8262722
Probable space group: C M C A
;
_chemical_formula_sum "Si O2"
_cell_formula_units_Z 96
_cell_length_a 10.983369
_cell_length_b 19.044592
_cell_length_c 23.926332
_cell_angle_alpha 90.000000
_cell_angle_beta 90.000000
_cell_angle_gamma 90.000000
_cell_volume 5004.761339
_symmetry_space_group_name_H-M "C M C A"
_symmetry_group_IT_number 64
_symmetry_cell_setting 'orthorhombic'
loop_
_space_group_symop_operation_xyz
x,y,z
-x,1/2-y,1/2+z
x,-y,-z
-x,1/2+y,1/2-z
-x,-y,-z
x,1/2+y,1/2-z
-x,y,z
x,1/2-y,1/2+z
1/2+x,1/2+y,z
1/2-x,-y,1/2+z
1/2+x,1/2-y,-z
1/2-x,y,1/2-z
1/2-x,1/2-y,-z
1/2+x,y,1/2-z
1/2-x,1/2+y,z
1/2+x,-y,1/2+z
loop_
_atom_site_type_symbol
_atom_site_label
_atom_site_fract_x
_atom_site_fract_y
_atom_site_fract_z
Si Si1 0.859890 0.263825 0.378011
Si Si2 0.360127 0.115790 0.706801
Si Si3 0.500000 0.455312 0.411015
Si Si4 0.744246 0.367513 0.580265
Si Si5 0.362009 0.622481 0.967645
Si Si6 0.000000 0.601176 0.025187
Si Si7 0.743077 0.977271 0.385025
O O1 0.839753 0.308831 0.321918
O O2 0.764869 0.198077 0.376743
O O3 0.823566 0.309706 0.431973
O O4 0.000000 0.238137 0.380660
O O5 0.500000 0.110978 0.730968
O O6 0.250000 0.104866 0.750000
O O7 0.348240 0.053855 0.660869
O O8 0.500000 0.393963 0.457527
O O9 0.500000 0.524466 0.448638
O O10 0.381763 0.453385 0.371155
O O11 0.848841 0.362043 0.533507
O O12 0.619772 0.359827 0.545725
O O13 0.764962 0.438457 0.615288
O O14 0.500000 0.603543 0.954322
O O15 0.286486 0.553881 0.946905
#
# Coordination Sequence:
#
# PCOD8262722 Si02
#       7
#    16  16   8  16  16   8  16
#     4   9  19  36  55  78 112 148 188 228 275 331
#     4  10  23  44  65  83 105 142 187 237 293 347
#     4   9  16  28  46  81 112 146 185 215 262 320
#     4  11  18  31  53  81 115 149 183 226 268 327
#     4  10  20  32  48  76 116 162 192 218 266 325
#     4   9  16  26  46  77 114 148 182 214 256 309
#     4  10  20  32  55  83 112 144 184 232 281 329
#
# _framework density 19.181733000000001
#
# number of rings (size 3 to 8) (size 9 to 14) (size 15 to 20)
#    0.000    2.167    2.500    2.500    1.167    2.000 
#    0.000    1.667    0.000    2.000    0.000    0.000 
#    0.000    0.000    0.000    0.000    0.000    0.000 
#
# Total GULP energy -594875.649581 kJ/mol
# GULP energy per Si atom -12393.242700 kJ/mol
# Density = 1.913807 g / cm^3
# Si number density = 19.181733 Si / 1000 Ang^3
#
#
#
# Elastic Constant Matrix: (Units=GPa)
#
#
# Indices 1 2 3 4 5 6 
#
# 1 86.2762 35.3292 25.1955 0.0000 0.0000 0.0000
# 2 35.3292 105.4559 22.0112 0.0000 0.0000 0.0000
# 3 25.1955 22.0112 55.6981 0.0000 0.0000 0.0000
# 4 0.0000 0.0000 0.0000 14.6957 0.0000 0.0000
# 5 0.0000 0.0000 0.0000 0.0000 31.0053 0.0000
# 6 0.0000 0.0000 0.0000 0.0000 0.0000 24.0904
#
#
#
# Elastic Compliance Matrix: (Units=1/GPa)
#
#
# Indices 1 2 3 4 5 6 
#
# 1 0.014657 -0.003844 -0.005111 0.000000 0.000000 0.000000
# 2 -0.003844 0.011343 -0.002744 0.000000 0.000000 0.000000
# 3 -0.005111 -0.002744 0.021350 0.000000 0.000000 0.000000
# 4 0.000000 0.000000 0.000000 0.068047 0.000000 0.000000
# 5 0.000000 0.000000 0.000000 0.000000 0.032253 0.000000
# 6 0.000000 0.000000 0.000000 0.000000 0.000000 0.041510
#
#
# Mechanical properties :
#
#
# Convention : Reuss Voigt Hill
#
# Bulk Modulus (GPa) = 41.74849 45.83355 43.79102
# Shear Modulus (GPa) = 22.67133 24.95124 23.81128
#
# Velocity S-wave (km/s) = 3.44164 3.61055 3.52711
# Velocity P-wave (km/s) = 6.13230 6.42866 6.28223
#
# Compressibility (1/GPa) = 0.02395296
#
# Stress axis : x y z
#
# Youngs Moduli (GPa) = 68.22564 88.16014 46.83734
#
# Poissons Ratio (x) = 0.33884 0.23940
# Poissons Ratio (y) = 0.26223 0.12852
# Poissons Ratio (z) = 0.34873 0.24191
#
# Static dielectric constant tensor:
#      x y z
#    x 3.631860 0.000000 0.000000 
#    y 0.000000 3.415140 0.000000 
#    z 0.000000 0.000000 3.114120 
# 
# 
# High freq. dielectric constant tensor:
#      x y z
#    x 1.751040 0.000000 0.000000 
#    y 0.000000 1.738160 0.000000 
#    z 0.000000 0.000000 1.702360 
# 
# From -- ./inp_files/44361.got.cif
#   From: 2010.03.12/outbox.cif.g09.slc.cpg/sg64_23_cif.got.tgz:44361.got - 2010.04.10 20:19:32.
