data_PCOD8262781
_publ_section_title
;
Structure prediction by ZEFSAII (Michael W. Deem and Ramdas Pophale) SiO2 
 PCOD8262781
Probable space group: C M C A
;
_chemical_formula_sum "Si O2"
_cell_formula_units_Z 80
_cell_length_a 24.058522
_cell_length_b 33.865027
_cell_length_c 4.972513
_cell_angle_alpha 90.000000
_cell_angle_beta 90.000000
_cell_angle_gamma 90.000000
_cell_volume 4051.317659
_symmetry_space_group_name_H-M "C M C A"
_symmetry_group_IT_number 64
_symmetry_cell_setting 'orthorhombic'
loop_
_space_group_symop_operation_xyz
x,y,z
-x,1/2-y,1/2+z
x,-y,-z
-x,1/2+y,1/2-z
-x,-y,-z
x,1/2+y,1/2-z
-x,y,z
x,1/2-y,1/2+z
1/2+x,1/2+y,z
1/2-x,-y,1/2+z
1/2+x,1/2-y,-z
1/2-x,y,1/2-z
1/2-x,1/2-y,-z
1/2+x,y,1/2-z
1/2-x,1/2+y,z
1/2+x,-y,1/2+z
loop_
_atom_site_type_symbol
_atom_site_label
_atom_site_fract_x
_atom_site_fract_y
_atom_site_fract_z
Si Si1 0.936481 0.224003 0.376132
Si Si2 0.374513 0.040907 0.613150
Si Si3 0.936151 0.567196 0.122076
Si Si4 0.689840 0.380936 0.120927
Si Si5 0.629058 0.854535 0.880549
O O1 0.924135 0.240512 0.671415
O O2 0.896058 0.187849 0.314101
O O3 0.000000 0.209391 0.347802
O O4 0.426343 0.050250 0.418476
O O5 0.325138 0.072811 0.600780
O O6 0.348545 0.000000 0.500000
O O7 0.399154 0.041293 0.914511
O O8 0.919136 0.612928 0.139862
O O9 0.000000 0.563622 0.039283
O O10 0.750000 0.376279 0.250000
O O11 0.649368 0.356197 0.313473
O O12 0.680885 0.362877 0.822775
#
# Coordination Sequence:
#
# PCOD8262781 Si02
#       5
#    16  16  16  16  16
#     4  10  20  34  56  86 116 144 172 209 264 322
#     4  10  21  35  51  77 107 135 176 223 266 316
#     4  10  20  33  52  77 107 144 176 208 259 321
#     4  10  21  38  58  77 100 140 186 227 273 313
#     4  10  20  36  57  79 108 139 179 225 260 317
#
# _framework density 19.746661
#
# number of rings (size 3 to 8) (size 9 to 14) (size 15 to 20)
#    0.000    2.000    0.000    3.600    0.000    2.400 
#    0.000   12.000    0.000   12.000    0.000    0.000 
#    0.000    0.000    0.000    0.000    0.000    0.000 
#
# Total GULP energy -495886.687512 kJ/mol
# GULP energy per Si atom -12397.167188 kJ/mol
# Density = 1.970172 g / cm^3
# Si number density = 19.746661 Si / 1000 Ang^3
#
#
#
# Elastic Constant Matrix: (Units=GPa)
#
#
# Indices 1 2 3 4 5 6 
#
# 1 52.4947 42.1954 3.8206 0.0000 0.0000 0.0000
# 2 42.1954 102.5854 17.2642 0.0000 0.0000 0.0000
# 3 3.8206 17.2642 82.3855 0.0000 0.0000 0.0000
# 4 0.0000 0.0000 0.0000 17.2847 0.0000 0.0000
# 5 0.0000 0.0000 0.0000 0.0000 16.1667 0.0000
# 6 0.0000 0.0000 0.0000 0.0000 0.0000 16.1484
#
#
#
# Elastic Compliance Matrix: (Units=1/GPa)
#
#
# Indices 1 2 3 4 5 6 
#
# 1 0.028569 -0.011949 0.001179 0.000000 0.000000 0.000000
# 2 -0.011949 0.015102 -0.002611 0.000000 0.000000 0.000000
# 3 0.001179 -0.002611 0.012630 0.000000 0.000000 0.000000
# 4 0.000000 0.000000 0.000000 0.057855 0.000000 0.000000
# 5 0.000000 0.000000 0.000000 0.000000 0.061855 0.000000
# 6 0.000000 0.000000 0.000000 0.000000 0.000000 0.061925
#
#
# Mechanical properties :
#
#
# Convention : Reuss Voigt Hill
#
# Bulk Modulus (GPa) = 33.85252 40.44733 37.14992
# Shear Modulus (GPa) = 18.21197 21.53234 19.87215
#
# Velocity S-wave (km/s) = 3.04020 3.30575 3.17575
# Velocity P-wave (km/s) = 5.43180 5.92437 5.68342
#
# Compressibility (1/GPa) = 0.02953990
#
# Stress axis : x y z
#
# Youngs Moduli (GPa) = 35.00354 66.21516 79.17380
#
# Poissons Ratio (x) = 0.79122 -0.09336
# Poissons Ratio (y) = 0.41827 0.20669
# Poissons Ratio (z) = -0.04128 0.17286
#
# Static dielectric constant tensor:
#      x y z
#    x 3.216750 0.000000 0.000000 
#    y 0.000000 3.447690 0.000000 
#    z 0.000000 0.000000 3.844670 
# 
# 
# High freq. dielectric constant tensor:
#      x y z
#    x 1.741880 0.000000 0.000000 
#    y 0.000000 1.761970 0.000000 
#    z 0.000000 0.000000 1.792930 
# 
# From -- ./inp_files/2365.got.cif
#   From: 2010.03.12/outbox.cif.g09.slc.cpg/sg64_2_cif.got.tgz:2365.got - 2010.04.10 20:19:32.
