data_PCOD8262241
_publ_section_title
;
Structure prediction by ZEFSAII (Michael W. Deem and Ramdas Pophale) SiO2 
 PCOD8262241
Probable space group: C M C A
;
_chemical_formula_sum "Si O2"
_cell_formula_units_Z 64
_cell_length_a 13.614057
_cell_length_b 13.225682
_cell_length_c 19.200165
_cell_angle_alpha 90.000000
_cell_angle_beta 90.000000
_cell_angle_gamma 90.000000
_cell_volume 3457.089330
_symmetry_space_group_name_H-M "C M C A"
_symmetry_group_IT_number 64
_symmetry_cell_setting 'orthorhombic'
loop_
_space_group_symop_operation_xyz
x,y,z
-x,1/2-y,1/2+z
x,-y,-z
-x,1/2+y,1/2-z
-x,-y,-z
x,1/2+y,1/2-z
-x,y,z
x,1/2-y,1/2+z
1/2+x,1/2+y,z
1/2-x,-y,1/2+z
1/2+x,1/2-y,-z
1/2-x,y,1/2-z
1/2-x,1/2-y,-z
1/2+x,y,1/2-z
1/2-x,1/2+y,z
1/2+x,-y,1/2+z
loop_
_atom_site_type_symbol
_atom_site_label
_atom_site_fract_x
_atom_site_fract_y
_atom_site_fract_z
Si Si1 0.113850 0.884562 0.359174
Si Si2 0.892036 0.618949 0.010268
Si Si3 0.387485 0.181512 0.284517
Si Si4 0.295883 0.599645 0.349838
O O1 0.143650 0.837865 0.435262
O O2 0.131627 0.799334 0.301365
O O3 0.000000 0.919076 0.361822
O O4 0.178569 0.981857 0.340593
O O5 0.817640 0.643495 0.073109
O O6 0.000000 0.662175 0.029653
O O7 0.898700 0.500000 0.000000
O O8 0.500000 0.150895 0.298849
O O9 0.359606 0.165812 0.204152
O O10 0.319671 0.111582 0.333866
#
# Coordination Sequence:
#
# PCOD8262241 Si02
#       4
#    16  16  16  16
#     4   9  18  34  54  76 102 129 164 211 250 285
#     4   8  14  28  52  76  95 125 171 212 240 278
#     4  10  21  33  48  75 105 130 160 203 255 299
#     4  10  19  32  54  74  97 134 172 203 242 297
#
# _framework density 18.512682999999999
#
# number of rings (size 3 to 8) (size 9 to 14) (size 15 to 20)
#    0.000    2.750    0.000    3.750    0.000    5.000 
#    0.000    0.000    0.000    9.750    0.000    0.000 
#    0.000    0.000    0.000    0.000    0.000    0.000 
#
# Total GULP energy -396609.898163 kJ/mol
# GULP energy per Si atom -12394.059318 kJ/mol
# Density = 1.847055 g / cm^3
# Si number density = 18.512683 Si / 1000 Ang^3
#
#
#
# Elastic Constant Matrix: (Units=GPa)
#
#
# Indices 1 2 3 4 5 6 
#
# 1 115.4735 45.5378 36.7453 0.0000 0.0000 0.0000
# 2 45.5378 72.9138 43.7092 0.0000 0.0000 0.0000
# 3 36.7453 43.7092 115.5958 0.0000 0.0000 0.0000
# 4 0.0000 0.0000 0.0000 24.6244 0.0000 0.0000
# 5 0.0000 0.0000 0.0000 0.0000 24.9312 0.0000
# 6 0.0000 0.0000 0.0000 0.0000 0.0000 26.8844
#
#
#
# Elastic Compliance Matrix: (Units=1/GPa)
#
#
# Indices 1 2 3 4 5 6 
#
# 1 0.011623 -0.006523 -0.001228 0.000000 0.000000 0.000000
# 2 -0.006523 0.021395 -0.006017 0.000000 0.000000 0.000000
# 3 -0.001228 -0.006017 0.011316 0.000000 0.000000 0.000000
# 4 0.000000 0.000000 0.000000 0.040610 0.000000 0.000000
# 5 0.000000 0.000000 0.000000 0.000000 0.040110 0.000000
# 6 0.000000 0.000000 0.000000 0.000000 0.000000 0.037196
#
#
# Mechanical properties :
#
#
# Convention : Reuss Voigt Hill
#
# Bulk Modulus (GPa) = 59.52614 61.77419 60.65017
# Shear Modulus (GPa) = 25.59026 27.15405 26.37216
#
# Velocity S-wave (km/s) = 3.72198 3.83401 3.77841
# Velocity P-wave (km/s) = 7.12003 7.28289 7.20192
#
# Compressibility (1/GPa) = 0.01679934
#
# Stress axis : x y z
#
# Youngs Moduli (GPa) = 86.03495 46.73918 88.36823
#
# Poissons Ratio (x) = 0.30487 0.10854
# Poissons Ratio (y) = 0.56119 0.53167
# Poissons Ratio (z) = 0.10568 0.28121
#
# Static dielectric constant tensor:
#      x y z
#    x 3.398060 0.000000 0.000000 
#    y 0.000000 3.074330 0.000000 
#    z 0.000000 0.000000 3.937190 
# 
# 
# High freq. dielectric constant tensor:
#      x y z
#    x 1.709350 0.000000 0.000000 
#    y 0.000000 1.686010 0.000000 
#    z 0.000000 0.000000 1.730140 
# 
# From -- ./inp_files/31644.got.cif
#   From: 2010.03.12/outbox.cif.g09.slc.cpg/sg64_16_cif.got.tgz:31644.got - 2010.04.10 20:19:32.
