data_PCOD8262766
_publ_section_title
;
Structure prediction by ZEFSAII (Michael W. Deem and Ramdas Pophale) SiO2 
 PCOD8262766
Probable space group: C M C A
;
_chemical_formula_sum "Si O2"
_cell_formula_units_Z 96
_cell_length_a 8.750685
_cell_length_b 25.264507
_cell_length_c 23.720375
_cell_angle_alpha 90.000000
_cell_angle_beta 90.000000
_cell_angle_gamma 90.000000
_cell_volume 5244.141836
_symmetry_space_group_name_H-M "C M C A"
_symmetry_group_IT_number 64
_symmetry_cell_setting 'orthorhombic'
loop_
_space_group_symop_operation_xyz
x,y,z
-x,1/2-y,1/2+z
x,-y,-z
-x,1/2+y,1/2-z
-x,-y,-z
x,1/2+y,1/2-z
-x,y,z
x,1/2-y,1/2+z
1/2+x,1/2+y,z
1/2-x,-y,1/2+z
1/2+x,1/2-y,-z
1/2-x,y,1/2-z
1/2-x,1/2-y,-z
1/2+x,y,1/2-z
1/2-x,1/2+y,z
1/2+x,-y,1/2+z
loop_
_atom_site_type_symbol
_atom_site_label
_atom_site_fract_x
_atom_site_fract_y
_atom_site_fract_z
Si Si1 0.819651 0.750662 0.310971
Si Si2 0.681741 0.808385 0.498879
Si Si3 0.318987 0.935994 0.309679
Si Si4 0.319080 0.849392 0.113436
Si Si5 0.818867 0.652056 0.381408
Si Si6 0.179705 0.056453 0.191456
O O1 0.750000 0.757196 0.250000
O O2 0.767999 0.800514 0.347995
O O3 0.753577 0.698270 0.341071
O O4 0.000000 0.748237 0.305110
O O5 0.500000 0.803885 0.495755
O O6 0.750000 0.750000 0.500000
O O7 0.744967 0.842650 0.447589
O O8 0.737815 0.839149 0.554928
O O9 0.500000 0.927970 0.307868
O O10 0.250000 0.917191 0.250000
O O11 0.246024 0.902907 0.360020
O O12 0.270853 0.996544 0.322246
O O13 0.500000 0.853136 0.107187
O O14 0.761287 0.595176 0.358336
O O15 0.000000 0.655316 0.380155
O O16 0.250000 0.076239 0.250000
O O17 0.000000 0.060629 0.198225
#
# Coordination Sequence:
#
# PCOD8262766 Si02
#       6
#    16  16  16  16  16  16
#     4  10  20  33  50  76 107 136 171 216 269 322
#     4  11  21  37  58  79 108 146 186 226 275 330
#     4  10  20  35  56  83 110 144 182 221 271 326
#     4  11  22  37  55  78 109 145 185 229 272 321
#     4   9  18  35  55  77 107 141 177 222 270 324
#     4   9  18  34  57  81 109 142 179 220 269 324
#
# _framework density 18.306142000000001
#
# number of rings (size 3 to 8) (size 9 to 14) (size 15 to 20)
#    0.000    2.000    1.667    2.500    0.000    3.333 
#    0.000    2.500    0.000    5.000    0.000    0.000 
#    0.000    0.000    0.000    0.000    0.000    0.000 
#
# Total GULP energy -595274.177758 kJ/mol
# GULP energy per Si atom -12401.545370 kJ/mol
# Density = 1.826448 g / cm^3
# Si number density = 18.306142 Si / 1000 Ang^3
#
#
#
# Elastic Constant Matrix: (Units=GPa)
#
#
# Indices 1 2 3 4 5 6 
#
# 1 48.1893 32.8191 41.0280 0.0000 0.0000 0.0000
# 2 32.8191 118.9547 79.6070 0.0000 0.0000 0.0000
# 3 41.0280 79.6070 161.7199 0.0000 0.0000 0.0000
# 4 0.0000 0.0000 0.0000 35.8599 0.0000 0.0000
# 5 0.0000 0.0000 0.0000 0.0000 30.9759 0.0000
# 6 0.0000 0.0000 0.0000 0.0000 0.0000 23.8287
#
#
#
# Elastic Compliance Matrix: (Units=1/GPa)
#
#
# Indices 1 2 3 4 5 6 
#
# 1 0.027946 -0.004422 -0.004913 0.000000 0.000000 0.000000
# 2 -0.004422 0.013236 -0.005394 0.000000 0.000000 0.000000
# 3 -0.004913 -0.005394 0.010085 0.000000 0.000000 0.000000
# 4 0.000000 0.000000 0.000000 0.027886 0.000000 0.000000
# 5 0.000000 0.000000 0.000000 0.000000 0.032283 0.000000
# 6 0.000000 0.000000 0.000000 0.000000 0.000000 0.041966
#
#
# Mechanical properties :
#
#
# Convention : Reuss Voigt Hill
#
# Bulk Modulus (GPa) = 45.85166 70.64133 58.24649
# Shear Modulus (GPa) = 26.29771 29.82689 28.06230
#
# Velocity S-wave (km/s) = 3.79430 4.04088 3.91953
# Velocity P-wave (km/s) = 6.65561 7.77459 7.23676
#
# Compressibility (1/GPa) = 0.02180946
#
# Stress axis : x y z
#
# Youngs Moduli (GPa) = 35.78305 75.55059 99.15768
#
# Poissons Ratio (x) = 0.33411 0.48716
# Poissons Ratio (y) = 0.15825 0.53482
# Poissons Ratio (z) = 0.17580 0.40749
#
# Static dielectric constant tensor:
#      x y z
#    x 3.288060 0.000000 0.000000 
#    y 0.000000 3.725400 0.000000 
#    z 0.000000 0.000000 3.563980 
# 
# 
# High freq. dielectric constant tensor:
#      x y z
#    x 1.700240 0.000000 0.000000 
#    y 0.000000 1.713650 0.000000 
#    z 0.000000 0.000000 1.714220 
# 
# From -- ./inp_files/37087.got.cif
#   From: 2010.03.12/outbox.cif.g09.slc.cpg/sg64_19_cif.got.tgz:37087.got - 2010.04.10 20:19:32.
