data_PCOD8262943
_publ_section_title
;
Structure prediction by ZEFSAII (Michael W. Deem and Ramdas Pophale) SiO2 
 PCOD8262943
Probable space group: C M C A
;
_chemical_formula_sum "Si O2"
_cell_formula_units_Z 72
_cell_length_a 15.355637
_cell_length_b 21.896426
_cell_length_c 11.108324
_cell_angle_alpha 90.000000
_cell_angle_beta 90.000000
_cell_angle_gamma 90.000000
_cell_volume 3734.991427
_symmetry_space_group_name_H-M "C M C A"
_symmetry_group_IT_number 64
_symmetry_cell_setting 'orthorhombic'
loop_
_space_group_symop_operation_xyz
x,y,z
-x,1/2-y,1/2+z
x,-y,-z
-x,1/2+y,1/2-z
-x,-y,-z
x,1/2+y,1/2-z
-x,y,z
x,1/2-y,1/2+z
1/2+x,1/2+y,z
1/2-x,-y,1/2+z
1/2+x,1/2-y,-z
1/2-x,y,1/2-z
1/2-x,1/2-y,-z
1/2+x,y,1/2-z
1/2-x,1/2+y,z
1/2+x,-y,1/2+z
loop_
_atom_site_type_symbol
_atom_site_label
_atom_site_fract_x
_atom_site_fract_y
_atom_site_fract_z
Si Si1 0.404723 0.382081 0.923734
Si Si2 0.268001 0.568798 0.503812
Si Si3 0.660464 0.838818 0.816315
Si Si4 0.900586 0.708247 0.633236
Si Si5 0.750000 0.864170 0.250000
O O1 0.500000 0.409236 0.955402
O O2 0.331384 0.431868 0.954405
O O3 0.405414 0.364345 0.783596
O O4 0.385989 0.320992 0.001634
O O5 0.303959 0.500000 0.500000
O O6 0.327596 0.610501 0.418850
O O7 0.272540 0.592465 0.639074
O O8 0.750000 0.821818 0.750000
O O9 0.620738 0.779515 0.880055
O O10 0.835097 0.677182 0.727904
O O11 0.000000 0.698748 0.677924
#
# Coordination Sequence:
#
# PCOD8262943 Si02
#       5
#    16  16  16  16   8
#     4   9  20  36  57  87 117 153 199 243 292 350
#     4  10  23  38  61  85 116 162 201 236 292 350
#     4  10  20  34  59  85 119 152 193 240 294 345
#     4  10  20  36  60  90 121 155 192 240 305 357
#     4  10  22  38  62  90 124 150 196 250 290 350
#
# _framework density 19.277152999999998
#
# number of rings (size 3 to 8) (size 9 to 14) (size 15 to 20)
#    0.000    2.222    1.111    0.667    7.778    3.111 
#    0.000    1.111    0.000    3.333    0.000    0.000 
#    0.000    0.000    0.000    0.000    0.000    0.000 
#
# Total GULP energy -446425.997134 kJ/mol
# GULP energy per Si atom -12400.722143 kJ/mol
# Density = 1.923328 g / cm^3
# Si number density = 19.277153 Si / 1000 Ang^3
#
#
#
# Elastic Constant Matrix: (Units=GPa)
#
#
# Indices 1 2 3 4 5 6 
#
# 1 94.8439 41.4187 34.9390 0.0000 0.0000 0.0000
# 2 41.4187 126.3695 56.0401 0.0000 0.0000 0.0000
# 3 34.9390 56.0401 127.1925 0.0000 0.0000 0.0000
# 4 0.0000 0.0000 0.0000 21.0796 0.0000 0.0000
# 5 0.0000 0.0000 0.0000 0.0000 24.5890 0.0000
# 6 0.0000 0.0000 0.0000 0.0000 0.0000 14.5483
#
#
#
# Elastic Compliance Matrix: (Units=1/GPa)
#
#
# Indices 1 2 3 4 5 6 
#
# 1 0.012725 -0.003257 -0.002060 0.000000 0.000000 0.000000
# 2 -0.003257 0.010669 -0.003806 0.000000 0.000000 0.000000
# 3 -0.002060 -0.003806 0.010105 0.000000 0.000000 0.000000
# 4 0.000000 0.000000 0.000000 0.047439 0.000000 0.000000
# 5 0.000000 0.000000 0.000000 0.000000 0.040669 0.000000
# 6 0.000000 0.000000 0.000000 0.000000 0.000000 0.068737
#
#
# Mechanical properties :
#
#
# Convention : Reuss Voigt Hill
#
# Bulk Modulus (GPa) = 65.56552 68.13351 66.84951
# Shear Modulus (GPa) = 23.40018 26.44391 24.92204
#
# Velocity S-wave (km/s) = 3.48786 3.70777 3.59949
# Velocity P-wave (km/s) = 7.09268 7.33150 7.21308
#
# Compressibility (1/GPa) = 0.01525192
#
# Stress axis : x y z
#
# Youngs Moduli (GPa) = 78.58528 93.73358 98.96182
#
# Poissons Ratio (x) = 0.30529 0.20391
# Poissons Ratio (y) = 0.25595 0.37663
# Poissons Ratio (z) = 0.16192 0.35673
#
# Static dielectric constant tensor:
#      x y z
#    x 3.598270 0.000000 0.000000 
#    y 0.000000 3.282400 0.000000 
#    z 0.000000 0.000000 3.530230 
# 
# 
# High freq. dielectric constant tensor:
#      x y z
#    x 1.748730 0.000000 0.000000 
#    y 0.000000 1.734810 0.000000 
#    z 0.000000 0.000000 1.753800 
# 
# From -- ./inp_files/15782.got.cif
#   From: 2010.03.12/outbox.cif.g09.slc.cpg/sg64_8_cif.got.tgz:15782.got - 2010.04.10 20:19:32.
