data_PCOD8262074
_publ_section_title
;
Structure prediction by ZEFSAII (Michael W. Deem and Ramdas Pophale) SiO2 
 PCOD8262074
Probable space group: C M C A
;
_chemical_formula_sum "Si O2"
_cell_formula_units_Z 96
_cell_length_a 8.878761
_cell_length_b 20.558207
_cell_length_c 29.777970
_cell_angle_alpha 90.000000
_cell_angle_beta 90.000000
_cell_angle_gamma 90.000000
_cell_volume 5435.414748
_symmetry_space_group_name_H-M "C M C A"
_symmetry_group_IT_number 64
_symmetry_cell_setting 'orthorhombic'
loop_
_space_group_symop_operation_xyz
x,y,z
-x,1/2-y,1/2+z
x,-y,-z
-x,1/2+y,1/2-z
-x,-y,-z
x,1/2+y,1/2-z
-x,y,z
x,1/2-y,1/2+z
1/2+x,1/2+y,z
1/2-x,-y,1/2+z
1/2+x,1/2-y,-z
1/2-x,y,1/2-z
1/2-x,1/2-y,-z
1/2+x,y,1/2-z
1/2-x,1/2+y,z
1/2+x,-y,1/2+z
loop_
_atom_site_type_symbol
_atom_site_label
_atom_site_fract_x
_atom_site_fract_y
_atom_site_fract_z
Si Si1 0.179388 0.381269 0.890373
Si Si2 0.323291 0.306307 0.029168
Si Si3 0.168802 0.762073 0.206153
Si Si4 0.179180 0.758035 0.385959
Si Si5 0.325190 0.064593 0.474418
Si Si6 0.335021 0.392491 0.707217
O O1 0.260318 0.312932 0.899552
O O2 0.233937 0.409907 0.841852
O O3 0.000000 0.369702 0.889638
O O4 0.227731 0.431244 0.928917
O O5 0.500000 0.292587 0.034282
O O6 0.244369 0.308536 0.077777
O O7 0.290107 0.375074 0.006447
O O8 0.250000 0.250000 0.000000
O O9 0.250000 0.792010 0.250000
O O10 0.264501 0.781729 0.162567
O O11 0.161148 0.684927 0.210777
O O12 0.000000 0.790689 0.202295
O O13 0.000000 0.757044 0.387022
O O14 0.500000 0.061517 0.460921
O O15 0.273228 0.000000 0.500000
O O16 0.500000 0.422764 0.710424
O O17 0.250000 0.423038 0.750000
#
# Coordination Sequence:
#
# PCOD8262074 Si02
#       6
#    16  16  16  16  16  16
#     4  10  19  31  48  71 100 132 169 210 256 305
#     4  11  21  34  53  76 102 132 170 213 256 309
#     4   9  16  27  42  65  98 133 167 206 254 308
#     4  11  20  30  47  72 101 135 172 212 257 305
#     4  10  22  38  54  74 101 135 173 212 260 315
#     4   8  15  25  39  63  93 125 159 198 242 293
#
# _framework density 17.661946
#
# number of rings (size 3 to 8) (size 9 to 14) (size 15 to 20)
#    0.000    2.167    1.667    4.000    0.000    5.667 
#    0.000    0.000    0.000    0.000    0.000    1.167 
#    0.000    2.667    0.000    0.000    0.000    0.000 
#
# Total GULP energy -595088.822942 kJ/mol
# GULP energy per Si atom -12397.683811 kJ/mol
# Density = 1.762175 g / cm^3
# Si number density = 17.661946 Si / 1000 Ang^3
#
#
#
# Elastic Constant Matrix: (Units=GPa)
#
#
# Indices 1 2 3 4 5 6 
#
# 1 118.8744 33.1291 73.1663 0.0000 0.0000 0.0000
# 2 33.1291 57.4840 44.7594 0.0000 0.0000 0.0000
# 3 73.1663 44.7594 175.6233 0.0000 0.0000 0.0000
# 4 0.0000 0.0000 0.0000 13.4066 0.0000 0.0000
# 5 0.0000 0.0000 0.0000 0.0000 37.7958 0.0000
# 6 0.0000 0.0000 0.0000 0.0000 0.0000 14.2744
#
#
#
# Elastic Compliance Matrix: (Units=1/GPa)
#
#
# Indices 1 2 3 4 5 6 
#
# 1 0.011927 -0.003749 -0.004014 0.000000 0.000000 0.000000
# 2 -0.003749 0.022881 -0.004270 0.000000 0.000000 0.000000
# 3 -0.004014 -0.004270 0.008454 0.000000 0.000000 0.000000
# 4 0.000000 0.000000 0.000000 0.074590 0.000000 0.000000
# 5 0.000000 0.000000 0.000000 0.000000 0.026458 0.000000
# 6 0.000000 0.000000 0.000000 0.000000 0.000000 0.070056
#
#
# Mechanical properties :
#
#
# Convention : Reuss Voigt Hill
#
# Bulk Modulus (GPa) = 52.08716 72.67681 62.38199
# Shear Modulus (GPa) = 20.42230 26.49049 23.45639
#
# Velocity S-wave (km/s) = 3.40411 3.87701 3.64823
# Velocity P-wave (km/s) = 6.70864 7.82814 7.28991
#
# Compressibility (1/GPa) = 0.01919859
#
# Stress axis : x y z
#
# Youngs Moduli (GPa) = 83.84101 43.70398 118.28293
#
# Poissons Ratio (x) = 0.16384 0.47474
# Poissons Ratio (y) = 0.31430 0.50504
# Poissons Ratio (z) = 0.33651 0.18660
#
# Static dielectric constant tensor:
#      x y z
#    x 3.427720 0.000000 0.000000 
#    y 0.000000 2.790540 0.000000 
#    z 0.000000 0.000000 3.408870 
# 
# 
# High freq. dielectric constant tensor:
#      x y z
#    x 1.693810 0.000000 0.000000 
#    y 0.000000 1.609980 0.000000 
#    z 0.000000 0.000000 1.708060 
# 
# From -- ./inp_files/48063.got.cif
#   From: 2010.03.12/outbox.cif.g09.slc.cpg/sg64_25_cif.got.tgz:48063.got - 2010.04.10 20:19:32.
