data_PCOD8262491
_publ_section_title
;
Structure prediction by ZEFSAII (Michael W. Deem and Ramdas Pophale) SiO2 
 PCOD8262491
Probable space group: C M C A
;
_chemical_formula_sum "Si O2"
_cell_formula_units_Z 80
_cell_length_a 20.743414
_cell_length_b 14.786739
_cell_length_c 13.263054
_cell_angle_alpha 90.000000
_cell_angle_beta 90.000000
_cell_angle_gamma 90.000000
_cell_volume 4068.142717
_symmetry_space_group_name_H-M "C M C A"
_symmetry_group_IT_number 64
_symmetry_cell_setting 'orthorhombic'
loop_
_space_group_symop_operation_xyz
x,y,z
-x,1/2-y,1/2+z
x,-y,-z
-x,1/2+y,1/2-z
-x,-y,-z
x,1/2+y,1/2-z
-x,y,z
x,1/2-y,1/2+z
1/2+x,1/2+y,z
1/2-x,-y,1/2+z
1/2+x,1/2-y,-z
1/2-x,y,1/2-z
1/2-x,1/2-y,-z
1/2+x,y,1/2-z
1/2-x,1/2+y,z
1/2+x,-y,1/2+z
loop_
_atom_site_type_symbol
_atom_site_label
_atom_site_fract_x
_atom_site_fract_y
_atom_site_fract_z
Si Si1 0.500000 0.678123 0.327885
Si Si2 0.294897 0.421735 0.834795
Si Si3 0.000000 0.528186 0.846261
Si Si4 0.359247 0.928591 0.199584
Si Si5 0.890706 0.233906 0.181080
Si Si6 0.208194 0.500000 0.000000
Si Si7 0.000000 0.799795 0.457704
O O1 0.500000 0.576633 0.368778
O O2 0.434313 0.699358 0.272043
O O3 0.500000 0.736364 0.429077
O O4 0.250000 0.376030 0.750000
O O5 0.320634 0.516571 0.785999
O O6 0.350023 0.350278 0.858683
O O7 0.255795 0.433425 0.938771
O O8 0.935318 0.552296 0.783293
O O9 0.000000 0.590605 0.946260
O O10 0.347980 0.820763 0.215056
O O11 0.336724 0.952716 0.084790
O O12 0.935380 0.261070 0.089136
#
# Coordination Sequence:
#
# PCOD8262491 Si02
#       7
#     8  16   8  16  16   8   8
#     4  11  20  37  62  90 122 147 186 248 299 359
#     4  10  22  40  58  83 117 160 200 240 289 348
#     4  10  19  34  66  87 113 152 188 246 305 341
#     4  10  22  39  61  89 118 151 200 245 300 354
#     4  10  22  38  60  89 117 155 195 240 302 355
#     4  10  24  39  58  85 118 160 206 242 284 348
#     4   9  22  33  56  98 117 144 198 236 298 366
#
# _framework density 19.664992000000002
#
# number of rings (size 3 to 8) (size 9 to 14) (size 15 to 20)
#    0.000    2.000    2.000    0.900    5.600    4.800 
#    0.000    0.000    0.000    3.000    0.000    0.000 
#    0.000    0.000    0.000    0.000    0.000    0.000 
#
# Total GULP energy -495650.342104 kJ/mol
# GULP energy per Si atom -12391.258553 kJ/mol
# Density = 1.962023 g / cm^3
# Si number density = 19.664992 Si / 1000 Ang^3
#
#
#
# Elastic Constant Matrix: (Units=GPa)
#
#
# Indices 1 2 3 4 5 6 
#
# 1 102.2812 50.8948 36.4200 0.0000 0.0000 0.0000
# 2 50.8948 120.9212 36.7085 0.0000 0.0000 0.0000
# 3 36.4200 36.7085 89.7729 0.0000 0.0000 0.0000
# 4 0.0000 0.0000 0.0000 3.6860 0.0000 0.0000
# 5 0.0000 0.0000 0.0000 0.0000 30.2303 0.0000
# 6 0.0000 0.0000 0.0000 0.0000 0.0000 31.7204
#
#
#
# Elastic Compliance Matrix: (Units=1/GPa)
#
#
# Indices 1 2 3 4 5 6 
#
# 1 0.013286 -0.004516 -0.003543 0.000000 0.000000 0.000000
# 2 -0.004516 0.010977 -0.002656 0.000000 0.000000 0.000000
# 3 -0.003543 -0.002656 0.013663 0.000000 0.000000 0.000000
# 4 0.000000 0.000000 0.000000 0.271300 0.000000 0.000000
# 5 0.000000 0.000000 0.000000 0.000000 0.033079 0.000000
# 6 0.000000 0.000000 0.000000 0.000000 0.000000 0.031525
#
#
# Mechanical properties :
#
#
# Convention : Reuss Voigt Hill
#
# Bulk Modulus (GPa) = 60.62772 62.33576 61.48174
# Shear Modulus (GPa) = 12.47628 25.72413 19.10020
#
# Velocity S-wave (km/s) = 2.52154 3.62071 3.11992
# Velocity P-wave (km/s) = 6.27493 7.01763 6.65665
#
# Compressibility (1/GPa) = 0.01649411
#
# Stress axis : x y z
#
# Youngs Moduli (GPa) = 75.26750 91.09841 73.19099
#
# Poissons Ratio (x) = 0.41143 0.25933
# Poissons Ratio (y) = 0.33993 0.19442
# Poissons Ratio (z) = 0.26669 0.24199
#
# Static dielectric constant tensor:
#      x y z
#    x 3.734230 0.000000 0.000000 
#    y 0.000000 3.639640 0.000000 
#    z 0.000000 0.000000 3.373480 
# 
# 
# High freq. dielectric constant tensor:
#      x y z
#    x 1.781240 0.000000 0.000000 
#    y 0.000000 1.763720 0.000000 
#    z 0.000000 0.000000 1.750140 
# 
# From -- ./inp_files/18169.got.cif
#   From: 2010.03.12/outbox.cif.g09.slc.cpg/sg64_10_cif.got.tgz:18169.got - 2010.04.10 20:19:32.
