data_PCOD8262755
_publ_section_title
;
Structure prediction by ZEFSAII (Michael W. Deem and Ramdas Pophale) SiO2 
 PCOD8262755
Probable space group: C M C A
;
_chemical_formula_sum "Si O2"
_cell_formula_units_Z 96
_cell_length_a 8.879932
_cell_length_b 23.888446
_cell_length_c 26.137338
_cell_angle_alpha 90.000000
_cell_angle_beta 90.000000
_cell_angle_gamma 90.000000
_cell_volume 5544.455382
_symmetry_space_group_name_H-M "C M C A"
_symmetry_group_IT_number 64
_symmetry_cell_setting 'orthorhombic'
loop_
_space_group_symop_operation_xyz
x,y,z
-x,1/2-y,1/2+z
x,-y,-z
-x,1/2+y,1/2-z
-x,-y,-z
x,1/2+y,1/2-z
-x,y,z
x,1/2-y,1/2+z
1/2+x,1/2+y,z
1/2-x,-y,1/2+z
1/2+x,1/2-y,-z
1/2-x,y,1/2-z
1/2-x,1/2-y,-z
1/2+x,y,1/2-z
1/2-x,1/2+y,z
1/2+x,-y,1/2+z
loop_
_atom_site_type_symbol
_atom_site_label
_atom_site_fract_x
_atom_site_fract_y
_atom_site_fract_z
Si Si1 0.675333 0.088010 0.804447
Si Si2 0.327198 0.501725 0.613888
Si Si3 0.177070 0.232456 0.446129
Si Si4 0.677413 0.671649 0.607963
Si Si5 0.823863 0.582491 0.540013
Si Si6 0.827744 0.894875 0.560296
O O1 0.500000 0.091489 0.794895
O O2 0.750000 0.092819 0.750000
O O3 0.720376 0.028829 0.831548
O O4 0.728141 0.140057 0.840041
O O5 0.500000 0.520169 0.603109
O O6 0.222378 0.526637 0.569636
O O7 0.310124 0.433926 0.611565
O O8 0.250000 0.250000 0.500000
O O9 0.241064 0.268718 0.398677
O O10 0.218925 0.169103 0.429799
O O11 0.000000 0.241687 0.451261
O O12 0.500000 0.680793 0.606151
O O13 0.728358 0.635148 0.559704
O O14 0.781949 0.576500 0.480791
O O15 0.000000 0.593819 0.547001
O O16 0.000000 0.897614 0.540796
#
# Coordination Sequence:
#
# PCOD8262755 Si02
#       6
#    16  16  16  16  16  16
#     4   9  19  35  57  79  98 124 163 214 268 313
#     4   9  19  35  51  70  99 135 169 203 250 310
#     4  11  21  32  50  75 104 142 180 215 249 297
#     4  10  20  35  52  73 103 138 174 212 256 307
#     4  11  20  29  46  73 103 134 170 212 251 292
#     4  10  20  33  49  68 100 143 176 200 244 304
#
# _framework density 17.314596000000002
#
# number of rings (size 3 to 8) (size 9 to 14) (size 15 to 20)
#    0.000    2.000    1.667    4.000    0.000    6.667 
#    0.000    0.000    0.000    1.000    0.000    4.667 
#    0.000    0.000    0.000    0.000    0.000    0.000 
#
# Total GULP energy -594947.503094 kJ/mol
# GULP energy per Si atom -12394.739648 kJ/mol
# Density = 1.727519 g / cm^3
# Si number density = 17.314596 Si / 1000 Ang^3
#
#
#
# Elastic Constant Matrix: (Units=GPa)
#
#
# Indices 1 2 3 4 5 6 
#
# 1 63.5400 41.1084 37.2260 0.0000 0.0000 0.0000
# 2 41.1084 129.3266 61.1917 0.0000 0.0000 0.0000
# 3 37.2260 61.1917 105.7184 0.0000 0.0000 0.0000
# 4 0.0000 0.0000 0.0000 15.4003 0.0000 0.0000
# 5 0.0000 0.0000 0.0000 0.0000 26.5113 0.0000
# 6 0.0000 0.0000 0.0000 0.0000 0.0000 21.4445
#
#
#
# Elastic Compliance Matrix: (Units=1/GPa)
#
#
# Indices 1 2 3 4 5 6 
#
# 1 0.021572 -0.004493 -0.004995 0.000000 0.000000 0.000000
# 2 -0.004493 0.011585 -0.005123 0.000000 0.000000 0.000000
# 3 -0.004995 -0.005123 0.014183 0.000000 0.000000 0.000000
# 4 0.000000 0.000000 0.000000 0.064934 0.000000 0.000000
# 5 0.000000 0.000000 0.000000 0.000000 0.037720 0.000000
# 6 0.000000 0.000000 0.000000 0.000000 0.000000 0.046632
#
#
# Mechanical properties :
#
#
# Convention : Reuss Voigt Hill
#
# Bulk Modulus (GPa) = 55.19856 64.18192 59.69024
# Shear Modulus (GPa) = 21.56218 23.27515 22.41866
#
# Velocity S-wave (km/s) = 3.53274 3.67038 3.60221
# Velocity P-wave (km/s) = 6.97060 7.42367 7.20070
#
# Compressibility (1/GPa) = 0.01811641
#
# Stress axis : x y z
#
# Youngs Moduli (GPa) = 46.35716 86.32043 70.50516
#
# Poissons Ratio (x) = 0.38788 0.35217
# Poissons Ratio (y) = 0.20830 0.36121
# Poissons Ratio (z) = 0.23155 0.44224
#
# Static dielectric constant tensor:
#      x y z
#    x 3.225850 0.000000 0.000000 
#    y 0.000000 3.481750 0.000000 
#    z 0.000000 0.000000 3.018900 
# 
# 
# High freq. dielectric constant tensor:
#      x y z
#    x 1.672810 0.000000 0.000000 
#    y 0.000000 1.674940 0.000000 
#    z 0.000000 0.000000 1.628230 
# 
# From -- ./inp_files/43198.got.cif
#   From: 2010.03.12/outbox.cif.g09.slc.cpg/sg64_22_cif.got.tgz:43198.got - 2010.04.10 20:19:32.
