data_PCOD8262037
_publ_section_title
;
Structure prediction by ZEFSAII (Michael W. Deem and Ramdas Pophale) SiO2 
 PCOD8262037
Probable space group: C M C A
;
_chemical_formula_sum "Si O2"
_cell_formula_units_Z 72
_cell_length_a 24.897759
_cell_length_b 31.555229
_cell_length_c 5.161864
_cell_angle_alpha 90.000000
_cell_angle_beta 90.000000
_cell_angle_gamma 90.000000
_cell_volume 4055.441612
_symmetry_space_group_name_H-M "C M C A"
_symmetry_group_IT_number 64
_symmetry_cell_setting 'orthorhombic'
loop_
_space_group_symop_operation_xyz
x,y,z
-x,1/2-y,1/2+z
x,-y,-z
-x,1/2+y,1/2-z
-x,-y,-z
x,1/2+y,1/2-z
-x,y,z
x,1/2-y,1/2+z
1/2+x,1/2+y,z
1/2-x,-y,1/2+z
1/2+x,1/2-y,-z
1/2-x,y,1/2-z
1/2-x,1/2-y,-z
1/2+x,y,1/2-z
1/2-x,1/2+y,z
1/2+x,-y,1/2+z
loop_
_atom_site_type_symbol
_atom_site_label
_atom_site_fract_x
_atom_site_fract_y
_atom_site_fract_z
Si Si1 0.190286 0.732488 0.437919
Si Si2 0.310727 0.635676 0.226974
Si Si3 0.250000 0.972547 0.250000
Si Si4 0.845976 0.409538 0.219677
Si Si5 0.938691 0.527315 0.744021
O O1 0.160980 0.738737 0.715595
O O2 0.250000 0.750000 0.500000
O O3 0.189858 0.685046 0.336625
O O4 0.250000 0.618794 0.250000
O O5 0.341688 0.626018 0.494835
O O6 0.339898 0.611567 0.997498
O O7 0.198971 0.944799 0.331049
O O8 0.265994 0.000000 0.500000
O O9 0.904569 0.430240 0.217615
O O10 0.917368 0.500000 0.500000
O O11 0.000000 0.541391 0.695642
O O12 0.932565 0.500000 0.000000
#
# Coordination Sequence:
#
# PCOD8262037 Si02
#       5
#    16  16   8  16  16
#     4  10  19  30  50  69 100 147 178 211 236 302
#     4  12  21  34  49  76 111 148 169 206 268 310
#     4  12  22  32  46  66 100 140 168 196 244 314
#     4  12  23  35  51  76 110 137 175 218 267 323
#     4  10  21  40  62  78  98 136 186 235 274 309
#
# _framework density 17.753921999999999
#
# number of rings (size 3 to 8) (size 9 to 14) (size 15 to 20)
#    0.000    0.889    4.444    5.333    3.111    0.000 
#    0.000    0.000    0.000    0.000    0.000    0.000 
#    0.000   17.778    0.000    0.000    0.000    0.000 
#
# Total GULP energy -446311.899914 kJ/mol
# GULP energy per Si atom -12397.552775 kJ/mol
# Density = 1.771351 g / cm^3
# Si number density = 17.753922 Si / 1000 Ang^3
#
#
#
# Elastic Constant Matrix: (Units=GPa)
#
#
# Indices 1 2 3 4 5 6 
#
# 1 68.5153 38.8633 22.8203 0.0000 0.0000 0.0000
# 2 38.8633 92.9472 32.5216 0.0000 0.0000 0.0000
# 3 22.8203 32.5216 139.1405 0.0000 0.0000 0.0000
# 4 0.0000 0.0000 0.0000 41.6228 0.0000 0.0000
# 5 0.0000 0.0000 0.0000 0.0000 64.4611 0.0000
# 6 0.0000 0.0000 0.0000 0.0000 0.0000 16.1478
#
#
#
# Elastic Compliance Matrix: (Units=1/GPa)
#
#
# Indices 1 2 3 4 5 6 
#
# 1 0.019380 -0.007614 -0.001399 0.000000 0.000000 0.000000
# 2 -0.007614 0.014708 -0.002189 0.000000 0.000000 0.000000
# 3 -0.001399 -0.002189 0.007928 0.000000 0.000000 0.000000
# 4 0.000000 0.000000 0.000000 0.024025 0.000000 0.000000
# 5 0.000000 0.000000 0.000000 0.000000 0.015513 0.000000
# 6 0.000000 0.000000 0.000000 0.000000 0.000000 0.061928
#
#
# Mechanical properties :
#
#
# Convention : Reuss Voigt Hill
#
# Bulk Modulus (GPa) = 50.98714 54.33484 52.66099
# Shear Modulus (GPa) = 28.99836 38.20618 33.60227
#
# Velocity S-wave (km/s) = 4.04586 4.64398 4.35520
# Velocity P-wave (km/s) = 7.11382 7.70884 7.41730
#
# Compressibility (1/GPa) = 0.01961279
#
# Stress axis : x y z
#
# Youngs Moduli (GPa) = 51.59999 67.98936 126.13414
#
# Poissons Ratio (x) = 0.51765 0.17645
# Poissons Ratio (y) = 0.39287 0.27611
# Poissons Ratio (z) = 0.07218 0.14883
#
# Static dielectric constant tensor:
#      x y z
#    x 3.007570 0.000000 0.000000 
#    y 0.000000 3.332680 0.000000 
#    z 0.000000 0.000000 2.448940 
# 
# 
# High freq. dielectric constant tensor:
#      x y z
#    x 1.630020 0.000000 0.000000 
#    y 0.000000 1.686200 0.000000 
#    z 0.000000 0.000000 1.727080 
# 
# From -- ./inp_files/2281.got.cif
#   From: 2010.03.12/outbox.cif.g09.slc.cpg/sg64_2_cif.got.tgz:2281.got - 2010.04.10 20:19:32.
