data_PCOD8262167
_publ_section_title
;
Structure prediction by ZEFSAII (Michael W. Deem and Ramdas Pophale) SiO2 
 PCOD8262167
Probable space group: C M C A
;
_chemical_formula_sum "Si O2"
_cell_formula_units_Z 96
_cell_length_a 8.662789
_cell_length_b 27.141201
_cell_length_c 23.981466
_cell_angle_alpha 90.000000
_cell_angle_beta 90.000000
_cell_angle_gamma 90.000000
_cell_volume 5638.486253
_symmetry_space_group_name_H-M "C M C A"
_symmetry_group_IT_number 64
_symmetry_cell_setting 'orthorhombic'
loop_
_space_group_symop_operation_xyz
x,y,z
-x,1/2-y,1/2+z
x,-y,-z
-x,1/2+y,1/2-z
-x,-y,-z
x,1/2+y,1/2-z
-x,y,z
x,1/2-y,1/2+z
1/2+x,1/2+y,z
1/2-x,-y,1/2+z
1/2+x,1/2-y,-z
1/2-x,y,1/2-z
1/2-x,1/2-y,-z
1/2+x,y,1/2-z
1/2-x,1/2+y,z
1/2+x,-y,1/2+z
loop_
_atom_site_type_symbol
_atom_site_label
_atom_site_fract_x
_atom_site_fract_y
_atom_site_fract_z
Si Si1 0.182647 0.179794 0.807407
Si Si2 0.682539 0.484023 0.081561
Si Si3 0.321233 0.825066 0.526155
Si Si4 0.819319 0.735233 0.583041
Si Si5 0.317612 0.068380 0.692773
Si Si6 0.680628 0.928650 0.980478
O O1 0.250000 0.201905 0.750000
O O2 0.240559 0.212982 0.858735
O O3 0.244018 0.124088 0.816203
O O4 0.000000 0.180529 0.804580
O O5 0.500000 0.492521 0.079564
O O6 0.739239 0.465208 0.141729
O O7 0.769286 0.535165 0.069578
O O8 0.726197 0.442831 0.036100
O O9 0.500000 0.838511 0.532522
O O10 0.275199 0.785049 0.572553
O O11 0.282902 0.804534 0.464829
O O12 0.220270 0.873343 0.537044
O O13 0.000000 0.747903 0.583979
O O14 0.500000 0.068323 0.696330
O O15 0.250000 0.046154 0.750000
O O16 0.500000 0.934493 0.991810
#
# Coordination Sequence:
#
# PCOD8262167 Si02
#       6
#    16  16  16  16  16  16
#     4   9  17  30  47  69  97 126 156 190 230 276
#     4  10  19  33  51  71  97 129 162 196 238 284
#     4  10  19  32  50  71  96 126 159 194 237 287
#     4   9  18  32  49  70  97 126 157 195 236 278
#     4   9  18  31  49  72  98 128 159 193 234 281
#     4  11  21  32  48  72  99 127 160 198 240 283
#
# _framework density 17.025846000000001
#
# number of rings (size 3 to 8) (size 9 to 14) (size 15 to 20)
#    0.000    2.333    0.000    4.500    0.000    5.333 
#    0.000    3.333    0.000    1.000    0.000    7.000 
#    0.000    0.000    0.000    0.000    0.000    0.000 
#
# Total GULP energy -595304.693026 kJ/mol
# GULP energy per Si atom -12402.181105 kJ/mol
# Density = 1.698709 g / cm^3
# Si number density = 17.025846 Si / 1000 Ang^3
#
#
#
# Elastic Constant Matrix: (Units=GPa)
#
#
# Indices 1 2 3 4 5 6 
#
# 1 38.6418 25.5505 21.1317 0.0000 0.0000 0.0000
# 2 25.5505 99.0831 58.3049 0.0000 0.0000 0.0000
# 3 21.1317 58.3049 140.2859 0.0000 0.0000 0.0000
# 4 0.0000 0.0000 0.0000 22.6866 0.0000 0.0000
# 5 0.0000 0.0000 0.0000 0.0000 27.3789 0.0000
# 6 0.0000 0.0000 0.0000 0.0000 0.0000 27.2444
#
#
#
# Elastic Compliance Matrix: (Units=1/GPa)
#
#
# Indices 1 2 3 4 5 6 
#
# 1 0.031543 -0.007066 -0.001815 0.000000 0.000000 0.000000
# 2 -0.007066 0.014943 -0.005146 0.000000 0.000000 0.000000
# 3 -0.001815 -0.005146 0.009540 0.000000 0.000000 0.000000
# 4 0.000000 0.000000 0.000000 0.044079 0.000000 0.000000
# 5 0.000000 0.000000 0.000000 0.000000 0.036524 0.000000
# 6 0.000000 0.000000 0.000000 0.000000 0.000000 0.036705
#
#
# Mechanical properties :
#
#
# Convention : Reuss Voigt Hill
#
# Bulk Modulus (GPa) = 35.74905 54.22055 44.98480
# Shear Modulus (GPa) = 23.72896 26.99690 25.36293
#
# Velocity S-wave (km/s) = 3.73728 3.98633 3.86381
# Velocity P-wave (km/s) = 6.29806 7.28718 6.81060
#
# Compressibility (1/GPa) = 0.02797277
#
# Stress axis : x y z
#
# Youngs Moduli (GPa) = 31.70236 66.92150 104.81711
#
# Poissons Ratio (x) = 0.47288 0.19020
# Poissons Ratio (y) = 0.22402 0.53940
# Poissons Ratio (z) = 0.05753 0.34438
#
# Static dielectric constant tensor:
#      x y z
#    x 3.123380 0.000000 0.000000 
#    y 0.000000 3.133630 0.000000 
#    z 0.000000 0.000000 3.246290 
# 
# 
# High freq. dielectric constant tensor:
#      x y z
#    x 1.660020 0.000000 0.000000 
#    y 0.000000 1.645390 0.000000 
#    z 0.000000 0.000000 1.648020 
# 
# From -- ./inp_files/43177.got.cif
#   From: 2010.03.12/outbox.cif.g09.slc.cpg/sg64_22_cif.got.tgz:43177.got - 2010.04.10 20:19:32.
