data_PCOD8262917
_publ_section_title
;
Structure prediction by ZEFSAII (Michael W. Deem and Ramdas Pophale) SiO2 
 PCOD8262917
Probable space group: C M C A
;
_chemical_formula_sum "Si O2"
_cell_formula_units_Z 48
_cell_length_a 17.144107
_cell_length_b 9.299108
_cell_length_c 12.983485
_cell_angle_alpha 90.000000
_cell_angle_beta 90.000000
_cell_angle_gamma 90.000000
_cell_volume 2069.890831
_symmetry_space_group_name_H-M "C M C A"
_symmetry_group_IT_number 64
_symmetry_cell_setting 'orthorhombic'
loop_
_space_group_symop_operation_xyz
x,y,z
-x,1/2-y,1/2+z
x,-y,-z
-x,1/2+y,1/2-z
-x,-y,-z
x,1/2+y,1/2-z
-x,y,z
x,1/2-y,1/2+z
1/2+x,1/2+y,z
1/2-x,-y,1/2+z
1/2+x,1/2-y,-z
1/2-x,y,1/2-z
1/2-x,1/2-y,-z
1/2+x,y,1/2-z
1/2-x,1/2+y,z
1/2+x,-y,1/2+z
loop_
_atom_site_type_symbol
_atom_site_label
_atom_site_fract_x
_atom_site_fract_y
_atom_site_fract_z
Si Si1 0.414271 0.074477 0.389921
Si Si2 0.647802 0.651928 0.513121
Si Si3 0.706569 0.852516 0.352377
O O1 0.500000 0.062600 0.337629
O O2 0.394399 0.242930 0.405137
O O3 0.415261 0.000000 0.500000
O O4 0.348122 0.990727 0.324181
O O5 0.601661 0.500000 0.500000
O O6 0.654232 0.723158 0.399295
O O7 0.732429 0.607667 0.558158
O O8 0.750000 0.799438 0.250000
#
# Coordination Sequence:
#
# PCOD8262917 Si02
#       3
#    16  16  16
#     4   9  19  37  59  83 116 155 194 244 304 358
#     4  10  20  34  56  89 120 152 201 249 297 361
#     4  10  20  36  59  85 115 158 206 250 296 354
#
# _framework density 23.189627999999999
#
# number of rings (size 3 to 8) (size 9 to 14) (size 15 to 20)
#    0.000    2.333    0.000    5.000    0.000    6.000 
#    0.000    1.667    0.000   10.000    0.000    0.000 
#    0.000    0.000    0.000    0.000    0.000    0.000 
#
# Total GULP energy -297437.115876 kJ/mol
# GULP energy per Si atom -12393.213161 kJ/mol
# Density = 2.313685 g / cm^3
# Si number density = 23.189628 Si / 1000 Ang^3
#
#
#
# Elastic Constant Matrix: (Units=GPa)
#
#
# Indices 1 2 3 4 5 6 
#
# 1 115.7749 44.2445 12.1251 0.0000 0.0000 0.0000
# 2 44.2445 175.1647 25.2393 0.0000 0.0000 0.0000
# 3 12.1251 25.2393 69.8147 0.0000 0.0000 0.0000
# 4 0.0000 0.0000 0.0000 14.9445 0.0000 0.0000
# 5 0.0000 0.0000 0.0000 0.0000 15.7320 0.0000
# 6 0.0000 0.0000 0.0000 0.0000 0.0000 16.2812
#
#
#
# Elastic Compliance Matrix: (Units=1/GPa)
#
#
# Indices 1 2 3 4 5 6 
#
# 1 0.009606 -0.002306 -0.000835 0.000000 0.000000 0.000000
# 2 -0.002306 0.006576 -0.001977 0.000000 0.000000 0.000000
# 3 -0.000835 -0.001977 0.015183 0.000000 0.000000 0.000000
# 4 0.000000 0.000000 0.000000 0.066914 0.000000 0.000000
# 5 0.000000 0.000000 0.000000 0.000000 0.063565 0.000000
# 6 0.000000 0.000000 0.000000 0.000000 0.000000 0.061420
#
#
# Mechanical properties :
#
#
# Convention : Reuss Voigt Hill
#
# Bulk Modulus (GPa) = 47.32536 58.21912 52.77224
# Shear Modulus (GPa) = 20.78622 28.00124 24.39373
#
# Velocity S-wave (km/s) = 2.99717 3.47867 3.24686
# Velocity P-wave (km/s) = 5.69471 6.42612 6.07144
#
# Compressibility (1/GPa) = 0.02113032
#
# Stress axis : x y z
#
# Youngs Moduli (GPa) = 104.09969 152.06195 65.86188
#
# Poissons Ratio (x) = 0.35068 0.05497
# Poissons Ratio (y) = 0.24007 0.13020
# Poissons Ratio (z) = 0.08689 0.30061
#
# Static dielectric constant tensor:
#      x y z
#    x 4.386420 0.000000 0.000000 
#    y 0.000000 4.446650 0.000000 
#    z 0.000000 0.000000 3.580400 
# 
# 
# High freq. dielectric constant tensor:
#      x y z
#    x 1.890720 0.000000 0.000000 
#    y 0.000000 1.928630 0.000000 
#    z 0.000000 0.000000 1.871030 
# 
# From -- ./inp_files/24681.got.cif
#   From: 2010.03.12/outbox.cif.g09.slc.cpg/sg64_13_cif.got.tgz:24681.got - 2010.04.10 20:19:32.
