data_PCOD8262238
_publ_section_title
;
Structure prediction by ZEFSAII (Michael W. Deem and Ramdas Pophale) SiO2 
 PCOD8262238
Probable space group: C M C A
;
_chemical_formula_sum "Si O2"
_cell_formula_units_Z 96
_cell_length_a 15.402601
_cell_length_b 22.485538
_cell_length_c 14.916383
_cell_angle_alpha 90.000000
_cell_angle_beta 90.000000
_cell_angle_gamma 90.000000
_cell_volume 5166.076993
_symmetry_space_group_name_H-M "C M C A"
_symmetry_group_IT_number 64
_symmetry_cell_setting 'orthorhombic'
loop_
_space_group_symop_operation_xyz
x,y,z
-x,1/2-y,1/2+z
x,-y,-z
-x,1/2+y,1/2-z
-x,-y,-z
x,1/2+y,1/2-z
-x,y,z
x,1/2-y,1/2+z
1/2+x,1/2+y,z
1/2-x,-y,1/2+z
1/2+x,1/2-y,-z
1/2-x,y,1/2-z
1/2-x,1/2-y,-z
1/2+x,y,1/2-z
1/2-x,1/2+y,z
1/2+x,-y,1/2+z
loop_
_atom_site_type_symbol
_atom_site_label
_atom_site_fract_x
_atom_site_fract_y
_atom_site_fract_z
Si Si1 0.102043 0.128366 0.327793
Si Si2 0.714913 0.562017 0.460533
Si Si3 0.719829 0.764812 0.852029
Si Si4 0.818475 0.332774 0.494092
Si Si5 0.669387 0.537688 0.197881
Si Si6 0.500000 0.103413 0.494034
Si Si7 0.000000 0.506087 0.640610
O O1 0.130897 0.085327 0.408443
O O2 0.134513 0.194671 0.343809
O O3 0.146840 0.102293 0.238688
O O4 0.000000 0.128007 0.318265
O O5 0.683150 0.500000 0.500000
O O6 0.751227 0.612783 0.527196
O O7 0.801642 0.549518 0.402938
O O8 0.750000 0.749719 0.750000
O O9 0.688788 0.706312 0.904356
O O10 0.791773 0.798237 0.913806
O O11 0.916639 0.354107 0.508763
O O12 0.750000 0.507094 0.250000
O O13 0.586462 0.493915 0.202040
O O14 0.500000 0.066013 0.585151
O O15 0.500000 0.056244 0.413188
#
# Coordination Sequence:
#
# PCOD8262238 Si02
#       7
#    16  16  16  16  16   8   8
#     4  10  20  34  56  84 111 139 195 248 280 333
#     4  10  19  35  56  81 113 152 184 224 291 352
#     4  10  22  40  60  83 113 155 197 242 298 346
#     4  10  21  38  59  85 117 149 195 245 289 355
#     4  10  19  32  53  82 111 142 191 240 282 337
#     4  11  22  34  55  89 117 147 189 234 300 355
#     4  11  20  34  57  85 120 145 188 245 297 349
#
# _framework density 18.582764999999998
#
# number of rings (size 3 to 8) (size 9 to 14) (size 15 to 20)
#    0.000    1.833    2.500    3.500    1.167    0.333 
#    0.000    6.667    0.000    0.000    0.000    0.000 
#    0.000    0.000    0.000    0.000    0.000    0.000 
#
# Total GULP energy -594878.430007 kJ/mol
# GULP energy per Si atom -12393.300625 kJ/mol
# Density = 1.854047 g / cm^3
# Si number density = 18.582765 Si / 1000 Ang^3
#
#
#
# Elastic Constant Matrix: (Units=GPa)
#
#
# Indices 1 2 3 4 5 6 
#
# 1 115.1365 13.2859 29.0944 0.0000 0.0000 0.0000
# 2 13.2859 68.5777 36.6002 0.0000 0.0000 0.0000
# 3 29.0944 36.6002 88.4061 0.0000 0.0000 0.0000
# 4 0.0000 0.0000 0.0000 26.8411 0.0000 0.0000
# 5 0.0000 0.0000 0.0000 0.0000 17.5698 0.0000
# 6 0.0000 0.0000 0.0000 0.0000 0.0000 19.1893
#
#
#
# Elastic Compliance Matrix: (Units=1/GPa)
#
#
# Indices 1 2 3 4 5 6 
#
# 1 0.009476 -0.000220 -0.003027 0.000000 0.000000 0.000000
# 2 -0.000220 0.018723 -0.007679 0.000000 0.000000 0.000000
# 3 -0.003027 -0.007679 0.015487 0.000000 0.000000 0.000000
# 4 0.000000 0.000000 0.000000 0.037256 0.000000 0.000000
# 5 0.000000 0.000000 0.000000 0.000000 0.056916 0.000000
# 6 0.000000 0.000000 0.000000 0.000000 0.000000 0.052112
#
#
# Mechanical properties :
#
#
# Convention : Reuss Voigt Hill
#
# Bulk Modulus (GPa) = 45.80256 47.78680 46.79468
# Shear Modulus (GPa) = 22.82064 25.59604 24.20834
#
# Velocity S-wave (km/s) = 3.50816 3.71537 3.61325
# Velocity P-wave (km/s) = 6.41178 6.64656 6.53023
#
# Compressibility (1/GPa) = 0.02183284
#
# Stress axis : x y z
#
# Youngs Moduli (GPa) = 105.53280 53.41053 64.57111
#
# Poissons Ratio (x) = 0.01175 0.19548
# Poissons Ratio (y) = 0.02323 0.49583
# Poissons Ratio (z) = 0.31948 0.41013
#
# Static dielectric constant tensor:
#      x y z
#    x 3.454130 0.000000 0.000000 
#    y 0.000000 3.440810 0.000000 
#    z 0.000000 0.000000 3.414620 
# 
# 
# High freq. dielectric constant tensor:
#      x y z
#    x 1.727690 0.000000 0.000000 
#    y 0.000000 1.707970 0.000000 
#    z 0.000000 0.000000 1.709520 
# 
# From -- ./inp_files/24153.got.cif
#   From: 2010.03.12/outbox.cif.g09.slc.cpg/sg64_13_cif.got.tgz:24153.got - 2010.04.10 20:19:32.
