data_PCOD8262780
_publ_section_title
;
Structure prediction by ZEFSAII (Michael W. Deem and Ramdas Pophale) SiO2 
 PCOD8262780
Probable space group: C M C A
;
_chemical_formula_sum "Si O2"
_cell_formula_units_Z 112
_cell_length_a 17.151782
_cell_length_b 31.441805
_cell_length_c 10.996943
_cell_angle_alpha 90.000000
_cell_angle_beta 90.000000
_cell_angle_gamma 90.000000
_cell_volume 5930.464247
_symmetry_space_group_name_H-M "C M C A"
_symmetry_group_IT_number 64
_symmetry_cell_setting 'orthorhombic'
loop_
_space_group_symop_operation_xyz
x,y,z
-x,1/2-y,1/2+z
x,-y,-z
-x,1/2+y,1/2-z
-x,-y,-z
x,1/2+y,1/2-z
-x,y,z
x,1/2-y,1/2+z
1/2+x,1/2+y,z
1/2-x,-y,1/2+z
1/2+x,1/2-y,-z
1/2-x,y,1/2-z
1/2-x,1/2-y,-z
1/2+x,y,1/2-z
1/2-x,1/2+y,z
1/2+x,-y,1/2+z
loop_
_atom_site_type_symbol
_atom_site_label
_atom_site_fract_x
_atom_site_fract_y
_atom_site_fract_z
Si Si1 0.093404 0.041217 0.069082
Si Si2 0.408035 0.519398 0.329166
Si Si3 0.092875 0.219908 0.996384
Si Si4 0.661428 0.765461 0.234358
Si Si5 0.336227 0.636296 0.709747
Si Si6 0.410008 0.873827 0.454283
Si Si7 0.908259 0.067454 0.561841
O O1 0.125770 0.037558 0.204896
O O2 0.000000 0.041502 0.061452
O O3 0.129241 0.085222 0.017829
O O4 0.126426 0.000000 0.000000
O O5 0.500000 0.523834 0.336606
O O6 0.374613 0.549131 0.435530
O O7 0.388390 0.469304 0.339779
O O8 0.122349 0.240167 0.122522
O O9 0.000000 0.222207 0.994269
O O10 0.121463 0.241112 0.867935
O O11 0.125331 0.171275 0.999107
O O12 0.750000 0.750019 0.250000
O O13 0.657334 0.813681 0.186970
O O14 0.250000 0.623305 0.750000
O O15 0.398085 0.621674 0.810768
O O16 0.360530 0.610507 0.589397
O O17 0.500000 0.873959 0.486453
O O18 0.000000 0.078010 0.557225
#
# Coordination Sequence:
#
# PCOD8262780 Si02
#       7
#    16  16  16  16  16  16  16
#     4   9  15  25  46  75 101 128 167 207 247 306
#     4   8  15  27  47  74 101 129 166 211 260 312
#     4  10  20  36  57  83 112 139 178 236 283 323
#     4  10  21  38  58  80 108 149 188 219 278 351
#     4  10  20  33  52  74 101 136 178 217 256 319
#     4   9  18  32  52  75 102 132 167 214 264 306
#     4   9  16  29  50  73  99 133 170 214 263 306
#
# _framework density 18.885536999999999
#
# number of rings (size 3 to 8) (size 9 to 14) (size 15 to 20)
#    0.000    2.714    0.000    3.000    0.000    4.000 
#    2.571    0.000    9.429    0.000    0.000    0.000 
#    0.000    0.000    0.000    0.000    0.000    0.000 
#
# Total GULP energy -693889.124230 kJ/mol
# GULP energy per Si atom -12390.877218 kJ/mol
# Density = 1.884255 g / cm^3
# Si number density = 18.885537 Si / 1000 Ang^3
#
#
#
# Elastic Constant Matrix: (Units=GPa)
#
#
# Indices 1 2 3 4 5 6 
#
# 1 48.6741 29.1350 26.3455 0.0000 0.0000 0.0000
# 2 29.1350 105.4626 64.9367 0.0000 0.0000 0.0000
# 3 26.3455 64.9367 119.8127 0.0000 0.0000 0.0000
# 4 0.0000 0.0000 0.0000 36.4743 0.0000 0.0000
# 5 0.0000 0.0000 0.0000 0.0000 20.6641 0.0000
# 6 0.0000 0.0000 0.0000 0.0000 0.0000 17.9861
#
#
#
# Elastic Compliance Matrix: (Units=1/GPa)
#
#
# Indices 1 2 3 4 5 6 
#
# 1 0.025163 -0.005320 -0.002650 0.000000 0.000000 0.000000
# 2 -0.005320 0.015356 -0.007153 0.000000 0.000000 0.000000
# 3 -0.002650 -0.007153 0.012806 0.000000 0.000000 0.000000
# 4 0.000000 0.000000 0.000000 0.027417 0.000000 0.000000
# 5 0.000000 0.000000 0.000000 0.000000 0.048393 0.000000
# 6 0.000000 0.000000 0.000000 0.000000 0.000000 0.055598
#
#
# Mechanical properties :
#
#
# Convention : Reuss Voigt Hill
#
# Bulk Modulus (GPa) = 43.32801 57.19821 50.26311
# Shear Modulus (GPa) = 22.45454 25.26039 23.85746
#
# Velocity S-wave (km/s) = 3.45190 3.66122 3.55810
# Velocity P-wave (km/s) = 6.23536 6.94444 6.59943
#
# Compressibility (1/GPa) = 0.02307976
#
# Stress axis : x y z
#
# Youngs Moduli (GPa) = 39.74012 65.12088 78.08964
#
# Poissons Ratio (x) = 0.34645 0.20692
# Poissons Ratio (y) = 0.21142 0.55857
# Poissons Ratio (z) = 0.10530 0.46580
#
# Static dielectric constant tensor:
#      x y z
#    x 3.134850 0.000000 0.000000 
#    y 0.000000 3.630470 0.000000 
#    z 0.000000 0.000000 3.784210 
# 
# 
# High freq. dielectric constant tensor:
#      x y z
#    x 1.700910 0.000000 0.000000 
#    y 0.000000 1.735250 0.000000 
#    z 0.000000 0.000000 1.734680 
# 
# From -- ./inp_files/14941.got.cif
#   From: 2010.03.12/outbox.cif.g09.slc.cpg/sg64_8_cif.got.tgz:14941.got - 2010.04.10 20:19:32.
