data_PCOD8262005
_publ_section_title
;
Structure prediction by ZEFSAII (Michael W. Deem and Ramdas Pophale) SiO2 
 PCOD8262005
Probable space group: C M C A
;
_chemical_formula_sum "Si O2"
_cell_formula_units_Z 96
_cell_length_a 8.986349
_cell_length_b 32.472377
_cell_length_c 18.707549
_cell_angle_alpha 90.000000
_cell_angle_beta 90.000000
_cell_angle_gamma 90.000000
_cell_volume 5459.014565
_symmetry_space_group_name_H-M "C M C A"
_symmetry_group_IT_number 64
_symmetry_cell_setting 'orthorhombic'
loop_
_space_group_symop_operation_xyz
x,y,z
-x,1/2-y,1/2+z
x,-y,-z
-x,1/2+y,1/2-z
-x,-y,-z
x,1/2+y,1/2-z
-x,y,z
x,1/2-y,1/2+z
1/2+x,1/2+y,z
1/2-x,-y,1/2+z
1/2+x,1/2-y,-z
1/2-x,y,1/2-z
1/2-x,1/2-y,-z
1/2+x,y,1/2-z
1/2-x,1/2+y,z
1/2+x,-y,1/2+z
loop_
_atom_site_type_symbol
_atom_site_label
_atom_site_fract_x
_atom_site_fract_y
_atom_site_fract_z
Si Si1 0.674012 0.541321 0.032748
Si Si2 0.674002 0.841274 0.900435
Si Si3 0.822133 0.415409 0.675387
Si Si4 0.673936 0.125973 0.534666
Si Si5 0.327863 0.760836 0.821146
Si Si6 0.174587 0.831361 0.177467
O O1 0.500000 0.533865 0.039126
O O2 0.730685 0.552933 0.112663
O O3 0.750072 0.500000 0.000000
O O4 0.710509 0.578037 0.977685
O O5 0.500000 0.852059 0.894202
O O6 0.763592 0.870151 0.845307
O O7 0.706863 0.793493 0.883228
O O8 0.730566 0.846669 0.980713
O O9 0.750000 0.430030 0.750000
O O10 0.000000 0.413839 0.682256
O O11 0.500000 0.135214 0.520922
O O12 0.723468 0.137991 0.614317
O O13 0.500000 0.759074 0.803188
O O14 0.250000 0.776904 0.750000
O O15 0.271889 0.715037 0.842610
O O16 0.250000 0.847087 0.250000
O O17 0.000000 0.833108 0.189523
#
# Coordination Sequence:
#
# PCOD8262005 Si02
#       6
#    16  16  16  16  16  16
#     4   8  15  30  51  71  91 120 156 189 226 277
#     4  10  19  30  46  69  96 124 156 193 232 276
#     4  10  19  31  49  72  98 127 157 191 234 281
#     4   9  18  32  50  70  92 121 155 192 236 283
#     4   9  18  30  44  64  91 124 158 192 229 270
#     4   9  18  33  49  66  91 122 158 195 231 273
#
# _framework density 17.585591000000001
#
# number of rings (size 3 to 8) (size 9 to 14) (size 15 to 20)
#    0.000    2.833    0.000    2.500    0.000    4.000 
#    0.000    0.833    0.000   12.500    0.000    0.000 
#    0.000    0.000    0.000    0.000    0.000    0.000 
#
# Total GULP energy -595021.765403 kJ/mol
# GULP energy per Si atom -12396.286779 kJ/mol
# Density = 1.754556 g / cm^3
# Si number density = 17.585591 Si / 1000 Ang^3
#
#
#
# Elastic Constant Matrix: (Units=GPa)
#
#
# Indices 1 2 3 4 5 6 
#
# 1 45.3368 31.4227 40.8861 0.0000 0.0000 0.0000
# 2 31.4227 102.3860 83.1977 0.0000 0.0000 0.0000
# 3 40.8861 83.1977 149.5548 0.0000 0.0000 0.0000
# 4 0.0000 0.0000 0.0000 24.2720 0.0000 0.0000
# 5 0.0000 0.0000 0.0000 0.0000 30.9959 0.0000
# 6 0.0000 0.0000 0.0000 0.0000 0.0000 14.6664
#
#
#
# Elastic Compliance Matrix: (Units=1/GPa)
#
#
# Indices 1 2 3 4 5 6 
#
# 1 0.030472 -0.004713 -0.005709 0.000000 0.000000 0.000000
# 2 -0.004713 0.018553 -0.009033 0.000000 0.000000 0.000000
# 3 -0.005709 -0.009033 0.013272 0.000000 0.000000 0.000000
# 4 0.000000 0.000000 0.000000 0.041200 0.000000 0.000000
# 5 0.000000 0.000000 0.000000 0.000000 0.032262 0.000000
# 6 0.000000 0.000000 0.000000 0.000000 0.000000 0.068183
#
#
# Mechanical properties :
#
#
# Convention : Reuss Voigt Hill
#
# Bulk Modulus (GPa) = 42.75639 67.58783 55.17211
# Shear Modulus (GPa) = 19.94829 23.43826 21.69328
#
# Velocity S-wave (km/s) = 3.37167 3.65473 3.51605
# Velocity P-wave (km/s) = 6.28678 7.50510 6.92279
#
# Compressibility (1/GPa) = 0.02338832
#
# Stress axis : x y z
#
# Youngs Moduli (GPa) = 32.81689 53.89842 75.34597
#
# Poissons Ratio (x) = 0.25404 0.43012
# Poissons Ratio (y) = 0.15468 0.68058
# Poissons Ratio (z) = 0.18734 0.48685
#
# Static dielectric constant tensor:
#      x y z
#    x 3.150870 0.000000 0.000000 
#    y 0.000000 3.423320 0.000000 
#    z 0.000000 0.000000 3.368740 
# 
# 
# High freq. dielectric constant tensor:
#      x y z
#    x 1.665980 0.000000 0.000000 
#    y 0.000000 1.669080 0.000000 
#    z 0.000000 0.000000 1.678380 
# 
# From -- ./inp_files/37059.got.cif
#   From: 2010.03.12/outbox.cif.g09.slc.cpg/sg64_19_cif.got.tgz:37059.got - 2010.04.10 20:19:32.
