data_PCOD8262575
_publ_section_title
;
Structure prediction by ZEFSAII (Michael W. Deem and Ramdas Pophale) SiO2 
 PCOD8262575
Probable space group: C M C A
;
_chemical_formula_sum "Si O2"
_cell_formula_units_Z 96
_cell_length_a 8.877719
_cell_length_b 23.399601
_cell_length_c 25.623726
_cell_angle_alpha 90.000000
_cell_angle_beta 90.000000
_cell_angle_gamma 90.000000
_cell_volume 5322.946832
_symmetry_space_group_name_H-M "C M C A"
_symmetry_group_IT_number 64
_symmetry_cell_setting 'orthorhombic'
loop_
_space_group_symop_operation_xyz
x,y,z
-x,1/2-y,1/2+z
x,-y,-z
-x,1/2+y,1/2-z
-x,-y,-z
x,1/2+y,1/2-z
-x,y,z
x,1/2-y,1/2+z
1/2+x,1/2+y,z
1/2-x,-y,1/2+z
1/2+x,1/2-y,-z
1/2-x,y,1/2-z
1/2-x,1/2-y,-z
1/2+x,y,1/2-z
1/2-x,1/2+y,z
1/2+x,-y,1/2+z
loop_
_atom_site_type_symbol
_atom_site_label
_atom_site_fract_x
_atom_site_fract_y
_atom_site_fract_z
Si Si1 0.321225 0.811536 0.998224
Si Si2 0.178011 0.118598 0.596699
Si Si3 0.177239 0.619199 0.406510
Si Si4 0.823369 0.005021 0.439045
Si Si5 0.175944 0.816069 0.802986
Si Si6 0.178354 0.186156 0.696197
O O1 0.500000 0.806697 0.999203
O O2 0.270940 0.843361 0.946527
O O3 0.250000 0.750000 0.000000
O O4 0.257576 0.846402 0.047664
O O5 0.242175 0.145575 0.650153
O O6 0.000000 0.124548 0.595934
O O7 0.224679 0.052631 0.590883
O O8 0.225079 0.553576 0.411605
O O9 0.222774 0.641618 0.349349
O O10 0.000000 0.626514 0.416912
O O11 0.000000 0.018873 0.432772
O O12 0.782284 0.000000 0.500000
O O13 0.250000 0.839085 0.750000
O O14 0.229174 0.751294 0.815823
O O15 0.000000 0.816526 0.793664
O O16 0.250000 0.164227 0.750000
O O17 0.000000 0.181141 0.700640
#
# Coordination Sequence:
#
# PCOD8262575 Si02
#       6
#    16  16  16  16  16  16
#     4  11  21  35  54  80 110 142 178 222 272 331
#     4   9  18  34  55  75 104 142 178 215 265 320
#     4  11  22  36  54  81 112 142 178 228 281 326
#     4  10  19  36  57  77 103 146 192 221 258 326
#     4   9  19  35  55  78 107 140 179 222 272 328
#     4   9  17  33  55  77 102 136 173 216 267 320
#
# _framework density 18.035122999999999
#
# number of rings (size 3 to 8) (size 9 to 14) (size 15 to 20)
#    0.000    2.167    1.667    2.000    0.000    4.333 
#    0.000    6.667    0.000    4.000    0.000    0.000 
#    0.000    0.000    0.000    0.000    0.000    0.000 
#
# Total GULP energy -595253.371271 kJ/mol
# GULP energy per Si atom -12401.111901 kJ/mol
# Density = 1.799407 g / cm^3
# Si number density = 18.035123 Si / 1000 Ang^3
#
#
#
# Elastic Constant Matrix: (Units=GPa)
#
#
# Indices 1 2 3 4 5 6 
#
# 1 41.2050 34.2506 39.5576 0.0000 0.0000 0.0000
# 2 34.2506 131.6382 80.1339 0.0000 0.0000 0.0000
# 3 39.5576 80.1339 154.3702 0.0000 0.0000 0.0000
# 4 0.0000 0.0000 0.0000 27.4020 0.0000 0.0000
# 5 0.0000 0.0000 0.0000 0.0000 29.7271 0.0000
# 6 0.0000 0.0000 0.0000 0.0000 0.0000 30.2919
#
#
#
# Elastic Compliance Matrix: (Units=1/GPa)
#
#
# Indices 1 2 3 4 5 6 
#
# 1 0.034508 -0.005257 -0.006114 0.000000 0.000000 0.000000
# 2 -0.005257 0.011907 -0.004834 0.000000 0.000000 0.000000
# 3 -0.006114 -0.004834 0.010554 0.000000 0.000000 0.000000
# 4 0.000000 0.000000 0.000000 0.036494 0.000000 0.000000
# 5 0.000000 0.000000 0.000000 0.000000 0.033639 0.000000
# 6 0.000000 0.000000 0.000000 0.000000 0.000000 0.033012
#
#
# Mechanical properties :
#
#
# Convention : Reuss Voigt Hill
#
# Bulk Modulus (GPa) = 40.71709 70.56639 55.64174
# Shear Modulus (GPa) = 24.91165 29.03563 26.97364
#
# Velocity S-wave (km/s) = 3.72060 4.01677 3.87152
# Velocity P-wave (km/s) = 6.40958 7.79261 7.13468
#
# Compressibility (1/GPa) = 0.02455971
#
# Stress axis : x y z
#
# Youngs Moduli (GPa) = 28.97886 83.98506 94.75170
#
# Poissons Ratio (x) = 0.44148 0.57931
# Poissons Ratio (y) = 0.15233 0.45802
# Poissons Ratio (z) = 0.17717 0.40597
#
# Static dielectric constant tensor:
#      x y z
#    x 3.141740 0.000000 0.000000 
#    y 0.000000 3.328470 0.000000 
#    z 0.000000 0.000000 3.464210 
# 
# 
# High freq. dielectric constant tensor:
#      x y z
#    x 1.682210 0.000000 0.000000 
#    y 0.000000 1.701170 0.000000 
#    z 0.000000 0.000000 1.702880 
# 
# From -- ./inp_files/43000.got.cif
#   From: 2010.03.12/outbox.cif.g09.slc.cpg/sg64_22_cif.got.tgz:43000.got - 2010.04.10 20:19:32.
