data_PCOD8263076
_publ_section_title
;
Structure prediction by ZEFSAII (Michael W. Deem and Ramdas Pophale) SiO2 
 PCOD8263076
Probable space group: C M C A
;
_chemical_formula_sum "Si O2"
_cell_formula_units_Z 96
_cell_length_a 8.669297
_cell_length_b 29.193454
_cell_length_c 18.854565
_cell_angle_alpha 90.000000
_cell_angle_beta 90.000000
_cell_angle_gamma 90.000000
_cell_volume 4771.840073
_symmetry_space_group_name_H-M "C M C A"
_symmetry_group_IT_number 64
_symmetry_cell_setting 'orthorhombic'
loop_
_space_group_symop_operation_xyz
x,y,z
-x,1/2-y,1/2+z
x,-y,-z
-x,1/2+y,1/2-z
-x,-y,-z
x,1/2+y,1/2-z
-x,y,z
x,1/2-y,1/2+z
1/2+x,1/2+y,z
1/2-x,-y,1/2+z
1/2+x,1/2-y,-z
1/2-x,y,1/2-z
1/2-x,1/2-y,-z
1/2+x,y,1/2-z
1/2-x,1/2+y,z
1/2+x,-y,1/2+z
loop_
_atom_site_type_symbol
_atom_site_label
_atom_site_fract_x
_atom_site_fract_y
_atom_site_fract_z
Si Si1 0.822857 0.590510 0.441388
Si Si2 0.677762 0.484953 0.826409
Si Si3 0.181445 0.856739 0.175666
Si Si4 0.317813 0.065854 0.916409
Si Si5 0.320865 0.723635 0.602921
Si Si6 0.179614 0.188386 0.447364
O O1 0.804703 0.561888 0.369609
O O2 0.754726 0.560106 0.505547
O O3 0.730150 0.637146 0.430088
O O4 0.000000 0.601974 0.458173
O O5 0.500000 0.499777 0.819126
O O6 0.750000 0.476358 0.750000
O O7 0.767845 0.525148 0.865527
O O8 0.250000 0.873719 0.250000
O O9 0.260463 0.885888 0.113823
O O10 0.224544 0.803689 0.162409
O O11 0.000000 0.864534 0.175439
O O12 0.500000 0.066784 0.924062
O O13 0.500000 0.719921 0.621585
O O14 0.269980 0.776627 0.604074
O O15 0.279256 0.700678 0.527919
O O16 0.000000 0.193927 0.432138
#
# Coordination Sequence:
#
# PCOD8263076 Si02
#       6
#    16  16  16  16  16  16
#     4  11  23  40  64  93 124 159 204 257 307 362
#     4  11  25  44  64  89 122 162 204 251 308 366
#     4  12  24  39  60  87 125 165 205 254 311 370
#     4  12  24  40  63  92 123 159 204 253 307 367
#     4  10  20  36  58  87 122 158 201 248 300 360
#     4  10  20  35  60  90 121 157 200 249 300 356
#
# _framework density 20.118024999999999
#
# number of rings (size 3 to 8) (size 9 to 14) (size 15 to 20)
#    0.000    1.000    1.667    6.000    0.000    6.000 
#    0.000    0.833    0.000    2.000    0.000    0.000 
#    0.000    0.000    0.000    0.000    0.000    0.000 
#
# Total GULP energy -595543.712037 kJ/mol
# GULP energy per Si atom -12407.160667 kJ/mol
# Density = 2.007224 g / cm^3
# Si number density = 20.118025 Si / 1000 Ang^3
#
#
#
# Elastic Constant Matrix: (Units=GPa)
#
#
# Indices 1 2 3 4 5 6 
#
# 1 84.6909 12.0103 29.3652 0.0000 0.0000 0.0000
# 2 12.0103 83.1858 28.8428 0.0000 0.0000 0.0000
# 3 29.3652 28.8428 77.8744 0.0000 0.0000 0.0000
# 4 0.0000 0.0000 0.0000 6.6759 0.0000 0.0000
# 5 0.0000 0.0000 0.0000 0.0000 33.6864 0.0000
# 6 0.0000 0.0000 0.0000 0.0000 0.0000 34.5021
#
#
#
# Elastic Compliance Matrix: (Units=1/GPa)
#
#
# Indices 1 2 3 4 5 6 
#
# 1 0.013587 -0.000213 -0.005045 0.000000 0.000000 0.000000
# 2 -0.000213 0.013796 -0.005029 0.000000 0.000000 0.000000
# 3 -0.005045 -0.005029 0.016606 0.000000 0.000000 0.000000
# 4 0.000000 0.000000 0.000000 0.149793 0.000000 0.000000
# 5 0.000000 0.000000 0.000000 0.000000 0.029686 0.000000
# 6 0.000000 0.000000 0.000000 0.000000 0.000000 0.028984
#
#
# Mechanical properties :
#
#
# Convention : Reuss Voigt Hill
#
# Bulk Modulus (GPa) = 42.70659 42.90972 42.80815
# Shear Modulus (GPa) = 17.80435 26.67506 22.23971
#
# Velocity S-wave (km/s) = 2.97811 3.64528 3.32846
# Velocity P-wave (km/s) = 5.75323 6.25242 6.00801
#
# Compressibility (1/GPa) = 0.02341559
#
# Stress axis : x y z
#
# Youngs Moduli (GPa) = 73.60008 72.48566 60.21822
#
# Poissons Ratio (x) = 0.01541 0.30378
# Poissons Ratio (y) = 0.01564 0.30287
# Poissons Ratio (z) = 0.37129 0.36457
#
# Static dielectric constant tensor:
#      x y z
#    x 3.772400 0.000000 0.000000 
#    y 0.000000 3.689820 0.000000 
#    z 0.000000 0.000000 3.604940 
# 
# 
# High freq. dielectric constant tensor:
#      x y z
#    x 1.803440 0.000000 0.000000 
#    y 0.000000 1.792560 0.000000 
#    z 0.000000 0.000000 1.771910 
# 
# From -- ./inp_files/37120.got.cif
#   From: 2010.03.12/outbox.cif.g09.slc.cpg/sg64_19_cif.got.tgz:37120.got - 2010.04.10 20:19:32.
