data_PCOD8263690
_publ_section_title
;
Structure prediction by ZEFSAII (Michael W. Deem and Ramdas Pophale) SiO2 
 PCOD8263690
Probable space group: C M C A
;
_chemical_formula_sum "Si O2"
_cell_formula_units_Z 80
_cell_length_a 29.692796
_cell_length_b 5.255002
_cell_length_c 21.989313
_cell_angle_alpha 90.000000
_cell_angle_beta 90.000000
_cell_angle_gamma 90.000000
_cell_volume 3431.117898
_symmetry_space_group_name_H-M "C M C A"
_symmetry_group_IT_number 64
_symmetry_cell_setting 'orthorhombic'
loop_
_space_group_symop_operation_xyz
x,y,z
-x,1/2-y,1/2+z
x,-y,-z
-x,1/2+y,1/2-z
-x,-y,-z
x,1/2+y,1/2-z
-x,y,z
x,1/2-y,1/2+z
1/2+x,1/2+y,z
1/2-x,-y,1/2+z
1/2+x,1/2-y,-z
1/2-x,y,1/2-z
1/2-x,1/2-y,-z
1/2+x,y,1/2-z
1/2-x,1/2+y,z
1/2+x,-y,1/2+z
loop_
_atom_site_type_symbol
_atom_site_label
_atom_site_fract_x
_atom_site_fract_y
_atom_site_fract_z
Si Si1 0.868357 0.680603 0.101964
Si Si2 0.402278 0.554208 0.789926
Si Si3 0.000000 0.519381 0.285915
Si Si4 0.549942 0.877815 0.066520
Si Si5 0.223457 0.488401 0.071687
Si Si6 0.897724 0.000000 0.000000
O O1 0.868005 0.897363 0.154208
O O2 0.915029 0.522613 0.110429
O O3 0.824508 0.503407 0.106593
O O4 0.865765 0.796191 0.033307
O O5 0.393855 0.285033 0.757520
O O6 0.452952 0.545296 0.819818
O O7 0.000000 0.819614 0.270559
O O8 0.500000 0.860937 0.096943
O O9 0.570400 0.599808 0.054543
O O10 0.546657 0.000000 0.000000
O O11 0.245851 0.225484 0.092865
O O12 0.216221 0.500000 0.000000
#
# Coordination Sequence:
#
# PCOD8263690 Si02
#       6
#    16  16   8  16  16   8
#     4  11  24  38  65  90 129 163 220 267 325 392
#     4  10  23  41  62  89 123 169 215 267 317 373
#     4   8  16  36  58  81 115 157 217 262 302 358
#     4   9  19  35  54  85 128 166 203 246 313 390
#     4  10  23  40  65  95 128 162 205 263 327 385
#     4  10  21  36  58  92 128 172 204 258 327 384
#
# _framework density 23.316013999999999
#
# number of rings (size 3 to 8) (size 9 to 14) (size 15 to 20)
#    0.000    2.200    0.000    2.100   11.200    0.800 
#    0.000    0.000    0.000    3.600    0.000    0.000 
#    0.000    0.000    0.000    0.000    0.000    0.000 
#
# Total GULP energy -495646.814912 kJ/mol
# GULP energy per Si atom -12391.170373 kJ/mol
# Density = 2.326295 g / cm^3
# Si number density = 23.316014 Si / 1000 Ang^3
#
#
#
# Elastic Constant Matrix: (Units=GPa)
#
#
# Indices 1 2 3 4 5 6 
#
# 1 113.9410 9.1065 16.1978 0.0000 0.0000 0.0000
# 2 9.1065 79.5462 -7.5778 0.0000 0.0000 0.0000
# 3 16.1978 -7.5778 31.1317 0.0000 0.0000 0.0000
# 4 0.0000 0.0000 0.0000 18.6223 0.0000 0.0000
# 5 0.0000 0.0000 0.0000 0.0000 25.5661 0.0000
# 6 0.0000 0.0000 0.0000 0.0000 0.0000 29.9247
#
#
#
# Elastic Compliance Matrix: (Units=1/GPa)
#
#
# Indices 1 2 3 4 5 6 
#
# 1 0.009679 -0.001625 -0.005431 0.000000 0.000000 0.000000
# 2 -0.001625 0.013143 0.004045 0.000000 0.000000 0.000000
# 3 -0.005431 0.004045 0.035932 0.000000 0.000000 0.000000
# 4 0.000000 0.000000 0.000000 0.053699 0.000000 0.000000
# 5 0.000000 0.000000 0.000000 0.000000 0.039114 0.000000
# 6 0.000000 0.000000 0.000000 0.000000 0.000000 0.033417
#
#
# Mechanical properties :
#
#
# Convention : Reuss Voigt Hill
#
# Bulk Modulus (GPa) = 18.96477 28.89687 23.93082
# Shear Modulus (GPa) = 23.97113 28.61543 26.29328
#
# Velocity S-wave (km/s) = 3.20987 3.50707 3.36176
# Velocity P-wave (km/s) = 4.67859 5.36841 5.03533
#
# Compressibility (1/GPa) = 0.05272935
#
# Stress axis : x y z
#
# Youngs Moduli (GPa) = 103.32176 76.08776 27.83028
#
# Poissons Ratio (x) = 0.12367 0.15116
# Poissons Ratio (y) = 0.16794 -0.11257
# Poissons Ratio (z) = 0.56118 -0.30776
#
# Static dielectric constant tensor:
#      x y z
#    x 4.141490 0.000000 0.000000 
#    y 0.000000 4.429940 0.000000 
#    z 0.000000 0.000000 3.624280 
# 
# 
# High freq. dielectric constant tensor:
#      x y z
#    x 1.904120 0.000000 0.000000 
#    y 0.000000 1.937380 0.000000 
#    z 0.000000 0.000000 1.882010 
# 
# From -- ./inp_files/47052.got.cif
#   From: 2010.03.12/outbox.cif.g09.slc.cpg/sg64_24_cif.got.tgz:47052.got - 2010.04.10 20:19:32.
