data_PCOD8263994
_publ_section_title
;
Structure prediction by ZEFSAII (Michael W. Deem and Ramdas Pophale) SiO2 
 PCOD8263994
Probable space group: C M C A
;
_chemical_formula_sum "Si O2"
_cell_formula_units_Z 104
_cell_length_a 26.100111
_cell_length_b 20.277586
_cell_length_c 9.803097
_cell_angle_alpha 90.000000
_cell_angle_beta 90.000000
_cell_angle_gamma 90.000000
_cell_volume 5188.262084
_symmetry_space_group_name_H-M "C M C A"
_symmetry_group_IT_number 64
_symmetry_cell_setting 'orthorhombic'
loop_
_space_group_symop_operation_xyz
x,y,z
-x,1/2-y,1/2+z
x,-y,-z
-x,1/2+y,1/2-z
-x,-y,-z
x,1/2+y,1/2-z
-x,y,z
x,1/2-y,1/2+z
1/2+x,1/2+y,z
1/2-x,-y,1/2+z
1/2+x,1/2-y,-z
1/2-x,y,1/2-z
1/2-x,1/2-y,-z
1/2+x,y,1/2-z
1/2-x,1/2+y,z
1/2+x,-y,1/2+z
loop_
_atom_site_type_symbol
_atom_site_label
_atom_site_fract_x
_atom_site_fract_y
_atom_site_fract_z
Si Si1 0.362641 0.500000 0.000000
Si Si2 0.556786 0.999758 0.719525
Si Si3 0.558625 0.871442 0.129219
Si Si4 0.197485 0.907027 0.808604
Si Si5 0.628305 0.772881 0.269704
Si Si6 0.805393 0.273201 0.541181
Si Si7 0.398314 0.870817 0.835169
O O1 0.400776 0.527480 0.884547
O O2 0.325433 0.446619 0.935344
O O3 0.500000 0.005255 0.654523
O O4 0.561175 0.050025 0.845869
O O5 0.563519 0.923479 0.764787
O O6 0.500000 0.847601 0.116608
O O7 0.585158 0.829041 0.249916
O O8 0.588420 0.857969 0.990493
O O9 0.250000 0.938424 0.750000
O O10 0.207728 0.836405 0.870135
O O11 0.158400 0.902219 0.681080
O O12 0.667579 0.778905 0.142611
O O13 0.657953 0.785485 0.411246
O O14 0.600767 0.700793 0.262108
O O15 0.750000 0.250000 0.500000
#
# Coordination Sequence:
#
# PCOD8263994 Si02
#       7
#     8  16  16  16  16  16  16
#     4  10  21  42  60  88 128 154 207 262 312 382
#     4  10  21  39  66  90 119 167 212 259 316 381
#     4  11  23  39  61  94 127 163 213 258 312 384
#     4  10  22  40  61  90 123 164 208 257 320 376
#     4  11  22  39  61  92 128 163 209 260 322 371
#     4  11  21  39  63  89 121 162 207 259 308 375
#     4  10  21  40  61  87 128 164 208 263 314 377
#
# _framework density 20.045248000000001
#
# number of rings (size 3 to 8) (size 9 to 14) (size 15 to 20)
#    0.000    1.538    1.538    4.385    0.000    2.462 
#    5.538    1.538    0.000    0.000    0.000    0.000 
#    0.000    0.000    0.000    0.000    0.000    0.000 
#
# Total GULP energy -644516.907242 kJ/mol
# GULP energy per Si atom -12394.555909 kJ/mol
# Density = 1.999962 g / cm^3
# Si number density = 20.045248 Si / 1000 Ang^3
#
#
#
# Elastic Constant Matrix: (Units=GPa)
#
#
# Indices 1 2 3 4 5 6 
#
# 1 123.3028 37.3618 45.0491 0.0000 0.0000 0.0000
# 2 37.3618 78.2371 9.3783 0.0000 0.0000 0.0000
# 3 45.0491 9.3783 95.2165 0.0000 0.0000 0.0000
# 4 0.0000 0.0000 0.0000 27.8388 0.0000 0.0000
# 5 0.0000 0.0000 0.0000 0.0000 17.7567 0.0000
# 6 0.0000 0.0000 0.0000 0.0000 0.0000 19.8367
#
#
#
# Elastic Compliance Matrix: (Units=1/GPa)
#
#
# Indices 1 2 3 4 5 6 
#
# 1 0.011368 -0.004841 -0.004902 0.000000 0.000000 0.000000
# 2 -0.004841 0.014996 0.000813 0.000000 0.000000 0.000000
# 3 -0.004902 0.000813 0.012741 0.000000 0.000000 0.000000
# 4 0.000000 0.000000 0.000000 0.035921 0.000000 0.000000
# 5 0.000000 0.000000 0.000000 0.000000 0.056317 0.000000
# 6 0.000000 0.000000 0.000000 0.000000 0.000000 0.050412
#
#
# Mechanical properties :
#
#
# Convention : Reuss Voigt Hill
#
# Bulk Modulus (GPa) = 47.06627 53.37055 50.21841
# Shear Modulus (GPa) = 24.19019 26.75091 25.47055
#
# Velocity S-wave (km/s) = 3.47764 3.65708 3.56849
# Velocity P-wave (km/s) = 6.29733 6.67197 6.48735
#
# Compressibility (1/GPa) = 0.02124664
#
# Stress axis : x y z
#
# Youngs Moduli (GPa) = 87.96766 66.68437 78.48490
#
# Poissons Ratio (x) = 0.32283 0.38470
# Poissons Ratio (y) = 0.42586 -0.06384
# Poissons Ratio (z) = 0.43118 -0.05424
#
# Static dielectric constant tensor:
#      x y z
#    x 3.855610 0.000000 0.000000 
#    y 0.000000 3.752440 0.000000 
#    z 0.000000 0.000000 3.876630 
# 
# 
# High freq. dielectric constant tensor:
#      x y z
#    x 1.792550 0.000000 0.000000 
#    y 0.000000 1.774430 0.000000 
#    z 0.000000 0.000000 1.783920 
# 
# From -- ./inp_files/10433.got.cif
#   From: 2010.03.12/outbox.cif.g09.slc.cpg/sg64_6_cif.got.tgz:10433.got - 2010.04.10 20:19:32.
