data_PCOD8263503
_publ_section_title
;
Structure prediction by ZEFSAII (Michael W. Deem and Ramdas Pophale) SiO2 
 PCOD8263503
Probable space group: C M C A
;
_chemical_formula_sum "Si O2"
_cell_formula_units_Z 96
_cell_length_a 15.558654
_cell_length_b 19.073661
_cell_length_c 15.948554
_cell_angle_alpha 90.000000
_cell_angle_beta 90.000000
_cell_angle_gamma 90.000000
_cell_volume 4732.900732
_symmetry_space_group_name_H-M "C M C A"
_symmetry_group_IT_number 64
_symmetry_cell_setting 'orthorhombic'
loop_
_space_group_symop_operation_xyz
x,y,z
-x,1/2-y,1/2+z
x,-y,-z
-x,1/2+y,1/2-z
-x,-y,-z
x,1/2+y,1/2-z
-x,y,z
x,1/2-y,1/2+z
1/2+x,1/2+y,z
1/2-x,-y,1/2+z
1/2+x,1/2-y,-z
1/2-x,y,1/2-z
1/2-x,1/2-y,-z
1/2+x,y,1/2-z
1/2-x,1/2+y,z
1/2+x,-y,1/2+z
loop_
_atom_site_type_symbol
_atom_site_label
_atom_site_fract_x
_atom_site_fract_y
_atom_site_fract_z
Si Si1 0.807741 0.994446 0.176686
Si Si2 0.346954 0.728162 0.278292
Si Si3 0.735027 0.686077 0.441169
Si Si4 0.903244 0.880260 0.275884
Si Si5 0.171128 0.061725 0.554378
Si Si6 0.096664 0.370450 0.646553
O O1 0.750000 0.030842 0.250000
O O2 0.884163 0.046856 0.152756
O O3 0.842656 0.921788 0.212818
O O4 0.753758 0.976626 0.094308
O O5 0.250000 0.732314 0.250000
O O6 0.339486 0.711558 0.376897
O O7 0.392764 0.799164 0.247944
O O8 0.400496 0.664119 0.238675
O O9 0.750000 0.750000 0.500000
O O10 0.698932 0.619942 0.489178
O O11 0.829441 0.668047 0.405873
O O12 0.884034 0.900520 0.372839
O O13 0.000000 0.902852 0.258454
O O14 0.122897 0.000000 0.500000
O O15 0.000000 0.361446 0.608671
#
# Coordination Sequence:
#
# PCOD8263503 Si02
#       6
#    16  16  16  16  16  16
#     4  10  20  39  64  87 120 167 214 244 302 386
#     4  10  21  39  63  85 115 163 214 252 301 380
#     4  11  22  40  64  89 121 165 207 251 316 383
#     4  11  23  40  63  92 125 163 211 266 313 364
#     4  11  22  39  65  92 126 166 208 257 313 387
#     4  11  22  38  60  89 121 158 208 263 307 361
#
# _framework density 20.283543999999999
#
# number of rings (size 3 to 8) (size 9 to 14) (size 15 to 20)
#    0.000    1.333    1.667    7.000    2.333    0.333 
#    0.000    7.500    0.000    0.000    0.000    0.000 
#    0.000    0.000    0.000    0.000    0.000    0.000 
#
# Total GULP energy -594869.183382 kJ/mol
# GULP energy per Si atom -12393.107987 kJ/mol
# Density = 2.023738 g / cm^3
# Si number density = 20.283544 Si / 1000 Ang^3
#
#
#
# Elastic Constant Matrix: (Units=GPa)
#
#
# Indices 1 2 3 4 5 6 
#
# 1 77.3888 12.6597 9.2924 0.0000 0.0000 0.0000
# 2 12.6597 113.2866 47.4824 0.0000 0.0000 0.0000
# 3 9.2924 47.4824 101.4526 0.0000 0.0000 0.0000
# 4 0.0000 0.0000 0.0000 25.9213 0.0000 0.0000
# 5 0.0000 0.0000 0.0000 0.0000 17.0317 0.0000
# 6 0.0000 0.0000 0.0000 0.0000 0.0000 20.7656
#
#
#
# Elastic Compliance Matrix: (Units=1/GPa)
#
#
# Indices 1 2 3 4 5 6 
#
# 1 0.013196 -0.001204 -0.000645 0.000000 0.000000 0.000000
# 2 -0.001204 0.011091 -0.005081 0.000000 0.000000 0.000000
# 3 -0.000645 -0.005081 0.012294 0.000000 0.000000 0.000000
# 4 0.000000 0.000000 0.000000 0.038578 0.000000 0.000000
# 5 0.000000 0.000000 0.000000 0.000000 0.058714 0.000000
# 6 0.000000 0.000000 0.000000 0.000000 0.000000 0.048157
#
#
# Mechanical properties :
#
#
# Convention : Reuss Voigt Hill
#
# Bulk Modulus (GPa) = 44.01174 47.88854 45.95014
# Shear Modulus (GPa) = 24.57439 27.58996 26.08217
#
# Velocity S-wave (km/s) = 3.48450 3.69211 3.58981
# Velocity P-wave (km/s) = 6.15908 6.46810 6.31548
#
# Compressibility (1/GPa) = 0.02272121
#
# Stress axis : x y z
#
# Youngs Moduli (GPa) = 75.77922 90.16125 81.34195
#
# Poissons Ratio (x) = 0.10858 0.05247
# Poissons Ratio (y) = 0.09126 0.41327
# Poissons Ratio (z) = 0.04888 0.45808
#
# Static dielectric constant tensor:
#      x y z
#    x 3.683750 0.000000 0.000000 
#    y 0.000000 3.928060 0.000000 
#    z 0.000000 0.000000 4.127270 
# 
# 
# High freq. dielectric constant tensor:
#      x y z
#    x 1.774580 0.000000 0.000000 
#    y 0.000000 1.812270 0.000000 
#    z 0.000000 0.000000 1.793810 
# 
# From -- ./inp_files/23948.got.cif
#   From: 2010.03.12/outbox.cif.g09.slc.cpg/sg64_12_cif.got.tgz:23948.got - 2010.04.10 20:19:32.
