data_PCOD8263437
_publ_section_title
;
Structure prediction by ZEFSAII (Michael W. Deem and Ramdas Pophale) SiO2 
 PCOD8263437
Probable space group: C M C A
;
_chemical_formula_sum "Si O2"
_cell_formula_units_Z 88
_cell_length_a 14.240607
_cell_length_b 14.892634
_cell_length_c 21.469856
_cell_angle_alpha 90.000000
_cell_angle_beta 90.000000
_cell_angle_gamma 90.000000
_cell_volume 4553.330238
_symmetry_space_group_name_H-M "C M C A"
_symmetry_group_IT_number 64
_symmetry_cell_setting 'orthorhombic'
loop_
_space_group_symop_operation_xyz
x,y,z
-x,1/2-y,1/2+z
x,-y,-z
-x,1/2+y,1/2-z
-x,-y,-z
x,1/2+y,1/2-z
-x,y,z
x,1/2-y,1/2+z
1/2+x,1/2+y,z
1/2-x,-y,1/2+z
1/2+x,1/2-y,-z
1/2-x,y,1/2-z
1/2-x,1/2-y,-z
1/2+x,y,1/2-z
1/2-x,1/2+y,z
1/2+x,-y,1/2+z
loop_
_atom_site_type_symbol
_atom_site_label
_atom_site_fract_x
_atom_site_fract_y
_atom_site_fract_z
Si Si1 0.860370 0.832021 0.381247
Si Si2 0.500000 0.013233 0.572936
Si Si3 0.000000 0.178221 0.142003
Si Si4 0.359507 0.650828 0.872475
Si Si5 0.143098 0.564964 0.756152
Si Si6 0.500000 0.100276 0.979148
Si Si7 0.500000 0.303269 0.608975
Si Si8 0.500000 0.587925 0.266680
O O1 0.905534 0.732282 0.377609
O O2 0.748765 0.834114 0.390353
O O3 0.886997 0.884602 0.318632
O O4 0.906089 0.882200 0.439595
O O5 0.594204 0.069049 0.589188
O O6 0.500000 0.000000 0.500000
O O7 0.500000 0.918142 0.608278
O O8 0.000000 0.168574 0.216874
O O9 0.379985 0.631761 0.800180
O O10 0.406407 0.745237 0.886442
O O11 0.250000 0.536588 0.750000
O O12 0.090856 0.471094 0.752550
O O13 0.500000 0.158968 0.040344
O O14 0.500000 0.000000 0.000000
O O15 0.500000 0.378616 0.662386
#
# Coordination Sequence:
#
# PCOD8263437 Si02
#       8
#    16   8   8  16  16   8   8   8
#     4  10  23  40  66  88 125 162 202 257 309 360
#     4  11  24  42  64  91 128 159 208 255 306 372
#     4  11  22  39  64  96 121 157 211 257 303 369
#     4  10  22  44  62  90 122 166 201 253 311 366
#     4  10  20  38  63  91 122 156 203 253 308 365
#     4  11  24  43  57  90 124 161 208 249 301 372
#     4  11  24  37  62  85 127 162 208 248 297 374
#     4  12  20  37  61  95 122 163 198 257 311 349
#
# _framework density 19.326515000000001
#
# number of rings (size 3 to 8) (size 9 to 14) (size 15 to 20)
#    0.000    1.455    1.818    3.818    5.091    2.909 
#    3.273    0.000    0.000    0.000    0.000    0.000 
#    0.000    0.000    0.000    0.000    0.000    0.000 
#
# Total GULP energy -545595.972711 kJ/mol
# GULP energy per Si atom -12399.908471 kJ/mol
# Density = 1.928253 g / cm^3
# Si number density = 19.326515 Si / 1000 Ang^3
#
#
#
# Elastic Constant Matrix: (Units=GPa)
#
#
# Indices 1 2 3 4 5 6 
#
# 1 156.6294 74.8032 69.2394 0.0000 0.0000 0.0000
# 2 74.8032 124.6853 59.3004 0.0000 0.0000 0.0000
# 3 69.2394 59.3004 166.3992 0.0000 0.0000 0.0000
# 4 0.0000 0.0000 0.0000 35.5774 0.0000 0.0000
# 5 0.0000 0.0000 0.0000 0.0000 -150.9103 0.0000
# 6 0.0000 0.0000 0.0000 0.0000 0.0000 35.7011
#
#
#
# Elastic Compliance Matrix: (Units=1/GPa)
#
#
# Indices 1 2 3 4 5 6 
#
# 1 0.009657 -0.004675 -0.002352 0.000000 0.000000 0.000000
# 2 -0.004675 0.011920 -0.002303 0.000000 0.000000 0.000000
# 3 -0.002352 -0.002303 0.007809 0.000000 0.000000 0.000000
# 4 0.000000 0.000000 0.000000 0.028108 0.000000 0.000000
# 5 0.000000 0.000000 0.000000 0.000000 -0.006626 0.000000
# 6 0.000000 0.000000 0.000000 0.000000 0.000000 0.028010
#
#
# Mechanical properties :
#
#
# Convention : Reuss Voigt Hill
#
# Bulk Modulus (GPa) = 93.22916 94.93332 94.08124
# Shear Modulus (GPa) = 49.44971 0.36503 24.90737
#
# Velocity S-wave (km/s) = 5.06379 0.43507 3.59383
# Velocity P-wave (km/s) = 9.08477 7.03419 8.12443
#
# Compressibility (1/GPa) = 0.01072626
#
# Stress axis : x y z
#
# Youngs Moduli (GPa) = 103.55232 83.89282 128.05569
#
# Poissons Ratio (x) = 0.39218 0.30123
# Poissons Ratio (y) = 0.48409 0.29488
# Poissons Ratio (z) = 0.24359 0.19319
#
# Static dielectric constant tensor:
#      x y z
#    x 3.391950 0.000000 0.000000 
#    y 0.000000 3.476940 0.000000 
#    z 0.000000 0.000000 3.591500 
# 
# 
# High freq. dielectric constant tensor:
#      x y z
#    x 1.760130 0.000000 0.000000 
#    y 0.000000 1.756010 0.000000 
#    z 0.000000 0.000000 1.765690 
# 
# From -- ./inp_files/39138.got.cif
#   From: 2010.03.12/outbox.cif.g09.slc.cpg/sg64_20_cif.got.tgz:39138.got - 2010.04.10 20:19:32.
