data_PCOD8263833
_publ_section_title
;
Structure prediction by ZEFSAII (Michael W. Deem and Ramdas Pophale) SiO2 
 PCOD8263833
Probable space group: C M C A
;
_chemical_formula_sum "Si O2"
_cell_formula_units_Z 64
_cell_length_a 25.554348
_cell_length_b 8.245452
_cell_length_c 14.614423
_cell_angle_alpha 90.000000
_cell_angle_beta 90.000000
_cell_angle_gamma 90.000000
_cell_volume 3079.363417
_symmetry_space_group_name_H-M "C M C A"
_symmetry_group_IT_number 64
_symmetry_cell_setting 'orthorhombic'
loop_
_space_group_symop_operation_xyz
x,y,z
-x,1/2-y,1/2+z
x,-y,-z
-x,1/2+y,1/2-z
-x,-y,-z
x,1/2+y,1/2-z
-x,y,z
x,1/2-y,1/2+z
1/2+x,1/2+y,z
1/2-x,-y,1/2+z
1/2+x,1/2-y,-z
1/2-x,y,1/2-z
1/2-x,1/2-y,-z
1/2+x,y,1/2-z
1/2-x,1/2+y,z
1/2+x,-y,1/2+z
loop_
_atom_site_type_symbol
_atom_site_label
_atom_site_fract_x
_atom_site_fract_y
_atom_site_fract_z
Si Si1 0.642871 0.317481 0.032220
Si Si2 0.196119 0.806756 0.698424
Si Si3 0.942613 0.087496 0.404899
Si Si4 0.853959 0.126704 0.651997
O O1 0.689775 0.304052 0.106916
O O2 0.589636 0.254174 0.080565
O O3 0.656796 0.202972 0.947083
O O4 0.634759 0.500000 0.000000
O O5 0.250000 0.771451 0.750000
O O6 0.149432 0.763082 0.769821
O O7 0.191566 0.994171 0.670124
O O8 0.910031 0.963167 0.341022
O O9 0.000000 0.125114 0.361632
O O10 0.951227 0.000000 0.500000
#
# Coordination Sequence:
#
# PCOD8263833 Si02
#       4
#    16  16  16  16
#     4  10  21  38  61  89 123 157 197 249 300 357
#     4  11  22  38  59  84 118 158 200 246 298 355
#     4   8  16  34  59  85 116 153 190 235 292 349
#     4  10  21  38  59  86 118 153 198 250 298 355
#
# _framework density 20.783517
#
# number of rings (size 3 to 8) (size 9 to 14) (size 15 to 20)
#    0.000    2.250    0.000    4.500    0.000    1.500 
#    0.000   12.500    0.000    6.000    0.000    0.000 
#    0.000    0.000    0.000    0.000    0.000    0.000 
#
# Total GULP energy -396598.654584 kJ/mol
# GULP energy per Si atom -12393.707956 kJ/mol
# Density = 2.073621 g / cm^3
# Si number density = 20.783517 Si / 1000 Ang^3
#
#
#
# Elastic Constant Matrix: (Units=GPa)
#
#
# Indices 1 2 3 4 5 6 
#
# 1 127.8363 73.3436 66.9460 0.0000 0.0000 0.0000
# 2 73.3436 119.1378 48.4915 0.0000 0.0000 0.0000
# 3 66.9460 48.4915 123.5151 0.0000 0.0000 0.0000
# 4 0.0000 0.0000 0.0000 40.5968 0.0000 0.0000
# 5 0.0000 0.0000 0.0000 0.0000 23.2748 0.0000
# 6 0.0000 0.0000 0.0000 0.0000 0.0000 14.1044
#
#
#
# Elastic Compliance Matrix: (Units=1/GPa)
#
#
# Indices 1 2 3 4 5 6 
#
# 1 0.014404 -0.006772 -0.005148 0.000000 0.000000 0.000000
# 2 -0.006772 0.013174 -0.001502 0.000000 0.000000 0.000000
# 3 -0.005148 -0.001502 0.011476 0.000000 0.000000 0.000000
# 4 0.000000 0.000000 0.000000 0.024633 0.000000 0.000000
# 5 0.000000 0.000000 0.000000 0.000000 0.042965 0.000000
# 6 0.000000 0.000000 0.000000 0.000000 0.000000 0.070900
#
#
# Mechanical properties :
#
#
# Convention : Reuss Voigt Hill
#
# Bulk Modulus (GPa) = 81.89916 83.11681 82.50799
# Shear Modulus (GPa) = 23.98490 27.70906 25.84698
#
# Velocity S-wave (km/s) = 3.40079 3.65529 3.53034
# Velocity P-wave (km/s) = 7.41026 7.60877 7.51017
#
# Compressibility (1/GPa) = 0.01221014
#
# Stress axis : x y z
#
# Youngs Moduli (GPa) = 69.42606 75.90908 87.13728
#
# Poissons Ratio (x) = 0.51404 0.44862
# Poissons Ratio (y) = 0.47014 0.13084
# Poissons Ratio (z) = 0.35743 0.11398
#
# Static dielectric constant tensor:
#      x y z
#    x 3.895340 0.000000 0.000000 
#    y 0.000000 3.812800 0.000000 
#    z 0.000000 0.000000 3.921790 
# 
# 
# High freq. dielectric constant tensor:
#      x y z
#    x 1.795110 0.000000 0.000000 
#    y 0.000000 1.814870 0.000000 
#    z 0.000000 0.000000 1.814580 
# 
# From -- ./inp_files/41268.got.cif
#   From: 2010.03.12/outbox.cif.g09.slc.cpg/sg64_21_cif.got.tgz:41268.got - 2010.04.10 20:19:32.
