data_PCOD8263270
_publ_section_title
;
Structure prediction by ZEFSAII (Michael W. Deem and Ramdas Pophale) SiO2 
 PCOD8263270
Probable space group: C M C A
;
_chemical_formula_sum "Si O2"
_cell_formula_units_Z 104
_cell_length_a 31.442697
_cell_length_b 9.187720
_cell_length_c 18.646457
_cell_angle_alpha 90.000000
_cell_angle_beta 90.000000
_cell_angle_gamma 90.000000
_cell_volume 5386.713356
_symmetry_space_group_name_H-M "C M C A"
_symmetry_group_IT_number 64
_symmetry_cell_setting 'orthorhombic'
loop_
_space_group_symop_operation_xyz
x,y,z
-x,1/2-y,1/2+z
x,-y,-z
-x,1/2+y,1/2-z
-x,-y,-z
x,1/2+y,1/2-z
-x,y,z
x,1/2-y,1/2+z
1/2+x,1/2+y,z
1/2-x,-y,1/2+z
1/2+x,1/2-y,-z
1/2-x,y,1/2-z
1/2-x,1/2-y,-z
1/2+x,y,1/2-z
1/2-x,1/2+y,z
1/2+x,-y,1/2+z
loop_
_atom_site_type_symbol
_atom_site_label
_atom_site_fract_x
_atom_site_fract_y
_atom_site_fract_z
Si Si1 0.092675 0.340192 0.428614
Si Si2 0.500000 0.068947 0.888296
Si Si3 0.617318 0.337984 0.704208
Si Si4 0.376256 0.146416 0.417013
Si Si5 0.500000 0.233393 0.030383
Si Si6 0.582973 0.858998 0.184340
Si Si7 0.305367 0.660699 0.194394
Si Si8 0.750000 0.595066 0.750000
O O1 0.111379 0.216257 0.377002
O O2 0.123903 0.335921 0.497442
O O3 0.098558 0.499370 0.393254
O O4 0.042816 0.321264 0.448854
O O5 0.537986 0.072758 0.832403
O O6 0.500000 0.917552 0.928661
O O7 0.500000 0.202308 0.944987
O O8 0.580923 0.258723 0.751661
O O9 0.613990 0.511197 0.707729
O O10 0.662744 0.302783 0.739662
O O11 0.401036 0.286022 0.388455
O O12 0.329262 0.146837 0.382009
O O13 0.273549 0.798739 0.192821
O O14 0.281810 0.507675 0.205689
#
# Coordination Sequence:
#
# PCOD8263270 Si02
#       8
#    16   8  16  16   8  16  16   8
#     4  11  22  38  63  88 120 167 208 258 297 350
#     4  11  22  38  57  83 125 156 213 268 302 348
#     4  11  22  38  61  88 122 154 210 245 309 361
#     4  10  22  38  60  90 120 156 207 244 302 365
#     4  11  22  39  60  88 122 169 215 263 296 350
#     4  11  22  38  58  84 116 165 199 264 303 352
#     4  10  20  39  62  92 120 153 193 248 298 380
#     4  10  20  36  68  92 118 152 190 240 318 364
#
# _framework density 19.306763
#
# number of rings (size 3 to 8) (size 9 to 14) (size 15 to 20)
#    0.000    1.385    3.077    4.615    0.000    3.692 
#    0.000    0.000    0.000   16.615    0.000    0.000 
#    0.000    0.000    0.000    0.000    0.000    0.000 
#
# Total GULP energy -644676.160173 kJ/mol
# GULP energy per Si atom -12397.618465 kJ/mol
# Density = 1.926282 g / cm^3
# Si number density = 19.306763 Si / 1000 Ang^3
#
#
#
# Elastic Constant Matrix: (Units=GPa)
#
#
# Indices 1 2 3 4 5 6 
#
# 1 109.0027 36.0379 46.0870 0.0000 0.0000 0.0000
# 2 36.0379 116.6547 38.5282 0.0000 0.0000 0.0000
# 3 46.0870 38.5282 94.6110 0.0000 0.0000 0.0000
# 4 0.0000 0.0000 0.0000 31.7097 0.0000 0.0000
# 5 0.0000 0.0000 0.0000 0.0000 35.3986 0.0000
# 6 0.0000 0.0000 0.0000 0.0000 0.0000 34.6564
#
#
#
# Elastic Compliance Matrix: (Units=1/GPa)
#
#
# Indices 1 2 3 4 5 6 
#
# 1 0.011962 -0.002046 -0.004994 0.000000 0.000000 0.000000
# 2 -0.002046 0.010254 -0.003179 0.000000 0.000000 0.000000
# 3 -0.004994 -0.003179 0.014297 0.000000 0.000000 0.000000
# 4 0.000000 0.000000 0.000000 0.031536 0.000000 0.000000
# 5 0.000000 0.000000 0.000000 0.000000 0.028250 0.000000
# 6 0.000000 0.000000 0.000000 0.000000 0.000000 0.028855
#
#
# Mechanical properties :
#
#
# Convention : Reuss Voigt Hill
#
# Bulk Modulus (GPa) = 62.20763 62.39718 62.30240
# Shear Modulus (GPa) = 33.12360 33.66065 33.39212
#
# Velocity S-wave (km/s) = 4.14653 4.18001 4.16330
# Velocity P-wave (km/s) = 7.43072 7.46228 7.44652
#
# Compressibility (1/GPa) = 0.01607520
#
# Stress axis : x y z
#
# Youngs Moduli (GPa) = 83.59880 97.51906 69.94589
#
# Poissons Ratio (x) = 0.19953 0.34929
# Poissons Ratio (y) = 0.17105 0.22237
# Poissons Ratio (z) = 0.41746 0.31003
#
# Static dielectric constant tensor:
#      x y z
#    x 3.525820 0.000000 0.000000 
#    y 0.000000 3.741130 0.000000 
#    z 0.000000 0.000000 3.434580 
# 
# 
# High freq. dielectric constant tensor:
#      x y z
#    x 1.740250 0.000000 0.000000 
#    y 0.000000 1.772270 0.000000 
#    z 0.000000 0.000000 1.741220 
# 
# From -- ./inp_files/42101.got.cif
#   From: 2010.03.12/outbox.cif.g09.slc.cpg/sg64_22_cif.got.tgz:42101.got - 2010.04.10 20:19:32.
