data_PCOD8263957
_publ_section_title
;
Structure prediction by ZEFSAII (Michael W. Deem and Ramdas Pophale) SiO2 
 PCOD8263957
Probable space group: C M C A
;
_chemical_formula_sum "Si O2"
_cell_formula_units_Z 112
_cell_length_a 15.240182
_cell_length_b 24.731893
_cell_length_c 14.367704
_cell_angle_alpha 90.000000
_cell_angle_beta 90.000000
_cell_angle_gamma 90.000000
_cell_volume 5415.454166
_symmetry_space_group_name_H-M "C M C A"
_symmetry_group_IT_number 64
_symmetry_cell_setting 'orthorhombic'
loop_
_space_group_symop_operation_xyz
x,y,z
-x,1/2-y,1/2+z
x,-y,-z
-x,1/2+y,1/2-z
-x,-y,-z
x,1/2+y,1/2-z
-x,y,z
x,1/2-y,1/2+z
1/2+x,1/2+y,z
1/2-x,-y,1/2+z
1/2+x,1/2-y,-z
1/2-x,y,1/2-z
1/2-x,1/2-y,-z
1/2+x,y,1/2-z
1/2-x,1/2+y,z
1/2+x,-y,1/2+z
loop_
_atom_site_type_symbol
_atom_site_label
_atom_site_fract_x
_atom_site_fract_y
_atom_site_fract_z
Si Si1 0.603309 0.710704 0.739664
Si Si2 0.399943 0.404087 0.178379
Si Si3 0.248622 0.910170 0.039737
Si Si4 0.400017 0.811685 0.860201
Si Si5 0.313442 0.206373 0.955455
Si Si6 0.900810 0.972994 0.359507
Si Si7 0.196440 0.920671 0.659997
O O1 0.500000 0.709377 0.724161
O O2 0.634509 0.652908 0.779716
O O3 0.633745 0.756760 0.811571
O O4 0.646942 0.726095 0.641658
O O5 0.500000 0.398220 0.142486
O O6 0.340360 0.426174 0.093499
O O7 0.391255 0.448984 0.257036
O O8 0.259634 0.847616 0.062710
O O9 0.333439 0.943772 0.071820
O O10 0.238443 0.920307 0.929363
O O11 0.500000 0.822771 0.833633
O O12 0.343350 0.861547 0.822755
O O13 0.391497 0.805509 0.971389
O O14 0.250000 0.250000 0.000000
O O15 0.000000 0.964123 0.397161
O O16 0.881542 0.036681 0.355809
O O17 0.250000 0.938891 0.750000
#
# Coordination Sequence:
#
# PCOD8263957 Si02
#       7
#    16  16  16  16  16  16  16
#     4  10  21  39  63  90 125 167 212 262 314 378
#     4  10  21  40  66  97 126 160 212 270 322 371
#     4  11  23  39  64  95 123 167 209 267 316 373
#     4  10  23  40  59  86 127 167 208 259 314 385
#     4  11  23  35  61  92 124 164 206 259 318 377
#     4  11  23  41  69  98 125 162 210 270 327 381
#     4  11  25  42  62  88 130 169 216 258 320 392
#
# _framework density 20.681553000000001
#
# number of rings (size 3 to 8) (size 9 to 14) (size 15 to 20)
#    0.000    1.429    1.429    3.429    4.000    4.571 
#    0.000    2.143    0.000    3.429    0.000    0.000 
#    0.000    0.000    0.000    0.000    0.000    0.000 
#
# Total GULP energy -694545.326311 kJ/mol
# GULP energy per Si atom -12402.595113 kJ/mol
# Density = 2.063448 g / cm^3
# Si number density = 20.681553 Si / 1000 Ang^3
#
#
#
# Elastic Constant Matrix: (Units=GPa)
#
#
# Indices 1 2 3 4 5 6 
#
# 1 89.3975 26.4986 51.2264 0.0000 0.0000 0.0000
# 2 26.4986 101.8575 19.0628 0.0000 0.0000 0.0000
# 3 51.2264 19.0628 120.7196 0.0000 0.0000 0.0000
# 4 0.0000 0.0000 0.0000 27.2402 0.0000 0.0000
# 5 0.0000 0.0000 0.0000 0.0000 27.1255 0.0000
# 6 0.0000 0.0000 0.0000 0.0000 0.0000 24.3697
#
#
#
# Elastic Compliance Matrix: (Units=1/GPa)
#
#
# Indices 1 2 3 4 5 6 
#
# 1 0.015569 -0.002900 -0.006149 0.000000 0.000000 0.000000
# 2 -0.002900 0.010657 -0.000452 0.000000 0.000000 0.000000
# 3 -0.006149 -0.000452 0.010964 0.000000 0.000000 0.000000
# 4 0.000000 0.000000 0.000000 0.036710 0.000000 0.000000
# 5 0.000000 0.000000 0.000000 0.000000 0.036866 0.000000
# 6 0.000000 0.000000 0.000000 0.000000 0.000000 0.041035
#
#
# Mechanical properties :
#
#
# Convention : Reuss Voigt Hill
#
# Bulk Modulus (GPa) = 54.97980 56.17225 55.57602
# Shear Modulus (GPa) = 28.27029 30.09287 29.18158
#
# Velocity S-wave (km/s) = 3.70122 3.81866 3.76040
# Velocity P-wave (km/s) = 6.70127 6.83099 6.76644
#
# Compressibility (1/GPa) = 0.01818850
#
# Stress axis : x y z
#
# Youngs Moduli (GPa) = 64.23141 93.83834 91.20598
#
# Poissons Ratio (x) = 0.27209 0.56079
# Poissons Ratio (y) = 0.18624 0.04126
# Poissons Ratio (z) = 0.39493 0.04245
#
# Static dielectric constant tensor:
#      x y z
#    x 2.310260 0.000000 0.000000 
#    y 0.000000 4.084910 0.000000 
#    z 0.000000 0.000000 4.126090 
# 
# 
# High freq. dielectric constant tensor:
#      x y z
#    x 1.802540 0.000000 0.000000 
#    y 0.000000 1.819480 0.000000 
#    z 0.000000 0.000000 1.812580 
# 
# From -- ./inp_files/24212.got.cif
#   From: 2010.03.12/outbox.cif.g09.slc.cpg/sg64_13_cif.got.tgz:24212.got - 2010.04.10 20:19:32.
