data_PCOD8263039
_publ_section_title
;
Structure prediction by ZEFSAII (Michael W. Deem and Ramdas Pophale) SiO2 
 PCOD8263039
Probable space group: C M C A
;
_chemical_formula_sum "Si O2"
_cell_formula_units_Z 96
_cell_length_a 8.803961
_cell_length_b 29.312691
_cell_length_c 18.491424
_cell_angle_alpha 90.000000
_cell_angle_beta 90.000000
_cell_angle_gamma 90.000000
_cell_volume 4772.040895
_symmetry_space_group_name_H-M "C M C A"
_symmetry_group_IT_number 64
_symmetry_cell_setting 'orthorhombic'
loop_
_space_group_symop_operation_xyz
x,y,z
-x,1/2-y,1/2+z
x,-y,-z
-x,1/2+y,1/2-z
-x,-y,-z
x,1/2+y,1/2-z
-x,y,z
x,1/2-y,1/2+z
1/2+x,1/2+y,z
1/2-x,-y,1/2+z
1/2+x,1/2-y,-z
1/2-x,y,1/2-z
1/2-x,1/2-y,-z
1/2+x,y,1/2-z
1/2-x,1/2+y,z
1/2+x,-y,1/2+z
loop_
_atom_site_type_symbol
_atom_site_label
_atom_site_fract_x
_atom_site_fract_y
_atom_site_fract_z
Si Si1 0.822237 0.723358 0.599990
Si Si2 0.178656 0.984395 0.826854
Si Si3 0.178490 0.090383 0.419201
Si Si4 0.674542 0.440248 0.422353
Si Si5 0.322356 0.687128 0.057714
Si Si6 0.324069 0.356351 0.321830
O O1 0.736631 0.771527 0.607457
O O2 0.781492 0.698926 0.524684
O O3 0.761547 0.690946 0.663049
O O4 0.000000 0.731999 0.608473
O O5 0.250000 0.997747 0.750000
O O6 0.241684 0.935821 0.853416
O O7 0.000000 0.981407 0.817516
O O8 0.218407 0.022713 0.885688
O O9 0.218884 0.064328 0.493727
O O10 0.236231 0.141793 0.419198
O O11 0.000000 0.090849 0.406036
O O12 0.500000 0.456002 0.412895
O O13 0.702269 0.391096 0.387120
O O14 0.500000 0.680021 0.069661
O O15 0.500000 0.346372 0.309045
O O16 0.250000 0.378047 0.250000
#
# Coordination Sequence:
#
# PCOD8263039 Si02
#       6
#    16  16  16  16  16  16
#     4  10  20  35  57  85 119 158 199 244 296 353
#     4  12  26  43  63  88 121 161 204 250 305 364
#     4  11  22  40  65  93 124 158 201 251 303 359
#     4  10  22  40  63  91 122 159 201 250 304 361
#     4  10  20  35  59  89 120 154 198 246 294 350
#     4  11  22  37  57  86 123 163 204 250 307 363
#
# _framework density 20.117180000000001
#
# number of rings (size 3 to 8) (size 9 to 14) (size 15 to 20)
#    0.000    1.333    1.667    4.500    0.000    7.333 
#    0.000    0.833    0.000    0.000    0.000    0.000 
#    0.000    0.000    0.000    0.000    0.000    0.000 
#
# Total GULP energy -595511.633081 kJ/mol
# GULP energy per Si atom -12406.492356 kJ/mol
# Density = 2.007139 g / cm^3
# Si number density = 20.117180 Si / 1000 Ang^3
#
#
#
# Elastic Constant Matrix: (Units=GPa)
#
#
# Indices 1 2 3 4 5 6 
#
# 1 98.6467 46.4823 28.7914 0.0000 0.0000 0.0000
# 2 46.4823 103.3033 18.6516 0.0000 0.0000 0.0000
# 3 28.7914 18.6516 51.4086 0.0000 0.0000 0.0000
# 4 0.0000 0.0000 0.0000 12.2002 0.0000 0.0000
# 5 0.0000 0.0000 0.0000 0.0000 31.7978 0.0000
# 6 0.0000 0.0000 0.0000 0.0000 0.0000 41.7693
#
#
#
# Elastic Compliance Matrix: (Units=1/GPa)
#
#
# Indices 1 2 3 4 5 6 
#
# 1 0.014478 -0.005405 -0.006148 0.000000 0.000000 0.000000
# 2 -0.005405 0.012376 -0.001463 0.000000 0.000000 0.000000
# 3 -0.006148 -0.001463 0.023426 0.000000 0.000000 0.000000
# 4 0.000000 0.000000 0.000000 0.081966 0.000000 0.000000
# 5 0.000000 0.000000 0.000000 0.000000 0.031449 0.000000
# 6 0.000000 0.000000 0.000000 0.000000 0.000000 0.023941
#
#
# Mechanical properties :
#
#
# Convention : Reuss Voigt Hill
#
# Bulk Modulus (GPa) = 41.23868 49.02324 45.13096
# Shear Modulus (GPa) = 22.54789 27.78234 25.16511
#
# Velocity S-wave (km/s) = 3.35151 3.72025 3.54068
# Velocity P-wave (km/s) = 5.95991 6.54793 6.26083
#
# Compressibility (1/GPa) = 0.02424908
#
# Stress axis : x y z
#
# Youngs Moduli (GPa) = 69.06977 80.79953 42.68776
#
# Poissons Ratio (x) = 0.43669 0.26243
# Poissons Ratio (y) = 0.37330 0.06247
# Poissons Ratio (z) = 0.42461 0.11824
#
# Static dielectric constant tensor:
#      x y z
#    x 3.657920 0.000000 0.000000 
#    y 0.000000 3.674060 0.000000 
#    z 0.000000 0.000000 3.626760 
# 
# 
# High freq. dielectric constant tensor:
#      x y z
#    x 1.795030 0.000000 0.000000 
#    y 0.000000 1.794440 0.000000 
#    z 0.000000 0.000000 1.772350 
# 
# From -- ./inp_files/37013.got.cif
#   From: 2010.03.12/outbox.cif.g09.slc.cpg/sg64_19_cif.got.tgz:37013.got - 2010.04.10 20:19:32.
