data_PCOD8263991
_publ_section_title
;
Structure prediction by ZEFSAII (Michael W. Deem and Ramdas Pophale) SiO2 
 PCOD8263991
Probable space group: C M C A
;
_chemical_formula_sum "Si O2"
_cell_formula_units_Z 80
_cell_length_a 22.532200
_cell_length_b 9.394495
_cell_length_c 17.931642
_cell_angle_alpha 90.000000
_cell_angle_beta 90.000000
_cell_angle_gamma 90.000000
_cell_volume 3795.745596
_symmetry_space_group_name_H-M "C M C A"
_symmetry_group_IT_number 64
_symmetry_cell_setting 'orthorhombic'
loop_
_space_group_symop_operation_xyz
x,y,z
-x,1/2-y,1/2+z
x,-y,-z
-x,1/2+y,1/2-z
-x,-y,-z
x,1/2+y,1/2-z
-x,y,z
x,1/2-y,1/2+z
1/2+x,1/2+y,z
1/2-x,-y,1/2+z
1/2+x,1/2-y,-z
1/2-x,y,1/2-z
1/2-x,1/2-y,-z
1/2+x,y,1/2-z
1/2-x,1/2+y,z
1/2+x,-y,1/2+z
loop_
_atom_site_type_symbol
_atom_site_label
_atom_site_fract_x
_atom_site_fract_y
_atom_site_fract_z
Si Si1 0.933883 0.364717 0.783943
Si Si2 0.782795 0.989148 0.914784
Si Si3 0.139586 0.904289 0.212481
Si Si4 0.933768 0.432771 0.078291
Si Si5 0.682568 0.180868 0.866906
O O1 0.887592 0.439618 0.727928
O O2 0.915488 0.202023 0.795561
O O3 0.931840 0.439616 0.863339
O O4 0.000000 0.366911 0.749710
O O5 0.784223 0.827579 0.885517
O O6 0.824338 0.089622 0.864187
O O7 0.716248 0.050496 0.907832
O O8 0.804586 0.000000 0.000000
O O9 0.183097 0.851031 0.278502
O O10 0.885360 0.314472 0.102302
O O11 0.000000 0.363576 0.076238
O O12 0.916236 0.500000 0.000000
#
# Coordination Sequence:
#
# PCOD8263991 Si02
#       5
#    16  16  16  16  16
#     4  10  21  39  65  95 128 175 224 271 326 391
#     4  12  27  43  66 100 136 176 216 276 336 389
#     4  11  23  42  66  94 131 170 224 276 323 397
#     4   9  20  39  66  95 129 171 217 269 330 394
#     4  11  25  43  66  96 129 176 221 270 325 400
#
# _framework density 21.076228
#
# number of rings (size 3 to 8) (size 9 to 14) (size 15 to 20)
#    0.000    1.400    2.000    2.400    8.400    2.400 
#    0.000    0.000    0.000    3.000    0.000    0.000 
#    0.000    0.000    0.000    0.000    0.000    0.000 
#
# Total GULP energy -496128.705590 kJ/mol
# GULP energy per Si atom -12403.217640 kJ/mol
# Density = 2.102826 g / cm^3
# Si number density = 21.076228 Si / 1000 Ang^3
#
#
#
# Elastic Constant Matrix: (Units=GPa)
#
#
# Indices 1 2 3 4 5 6 
#
# 1 109.5635 46.8455 41.4518 0.0000 0.0000 0.0000
# 2 46.8455 107.4297 19.9920 0.0000 0.0000 0.0000
# 3 41.4518 19.9920 132.0587 0.0000 0.0000 0.0000
# 4 0.0000 0.0000 0.0000 18.5516 0.0000 0.0000
# 5 0.0000 0.0000 0.0000 0.0000 30.2910 0.0000
# 6 0.0000 0.0000 0.0000 0.0000 0.0000 32.8476
#
#
#
# Elastic Compliance Matrix: (Units=1/GPa)
#
#
# Indices 1 2 3 4 5 6 
#
# 1 0.012378 -0.004810 -0.003157 0.000000 0.000000 0.000000
# 2 -0.004810 0.011447 -0.000223 0.000000 0.000000 0.000000
# 3 -0.003157 -0.000223 0.008597 0.000000 0.000000 0.000000
# 4 0.000000 0.000000 0.000000 0.053904 0.000000 0.000000
# 5 0.000000 0.000000 0.000000 0.000000 0.033013 0.000000
# 6 0.000000 0.000000 0.000000 0.000000 0.000000 0.030444
#
#
# Mechanical properties :
#
#
# Convention : Reuss Voigt Hill
#
# Bulk Modulus (GPa) = 62.33664 62.84785 62.59225
# Shear Modulus (GPa) = 29.15257 32.38887 30.77072
#
# Velocity S-wave (km/s) = 3.72317 3.92439 3.82510
# Velocity P-wave (km/s) = 6.93712 7.10060 7.01934
#
# Compressibility (1/GPa) = 0.01604193
#
# Stress axis : x y z
#
# Youngs Moduli (GPa) = 80.78689 87.35590 116.31705
#
# Poissons Ratio (x) = 0.42019 0.36724
# Poissons Ratio (y) = 0.38859 0.02596
# Poissons Ratio (z) = 0.25506 0.01949
#
# Static dielectric constant tensor:
#      x y z
#    x 4.102350 0.000000 0.000000 
#    y 0.000000 3.628030 0.000000 
#    z 0.000000 0.000000 3.856140 
# 
# 
# High freq. dielectric constant tensor:
#      x y z
#    x 1.834100 0.000000 0.000000 
#    y 0.000000 1.816090 0.000000 
#    z 0.000000 0.000000 1.828000 
# 
# From -- ./inp_files/35341.got.cif
#   From: 2010.03.12/outbox.cif.g09.slc.cpg/sg64_18_cif.got.tgz:35341.got - 2010.04.10 20:19:32.
