data_PCOD8263499
_publ_section_title
;
Structure prediction by ZEFSAII (Michael W. Deem and Ramdas Pophale) SiO2 
 PCOD8263499
Probable space group: C M C A
;
_chemical_formula_sum "Si O2"
_cell_formula_units_Z 80
_cell_length_a 13.580139
_cell_length_b 13.205240
_cell_length_c 23.069703
_cell_angle_alpha 90.000000
_cell_angle_beta 90.000000
_cell_angle_gamma 90.000000
_cell_volume 4137.066648
_symmetry_space_group_name_H-M "C M C A"
_symmetry_group_IT_number 64
_symmetry_cell_setting 'orthorhombic'
loop_
_space_group_symop_operation_xyz
x,y,z
-x,1/2-y,1/2+z
x,-y,-z
-x,1/2+y,1/2-z
-x,-y,-z
x,1/2+y,1/2-z
-x,y,z
x,1/2-y,1/2+z
1/2+x,1/2+y,z
1/2-x,-y,1/2+z
1/2+x,1/2-y,-z
1/2-x,y,1/2-z
1/2-x,1/2-y,-z
1/2+x,y,1/2-z
1/2-x,1/2+y,z
1/2+x,-y,1/2+z
loop_
_atom_site_type_symbol
_atom_site_label
_atom_site_fract_x
_atom_site_fract_y
_atom_site_fract_z
Si Si1 0.886669 0.263279 0.462169
Si Si2 0.612042 0.628028 0.777384
Si Si3 0.791912 0.599946 0.963111
Si Si4 0.612657 0.167774 0.160217
Si Si5 0.704732 0.543630 0.667069
O O1 0.866459 0.185944 0.514496
O O2 0.820845 0.363547 0.469719
O O3 0.855684 0.210742 0.402106
O O4 0.000000 0.297365 0.462135
O O5 0.500000 0.595018 0.789520
O O6 0.627938 0.746192 0.791454
O O7 0.640093 0.612360 0.710388
O O8 0.679778 0.558816 0.818978
O O9 0.821702 0.577845 0.897311
O O10 0.807657 0.500000 0.000000
O O11 0.500000 0.130096 0.158363
O O12 0.681664 0.074253 0.176728
#
# Coordination Sequence:
#
# PCOD8263499 Si02
#       5
#    16  16  16  16  16
#     4  10  22  39  61  89 125 161 197 247 304 358
#     4  10  23  41  61  86 122 162 201 249 306 361
#     4  11  22  39  63  91 123 160 206 251 301 362
#     4  10  20  39  63  87 119 158 199 249 305 354
#     4  11  22  38  64  92 121 159 207 253 298 362
#
# _framework density 19.337372999999999
#
# number of rings (size 3 to 8) (size 9 to 14) (size 15 to 20)
#    0.000    1.600    4.000    0.600    0.000    5.600 
#    0.000    0.000    0.000    1.200    0.000    0.000 
#    0.000    0.000    0.000    0.000    0.000    0.000 
#
# Total GULP energy -496152.742384 kJ/mol
# GULP energy per Si atom -12403.818560 kJ/mol
# Density = 1.929336 g / cm^3
# Si number density = 19.337373 Si / 1000 Ang^3
#
#
#
# Elastic Constant Matrix: (Units=GPa)
#
#
# Indices 1 2 3 4 5 6 
#
# 1 84.4813 21.7300 11.7446 0.0000 0.0000 0.0000
# 2 21.7300 59.3836 24.4969 0.0000 0.0000 0.0000
# 3 11.7446 24.4969 129.4199 0.0000 0.0000 0.0000
# 4 0.0000 0.0000 0.0000 23.6685 0.0000 0.0000
# 5 0.0000 0.0000 0.0000 0.0000 22.1075 0.0000
# 6 0.0000 0.0000 0.0000 0.0000 0.0000 19.6382
#
#
#
# Elastic Compliance Matrix: (Units=1/GPa)
#
#
# Indices 1 2 3 4 5 6 
#
# 1 0.013078 -0.004660 -0.000305 0.000000 0.000000 0.000000
# 2 -0.004660 0.019926 -0.003349 0.000000 0.000000 0.000000
# 3 -0.000305 -0.003349 0.008388 0.000000 0.000000 0.000000
# 4 0.000000 0.000000 0.000000 0.042250 0.000000 0.000000
# 5 0.000000 0.000000 0.000000 0.000000 0.045234 0.000000
# 6 0.000000 0.000000 0.000000 0.000000 0.000000 0.050921
#
#
# Mechanical properties :
#
#
# Convention : Reuss Voigt Hill
#
# Bulk Modulus (GPa) = 40.37851 43.24754 41.81302
# Shear Modulus (GPa) = 24.42846 27.43708 25.93277
#
# Velocity S-wave (km/s) = 3.55812 3.77087 3.66603
# Velocity P-wave (km/s) = 6.14871 6.43215 6.29203
#
# Compressibility (1/GPa) = 0.02476565
#
# Stress axis : x y z
#
# Youngs Moduli (GPa) = 76.46493 50.18503 119.21342
#
# Poissons Ratio (x) = 0.23385 0.03633
# Poissons Ratio (y) = 0.35631 0.39922
# Poissons Ratio (z) = 0.02330 0.16806
#
# Static dielectric constant tensor:
#      x y z
#    x 3.552980 0.000000 0.000000 
#    y 0.000000 3.469840 0.000000 
#    z 0.000000 0.000000 3.675050 
# 
# 
# High freq. dielectric constant tensor:
#      x y z
#    x 1.751610 0.000000 0.000000 
#    y 0.000000 1.748510 0.000000 
#    z 0.000000 0.000000 1.761160 
# 
# From -- ./inp_files/44933.got.cif
#   From: 2010.03.12/outbox.cif.g09.slc.cpg/sg64_23_cif.got.tgz:44933.got - 2010.04.10 20:19:32.
