data_PCOD8263299
_publ_section_title
;
Structure prediction by ZEFSAII (Michael W. Deem and Ramdas Pophale) SiO2 
 PCOD8263299
Probable space group: C M C A
;
_chemical_formula_sum "Si O2"
_cell_formula_units_Z 64
_cell_length_a 8.683632
_cell_length_b 15.297547
_cell_length_c 26.195065
_cell_angle_alpha 90.000000
_cell_angle_beta 90.000000
_cell_angle_gamma 90.000000
_cell_volume 3479.707082
_symmetry_space_group_name_H-M "C M C A"
_symmetry_group_IT_number 64
_symmetry_cell_setting 'orthorhombic'
loop_
_space_group_symop_operation_xyz
x,y,z
-x,1/2-y,1/2+z
x,-y,-z
-x,1/2+y,1/2-z
-x,-y,-z
x,1/2+y,1/2-z
-x,y,z
x,1/2-y,1/2+z
1/2+x,1/2+y,z
1/2-x,-y,1/2+z
1/2+x,1/2-y,-z
1/2-x,y,1/2-z
1/2-x,1/2-y,-z
1/2+x,y,1/2-z
1/2-x,1/2+y,z
1/2+x,-y,1/2+z
loop_
_atom_site_type_symbol
_atom_site_label
_atom_site_fract_x
_atom_site_fract_y
_atom_site_fract_z
Si Si1 0.174406 0.516870 0.802429
Si Si2 0.318251 0.115784 0.613939
Si Si3 0.325021 0.556717 0.406172
Si Si4 0.319008 0.728844 0.054559
O O1 0.250000 0.484806 0.750000
O O2 0.267633 0.599185 0.826988
O O3 0.179642 0.437418 0.843844
O O4 0.000000 0.546745 0.792133
O O5 0.500000 0.113165 0.608087
O O6 0.256138 0.209313 0.596949
O O7 0.242783 0.039066 0.578505
O O8 0.500000 0.565725 0.426391
O O9 0.218156 0.629594 0.430860
O O10 0.500000 0.743229 0.053264
O O11 0.250000 0.750000 0.000000
#
# Coordination Sequence:
#
# PCOD8263299 Si02
#       4
#    16  16  16  16
#     4   9  18  34  59  85 115 149 187 231 281 334
#     4  10  20  37  59  84 116 150 189 233 281 335
#     4   9  20  38  58  84 116 148 189 235 280 333
#     4  12  24  39  59  84 114 150 192 235 285 337
#
# _framework density 18.392354000000001
#
# number of rings (size 3 to 8) (size 9 to 14) (size 15 to 20)
#    1.500    0.500    0.000    5.250    0.000    1.000 
#    0.000    6.250    0.000    3.000    0.000    0.000 
#    0.000    0.000    0.000    0.000    0.000    0.000 
#
# Total GULP energy -396549.261313 kJ/mol
# GULP energy per Si atom -12392.164416 kJ/mol
# Density = 1.835049 g / cm^3
# Si number density = 18.392354 Si / 1000 Ang^3
#
#
#
# Elastic Constant Matrix: (Units=GPa)
#
#
# Indices 1 2 3 4 5 6 
#
# 1 151.3142 17.3333 26.1236 0.0000 0.0000 0.0000
# 2 17.3333 49.5205 -6.7862 0.0000 0.0000 0.0000
# 3 26.1236 -6.7862 49.3417 0.0000 0.0000 0.0000
# 4 0.0000 0.0000 0.0000 24.8050 0.0000 0.0000
# 5 0.0000 0.0000 0.0000 0.0000 34.2890 0.0000
# 6 0.0000 0.0000 0.0000 0.0000 0.0000 34.9489
#
#
#
# Elastic Compliance Matrix: (Units=1/GPa)
#
#
# Indices 1 2 3 4 5 6 
#
# 1 0.007784 -0.003352 -0.004582 0.000000 0.000000 0.000000
# 2 -0.003352 0.022025 0.004804 0.000000 0.000000 0.000000
# 3 -0.004582 0.004804 0.023354 0.000000 0.000000 0.000000
# 4 0.000000 0.000000 0.000000 0.040314 0.000000 0.000000
# 5 0.000000 0.000000 0.000000 0.000000 0.029164 0.000000
# 6 0.000000 0.000000 0.000000 0.000000 0.000000 0.028613
#
#
# Mechanical properties :
#
#
# Convention : Reuss Voigt Hill
#
# Bulk Modulus (GPa) = 21.32103 35.94641 28.63372
# Shear Modulus (GPa) = 28.87679 33.04230 30.95954
#
# Velocity S-wave (km/s) = 3.96668 4.24314 4.10723
# Velocity P-wave (km/s) = 5.70937 6.60245 6.17208
#
# Compressibility (1/GPa) = 0.04690205
#
# Stress axis : x y z
#
# Youngs Moduli (GPa) = 128.47047 45.40197 42.81993
#
# Poissons Ratio (x) = 0.15221 0.19621
# Poissons Ratio (y) = 0.43069 -0.20572
# Poissons Ratio (z) = 0.58868 -0.21812
#
# Static dielectric constant tensor:
#      x y z
#    x 3.480490 0.000000 0.000000 
#    y 0.000000 3.204260 0.000000 
#    z 0.000000 0.000000 3.261890 
# 
# 
# High freq. dielectric constant tensor:
#      x y z
#    x 1.736600 0.000000 0.000000 
#    y 0.000000 1.690660 0.000000 
#    z 0.000000 0.000000 1.698130 
# 
# From -- ./inp_files/47687.got.cif
#   From: 2010.03.12/outbox.cif.g09.slc.cpg/sg64_24_cif.got.tgz:47687.got - 2010.04.10 20:19:32.
