data_PCOD8263390
_publ_section_title
;
Structure prediction by ZEFSAII (Michael W. Deem and Ramdas Pophale) SiO2 
 PCOD8263390
Probable space group: C M C A
;
_chemical_formula_sum "Si O2"
_cell_formula_units_Z 88
_cell_length_a 20.244797
_cell_length_b 12.544251
_cell_length_c 18.067396
_cell_angle_alpha 90.000000
_cell_angle_beta 90.000000
_cell_angle_gamma 90.000000
_cell_volume 4588.320276
_symmetry_space_group_name_H-M "C M C A"
_symmetry_group_IT_number 64
_symmetry_cell_setting 'orthorhombic'
loop_
_space_group_symop_operation_xyz
x,y,z
-x,1/2-y,1/2+z
x,-y,-z
-x,1/2+y,1/2-z
-x,-y,-z
x,1/2+y,1/2-z
-x,y,z
x,1/2-y,1/2+z
1/2+x,1/2+y,z
1/2-x,-y,1/2+z
1/2+x,1/2-y,-z
1/2-x,y,1/2-z
1/2-x,1/2-y,-z
1/2+x,y,1/2-z
1/2-x,1/2+y,z
1/2+x,-y,1/2+z
loop_
_atom_site_type_symbol
_atom_site_label
_atom_site_fract_x
_atom_site_fract_y
_atom_site_fract_z
Si Si1 0.333494 0.000000 0.500000
Si Si2 0.074814 0.960670 0.276138
Si Si3 0.687742 0.201397 0.792487
Si Si4 0.247365 0.678697 0.428131
Si Si5 0.627244 0.325999 0.664821
Si Si6 0.426290 0.394298 0.115730
O O1 0.289146 0.931837 0.555680
O O2 0.377040 0.921436 0.450270
O O3 0.128948 0.880754 0.309734
O O4 0.086785 0.968983 0.187494
O O5 0.000000 0.918310 0.290594
O O6 0.081617 0.073123 0.317403
O O7 0.750000 0.144591 0.750000
O O8 0.707835 0.250425 0.869983
O O9 0.664986 0.297703 0.740220
O O10 0.250000 0.750000 0.500000
O O11 0.319955 0.647532 0.399138
O O12 0.581656 0.228498 0.639202
O O13 0.500000 0.411631 0.085601
#
# Coordination Sequence:
#
# PCOD8263390 Si02
#       6
#     8  16  16  16  16  16
#     4  12  23  38  60  84 119 154 196 238 302 350
#     4  10  21  37  63  89 118 158 198 247 305 356
#     4   9  21  38  60  87 119 152 202 248 295 344
#     4  11  23  38  58  87 116 154 192 246 294 349
#     4  10  20  38  59  86 117 151 198 245 293 349
#     4  10  21  38  58  85 116 153 197 242 289 354
#
# _framework density 19.179133
#
# number of rings (size 3 to 8) (size 9 to 14) (size 15 to 20)
#    0.000    1.818    1.818    1.909    2.545    2.909 
#    0.000    1.818    0.000    1.091    0.000    0.000 
#    0.000    0.000    0.000    0.000    0.000    0.000 
#
# Total GULP energy -545630.671332 kJ/mol
# GULP energy per Si atom -12400.697076 kJ/mol
# Density = 1.913548 g / cm^3
# Si number density = 19.179133 Si / 1000 Ang^3
#
#
#
# Elastic Constant Matrix: (Units=GPa)
#
#
# Indices 1 2 3 4 5 6 
#
# 1 105.5533 46.0487 35.6451 0.0000 0.0000 0.0000
# 2 46.0487 96.4850 41.6730 0.0000 0.0000 0.0000
# 3 35.6451 41.6730 96.3360 0.0000 0.0000 0.0000
# 4 0.0000 0.0000 0.0000 23.7798 0.0000 0.0000
# 5 0.0000 0.0000 0.0000 0.0000 25.8246 0.0000
# 6 0.0000 0.0000 0.0000 0.0000 0.0000 28.2969
#
#
#
# Elastic Compliance Matrix: (Units=1/GPa)
#
#
# Indices 1 2 3 4 5 6 
#
# 1 0.012437 -0.004855 -0.002501 0.000000 0.000000 0.000000
# 2 -0.004855 0.014641 -0.004537 0.000000 0.000000 0.000000
# 3 -0.002501 -0.004537 0.013268 0.000000 0.000000 0.000000
# 4 0.000000 0.000000 0.000000 0.042052 0.000000 0.000000
# 5 0.000000 0.000000 0.000000 0.000000 0.038723 0.000000
# 6 0.000000 0.000000 0.000000 0.000000 0.000000 0.035340
#
#
# Mechanical properties :
#
#
# Convention : Reuss Voigt Hill
#
# Bulk Modulus (GPa) = 60.38975 60.56755 60.47865
# Shear Modulus (GPa) = 26.91530 27.24744 27.08137
#
# Velocity S-wave (km/s) = 3.75021 3.77328 3.76177
# Velocity P-wave (km/s) = 7.09279 7.11562 7.10421
#
# Compressibility (1/GPa) = 0.01655910
#
# Stress axis : x y z
#
# Youngs Moduli (GPa) = 80.40679 68.30092 75.36654
#
# Poissons Ratio (x) = 0.33162 0.18853
# Poissons Ratio (y) = 0.39039 0.34194
# Poissons Ratio (z) = 0.20113 0.30988
#
# Static dielectric constant tensor:
#      x y z
#    x 3.666930 0.000000 0.000000 
#    y 0.000000 3.317380 0.000000 
#    z 0.000000 0.000000 2.813970 
# 
# 
# High freq. dielectric constant tensor:
#      x y z
#    x 1.758280 0.000000 0.000000 
#    y 0.000000 1.735450 0.000000 
#    z 0.000000 0.000000 1.742770 
# 
# From -- ./inp_files/34110.got.cif
#   From: 2010.03.12/outbox.cif.g09.slc.cpg/sg64_18_cif.got.tgz:34110.got - 2010.04.10 20:19:32.
