data_PCOD8263939
_publ_section_title
;
Structure prediction by ZEFSAII (Michael W. Deem and Ramdas Pophale) SiO2 
 PCOD8263939
Probable space group: C M C A
;
_chemical_formula_sum "Si O2"
_cell_formula_units_Z 80
_cell_length_a 8.309805
_cell_length_b 27.205147
_cell_length_c 18.113775
_cell_angle_alpha 90.000000
_cell_angle_beta 90.000000
_cell_angle_gamma 90.000000
_cell_volume 4094.971452
_symmetry_space_group_name_H-M "C M C A"
_symmetry_group_IT_number 64
_symmetry_cell_setting 'orthorhombic'
loop_
_space_group_symop_operation_xyz
x,y,z
-x,1/2-y,1/2+z
x,-y,-z
-x,1/2+y,1/2-z
-x,-y,-z
x,1/2+y,1/2-z
-x,y,z
x,1/2-y,1/2+z
1/2+x,1/2+y,z
1/2-x,-y,1/2+z
1/2+x,1/2-y,-z
1/2-x,y,1/2-z
1/2-x,1/2-y,-z
1/2+x,y,1/2-z
1/2-x,1/2+y,z
1/2+x,-y,1/2+z
loop_
_atom_site_type_symbol
_atom_site_label
_atom_site_fract_x
_atom_site_fract_y
_atom_site_fract_z
Si Si1 0.813462 0.295757 0.667882
Si Si2 0.812617 0.646805 0.035383
Si Si3 0.186790 0.400229 0.172493
Si Si4 0.311760 0.448751 0.033633
Si Si5 0.813405 0.303044 0.395375
O O1 0.750000 0.301647 0.750000
O O2 0.717288 0.334677 0.617914
O O3 0.788566 0.240641 0.639507
O O4 0.000000 0.308970 0.664660
O O5 0.000000 0.639923 0.019052
O O6 0.725757 0.594647 0.024080
O O7 0.742081 0.687381 0.979182
O O8 0.250000 0.421392 0.250000
O O9 0.217302 0.441128 0.110221
O O10 0.286645 0.351353 0.153584
O O11 0.000000 0.386970 0.176355
O O12 0.500000 0.449677 0.051096
O O13 0.251651 0.500000 0.000000
O O14 0.000000 0.288108 0.394532
#
# Coordination Sequence:
#
# PCOD8263939 Si02
#       5
#    16  16  16  16  16
#     4  12  24  39  56  80 114 151 190 230 275 326
#     4  11  22  38  59  84 112 146 187 229 276 329
#     4  11  21  35  56  84 116 147 183 229 281 331
#     4  10  21  39  62  86 112 144 184 230 280 333
#     4  11  21  36  57  83 114 149 188 228 274 327
#
# _framework density 19.536154
#
# number of rings (size 3 to 8) (size 9 to 14) (size 15 to 20)
#    0.000    1.000    0.000   11.400    0.000    1.600 
#    0.000    1.000    0.000    4.800    0.000    0.000 
#    0.000    0.000    0.000    0.000    0.000    0.000 
#
# Total GULP energy -496279.943980 kJ/mol
# GULP energy per Si atom -12406.998599 kJ/mol
# Density = 1.949169 g / cm^3
# Si number density = 19.536154 Si / 1000 Ang^3
#
#
#
# Elastic Constant Matrix: (Units=GPa)
#
#
# Indices 1 2 3 4 5 6 
#
# 1 81.7711 -4.6262 14.2648 0.0000 0.0000 0.0000
# 2 -4.6262 78.0418 65.9351 0.0000 0.0000 0.0000
# 3 14.2648 65.9351 141.0060 0.0000 0.0000 0.0000
# 4 0.0000 0.0000 0.0000 11.7881 0.0000 0.0000
# 5 0.0000 0.0000 0.0000 0.0000 34.3648 0.0000
# 6 0.0000 0.0000 0.0000 0.0000 0.0000 28.9969
#
#
#
# Elastic Compliance Matrix: (Units=1/GPa)
#
#
# Indices 1 2 3 4 5 6 
#
# 1 0.012882 0.003083 -0.002745 0.000000 0.000000 0.000000
# 2 0.003083 0.021919 -0.010561 0.000000 0.000000 0.000000
# 3 -0.002745 -0.010561 0.012308 0.000000 0.000000 0.000000
# 4 0.000000 0.000000 0.000000 0.084832 0.000000 0.000000
# 5 0.000000 0.000000 0.000000 0.000000 0.029100 0.000000
# 6 0.000000 0.000000 0.000000 0.000000 0.000000 0.034486
#
#
# Mechanical properties :
#
#
# Convention : Reuss Voigt Hill
#
# Bulk Modulus (GPa) = 37.50539 50.21848 43.86193
# Shear Modulus (GPa) = 22.23583 30.04631 26.14107
#
# Velocity S-wave (km/s) = 3.37737 3.92597 3.66196
# Velocity P-wave (km/s) = 5.86928 6.80531 6.35455
#
# Compressibility (1/GPa) = 0.02666284
#
# Stress axis : x y z
#
# Youngs Moduli (GPa) = 77.62497 45.62164 81.24700
#
# Poissons Ratio (x) = -0.14063 0.22299
# Poissons Ratio (y) = -0.23928 0.85809
# Poissons Ratio (z) = 0.21305 0.48183
#
# Static dielectric constant tensor:
#      x y z
#    x 3.681000 0.000000 0.000000 
#    y 0.000000 3.427790 0.000000 
#    z 0.000000 0.000000 3.820530 
# 
# 
# High freq. dielectric constant tensor:
#      x y z
#    x 1.781570 0.000000 0.000000 
#    y 0.000000 1.740850 0.000000 
#    z 0.000000 0.000000 1.766920 
# 
# From -- ./inp_files/29828.got.cif
#   From: 2010.03.12/outbox.cif.g09.slc.cpg/sg64_15_cif.got.tgz:29828.got - 2010.04.10 20:19:32.
