data_PCOD8263473
_publ_section_title
;
Structure prediction by ZEFSAII (Michael W. Deem and Ramdas Pophale) SiO2 
 PCOD8263473
Probable space group: C M C A
;
_chemical_formula_sum "Si O2"
_cell_formula_units_Z 72
_cell_length_a 22.929195
_cell_length_b 16.417056
_cell_length_c 9.004054
_cell_angle_alpha 90.000000
_cell_angle_beta 90.000000
_cell_angle_gamma 90.000000
_cell_volume 3389.394952
_symmetry_space_group_name_H-M "C M C A"
_symmetry_group_IT_number 64
_symmetry_cell_setting 'orthorhombic'
loop_
_space_group_symop_operation_xyz
x,y,z
-x,1/2-y,1/2+z
x,-y,-z
-x,1/2+y,1/2-z
-x,-y,-z
x,1/2+y,1/2-z
-x,y,z
x,1/2-y,1/2+z
1/2+x,1/2+y,z
1/2-x,-y,1/2+z
1/2+x,1/2-y,-z
1/2-x,y,1/2-z
1/2-x,1/2-y,-z
1/2+x,y,1/2-z
1/2-x,1/2+y,z
1/2+x,-y,1/2+z
loop_
_atom_site_type_symbol
_atom_site_label
_atom_site_fract_x
_atom_site_fract_y
_atom_site_fract_z
Si Si1 0.358723 0.000000 0.000000
Si Si2 0.933665 0.713464 0.439083
Si Si3 0.828853 0.208260 0.873102
Si Si4 0.796836 0.346297 0.067950
Si Si5 0.434739 0.635311 0.372373
O O1 0.397032 0.946976 0.885320
O O2 0.316281 0.060716 0.911292
O O3 0.887064 0.670019 0.550603
O O4 0.930232 0.810675 0.476392
O O5 0.916782 0.693688 0.267580
O O6 0.000000 0.683187 0.473636
O O7 0.828896 0.206362 0.695724
O O8 0.772978 0.156796 0.929062
O O9 0.821017 0.304180 0.917332
O O10 0.500000 0.604042 0.346993
#
# Coordination Sequence:
#
# PCOD8263473 Si02
#       5
#     8  16  16  16  16
#     4  12  23  40  58  94 127 164 200 254 332 368
#     4  10  20  38  67  94 118 166 214 253 302 369
#     4  10  20  43  62  92 117 161 213 259 291 381
#     4  10  23  39  66  87 124 162 207 254 322 359
#     4  10  22  39  64  93 128 164 209 257 306 370
#
# _framework density 21.242729000000001
#
# number of rings (size 3 to 8) (size 9 to 14) (size 15 to 20)
#    0.000    1.778    2.222    1.667    0.000    0.000 
#    8.000    1.111    0.000    2.667    0.000    0.000 
#    0.000    0.000    0.000    0.000    0.000    0.000 
#
# Total GULP energy -446141.331667 kJ/mol
# GULP energy per Si atom -12392.814769 kJ/mol
# Density = 2.119438 g / cm^3
# Si number density = 21.242729 Si / 1000 Ang^3
#
#
#
# Elastic Constant Matrix: (Units=GPa)
#
#
# Indices 1 2 3 4 5 6 
#
# 1 116.5067 65.1160 35.4188 0.0000 0.0000 0.0000
# 2 65.1160 133.4629 54.5419 0.0000 0.0000 0.0000
# 3 35.4188 54.5419 106.3490 0.0000 0.0000 0.0000
# 4 0.0000 0.0000 0.0000 19.1153 0.0000 0.0000
# 5 0.0000 0.0000 0.0000 0.0000 29.7482 0.0000
# 6 0.0000 0.0000 0.0000 0.0000 0.0000 38.9791
#
#
#
# Elastic Compliance Matrix: (Units=1/GPa)
#
#
# Indices 1 2 3 4 5 6 
#
# 1 0.011931 -0.005310 -0.001250 0.000000 0.000000 0.000000
# 2 -0.005310 0.011843 -0.004305 0.000000 0.000000 0.000000
# 3 -0.001250 -0.004305 0.012027 0.000000 0.000000 0.000000
# 4 0.000000 0.000000 0.000000 0.052314 0.000000 0.000000
# 5 0.000000 0.000000 0.000000 0.000000 0.033616 0.000000
# 6 0.000000 0.000000 0.000000 0.000000 0.000000 0.025655
#
#
# Mechanical properties :
#
#
# Convention : Reuss Voigt Hill
#
# Bulk Modulus (GPa) = 71.07241 74.05246 72.56244
# Shear Modulus (GPa) = 28.76749 30.98463 29.87606
#
# Velocity S-wave (km/s) = 3.68398 3.82330 3.75429
# Velocity P-wave (km/s) = 7.18509 7.37740 7.28188
#
# Compressibility (1/GPa) = 0.01407016
#
# Stress axis : x y z
#
# Youngs Moduli (GPa) = 83.81390 84.43825 83.14392
#
# Poissons Ratio (x) = 0.44839 0.10395
# Poissons Ratio (y) = 0.44507 0.35795
# Poissons Ratio (z) = 0.10478 0.36352
#
# Static dielectric constant tensor:
#      x y z
#    x 4.549720 0.000000 0.000000 
#    y 0.000000 3.426360 0.000000 
#    z 0.000000 0.000000 3.764720 
# 
# 
# High freq. dielectric constant tensor:
#      x y z
#    x 1.882100 0.000000 0.000000 
#    y 0.000000 1.783420 0.000000 
#    z 0.000000 0.000000 1.821500 
# 
# From -- ./inp_files/10009.got.cif
#   From: 2010.03.12/outbox.cif.g09.slc.cpg/sg64_6_cif.got.tgz:10009.got - 2010.04.10 20:19:32.
