data_PCOD8263982
_publ_section_title
;
Structure prediction by ZEFSAII (Michael W. Deem and Ramdas Pophale) SiO2 
 PCOD8263982
Probable space group: C M C A
;
_chemical_formula_sum "Si O2"
_cell_formula_units_Z 112
_cell_length_a 16.373317
_cell_length_b 21.867954
_cell_length_c 14.388878
_cell_angle_alpha 90.000000
_cell_angle_beta 90.000000
_cell_angle_gamma 90.000000
_cell_volume 5151.951336
_symmetry_space_group_name_H-M "C M C A"
_symmetry_group_IT_number 64
_symmetry_cell_setting 'orthorhombic'
loop_
_space_group_symop_operation_xyz
x,y,z
-x,1/2-y,1/2+z
x,-y,-z
-x,1/2+y,1/2-z
-x,-y,-z
x,1/2+y,1/2-z
-x,y,z
x,1/2-y,1/2+z
1/2+x,1/2+y,z
1/2-x,-y,1/2+z
1/2+x,1/2-y,-z
1/2-x,y,1/2-z
1/2-x,1/2-y,-z
1/2+x,y,1/2-z
1/2-x,1/2+y,z
1/2+x,-y,1/2+z
loop_
_atom_site_type_symbol
_atom_site_label
_atom_site_fract_x
_atom_site_fract_y
_atom_site_fract_z
Si Si1 0.091289 0.200075 0.678731
Si Si2 0.909826 0.724226 0.607436
Si Si3 0.206913 0.908233 0.348557
Si Si4 0.093931 0.339204 0.665156
Si Si5 0.649496 0.648131 0.363840
Si Si6 0.301290 0.141319 0.490183
Si Si7 0.910720 0.514054 0.106324
O O1 0.106352 0.200941 0.788566
O O2 0.152357 0.151876 0.631085
O O3 0.103545 0.267699 0.636095
O O4 0.000000 0.177046 0.656578
O O5 0.911252 0.797821 0.604931
O O6 0.835165 0.698678 0.547920
O O7 0.000000 0.702350 0.573058
O O8 0.250000 0.902200 0.250000
O O9 0.270145 0.910224 0.436362
O O10 0.153950 0.969885 0.343392
O O11 0.153684 0.352748 0.751719
O O12 0.123556 0.380437 0.576882
O O13 0.000000 0.354872 0.690617
O O14 0.734708 0.662071 0.414435
O O15 0.616899 0.583300 0.394078
O O16 0.000000 0.506454 0.154528
O O17 0.918152 0.500000 0.000000
#
# Coordination Sequence:
#
# PCOD8263982 Si02
#       7
#    16  16  16  16  16  16  16
#     4   9  20  39  61  89 129 172 213 260 320 390
#     4  10  21  39  64  96 133 170 207 259 330 399
#     4  12  25  42  64  93 132 173 219 266 323 381
#     4  10  23  41  64  96 132 172 213 262 332 403
#     4  11  23  43  67  94 131 168 219 272 330 385
#     4  12  24  38  62 100 132 170 211 271 324 387
#     4  11  24  45  68  93 126 170 224 272 318 381
#
# _framework density 21.739335000000001
#
# number of rings (size 3 to 8) (size 9 to 14) (size 15 to 20)
#    0.000    1.286    2.857    3.857    4.000    1.143 
#    0.000    0.000    0.000    0.000    0.000    6.000 
#    0.000    0.000    0.000    0.000    0.000    0.000 
#
# Total GULP energy -694065.354274 kJ/mol
# GULP energy per Si atom -12394.024183 kJ/mol
# Density = 2.168986 g / cm^3
# Si number density = 21.739335 Si / 1000 Ang^3
#
#
#
# Elastic Constant Matrix: (Units=GPa)
#
#
# Indices 1 2 3 4 5 6 
#
# 1 107.0481 37.2408 49.9442 0.0000 0.0000 0.0000
# 2 37.2408 93.1934 12.6577 0.0000 0.0000 0.0000
# 3 49.9442 12.6577 82.4707 0.0000 0.0000 0.0000
# 4 0.0000 0.0000 0.0000 17.1117 0.0000 0.0000
# 5 0.0000 0.0000 0.0000 0.0000 36.8412 0.0000
# 6 0.0000 0.0000 0.0000 0.0000 0.0000 23.7574
#
#
#
# Elastic Compliance Matrix: (Units=1/GPa)
#
#
# Indices 1 2 3 4 5 6 
#
# 1 0.014877 -0.004822 -0.008270 0.000000 0.000000 0.000000
# 2 -0.004822 0.012522 0.000998 0.000000 0.000000 0.000000
# 3 -0.008270 0.000998 0.016980 0.000000 0.000000 0.000000
# 4 0.000000 0.000000 0.000000 0.058440 0.000000 0.000000
# 5 0.000000 0.000000 0.000000 0.000000 0.027144 0.000000
# 6 0.000000 0.000000 0.000000 0.000000 0.000000 0.042092
#
#
# Mechanical properties :
#
#
# Convention : Reuss Voigt Hill
#
# Bulk Modulus (GPa) = 49.52235 53.59972 51.56104
# Shear Modulus (GPa) = 24.63393 27.73337 26.18365
#
# Velocity S-wave (km/s) = 3.36988 3.57560 3.47426
# Velocity P-wave (km/s) = 6.16206 6.46187 6.31374
#
# Compressibility (1/GPa) = 0.02019290
#
# Stress axis : x y z
#
# Youngs Moduli (GPa) = 67.21630 79.86171 58.89155
#
# Poissons Ratio (x) = 0.38509 0.48701
# Poissons Ratio (y) = 0.32411 -0.05879
# Poissons Ratio (z) = 0.55585 -0.07973
#
# Static dielectric constant tensor:
#      x y z
#    x 4.247700 0.000000 0.000000 
#    y 0.000000 2.123380 0.000000 
#    z 0.000000 0.000000 3.771700 
# 
# 
# High freq. dielectric constant tensor:
#      x y z
#    x 1.865380 0.000000 0.000000 
#    y 0.000000 1.816890 0.000000 
#    z 0.000000 0.000000 1.865810 
# 
# From -- ./inp_files/24202.got.cif
#   From: 2010.03.12/outbox.cif.g09.slc.cpg/sg64_13_cif.got.tgz:24202.got - 2010.04.10 20:19:32.
