data_PCOD8263587
_publ_section_title
;
Structure prediction by ZEFSAII (Michael W. Deem and Ramdas Pophale) SiO2 
 PCOD8263587
Probable space group: C M C A
;
_chemical_formula_sum "Si O2"
_cell_formula_units_Z 112
_cell_length_a 22.567403
_cell_length_b 16.240698
_cell_length_c 14.669269
_cell_angle_alpha 90.000000
_cell_angle_beta 90.000000
_cell_angle_gamma 90.000000
_cell_volume 5376.439308
_symmetry_space_group_name_H-M "C M C A"
_symmetry_group_IT_number 64
_symmetry_cell_setting 'orthorhombic'
loop_
_space_group_symop_operation_xyz
x,y,z
-x,1/2-y,1/2+z
x,-y,-z
-x,1/2+y,1/2-z
-x,-y,-z
x,1/2+y,1/2-z
-x,y,z
x,1/2-y,1/2+z
1/2+x,1/2+y,z
1/2-x,-y,1/2+z
1/2+x,1/2-y,-z
1/2-x,y,1/2-z
1/2-x,1/2-y,-z
1/2+x,y,1/2-z
1/2-x,1/2+y,z
1/2+x,-y,1/2+z
loop_
_atom_site_type_symbol
_atom_site_label
_atom_site_fract_x
_atom_site_fract_y
_atom_site_fract_z
Si Si1 0.569573 0.930614 0.931987
Si Si2 0.877369 0.891770 0.172786
Si Si3 0.066775 0.549008 0.276514
Si Si4 0.776953 0.412962 0.466183
Si Si5 0.859469 0.829762 0.897787
Si Si6 0.699517 0.825289 0.179700
Si Si7 0.070125 0.244834 0.943246
O O1 0.500000 0.927498 0.949750
O O2 0.585044 0.954247 0.829030
O O3 0.595086 0.838416 0.950516
O O4 0.597477 0.000000 0.000000
O O5 0.833283 0.929290 0.097690
O O6 0.842806 0.889755 0.268841
O O7 0.901734 0.801692 0.144368
O O8 0.930869 0.956333 0.183822
O O9 0.113954 0.604003 0.329109
O O10 0.000000 0.583145 0.288667
O O11 0.750743 0.500000 0.500000
O O12 0.799681 0.361241 0.552952
O O13 0.725647 0.363885 0.413032
O O14 0.841236 0.751789 0.840056
O O15 0.911304 0.805690 0.967812
O O16 0.750000 0.796764 0.250000
O O17 0.000000 0.244343 0.932146
#
# Coordination Sequence:
#
# PCOD8263587 Si02
#       7
#    16  16  16  16  16  16  16
#     4   9  20  38  55  81 124 169 209 252 305 367
#     4  10  21  39  62  91 126 164 212 260 318 381
#     4  11  22  38  63  95 131 166 211 260 311 388
#     4  10  20  42  62  89 127 160 203 271 321 376
#     4  11  22  39  64  95 124 164 214 259 321 391
#     4  10  23  42  62  88 123 165 216 268 318 378
#     4  10  21  38  62  90 129 168 205 257 320 384
#
# _framework density 20.831631999999999
#
# number of rings (size 3 to 8) (size 9 to 14) (size 15 to 20)
#    0.000    1.857    1.429    2.143    2.000    0.000 
#    5.143    3.571    0.000    0.000    0.000    0.000 
#    0.000    0.000    0.000    0.000    0.000    0.000 
#
# Total GULP energy -694381.835423 kJ/mol
# GULP energy per Si atom -12399.675633 kJ/mol
# Density = 2.078422 g / cm^3
# Si number density = 20.831632 Si / 1000 Ang^3
#
#
#
# Elastic Constant Matrix: (Units=GPa)
#
#
# Indices 1 2 3 4 5 6 
#
# 1 70.6333 30.2063 35.2158 0.0000 0.0000 0.0000
# 2 30.2063 123.6734 53.1080 0.0000 0.0000 0.0000
# 3 35.2158 53.1080 111.0089 0.0000 0.0000 0.0000
# 4 0.0000 0.0000 0.0000 31.6546 0.0000 0.0000
# 5 0.0000 0.0000 0.0000 0.0000 18.3284 0.0000
# 6 0.0000 0.0000 0.0000 0.0000 0.0000 24.9593
#
#
#
# Elastic Compliance Matrix: (Units=1/GPa)
#
#
# Indices 1 2 3 4 5 6 
#
# 1 0.017347 -0.002358 -0.004375 0.000000 0.000000 0.000000
# 2 -0.002358 0.010497 -0.004274 0.000000 0.000000 0.000000
# 3 -0.004375 -0.004274 0.012441 0.000000 0.000000 0.000000
# 4 0.000000 0.000000 0.000000 0.031591 0.000000 0.000000
# 5 0.000000 0.000000 0.000000 0.000000 0.054560 0.000000
# 6 0.000000 0.000000 0.000000 0.000000 0.000000 0.040065
#
#
# Mechanical properties :
#
#
# Convention : Reuss Voigt Hill
#
# Bulk Modulus (GPa) = 54.73094 60.26397 57.49746
# Shear Modulus (GPa) = 25.69291 27.44080 26.56686
#
# Velocity S-wave (km/s) = 3.51573 3.63335 3.57503
# Velocity P-wave (km/s) = 6.54298 6.82595 6.68596
#
# Compressibility (1/GPa) = 0.01827120
#
# Stress axis : x y z
#
# Youngs Moduli (GPa) = 57.64562 95.26471 80.38068
#
# Poissons Ratio (x) = 0.22466 0.35166
# Poissons Ratio (y) = 0.13594 0.34353
# Poissons Ratio (z) = 0.25220 0.40714
#
# Static dielectric constant tensor:
#      x y z
#    x 3.517560 0.000000 0.000000 
#    y 0.000000 3.855690 0.000000 
#    z 0.000000 0.000000 3.849500 
# 
# 
# High freq. dielectric constant tensor:
#      x y z
#    x 1.800960 0.000000 0.000000 
#    y 0.000000 1.820830 0.000000 
#    z 0.000000 0.000000 1.822690 
# 
# From -- ./inp_files/27382.got.cif
#   From: 2010.03.12/outbox.cif.g09.slc.cpg/sg64_14_cif.got.tgz:27382.got - 2010.04.10 20:19:32.
