data_PCOD8263048
_publ_section_title
;
Structure prediction by ZEFSAII (Michael W. Deem and Ramdas Pophale) SiO2 
 PCOD8263048
Probable space group: C M C A
;
_chemical_formula_sum "Si O2"
_cell_formula_units_Z 64
_cell_length_a 8.732496
_cell_length_b 20.729194
_cell_length_c 18.389249
_cell_angle_alpha 90.000000
_cell_angle_beta 90.000000
_cell_angle_gamma 90.000000
_cell_volume 3328.777788
_symmetry_space_group_name_H-M "C M C A"
_symmetry_group_IT_number 64
_symmetry_cell_setting 'orthorhombic'
loop_
_space_group_symop_operation_xyz
x,y,z
-x,1/2-y,1/2+z
x,-y,-z
-x,1/2+y,1/2-z
-x,-y,-z
x,1/2+y,1/2-z
-x,y,z
x,1/2-y,1/2+z
1/2+x,1/2+y,z
1/2-x,-y,1/2+z
1/2+x,1/2-y,-z
1/2-x,y,1/2-z
1/2-x,1/2-y,-z
1/2+x,y,1/2-z
1/2-x,1/2+y,z
1/2+x,-y,1/2+z
loop_
_atom_site_type_symbol
_atom_site_label
_atom_site_fract_x
_atom_site_fract_y
_atom_site_fract_z
Si Si1 0.179999 0.884300 0.829947
Si Si2 0.322971 0.999574 0.085278
Si Si3 0.677099 0.242422 0.171646
Si Si4 0.321114 0.114860 0.670203
O O1 0.250000 0.893338 0.750000
O O2 0.239416 0.817632 0.868332
O O3 0.000000 0.881726 0.822491
O O4 0.225790 0.943388 0.880146
O O5 0.500000 0.009103 0.105359
O O6 0.265269 0.931572 0.115247
O O7 0.294365 0.000000 0.000000
O O8 0.500000 0.224733 0.178154
O O9 0.750000 0.247379 0.250000
O O10 0.701201 0.313022 0.136125
O O11 0.500000 0.097219 0.675587
O O12 0.250000 0.107860 0.750000
#
# Coordination Sequence:
#
# PCOD8263048 Si02
#       4
#    16  16  16  16
#     4  11  21  35  58  84 111 142 179 222 267 319
#     4  11  24  40  56  76 107 145 184 227 272 319
#     4   9  17  31  53  82 112 139 173 218 267 316
#     4  10  20  35  58  85 112 142 178 222 268 320
#
# _framework density 19.226277
#
# number of rings (size 3 to 8) (size 9 to 14) (size 15 to 20)
#    0.000    1.750    0.000    6.750    0.000    5.000 
#    0.000    1.250    0.000    0.000    0.000    0.000 
#    0.000    0.000    0.000    0.000    0.000    0.000 
#
# Total GULP energy -396680.733336 kJ/mol
# GULP energy per Si atom -12396.272917 kJ/mol
# Density = 1.918252 g / cm^3
# Si number density = 19.226277 Si / 1000 Ang^3
#
#
#
# Elastic Constant Matrix: (Units=GPa)
#
#
# Indices 1 2 3 4 5 6 
#
# 1 153.9336 68.9504 48.7436 0.0000 0.0000 0.0000
# 2 68.9504 157.0808 48.1693 0.0000 0.0000 0.0000
# 3 48.7436 48.1693 57.5936 0.0000 0.0000 0.0000
# 4 0.0000 0.0000 0.0000 -62.4796 0.0000 0.0000
# 5 0.0000 0.0000 0.0000 0.0000 23.4307 0.0000
# 6 0.0000 0.0000 0.0000 0.0000 0.0000 39.9433
#
#
#
# Elastic Compliance Matrix: (Units=1/GPa)
#
#
# Indices 1 2 3 4 5 6 
#
# 1 0.009445 -0.002279 -0.006087 0.000000 0.000000 0.000000
# 2 -0.002279 0.009112 -0.005692 0.000000 0.000000 0.000000
# 3 -0.006087 -0.005692 0.027276 0.000000 0.000000 0.000000
# 4 0.000000 0.000000 0.000000 -0.016005 0.000000 0.000000
# 5 0.000000 0.000000 0.000000 0.000000 0.042679 0.000000
# 6 0.000000 0.000000 0.000000 0.000000 0.000000 0.025035
#
#
# Mechanical properties :
#
#
# Convention : Reuss Voigt Hill
#
# Bulk Modulus (GPa) = 56.44800 77.81495 67.13148
# Shear Modulus (GPa) = 38.00433 13.69519 25.84976
#
# Velocity S-wave (km/s) = 4.45082 2.67182 3.67072
# Velocity P-wave (km/s) = 7.47239 7.07667 7.27722
#
# Compressibility (1/GPa) = 0.01771542
#
# Stress axis : x y z
#
# Youngs Moduli (GPa) = 105.87939 109.74467 36.66274
#
# Poissons Ratio (x) = 0.25011 0.22318
# Poissons Ratio (y) = 0.24131 0.20869
# Poissons Ratio (z) = 0.64452 0.62468
#
# Static dielectric constant tensor:
#      x y z
#    x 3.758020 0.000000 0.000000 
#    y 0.000000 4.464990 0.000000 
#    z 0.000000 0.000000 3.159860 
# 
# 
# High freq. dielectric constant tensor:
#      x y z
#    x 1.770920 0.000000 0.000000 
#    y 0.000000 1.777610 0.000000 
#    z 0.000000 0.000000 1.700330 
# 
# From -- ./inp_files/29236.got.cif
#   From: 2010.03.12/outbox.cif.g09.slc.cpg/sg64_15_cif.got.tgz:29236.got - 2010.04.10 20:19:32.
