data_PCOD8263735
_publ_section_title
;
Structure prediction by ZEFSAII (Michael W. Deem and Ramdas Pophale) SiO2 
 PCOD8263735
Probable space group: C M C A
;
_chemical_formula_sum "Si O2"
_cell_formula_units_Z 96
_cell_length_a 8.861962
_cell_length_b 17.853010
_cell_length_c 30.910039
_cell_angle_alpha 90.000000
_cell_angle_beta 90.000000
_cell_angle_gamma 90.000000
_cell_volume 4890.360610
_symmetry_space_group_name_H-M "C M C A"
_symmetry_group_IT_number 64
_symmetry_cell_setting 'orthorhombic'
loop_
_space_group_symop_operation_xyz
x,y,z
-x,1/2-y,1/2+z
x,-y,-z
-x,1/2+y,1/2-z
-x,-y,-z
x,1/2+y,1/2-z
-x,y,z
x,1/2-y,1/2+z
1/2+x,1/2+y,z
1/2-x,-y,1/2+z
1/2+x,1/2-y,-z
1/2-x,y,1/2-z
1/2-x,1/2-y,-z
1/2+x,y,1/2-z
1/2-x,1/2+y,z
1/2+x,-y,1/2+z
loop_
_atom_site_type_symbol
_atom_site_label
_atom_site_fract_x
_atom_site_fract_y
_atom_site_fract_z
Si Si1 0.827023 0.447746 0.959675
Si Si2 0.177967 0.792684 0.119616
Si Si3 0.677528 0.288387 0.706086
Si Si4 0.677929 0.458403 0.706008
Si Si5 0.175312 0.049281 0.622690
Si Si6 0.677476 0.208929 0.459619
O O1 0.795547 0.491923 0.915831
O O2 0.715063 0.378362 0.961731
O O3 0.000000 0.419451 0.961553
O O4 0.789146 0.500000 0.000000
O O5 0.230637 0.763361 0.166531
O O6 0.224307 0.878369 0.114132
O O7 0.259821 0.742356 0.084501
O O8 0.000000 0.783824 0.113193
O O9 0.500000 0.285686 0.711787
O O10 0.750000 0.256229 0.750000
O O11 0.733202 0.373397 0.697471
O O12 0.500000 0.461043 0.710695
O O13 0.750000 0.490364 0.750000
O O14 0.732000 0.510109 0.666603
O O15 0.000000 0.072449 0.625156
O O16 0.500000 0.221158 0.461448
O O17 0.750000 0.250000 0.500000
#
# Coordination Sequence:
#
# PCOD8263735 Si02
#       6
#    16  16  16  16  16  16
#     4  10  21  39  63  88 116 150 187 231 286 343
#     4  11  23  39  59  85 119 155 195 241 288 341
#     4   9  19  36  58  83 112 150 193 239 290 342
#     4   9  18  34  55  78 108 147 191 237 286 340
#     4  10  21  37  57  83 117 153 189 234 289 343
#     4  12  25  41  63  89 118 152 192 237 286 342
#
# _framework density 19.630454
#
# number of rings (size 3 to 8) (size 9 to 14) (size 15 to 20)
#    0.000    1.833    0.000    4.000    0.000    7.667 
#    0.000    6.667    0.000    0.000    0.000    0.000 
#    0.000    0.000    0.000    0.000    0.000    0.000 
#
# Total GULP energy -595438.868825 kJ/mol
# GULP energy per Si atom -12404.976434 kJ/mol
# Density = 1.958577 g / cm^3
# Si number density = 19.630454 Si / 1000 Ang^3
#
#
#
# Elastic Constant Matrix: (Units=GPa)
#
#
# Indices 1 2 3 4 5 6 
#
# 1 84.5554 46.0551 57.2180 0.0000 0.0000 0.0000
# 2 46.0551 101.0060 57.4183 0.0000 0.0000 0.0000
# 3 57.2180 57.4183 154.2674 0.0000 0.0000 0.0000
# 4 0.0000 0.0000 0.0000 26.6622 0.0000 0.0000
# 5 0.0000 0.0000 0.0000 0.0000 32.4471 0.0000
# 6 0.0000 0.0000 0.0000 0.0000 0.0000 35.4520
#
#
#
# Elastic Compliance Matrix: (Units=1/GPa)
#
#
# Indices 1 2 3 4 5 6 
#
# 1 0.017974 -0.005588 -0.004587 0.000000 0.000000 0.000000
# 2 -0.005588 0.014295 -0.003248 0.000000 0.000000 0.000000
# 3 -0.004587 -0.003248 0.009392 0.000000 0.000000 0.000000
# 4 0.000000 0.000000 0.000000 0.037506 0.000000 0.000000
# 5 0.000000 0.000000 0.000000 0.000000 0.030819 0.000000
# 6 0.000000 0.000000 0.000000 0.000000 0.000000 0.028207
#
#
# Mechanical properties :
#
#
# Convention : Reuss Voigt Hill
#
# Bulk Modulus (GPa) = 67.49599 73.46796 70.48198
# Shear Modulus (GPa) = 29.41561 30.85476 30.13519
#
# Velocity S-wave (km/s) = 3.87520 3.96887 3.92232
# Velocity P-wave (km/s) = 7.38112 7.64914 7.51632
#
# Compressibility (1/GPa) = 0.01481569
#
# Stress axis : x y z
#
# Youngs Moduli (GPa) = 55.63565 69.95618 106.47015
#
# Poissons Ratio (x) = 0.39093 0.48835
# Poissons Ratio (y) = 0.31090 0.34579
# Poissons Ratio (z) = 0.25518 0.22720
#
# Static dielectric constant tensor:
#      x y z
#    x 3.497920 0.000000 0.000000 
#    y 0.000000 3.569940 0.000000 
#    z 0.000000 0.000000 3.694900 
# 
# 
# High freq. dielectric constant tensor:
#      x y z
#    x 1.757630 0.000000 0.000000 
#    y 0.000000 1.767160 0.000000 
#    z 0.000000 0.000000 1.785350 
# 
# From -- ./inp_files/48098.got.cif
#   From: 2010.03.12/outbox.cif.g09.slc.cpg/sg64_25_cif.got.tgz:48098.got - 2010.04.10 20:19:32.
