data_PCOD8263190
_publ_section_title
;
Structure prediction by ZEFSAII (Michael W. Deem and Ramdas Pophale) SiO2 
 PCOD8263190
Probable space group: C M C A
;
_chemical_formula_sum "Si O2"
_cell_formula_units_Z 104
_cell_length_a 9.080268
_cell_length_b 27.285659
_cell_length_c 21.472147
_cell_angle_alpha 90.000000
_cell_angle_beta 90.000000
_cell_angle_gamma 90.000000
_cell_volume 5319.962680
_symmetry_space_group_name_H-M "C M C A"
_symmetry_group_IT_number 64
_symmetry_cell_setting 'orthorhombic'
loop_
_space_group_symop_operation_xyz
x,y,z
-x,1/2-y,1/2+z
x,-y,-z
-x,1/2+y,1/2-z
-x,-y,-z
x,1/2+y,1/2-z
-x,y,z
x,1/2-y,1/2+z
1/2+x,1/2+y,z
1/2-x,-y,1/2+z
1/2+x,1/2-y,-z
1/2-x,y,1/2-z
1/2-x,1/2-y,-z
1/2+x,y,1/2-z
1/2-x,1/2+y,z
1/2+x,-y,1/2+z
loop_
_atom_site_type_symbol
_atom_site_label
_atom_site_fract_x
_atom_site_fract_y
_atom_site_fract_z
Si Si1 0.331915 0.188499 0.867963
Si Si2 0.668921 0.369185 0.921686
Si Si3 0.661973 0.956607 0.337301
Si Si4 0.673267 0.938402 0.690372
Si Si5 0.829831 0.890340 0.058388
Si Si6 0.675760 0.268289 0.564033
Si Si7 0.750000 0.873607 0.250000
O O1 0.500000 0.201795 0.882011
O O2 0.271426 0.155231 0.923727
O O3 0.234763 0.237774 0.875525
O O4 0.325775 0.162313 0.800206
O O5 0.500000 0.351055 0.913016
O O6 0.719032 0.406336 0.868578
O O7 0.779465 0.323878 0.922351
O O8 0.684016 0.400212 0.985380
O O9 0.500000 0.975516 0.353201
O O10 0.731624 0.936496 0.401805
O O11 0.647184 0.911975 0.287349
O O12 0.743676 0.006299 0.315952
O O13 0.500000 0.938410 0.701554
O O14 0.750000 0.913897 0.750000
O O15 0.000000 0.879176 0.077516
O O16 0.500000 0.263068 0.558883
O O17 0.750000 0.250000 0.500000
#
# Coordination Sequence:
#
# PCOD8263190 Si02
#       7
#    16  16  16  16  16  16   8
#     4  11  22  36  59  90 122 153 193 243 295 354
#     4  10  21  38  60  85 116 155 198 245 292 348
#     4   9  17  32  56  86 118 153 193 236 289 351
#     4  10  21  38  59  84 117 159 203 243 288 345
#     4   9  18  33  56  86 119 153 191 239 294 350
#     4  12  24  40  63  87 115 152 194 242 299 358
#     4  10  20  36  58  88 122 156 192 234 298 350
#
# _framework density 19.549009999999999
#
# number of rings (size 3 to 8) (size 9 to 14) (size 15 to 20)
#    0.000    1.846    2.308    2.308    0.000    3.077 
#    1.385    3.077    0.000    0.000    0.000    4.308 
#    0.000    0.000    0.000    0.000    0.000    0.000 
#
# Total GULP energy -644282.703771 kJ/mol
# GULP energy per Si atom -12390.051996 kJ/mol
# Density = 1.950452 g / cm^3
# Si number density = 19.549010 Si / 1000 Ang^3
#
#
#
# Elastic Constant Matrix: (Units=GPa)
#
#
# Indices 1 2 3 4 5 6 
#
# 1 98.3396 41.6863 41.6194 0.0000 0.0000 0.0000
# 2 41.6863 105.8533 71.4246 0.0000 0.0000 0.0000
# 3 41.6194 71.4246 147.8705 0.0000 0.0000 0.0000
# 4 0.0000 0.0000 0.0000 28.5581 0.0000 0.0000
# 5 0.0000 0.0000 0.0000 0.0000 24.9239 0.0000
# 6 0.0000 0.0000 0.0000 0.0000 0.0000 24.6796
#
#
#
# Elastic Compliance Matrix: (Units=1/GPa)
#
#
# Indices 1 2 3 4 5 6 
#
# 1 0.012485 -0.003776 -0.001690 0.000000 0.000000 0.000000
# 2 -0.003776 0.015157 -0.006258 0.000000 0.000000 0.000000
# 3 -0.001690 -0.006258 0.010261 0.000000 0.000000 0.000000
# 4 0.000000 0.000000 0.000000 0.035016 0.000000 0.000000
# 5 0.000000 0.000000 0.000000 0.000000 0.040122 0.000000
# 6 0.000000 0.000000 0.000000 0.000000 0.000000 0.040519
#
#
# Mechanical properties :
#
#
# Convention : Reuss Voigt Hill
#
# Bulk Modulus (GPa) = 69.18539 73.50267 71.34403
# Shear Modulus (GPa) = 27.49855 28.78788 28.14321
#
# Velocity S-wave (km/s) = 3.75460 3.84161 3.79835
# Velocity P-wave (km/s) = 7.36638 7.57351 7.47067
#
# Compressibility (1/GPa) = 0.01445392
#
# Stress axis : x y z
#
# Youngs Moduli (GPa) = 80.09693 65.97605 97.45483
#
# Poissons Ratio (x) = 0.24916 0.16469
# Poissons Ratio (y) = 0.30248 0.60990
# Poissons Ratio (z) = 0.13535 0.41289
#
# Static dielectric constant tensor:
#      x y z
#    x 3.347870 0.000000 0.000000 
#    y 0.000000 3.742110 0.000000 
#    z 0.000000 0.000000 3.656300 
# 
# 
# High freq. dielectric constant tensor:
#      x y z
#    x 1.741810 0.000000 0.000000 
#    y 0.000000 1.756840 0.000000 
#    z 0.000000 0.000000 1.765220 
# 
# From -- ./inp_files/37416.got.cif
#   From: 2010.03.12/outbox.cif.g09.slc.cpg/sg64_19_cif.got.tgz:37416.got - 2010.04.10 20:19:32.
