data_PCOD8263096
_publ_section_title
;
Structure prediction by ZEFSAII (Michael W. Deem and Ramdas Pophale) SiO2 
 PCOD8263096
Probable space group: C M C A
;
_chemical_formula_sum "Si O2"
_cell_formula_units_Z 104
_cell_length_a 18.248303
_cell_length_b 10.244525
_cell_length_c 27.900500
_cell_angle_alpha 90.000000
_cell_angle_beta 90.000000
_cell_angle_gamma 90.000000
_cell_volume 5215.864449
_symmetry_space_group_name_H-M "C M C A"
_symmetry_group_IT_number 64
_symmetry_cell_setting 'orthorhombic'
loop_
_space_group_symop_operation_xyz
x,y,z
-x,1/2-y,1/2+z
x,-y,-z
-x,1/2+y,1/2-z
-x,-y,-z
x,1/2+y,1/2-z
-x,y,z
x,1/2-y,1/2+z
1/2+x,1/2+y,z
1/2-x,-y,1/2+z
1/2+x,1/2-y,-z
1/2-x,y,1/2-z
1/2-x,1/2-y,-z
1/2+x,y,1/2-z
1/2-x,1/2+y,z
1/2+x,-y,1/2+z
loop_
_atom_site_type_symbol
_atom_site_label
_atom_site_fract_x
_atom_site_fract_y
_atom_site_fract_z
Si Si1 0.355956 0.277593 0.670646
Si Si2 0.144043 0.222403 0.670647
Si Si3 0.000000 0.139635 0.709946
Si Si4 0.827508 0.999997 0.947012
Si Si5 0.750000 0.250001 0.250000
Si Si6 0.587936 0.000001 0.350615
Si Si7 0.000000 0.860356 0.709944
Si Si8 0.249999 0.750004 0.412097
O O1 0.303790 0.328620 0.714055
O O2 0.375524 0.123684 0.675639
O O3 0.431235 0.355619 0.674182
O O4 0.316003 0.306273 0.620731
O O5 0.068765 0.144375 0.674184
O O6 0.196209 0.171378 0.714056
O O7 0.124474 0.376312 0.675640
O O8 0.183996 0.193722 0.620731
O O9 0.000000 0.249993 0.750002
O O10 0.000000 0.999994 0.736918
O O11 0.891010 0.999998 0.907080
O O12 0.777135 0.129258 0.943715
O O13 0.777138 0.870732 0.943715
O O14 0.863595 0.000000 0.000000
O O15 0.500000 0.999999 0.346381
#
# Coordination Sequence:
#
# PCOD8263096 Si02
#       8
#    16  16   8  16   8  16   8  16
#     4  10  21  37  56  81 113 151 193 231 281 326
#     4  10  21  37  56  81 113 151 193 231 281 326
#     4  12  26  38  56  82 113 156 198 236 277 328
#     4  10  20  37  61  87 115 146 184 234 294 347
#     4  10  20  36  50  80 108 150 188 236 266 328
#     4  10  20  36  59  82 114 147 185 238 284 341
#     4  12  26  38  56  82 113 156 198 236 277 328
#     4   9  21  37  59  88 114 148 189 237 279 341
#
# _framework density 19.939169
#
# number of rings (size 3 to 8) (size 9 to 14) (size 15 to 20)
#    0.000    1.846    3.077    0.462    4.308    0.923 
#    2.769    0.000    0.000    0.000    0.000    1.077 
#    0.000    0.000    0.000    0.000    0.000    0.000 
#
# Total GULP energy -644368.693021 kJ/mol
# GULP energy per Si atom -12391.705635 kJ/mol
# Density = 1.989379 g / cm^3
# Si number density = 19.939169 Si / 1000 Ang^3
#
#
#
# Elastic Constant Matrix: (Units=GPa)
#
#
# Indices 1 2 3 4 5 6 
#
# 1 131.0463 16.8812 34.2761 0.0000 0.0000 0.0000
# 2 16.8812 101.0177 24.3291 0.0000 0.0000 0.0000
# 3 34.2761 24.3291 94.5811 0.0000 0.0000 0.0000
# 4 0.0000 0.0000 0.0000 17.2731 0.0000 0.0000
# 5 0.0000 0.0000 0.0000 0.0000 15.5806 0.0000
# 6 0.0000 0.0000 0.0000 0.0000 0.0000 16.1226
#
#
#
# Elastic Compliance Matrix: (Units=1/GPa)
#
#
# Indices 1 2 3 4 5 6 
#
# 1 0.008479 -0.000722 -0.002887 0.000000 0.000000 0.000000
# 2 -0.000722 0.010614 -0.002469 0.000000 0.000000 0.000000
# 3 -0.002887 -0.002469 0.012254 0.000000 0.000000 0.000000
# 4 0.000000 0.000000 0.000000 0.057893 0.000000 0.000000
# 5 0.000000 0.000000 0.000000 0.000000 0.064182 0.000000
# 6 0.000000 0.000000 0.000000 0.000000 0.000000 0.062025
#
#
# Mechanical properties :
#
#
# Convention : Reuss Voigt Hill
#
# Bulk Modulus (GPa) = 52.10361 53.06867 52.58614
# Shear Modulus (GPa) = 21.36746 26.53919 23.95332
#
# Velocity S-wave (km/s) = 3.27713 3.65226 3.46977
# Velocity P-wave (km/s) = 6.36455 6.66771 6.51789
#
# Compressibility (1/GPa) = 0.01919253
#
# Stress axis : x y z
#
# Youngs Moduli (GPa) = 117.93831 94.21127 81.60399
#
# Poissons Ratio (x) = 0.06798 0.23560
# Poissons Ratio (y) = 0.08510 0.20147
# Poissons Ratio (z) = 0.34051 0.23259
#
# Static dielectric constant tensor:
#      x y z
#    x 3.939370 0.000000 0.000000 
#    y 0.000000 3.580980 0.000000 
#    z 0.000000 0.000000 3.428710 
# 
# 
# High freq. dielectric constant tensor:
#      x y z
#    x 1.789010 0.000000 0.000000 
#    y 0.000000 1.767490 0.000000 
#    z 0.000000 0.000000 1.758720 
# 
# From -- ./inp_files/50815.got.cif
#   From: 2010.03.12/outbox.cif.g09.slc.cpg/sg64_26_cif.got.tgz:50815.got - 2010.04.10 20:19:32.
