data_PCOD8263747
_publ_section_title
;
Structure prediction by ZEFSAII (Michael W. Deem and Ramdas Pophale) SiO2 
 PCOD8263747
Probable space group: C M C A
;
_chemical_formula_sum "Si O2"
_cell_formula_units_Z 64
_cell_length_a 8.491678
_cell_length_b 27.591560
_cell_length_c 13.809921
_cell_angle_alpha 90.000000
_cell_angle_beta 90.000000
_cell_angle_gamma 90.000000
_cell_volume 3235.645751
_symmetry_space_group_name_H-M "C M C A"
_symmetry_group_IT_number 64
_symmetry_cell_setting 'orthorhombic'
loop_
_space_group_symop_operation_xyz
x,y,z
-x,1/2-y,1/2+z
x,-y,-z
-x,1/2+y,1/2-z
-x,-y,-z
x,1/2+y,1/2-z
-x,y,z
x,1/2-y,1/2+z
1/2+x,1/2+y,z
1/2-x,-y,1/2+z
1/2+x,1/2-y,-z
1/2-x,y,1/2-z
1/2-x,1/2-y,-z
1/2+x,y,1/2-z
1/2-x,1/2+y,z
1/2+x,-y,1/2+z
loop_
_atom_site_type_symbol
_atom_site_label
_atom_site_fract_x
_atom_site_fract_y
_atom_site_fract_z
Si Si1 0.817464 0.825770 0.532417
Si Si2 0.682508 0.070748 0.478713
Si Si3 0.815417 0.260004 0.147362
Si Si4 0.315653 0.010876 0.853341
O O1 0.715239 0.873704 0.545667
O O2 0.775277 0.801991 0.429219
O O3 0.772797 0.789321 0.618461
O O4 0.000000 0.839167 0.540072
O O5 0.500000 0.062924 0.501685
O O6 0.782232 0.054413 0.572094
O O7 0.730198 0.038403 0.386556
O O8 0.750000 0.278081 0.250000
O O9 0.000000 0.249587 0.151595
O O10 0.500000 0.001065 0.847856
O O11 0.250000 0.027104 0.750000
#
# Coordination Sequence:
#
# PCOD8263747 Si02
#       4
#    16  16  16  16
#     4  10  21  38  58  82 113 148 187 230 277 329
#     4  11  22  38  59  85 115 148 187 230 279 333
#     4  10  21  37  58  83 112 146 185 230 279 331
#     4  11  22  39  60  84 114 148 187 231 280 331
#
# _framework density 19.779668999999998
#
# number of rings (size 3 to 8) (size 9 to 14) (size 15 to 20)
#    0.000    1.500    0.000    7.500    0.000    5.000 
#    0.000    7.500    0.000    0.000    0.000    0.000 
#    0.000    0.000    0.000    0.000    0.000    0.000 
#
# Total GULP energy -397025.628214 kJ/mol
# GULP energy per Si atom -12407.050882 kJ/mol
# Density = 1.973465 g / cm^3
# Si number density = 19.779669 Si / 1000 Ang^3
#
#
#
# Elastic Constant Matrix: (Units=GPa)
#
#
# Indices 1 2 3 4 5 6 
#
# 1 93.2438 16.4980 8.6050 0.0000 0.0000 0.0000
# 2 16.4980 64.5488 -22.9718 0.0000 0.0000 0.0000
# 3 8.6050 -22.9718 56.8748 0.0000 0.0000 0.0000
# 4 0.0000 0.0000 0.0000 8.6898 0.0000 0.0000
# 5 0.0000 0.0000 0.0000 0.0000 35.7912 0.0000
# 6 0.0000 0.0000 0.0000 0.0000 0.0000 33.5088
#
#
#
# Elastic Compliance Matrix: (Units=1/GPa)
#
#
# Indices 1 2 3 4 5 6 
#
# 1 0.011803 -0.004265 -0.003509 0.000000 0.000000 0.000000
# 2 -0.004265 0.019634 0.008576 0.000000 0.000000 0.000000
# 3 -0.003509 0.008576 0.021577 0.000000 0.000000 0.000000
# 4 0.000000 0.000000 0.000000 0.115077 0.000000 0.000000
# 5 0.000000 0.000000 0.000000 0.000000 0.027940 0.000000
# 6 0.000000 0.000000 0.000000 0.000000 0.000000 0.029843
#
#
# Mechanical properties :
#
#
# Convention : Reuss Voigt Hill
#
# Bulk Modulus (GPa) = 18.30904 24.32553 21.31729
# Shear Modulus (GPa) = 20.62053 29.76704 25.19379
#
# Velocity S-wave (km/s) = 3.23230 3.88355 3.57280
# Velocity P-wave (km/s) = 4.81736 5.69511 5.27452
#
# Compressibility (1/GPa) = 0.05461783
#
# Stress axis : x y z
#
# Youngs Moduli (GPa) = 84.72387 50.93130 46.34552
#
# Poissons Ratio (x) = 0.21724 0.16261
# Poissons Ratio (y) = 0.36138 -0.39744
# Poissons Ratio (z) = 0.29726 -0.43677
#
# Static dielectric constant tensor:
#      x y z
#    x 3.697880 0.000000 0.000000 
#    y 0.000000 3.449350 0.000000 
#    z 0.000000 0.000000 3.710950 
# 
# 
# High freq. dielectric constant tensor:
#      x y z
#    x 1.790110 0.000000 0.000000 
#    y 0.000000 1.766010 0.000000 
#    z 0.000000 0.000000 1.770710 
# 
# From -- ./inp_files/20871.got.cif
#   From: 2010.03.12/outbox.cif.g09.slc.cpg/sg64_11_cif.got.tgz:20871.got - 2010.04.10 20:19:32.
