data_PCOD8263894
_publ_section_title
;
Structure prediction by ZEFSAII (Michael W. Deem and Ramdas Pophale) SiO2 
 PCOD8263894
Probable space group: C M C A
;
_chemical_formula_sum "Si O2"
_cell_formula_units_Z 80
_cell_length_a 27.560112
_cell_length_b 16.317680
_cell_length_c 9.933479
_cell_angle_alpha 90.000000
_cell_angle_beta 90.000000
_cell_angle_gamma 90.000000
_cell_volume 4467.255253
_symmetry_space_group_name_H-M "C M C A"
_symmetry_group_IT_number 64
_symmetry_cell_setting 'orthorhombic'
loop_
_space_group_symop_operation_xyz
x,y,z
-x,1/2-y,1/2+z
x,-y,-z
-x,1/2+y,1/2-z
-x,-y,-z
x,1/2+y,1/2-z
-x,y,z
x,1/2-y,1/2+z
1/2+x,1/2+y,z
1/2-x,-y,1/2+z
1/2+x,1/2-y,-z
1/2-x,y,1/2-z
1/2-x,1/2-y,-z
1/2+x,y,1/2-z
1/2-x,1/2+y,z
1/2+x,-y,1/2+z
loop_
_atom_site_type_symbol
_atom_site_label
_atom_site_fract_x
_atom_site_fract_y
_atom_site_fract_z
Si Si1 0.361774 0.927689 0.089790
Si Si2 0.055291 0.519221 0.720599
Si Si3 0.944746 0.629874 0.465746
Si Si4 0.807255 0.689553 0.741082
Si Si5 0.859448 0.749106 0.980023
O O1 0.411870 0.961923 0.150580
O O2 0.325431 0.901151 0.211198
O O3 0.370415 0.847710 0.994391
O O4 0.338193 0.000000 0.000000
O O5 0.070849 0.434390 0.649453
O O6 0.060958 0.591594 0.613070
O O7 0.000000 0.513615 0.771000
O O8 0.911085 0.708842 0.458693
O O9 0.000000 0.658275 0.442009
O O10 0.750000 0.692634 0.750000
O O11 0.826851 0.708532 0.593309
O O12 0.828797 0.758235 0.841992
#
# Coordination Sequence:
#
# PCOD8263894 Si02
#       5
#    16  16  16  16  16
#     4  10  23  36  57  82 122 148 197 243 296 339
#     4   9  18  35  56  83 122 153 187 239 290 348
#     4   9  17  33  60  90 114 152 196 231 287 355
#     4  10  22  41  61  86 115 152 202 245 301 344
#     4  10  21  38  63  86 115 159 195 245 287 351
#
# _framework density 17.908087999999999
#
# number of rings (size 3 to 8) (size 9 to 14) (size 15 to 20)
#    1.200    1.200    2.000    1.800    2.800    1.200 
#    0.000    4.000    0.000    0.000    0.000    0.000 
#    0.000    0.000    0.000    0.000    0.000    0.000 
#
# Total GULP energy -495698.126541 kJ/mol
# GULP energy per Si atom -12392.453164 kJ/mol
# Density = 1.786733 g / cm^3
# Si number density = 17.908088 Si / 1000 Ang^3
#
#
#
# Elastic Constant Matrix: (Units=GPa)
#
#
# Indices 1 2 3 4 5 6 
#
# 1 105.9536 42.2471 26.5056 0.0000 0.0000 0.0000
# 2 42.2471 96.8611 10.8755 0.0000 0.0000 0.0000
# 3 26.5056 10.8755 49.8564 0.0000 0.0000 0.0000
# 4 0.0000 0.0000 0.0000 31.7183 0.0000 0.0000
# 5 0.0000 0.0000 0.0000 0.0000 22.5744 0.0000
# 6 0.0000 0.0000 0.0000 0.0000 0.0000 16.5577
#
#
#
# Elastic Compliance Matrix: (Units=1/GPa)
#
#
# Indices 1 2 3 4 5 6 
#
# 1 0.012855 -0.004961 -0.005752 0.000000 0.000000 0.000000
# 2 -0.004961 0.012498 -0.000089 0.000000 0.000000 0.000000
# 3 -0.005752 -0.000089 0.023135 0.000000 0.000000 0.000000
# 4 0.000000 0.000000 0.000000 0.031528 0.000000 0.000000
# 5 0.000000 0.000000 0.000000 0.000000 0.044298 0.000000
# 6 0.000000 0.000000 0.000000 0.000000 0.000000 0.060395
#
#
# Mechanical properties :
#
#
# Convention : Reuss Voigt Hill
#
# Bulk Modulus (GPa) = 37.19661 45.76972 41.48316
# Shear Modulus (GPa) = 23.22621 25.70625 24.46623
#
# Velocity S-wave (km/s) = 3.60525 3.79285 3.70024
# Velocity P-wave (km/s) = 6.17628 6.69287 6.43976
#
# Compressibility (1/GPa) = 0.02688417
#
# Stress axis : x y z
#
# Youngs Moduli (GPa) = 77.78955 80.01366 43.22452
#
# Poissons Ratio (x) = 0.39696 0.24863
# Poissons Ratio (y) = 0.38592 0.00384
# Poissons Ratio (z) = 0.44745 0.00710
#
# Static dielectric constant tensor:
#      x y z
#    x 3.140160 0.000000 0.000000 
#    y 0.000000 3.175760 0.000000 
#    z 0.000000 0.000000 3.252570 
# 
# 
# High freq. dielectric constant tensor:
#      x y z
#    x 1.687130 0.000000 0.000000 
#    y 0.000000 1.681300 0.000000 
#    z 0.000000 0.000000 1.689310 
# 
# From -- ./inp_files/10153.got.cif
#   From: 2010.03.12/outbox.cif.g09.slc.cpg/sg64_6_cif.got.tgz:10153.got - 2010.04.10 20:19:32.
