data_PCOD8263240
_publ_section_title
;
Structure prediction by ZEFSAII (Michael W. Deem and Ramdas Pophale) SiO2 
 PCOD8263240
Probable space group: C M C A
;
_chemical_formula_sum "Si O2"
_cell_formula_units_Z 112
_cell_length_a 15.654693
_cell_length_b 23.689180
_cell_length_c 14.588641
_cell_angle_alpha 90.000000
_cell_angle_beta 90.000000
_cell_angle_gamma 90.000000
_cell_volume 5410.151419
_symmetry_space_group_name_H-M "C M C A"
_symmetry_group_IT_number 64
_symmetry_cell_setting 'orthorhombic'
loop_
_space_group_symop_operation_xyz
x,y,z
-x,1/2-y,1/2+z
x,-y,-z
-x,1/2+y,1/2-z
-x,-y,-z
x,1/2+y,1/2-z
-x,y,z
x,1/2-y,1/2+z
1/2+x,1/2+y,z
1/2-x,-y,1/2+z
1/2+x,1/2-y,-z
1/2-x,y,1/2-z
1/2-x,1/2-y,-z
1/2+x,y,1/2-z
1/2-x,1/2+y,z
1/2+x,-y,1/2+z
loop_
_atom_site_type_symbol
_atom_site_label
_atom_site_fract_x
_atom_site_fract_y
_atom_site_fract_z
Si Si1 0.172131 0.293371 0.430107
Si Si2 0.314241 0.786938 0.625845
Si Si3 0.097411 0.482011 0.355578
Si Si4 0.746052 0.586224 0.955370
Si Si5 0.796082 0.914281 0.842600
Si Si6 0.097125 0.078114 0.666583
Si Si7 0.094611 0.699020 0.755560
O O1 0.220932 0.235277 0.404653
O O2 0.129667 0.286419 0.531422
O O3 0.235489 0.347443 0.433364
O O4 0.099810 0.304202 0.354648
O O5 0.317076 0.848574 0.670136
O O6 0.344378 0.746558 0.705927
O O7 0.162783 0.447838 0.420301
O O8 0.118449 0.548666 0.356631
O O9 0.107224 0.463995 0.250631
O O10 0.000000 0.472181 0.390366
O O11 0.832951 0.562278 0.910035
O O12 0.759378 0.577418 0.064494
O O13 0.750000 0.935883 0.750000
O O14 0.121455 0.139671 0.703075
O O15 0.000000 0.075950 0.626941
O O16 0.000000 0.715553 0.784458
#
# Coordination Sequence:
#
# PCOD8263240 Si02
#       7
#    16  16  16  16  16  16  16
#     4  10  20  36  61  89 119 160 207 256 306 368
#     4  10  22  38  59  87 123 164 208 249 303 381
#     4  11  24  41  64  97 128 161 213 268 315 375
#     4  11  21  38  68  92 122 170 209 265 319 364
#     4  11  24  41  61  87 127 175 212 250 315 388
#     4  10  21  38  64  98 126 156 207 270 322 366
#     4  11  21  35  59  90 123 158 203 261 315 366
#
# _framework density 20.701823000000001
#
# number of rings (size 3 to 8) (size 9 to 14) (size 15 to 20)
#    0.000    1.429    2.857    3.000    0.000    2.286 
#    0.000    3.571    0.000    3.429    0.000    0.000 
#    0.000    0.000    0.000    0.000    0.000    0.000 
#
# Total GULP energy -694110.344911 kJ/mol
# GULP energy per Si atom -12394.827588 kJ/mol
# Density = 2.065470 g / cm^3
# Si number density = 20.701823 Si / 1000 Ang^3
#
#
#
# Elastic Constant Matrix: (Units=GPa)
#
#
# Indices 1 2 3 4 5 6 
#
# 1 83.0082 40.7457 48.4555 0.0000 0.0000 0.0000
# 2 40.7457 112.6534 18.5290 0.0000 0.0000 0.0000
# 3 48.4555 18.5290 130.7049 0.0000 0.0000 0.0000
# 4 0.0000 0.0000 0.0000 22.8537 0.0000 0.0000
# 5 0.0000 0.0000 0.0000 0.0000 2.6844 0.0000
# 6 0.0000 0.0000 0.0000 0.0000 0.0000 19.5530
#
#
#
# Elastic Compliance Matrix: (Units=1/GPa)
#
#
# Indices 1 2 3 4 5 6 
#
# 1 0.018310 -0.005638 -0.005989 0.000000 0.000000 0.000000
# 2 -0.005638 0.010824 0.000555 0.000000 0.000000 0.000000
# 3 -0.005989 0.000555 0.009792 0.000000 0.000000 0.000000
# 4 0.000000 0.000000 0.000000 0.043757 0.000000 0.000000
# 5 0.000000 0.000000 0.000000 0.000000 0.372526 0.000000
# 6 0.000000 0.000000 0.000000 0.000000 0.000000 0.051143
#
#
# Mechanical properties :
#
#
# Convention : Reuss Voigt Hill
#
# Bulk Modulus (GPa) = 59.57668 60.20298 59.88983
# Shear Modulus (GPa) = 9.36172 23.59397 16.47785
#
# Velocity S-wave (km/s) = 2.12885 3.37961 2.82434
# Velocity P-wave (km/s) = 5.90623 6.66132 6.29511
#
# Compressibility (1/GPa) = 0.01678509
#
# Stress axis : x y z
#
# Youngs Moduli (GPa) = 54.61418 92.38310 102.12113
#
# Poissons Ratio (x) = 0.52082 0.61159
# Poissons Ratio (y) = 0.30789 -0.05673
# Poissons Ratio (z) = 0.32708 -0.05132
#
# Static dielectric constant tensor:
#      x y z
#    x 3.453120 0.000000 0.000000 
#    y 0.000000 3.863910 0.000000 
#    z 0.000000 0.000000 4.016000 
# 
# 
# High freq. dielectric constant tensor:
#      x y z
#    x 1.775090 0.000000 0.000000 
#    y 0.000000 1.819790 0.000000 
#    z 0.000000 0.000000 1.824720 
# 
# From -- ./inp_files/24224.got.cif
#   From: 2010.03.12/outbox.cif.g09.slc.cpg/sg64_13_cif.got.tgz:24224.got - 2010.04.10 20:19:32.
