data_PCOD8263784
_publ_section_title
;
Structure prediction by ZEFSAII (Michael W. Deem and Ramdas Pophale) SiO2 
 PCOD8263784
Probable space group: C M C A
;
_chemical_formula_sum "Si O2"
_cell_formula_units_Z 96
_cell_length_a 14.153208
_cell_length_b 19.687122
_cell_length_c 18.015349
_cell_angle_alpha 90.000000
_cell_angle_beta 90.000000
_cell_angle_gamma 90.000000
_cell_volume 5019.723570
_symmetry_space_group_name_H-M "C M C A"
_symmetry_group_IT_number 64
_symmetry_cell_setting 'orthorhombic'
loop_
_space_group_symop_operation_xyz
x,y,z
-x,1/2-y,1/2+z
x,-y,-z
-x,1/2+y,1/2-z
-x,-y,-z
x,1/2+y,1/2-z
-x,y,z
x,1/2-y,1/2+z
1/2+x,1/2+y,z
1/2-x,-y,1/2+z
1/2+x,1/2-y,-z
1/2-x,y,1/2-z
1/2-x,1/2-y,-z
1/2+x,y,1/2-z
1/2-x,1/2+y,z
1/2+x,-y,1/2+z
loop_
_atom_site_type_symbol
_atom_site_label
_atom_site_fract_x
_atom_site_fract_y
_atom_site_fract_z
Si Si1 0.500000 0.528038 0.823856
Si Si2 0.500000 0.085827 0.213860
Si Si3 0.208119 0.588256 0.168979
Si Si4 0.177664 0.325814 0.432828
Si Si5 0.000000 0.685375 0.666118
Si Si6 0.000000 0.783947 0.806204
Si Si7 0.819823 0.791040 0.903740
Si Si8 0.683346 0.480141 0.083620
O O1 0.500000 0.490612 0.745004
O O2 0.500000 0.607815 0.806610
O O3 0.590254 0.503622 0.869664
O O4 0.594781 0.097262 0.166143
O O5 0.500000 0.137672 0.282568
O O6 0.250000 0.572304 0.250000
O O7 0.252165 0.657873 0.139907
O O8 0.231236 0.524947 0.115687
O O9 0.091254 0.299394 0.383538
O O10 0.146582 0.324938 0.519161
O O11 0.267285 0.278965 0.419659
O O12 0.209887 0.401157 0.409942
O O13 0.000000 0.734820 0.735760
O O14 0.908339 0.769769 0.854732
O O15 0.661256 0.500000 0.000000
#
# Coordination Sequence:
#
# PCOD8263784 Si02
#       8
#     8   8  16  16   8   8  16  16
#     4  10  21  37  61  94 121 159 210 266 306 366
#     4  12  24  38  61  98 124 162 205 257 310 374
#     4  12  23  41  65  95 128 165 209 260 315 376
#     4  10  23  41  62  91 126 168 210 264 314 376
#     4  10  23  38  60  94 128 159 204 268 319 370
#     4  12  23  39  65  95 123 167 215 263 319 378
#     4  11  23  41  65  90 124 170 216 256 316 380
#     4  11  21  40  65  91 125 165 214 260 314 370
#
# _framework density 19.124558
#
# number of rings (size 3 to 8) (size 9 to 14) (size 15 to 20)
#    0.000    1.000    5.000    1.750    0.000    1.333 
#    0.000    1.250    0.000    0.000    0.000    0.000 
#    0.000    0.000    0.000    0.000    0.000    0.000 
#
# Total GULP energy -595448.130249 kJ/mol
# GULP energy per Si atom -12405.169380 kJ/mol
# Density = 1.908103 g / cm^3
# Si number density = 19.124558 Si / 1000 Ang^3
#
#
#
# Elastic Constant Matrix: (Units=GPa)
#
#
# Indices 1 2 3 4 5 6 
#
# 1 132.6301 35.4011 47.1642 0.0000 0.0000 0.0000
# 2 35.4011 76.7489 32.1782 0.0000 0.0000 0.0000
# 3 47.1642 32.1782 89.7003 0.0000 0.0000 0.0000
# 4 0.0000 0.0000 0.0000 36.0574 0.0000 0.0000
# 5 0.0000 0.0000 0.0000 0.0000 68.8874 0.0000
# 6 0.0000 0.0000 0.0000 0.0000 0.0000 52.1808
#
#
#
# Elastic Compliance Matrix: (Units=1/GPa)
#
#
# Indices 1 2 3 4 5 6 
#
# 1 0.009747 -0.002763 -0.004134 0.000000 0.000000 0.000000
# 2 -0.002763 0.016119 -0.004330 0.000000 0.000000 0.000000
# 3 -0.004134 -0.004330 0.014875 0.000000 0.000000 0.000000
# 4 0.000000 0.000000 0.000000 0.027734 0.000000 0.000000
# 5 0.000000 0.000000 0.000000 0.000000 0.014516 0.000000
# 6 0.000000 0.000000 0.000000 0.000000 0.000000 0.019164
#
#
# Mechanical properties :
#
#
# Convention : Reuss Voigt Hill
#
# Bulk Modulus (GPa) = 54.67930 58.72960 56.70445
# Shear Modulus (GPa) = 38.25407 43.71416 40.98412
#
# Velocity S-wave (km/s) = 4.47728 4.78615 4.63429
# Velocity P-wave (km/s) = 7.44186 7.83062 7.63871
#
# Compressibility (1/GPa) = 0.01828846
#
# Stress axis : x y z
#
# Youngs Moduli (GPa) = 102.59272 62.03783 67.22639
#
# Poissons Ratio (x) = 0.17140 0.27791
# Poissons Ratio (y) = 0.28344 0.29108
# Poissons Ratio (z) = 0.42412 0.26861
#
# Static dielectric constant tensor:
#      x y z
#    x 3.503080 0.000000 0.000000 
#    y 0.000000 3.552780 0.000000 
#    z 0.000000 0.000000 3.597920 
# 
# 
# High freq. dielectric constant tensor:
#      x y z
#    x 1.744850 0.000000 0.000000 
#    y 0.000000 1.756310 0.000000 
#    z 0.000000 0.000000 1.746170 
# 
# From -- ./inp_files/24022.got.cif
#   From: 2010.03.12/outbox.cif.g09.slc.cpg/sg64_13_cif.got.tgz:24022.got - 2010.04.10 20:19:32.
