data_PCOD8263557
_publ_section_title
;
Structure prediction by ZEFSAII (Michael W. Deem and Ramdas Pophale) SiO2 
 PCOD8263557
Probable space group: C M C A
;
_chemical_formula_sum "Si O2"
_cell_formula_units_Z 96
_cell_length_a 14.554470
_cell_length_b 20.306817
_cell_length_c 14.447571
_cell_angle_alpha 90.000000
_cell_angle_beta 90.000000
_cell_angle_gamma 90.000000
_cell_volume 4270.051252
_symmetry_space_group_name_H-M "C M C A"
_symmetry_group_IT_number 64
_symmetry_cell_setting 'orthorhombic'
loop_
_space_group_symop_operation_xyz
x,y,z
-x,1/2-y,1/2+z
x,-y,-z
-x,1/2+y,1/2-z
-x,-y,-z
x,1/2+y,1/2-z
-x,y,z
x,1/2-y,1/2+z
1/2+x,1/2+y,z
1/2-x,-y,1/2+z
1/2+x,1/2-y,-z
1/2-x,y,1/2-z
1/2-x,1/2-y,-z
1/2+x,y,1/2-z
1/2-x,1/2+y,z
1/2+x,-y,1/2+z
loop_
_atom_site_type_symbol
_atom_site_label
_atom_site_fract_x
_atom_site_fract_y
_atom_site_fract_z
Si Si1 0.603682 0.435660 0.176128
Si Si2 0.608979 0.413610 0.826593
Si Si3 0.100641 0.310183 0.817429
Si Si4 0.851405 0.685028 0.785700
Si Si5 0.282278 0.923524 0.494939
Si Si6 0.892293 0.344911 0.014817
O O1 0.500000 0.435409 0.137785
O O2 0.631519 0.510622 0.201907
O O3 0.612870 0.389257 0.266389
O O4 0.669300 0.400848 0.100470
O O5 0.500000 0.403494 0.844594
O O6 0.650039 0.365573 0.746460
O O7 0.664750 0.391554 0.918152
O O8 0.091279 0.239612 0.769047
O O9 0.000000 0.340349 0.829428
O O10 0.137416 0.303654 0.922930
O O11 0.750000 0.697355 0.750000
O O12 0.864570 0.697903 0.895197
O O13 0.173706 0.908834 0.489559
O O14 0.299537 0.000000 0.500000
O O15 0.000000 0.364934 0.018905
#
# Coordination Sequence:
#
# PCOD8263557 Si02
#       6
#    16  16  16  16  16  16
#     4  10  20  40  67  96 130 171 218 270 320 378
#     4   9  20  40  67  97 131 172 221 269 319 377
#     4  10  24  44  65  95 130 171 215 265 328 389
#     4  12  25  43  68  96 128 172 217 265 324 388
#     4  10  21  38  64  99 132 171 218 269 319 380
#     4  11  25  44  63  91 130 169 215 266 324 391
#
# _framework density 22.482164999999998
#
# number of rings (size 3 to 8) (size 9 to 14) (size 15 to 20)
#    0.000    1.667    1.667    2.000    2.333    5.667 
#    0.000    3.333    0.000    0.000    0.000    0.000 
#    0.000    0.000    0.000    0.000    0.000    0.000 
#
# Total GULP energy -594863.879065 kJ/mol
# GULP energy per Si atom -12392.997481 kJ/mol
# Density = 2.243099 g / cm^3
# Si number density = 22.482165 Si / 1000 Ang^3
#
#
#
# Elastic Constant Matrix: (Units=GPa)
#
#
# Indices 1 2 3 4 5 6 
#
# 1 109.7456 10.2787 42.5276 0.0000 0.0000 0.0000
# 2 10.2787 86.3841 56.1061 0.0000 0.0000 0.0000
# 3 42.5276 56.1061 187.3825 0.0000 0.0000 0.0000
# 4 0.0000 0.0000 0.0000 31.8397 0.0000 0.0000
# 5 0.0000 0.0000 0.0000 0.0000 21.8335 0.0000
# 6 0.0000 0.0000 0.0000 0.0000 0.0000 22.5434
#
#
#
# Elastic Compliance Matrix: (Units=1/GPa)
#
#
# Indices 1 2 3 4 5 6 
#
# 1 0.009999 0.000353 -0.002375 0.000000 0.000000 0.000000
# 2 0.000353 0.014383 -0.004387 0.000000 0.000000 0.000000
# 3 -0.002375 -0.004387 0.007189 0.000000 0.000000 0.000000
# 4 0.000000 0.000000 0.000000 0.031407 0.000000 0.000000
# 5 0.000000 0.000000 0.000000 0.000000 0.045801 0.000000
# 6 0.000000 0.000000 0.000000 0.000000 0.000000 0.044359
#
#
# Mechanical properties :
#
#
# Convention : Reuss Voigt Hill
#
# Bulk Modulus (GPa) = 53.32230 66.81523 60.06876
# Shear Modulus (GPa) = 29.03454 33.54995 31.29224
#
# Velocity S-wave (km/s) = 3.59757 3.86721 3.73482
# Velocity P-wave (km/s) = 6.40514 7.05154 6.73609
#
# Compressibility (1/GPa) = 0.01875388
#
# Stress axis : x y z
#
# Youngs Moduli (GPa) = 100.00708 69.52457 139.09782
#
# Poissons Ratio (x) = -0.02453 0.33036
# Poissons Ratio (y) = -0.03528 0.61019
# Poissons Ratio (z) = 0.23752 0.30499
#
# Static dielectric constant tensor:
#      x y z
#    x 4.047140 0.000000 0.000000 
#    y 0.000000 3.754650 0.000000 
#    z 0.000000 0.000000 4.489310 
# 
# 
# High freq. dielectric constant tensor:
#      x y z
#    x 1.893050 0.000000 0.000000 
#    y 0.000000 1.861530 0.000000 
#    z 0.000000 0.000000 1.897140 
# 
# From -- ./inp_files/23871.got.cif
#   From: 2010.03.12/outbox.cif.g09.slc.cpg/sg64_12_cif.got.tgz:23871.got - 2010.04.10 20:19:32.
