data_PCOD8263701
_publ_section_title
;
Structure prediction by ZEFSAII (Michael W. Deem and Ramdas Pophale) SiO2 
 PCOD8263701
Probable space group: C M C A
;
_chemical_formula_sum "Si O2"
_cell_formula_units_Z 80
_cell_length_a 24.103590
_cell_length_b 32.561698
_cell_length_c 4.925158
_cell_angle_alpha 90.000000
_cell_angle_beta 90.000000
_cell_angle_gamma 90.000000
_cell_volume 3865.529062
_symmetry_space_group_name_H-M "C M C A"
_symmetry_group_IT_number 64
_symmetry_cell_setting 'orthorhombic'
loop_
_space_group_symop_operation_xyz
x,y,z
-x,1/2-y,1/2+z
x,-y,-z
-x,1/2+y,1/2-z
-x,-y,-z
x,1/2+y,1/2-z
-x,y,z
x,1/2-y,1/2+z
1/2+x,1/2+y,z
1/2-x,-y,1/2+z
1/2+x,1/2-y,-z
1/2-x,y,1/2-z
1/2-x,1/2-y,-z
1/2+x,y,1/2-z
1/2-x,1/2+y,z
1/2+x,-y,1/2+z
loop_
_atom_site_type_symbol
_atom_site_label
_atom_site_fract_x
_atom_site_fract_y
_atom_site_fract_z
Si Si1 0.886690 0.473112 0.265012
Si Si2 0.627718 0.358171 0.872962
Si Si3 0.187284 0.277211 0.778654
Si Si4 0.786334 0.424910 0.502942
Si Si5 0.935871 0.887194 0.367280
O O1 0.916712 0.500000 0.500000
O O2 0.828330 0.458988 0.392585
O O3 0.925942 0.435072 0.194713
O O4 0.874925 0.500000 0.000000
O O5 0.643157 0.312337 0.787460
O O6 0.582789 0.377729 0.671607
O O7 0.682765 0.385644 0.871542
O O8 0.599882 0.358187 0.169252
O O9 0.177374 0.238164 0.583897
O O10 0.250000 0.294231 0.750000
O O11 0.750000 0.409369 0.250000
O O12 0.750000 0.443819 0.750000
O O13 0.000000 0.876618 0.333685
#
# Coordination Sequence:
#
# PCOD8263701 Si02
#       5
#    16  16  16  16  16
#     4  11  23  39  57  84 116 148 194 247 297 349
#     4  11  22  40  63  87 120 153 196 246 283 346
#     4  10  21  36  60  94 126 156 186 224 283 345
#     4  11  22  37  58  84 117 159 194 228 285 353
#     4  11  24  42  64  85 109 153 204 250 300 342
#
# _framework density 20.695744000000001
#
# number of rings (size 3 to 8) (size 9 to 14) (size 15 to 20)
#    0.000    1.200    0.000    8.400    0.000    4.800 
#    0.000    2.000    0.000   12.000    0.000    0.000 
#    0.000    0.000    0.000    0.000    0.000    0.000 
#
# Total GULP energy -496201.894964 kJ/mol
# GULP energy per Si atom -12405.047374 kJ/mol
# Density = 2.064864 g / cm^3
# Si number density = 20.695744 Si / 1000 Ang^3
#
#
#
# Elastic Constant Matrix: (Units=GPa)
#
#
# Indices 1 2 3 4 5 6 
#
# 1 78.4619 26.8096 16.2652 0.0000 0.0000 0.0000
# 2 26.8096 83.5288 10.9043 0.0000 0.0000 0.0000
# 3 16.2652 10.9043 98.6549 0.0000 0.0000 0.0000
# 4 0.0000 0.0000 0.0000 27.5353 0.0000 0.0000
# 5 0.0000 0.0000 0.0000 0.0000 28.9593 0.0000
# 6 0.0000 0.0000 0.0000 0.0000 0.0000 11.2160
#
#
#
# Elastic Compliance Matrix: (Units=1/GPa)
#
#
# Indices 1 2 3 4 5 6 
#
# 1 0.014667 -0.004456 -0.001926 0.000000 0.000000 0.000000
# 2 -0.004456 0.013501 -0.000758 0.000000 0.000000 0.000000
# 3 -0.001926 -0.000758 0.010538 0.000000 0.000000 0.000000
# 4 0.000000 0.000000 0.000000 0.036317 0.000000 0.000000
# 5 0.000000 0.000000 0.000000 0.000000 0.034531 0.000000
# 6 0.000000 0.000000 0.000000 0.000000 0.000000 0.089159
#
#
# Mechanical properties :
#
#
# Convention : Reuss Voigt Hill
#
# Bulk Modulus (GPa) = 40.93853 40.95596 40.94724
# Shear Modulus (GPa) = 22.61083 27.31990 24.96537
#
# Velocity S-wave (km/s) = 3.30894 3.63722 3.47696
# Velocity P-wave (km/s) = 5.86710 6.12141 5.99560
#
# Compressibility (1/GPa) = 0.02442687
#
# Stress axis : x y z
#
# Youngs Moduli (GPa) = 68.18110 74.06825 94.89869
#
# Poissons Ratio (x) = 0.33006 0.18273
# Poissons Ratio (y) = 0.30382 0.07189
# Poissons Ratio (z) = 0.13129 0.05611
#
# Static dielectric constant tensor:
#      x y z
#    x 3.519910 0.000000 0.000000 
#    y 0.000000 3.518100 0.000000 
#    z 0.000000 0.000000 4.045890 
# 
# 
# High freq. dielectric constant tensor:
#      x y z
#    x 1.791760 0.000000 0.000000 
#    y 0.000000 1.797680 0.000000 
#    z 0.000000 0.000000 1.836780 
# 
# From -- ./inp_files/2342.got.cif
#   From: 2010.03.12/outbox.cif.g09.slc.cpg/sg64_2_cif.got.tgz:2342.got - 2010.04.10 20:19:32.
