data_PCOD8263028
_publ_section_title
;
Structure prediction by ZEFSAII (Michael W. Deem and Ramdas Pophale) SiO2 
 PCOD8263028
Probable space group: C M C A
;
_chemical_formula_sum "Si O2"
_cell_formula_units_Z 112
_cell_length_a 17.177322
_cell_length_b 16.769843
_cell_length_c 19.290571
_cell_angle_alpha 90.000000
_cell_angle_beta 90.000000
_cell_angle_gamma 90.000000
_cell_volume 5556.861040
_symmetry_space_group_name_H-M "C M C A"
_symmetry_group_IT_number 64
_symmetry_cell_setting 'orthorhombic'
loop_
_space_group_symop_operation_xyz
x,y,z
-x,1/2-y,1/2+z
x,-y,-z
-x,1/2+y,1/2-z
-x,-y,-z
x,1/2+y,1/2-z
-x,y,z
x,1/2-y,1/2+z
1/2+x,1/2+y,z
1/2-x,-y,1/2+z
1/2+x,1/2-y,-z
1/2-x,y,1/2-z
1/2-x,1/2-y,-z
1/2+x,y,1/2-z
1/2-x,1/2+y,z
1/2+x,-y,1/2+z
loop_
_atom_site_type_symbol
_atom_site_label
_atom_site_fract_x
_atom_site_fract_y
_atom_site_fract_z
Si Si1 0.798568 0.281973 0.870339
Si Si2 0.365725 0.547897 0.882113
Si Si3 0.275919 0.376934 0.327153
Si Si4 0.588021 0.193100 0.530397
Si Si5 0.587743 0.459789 0.272466
Si Si6 0.409184 0.642211 0.260938
Si Si7 0.352261 0.134493 0.390493
O O1 0.736854 0.214908 0.846121
O O2 0.851619 0.254532 0.934509
O O3 0.856541 0.300470 0.807501
O O4 0.742258 0.355643 0.890389
O O5 0.274052 0.569078 0.879902
O O6 0.407790 0.604914 0.936869
O O7 0.403663 0.566963 0.807415
O O8 0.374975 0.457020 0.905542
O O9 0.250000 0.398287 0.250000
O O10 0.365743 0.404671 0.327678
O O11 0.500000 0.225714 0.538037
O O12 0.610152 0.188802 0.449797
O O13 0.500000 0.449117 0.296348
O O14 0.614288 0.551677 0.278820
O O15 0.500000 0.659000 0.275429
O O16 0.389924 0.661918 0.181616
#
# Coordination Sequence:
#
# PCOD8263028 Si02
#       7
#    16  16  16  16  16  16  16
#     4  11  22  37  55  79 111 149 182 215 268 330
#     4   9  19  33  53  77 106 143 180 221 269 322
#     4   9  17  31  49  74 105 139 177 214 259 315
#     4  11  23  38  56  79 110 145 181 224 273 324
#     4   9  17  31  53  80 107 137 177 225 272 317
#     4  10  20  35  57  83 109 138 178 227 273 317
#     4  11  21  36  56  81 109 141 183 226 269 319
#
# _framework density 20.155263000000001
#
# number of rings (size 3 to 8) (size 9 to 14) (size 15 to 20)
#    0.000    2.000    0.000    4.286    0.000    4.571 
#    0.000    6.429    0.000    0.000    0.000    0.000 
#    0.000   14.857    0.000    0.000    0.000    0.000 
#
# Total GULP energy -694346.127618 kJ/mol
# GULP energy per Si atom -12399.037993 kJ/mol
# Density = 2.010939 g / cm^3
# Si number density = 20.155263 Si / 1000 Ang^3
#
#
#
# Elastic Constant Matrix: (Units=GPa)
#
#
# Indices 1 2 3 4 5 6 
#
# 1 116.3567 28.4375 29.5560 0.0000 0.0000 0.0000
# 2 28.4375 46.1610 16.0913 0.0000 0.0000 0.0000
# 3 29.5560 16.0913 59.5689 0.0000 0.0000 0.0000
# 4 0.0000 0.0000 0.0000 22.2930 0.0000 0.0000
# 5 0.0000 0.0000 0.0000 0.0000 25.3231 0.0000
# 6 0.0000 0.0000 0.0000 0.0000 0.0000 30.9244
#
#
#
# Elastic Compliance Matrix: (Units=1/GPa)
#
#
# Indices 1 2 3 4 5 6 
#
# 1 0.010907 -0.005335 -0.003970 0.000000 0.000000 0.000000
# 2 -0.005335 0.026525 -0.004518 0.000000 0.000000 0.000000
# 3 -0.003970 -0.004518 0.019978 0.000000 0.000000 0.000000
# 4 0.000000 0.000000 0.000000 0.044857 0.000000 0.000000
# 5 0.000000 0.000000 0.000000 0.000000 0.039490 0.000000
# 6 0.000000 0.000000 0.000000 0.000000 0.000000 0.032337
#
#
# Mechanical properties :
#
#
# Convention : Reuss Voigt Hill
#
# Bulk Modulus (GPa) = 33.59954 41.13959 37.36956
# Shear Modulus (GPa) = 23.62272 25.57490 24.59881
#
# Velocity S-wave (km/s) = 3.42722 3.56602 3.49731
# Velocity P-wave (km/s) = 5.68926 6.11645 5.90672
#
# Compressibility (1/GPa) = 0.02976231
#
# Stress axis : x y z
#
# Youngs Moduli (GPa) = 91.68717 37.70041 50.05579
#
# Poissons Ratio (x) = 0.20113 0.19874
# Poissons Ratio (y) = 0.48915 0.22616
# Poissons Ratio (z) = 0.36403 0.17033
#
# Static dielectric constant tensor:
#      x y z
#    x 3.845980 0.000000 0.000000 
#    y 0.000000 3.572040 0.000000 
#    z 0.000000 0.000000 3.451820 
# 
# 
# High freq. dielectric constant tensor:
#      x y z
#    x 1.794870 0.000000 0.000000 
#    y 0.000000 1.776750 0.000000 
#    z 0.000000 0.000000 1.767400 
# 
# From -- ./inp_files/40382.got.cif
#   From: 2010.03.12/outbox.cif.g09.slc.cpg/sg64_21_cif.got.tgz:40382.got - 2010.04.10 20:19:32.
