data_PCOD8264191
_publ_section_title
;
Structure prediction by ZEFSAII (Michael W. Deem and Ramdas Pophale) SiO2 
 PCOD8264191
Probable space group: C M C A
;
_chemical_formula_sum "Si O2"
_cell_formula_units_Z 88
_cell_length_a 15.851253
_cell_length_b 22.325638
_cell_length_c 11.737216
_cell_angle_alpha 90.000000
_cell_angle_beta 90.000000
_cell_angle_gamma 90.000000
_cell_volume 4153.675581
_symmetry_space_group_name_H-M "C M C A"
_symmetry_group_IT_number 64
_symmetry_cell_setting 'orthorhombic'
loop_
_space_group_symop_operation_xyz
x,y,z
-x,1/2-y,1/2+z
x,-y,-z
-x,1/2+y,1/2-z
-x,-y,-z
x,1/2+y,1/2-z
-x,y,z
x,1/2-y,1/2+z
1/2+x,1/2+y,z
1/2-x,-y,1/2+z
1/2+x,1/2-y,-z
1/2-x,y,1/2-z
1/2-x,1/2-y,-z
1/2+x,y,1/2-z
1/2-x,1/2+y,z
1/2+x,-y,1/2+z
loop_
_atom_site_type_symbol
_atom_site_label
_atom_site_fract_x
_atom_site_fract_y
_atom_site_fract_z
Si Si1 0.649644 0.435705 0.260315
Si Si2 0.095175 0.682379 0.354669
Si Si3 0.593844 0.935253 0.776642
Si Si4 0.666986 0.844222 0.417325
Si Si5 0.195690 0.068477 0.499510
Si Si6 0.250000 0.745260 0.750000
O O1 0.750000 0.435036 0.250000
O O2 0.615282 0.500138 0.222475
O O3 0.614634 0.383132 0.177326
O O4 0.629944 0.422758 0.393967
O O5 0.103574 0.612562 0.323355
O O6 0.105729 0.687727 0.491726
O O7 0.167165 0.717534 0.285572
O O8 0.000000 0.705890 0.324259
O O9 0.500000 0.937389 0.826107
O O10 0.652158 0.915826 0.881149
O O11 0.725665 0.887775 0.491388
O O12 0.724886 0.794708 0.357666
O O13 0.228035 0.000000 0.500000
#
# Coordination Sequence:
#
# PCOD8264191 Si02
#       6
#    16  16  16  16  16   8
#     4   9  19  35  61  94 126 160 214 264 322 395
#     4  11  27  43  64  99 131 173 228 278 331 392
#     4  10  22  38  58  92 133 170 208 264 332 389
#     4  11  22  42  68  97 123 168 221 275 337 394
#     4   9  18  34  62  94 125 163 215 261 317 401
#     4  12  24  48  72  90 128 184 232 268 332 396
#
# _framework density 21.186053000000001
#
# number of rings (size 3 to 8) (size 9 to 14) (size 15 to 20)
#    0.000    1.818    2.727    1.636    8.909    4.727 
#    0.000    4.545    0.000    0.000    0.000    0.000 
#    0.000    0.000    0.000    0.000    0.000    0.000 
#
# Total GULP energy -545399.230784 kJ/mol
# GULP energy per Si atom -12395.437063 kJ/mol
# Density = 2.113783 g / cm^3
# Si number density = 21.186053 Si / 1000 Ang^3
#
#
#
# Elastic Constant Matrix: (Units=GPa)
#
#
# Indices 1 2 3 4 5 6 
#
# 1 93.5062 43.8390 39.1970 0.0000 0.0000 0.0000
# 2 43.8390 78.2373 24.2869 0.0000 0.0000 0.0000
# 3 39.1970 24.2869 97.6203 0.0000 0.0000 0.0000
# 4 0.0000 0.0000 0.0000 29.8368 0.0000 0.0000
# 5 0.0000 0.0000 0.0000 0.0000 20.2672 0.0000
# 6 0.0000 0.0000 0.0000 0.0000 0.0000 21.8839
#
#
#
# Elastic Compliance Matrix: (Units=1/GPa)
#
#
# Indices 1 2 3 4 5 6 
#
# 1 0.016215 -0.007656 -0.004606 0.000000 0.000000 0.000000
# 2 -0.007656 0.017466 -0.001271 0.000000 0.000000 0.000000
# 3 -0.004606 -0.001271 0.012409 0.000000 0.000000 0.000000
# 4 0.000000 0.000000 0.000000 0.033516 0.000000 0.000000
# 5 0.000000 0.000000 0.000000 0.000000 0.049341 0.000000
# 6 0.000000 0.000000 0.000000 0.000000 0.000000 0.045696
#
#
# Mechanical properties :
#
#
# Convention : Reuss Voigt Hill
#
# Bulk Modulus (GPa) = 52.56515 53.77885 53.17200
# Shear Modulus (GPa) = 24.03272 25.20029 24.61650
#
# Velocity S-wave (km/s) = 3.37169 3.45262 3.41239
# Velocity P-wave (km/s) = 6.32636 6.42910 6.37793
#
# Compressibility (1/GPa) = 0.01902401
#
# Stress axis : x y z
#
# Youngs Moduli (GPa) = 61.67317 57.25380 80.58376
#
# Poissons Ratio (x) = 0.43832 0.37116
# Poissons Ratio (y) = 0.47215 0.10245
# Poissons Ratio (z) = 0.28406 0.07279
#
# Static dielectric constant tensor:
#      x y z
#    x 3.654010 0.000000 0.000000 
#    y 0.000000 3.926150 0.000000 
#    z 0.000000 0.000000 4.377230 
# 
# 
# High freq. dielectric constant tensor:
#      x y z
#    x 1.805360 0.000000 0.000000 
#    y 0.000000 1.826270 0.000000 
#    z 0.000000 0.000000 1.843980 
# 
# From -- ./inp_files/16045.got.cif
#   From: 2010.03.12/outbox.cif.g09.slc.cpg/sg64_9_cif.got.tgz:16045.got - 2010.04.10 20:19:32.
