data_PCOD8264529
_publ_section_title
;
Structure prediction by ZEFSAII (Michael W. Deem and Ramdas Pophale) SiO2 
 PCOD8264529
Probable space group: C M C A
;
_chemical_formula_sum "Si O2"
_cell_formula_units_Z 40
_cell_length_a 9.225779
_cell_length_b 15.788268
_cell_length_c 11.921635
_cell_angle_alpha 90.000000
_cell_angle_beta 90.000000
_cell_angle_gamma 90.000000
_cell_volume 1736.494283
_symmetry_space_group_name_H-M "C M C A"
_symmetry_group_IT_number 64
_symmetry_cell_setting 'orthorhombic'
loop_
_space_group_symop_operation_xyz
x,y,z
-x,1/2-y,1/2+z
x,-y,-z
-x,1/2+y,1/2-z
-x,-y,-z
x,1/2+y,1/2-z
-x,y,z
x,1/2-y,1/2+z
1/2+x,1/2+y,z
1/2-x,-y,1/2+z
1/2+x,1/2-y,-z
1/2-x,y,1/2-z
1/2-x,1/2-y,-z
1/2+x,y,1/2-z
1/2-x,1/2+y,z
1/2+x,-y,1/2+z
loop_
_atom_site_type_symbol
_atom_site_label
_atom_site_fract_x
_atom_site_fract_y
_atom_site_fract_z
Si Si1 0.338696 0.924543 0.351182
Si Si2 0.665577 0.664917 0.471198
Si Si3 0.750000 0.087128 0.250000
O O1 0.500000 0.885400 0.363985
O O2 0.250000 0.878172 0.250000
O O3 0.245984 0.911470 0.463983
O O4 0.355509 0.024735 0.321765
O O5 0.500000 0.671919 0.512147
O O6 0.750000 0.750000 0.500000
O O7 0.665693 0.646612 0.337927
#
# Coordination Sequence:
#
# PCOD8264529 Si02
#       3
#    16  16   8
#     4  10  23  44  71 101 136 177 228 282 340 409
#     4  12  27  46  70 103 142 183 231 285 346 409
#     4  10  26  44  74  96 138 182 236 278 346 408
#
# _framework density 23.034915999999999
#
# number of rings (size 3 to 8) (size 9 to 14) (size 15 to 20)
#    1.200    0.000    0.000    4.800    2.800    9.600 
#    0.000    0.000    0.000    0.000    0.000    0.000 
#    0.000    0.000    0.000    0.000    0.000    0.000 
#
# Total GULP energy -247816.495422 kJ/mol
# GULP energy per Si atom -12390.824771 kJ/mol
# Density = 2.298249 g / cm^3
# Si number density = 23.034916 Si / 1000 Ang^3
#
#
#
# Elastic Constant Matrix: (Units=GPa)
#
#
# Indices 1 2 3 4 5 6 
#
# 1 220.5291 43.6178 64.8241 0.0000 0.0000 0.0000
# 2 43.6178 105.6331 55.9539 0.0000 0.0000 0.0000
# 3 64.8241 55.9539 144.2277 0.0000 0.0000 0.0000
# 4 0.0000 0.0000 0.0000 36.9431 0.0000 0.0000
# 5 0.0000 0.0000 0.0000 0.0000 35.9549 0.0000
# 6 0.0000 0.0000 0.0000 0.0000 0.0000 20.5681
#
#
#
# Elastic Compliance Matrix: (Units=1/GPa)
#
#
# Indices 1 2 3 4 5 6 
#
# 1 0.005338 -0.001175 -0.001944 0.000000 0.000000 0.000000
# 2 -0.001175 0.012174 -0.004195 0.000000 0.000000 0.000000
# 3 -0.001944 -0.004195 0.009434 0.000000 0.000000 0.000000
# 4 0.000000 0.000000 0.000000 0.027069 0.000000 0.000000
# 5 0.000000 0.000000 0.000000 0.000000 0.027813 0.000000
# 6 0.000000 0.000000 0.000000 0.000000 0.000000 0.048619
#
#
# Mechanical properties :
#
#
# Convention : Reuss Voigt Hill
#
# Bulk Modulus (GPa) = 81.16810 88.79794 84.98302
# Shear Modulus (GPa) = 33.51660 39.09283 36.30472
#
# Velocity S-wave (km/s) = 3.81863 4.12407 3.97429
# Velocity P-wave (km/s) = 7.39973 7.83009 7.61795
#
# Compressibility (1/GPa) = 0.01232011
#
# Stress axis : x y z
#
# Youngs Moduli (GPa) = 187.32910 82.14326 105.99439
#
# Poissons Ratio (x) = 0.09650 0.20600
# Poissons Ratio (y) = 0.22006 0.44464
# Poissons Ratio (z) = 0.36408 0.34458
#
# Static dielectric constant tensor:
#      x y z
#    x 3.938860 0.000000 0.000000 
#    y 0.000000 3.769230 0.000000 
#    z 0.000000 0.000000 4.313480 
# 
# 
# High freq. dielectric constant tensor:
#      x y z
#    x 1.905520 0.000000 0.000000 
#    y 0.000000 1.885530 0.000000 
#    z 0.000000 0.000000 1.920020 
# 
# From -- ./inp_files/11663.got.cif
#   From: 2010.03.12/outbox.cif.g09.slc.cpg/sg64_6_cif.got.tgz:11663.got - 2010.04.10 20:19:32.
