data_PCOD8264093
_publ_section_title
;
Structure prediction by ZEFSAII (Michael W. Deem and Ramdas Pophale) SiO2 
 PCOD8264093
Probable space group: C M C A
;
_chemical_formula_sum "Si O2"
_cell_formula_units_Z 112
_cell_length_a 15.421154
_cell_length_b 22.967462
_cell_length_c 15.328132
_cell_angle_alpha 90.000000
_cell_angle_beta 90.000000
_cell_angle_gamma 90.000000
_cell_volume 5428.990884
_symmetry_space_group_name_H-M "C M C A"
_symmetry_group_IT_number 64
_symmetry_cell_setting 'orthorhombic'
loop_
_space_group_symop_operation_xyz
x,y,z
-x,1/2-y,1/2+z
x,-y,-z
-x,1/2+y,1/2-z
-x,-y,-z
x,1/2+y,1/2-z
-x,y,z
x,1/2-y,1/2+z
1/2+x,1/2+y,z
1/2-x,-y,1/2+z
1/2+x,1/2-y,-z
1/2-x,y,1/2-z
1/2-x,1/2-y,-z
1/2+x,y,1/2-z
1/2-x,1/2+y,z
1/2+x,-y,1/2+z
loop_
_atom_site_type_symbol
_atom_site_label
_atom_site_fract_x
_atom_site_fract_y
_atom_site_fract_z
Si Si1 0.094380 0.924828 0.727845
Si Si2 0.594845 0.317202 0.603594
Si Si3 0.101377 0.238369 0.744902
Si Si4 0.603843 0.845156 0.625534
Si Si5 0.244397 0.318577 0.492342
Si Si6 0.896480 0.482252 0.096379
Si Si7 0.694272 0.126780 0.825995
O O1 0.081017 0.866099 0.674913
O O2 0.136154 0.902687 0.819413
O O3 0.143838 0.973108 0.669234
O O4 0.000000 0.951290 0.750161
O O5 0.500000 0.306459 0.557990
O O6 0.625775 0.259075 0.656245
O O7 0.665121 0.339983 0.535143
O O8 0.132895 0.286391 0.675070
O O9 0.141659 0.176469 0.724136
O O10 0.000000 0.231491 0.737056
O O11 0.500000 0.847246 0.608019
O O12 0.658189 0.845157 0.536462
O O13 0.250000 0.250000 0.500000
O O14 0.241677 0.342462 0.394574
O O15 0.867094 0.418081 0.123366
O O16 0.000000 0.485802 0.095261
O O17 0.861405 0.500000 0.000000
O O18 0.750000 0.094857 0.750000
#
# Coordination Sequence:
#
# PCOD8264093 Si02
#       7
#    16  16  16  16  16  16  16
#     4   8  16  35  62  88 114 148 194 248 306 359
#     4   9  19  35  59  92 121 151 194 242 300 365
#     4   9  18  35  59  86 122 163 194 237 303 365
#     4   9  19  37  60  89 121 156 206 256 298 357
#     4  12  23  36  57  89 121 163 206 248 302 358
#     4  10  21  41  66  89 116 156 208 261 311 368
#     4  12  25  40  55  83 129 162 197 250 311 379
#
# _framework density 20.629985999999999
#
# number of rings (size 3 to 8) (size 9 to 14) (size 15 to 20)
#    0.000    2.143    1.429    3.857    0.000    4.571 
#    5.143    1.429    0.000    0.000    0.000    3.000 
#    0.000    0.000    0.000    0.000    0.000    0.000 
#
# Total GULP energy -693781.366211 kJ/mol
# GULP energy per Si atom -12388.952968 kJ/mol
# Density = 2.058303 g / cm^3
# Si number density = 20.629986 Si / 1000 Ang^3
#
#
#
# Elastic Constant Matrix: (Units=GPa)
#
#
# Indices 1 2 3 4 5 6 
#
# 1 61.1429 15.9224 35.0469 0.0000 0.0000 0.0000
# 2 15.9224 96.4315 39.8940 0.0000 0.0000 0.0000
# 3 35.0469 39.8940 103.0637 0.0000 0.0000 0.0000
# 4 0.0000 0.0000 0.0000 34.4402 0.0000 0.0000
# 5 0.0000 0.0000 0.0000 0.0000 18.1862 0.0000
# 6 0.0000 0.0000 0.0000 0.0000 0.0000 21.7592
#
#
#
# Elastic Compliance Matrix: (Units=1/GPa)
#
#
# Indices 1 2 3 4 5 6 
#
# 1 0.020343 -0.000592 -0.006689 0.000000 0.000000 0.000000
# 2 -0.000592 0.012365 -0.004585 0.000000 0.000000 0.000000
# 3 -0.006689 -0.004585 0.013752 0.000000 0.000000 0.000000
# 4 0.000000 0.000000 0.000000 0.029036 0.000000 0.000000
# 5 0.000000 0.000000 0.000000 0.000000 0.054987 0.000000
# 6 0.000000 0.000000 0.000000 0.000000 0.000000 0.045958
#
#
# Mechanical properties :
#
#
# Convention : Reuss Voigt Hill
#
# Bulk Modulus (GPa) = 43.99666 49.15162 46.57414
# Shear Modulus (GPa) = 24.06776 26.19542 25.13159
#
# Velocity S-wave (km/s) = 3.41932 3.56725 3.49407
# Velocity P-wave (km/s) = 6.07962 6.39094 6.23722
#
# Compressibility (1/GPa) = 0.02272900
#
# Stress axis : x y z
#
# Youngs Moduli (GPa) = 49.15657 80.87645 72.71725
#
# Poissons Ratio (x) = 0.04787 0.48638
# Poissons Ratio (y) = 0.02910 0.33339
# Poissons Ratio (z) = 0.32879 0.37080
#
# Static dielectric constant tensor:
#      x y z
#    x 3.054700 0.000000 0.000000 
#    y 0.000000 3.774920 0.000000 
#    z 0.000000 0.000000 4.865020 
# 
# 
# High freq. dielectric constant tensor:
#      x y z
#    x 1.792900 0.000000 0.000000 
#    y 0.000000 1.790510 0.000000 
#    z 0.000000 0.000000 1.805360 
# 
# From -- ./inp_files/24216.got.cif
#   From: 2010.03.12/outbox.cif.g09.slc.cpg/sg64_13_cif.got.tgz:24216.got - 2010.04.10 20:19:32.
