data_PCOD8264052
_publ_section_title
;
Structure prediction by ZEFSAII (Michael W. Deem and Ramdas Pophale) SiO2 
 PCOD8264052
Probable space group: C M C A
;
_chemical_formula_sum "Si O2"
_cell_formula_units_Z 80
_cell_length_a 33.576924
_cell_length_b 22.809477
_cell_length_c 5.106274
_cell_angle_alpha 90.000000
_cell_angle_beta 90.000000
_cell_angle_gamma 90.000000
_cell_volume 3910.752668
_symmetry_space_group_name_H-M "C M C A"
_symmetry_group_IT_number 64
_symmetry_cell_setting 'orthorhombic'
loop_
_space_group_symop_operation_xyz
x,y,z
-x,1/2-y,1/2+z
x,-y,-z
-x,1/2+y,1/2-z
-x,-y,-z
x,1/2+y,1/2-z
-x,y,z
x,1/2-y,1/2+z
1/2+x,1/2+y,z
1/2-x,-y,1/2+z
1/2+x,1/2-y,-z
1/2-x,y,1/2-z
1/2-x,1/2-y,-z
1/2+x,y,1/2-z
1/2-x,1/2+y,z
1/2+x,-y,1/2+z
loop_
_atom_site_type_symbol
_atom_site_label
_atom_site_fract_x
_atom_site_fract_y
_atom_site_fract_z
Si Si1 0.000000 0.214500 0.536583
Si Si2 0.351758 0.789737 0.972768
Si Si3 0.777172 0.000000 0.500000
Si Si4 0.722124 0.127231 0.000077
Si Si5 0.045825 0.068542 0.959319
Si Si6 0.427118 0.368902 0.539839
O O1 0.960396 0.180178 0.470881
O O2 0.000000 0.270425 0.344208
O O3 0.356364 0.760374 0.689842
O O4 0.309462 0.820925 0.001426
O O5 0.384799 0.839415 0.007941
O O6 0.800535 0.062729 0.499023
O O7 0.750000 0.999453 0.250000
O O8 0.750000 0.134081 0.250000
O O9 0.750000 0.134414 0.750000
O O10 0.064773 0.082145 0.678669
O O11 0.000000 0.090302 0.971046
O O12 0.071955 0.100760 0.177768
O O13 0.048275 0.000000 0.000000
#
# Coordination Sequence:
#
# PCOD8264052 Si02
#       6
#     8  16   8  16  16  16
#     4  12  22  36  59  86 113 164 216 248 298 368
#     4  12  26  43  63  92 135 169 209 269 314 363
#     4   8  16  34  60  90 118 151 196 257 302 360
#     4  10  21  40  67  93 124 164 211 254 316 381
#     4  11  22  41  66  93 124 161 209 265 318 379
#     4  12  23  42  62  91 129 165 211 258 313 375
#
# _framework density 20.456419
#
# number of rings (size 3 to 8) (size 9 to 14) (size 15 to 20)
#    0.000    1.000    2.000    5.400    0.000    4.000 
#    3.600    0.000    4.400    0.000    0.000    0.000 
#    0.000    0.000    0.000    0.000    0.000    0.000 
#
# Total GULP energy -495976.883744 kJ/mol
# GULP energy per Si atom -12399.422094 kJ/mol
# Density = 2.040986 g / cm^3
# Si number density = 20.456419 Si / 1000 Ang^3
#
#
#
# Elastic Constant Matrix: (Units=GPa)
#
#
# Indices 1 2 3 4 5 6 
#
# 1 92.9424 38.4209 19.5889 0.0000 0.0000 0.0000
# 2 38.4209 82.1269 18.6614 0.0000 0.0000 0.0000
# 3 19.5889 18.6614 104.5427 0.0000 0.0000 0.0000
# 4 0.0000 0.0000 0.0000 46.0403 0.0000 0.0000
# 5 0.0000 0.0000 0.0000 0.0000 24.8123 0.0000
# 6 0.0000 0.0000 0.0000 0.0000 0.0000 32.5788
#
#
#
# Elastic Compliance Matrix: (Units=1/GPa)
#
#
# Indices 1 2 3 4 5 6 
#
# 1 0.013551 -0.006006 -0.001467 0.000000 0.000000 0.000000
# 2 -0.006006 0.015353 -0.001615 0.000000 0.000000 0.000000
# 3 -0.001467 -0.001615 0.010129 0.000000 0.000000 0.000000
# 4 0.000000 0.000000 0.000000 0.021720 0.000000 0.000000
# 5 0.000000 0.000000 0.000000 0.000000 0.040303 0.000000
# 6 0.000000 0.000000 0.000000 0.000000 0.000000 0.030695
#
#
# Mechanical properties :
#
#
# Convention : Reuss Voigt Hill
#
# Bulk Modulus (GPa) = 47.94741 48.10604 48.02673
# Shear Modulus (GPa) = 31.87147 34.21568 33.04358
#
# Velocity S-wave (km/s) = 3.95146 4.09420 4.02346
# Velocity P-wave (km/s) = 6.65645 6.77623 6.71661
#
# Compressibility (1/GPa) = 0.02085618
#
# Stress axis : x y z
#
# Youngs Moduli (GPa) = 73.79266 65.13300 98.72956
#
# Poissons Ratio (x) = 0.39121 0.14484
# Poissons Ratio (y) = 0.44322 0.15947
# Poissons Ratio (z) = 0.10826 0.10520
#
# Static dielectric constant tensor:
#      x y z
#    x 4.912070 0.000000 0.000000 
#    y 0.000000 4.130600 0.000000 
#    z 0.000000 0.000000 4.453210 
# 
# 
# High freq. dielectric constant tensor:
#      x y z
#    x 1.773400 0.000000 0.000000 
#    y 0.000000 1.821070 0.000000 
#    z 0.000000 0.000000 1.824590 
# 
# From -- ./inp_files/3286.got.cif
#   From: 2010.03.12/outbox.cif.g09.slc.cpg/sg64_2_cif.got.tgz:3286.got - 2010.04.10 20:19:32.
