data_PCOD8264737
_publ_section_title
;
Structure prediction by ZEFSAII (Michael W. Deem and Ramdas Pophale) SiO2 
 PCOD8264737
Probable space group: C M C A
;
_chemical_formula_sum "Si O2"
_cell_formula_units_Z 56
_cell_length_a 15.149229
_cell_length_b 13.977001
_cell_length_c 11.510791
_cell_angle_alpha 90.000000
_cell_angle_beta 90.000000
_cell_angle_gamma 90.000000
_cell_volume 2437.303967
_symmetry_space_group_name_H-M "C M C A"
_symmetry_group_IT_number 64
_symmetry_cell_setting 'orthorhombic'
loop_
_space_group_symop_operation_xyz
x,y,z
-x,1/2-y,1/2+z
x,-y,-z
-x,1/2+y,1/2-z
-x,-y,-z
x,1/2+y,1/2-z
-x,y,z
x,1/2-y,1/2+z
1/2+x,1/2+y,z
1/2-x,-y,1/2+z
1/2+x,1/2-y,-z
1/2-x,y,1/2-z
1/2-x,1/2-y,-z
1/2+x,y,1/2-z
1/2-x,1/2+y,z
1/2+x,-y,1/2+z
loop_
_atom_site_type_symbol
_atom_site_label
_atom_site_fract_x
_atom_site_fract_y
_atom_site_fract_z
Si Si1 0.500000 0.105825 0.606585
Si Si2 0.214383 0.000000 0.500000
Si Si3 0.664799 0.367212 0.683637
Si Si4 0.688793 0.655851 0.857221
Si Si5 0.500000 0.615479 0.151596
O O1 0.412953 0.137224 0.675732
O O2 0.500000 0.160194 0.478980
O O3 0.500000 0.992764 0.611500
O O4 0.146830 0.952898 0.592533
O O5 0.279393 0.913219 0.461053
O O6 0.750000 0.405968 0.750000
O O7 0.691940 0.269434 0.616241
O O8 0.584664 0.353434 0.773307
O O9 0.750000 0.629523 0.750000
#
# Coordination Sequence:
#
# PCOD8264737 Si02
#       5
#     8   8  16  16   8
#     4  11  21  40  68  93 123 169 213 255 319 386
#     4  12  22  40  66  92 128 174 218 262 322 382
#     4  11  24  42  63  94 132 168 214 270 322 381
#     4  11  24  42  66  96 129 169 215 267 324 383
#     4  11  23  41  66  93 127 169 213 262 317 381
#
# _framework density 22.976206999999999
#
# number of rings (size 3 to 8) (size 9 to 14) (size 15 to 20)
#    0.000    0.857    0.000    9.429    0.000    2.857 
#    0.000    4.286    0.000    0.000    0.000    0.000 
#    0.000    0.000    0.000    0.000    0.000    0.000 
#
# Total GULP energy -346954.100666 kJ/mol
# GULP energy per Si atom -12391.217881 kJ/mol
# Density = 2.292391 g / cm^3
# Si number density = 22.976207 Si / 1000 Ang^3
#
#
#
# Elastic Constant Matrix: (Units=GPa)
#
#
# Indices 1 2 3 4 5 6 
#
# 1 161.0291 12.9158 61.7611 0.0000 0.0000 0.0000
# 2 12.9158 116.1670 64.3371 0.0000 0.0000 0.0000
# 3 61.7611 64.3371 95.8021 0.0000 0.0000 0.0000
# 4 0.0000 0.0000 0.0000 47.5231 0.0000 0.0000
# 5 0.0000 0.0000 0.0000 0.0000 85.9122 0.0000
# 6 0.0000 0.0000 0.0000 0.0000 0.0000 18.3285
#
#
#
# Elastic Compliance Matrix: (Units=1/GPa)
#
#
# Indices 1 2 3 4 5 6 
#
# 1 0.009088 0.003558 -0.008248 0.000000 0.000000 0.000000
# 2 0.003558 0.015099 -0.012433 0.000000 0.000000 0.000000
# 3 -0.008248 -0.012433 0.024105 0.000000 0.000000 0.000000
# 4 0.000000 0.000000 0.000000 0.021042 0.000000 0.000000
# 5 0.000000 0.000000 0.000000 0.000000 0.011640 0.000000
# 6 0.000000 0.000000 0.000000 0.000000 0.000000 0.054560
#
#
# Mechanical properties :
#
#
# Convention : Reuss Voigt Hill
#
# Bulk Modulus (GPa) = 71.20127 72.33625 71.76876
# Shear Modulus (GPa) = 28.65939 45.95169 37.30554
#
# Velocity S-wave (km/s) = 3.53562 4.47695 4.03384
# Velocity P-wave (km/s) = 6.90825 7.63385 7.28009
#
# Compressibility (1/GPa) = 0.01404469
#
# Stress axis : x y z
#
# Youngs Moduli (GPa) = 110.03315 66.23104 41.48491
#
# Poissons Ratio (x) = -0.23562 0.34217
# Poissons Ratio (y) = -0.39145 0.51579
# Poissons Ratio (z) = 0.90756 0.82346
#
# Static dielectric constant tensor:
#      x y z
#    x 4.172210 0.000000 0.000000 
#    y 0.000000 4.237770 0.000000 
#    z 0.000000 0.000000 4.352860 
# 
# 
# High freq. dielectric constant tensor:
#      x y z
#    x 1.903320 0.000000 0.000000 
#    y 0.000000 1.919650 0.000000 
#    z 0.000000 0.000000 1.896910 
# 
# From -- ./inp_files/13798.got.cif
#   From: 2010.03.12/outbox.cif.g09.slc.cpg/sg64_7_cif.got.tgz:13798.got - 2010.04.10 20:19:32.
