data_PCOD8264248
_publ_section_title
;
Structure prediction by ZEFSAII (Michael W. Deem and Ramdas Pophale) SiO2 
 PCOD8264248
Probable space group: C M C A
;
_chemical_formula_sum "Si O2"
_cell_formula_units_Z 72
_cell_length_a 10.731419
_cell_length_b 27.021700
_cell_length_c 12.258637
_cell_angle_alpha 90.000000
_cell_angle_beta 90.000000
_cell_angle_gamma 90.000000
_cell_volume 3554.774081
_symmetry_space_group_name_H-M "C M C A"
_symmetry_group_IT_number 64
_symmetry_cell_setting 'orthorhombic'
loop_
_space_group_symop_operation_xyz
x,y,z
-x,1/2-y,1/2+z
x,-y,-z
-x,1/2+y,1/2-z
-x,-y,-z
x,1/2+y,1/2-z
-x,y,z
x,1/2-y,1/2+z
1/2+x,1/2+y,z
1/2-x,-y,1/2+z
1/2+x,1/2-y,-z
1/2-x,y,1/2-z
1/2-x,1/2-y,-z
1/2+x,y,1/2-z
1/2-x,1/2+y,z
1/2+x,-y,1/2+z
loop_
_atom_site_type_symbol
_atom_site_label
_atom_site_fract_x
_atom_site_fract_y
_atom_site_fract_z
Si Si1 0.362137 0.750257 0.417643
Si Si2 0.750000 0.928789 0.250000
Si Si3 0.500000 0.076664 0.062314
Si Si4 0.139664 0.857908 0.082602
Si Si5 0.714667 0.647153 0.367765
Si Si6 0.500000 0.025791 0.830134
O O1 0.500000 0.746297 0.473244
O O2 0.250000 0.750000 0.500000
O O3 0.354667 0.803718 0.357620
O O4 0.343596 0.701745 0.342577
O O5 0.766198 0.894667 0.143161
O O6 0.626033 0.961762 0.236508
O O7 0.380661 0.110297 0.076794
O O8 0.500000 0.032670 0.150038
O O9 0.500000 0.055990 0.941163
O O10 0.000000 0.879487 0.091030
O O11 0.171666 0.851060 0.954073
O O12 0.750000 0.625156 0.250000
#
# Coordination Sequence:
#
# PCOD8264248 Si02
#       6
#    16   8   8  16  16   8
#     4   9  19  37  59  89 127 167 210 251 306 377
#     4  12  22  44  68  94 122 166 216 270 318 372
#     4  11  24  46  64  91 127 171 216 261 329 383
#     4  10  22  39  62  96 131 166 209 261 314 377
#     4  11  23  39  64  93 131 172 210 258 319 390
#     4  11  26  44  70  91 125 167 222 273 320 382
#
# _framework density 20.254452000000001
#
# number of rings (size 3 to 8) (size 9 to 14) (size 15 to 20)
#    0.000    1.556    4.444    0.000    4.667    0.000 
#    0.000    0.000    0.000    4.000    0.000    0.000 
#    0.000    0.000    0.000    0.000    0.000    0.000 
#
# Total GULP energy -446043.447895 kJ/mol
# GULP energy per Si atom -12390.095775 kJ/mol
# Density = 2.020835 g / cm^3
# Si number density = 20.254452 Si / 1000 Ang^3
#
#
#
# Elastic Constant Matrix: (Units=GPa)
#
#
# Indices 1 2 3 4 5 6 
#
# 1 129.3704 25.6368 14.4177 0.0000 0.0000 0.0000
# 2 25.6368 90.1501 12.6997 0.0000 0.0000 0.0000
# 3 14.4177 12.6997 69.9939 0.0000 0.0000 0.0000
# 4 0.0000 0.0000 0.0000 23.6750 0.0000 0.0000
# 5 0.0000 0.0000 0.0000 0.0000 23.5074 0.0000
# 6 0.0000 0.0000 0.0000 0.0000 0.0000 -35.5572
#
#
#
# Elastic Compliance Matrix: (Units=1/GPa)
#
#
# Indices 1 2 3 4 5 6 
#
# 1 0.008308 -0.002177 -0.001316 0.000000 0.000000 0.000000
# 2 -0.002177 0.011954 -0.001721 0.000000 0.000000 0.000000
# 3 -0.001316 -0.001721 0.014870 0.000000 0.000000 0.000000
# 4 0.000000 0.000000 0.000000 0.042239 0.000000 0.000000
# 5 0.000000 0.000000 0.000000 0.000000 0.042540 0.000000
# 6 0.000000 0.000000 0.000000 0.000000 0.000000 -0.028124
#
#
# Mechanical properties :
#
#
# Convention : Reuss Voigt Hill
#
# Bulk Modulus (GPa) = 40.47863 43.89143 42.18503
# Shear Modulus (GPa) = 45.26952 18.10906 31.68929
#
# Velocity S-wave (km/s) = 4.73275 2.99336 3.95974
# Velocity P-wave (km/s) = 7.06355 5.80207 6.46365
#
# Compressibility (1/GPa) = 0.02470439
#
# Stress axis : x y z
#
# Youngs Moduli (GPa) = 120.36773 83.65317 67.24829
#
# Poissons Ratio (x) = 0.18213 0.08852
# Poissons Ratio (y) = 0.26206 0.11570
# Poissons Ratio (z) = 0.15844 0.14393
#
# Static dielectric constant tensor:
#      x y z
#    x 3.809150 0.000000 0.000000 
#    y 0.000000 4.063820 0.000000 
#    z 0.000000 0.000000 3.244410 
# 
# 
# High freq. dielectric constant tensor:
#      x y z
#    x 1.807410 0.000000 0.000000 
#    y 0.000000 1.800210 0.000000 
#    z 0.000000 0.000000 1.754990 
# 
# From -- ./inp_files/13109.got.cif
#   From: 2010.03.12/outbox.cif.g09.slc.cpg/sg64_7_cif.got.tgz:13109.got - 2010.04.10 20:19:32.
