data_PCOD8264170
_publ_section_title
;
Structure prediction by ZEFSAII (Michael W. Deem and Ramdas Pophale) SiO2 
 PCOD8264170
Probable space group: C M C A
;
_chemical_formula_sum "Si O2"
_cell_formula_units_Z 56
_cell_length_a 12.606847
_cell_length_b 34.288979
_cell_length_c 5.179475
_cell_angle_alpha 90.000000
_cell_angle_beta 90.000000
_cell_angle_gamma 90.000000
_cell_volume 2238.962280
_symmetry_space_group_name_H-M "C M C A"
_symmetry_group_IT_number 64
_symmetry_cell_setting 'orthorhombic'
loop_
_space_group_symop_operation_xyz
x,y,z
-x,1/2-y,1/2+z
x,-y,-z
-x,1/2+y,1/2-z
-x,-y,-z
x,1/2+y,1/2-z
-x,y,z
x,1/2-y,1/2+z
1/2+x,1/2+y,z
1/2-x,-y,1/2+z
1/2+x,1/2-y,-z
1/2-x,y,1/2-z
1/2-x,1/2-y,-z
1/2+x,y,1/2-z
1/2-x,1/2+y,z
1/2+x,-y,1/2+z
loop_
_atom_site_type_symbol
_atom_site_label
_atom_site_fract_x
_atom_site_fract_y
_atom_site_fract_z
Si Si1 0.374426 0.541892 0.079686
Si Si2 0.250000 0.843256 0.250000
Si Si3 0.624805 0.411697 0.426207
Si Si4 0.624979 0.773542 0.411973
O O1 0.500000 0.537317 0.106206
O O2 0.330826 0.557805 0.357602
O O3 0.325560 0.500000 0.000000
O O4 0.345169 0.572817 0.858530
O O5 0.321024 0.869374 0.054610
O O6 0.325170 0.816600 0.429879
O O7 0.500000 0.406465 0.466361
O O8 0.500000 0.778844 0.425365
O O9 0.663440 0.745845 0.643507
#
# Coordination Sequence:
#
# PCOD8264170 Si02
#       4
#    16   8  16  16
#     4   9  18  37  62  85 116 160 206 252 301 357
#     4  12  24  40  62  92 130 164 198 254 322 376
#     4  10  22  37  58  90 122 157 203 253 307 362
#     4  10  23  43  66  91 120 161 210 254 302 370
#
# _framework density 25.011586999999999
#
# number of rings (size 3 to 8) (size 9 to 14) (size 15 to 20)
#    0.000    2.000    0.000    2.571    0.000    9.143 
#    0.000   11.429    0.000    0.000    0.000    0.000 
#    0.000    3.429    0.000    0.000    0.000    0.000 
#
# Total GULP energy -347380.689583 kJ/mol
# GULP energy per Si atom -12406.453199 kJ/mol
# Density = 2.495466 g / cm^3
# Si number density = 25.011587 Si / 1000 Ang^3
#
#
#
# Elastic Constant Matrix: (Units=GPa)
#
#
# Indices 1 2 3 4 5 6 
#
# 1 54.4827 61.1839 55.9610 0.0000 0.0000 0.0000
# 2 61.1839 210.9274 84.9690 0.0000 0.0000 0.0000
# 3 55.9610 84.9690 174.5994 0.0000 0.0000 0.0000
# 4 0.0000 0.0000 0.0000 33.7010 0.0000 0.0000
# 5 0.0000 0.0000 0.0000 0.0000 46.8764 0.0000
# 6 0.0000 0.0000 0.0000 0.0000 0.0000 55.9750
#
#
#
# Elastic Compliance Matrix: (Units=1/GPa)
#
#
# Indices 1 2 3 4 5 6 
#
# 1 0.033614 -0.006730 -0.007499 0.000000 0.000000 0.000000
# 2 -0.006730 0.007244 -0.001369 0.000000 0.000000 0.000000
# 3 -0.007499 -0.001369 0.008797 0.000000 0.000000 0.000000
# 4 0.000000 0.000000 0.000000 0.029673 0.000000 0.000000
# 5 0.000000 0.000000 0.000000 0.000000 0.021333 0.000000
# 6 0.000000 0.000000 0.000000 0.000000 0.000000 0.017865
#
#
# Mechanical properties :
#
#
# Convention : Reuss Voigt Hill
#
# Bulk Modulus (GPa) = 54.16716 93.80414 73.98565
# Shear Modulus (GPa) = 32.07737 43.17018 37.62378
#
# Velocity S-wave (km/s) = 3.58509 4.15903 3.88268
# Velocity P-wave (km/s) = 6.23225 7.78775 7.05302
#
# Compressibility (1/GPa) = 0.01846137
#
# Stress axis : x y z
#
# Youngs Moduli (GPa) = 29.74955 138.03848 113.67803
#
# Poissons Ratio (x) = 0.92896 0.85243
# Poissons Ratio (y) = 0.20021 0.15557
# Poissons Ratio (z) = 0.22308 0.18891
#
# Static dielectric constant tensor:
#      x y z
#    x 4.822440 0.000000 0.000000 
#    y 0.000000 4.398910 0.000000 
#    z 0.000000 0.000000 4.478400 
# 
# 
# High freq. dielectric constant tensor:
#      x y z
#    x 2.053830 0.000000 0.000000 
#    y 0.000000 1.990310 0.000000 
#    z 0.000000 0.000000 1.988400 
# 
# From -- ./inp_files/855.got.cif
#   From: 2010.03.12/outbox.cif.g09.slc.cpg/sg64_1_cif.got.tgz:855.got - 2010.04.10 20:19:32.
