data_PCOD8264265
_publ_section_title
;
Structure prediction by ZEFSAII (Michael W. Deem and Ramdas Pophale) SiO2 
 PCOD8264265
Probable space group: C M C A
;
_chemical_formula_sum "Si O2"
_cell_formula_units_Z 64
_cell_length_a 13.731097
_cell_length_b 7.363405
_cell_length_c 22.097150
_cell_angle_alpha 90.000000
_cell_angle_beta 90.000000
_cell_angle_gamma 90.000000
_cell_volume 2234.190429
_symmetry_space_group_name_H-M "C M C A"
_symmetry_group_IT_number 64
_symmetry_cell_setting 'orthorhombic'
loop_
_space_group_symop_operation_xyz
x,y,z
-x,1/2-y,1/2+z
x,-y,-z
-x,1/2+y,1/2-z
-x,-y,-z
x,1/2+y,1/2-z
-x,y,z
x,1/2-y,1/2+z
1/2+x,1/2+y,z
1/2-x,-y,1/2+z
1/2+x,1/2-y,-z
1/2-x,y,1/2-z
1/2-x,1/2-y,-z
1/2+x,y,1/2-z
1/2-x,1/2+y,z
1/2+x,-y,1/2+z
loop_
_atom_site_type_symbol
_atom_site_label
_atom_site_fract_x
_atom_site_fract_y
_atom_site_fract_z
Si Si1 0.111826 0.560479 0.599579
Si Si2 0.729453 0.818502 0.679972
Si Si3 0.885918 0.505517 0.878941
Si Si4 0.890813 0.777124 0.489003
O O1 0.182800 0.513262 0.657019
O O2 0.111640 0.372997 0.562839
O O3 0.160197 0.712010 0.551908
O O4 0.000000 0.607249 0.618720
O O5 0.750000 0.837444 0.750000
O O6 0.836570 0.814324 0.644579
O O7 0.655492 0.657672 0.666218
O O8 0.857510 0.539696 0.950654
O O9 0.000000 0.499304 0.868812
O O10 0.000000 0.804686 0.512077
#
# Coordination Sequence:
#
# PCOD8264265 Si02
#       4
#    16  16  16  16
#     4   8  14  28  53  82 111 143 183 233 280 329
#     4  11  22  37  57  85 116 152 196 229 276 347
#     4  10  22  40  60  84 116 149 188 241 285 330
#     4   7  12  27  52  80 107 140 183 228 282 335
#
# _framework density 28.645723
#
# number of rings (size 3 to 8) (size 9 to 14) (size 15 to 20)
#    0.000    3.000    0.000    4.500    0.000    3.000 
#    0.000    2.500    0.000    0.000    0.000   19.250 
#    0.000    0.000    0.000    0.000    0.000    0.000 
#
# Total GULP energy -396494.082921 kJ/mol
# GULP energy per Si atom -12390.440091 kJ/mol
# Density = 2.858052 g / cm^3
# Si number density = 28.645723 Si / 1000 Ang^3
#
#
#
# Elastic Constant Matrix: (Units=GPa)
#
#
# Indices 1 2 3 4 5 6 
#
# 1 161.1093 41.5534 74.9795 0.0000 0.0000 0.0000
# 2 41.5534 141.2056 51.0100 0.0000 0.0000 0.0000
# 3 74.9795 51.0100 258.2828 0.0000 0.0000 0.0000
# 4 0.0000 0.0000 0.0000 42.4225 0.0000 0.0000
# 5 0.0000 0.0000 0.0000 0.0000 32.7716 0.0000
# 6 0.0000 0.0000 0.0000 0.0000 0.0000 41.2003
#
#
#
# Elastic Compliance Matrix: (Units=1/GPa)
#
#
# Indices 1 2 3 4 5 6 
#
# 1 0.007469 -0.001523 -0.001867 0.000000 0.000000 0.000000
# 2 -0.001523 0.007937 -0.001125 0.000000 0.000000 0.000000
# 3 -0.001867 -0.001125 0.004636 0.000000 0.000000 0.000000
# 4 0.000000 0.000000 0.000000 0.023572 0.000000 0.000000
# 5 0.000000 0.000000 0.000000 0.000000 0.030514 0.000000
# 6 0.000000 0.000000 0.000000 0.000000 0.000000 0.024272
#
#
# Mechanical properties :
#
#
# Convention : Reuss Voigt Hill
#
# Bulk Modulus (GPa) = 90.82881 99.52038 95.17460
# Shear Modulus (GPa) = 45.00381 49.48255 47.24318
#
# Velocity S-wave (km/s) = 3.96794 4.16071 4.06547
# Velocity P-wave (km/s) = 7.26424 7.60915 7.43870
#
# Compressibility (1/GPa) = 0.01100972
#
# Stress axis : x y z
#
# Youngs Moduli (GPa) = 133.88790 125.99787 215.70076
#
# Poissons Ratio (x) = 0.19194 0.40279
# Poissons Ratio (y) = 0.20396 0.24271
# Poissons Ratio (z) = 0.25002 0.14178
#
# Static dielectric constant tensor:
#      x y z
#    x 5.446000 0.000000 0.000000 
#    y 0.000000 6.971340 0.000000 
#    z 0.000000 0.000000 5.180090 
# 
# 
# High freq. dielectric constant tensor:
#      x y z
#    x 2.150640 0.000000 0.000000 
#    y 0.000000 2.250110 0.000000 
#    z 0.000000 0.000000 2.160170 
# 
# From -- ./inp_files/43720.got.cif
#   From: 2010.03.12/outbox.cif.g09.slc.cpg/sg64_22_cif.got.tgz:43720.got - 2010.04.10 20:19:32.
