data_PCOD8264494
_publ_section_title
;
Structure prediction by ZEFSAII (Michael W. Deem and Ramdas Pophale) SiO2 
 PCOD8264494
Probable space group: C M C A
;
_chemical_formula_sum "Si O2"
_cell_formula_units_Z 64
_cell_length_a 15.258659
_cell_length_b 21.306490
_cell_length_c 8.759487
_cell_angle_alpha 90.000000
_cell_angle_beta 90.000000
_cell_angle_gamma 90.000000
_cell_volume 2847.783376
_symmetry_space_group_name_H-M "C M C A"
_symmetry_group_IT_number 64
_symmetry_cell_setting 'orthorhombic'
loop_
_space_group_symop_operation_xyz
x,y,z
-x,1/2-y,1/2+z
x,-y,-z
-x,1/2+y,1/2-z
-x,-y,-z
x,1/2+y,1/2-z
-x,y,z
x,1/2-y,1/2+z
1/2+x,1/2+y,z
1/2-x,-y,1/2+z
1/2+x,1/2-y,-z
1/2-x,y,1/2-z
1/2-x,1/2-y,-z
1/2+x,y,1/2-z
1/2-x,1/2+y,z
1/2+x,-y,1/2+z
loop_
_atom_site_type_symbol
_atom_site_label
_atom_site_fract_x
_atom_site_fract_y
_atom_site_fract_z
Si Si1 0.178542 0.451619 0.118013
Si Si2 0.840158 0.678077 0.042162
Si Si3 0.000000 0.105457 0.024925
Si Si4 0.500000 0.492590 0.241231
Si Si5 0.139481 0.697992 0.382796
O O1 0.250000 0.437683 0.250000
O O2 0.090105 0.486938 0.166950
O O3 0.225371 0.500000 0.000000
O O4 0.145635 0.388582 0.036303
O O5 0.886723 0.685649 0.206603
O O6 0.738509 0.685867 0.074252
O O7 0.880760 0.729914 0.927703
O O8 0.084825 0.149551 0.016241
O O9 0.000000 0.062247 0.173917
O O10 0.000000 0.063000 0.878376
#
# Coordination Sequence:
#
# PCOD8264494 Si02
#       5
#    16  16   8   8  16
#     4  12  28  45  75 104 143 188 238 290 362 427
#     4  10  24  43  69  99 138 181 237 280 350 415
#     4  11  24  43  71 102 138 180 228 293 358 408
#     4  11  27  45  71 104 145 176 245 293 349 428
#     4  10  23  42  69  97 138 181 230 286 345 417
#
# _framework density 22.473618999999999
#
# number of rings (size 3 to 8) (size 9 to 14) (size 15 to 20)
#    0.000    1.250    0.000    3.375   21.000    3.000 
#    0.000    0.000    0.000    0.000    0.000    0.000 
#    0.000    0.000    0.000    0.000    0.000    0.000 
#
# Total GULP energy -396782.680640 kJ/mol
# GULP energy per Si atom -12399.458770 kJ/mol
# Density = 2.242247 g / cm^3
# Si number density = 22.473619 Si / 1000 Ang^3
#
#
#
# Elastic Constant Matrix: (Units=GPa)
#
#
# Indices 1 2 3 4 5 6 
#
# 1 52.4112 10.8361 22.7916 0.0000 0.0000 0.0000
# 2 10.8361 169.7168 55.1366 0.0000 0.0000 0.0000
# 3 22.7916 55.1366 111.1924 0.0000 0.0000 0.0000
# 4 0.0000 0.0000 0.0000 36.9231 0.0000 0.0000
# 5 0.0000 0.0000 0.0000 0.0000 10.0594 0.0000
# 6 0.0000 0.0000 0.0000 0.0000 0.0000 49.6717
#
#
#
# Elastic Compliance Matrix: (Units=1/GPa)
#
#
# Indices 1 2 3 4 5 6 
#
# 1 0.020948 0.000068 -0.004328 0.000000 0.000000 0.000000
# 2 0.000068 0.007024 -0.003497 0.000000 0.000000 0.000000
# 3 -0.004328 -0.003497 0.011614 0.000000 0.000000 0.000000
# 4 0.000000 0.000000 0.000000 0.027083 0.000000 0.000000
# 5 0.000000 0.000000 0.000000 0.000000 0.099410 0.000000
# 6 0.000000 0.000000 0.000000 0.000000 0.000000 0.020132
#
#
# Mechanical properties :
#
#
# Convention : Reuss Voigt Hill
#
# Bulk Modulus (GPa) = 41.53902 56.76099 49.15001
# Shear Modulus (GPa) = 23.83812 35.63458 29.73635
#
# Velocity S-wave (km/s) = 3.26040 3.98630 3.64148
# Velocity P-wave (km/s) = 5.71814 6.81902 6.29270
#
# Compressibility (1/GPa) = 0.02407375
#
# Stress axis : x y z
#
# Youngs Moduli (GPa) = 47.73799 142.37189 86.09930
#
# Poissons Ratio (x) = -0.00975 0.37261
# Poissons Ratio (y) = -0.00327 0.30108
# Poissons Ratio (z) = 0.20660 0.49786
#
# Static dielectric constant tensor:
#      x y z
#    x 3.581300 0.000000 0.000000 
#    y 0.000000 4.241090 0.000000 
#    z 0.000000 0.000000 4.341370 
# 
# 
# High freq. dielectric constant tensor:
#      x y z
#    x 1.879030 0.000000 0.000000 
#    y 0.000000 1.904790 0.000000 
#    z 0.000000 0.000000 1.892870 
# 
# From -- ./inp_files/6641.got.cif
#   From: 2010.03.12/outbox.cif.g09.slc.cpg/sg64_4_cif.got.tgz:6641.got - 2010.04.10 20:19:32.
