data_PCOD8264204
_publ_section_title
;
Structure prediction by ZEFSAII (Michael W. Deem and Ramdas Pophale) SiO2 
 PCOD8264204
Probable space group: C M C A
;
_chemical_formula_sum "Si O2"
_cell_formula_units_Z 96
_cell_length_a 22.560716
_cell_length_b 9.852487
_cell_length_c 22.640879
_cell_angle_alpha 90.000000
_cell_angle_beta 90.000000
_cell_angle_gamma 90.000000
_cell_volume 5032.595591
_symmetry_space_group_name_H-M "C M C A"
_symmetry_group_IT_number 64
_symmetry_cell_setting 'orthorhombic'
loop_
_space_group_symop_operation_xyz
x,y,z
-x,1/2-y,1/2+z
x,-y,-z
-x,1/2+y,1/2-z
-x,-y,-z
x,1/2+y,1/2-z
-x,y,z
x,1/2-y,1/2+z
1/2+x,1/2+y,z
1/2-x,-y,1/2+z
1/2+x,1/2-y,-z
1/2-x,y,1/2-z
1/2-x,1/2-y,-z
1/2+x,y,1/2-z
1/2-x,1/2+y,z
1/2+x,-y,1/2+z
loop_
_atom_site_type_symbol
_atom_site_label
_atom_site_fract_x
_atom_site_fract_y
_atom_site_fract_z
Si Si1 0.332889 0.765885 0.619956
Si Si2 0.373267 0.018634 0.695416
Si Si3 0.693639 0.344334 0.003670
Si Si4 0.500000 0.900128 0.292132
Si Si5 0.693291 0.260412 0.128635
Si Si6 0.876359 0.989113 0.664634
Si Si7 0.000000 0.907855 0.683533
O O1 0.348098 0.809264 0.552389
O O2 0.263986 0.729899 0.627726
O O3 0.372054 0.636080 0.635489
O O4 0.350354 0.885000 0.663841
O O5 0.440518 0.051712 0.673998
O O6 0.331117 0.145766 0.681094
O O7 0.370320 0.995798 0.765067
O O8 0.663830 0.314094 0.067132
O O9 0.713926 0.500000 0.000000
O O10 0.750000 0.250000 0.000000
O O11 0.500000 0.965550 0.227863
O O12 0.500000 0.737436 0.283767
O O13 0.675582 0.104778 0.138899
O O14 0.939809 0.923864 0.645575
#
# Coordination Sequence:
#
# PCOD8264204 Si02
#       7
#    16  16  16   8  16  16   8
#     4  11  24  37  60  91 121 157 198 242 300 356
#     4  11  22  39  60  88 123 157 197 240 299 354
#     4  10  22  39  61  84 116 161 209 241 285 355
#     4  10  22  38  62  83 115 163 204 244 281 354
#     4  11  22  39  61  87 125 157 196 244 297 355
#     4  11  24  37  61  90 122 159 196 245 298 357
#     4  10  22  40  60  85 116 160 211 237 288 351
#
# _framework density 19.075644
#
# number of rings (size 3 to 8) (size 9 to 14) (size 15 to 20)
#    0.000    1.333    3.333    2.000   14.000    4.000 
#    0.000    0.000    0.000    6.000    0.000    0.000 
#    0.000    0.000    0.000    0.000    0.000    0.000 
#
# Total GULP energy -595141.719861 kJ/mol
# GULP energy per Si atom -12398.785830 kJ/mol
# Density = 1.903223 g / cm^3
# Si number density = 19.075644 Si / 1000 Ang^3
#
#
#
# Elastic Constant Matrix: (Units=GPa)
#
#
# Indices 1 2 3 4 5 6 
#
# 1 84.4964 23.0773 28.1527 0.0000 0.0000 0.0000
# 2 23.0773 134.8733 40.1075 0.0000 0.0000 0.0000
# 3 28.1527 40.1075 100.0753 0.0000 0.0000 0.0000
# 4 0.0000 0.0000 0.0000 32.2805 0.0000 0.0000
# 5 0.0000 0.0000 0.0000 0.0000 3.7749 0.0000
# 6 0.0000 0.0000 0.0000 0.0000 0.0000 32.2696
#
#
#
# Elastic Compliance Matrix: (Units=1/GPa)
#
#
# Indices 1 2 3 4 5 6 
#
# 1 0.013262 -0.001317 -0.003203 0.000000 0.000000 0.000000
# 2 -0.001317 0.008548 -0.003056 0.000000 0.000000 0.000000
# 3 -0.003203 -0.003056 0.012118 0.000000 0.000000 0.000000
# 4 0.000000 0.000000 0.000000 0.030978 0.000000 0.000000
# 5 0.000000 0.000000 0.000000 0.000000 0.264909 0.000000
# 6 0.000000 0.000000 0.000000 0.000000 0.000000 0.030989
#
#
# Mechanical properties :
#
#
# Convention : Reuss Voigt Hill
#
# Bulk Modulus (GPa) = 53.25484 55.79111 54.52298
# Shear Modulus (GPa) = 13.08169 28.87218 20.97694
#
# Velocity S-wave (km/s) = 2.62158 3.89467 3.31973
# Velocity P-wave (km/s) = 6.09442 7.03814 6.58321
#
# Compressibility (1/GPa) = 0.01877764
#
# Stress axis : x y z
#
# Youngs Moduli (GPa) = 75.40571 116.98270 82.52114
#
# Poissons Ratio (x) = 0.15402 0.26432
# Poissons Ratio (y) = 0.09928 0.25215
# Poissons Ratio (z) = 0.24153 0.35745
#
# Static dielectric constant tensor:
#      x y z
#    x 3.777000 0.000000 0.000000 
#    y 0.000000 3.648640 0.000000 
#    z 0.000000 0.000000 4.015450 
# 
# 
# High freq. dielectric constant tensor:
#      x y z
#    x 1.727860 0.000000 0.000000 
#    y 0.000000 1.766690 0.000000 
#    z 0.000000 0.000000 1.729420 
# 
# From -- ./inp_files/46635.got.cif
#   From: 2010.03.12/outbox.cif.g09.slc.cpg/sg64_24_cif.got.tgz:46635.got - 2010.04.10 20:19:32.
