data_PCOD8264895
_publ_section_title
;
Structure prediction by ZEFSAII (Michael W. Deem and Ramdas Pophale) SiO2 
 PCOD8264895
Probable space group: C M C A
;
_chemical_formula_sum "Si O2"
_cell_formula_units_Z 64
_cell_length_a 32.473765
_cell_length_b 10.184564
_cell_length_c 9.415242
_cell_angle_alpha 90.000000
_cell_angle_beta 90.000000
_cell_angle_gamma 90.000000
_cell_volume 3113.913701
_symmetry_space_group_name_H-M "C M C A"
_symmetry_group_IT_number 64
_symmetry_cell_setting 'orthorhombic'
loop_
_space_group_symop_operation_xyz
x,y,z
-x,1/2-y,1/2+z
x,-y,-z
-x,1/2+y,1/2-z
-x,-y,-z
x,1/2+y,1/2-z
-x,y,z
x,1/2-y,1/2+z
1/2+x,1/2+y,z
1/2-x,-y,1/2+z
1/2+x,1/2-y,-z
1/2-x,y,1/2-z
1/2-x,1/2-y,-z
1/2+x,y,1/2-z
1/2-x,1/2+y,z
1/2+x,-y,1/2+z
loop_
_atom_site_type_symbol
_atom_site_label
_atom_site_fract_x
_atom_site_fract_y
_atom_site_fract_z
Si Si1 0.453485 0.527024 0.665323
Si Si2 0.404506 0.279101 0.754135
Si Si3 0.859705 0.854506 0.010666
Si Si4 0.266000 0.127480 0.586773
O O1 0.452264 0.500000 0.500000
O O2 0.500000 0.521535 0.724000
O O3 0.426838 0.419338 0.748794
O O4 0.436242 0.672124 0.688953
O O5 0.389056 0.238120 0.600866
O O6 0.363487 0.291450 0.853655
O O7 0.815063 0.862557 0.082150
O O8 0.878285 0.000000 0.000000
O O9 0.250000 0.123916 0.750000
O O10 0.250000 0.250000 0.500000
O O11 0.250436 0.000000 0.500000
#
# Coordination Sequence:
#
# PCOD8264895 Si02
#       4
#    16  16  16  16
#     4  11  24  41  64  96 132 172 219 271 325 384
#     4  12  22  43  64  95 130 172 217 268 322 382
#     4  11  24  41  66  95 132 165 214 266 325 390
#     4  11  24  45  68 100 134 174 221 274 336 407
#
# _framework density 20.552914000000001
#
# number of rings (size 3 to 8) (size 9 to 14) (size 15 to 20)
#    0.000    0.750    5.000    3.000    0.000    2.000 
#    4.500    1.250    0.000    0.000    0.000    0.000 
#    0.000    0.000    0.000    0.000    0.000    0.000 
#
# Total GULP energy -396698.561048 kJ/mol
# GULP energy per Si atom -12396.830033 kJ/mol
# Density = 2.050613 g / cm^3
# Si number density = 20.552914 Si / 1000 Ang^3
#
#
#
# Elastic Constant Matrix: (Units=GPa)
#
#
# Indices 1 2 3 4 5 6 
#
# 1 95.8454 40.7707 50.5749 0.0000 0.0000 0.0000
# 2 40.7707 120.8507 53.6897 0.0000 0.0000 0.0000
# 3 50.5749 53.6897 127.8665 0.0000 0.0000 0.0000
# 4 0.0000 0.0000 0.0000 35.5686 0.0000 0.0000
# 5 0.0000 0.0000 0.0000 0.0000 29.1717 0.0000
# 6 0.0000 0.0000 0.0000 0.0000 0.0000 34.9402
#
#
#
# Elastic Compliance Matrix: (Units=1/GPa)
#
#
# Indices 1 2 3 4 5 6 
#
# 1 0.013897 -0.002761 -0.004337 0.000000 0.000000 0.000000
# 2 -0.002761 0.010721 -0.003409 0.000000 0.000000 0.000000
# 3 -0.004337 -0.003409 0.010968 0.000000 0.000000 0.000000
# 4 0.000000 0.000000 0.000000 0.028115 0.000000 0.000000
# 5 0.000000 0.000000 0.000000 0.000000 0.034280 0.000000
# 6 0.000000 0.000000 0.000000 0.000000 0.000000 0.028620
#
#
# Mechanical properties :
#
#
# Convention : Reuss Voigt Hill
#
# Bulk Modulus (GPa) = 68.63633 70.51480 69.57557
# Shear Modulus (GPa) = 32.79287 33.23794 33.01540
#
# Velocity S-wave (km/s) = 3.99875 4.02579 4.01229
# Velocity P-wave (km/s) = 7.40185 7.48283 7.44245
#
# Compressibility (1/GPa) = 0.01456954
#
# Stress axis : x y z
#
# Youngs Moduli (GPa) = 71.95977 93.27538 91.17745
#
# Poissons Ratio (x) = 0.25758 0.39544
# Poissons Ratio (y) = 0.19871 0.31086
# Poissons Ratio (z) = 0.31209 0.31801
#
# Static dielectric constant tensor:
#      x y z
#    x 4.643600 0.000000 0.000000 
#    y 0.000000 3.861030 0.000000 
#    z 0.000000 0.000000 3.860470 
# 
# 
# High freq. dielectric constant tensor:
#      x y z
#    x 1.799790 0.000000 0.000000 
#    y 0.000000 1.822860 0.000000 
#    z 0.000000 0.000000 1.815350 
# 
# From -- ./inp_files/10852.got.cif
#   From: 2010.03.12/outbox.cif.g09.slc.cpg/sg64_6_cif.got.tgz:10852.got - 2010.04.10 20:19:32.
