data_PCOD8264346
_publ_section_title
;
Structure prediction by ZEFSAII (Michael W. Deem and Ramdas Pophale) SiO2 
 PCOD8264346
Probable space group: C M C A
;
_chemical_formula_sum "Si O2"
_cell_formula_units_Z 48
_cell_length_a 16.802316
_cell_length_b 24.615259
_cell_length_c 4.730682
_cell_angle_alpha 90.000000
_cell_angle_beta 90.000000
_cell_angle_gamma 90.000000
_cell_volume 1956.578664
_symmetry_space_group_name_H-M "C M C A"
_symmetry_group_IT_number 64
_symmetry_cell_setting 'orthorhombic'
loop_
_space_group_symop_operation_xyz
x,y,z
-x,1/2-y,1/2+z
x,-y,-z
-x,1/2+y,1/2-z
-x,-y,-z
x,1/2+y,1/2-z
-x,y,z
x,1/2-y,1/2+z
1/2+x,1/2+y,z
1/2-x,-y,1/2+z
1/2+x,1/2-y,-z
1/2-x,y,1/2-z
1/2-x,1/2-y,-z
1/2+x,y,1/2-z
1/2-x,1/2+y,z
1/2+x,-y,1/2+z
loop_
_atom_site_type_symbol
_atom_site_label
_atom_site_fract_x
_atom_site_fract_y
_atom_site_fract_z
Si Si1 0.590403 0.111075 0.076940
Si Si2 0.831260 0.060821 0.894935
Si Si3 0.343152 0.284994 0.266275
O O1 0.500000 0.112782 0.184514
O O2 0.647224 0.101640 0.347821
O O3 0.601852 0.062058 0.850773
O O4 0.611427 0.163859 0.892419
O O5 0.750000 0.082051 0.750000
O O6 0.820969 0.000000 0.000000
O O7 0.367597 0.231218 0.448430
O O8 0.250000 0.297248 0.250000
#
# Coordination Sequence:
#
# PCOD8264346 Si02
#       3
#    16  16  16
#     4  12  26  43  69 104 140 178 223 284 349 405
#     4  12  26  46  71  98 132 181 233 279 336 409
#     4  10  22  41  66  97 134 178 226 275 328 396
#
# _framework density 24.532616999999998
#
# number of rings (size 3 to 8) (size 9 to 14) (size 15 to 20)
#    0.000    0.667    0.000    8.000    0.000   10.667 
#    0.000    0.000    0.000    0.000    0.000    0.000 
#    0.000    0.000    0.000    0.000    0.000    0.000 
#
# Total GULP energy -297485.112436 kJ/mol
# GULP energy per Si atom -12395.213018 kJ/mol
# Density = 2.447678 g / cm^3
# Si number density = 24.532617 Si / 1000 Ang^3
#
#
#
# Elastic Constant Matrix: (Units=GPa)
#
#
# Indices 1 2 3 4 5 6 
#
# 1 121.7855 50.5742 58.6668 0.0000 0.0000 0.0000
# 2 50.5742 89.4470 29.7576 0.0000 0.0000 0.0000
# 3 58.6668 29.7576 133.8753 0.0000 0.0000 0.0000
# 4 0.0000 0.0000 0.0000 28.3885 0.0000 0.0000
# 5 0.0000 0.0000 0.0000 0.0000 40.9063 0.0000
# 6 0.0000 0.0000 0.0000 0.0000 0.0000 13.0708
#
#
#
# Elastic Compliance Matrix: (Units=1/GPa)
#
#
# Indices 1 2 3 4 5 6 
#
# 1 0.012647 -0.005731 -0.004268 0.000000 0.000000 0.000000
# 2 -0.005731 0.014669 -0.000749 0.000000 0.000000 0.000000
# 3 -0.004268 -0.000749 0.009507 0.000000 0.000000 0.000000
# 4 0.000000 0.000000 0.000000 0.035226 0.000000 0.000000
# 5 0.000000 0.000000 0.000000 0.000000 0.024446 0.000000
# 6 0.000000 0.000000 0.000000 0.000000 0.000000 0.076507
#
#
# Mechanical properties :
#
#
# Convention : Reuss Voigt Hill
#
# Bulk Modulus (GPa) = 65.24799 69.23388 67.24093
# Shear Modulus (GPa) = 25.04919 30.21373 27.63146
#
# Velocity S-wave (km/s) = 3.19886 3.51319 3.35970
# Velocity P-wave (km/s) = 6.34806 6.68873 6.52062
#
# Compressibility (1/GPa) = 0.01532614
#
# Stress axis : x y z
#
# Youngs Moduli (GPa) = 79.06885 68.16931 105.18892
#
# Poissons Ratio (x) = 0.39067 0.44899
# Poissons Ratio (y) = 0.45313 0.07882
# Poissons Ratio (z) = 0.33750 0.05108
#
# Static dielectric constant tensor:
#      x y z
#    x 4.193250 0.000000 0.000000 
#    y 0.000000 4.299370 0.000000 
#    z 0.000000 0.000000 5.061560 
# 
# 
# High freq. dielectric constant tensor:
#      x y z
#    x 1.947990 0.000000 0.000000 
#    y 0.000000 1.979200 0.000000 
#    z 0.000000 0.000000 2.008840 
# 
# From -- ./inp_files/715.got.cif
#   From: 2010.03.12/outbox.cif.g09.slc.cpg/sg64_1_cif.got.tgz:715.got - 2010.04.10 20:19:32.
