data_PCOD8264703
_publ_section_title
;
Structure prediction by ZEFSAII (Michael W. Deem and Ramdas Pophale) SiO2 
 PCOD8264703
Probable space group: C M C A
;
_chemical_formula_sum "Si O2"
_cell_formula_units_Z 112
_cell_length_a 16.636228
_cell_length_b 32.221244
_cell_length_c 10.550229
_cell_angle_alpha 90.000000
_cell_angle_beta 90.000000
_cell_angle_gamma 90.000000
_cell_volume 5655.344348
_symmetry_space_group_name_H-M "C M C A"
_symmetry_group_IT_number 64
_symmetry_cell_setting 'orthorhombic'
loop_
_space_group_symop_operation_xyz
x,y,z
-x,1/2-y,1/2+z
x,-y,-z
-x,1/2+y,1/2-z
-x,-y,-z
x,1/2+y,1/2-z
-x,y,z
x,1/2-y,1/2+z
1/2+x,1/2+y,z
1/2-x,-y,1/2+z
1/2+x,1/2-y,-z
1/2-x,y,1/2-z
1/2-x,1/2-y,-z
1/2+x,y,1/2-z
1/2-x,1/2+y,z
1/2+x,-y,1/2+z
loop_
_atom_site_type_symbol
_atom_site_label
_atom_site_fract_x
_atom_site_fract_y
_atom_site_fract_z
Si Si1 0.849381 0.057092 0.514077
Si Si2 0.328257 0.038937 0.428046
Si Si3 0.909542 0.004484 0.306421
Si Si4 0.407549 0.121679 0.391014
Si Si5 0.595802 0.226445 0.143376
Si Si6 0.903990 0.286244 0.575681
Si Si7 0.407331 0.634831 0.400058
O O1 0.764278 0.040720 0.465297
O O2 0.869957 0.040475 0.655988
O O3 0.857788 0.106882 0.500856
O O4 0.916527 0.034971 0.426976
O O5 0.364469 0.083979 0.463984
O O6 0.369725 0.000000 0.500000
O O7 0.346725 0.028367 0.283252
O O8 0.000000 0.999027 0.249930
O O9 0.500000 0.118926 0.427667
O O10 0.372688 0.166329 0.435926
O O11 0.394933 0.116746 0.240643
O O12 0.500000 0.226835 0.142357
O O13 0.625417 0.233526 0.289119
O O14 0.626448 0.181673 0.094364
O O15 0.630246 0.260641 0.044897
O O16 0.000000 0.286258 0.576021
O O17 0.500000 0.634299 0.439938
#
# Coordination Sequence:
#
# PCOD8264703 Si02
#       7
#    16  16  16  16  16  16  16
#     4  11  21  34  56  77 105 140 182 229 275 320
#     4  12  24  36  54  78 110 144 186 229 279 335
#     4  11  22  37  56  78 105 142 184 232 276 321
#     4   9  18  31  49  72 103 139 176 220 267 323
#     4   8  14  25  46  74 101 131 169 220 271 322
#     4   8  14  27  46  71 100 131 170 216 271 322
#     4   9  16  29  51  77 102 133 180 226 264 316
#
# _framework density 19.804276000000002
#
# number of rings (size 3 to 8) (size 9 to 14) (size 15 to 20)
#    0.000    2.286    2.857    4.286    0.000    1.143 
#    0.000    1.429    0.000    4.286    0.000    0.000 
#    0.000    0.000    0.000    0.000    0.000    0.000 
#
# Total GULP energy -693769.651682 kJ/mol
# GULP energy per Si atom -12388.743780 kJ/mol
# Density = 1.975920 g / cm^3
# Si number density = 19.804276 Si / 1000 Ang^3
#
#
#
# Elastic Constant Matrix: (Units=GPa)
#
#
# Indices 1 2 3 4 5 6 
#
# 1 62.4965 26.2395 20.8882 0.0000 0.0000 0.0000
# 2 26.2395 151.3862 62.7060 0.0000 0.0000 0.0000
# 3 20.8882 62.7060 68.1713 0.0000 0.0000 0.0000
# 4 0.0000 0.0000 0.0000 39.8859 0.0000 0.0000
# 5 0.0000 0.0000 0.0000 0.0000 11.4641 0.0000
# 6 0.0000 0.0000 0.0000 0.0000 0.0000 13.9796
#
#
#
# Elastic Compliance Matrix: (Units=1/GPa)
#
#
# Indices 1 2 3 4 5 6 
#
# 1 0.017996 -0.001349 -0.004273 0.000000 0.000000 0.000000
# 2 -0.001349 0.010773 -0.009496 0.000000 0.000000 0.000000
# 3 -0.004273 -0.009496 0.024712 0.000000 0.000000 0.000000
# 4 0.000000 0.000000 0.000000 0.025071 0.000000 0.000000
# 5 0.000000 0.000000 0.000000 0.000000 0.087229 0.000000
# 6 0.000000 0.000000 0.000000 0.000000 0.000000 0.071533
#
#
# Mechanical properties :
#
#
# Convention : Reuss Voigt Hill
#
# Bulk Modulus (GPa) = 43.01956 55.74681 49.38318
# Shear Modulus (GPa) = 18.16216 24.54729 21.35472
#
# Velocity S-wave (km/s) = 3.03162 3.52446 3.28729
# Velocity P-wave (km/s) = 5.83299 6.69122 6.27679
#
# Compressibility (1/GPa) = 0.02324524
#
# Stress axis : x y z
#
# Youngs Moduli (GPa) = 55.56941 92.82747 40.46536
#
# Poissons Ratio (x) = 0.12525 0.17290
# Poissons Ratio (y) = 0.07498 0.38424
# Poissons Ratio (z) = 0.23744 0.88145
#
# Static dielectric constant tensor:
#      x y z
#    x 3.140570 0.000000 0.000000 
#    y 0.000000 3.945610 0.000000 
#    z 0.000000 0.000000 3.593190 
# 
# 
# High freq. dielectric constant tensor:
#      x y z
#    x 1.737930 0.000000 0.000000 
#    y 0.000000 1.779590 0.000000 
#    z 0.000000 0.000000 1.738880 
# 
# From -- ./inp_files/14996.got.cif
#   From: 2010.03.12/outbox.cif.g09.slc.cpg/sg64_8_cif.got.tgz:14996.got - 2010.04.10 20:19:32.
