data_PCOD8264112
_publ_section_title
;
Structure prediction by ZEFSAII (Michael W. Deem and Ramdas Pophale) SiO2 
 PCOD8264112
Probable space group: C M C A
;
_chemical_formula_sum "Si O2"
_cell_formula_units_Z 88
_cell_length_a 28.168771
_cell_length_b 16.695006
_cell_length_c 9.012586
_cell_angle_alpha 90.000000
_cell_angle_beta 90.000000
_cell_angle_gamma 90.000000
_cell_volume 4238.419124
_symmetry_space_group_name_H-M "C M C A"
_symmetry_group_IT_number 64
_symmetry_cell_setting 'orthorhombic'
loop_
_space_group_symop_operation_xyz
x,y,z
-x,1/2-y,1/2+z
x,-y,-z
-x,1/2+y,1/2-z
-x,-y,-z
x,1/2+y,1/2-z
-x,y,z
x,1/2-y,1/2+z
1/2+x,1/2+y,z
1/2-x,-y,1/2+z
1/2+x,1/2-y,-z
1/2-x,y,1/2-z
1/2-x,1/2-y,-z
1/2+x,y,1/2-z
1/2-x,1/2+y,z
1/2+x,-y,1/2+z
loop_
_atom_site_type_symbol
_atom_site_label
_atom_site_fract_x
_atom_site_fract_y
_atom_site_fract_z
Si Si1 0.784621 0.655003 0.950192
Si Si2 0.160892 0.500000 0.000000
Si Si3 0.811843 0.708541 0.640958
Si Si4 0.500000 0.364193 0.681795
Si Si5 0.407222 0.377569 0.063120
Si Si6 0.000000 0.216223 0.008704
Si Si7 0.909228 0.536784 0.260088
O O1 0.804334 0.566338 0.933641
O O2 0.803288 0.708722 0.815247
O O3 0.727092 0.653353 0.945527
O O4 0.805232 0.698693 0.095313
O O5 0.130390 0.536895 0.133149
O O6 0.864445 0.678193 0.612420
O O7 0.500000 0.311358 0.530469
O O8 0.544443 0.423881 0.687319
O O9 0.500000 0.298947 0.814810
O O10 0.453820 0.323774 0.061996
O O11 0.418184 0.446633 0.183298
O O12 0.393386 0.411461 0.901696
#
# Coordination Sequence:
#
# PCOD8264112 Si02
#       7
#    16   8  16   8  16   8  16
#     4  10  24  42  63  96 128 166 216 264 317 384
#     4  12  24  41  62 100 128 163 214 274 306 392
#     4  10  22  44  65  90 129 170 210 262 323 378
#     4  10  23  42  60  94 126 167 212 261 322 380
#     4  10  21  42  64  89 122 174 209 258 317 386
#     4  10  23  37  64  94 122 162 220 256 307 388
#     4  10  23  40  62  90 126 167 209 261 326 365
#
# _framework density 20.762457999999999
#
# number of rings (size 3 to 8) (size 9 to 14) (size 15 to 20)
#    0.000    1.818    1.818    0.545    5.091    6.909 
#    0.000    0.000    0.000    0.000    0.000    0.000 
#    0.000    0.000    0.000    0.000    0.000    0.000 
#
# Total GULP energy -545591.659123 kJ/mol
# GULP energy per Si atom -12399.810435 kJ/mol
# Density = 2.071520 g / cm^3
# Si number density = 20.762458 Si / 1000 Ang^3
#
#
#
# Elastic Constant Matrix: (Units=GPa)
#
#
# Indices 1 2 3 4 5 6 
#
# 1 133.2228 41.9324 24.4628 0.0000 0.0000 0.0000
# 2 41.9324 69.4195 25.5279 0.0000 0.0000 0.0000
# 3 24.4628 25.5279 69.5286 0.0000 0.0000 0.0000
# 4 0.0000 0.0000 0.0000 32.8199 0.0000 0.0000
# 5 0.0000 0.0000 0.0000 0.0000 24.5721 0.0000
# 6 0.0000 0.0000 0.0000 0.0000 0.0000 131.2371
#
#
#
# Elastic Compliance Matrix: (Units=1/GPa)
#
#
# Indices 1 2 3 4 5 6 
#
# 1 0.009387 -0.005151 -0.001411 0.000000 0.000000 0.000000
# 2 -0.005151 0.019480 -0.005340 0.000000 0.000000 0.000000
# 3 -0.001411 -0.005340 0.016840 0.000000 0.000000 0.000000
# 4 0.000000 0.000000 0.000000 0.030469 0.000000 0.000000
# 5 0.000000 0.000000 0.000000 0.000000 0.040697 0.000000
# 6 0.000000 0.000000 0.000000 0.000000 0.000000 0.007620
#
#
# Mechanical properties :
#
#
# Convention : Reuss Voigt Hill
#
# Bulk Modulus (GPa) = 45.65787 50.66856 48.16321
# Shear Modulus (GPa) = 32.13413 49.74233 40.93823
#
# Velocity S-wave (km/s) = 3.93835 4.89998 4.44525
# Velocity P-wave (km/s) = 6.53599 7.51465 7.04234
#
# Compressibility (1/GPa) = 0.02190203
#
# Stress axis : x y z
#
# Youngs Moduli (GPa) = 106.53412 51.33403 59.38320
#
# Poissons Ratio (x) = 0.26442 0.08381
# Poissons Ratio (y) = 0.54875 0.31711
# Poissons Ratio (z) = 0.15036 0.27412
#
# Static dielectric constant tensor:
#      x y z
#    x 3.802220 0.000000 0.000000 
#    y 0.000000 3.623390 0.000000 
#    z 0.000000 0.000000 3.774310 
# 
# 
# High freq. dielectric constant tensor:
#      x y z
#    x 1.821380 0.000000 0.000000 
#    y 0.000000 1.807740 0.000000 
#    z 0.000000 0.000000 1.814760 
# 
# From -- ./inp_files/11114.got.cif
#   From: 2010.03.12/outbox.cif.g09.slc.cpg/sg64_6_cif.got.tgz:11114.got - 2010.04.10 20:19:32.
