data_PCOD8264329
_publ_section_title
;
Structure prediction by ZEFSAII (Michael W. Deem and Ramdas Pophale) SiO2 
 PCOD8264329
Probable space group: C M C A
;
_chemical_formula_sum "Si O2"
_cell_formula_units_Z 88
_cell_length_a 14.554941
_cell_length_b 10.547117
_cell_length_c 27.137120
_cell_angle_alpha 90.000000
_cell_angle_beta 90.000000
_cell_angle_gamma 90.000000
_cell_volume 4165.891629
_symmetry_space_group_name_H-M "C M C A"
_symmetry_group_IT_number 64
_symmetry_cell_setting 'orthorhombic'
loop_
_space_group_symop_operation_xyz
x,y,z
-x,1/2-y,1/2+z
x,-y,-z
-x,1/2+y,1/2-z
-x,-y,-z
x,1/2+y,1/2-z
-x,y,z
x,1/2-y,1/2+z
1/2+x,1/2+y,z
1/2-x,-y,1/2+z
1/2+x,1/2-y,-z
1/2-x,y,1/2-z
1/2-x,1/2-y,-z
1/2+x,y,1/2-z
1/2-x,1/2+y,z
1/2+x,-y,1/2+z
loop_
_atom_site_type_symbol
_atom_site_label
_atom_site_fract_x
_atom_site_fract_y
_atom_site_fract_z
Si Si1 0.162320 0.697153 0.842235
Si Si2 0.750000 0.073439 0.750000
Si Si3 0.395575 0.531369 0.180256
Si Si4 0.000000 0.190497 0.430914
Si Si5 0.355577 0.500000 0.000000
Si Si6 0.500000 0.694818 0.033492
Si Si7 0.673994 0.644998 0.905756
Si Si8 0.500000 0.084645 0.889209
O O1 0.214206 0.664430 0.792444
O O2 0.103616 0.822363 0.833974
O O3 0.235115 0.716708 0.886859
O O4 0.091764 0.584128 0.855976
O O5 0.666880 0.988282 0.728847
O O6 0.500000 0.487657 0.191493
O O7 0.354220 0.458970 0.133888
O O8 0.091108 0.255313 0.409167
O O9 0.000000 0.206595 0.489010
O O10 0.000000 0.041226 0.421576
O O11 0.413703 0.399580 0.968142
O O12 0.299599 0.578849 0.958477
O O13 0.500000 0.782261 0.081233
#
# Coordination Sequence:
#
# PCOD8264329 Si02
#       8
#    16   8  16   8   8   8  16   8
#     4  11  25  43  65  94 128 160 216 267 328 376
#     4  10  26  44  62  98 124 162 206 276 326 392
#     4  11  22  43  70  90 126 166 216 260 322 388
#     4  10  22  41  63  93 133 173 210 257 318 373
#     4   9  18  38  70  95 128 172 226 251 308 385
#     4   9  19  38  64  94 131 171 220 258 305 380
#     4  10  22  41  65  97 126 174 213 260 305 383
#     4  12  24  41  61  97 131 169 204 272 331 363
#
# _framework density 21.123929
#
# number of rings (size 3 to 8) (size 9 to 14) (size 15 to 20)
#    0.000    1.636    1.818    2.455    6.364    0.000 
#    3.273    2.727    0.000    0.000    0.000    0.000 
#    0.000    0.000    0.000    0.000    0.000    0.000 
#
# Total GULP energy -545523.725498 kJ/mol
# GULP energy per Si atom -12398.266489 kJ/mol
# Density = 2.107585 g / cm^3
# Si number density = 21.123929 Si / 1000 Ang^3
#
#
#
# Elastic Constant Matrix: (Units=GPa)
#
#
# Indices 1 2 3 4 5 6 
#
# 1 100.7021 2.2882 30.5461 0.0000 0.0000 0.0000
# 2 2.2882 82.7127 16.9089 0.0000 0.0000 0.0000
# 3 30.5461 16.9089 99.3803 0.0000 0.0000 0.0000
# 4 0.0000 0.0000 0.0000 23.1609 0.0000 0.0000
# 5 0.0000 0.0000 0.0000 0.0000 27.1985 0.0000
# 6 0.0000 0.0000 0.0000 0.0000 0.0000 30.2022
#
#
#
# Elastic Compliance Matrix: (Units=1/GPa)
#
#
# Indices 1 2 3 4 5 6 
#
# 1 0.010964 0.000400 -0.003438 0.000000 0.000000 0.000000
# 2 0.000400 0.012540 -0.002256 0.000000 0.000000 0.000000
# 3 -0.003438 -0.002256 0.011503 0.000000 0.000000 0.000000
# 4 0.000000 0.000000 0.000000 0.043176 0.000000 0.000000
# 5 0.000000 0.000000 0.000000 0.000000 0.036767 0.000000
# 6 0.000000 0.000000 0.000000 0.000000 0.000000 0.033110
#
#
# Mechanical properties :
#
#
# Convention : Reuss Voigt Hill
#
# Bulk Modulus (GPa) = 40.95417 42.47571 41.71494
# Shear Modulus (GPa) = 29.97793 31.64910 30.81352
#
# Velocity S-wave (km/s) = 3.77124 3.87493 3.82344
# Velocity P-wave (km/s) = 6.19618 6.33811 6.26755
#
# Compressibility (1/GPa) = 0.02441754
#
# Stress axis : x y z
#
# Youngs Moduli (GPa) = 91.20727 79.74304 86.93396
#
# Poissons Ratio (x) = -0.03186 0.29887
# Poissons Ratio (y) = -0.03644 0.19616
# Poissons Ratio (z) = 0.31357 0.17994
#
# Static dielectric constant tensor:
#      x y z
#    x 3.894410 0.000000 0.000000 
#    y 0.000000 3.620450 0.000000 
#    z 0.000000 0.000000 3.927150 
# 
# 
# High freq. dielectric constant tensor:
#      x y z
#    x 1.827110 0.000000 0.000000 
#    y 0.000000 1.823290 0.000000 
#    z 0.000000 0.000000 1.835850 
# 
# From -- ./inp_files/49986.got.cif
#   From: 2010.03.12/outbox.cif.g09.slc.cpg/sg64_25_cif.got.tgz:49986.got - 2010.04.10 20:19:32.
