data_PCOD8264669
_publ_section_title
;
Structure prediction by ZEFSAII (Michael W. Deem and Ramdas Pophale) SiO2 
 PCOD8264669
Probable space group: C M C A
;
_chemical_formula_sum "Si O2"
_cell_formula_units_Z 80
_cell_length_a 13.413250
_cell_length_b 19.360170
_cell_length_c 17.308278
_cell_angle_alpha 90.000000
_cell_angle_beta 90.000000
_cell_angle_gamma 90.000000
_cell_volume 4494.662099
_symmetry_space_group_name_H-M "C M C A"
_symmetry_group_IT_number 64
_symmetry_cell_setting 'orthorhombic'
loop_
_space_group_symop_operation_xyz
x,y,z
-x,1/2-y,1/2+z
x,-y,-z
-x,1/2+y,1/2-z
-x,-y,-z
x,1/2+y,1/2-z
-x,y,z
x,1/2-y,1/2+z
1/2+x,1/2+y,z
1/2-x,-y,1/2+z
1/2+x,1/2-y,-z
1/2-x,y,1/2-z
1/2-x,1/2-y,-z
1/2+x,y,1/2-z
1/2-x,1/2+y,z
1/2+x,-y,1/2+z
loop_
_atom_site_type_symbol
_atom_site_label
_atom_site_fract_x
_atom_site_fract_y
_atom_site_fract_z
Si Si1 0.113354 0.928060 0.956103
Si Si2 0.727130 0.000261 0.666001
Si Si3 0.769714 0.316368 0.448213
Si Si4 0.384652 0.861177 0.310482
Si Si5 0.884308 0.893912 0.363204
O O1 0.184067 0.935633 0.881313
O O2 0.000000 0.909606 0.932601
O O3 0.156757 0.866992 0.006897
O O4 0.118607 0.000000 0.000000
O O5 0.750000 0.970069 0.750000
O O6 0.644986 0.061238 0.664958
O O7 0.830480 0.031504 0.632736
O O8 0.750000 0.250000 0.500000
O O9 0.822689 0.306145 0.363475
O O10 0.660001 0.347472 0.432180
O O11 0.500000 0.849409 0.328074
O O12 0.361631 0.855243 0.218786
O O13 0.000000 0.905990 0.377284
#
# Coordination Sequence:
#
# PCOD8264669 Si02
#       5
#    16  16  16  16  16
#     4  11  20  34  59  85 107 134 181 231 271 314
#     4   9  17  31  52  82 112 137 173 222 275 317
#     4  11  22  34  50  78 114 143 176 224 276 319
#     4   9  16  31  55  78 100 136 185 226 260 314
#     4   9  18  32  52  75 103 142 183 217 262 329
#
# _framework density 17.798891000000001
#
# number of rings (size 3 to 8) (size 9 to 14) (size 15 to 20)
#    0.000    2.200    4.000    3.000    0.000    2.400 
#    0.000    4.000    0.000    0.000    0.000    0.000 
#    0.000    0.000    0.000    0.000    0.000    0.000 
#
# Total GULP energy -495660.731334 kJ/mol
# GULP energy per Si atom -12391.518283 kJ/mol
# Density = 1.775838 g / cm^3
# Si number density = 17.798891 Si / 1000 Ang^3
#
#
#
# Elastic Constant Matrix: (Units=GPa)
#
#
# Indices 1 2 3 4 5 6 
#
# 1 145.8532 40.7916 56.0773 0.0000 0.0000 0.0000
# 2 40.7916 51.8833 32.1101 0.0000 0.0000 0.0000
# 3 56.0773 32.1101 83.8361 0.0000 0.0000 0.0000
# 4 0.0000 0.0000 0.0000 25.9309 0.0000 0.0000
# 5 0.0000 0.0000 0.0000 0.0000 33.5894 0.0000
# 6 0.0000 0.0000 0.0000 0.0000 0.0000 8.5025
#
#
#
# Elastic Compliance Matrix: (Units=1/GPa)
#
#
# Indices 1 2 3 4 5 6 
#
# 1 0.010109 -0.004932 -0.004873 0.000000 0.000000 0.000000
# 2 -0.004932 0.027669 -0.007298 0.000000 0.000000 0.000000
# 3 -0.004873 -0.007298 0.017983 0.000000 0.000000 0.000000
# 4 0.000000 0.000000 0.000000 0.038564 0.000000 0.000000
# 5 0.000000 0.000000 0.000000 0.000000 0.029771 0.000000
# 6 0.000000 0.000000 0.000000 0.000000 0.000000 0.117612
#
#
# Mechanical properties :
#
#
# Convention : Reuss Voigt Hill
#
# Bulk Modulus (GPa) = 46.39530 59.94785 53.17157
# Shear Modulus (GPa) = 17.66165 23.77747 20.71956
#
# Velocity S-wave (km/s) = 3.15348 3.65896 3.41558
# Velocity P-wave (km/s) = 6.27553 7.18362 6.74487
#
# Compressibility (1/GPa) = 0.02155391
#
# Stress axis : x y z
#
# Youngs Moduli (GPa) = 98.92049 36.14197 55.60889
#
# Poissons Ratio (x) = 0.17826 0.27097
# Poissons Ratio (y) = 0.48790 0.40585
# Poissons Ratio (z) = 0.48202 0.26377
#
# Static dielectric constant tensor:
#      x y z
#    x 3.567590 0.000000 0.000000 
#    y 0.000000 4.654600 0.000000 
#    z 0.000000 0.000000 3.921290 
# 
# 
# High freq. dielectric constant tensor:
#      x y z
#    x 1.705920 0.000000 0.000000 
#    y 0.000000 1.622410 0.000000 
#    z 0.000000 0.000000 1.697080 
# 
# From -- ./inp_files/32042.got.cif
#   From: 2010.03.12/outbox.cif.g09.slc.cpg/sg64_17_cif.got.tgz:32042.got - 2010.04.10 20:19:32.
