data_PCOD8264781
_publ_section_title
;
Structure prediction by ZEFSAII (Michael W. Deem and Ramdas Pophale) SiO2 
 PCOD8264781
Probable space group: C M C A
;
_chemical_formula_sum "Si O2"
_cell_formula_units_Z 72
_cell_length_a 28.426049
_cell_length_b 4.810309
_cell_length_c 23.693492
_cell_angle_alpha 90.000000
_cell_angle_beta 90.000000
_cell_angle_gamma 90.000000
_cell_volume 3239.802589
_symmetry_space_group_name_H-M "C M C A"
_symmetry_group_IT_number 64
_symmetry_cell_setting 'orthorhombic'
loop_
_space_group_symop_operation_xyz
x,y,z
-x,1/2-y,1/2+z
x,-y,-z
-x,1/2+y,1/2-z
-x,-y,-z
x,1/2+y,1/2-z
-x,y,z
x,1/2-y,1/2+z
1/2+x,1/2+y,z
1/2-x,-y,1/2+z
1/2+x,1/2-y,-z
1/2-x,y,1/2-z
1/2-x,1/2-y,-z
1/2+x,y,1/2-z
1/2-x,1/2+y,z
1/2+x,-y,1/2+z
loop_
_atom_site_type_symbol
_atom_site_label
_atom_site_fract_x
_atom_site_fract_y
_atom_site_fract_z
Si Si1 0.375049 0.852524 0.786783
Si Si2 0.405530 0.401570 0.401519
Si Si3 0.648590 0.886539 0.439238
Si Si4 0.217533 0.856190 0.647881
Si Si5 0.000000 0.754257 0.457806
O O1 0.387741 0.543042 0.767079
O O2 0.319586 0.841064 0.801243
O O3 0.405704 0.951244 0.840285
O O4 0.392433 0.651771 0.445360
O O5 0.455144 0.264586 0.416736
O O6 0.367581 0.150357 0.401495
O O7 0.692086 0.726512 0.410701
O O8 0.663447 0.000000 0.500000
O O9 0.264025 0.669788 0.651669
O O10 0.000000 0.500000 0.500000
O O11 0.000000 0.000000 0.500000
#
# Coordination Sequence:
#
# PCOD8264781 Si02
#       5
#    16  16  16  16   8
#     4  11  23  41  63  85 119 165 206 257 320 369
#     4  11  23  41  62  94 127 161 214 263 312 387
#     4  11  22  39  62  87 128 173 206 255 326 390
#     4  11  23  38  58  90 122 156 213 267 307 371
#     4  12  24  40  68 100 130 162 204 258 315 378
#
# _framework density 22.223576000000001
#
# number of rings (size 3 to 8) (size 9 to 14) (size 15 to 20)
#    0.000    0.889    0.000   10.667    0.000    3.556 
#    0.000    1.111    0.000    0.000    0.000    0.000 
#    0.000    0.000    0.000    0.000    0.000    0.000 
#
# Total GULP energy -446247.743047 kJ/mol
# GULP energy per Si atom -12395.770640 kJ/mol
# Density = 2.217299 g / cm^3
# Si number density = 22.223576 Si / 1000 Ang^3
#
#
#
# Elastic Constant Matrix: (Units=GPa)
#
#
# Indices 1 2 3 4 5 6 
#
# 1 78.4842 24.9262 28.3403 0.0000 0.0000 0.0000
# 2 24.9262 104.8810 28.0929 0.0000 0.0000 0.0000
# 3 28.3403 28.0929 101.2782 0.0000 0.0000 0.0000
# 4 0.0000 0.0000 0.0000 53.0822 0.0000 0.0000
# 5 0.0000 0.0000 0.0000 0.0000 32.1740 0.0000
# 6 0.0000 0.0000 0.0000 0.0000 0.0000 36.7153
#
#
#
# Elastic Compliance Matrix: (Units=1/GPa)
#
#
# Indices 1 2 3 4 5 6 
#
# 1 0.014803 -0.002602 -0.003421 0.000000 0.000000 0.000000
# 2 -0.002602 0.010757 -0.002256 0.000000 0.000000 0.000000
# 3 -0.003421 -0.002256 0.011457 0.000000 0.000000 0.000000
# 4 0.000000 0.000000 0.000000 0.018839 0.000000 0.000000
# 5 0.000000 0.000000 0.000000 0.000000 0.031081 0.000000
# 6 0.000000 0.000000 0.000000 0.000000 0.000000 0.027237
#
#
# Mechanical properties :
#
#
# Convention : Reuss Voigt Hill
#
# Bulk Modulus (GPa) = 48.87497 49.70693 49.29095
# Shear Modulus (GPa) = 36.35051 37.94655 37.14853
#
# Velocity S-wave (km/s) = 4.04873 4.13666 4.09293
# Velocity P-wave (km/s) = 6.62544 6.72542 6.67562
#
# Compressibility (1/GPa) = 0.02046037
#
# Stress axis : x y z
#
# Youngs Moduli (GPa) = 67.55431 92.96092 87.28547
#
# Poissons Ratio (x) = 0.24187 0.29856
# Poissons Ratio (y) = 0.17577 0.19690
# Poissons Ratio (z) = 0.23107 0.20970
#
# Static dielectric constant tensor:
#      x y z
#    x 3.435530 0.000000 0.000000 
#    y 0.000000 4.374650 0.000000 
#    z 0.000000 0.000000 3.827980 
# 
# 
# High freq. dielectric constant tensor:
#      x y z
#    x 1.846660 0.000000 0.000000 
#    y 0.000000 1.906730 0.000000 
#    z 0.000000 0.000000 1.871220 
# 
# From -- ./inp_files/51167.got.cif
#   From: 2010.03.12/outbox.cif.g09.slc.cpg/sg64_26_cif.got.tgz:51167.got - 2010.04.10 20:19:32.
