data_PCOD8264544
_publ_section_title
;
Structure prediction by ZEFSAII (Michael W. Deem and Ramdas Pophale) SiO2 
 PCOD8264544
Probable space group: C M C A
;
_chemical_formula_sum "Si O2"
_cell_formula_units_Z 64
_cell_length_a 13.335769
_cell_length_b 16.498255
_cell_length_c 11.702715
_cell_angle_alpha 90.000000
_cell_angle_beta 90.000000
_cell_angle_gamma 90.000000
_cell_volume 2574.795282
_symmetry_space_group_name_H-M "C M C A"
_symmetry_group_IT_number 64
_symmetry_cell_setting 'orthorhombic'
loop_
_space_group_symop_operation_xyz
x,y,z
-x,1/2-y,1/2+z
x,-y,-z
-x,1/2+y,1/2-z
-x,-y,-z
x,1/2+y,1/2-z
-x,y,z
x,1/2-y,1/2+z
1/2+x,1/2+y,z
1/2-x,-y,1/2+z
1/2+x,1/2-y,-z
1/2-x,y,1/2-z
1/2-x,1/2-y,-z
1/2+x,y,1/2-z
1/2-x,1/2+y,z
1/2+x,-y,1/2+z
loop_
_atom_site_type_symbol
_atom_site_label
_atom_site_fract_x
_atom_site_fract_y
_atom_site_fract_z
Si Si1 0.619591 0.384182 0.952244
Si Si2 0.274645 0.066599 0.877843
Si Si3 0.615531 0.294302 0.502155
Si Si4 0.115986 0.588433 0.193919
O O1 0.500000 0.392194 0.965241
O O2 0.672415 0.440347 0.047146
O O3 0.664321 0.294032 0.979686
O O4 0.657382 0.407755 0.824162
O O5 0.250000 0.090199 0.750000
O O6 0.328143 0.978706 0.883106
O O7 0.347966 0.137064 0.916979
O O8 0.500000 0.280875 0.474026
O O9 0.631818 0.324518 0.632945
O O10 0.000000 0.564511 0.197860
#
# Coordination Sequence:
#
# PCOD8264544 Si02
#       4
#    16  16  16  16
#     4  10  25  48  74 107 145 188 238 299 361 422
#     4  12  27  41  69 109 144 189 239 293 355 431
#     4  10  23  46  75 103 139 187 242 299 359 423
#     4  10  24  46  74 104 143 189 238 295 357 426
#
# _framework density 24.856345000000001
#
# number of rings (size 3 to 8) (size 9 to 14) (size 15 to 20)
#    0.000    1.500    0.000    2.250   10.500    4.000 
#    0.000    2.500    0.000    0.000    0.000    0.000 
#    0.000    0.000    0.000    0.000    0.000    0.000 
#
# Total GULP energy -396928.977223 kJ/mol
# GULP energy per Si atom -12404.030538 kJ/mol
# Density = 2.479977 g / cm^3
# Si number density = 24.856345 Si / 1000 Ang^3
#
#
#
# Elastic Constant Matrix: (Units=GPa)
#
#
# Indices 1 2 3 4 5 6 
#
# 1 44.2676 52.8615 58.0437 0.0000 0.0000 0.0000
# 2 52.8615 130.7834 72.3789 0.0000 0.0000 0.0000
# 3 58.0437 72.3789 164.6217 0.0000 0.0000 0.0000
# 4 0.0000 0.0000 0.0000 37.1159 0.0000 0.0000
# 5 0.0000 0.0000 0.0000 0.0000 53.0358 0.0000
# 6 0.0000 0.0000 0.0000 0.0000 0.0000 42.3191
#
#
#
# Elastic Compliance Matrix: (Units=1/GPa)
#
#
# Indices 1 2 3 4 5 6 
#
# 1 0.061546 -0.017004 -0.014224 0.000000 0.000000 0.000000
# 2 -0.017004 0.014803 -0.000513 0.000000 0.000000 0.000000
# 3 -0.014224 -0.000513 0.011315 0.000000 0.000000 0.000000
# 4 0.000000 0.000000 0.000000 0.026943 0.000000 0.000000
# 5 0.000000 0.000000 0.000000 0.000000 0.018855 0.000000
# 6 0.000000 0.000000 0.000000 0.000000 0.000000 0.023630
#
#
# Mechanical properties :
#
#
# Convention : Reuss Voigt Hill
#
# Bulk Modulus (GPa) = 41.35359 78.47120 59.91240
# Shear Modulus (GPa) = 21.86878 36.92006 29.39442
#
# Velocity S-wave (km/s) = 2.96937 3.85819 3.44259
# Velocity P-wave (km/s) = 5.33192 7.17537 6.32121
#
# Compressibility (1/GPa) = 0.02418169
#
# Stress axis : x y z
#
# Youngs Moduli (GPa) = 16.24790 67.55322 88.37566
#
# Poissons Ratio (x) = 1.14871 1.25708
# Poissons Ratio (y) = 0.27629 0.04533
# Poissons Ratio (z) = 0.23111 0.03465
#
# Static dielectric constant tensor:
#      x y z
#    x 4.663550 0.000000 0.000000 
#    y 0.000000 4.633340 0.000000 
#    z 0.000000 0.000000 4.617060 
# 
# 
# High freq. dielectric constant tensor:
#      x y z
#    x 2.016960 0.000000 0.000000 
#    y 0.000000 2.003990 0.000000 
#    z 0.000000 0.000000 1.995280 
# 
# From -- ./inp_files/14045.got.cif
#   From: 2010.03.12/outbox.cif.g09.slc.cpg/sg64_8_cif.got.tgz:14045.got - 2010.04.10 20:19:32.
