data_PCOD8264151
_publ_section_title
;
Structure prediction by ZEFSAII (Michael W. Deem and Ramdas Pophale) SiO2 
 PCOD8264151
Probable space group: C M C A
;
_chemical_formula_sum "Si O2"
_cell_formula_units_Z 112
_cell_length_a 27.266128
_cell_length_b 12.398514
_cell_length_c 17.714941
_cell_angle_alpha 90.000000
_cell_angle_beta 90.000000
_cell_angle_gamma 90.000000
_cell_volume 5988.703561
_symmetry_space_group_name_H-M "C M C A"
_symmetry_group_IT_number 64
_symmetry_cell_setting 'orthorhombic'
loop_
_space_group_symop_operation_xyz
x,y,z
-x,1/2-y,1/2+z
x,-y,-z
-x,1/2+y,1/2-z
-x,-y,-z
x,1/2+y,1/2-z
-x,y,z
x,1/2-y,1/2+z
1/2+x,1/2+y,z
1/2-x,-y,1/2+z
1/2+x,1/2-y,-z
1/2-x,y,1/2-z
1/2-x,1/2-y,-z
1/2+x,y,1/2-z
1/2-x,1/2+y,z
1/2+x,-y,1/2+z
loop_
_atom_site_type_symbol
_atom_site_label
_atom_site_fract_x
_atom_site_fract_y
_atom_site_fract_z
Si Si1 0.302012 0.016132 0.163457
Si Si2 0.554010 0.736240 0.932923
Si Si3 0.309016 0.933292 0.669051
Si Si4 0.865289 0.110307 0.463377
Si Si5 0.845248 0.293315 0.118765
Si Si6 0.946326 0.701684 0.389775
Si Si7 0.100364 0.483493 0.411333
O O1 0.318681 0.070929 0.241351
O O2 0.243771 0.014980 0.153297
O O3 0.322149 0.086875 0.094909
O O4 0.322649 0.894297 0.162699
O O5 0.500000 0.761251 0.899561
O O6 0.589945 0.836459 0.917126
O O7 0.575175 0.629962 0.892675
O O8 0.550430 0.719540 0.021629
O O9 0.313168 0.812185 0.636628
O O10 0.346878 0.013247 0.628534
O O11 0.843851 0.188845 0.528196
O O12 0.885460 0.000000 0.500000
O O13 0.902388 0.275329 0.144317
O O14 0.933969 0.576261 0.375853
O O15 0.000000 0.728598 0.353491
O O16 0.108431 0.500000 0.500000
#
# Coordination Sequence:
#
# PCOD8264151 Si02
#       7
#    16  16  16  16  16  16  16
#     4  10  22  37  53  75 102 138 178 214 258 316
#     4   9  16  27  49  79 105 131 166 211 257 298
#     4  10  22  36  54  77 103 139 175 213 269 320
#     4   9  19  35  53  75 106 140 178 219 255 304
#     4   9  19  36  54  77 105 134 174 217 259 307
#     4   8  14  28  51  76 103 134 167 205 251 303
#     4   9  17  29  49  79 106 130 168 213 255 303
#
# _framework density 18.701875999999999
#
# number of rings (size 3 to 8) (size 9 to 14) (size 15 to 20)
#    0.000    2.857    0.000    1.286    0.000    8.857 
#    0.000    2.143    0.000   12.000    0.000    0.000 
#    0.000    0.000    0.000    0.000    0.000    0.000 
#
# Total GULP energy -694202.629477 kJ/mol
# GULP energy per Si atom -12396.475526 kJ/mol
# Density = 1.865931 g / cm^3
# Si number density = 18.701876 Si / 1000 Ang^3
#
#
#
# Elastic Constant Matrix: (Units=GPa)
#
#
# Indices 1 2 3 4 5 6 
#
# 1 142.9888 63.8831 40.0116 0.0000 0.0000 0.0000
# 2 63.8831 104.7990 33.1058 0.0000 0.0000 0.0000
# 3 40.0116 33.1058 51.7372 0.0000 0.0000 0.0000
# 4 0.0000 0.0000 0.0000 19.9790 0.0000 0.0000
# 5 0.0000 0.0000 0.0000 0.0000 10.8355 0.0000
# 6 0.0000 0.0000 0.0000 0.0000 0.0000 28.2734
#
#
#
# Elastic Compliance Matrix: (Units=1/GPa)
#
#
# Indices 1 2 3 4 5 6 
#
# 1 0.010580 -0.004844 -0.005083 0.000000 0.000000 0.000000
# 2 -0.004844 0.014177 -0.005326 0.000000 0.000000 0.000000
# 3 -0.005083 -0.005326 0.026667 0.000000 0.000000 0.000000
# 4 0.000000 0.000000 0.000000 0.050053 0.000000 0.000000
# 5 0.000000 0.000000 0.000000 0.000000 0.092290 0.000000
# 6 0.000000 0.000000 0.000000 0.000000 0.000000 0.035369
#
#
# Mechanical properties :
#
#
# Convention : Reuss Voigt Hill
#
# Bulk Modulus (GPa) = 47.80163 63.72509 55.76336
# Shear Modulus (GPa) = 18.75381 22.65253 20.70317
#
# Velocity S-wave (km/s) = 3.17010 3.48407 3.33079
# Velocity P-wave (km/s) = 6.24617 7.09458 6.68385
#
# Compressibility (1/GPa) = 0.02091979
#
# Stress axis : x y z
#
# Youngs Moduli (GPa) = 94.51999 70.53663 37.49935
#
# Poissons Ratio (x) = 0.34165 0.19060
# Poissons Ratio (y) = 0.45782 0.19971
# Poissons Ratio (z) = 0.48041 0.37567
#
# Static dielectric constant tensor:
#      x y z
#    x 3.732200 0.000000 0.000000 
#    y 0.000000 3.476460 0.000000 
#    z 0.000000 0.000000 3.178060 
# 
# 
# High freq. dielectric constant tensor:
#      x y z
#    x 1.733450 0.000000 0.000000 
#    y 0.000000 1.725710 0.000000 
#    z 0.000000 0.000000 1.691820 
# 
# From -- ./inp_files/41542.got.cif
#   From: 2010.03.12/outbox.cif.g09.slc.cpg/sg64_21_cif.got.tgz:41542.got - 2010.04.10 20:19:32.
