data_PCOD8264049
_publ_section_title
;
Structure prediction by ZEFSAII (Michael W. Deem and Ramdas Pophale) SiO2 
 PCOD8264049
Probable space group: C M C A
;
_chemical_formula_sum "Si O2"
_cell_formula_units_Z 88
_cell_length_a 23.124910
_cell_length_b 11.586594
_cell_length_c 14.961320
_cell_angle_alpha 90.000000
_cell_angle_beta 90.000000
_cell_angle_gamma 90.000000
_cell_volume 4008.720274
_symmetry_space_group_name_H-M "C M C A"
_symmetry_group_IT_number 64
_symmetry_cell_setting 'orthorhombic'
loop_
_space_group_symop_operation_xyz
x,y,z
-x,1/2-y,1/2+z
x,-y,-z
-x,1/2+y,1/2-z
-x,-y,-z
x,1/2+y,1/2-z
-x,y,z
x,1/2-y,1/2+z
1/2+x,1/2+y,z
1/2-x,-y,1/2+z
1/2+x,1/2-y,-z
1/2-x,y,1/2-z
1/2-x,1/2-y,-z
1/2+x,y,1/2-z
1/2-x,1/2+y,z
1/2+x,-y,1/2+z
loop_
_atom_site_type_symbol
_atom_site_label
_atom_site_fract_x
_atom_site_fract_y
_atom_site_fract_z
Si Si1 0.750000 0.067993 0.750000
Si Si2 0.937242 0.552023 0.901416
Si Si3 0.934100 0.789738 0.819208
Si Si4 0.851222 0.787950 0.164695
Si Si5 0.178650 0.049437 0.399117
Si Si6 0.936862 0.028061 0.899498
O O1 0.800406 0.149273 0.783902
O O2 0.769972 0.989291 0.666473
O O3 0.928895 0.690671 0.896418
O O4 0.881742 0.495398 0.853770
O O5 0.000000 0.519895 0.857195
O O6 0.936597 0.500000 0.000000
O O7 0.894376 0.764240 0.736033
O O8 0.000000 0.797924 0.786502
O O9 0.912306 0.912175 0.854877
O O10 0.824596 0.688709 0.100148
O O11 0.888341 0.874680 0.105092
O O12 0.188340 0.000000 0.500000
O O13 0.000000 0.065072 0.857933
O O14 0.949191 0.000000 0.000000
#
# Coordination Sequence:
#
# PCOD8264049 Si02
#       6
#     8  16  16  16  16  16
#     4  12  26  48  68 102 136 174 236 298 346 402
#     4   9  19  37  67 101 134 172 219 277 337 408
#     4  10  21  40  65  98 138 177 223 275 341 417
#     4  12  25  43  69  94 134 178 226 284 343 410
#     4  11  26  46  71 103 133 180 236 288 347 415
#     4  10  24  42  65 100 139 175 214 269 340 409
#
# _framework density 21.952143
#
# number of rings (size 3 to 8) (size 9 to 14) (size 15 to 20)
#    0.000    1.455    1.818    2.182    5.091    2.909 
#    0.000    0.000    0.000    0.000    0.000    0.000 
#    0.000    0.000    0.000    0.000    0.000    0.000 
#
# Total GULP energy -545231.790177 kJ/mol
# GULP energy per Si atom -12391.631595 kJ/mol
# Density = 2.190218 g / cm^3
# Si number density = 21.952143 Si / 1000 Ang^3
#
#
#
# Elastic Constant Matrix: (Units=GPa)
#
#
# Indices 1 2 3 4 5 6 
#
# 1 88.6748 39.5031 40.0206 0.0000 0.0000 0.0000
# 2 39.5031 146.8132 57.7554 0.0000 0.0000 0.0000
# 3 40.0206 57.7554 102.6231 0.0000 0.0000 0.0000
# 4 0.0000 0.0000 0.0000 37.6123 0.0000 0.0000
# 5 0.0000 0.0000 0.0000 0.0000 29.4476 0.0000
# 6 0.0000 0.0000 0.0000 0.0000 0.0000 -18.4517
#
#
#
# Elastic Compliance Matrix: (Units=1/GPa)
#
#
# Indices 1 2 3 4 5 6 
#
# 1 0.014175 -0.002106 -0.004343 0.000000 0.000000 0.000000
# 2 -0.002106 0.009061 -0.004278 0.000000 0.000000 0.000000
# 3 -0.004343 -0.004278 0.013846 0.000000 0.000000 0.000000
# 4 0.000000 0.000000 0.000000 0.026587 0.000000 0.000000
# 5 0.000000 0.000000 0.000000 0.000000 0.033959 0.000000
# 6 0.000000 0.000000 0.000000 0.000000 0.000000 -0.054195
#
#
# Mechanical properties :
#
#
# Convention : Reuss Voigt Hill
#
# Bulk Modulus (GPa) = 63.98666 68.07436 66.03051
# Shear Modulus (GPa) = 71.33115 23.11043 47.22079
#
# Velocity S-wave (km/s) = 5.70653 3.24815 4.64300
# Velocity P-wave (km/s) = 8.52237 6.71900 7.67385
#
# Compressibility (1/GPa) = 0.01562826
#
# Stress axis : x y z
#
# Youngs Moduli (GPa) = 70.54546 110.36314 72.22388
#
# Poissons Ratio (x) = 0.23239 0.31367
# Poissons Ratio (y) = 0.14854 0.30900
# Poissons Ratio (z) = 0.30638 0.47217
#
# Static dielectric constant tensor:
#      x y z
#    x 4.442190 0.000000 0.000000 
#    y 0.000000 4.031410 0.000000 
#    z 0.000000 0.000000 3.918620 
# 
# 
# High freq. dielectric constant tensor:
#      x y z
#    x 1.872450 0.000000 0.000000 
#    y 0.000000 1.874180 0.000000 
#    z 0.000000 0.000000 1.848500 
# 
# From -- ./inp_files/27195.got.cif
#   From: 2010.03.12/outbox.cif.g09.slc.cpg/sg64_14_cif.got.tgz:27195.got - 2010.04.10 20:19:32.
