data_PCOD8264187
_publ_section_title
;
Structure prediction by ZEFSAII (Michael W. Deem and Ramdas Pophale) SiO2 
 PCOD8264187
Probable space group: C M C A
;
_chemical_formula_sum "Si O2"
_cell_formula_units_Z 96
_cell_length_a 8.904759
_cell_length_b 29.838885
_cell_length_c 18.721150
_cell_angle_alpha 90.000000
_cell_angle_beta 90.000000
_cell_angle_gamma 90.000000
_cell_volume 4974.360817
_symmetry_space_group_name_H-M "C M C A"
_symmetry_group_IT_number 64
_symmetry_cell_setting 'orthorhombic'
loop_
_space_group_symop_operation_xyz
x,y,z
-x,1/2-y,1/2+z
x,-y,-z
-x,1/2+y,1/2-z
-x,-y,-z
x,1/2+y,1/2-z
-x,y,z
x,1/2-y,1/2+z
1/2+x,1/2+y,z
1/2-x,-y,1/2+z
1/2+x,1/2-y,-z
1/2-x,y,1/2-z
1/2-x,1/2-y,-z
1/2+x,y,1/2-z
1/2-x,1/2+y,z
1/2+x,-y,1/2+z
loop_
_atom_site_type_symbol
_atom_site_label
_atom_site_fract_x
_atom_site_fract_y
_atom_site_fract_z
Si Si1 0.323482 0.613313 0.176440
Si Si2 0.673417 0.656960 0.575355
Si Si3 0.677256 0.435290 0.056326
Si Si4 0.324767 0.029984 0.406379
Si Si5 0.323605 0.761967 0.172870
Si Si6 0.177640 0.685197 0.080423
O O1 0.500000 0.623838 0.177876
O O2 0.250000 0.628519 0.250000
O O3 0.289608 0.560513 0.162663
O O4 0.244683 0.640284 0.113812
O O5 0.500000 0.645299 0.569844
O O6 0.755637 0.610061 0.588072
O O7 0.709347 0.688350 0.643178
O O8 0.722143 0.683037 0.503136
O O9 0.500000 0.428645 0.057913
O O10 0.731278 0.478649 0.103659
O O11 0.740840 0.445315 0.976778
O O12 0.500000 0.026987 0.421634
O O13 0.500000 0.752283 0.179419
O O14 0.250000 0.755872 0.250000
O O15 0.254497 0.727771 0.116273
O O16 0.000000 0.687730 0.092813
#
# Coordination Sequence:
#
# PCOD8264187 Si02
#       6
#    16  16  16  16  16  16
#     4  11  21  35  54  80 115 153 189 231 282 336
#     4  10  22  38  58  87 117 143 182 235 283 331
#     4   9  16  32  58  83 107 142 186 228 272 325
#     4   8  16  31  53  80 109 143 185 227 269 324
#     4  11  24  42  60  81 112 149 187 230 280 336
#     4  11  22  38  59  85 113 144 185 232 283 338
#
# _framework density 19.298962
#
# number of rings (size 3 to 8) (size 9 to 14) (size 15 to 20)
#    0.000    2.000    1.667    3.500    0.000    2.000 
#    0.000    4.167    0.000    4.000    0.000    0.000 
#    0.000    0.000    0.000    0.000    0.000    0.000 
#
# Total GULP energy -594992.440851 kJ/mol
# GULP energy per Si atom -12395.675851 kJ/mol
# Density = 1.925504 g / cm^3
# Si number density = 19.298962 Si / 1000 Ang^3
#
#
#
# Elastic Constant Matrix: (Units=GPa)
#
#
# Indices 1 2 3 4 5 6 
#
# 1 69.2218 39.7956 23.1052 0.0000 0.0000 0.0000
# 2 39.7956 120.7830 15.4524 0.0000 0.0000 0.0000
# 3 23.1052 15.4524 47.0611 0.0000 0.0000 0.0000
# 4 0.0000 0.0000 0.0000 20.9957 0.0000 0.0000
# 5 0.0000 0.0000 0.0000 0.0000 18.8156 0.0000
# 6 0.0000 0.0000 0.0000 0.0000 0.0000 33.0032
#
#
#
# Elastic Compliance Matrix: (Units=1/GPa)
#
#
# Indices 1 2 3 4 5 6 
#
# 1 0.020445 -0.005691 -0.008169 0.000000 0.000000 0.000000
# 2 -0.005691 0.010227 -0.000564 0.000000 0.000000 0.000000
# 3 -0.008169 -0.000564 0.025445 0.000000 0.000000 0.000000
# 4 0.000000 0.000000 0.000000 0.047629 0.000000 0.000000
# 5 0.000000 0.000000 0.000000 0.000000 0.053147 0.000000
# 6 0.000000 0.000000 0.000000 0.000000 0.000000 0.030300
#
#
# Mechanical properties :
#
#
# Convention : Reuss Voigt Hill
#
# Bulk Modulus (GPa) = 36.67240 43.75249 40.21244
# Shear Modulus (GPa) = 22.20946 25.14375 23.67660
#
# Velocity S-wave (km/s) = 3.39604 3.61342 3.50642
# Velocity P-wave (km/s) = 5.86694 6.33476 6.10533
#
# Compressibility (1/GPa) = 0.02726847
#
# Stress axis : x y z
#
# Youngs Moduli (GPa) = 48.91227 97.78499 39.30089
#
# Poissons Ratio (x) = 0.55650 0.32105
# Poissons Ratio (y) = 0.27836 0.02216
# Poissons Ratio (z) = 0.39956 0.05513
#
# Static dielectric constant tensor:
#      x y z
#    x 3.388420 0.000000 0.000000 
#    y 0.000000 3.770010 0.000000 
#    z 0.000000 0.000000 3.379740 
# 
# 
# High freq. dielectric constant tensor:
#      x y z
#    x 1.738760 0.000000 0.000000 
#    y 0.000000 1.766780 0.000000 
#    z 0.000000 0.000000 1.733730 
# 
# From -- ./inp_files/37091.got.cif
#   From: 2010.03.12/outbox.cif.g09.slc.cpg/sg64_19_cif.got.tgz:37091.got - 2010.04.10 20:19:32.
