data_PCOD8264770
_publ_section_title
;
Structure prediction by ZEFSAII (Michael W. Deem and Ramdas Pophale) SiO2 
 PCOD8264770
Probable space group: C M C A
;
_chemical_formula_sum "Si O2"
_cell_formula_units_Z 112
_cell_length_a 15.433322
_cell_length_b 24.601537
_cell_length_c 14.378960
_cell_angle_alpha 90.000000
_cell_angle_beta 90.000000
_cell_angle_gamma 90.000000
_cell_volume 5459.453028
_symmetry_space_group_name_H-M "C M C A"
_symmetry_group_IT_number 64
_symmetry_cell_setting 'orthorhombic'
loop_
_space_group_symop_operation_xyz
x,y,z
-x,1/2-y,1/2+z
x,-y,-z
-x,1/2+y,1/2-z
-x,-y,-z
x,1/2+y,1/2-z
-x,y,z
x,1/2-y,1/2+z
1/2+x,1/2+y,z
1/2-x,-y,1/2+z
1/2+x,1/2-y,-z
1/2-x,y,1/2-z
1/2-x,1/2-y,-z
1/2+x,y,1/2-z
1/2-x,1/2+y,z
1/2+x,-y,1/2+z
loop_
_atom_site_type_symbol
_atom_site_label
_atom_site_fract_x
_atom_site_fract_y
_atom_site_fract_z
Si Si1 0.404420 0.816758 0.651035
Si Si2 0.697239 0.923148 0.661175
Si Si3 0.148716 0.786672 0.238046
Si Si4 0.097839 0.597634 0.823040
Si Si5 0.319812 0.793080 0.465136
Si Si6 0.401381 0.028454 0.642064
Si Si7 0.249546 0.590515 0.539543
O O1 0.500000 0.840648 0.663383
O O2 0.337420 0.862791 0.683122
O O3 0.397254 0.762258 0.709900
O O4 0.391411 0.802581 0.543101
O O5 0.750000 0.943849 0.750000
O O6 0.759847 0.921798 0.570342
O O7 0.617760 0.964252 0.645351
O O8 0.250000 0.781722 0.250000
O O9 0.115659 0.843544 0.278492
O O10 0.128406 0.777620 0.128650
O O11 0.110365 0.553070 0.743861
O O12 0.161756 0.578255 0.905569
O O13 0.000000 0.597120 0.862678
O O14 0.250000 0.750000 0.500000
O O15 0.266277 0.846687 0.440891
O O16 0.500000 0.037320 0.605726
O O17 0.333124 0.056249 0.573243
#
# Coordination Sequence:
#
# PCOD8264770 Si02
#       7
#    16  16  16  16  16  16  16
#     4  11  25  40  58  91 130 165 211 265 320 392
#     4  11  25  43  65  86 128 176 217 259 324 397
#     4  12  20  39  67  90 126 166 213 262 324 388
#     4  11  22  39  66 100 130 161 213 275 324 380
#     4  11  22  37  65  91 123 168 207 259 321 387
#     4  11  23  41  69 101 128 161 212 274 329 384
#     4  11  22  40  66  94 125 170 212 264 326 379
#
# _framework density 20.514875
#
# number of rings (size 3 to 8) (size 9 to 14) (size 15 to 20)
#    0.000    0.857    4.286    3.000    2.000    4.571 
#    0.000    1.429    0.000    3.429    0.000    0.000 
#    0.000    0.000    0.000    0.000    0.000    0.000 
#
# Total GULP energy -694433.727503 kJ/mol
# GULP energy per Si atom -12400.602277 kJ/mol
# Density = 2.046818 g / cm^3
# Si number density = 20.514875 Si / 1000 Ang^3
#
#
#
# Elastic Constant Matrix: (Units=GPa)
#
#
# Indices 1 2 3 4 5 6 
#
# 1 115.8558 18.6723 49.6321 0.0000 0.0000 0.0000
# 2 18.6723 95.5951 24.9728 0.0000 0.0000 0.0000
# 3 49.6321 24.9728 126.0886 0.0000 0.0000 0.0000
# 4 0.0000 0.0000 0.0000 30.1633 0.0000 0.0000
# 5 0.0000 0.0000 0.0000 0.0000 3.2143 0.0000
# 6 0.0000 0.0000 0.0000 0.0000 0.0000 27.5450
#
#
#
# Elastic Compliance Matrix: (Units=1/GPa)
#
#
# Indices 1 2 3 4 5 6 
#
# 1 0.010476 -0.001022 -0.003921 0.000000 0.000000 0.000000
# 2 -0.001022 0.011131 -0.001802 0.000000 0.000000 0.000000
# 3 -0.003921 -0.001802 0.009831 0.000000 0.000000 0.000000
# 4 0.000000 0.000000 0.000000 0.033153 0.000000 0.000000
# 5 0.000000 0.000000 0.000000 0.000000 0.311113 0.000000
# 6 0.000000 0.000000 0.000000 0.000000 0.000000 0.036304
#
#
# Mechanical properties :
#
#
# Convention : Reuss Voigt Hill
#
# Bulk Modulus (GPa) = 55.71773 58.23264 56.97519
# Shear Modulus (GPa) = 11.58796 28.46867 20.02831
#
# Velocity S-wave (km/s) = 2.37925 3.72924 3.12794
# Velocity P-wave (km/s) = 5.89630 6.85494 6.39361
#
# Compressibility (1/GPa) = 0.01794761
#
# Stress axis : x y z
#
# Youngs Moduli (GPa) = 95.45663 89.83732 101.71467
#
# Poissons Ratio (x) = 0.09180 0.39885
# Poissons Ratio (y) = 0.09754 0.18333
# Poissons Ratio (z) = 0.37431 0.16192
#
# Static dielectric constant tensor:
#      x y z
#    x 3.730310 0.000000 0.000000 
#    y 0.000000 3.915670 0.000000 
#    z 0.000000 0.000000 3.696860 
# 
# 
# High freq. dielectric constant tensor:
#      x y z
#    x 1.792170 0.000000 0.000000 
#    y 0.000000 1.813880 0.000000 
#    z 0.000000 0.000000 1.809480 
# 
# From -- ./inp_files/24181.got.cif
#   From: 2010.03.12/outbox.cif.g09.slc.cpg/sg64_13_cif.got.tgz:24181.got - 2010.04.10 20:19:32.
