data_PCOD8264987
_publ_section_title
;
Structure prediction by ZEFSAII (Michael W. Deem and Ramdas Pophale) SiO2 
 PCOD8264987
Probable space group: C M C A
;
_chemical_formula_sum "Si O2"
_cell_formula_units_Z 48
_cell_length_a 14.028586
_cell_length_b 9.624185
_cell_length_c 16.395619
_cell_angle_alpha 90.000000
_cell_angle_beta 90.000000
_cell_angle_gamma 90.000000
_cell_volume 2213.633299
_symmetry_space_group_name_H-M "C M C A"
_symmetry_group_IT_number 64
_symmetry_cell_setting 'orthorhombic'
loop_
_space_group_symop_operation_xyz
x,y,z
-x,1/2-y,1/2+z
x,-y,-z
-x,1/2+y,1/2-z
-x,-y,-z
x,1/2+y,1/2-z
-x,y,z
x,1/2-y,1/2+z
1/2+x,1/2+y,z
1/2-x,-y,1/2+z
1/2+x,1/2-y,-z
1/2-x,y,1/2-z
1/2-x,1/2-y,-z
1/2+x,y,1/2-z
1/2-x,1/2+y,z
1/2+x,-y,1/2+z
loop_
_atom_site_type_symbol
_atom_site_label
_atom_site_fract_x
_atom_site_fract_y
_atom_site_fract_z
Si Si1 0.298791 0.020415 0.835333
Si Si2 0.000000 0.834242 0.991705
Si Si3 0.500000 0.570942 0.408886
Si Si4 0.196409 0.206894 0.079690
O O1 0.250000 0.978718 0.750000
O O2 0.285488 0.184788 0.846987
O O3 0.407800 0.969454 0.853357
O O4 0.231544 0.946521 0.900754
O O5 0.914380 0.789185 0.935329
O O6 0.000000 0.739848 0.075208
O O7 0.000000 0.000000 0.000000
O O8 0.500000 0.500000 0.500000
O O9 0.250000 0.250000 0.000000
#
# Coordination Sequence:
#
# PCOD8264987 Si02
#       4
#    16   8   8  16
#     4  12  26  44  69 108 148 190 234 312 378 428
#     4  12  24  41  74 112 132 188 267 304 343 430
#     4  12  22  49  76 104 145 200 249 293 367 456
#     4  12  23  44  71 103 142 192 255 296 357 451
#
# _framework density 21.683810000000001
#
# number of rings (size 3 to 8) (size 9 to 14) (size 15 to 20)
#    0.000    0.000    6.667    4.000    0.000    1.333 
#    0.000    6.667    0.000    0.000    0.000    0.000 
#    0.000    0.000    0.000    0.000    0.000    0.000 
#
# Total GULP energy -297359.983801 kJ/mol
# GULP energy per Si atom -12389.999325 kJ/mol
# Density = 2.163446 g / cm^3
# Si number density = 21.683810 Si / 1000 Ang^3
#
#
#
# Elastic Constant Matrix: (Units=GPa)
#
#
# Indices 1 2 3 4 5 6 
#
# 1 180.7640 25.4550 59.2138 0.0000 0.0000 0.0000
# 2 25.4550 124.6999 24.7514 0.0000 0.0000 0.0000
# 3 59.2138 24.7514 104.7627 0.0000 0.0000 0.0000
# 4 0.0000 0.0000 0.0000 37.6576 0.0000 0.0000
# 5 0.0000 0.0000 0.0000 0.0000 45.4463 0.0000
# 6 0.0000 0.0000 0.0000 0.0000 0.0000 30.3245
#
#
#
# Elastic Compliance Matrix: (Units=1/GPa)
#
#
# Indices 1 2 3 4 5 6 
#
# 1 0.006840 -0.000660 -0.003710 0.000000 0.000000 0.000000
# 2 -0.000660 0.008477 -0.001630 0.000000 0.000000 0.000000
# 3 -0.003710 -0.001630 0.012028 0.000000 0.000000 0.000000
# 4 0.000000 0.000000 0.000000 0.026555 0.000000 0.000000
# 5 0.000000 0.000000 0.000000 0.000000 0.022004 0.000000
# 6 0.000000 0.000000 0.000000 0.000000 0.000000 0.032977
#
#
# Mechanical properties :
#
#
# Convention : Reuss Voigt Hill
#
# Bulk Modulus (GPa) = 65.16727 69.89631 67.53179
# Shear Modulus (GPa) = 39.68356 42.73946 41.21151
#
# Velocity S-wave (km/s) = 4.28261 4.44445 4.36428
# Velocity P-wave (km/s) = 7.38735 7.65779 7.52379
#
# Compressibility (1/GPa) = 0.01534513
#
# Stress axis : x y z
#
# Youngs Moduli (GPa) = 146.18931 117.95971 83.14151
#
# Poissons Ratio (x) = 0.07784 0.30849
# Poissons Ratio (y) = 0.09646 0.13551
# Poissons Ratio (z) = 0.54243 0.19227
#
# Static dielectric constant tensor:
#      x y z
#    x 4.204850 0.000000 0.000000 
#    y 0.000000 4.343880 0.000000 
#    z 0.000000 0.000000 3.589110 
# 
# 
# High freq. dielectric constant tensor:
#      x y z
#    x 1.873400 0.000000 0.000000 
#    y 0.000000 1.875810 0.000000 
#    z 0.000000 0.000000 1.827110 
# 
# From -- ./inp_files/31447.got.cif
#   From: 2010.03.12/outbox.cif.g09.slc.cpg/sg64_16_cif.got.tgz:31447.got - 2010.04.10 20:19:32.
