data_PCOD8264361
_publ_section_title
;
Structure prediction by ZEFSAII (Michael W. Deem and Ramdas Pophale) SiO2 
 PCOD8264361
Probable space group: C M C A
;
_chemical_formula_sum "Si O2"
_cell_formula_units_Z 64
_cell_length_a 25.740125
_cell_length_b 11.089749
_cell_length_c 9.280493
_cell_angle_alpha 90.000000
_cell_angle_beta 90.000000
_cell_angle_gamma 90.000000
_cell_volume 2649.130884
_symmetry_space_group_name_H-M "C M C A"
_symmetry_group_IT_number 64
_symmetry_cell_setting 'orthorhombic'
loop_
_space_group_symop_operation_xyz
x,y,z
-x,1/2-y,1/2+z
x,-y,-z
-x,1/2+y,1/2-z
-x,-y,-z
x,1/2+y,1/2-z
-x,y,z
x,1/2-y,1/2+z
1/2+x,1/2+y,z
1/2-x,-y,1/2+z
1/2+x,1/2-y,-z
1/2-x,y,1/2-z
1/2-x,1/2-y,-z
1/2+x,y,1/2-z
1/2-x,1/2+y,z
1/2+x,-y,1/2+z
loop_
_atom_site_type_symbol
_atom_site_label
_atom_site_fract_x
_atom_site_fract_y
_atom_site_fract_z
Si Si1 0.847723 0.244776 0.120557
Si Si2 0.809022 0.500000 0.500000
Si Si3 0.500000 0.665748 0.963569
Si Si4 0.912106 0.667904 0.113091
Si Si5 0.750000 0.126807 0.750000
Si Si6 0.000000 0.480317 0.756238
O O1 0.888644 0.232743 0.248444
O O2 0.791956 0.285233 0.178159
O O3 0.844470 0.113902 0.043848
O O4 0.866361 0.349241 0.006172
O O5 0.773887 0.537371 0.633745
O O6 0.448529 0.742831 0.975685
O O7 0.500000 0.617511 0.795781
O O8 0.500000 0.580219 0.099628
O O9 0.947221 0.551027 0.154856
#
# Coordination Sequence:
#
# PCOD8264361 Si02
#       6
#    16   8   8  16   8   8
#     4  12  26  48  71 104 146 186 243 298 355 432
#     4  12  28  46  76 103 140 195 234 296 376 420
#     4  10  22  43  66 103 140 185 237 296 361 425
#     4  11  24  42  70 102 141 188 235 300 350 425
#     4  12  28  50  72 108 146 184 242 308 356 434
#     4  10  22  41  72  97 144 186 237 290 361 428
#
# _framework density 24.158866
#
# number of rings (size 3 to 8) (size 9 to 14) (size 15 to 20)
#    0.000    0.750    5.000    1.500    7.000    0.000 
#    0.000    1.250    0.000    0.000    0.000    0.000 
#    0.000    0.000    0.000    0.000    0.000    0.000 
#
# Total GULP energy -396576.096056 kJ/mol
# GULP energy per Si atom -12393.003002 kJ/mol
# Density = 2.410388 g / cm^3
# Si number density = 24.158866 Si / 1000 Ang^3
#
#
#
# Elastic Constant Matrix: (Units=GPa)
#
#
# Indices 1 2 3 4 5 6 
#
# 1 112.9249 15.5572 44.3197 0.0000 0.0000 0.0000
# 2 15.5572 38.8395 5.8690 0.0000 0.0000 0.0000
# 3 44.3197 5.8690 118.5713 0.0000 0.0000 0.0000
# 4 0.0000 0.0000 0.0000 26.7535 0.0000 0.0000
# 5 0.0000 0.0000 0.0000 0.0000 126.9772 0.0000
# 6 0.0000 0.0000 0.0000 0.0000 0.0000 -58.1294
#
#
#
# Elastic Compliance Matrix: (Units=1/GPa)
#
#
# Indices 1 2 3 4 5 6 
#
# 1 0.010902 -0.003779 -0.003888 0.000000 0.000000 0.000000
# 2 -0.003779 0.027251 0.000064 0.000000 0.000000 0.000000
# 3 -0.003888 0.000064 0.009884 0.000000 0.000000 0.000000
# 4 0.000000 0.000000 0.000000 0.037378 0.000000 0.000000
# 5 0.000000 0.000000 0.000000 0.000000 0.007875 0.000000
# 6 0.000000 0.000000 0.000000 0.000000 0.000000 -0.017203
#
#
# Mechanical properties :
#
#
# Convention : Reuss Voigt Hill
#
# Bulk Modulus (GPa) = 30.45989 44.64751 37.55370
# Shear Modulus (GPa) = 48.90559 32.75959 40.83259
#
# Velocity S-wave (km/s) = 4.50414 3.68639 4.11563
# Velocity P-wave (km/s) = 6.29962 6.05312 6.17760
#
# Compressibility (1/GPa) = 0.03283006
#
# Stress axis : x y z
#
# Youngs Moduli (GPa) = 91.72644 36.69574 101.17561
#
# Poissons Ratio (x) = 0.13868 0.39336
# Poissons Ratio (y) = 0.34666 -0.00645
# Poissons Ratio (z) = 0.35662 -0.00234
#
# Static dielectric constant tensor:
#      x y z
#    x 4.554500 0.000000 0.000000 
#    y 0.000000 4.243160 0.000000 
#    z 0.000000 0.000000 4.669610 
# 
# 
# High freq. dielectric constant tensor:
#      x y z
#    x 1.971140 0.000000 0.000000 
#    y 0.000000 1.936120 0.000000 
#    z 0.000000 0.000000 1.988800 
# 
# From -- ./inp_files/9976.got.cif
#   From: 2010.03.12/outbox.cif.g09.slc.cpg/sg64_5_cif.got.tgz:9976.got - 2010.04.10 20:19:32.
