data_PCOD8264454
_publ_section_title
;
Structure prediction by ZEFSAII (Michael W. Deem and Ramdas Pophale) SiO2 
 PCOD8264454
Probable space group: C M C A
;
_chemical_formula_sum "Si O2"
_cell_formula_units_Z 104
_cell_length_a 21.036289
_cell_length_b 13.453176
_cell_length_c 17.171838
_cell_angle_alpha 90.000000
_cell_angle_beta 90.000000
_cell_angle_gamma 90.000000
_cell_volume 4859.714267
_symmetry_space_group_name_H-M "C M C A"
_symmetry_group_IT_number 64
_symmetry_cell_setting 'orthorhombic'
loop_
_space_group_symop_operation_xyz
x,y,z
-x,1/2-y,1/2+z
x,-y,-z
-x,1/2+y,1/2-z
-x,-y,-z
x,1/2+y,1/2-z
-x,y,z
x,1/2-y,1/2+z
1/2+x,1/2+y,z
1/2-x,-y,1/2+z
1/2+x,1/2-y,-z
1/2-x,y,1/2-z
1/2-x,1/2-y,-z
1/2+x,y,1/2-z
1/2-x,1/2+y,z
1/2+x,-y,1/2+z
loop_
_atom_site_type_symbol
_atom_site_label
_atom_site_fract_x
_atom_site_fract_y
_atom_site_fract_z
Si Si1 0.071366 0.830958 0.726140
Si Si2 0.633485 0.363669 0.167110
Si Si3 0.669036 0.147069 0.497047
Si Si4 0.750000 0.963260 0.250000
Si Si5 0.341950 0.960038 0.871369
Si Si6 0.309839 0.135115 0.974788
Si Si7 0.428553 0.442363 0.878886
O O1 0.108999 0.728927 0.716253
O O2 0.097450 0.926153 0.678244
O O3 0.074583 0.852374 0.818059
O O4 0.000000 0.815281 0.696860
O O5 0.700837 0.392768 0.204737
O O6 0.586089 0.457545 0.169453
O O7 0.634979 0.328935 0.077788
O O8 0.681839 0.250095 0.450479
O O9 0.736573 0.098170 0.520106
O O10 0.624929 0.073729 0.445690
O O11 0.717713 0.036546 0.187393
O O12 0.348426 0.068762 0.912048
O O13 0.335301 0.877597 0.937852
O O14 0.500000 0.447815 0.915076
#
# Coordination Sequence:
#
# PCOD8264454 Si02
#       7
#    16  16  16   8  16  16  16
#     4  11  26  46  67  95 132 181 229 274 329 399
#     4  12  24  43  67  99 135 169 221 274 341 400
#     4  11  23  41  64  98 133 174 214 271 338 404
#     4  12  24  38  70 106 128 172 218 280 342 394
#     4  11  22  43  66  96 133 173 220 274 336 392
#     4  10  23  40  65  97 136 168 212 279 339 395
#     4  11  26  44  67  95 131 180 228 277 329 398
#
# _framework density 21.400435000000002
#
# number of rings (size 3 to 8) (size 9 to 14) (size 15 to 20)
#    0.000    0.923    4.615    1.846    4.308    2.462 
#    0.000    2.308    0.000    0.000    0.000    0.000 
#    0.000    0.000    0.000    0.000    0.000    0.000 
#
# Total GULP energy -644642.970629 kJ/mol
# GULP energy per Si atom -12396.980204 kJ/mol
# Density = 2.135173 g / cm^3
# Si number density = 21.400435 Si / 1000 Ang^3
#
#
#
# Elastic Constant Matrix: (Units=GPa)
#
#
# Indices 1 2 3 4 5 6 
#
# 1 115.6941 28.9776 23.4536 0.0000 0.0000 0.0000
# 2 28.9776 100.8173 12.3575 0.0000 0.0000 0.0000
# 3 23.4536 12.3575 79.6625 0.0000 0.0000 0.0000
# 4 0.0000 0.0000 0.0000 28.9166 0.0000 0.0000
# 5 0.0000 0.0000 0.0000 0.0000 29.8783 0.0000
# 6 0.0000 0.0000 0.0000 0.0000 0.0000 29.9217
#
#
#
# Elastic Compliance Matrix: (Units=1/GPa)
#
#
# Indices 1 2 3 4 5 6 
#
# 1 0.009775 -0.002505 -0.002489 0.000000 0.000000 0.000000
# 2 -0.002505 0.010753 -0.000931 0.000000 0.000000 0.000000
# 3 -0.002489 -0.000931 0.013430 0.000000 0.000000 0.000000
# 4 0.000000 0.000000 0.000000 0.034582 0.000000 0.000000
# 5 0.000000 0.000000 0.000000 0.000000 0.033469 0.000000
# 6 0.000000 0.000000 0.000000 0.000000 0.000000 0.033421
#
#
# Mechanical properties :
#
#
# Convention : Reuss Voigt Hill
#
# Bulk Modulus (GPa) = 45.23009 47.30568 46.26789
# Shear Modulus (GPa) = 32.33115 33.16901 32.75008
#
# Velocity S-wave (km/s) = 3.89108 3.94118 3.91621
# Velocity P-wave (km/s) = 6.43182 6.54702 6.48968
#
# Compressibility (1/GPa) = 0.02210918
#
# Stress axis : x y z
#
# Youngs Moduli (GPa) = 102.29689 92.99827 74.45870
#
# Poissons Ratio (x) = 0.23292 0.18536
# Poissons Ratio (y) = 0.25621 0.06929
# Poissons Ratio (z) = 0.25467 0.08655
#
# Static dielectric constant tensor:
#      x y z
#    x 3.792440 0.000000 0.000000 
#    y 0.000000 3.792220 0.000000 
#    z 0.000000 0.000000 3.924710 
# 
# 
# High freq. dielectric constant tensor:
#      x y z
#    x 1.823820 0.000000 0.000000 
#    y 0.000000 1.846560 0.000000 
#    z 0.000000 0.000000 1.848670 
# 
# From -- ./inp_files/34333.got.cif
#   From: 2010.03.12/outbox.cif.g09.slc.cpg/sg64_18_cif.got.tgz:34333.got - 2010.04.10 20:19:32.
