data_PCOD8264869
_publ_section_title
;
Structure prediction by ZEFSAII (Michael W. Deem and Ramdas Pophale) SiO2 
 PCOD8264869
Probable space group: C M C A
;
_chemical_formula_sum "Si O2"
_cell_formula_units_Z 88
_cell_length_a 9.710465
_cell_length_b 21.028901
_cell_length_c 22.065346
_cell_angle_alpha 90.000000
_cell_angle_beta 90.000000
_cell_angle_gamma 90.000000
_cell_volume 4505.752637
_symmetry_space_group_name_H-M "C M C A"
_symmetry_group_IT_number 64
_symmetry_cell_setting 'orthorhombic'
loop_
_space_group_symop_operation_xyz
x,y,z
-x,1/2-y,1/2+z
x,-y,-z
-x,1/2+y,1/2-z
-x,-y,-z
x,1/2+y,1/2-z
-x,y,z
x,1/2-y,1/2+z
1/2+x,1/2+y,z
1/2-x,-y,1/2+z
1/2+x,1/2-y,-z
1/2-x,y,1/2-z
1/2-x,1/2-y,-z
1/2+x,y,1/2-z
1/2-x,1/2+y,z
1/2+x,-y,1/2+z
loop_
_atom_site_type_symbol
_atom_site_label
_atom_site_fract_x
_atom_site_fract_y
_atom_site_fract_z
Si Si1 0.500000 0.636405 0.392886
Si Si2 0.733701 0.394959 0.423629
Si Si3 0.343801 0.836838 0.305543
Si Si4 0.500000 0.680390 0.097429
Si Si5 0.000000 0.075809 0.000940
Si Si6 0.236028 0.305924 0.820052
Si Si7 0.000000 0.307325 0.025483
Si Si8 0.500000 0.992797 0.070255
O O1 0.366630 0.647120 0.352970
O O2 0.500000 0.680598 0.453185
O O3 0.500000 0.562198 0.403527
O O4 0.804857 0.381541 0.360441
O O5 0.857578 0.403023 0.470582
O O6 0.637497 0.337741 0.446545
O O7 0.640401 0.456882 0.411978
O O8 0.500000 0.848777 0.285714
O O9 0.250000 0.857209 0.250000
O O10 0.324283 0.764370 0.324383
O O11 0.375795 0.690494 0.143154
O O12 0.500000 0.732576 0.042673
O O13 0.500000 0.610020 0.067128
O O14 0.000000 0.000000 0.000000
O O15 0.250000 0.326894 0.750000
O O16 0.500000 0.000000 0.000000
#
# Coordination Sequence:
#
# PCOD8264869 Si02
#       8
#     8  16  16   8   8  16   8   8
#     4  12  24  44  68  94 133 176 230 270 335 398
#     4  11  23  43  65  98 131 167 226 265 327 399
#     4  11  24  42  69  99 133 173 216 275 338 388
#     4  12  26  40  68 102 136 171 214 276 340 387
#     4  12  28  42  65  95 140 172 211 273 338 398
#     4  11  25  42  68  98 134 172 219 274 339 400
#     4  11  24  38  69 103 132 166 216 279 329 399
#     4  11  24  43  69  91 130 188 217 264 338 408
#
# _framework density 19.530588000000002
#
# number of rings (size 3 to 8) (size 9 to 14) (size 15 to 20)
#    0.000    0.727    5.455    2.182   11.455    1.455 
#    0.000    0.909    4.000    0.000    0.000    0.000 
#    0.000    0.000    0.000    0.000    0.000    0.000 
#
# Total GULP energy -545584.485475 kJ/mol
# GULP energy per Si atom -12399.647397 kJ/mol
# Density = 1.948614 g / cm^3
# Si number density = 19.530588 Si / 1000 Ang^3
#
#
#
# Elastic Constant Matrix: (Units=GPa)
#
#
# Indices 1 2 3 4 5 6 
#
# 1 171.5703 32.5639 63.3225 0.0000 0.0000 0.0000
# 2 32.5639 84.2710 54.8770 0.0000 0.0000 0.0000
# 3 63.3225 54.8770 132.9149 0.0000 0.0000 0.0000
# 4 0.0000 0.0000 0.0000 22.5169 0.0000 0.0000
# 5 0.0000 0.0000 0.0000 0.0000 49.0119 0.0000
# 6 0.0000 0.0000 0.0000 0.0000 0.0000 19.7302
#
#
#
# Elastic Compliance Matrix: (Units=1/GPa)
#
#
# Indices 1 2 3 4 5 6 
#
# 1 0.007106 -0.000740 -0.003080 0.000000 0.000000 0.000000
# 2 -0.000740 0.016307 -0.006380 0.000000 0.000000 0.000000
# 3 -0.003080 -0.006380 0.011625 0.000000 0.000000 0.000000
# 4 0.000000 0.000000 0.000000 0.044411 0.000000 0.000000
# 5 0.000000 0.000000 0.000000 0.000000 0.020403 0.000000
# 6 0.000000 0.000000 0.000000 0.000000 0.000000 0.050684
#
#
# Mechanical properties :
#
#
# Convention : Reuss Voigt Hill
#
# Bulk Modulus (GPa) = 68.31633 76.69810 72.50722
# Shear Modulus (GPa) = 28.43899 34.11800 31.27850
#
# Velocity S-wave (km/s) = 3.82006 4.18413 4.00623
# Velocity P-wave (km/s) = 7.38324 7.91824 7.65542
#
# Compressibility (1/GPa) = 0.01463779
#
# Stress axis : x y z
#
# Youngs Moduli (GPa) = 140.73367 61.32231 86.02203
#
# Poissons Ratio (x) = 0.04540 0.26491
# Poissons Ratio (y) = 0.10419 0.54883
# Poissons Ratio (z) = 0.43340 0.39124
#
# Static dielectric constant tensor:
#      x y z
#    x 5.374980 0.000000 0.000000 
#    y 0.000000 3.508260 0.000000 
#    z 0.000000 0.000000 3.841910 
# 
# 
# High freq. dielectric constant tensor:
#      x y z
#    x 1.789910 0.000000 0.000000 
#    y 0.000000 1.750200 0.000000 
#    z 0.000000 0.000000 1.766910 
# 
# From -- ./inp_files/42904.got.cif
#   From: 2010.03.12/outbox.cif.g09.slc.cpg/sg64_22_cif.got.tgz:42904.got - 2010.04.10 20:19:32.
