data_PCOD8264024
_publ_section_title
;
Structure prediction by ZEFSAII (Michael W. Deem and Ramdas Pophale) SiO2 
 PCOD8264024
Probable space group: C M C A
;
_chemical_formula_sum "Si O2"
_cell_formula_units_Z 56
_cell_length_a 15.465759
_cell_length_b 12.971554
_cell_length_c 12.919962
_cell_angle_alpha 90.000000
_cell_angle_beta 90.000000
_cell_angle_gamma 90.000000
_cell_volume 2591.937247
_symmetry_space_group_name_H-M "C M C A"
_symmetry_group_IT_number 64
_symmetry_cell_setting 'orthorhombic'
loop_
_space_group_symop_operation_xyz
x,y,z
-x,1/2-y,1/2+z
x,-y,-z
-x,1/2+y,1/2-z
-x,-y,-z
x,1/2+y,1/2-z
-x,y,z
x,1/2-y,1/2+z
1/2+x,1/2+y,z
1/2-x,-y,1/2+z
1/2+x,1/2-y,-z
1/2-x,y,1/2-z
1/2-x,1/2-y,-z
1/2+x,y,1/2-z
1/2-x,1/2+y,z
1/2+x,-y,1/2+z
loop_
_atom_site_type_symbol
_atom_site_label
_atom_site_fract_x
_atom_site_fract_y
_atom_site_fract_z
Si Si1 0.830238 0.280768 0.930612
Si Si2 0.500000 0.518185 0.172664
Si Si3 0.250000 0.833970 0.250000
Si Si4 0.500000 0.165846 0.521849
Si Si5 0.668841 0.470771 0.690037
O O1 0.816995 0.232492 0.816431
O O2 0.841148 0.404858 0.915955
O O3 0.916410 0.237812 0.981975
O O4 0.750000 0.250000 0.000000
O O5 0.500000 0.403636 0.125090
O O6 0.583320 0.537408 0.241868
O O7 0.500000 0.598897 0.080490
O O8 0.306299 0.908354 0.171607
O O9 0.750000 0.418579 0.750000
#
# Coordination Sequence:
#
# PCOD8264024 Si02
#       5
#    16   8   8   8  16
#     4  12  24  42  67  99 131 170 222 273 334 393
#     4  11  21  40  66  91 132 174 220 267 332 396
#     4  10  22  42  66  92 126 172 208 266 328 392
#     4  11  23  38  64  99 128 174 220 273 326 398
#     4  10  21  40  63  90 124 170 213 262 325 385
#
# _framework density 21.605463
#
# number of rings (size 3 to 8) (size 9 to 14) (size 15 to 20)
#    0.857    0.286    4.286    2.571    0.000    1.143 
#    0.000    1.429    0.000    3.429    0.000    0.000 
#    0.000    0.000    0.000    0.000    0.000    0.000 
#
# Total GULP energy -347043.473814 kJ/mol
# GULP energy per Si atom -12394.409779 kJ/mol
# Density = 2.155629 g / cm^3
# Si number density = 21.605463 Si / 1000 Ang^3
#
#
#
# Elastic Constant Matrix: (Units=GPa)
#
#
# Indices 1 2 3 4 5 6 
#
# 1 171.1083 12.0226 16.6923 0.0000 0.0000 0.0000
# 2 12.0226 60.6234 -4.7411 0.0000 0.0000 0.0000
# 3 16.6923 -4.7411 22.5964 0.0000 0.0000 0.0000
# 4 0.0000 0.0000 0.0000 33.5404 0.0000 0.0000
# 5 0.0000 0.0000 0.0000 0.0000 47.2504 0.0000
# 6 0.0000 0.0000 0.0000 0.0000 0.0000 37.7164
#
#
#
# Elastic Compliance Matrix: (Units=1/GPa)
#
#
# Indices 1 2 3 4 5 6 
#
# 1 0.006463 -0.001683 -0.005127 0.000000 0.000000 0.000000
# 2 -0.001683 0.017209 0.004854 0.000000 0.000000 0.000000
# 3 -0.005127 0.004854 0.049061 0.000000 0.000000 0.000000
# 4 0.000000 0.000000 0.000000 0.029815 0.000000 0.000000
# 5 0.000000 0.000000 0.000000 0.000000 0.021164 0.000000
# 6 0.000000 0.000000 0.000000 0.000000 0.000000 0.026514
#
#
# Mechanical properties :
#
#
# Convention : Reuss Voigt Hill
#
# Bulk Modulus (GPa) = 14.53074 33.58620 24.05847
# Shear Modulus (GPa) = 28.23643 39.05838 33.64740
#
# Velocity S-wave (km/s) = 3.61905 4.25644 3.95062
# Velocity P-wave (km/s) = 4.91970 6.30360 5.65415
#
# Compressibility (1/GPa) = 0.06881960
#
# Stress axis : x y z
#
# Youngs Moduli (GPa) = 154.73531 58.11069 20.38294
#
# Poissons Ratio (x) = 0.09778 0.10451
# Poissons Ratio (y) = 0.26036 -0.09893
# Poissons Ratio (z) = 0.79334 -0.28205
#
# Static dielectric constant tensor:
#      x y z
#    x 3.836470 0.000000 0.000000 
#    y 0.000000 4.071220 0.000000 
#    z 0.000000 0.000000 3.604430 
# 
# 
# High freq. dielectric constant tensor:
#      x y z
#    x 1.854550 0.000000 0.000000 
#    y 0.000000 1.860880 0.000000 
#    z 0.000000 0.000000 1.824940 
# 
# From -- ./inp_files/13783.got.cif
#   From: 2010.03.12/outbox.cif.g09.slc.cpg/sg64_7_cif.got.tgz:13783.got - 2010.04.10 20:19:32.
