data_PCOD8264788
_publ_section_title
;
Structure prediction by ZEFSAII (Michael W. Deem and Ramdas Pophale) SiO2 
 PCOD8264788
Probable space group: C M C A
;
_chemical_formula_sum "Si O2"
_cell_formula_units_Z 112
_cell_length_a 14.380017
_cell_length_b 23.330680
_cell_length_c 14.758173
_cell_angle_alpha 90.000000
_cell_angle_beta 90.000000
_cell_angle_gamma 90.000000
_cell_volume 4951.301737
_symmetry_space_group_name_H-M "C M C A"
_symmetry_group_IT_number 64
_symmetry_cell_setting 'orthorhombic'
loop_
_space_group_symop_operation_xyz
x,y,z
-x,1/2-y,1/2+z
x,-y,-z
-x,1/2+y,1/2-z
-x,-y,-z
x,1/2+y,1/2-z
-x,y,z
x,1/2-y,1/2+z
1/2+x,1/2+y,z
1/2-x,-y,1/2+z
1/2+x,1/2-y,-z
1/2-x,y,1/2-z
1/2-x,1/2-y,-z
1/2+x,y,1/2-z
1/2-x,1/2+y,z
1/2+x,-y,1/2+z
loop_
_atom_site_type_symbol
_atom_site_label
_atom_site_fract_x
_atom_site_fract_y
_atom_site_fract_z
Si Si1 0.606807 0.230768 0.224159
Si Si2 0.704374 0.075183 0.941659
Si Si3 0.102892 0.963868 0.608937
Si Si4 0.894966 0.891612 0.978765
Si Si5 0.897328 0.179392 0.632372
Si Si6 0.643354 0.260707 0.018934
Si Si7 0.149883 0.395252 0.728523
O O1 0.500000 0.221156 0.248707
O O2 0.646722 0.280225 0.289797
O O3 0.619772 0.250777 0.122519
O O4 0.656643 0.171490 0.246019
O O5 0.676991 0.128750 0.879337
O O6 0.674485 0.017539 0.888808
O O7 0.646367 0.080330 0.035500
O O8 0.815935 0.075973 0.961499
O O9 0.085666 0.931329 0.703347
O O10 0.000000 0.984639 0.578265
O O11 0.882148 0.906785 0.873330
O O12 0.000000 0.910633 0.008393
O O13 0.885689 0.823996 0.990424
O O14 0.912886 0.215443 0.540754
O O15 0.000000 0.155518 0.660015
O O16 0.750000 0.250000 0.000000
O O17 0.250000 0.421936 0.750000
#
# Coordination Sequence:
#
# PCOD8264788 Si02
#       7
#    16  16  16  16  16  16  16
#     4  11  24  39  65 103 140 184 234 285 352 425
#     4  11  23  43  68 101 134 176 233 292 357 415
#     4  11  23  43  73 100 132 176 235 302 352 405
#     4  12  24  43  68 100 145 189 231 286 356 434
#     4  11  22  39  65 101 142 180 229 288 349 418
#     4  12  23  41  63  98 144 193 231 282 349 420
#     4  12  23  42  68 103 139 177 236 291 344 422
#
# _framework density 22.620315000000002
#
# number of rings (size 3 to 8) (size 9 to 14) (size 15 to 20)
#    0.000    0.571    4.286    6.000    0.000    0.000 
#    0.000    2.857    0.000    1.714    0.000    0.000 
#    0.000    0.000    0.000    0.000    0.000    0.000 
#
# Total GULP energy -694303.396005 kJ/mol
# GULP energy per Si atom -12398.274929 kJ/mol
# Density = 2.256883 g / cm^3
# Si number density = 22.620315 Si / 1000 Ang^3
#
#
#
# Elastic Constant Matrix: (Units=GPa)
#
#
# Indices 1 2 3 4 5 6 
#
# 1 156.0393 32.0975 18.2388 0.0000 0.0000 0.0000
# 2 32.0975 86.8879 39.4316 0.0000 0.0000 0.0000
# 3 18.2388 39.4316 115.0941 0.0000 0.0000 0.0000
# 4 0.0000 0.0000 0.0000 41.9251 0.0000 0.0000
# 5 0.0000 0.0000 0.0000 0.0000 28.9789 0.0000
# 6 0.0000 0.0000 0.0000 0.0000 0.0000 -10.3128
#
#
#
# Elastic Compliance Matrix: (Units=1/GPa)
#
#
# Indices 1 2 3 4 5 6 
#
# 1 0.006942 -0.002446 -0.000262 0.000000 0.000000 0.000000
# 2 -0.002446 0.014489 -0.004577 0.000000 0.000000 0.000000
# 3 -0.000262 -0.004577 0.010298 0.000000 0.000000 0.000000
# 4 0.000000 0.000000 0.000000 0.023852 0.000000 0.000000
# 5 0.000000 0.000000 0.000000 0.000000 0.034508 0.000000
# 6 0.000000 0.000000 0.000000 0.000000 0.000000 -0.096967
#
#
# Mechanical properties :
#
#
# Convention : Reuss Voigt Hill
#
# Bulk Modulus (GPa) = 58.27168 59.72857 59.00013
# Shear Modulus (GPa) = 372.78715 30.00180 201.39447
#
# Velocity S-wave (km/s) = 12.85145 3.64582 9.44594
# Velocity P-wave (km/s) = 15.68533 6.64717 12.04605
#
# Compressibility (1/GPa) = 0.01716099
#
# Stress axis : x y z
#
# Youngs Moduli (GPa) = 144.04329 69.01565 97.10561
#
# Poissons Ratio (x) = 0.16878 0.02547
# Poissons Ratio (y) = 0.35227 0.44441
# Poissons Ratio (z) = 0.03778 0.31586
#
# Static dielectric constant tensor:
#      x y z
#    x 4.054620 0.000000 0.000000 
#    y 0.000000 3.912470 0.000000 
#    z 0.000000 0.000000 4.151980 
# 
# 
# High freq. dielectric constant tensor:
#      x y z
#    x 1.911510 0.000000 0.000000 
#    y 0.000000 1.878250 0.000000 
#    z 0.000000 0.000000 1.885210 
# 
# From -- ./inp_files/24261.got.cif
#   From: 2010.03.12/outbox.cif.g09.slc.cpg/sg64_13_cif.got.tgz:24261.got - 2010.04.10 20:19:32.
