data_PCOD8264293
_publ_section_title
;
Structure prediction by ZEFSAII (Michael W. Deem and Ramdas Pophale) SiO2 
 PCOD8264293
Probable space group: C M C A
;
_chemical_formula_sum "Si O2"
_cell_formula_units_Z 88
_cell_length_a 28.357388
_cell_length_b 16.138530
_cell_length_c 8.777458
_cell_angle_alpha 90.000000
_cell_angle_beta 90.000000
_cell_angle_gamma 90.000000
_cell_volume 4016.973433
_symmetry_space_group_name_H-M "C M C A"
_symmetry_group_IT_number 64
_symmetry_cell_setting 'orthorhombic'
loop_
_space_group_symop_operation_xyz
x,y,z
-x,1/2-y,1/2+z
x,-y,-z
-x,1/2+y,1/2-z
-x,-y,-z
x,1/2+y,1/2-z
-x,y,z
x,1/2-y,1/2+z
1/2+x,1/2+y,z
1/2-x,-y,1/2+z
1/2+x,1/2-y,-z
1/2-x,y,1/2-z
1/2-x,1/2-y,-z
1/2+x,y,1/2-z
1/2-x,1/2+y,z
1/2+x,-y,1/2+z
loop_
_atom_site_type_symbol
_atom_site_label
_atom_site_fract_x
_atom_site_fract_y
_atom_site_fract_z
Si Si1 0.868475 0.877014 0.539619
Si Si2 0.633123 0.478160 0.242043
Si Si3 0.234026 0.333385 0.920195
Si Si4 0.553333 0.370807 0.111877
Si Si5 0.786468 0.000000 0.000000
Si Si6 0.947072 0.771709 0.410929
O O1 0.855209 0.914703 0.375802
O O2 0.822195 0.827639 0.586353
O O3 0.913002 0.818557 0.526118
O O4 0.883613 0.939036 0.673985
O O5 0.590863 0.444783 0.133323
O O6 0.680794 0.494467 0.148894
O O7 0.250000 0.330910 0.750000
O O8 0.253740 0.418023 0.997214
O O9 0.250000 0.250000 0.000000
O O10 0.500000 0.406906 0.127164
O O11 0.560761 0.326811 0.946598
O O12 0.561971 0.297710 0.236837
O O13 0.000000 0.795808 0.460181
#
# Coordination Sequence:
#
# PCOD8264293 Si02
#       6
#    16  16  16  16   8  16
#     4  10  22  41  63  90 126 168 219 264 328 389
#     4  10  22  40  64  89 124 173 211 272 325 389
#     4  12  29  45  69 101 132 178 224 274 336 399
#     4   9  19  36  60  91 126 167 213 265 328 393
#     4  12  26  46  67  94 139 168 224 276 338 390
#     4   9  19  35  59  90 126 165 208 266 323 385
#
# _framework density 21.907039999999999
#
# number of rings (size 3 to 8) (size 9 to 14) (size 15 to 20)
#    0.000    1.818    1.818    1.091    5.091    3.636 
#    0.000    4.091    0.000    0.000    0.000    0.000 
#    0.000    0.000    0.000    0.000    0.000    0.000 
#
# Total GULP energy -545349.528755 kJ/mol
# GULP energy per Si atom -12394.307472 kJ/mol
# Density = 2.185718 g / cm^3
# Si number density = 21.907040 Si / 1000 Ang^3
#
#
#
# Elastic Constant Matrix: (Units=GPa)
#
#
# Indices 1 2 3 4 5 6 
#
# 1 99.8894 34.2748 8.6750 0.0000 0.0000 0.0000
# 2 34.2748 98.5828 10.4933 0.0000 0.0000 0.0000
# 3 8.6750 10.4933 43.8991 0.0000 0.0000 0.0000
# 4 0.0000 0.0000 0.0000 27.9545 0.0000 0.0000
# 5 0.0000 0.0000 0.0000 0.0000 28.7024 0.0000
# 6 0.0000 0.0000 0.0000 0.0000 0.0000 33.2207
#
#
#
# Elastic Compliance Matrix: (Units=1/GPa)
#
#
# Indices 1 2 3 4 5 6 
#
# 1 0.011444 -0.003836 -0.001345 0.000000 0.000000 0.000000
# 2 -0.003836 0.011694 -0.002037 0.000000 0.000000 0.000000
# 3 -0.001345 -0.002037 0.023532 0.000000 0.000000 0.000000
# 4 0.000000 0.000000 0.000000 0.035772 0.000000 0.000000
# 5 0.000000 0.000000 0.000000 0.000000 0.034840 0.000000
# 6 0.000000 0.000000 0.000000 0.000000 0.000000 0.030102
#
#
# Mechanical properties :
#
#
# Convention : Reuss Voigt Hill
#
# Bulk Modulus (GPa) = 31.02204 38.80640 34.91422
# Shear Modulus (GPa) = 28.97459 30.57074 29.77266
#
# Velocity S-wave (km/s) = 3.64072 3.73966 3.69052
# Velocity P-wave (km/s) = 5.64488 6.03318 5.84226
#
# Compressibility (1/GPa) = 0.03223515
#
# Stress axis : x y z
#
# Youngs Moduli (GPa) = 87.38232 85.51266 42.49495
#
# Poissons Ratio (x) = 0.32800 0.05714
# Poissons Ratio (y) = 0.33517 0.08658
# Poissons Ratio (z) = 0.11750 0.17422
#
# Static dielectric constant tensor:
#      x y z
#    x 4.169360 0.000000 0.000000 
#    y 0.000000 3.791270 0.000000 
#    z 0.000000 0.000000 3.996800 
# 
# 
# High freq. dielectric constant tensor:
#      x y z
#    x 1.871730 0.000000 0.000000 
#    y 0.000000 1.850330 0.000000 
#    z 0.000000 0.000000 1.869090 
# 
# From -- ./inp_files/11092.got.cif
#   From: 2010.03.12/outbox.cif.g09.slc.cpg/sg64_6_cif.got.tgz:11092.got - 2010.04.10 20:19:32.
