data_PCOD8265801
_publ_section_title
;
Structure prediction by ZEFSAII (Michael W. Deem and Ramdas Pophale) SiO2 
 PCOD8265801
Probable space group: C M M M
;
_chemical_formula_sum "Si O2"
_cell_formula_units_Z 80
_cell_length_a 28.573436
_cell_length_b 7.971232
_cell_length_c 22.481704
_cell_angle_alpha 90.000000
_cell_angle_beta 90.000000
_cell_angle_gamma 90.000000
_cell_volume 5120.556269
_symmetry_space_group_name_H-M "C M M M"
_symmetry_group_IT_number 65
_symmetry_cell_setting 'orthorhombic'
loop_
_space_group_symop_operation_xyz
x,y,z
-x,-y,z
x,-y,-z
-x,y,-z
-x,-y,-z
x,y,-z
-x,y,z
x,-y,z
1/2+x,1/2+y,z
1/2-x,1/2-y,z
1/2+x,1/2-y,-z
1/2-x,1/2+y,-z
1/2-x,1/2-y,-z
1/2+x,1/2+y,-z
1/2-x,1/2+y,z
1/2+x,1/2-y,z
loop_
_atom_site_type_symbol
_atom_site_label
_atom_site_fract_x
_atom_site_fract_y
_atom_site_fract_z
Si Si1 0.105096 0.305477 0.384946
Si Si2 0.055562 0.185983 0.857910
Si Si3 0.946929 0.299558 0.500000
Si Si4 0.553846 0.197739 0.269546
Si Si5 0.199431 0.197091 0.432694
Si Si6 0.444110 0.000000 0.067364
O O1 0.092985 0.500000 0.383628
O O2 0.079106 0.224589 0.442002
O O3 0.084883 0.228674 0.323815
O O4 0.160588 0.276694 0.389740
O O5 0.072404 0.214469 0.790331
O O6 0.075849 0.331858 0.900726
O O7 0.000000 0.198011 0.859416
O O8 0.072192 0.000000 0.879064
O O9 0.944510 0.500000 0.500000
O O10 0.000000 0.235013 0.500000
O O11 0.500000 0.243284 0.282900
O O12 0.559972 0.000000 0.260697
O O13 0.193389 0.267879 0.500000
O O14 0.250000 0.250000 0.407504
O O15 0.193887 0.000000 0.431885
O O16 0.500000 0.000000 0.069474
O O17 0.425561 0.000000 0.000000
#
# Coordination Sequence:
#
# PCOD8265801 Si02
#       6
#    16  16   8  16  16   8
#     4  10  18  28  45  65  83 106 140 178 218 266
#     4   9  16  26  40  57  79 110 147 184 219 257
#     4   9  16  26  40  61  86 109 138 177 218 259
#     4   9  16  27  42  60  84 115 148 181 215 257
#     4  10  20  33  48  62  79 102 132 175 226 273
#     4   9  16  26  40  58  82 109 141 185 225 256
#
# _framework density 15.623302000000001
#
# number of rings (size 3 to 8) (size 9 to 14) (size 15 to 20)
#    0.000    2.600    2.000    1.200    0.000    4.400 
#    0.000    2.000    0.000    2.400    0.000    0.000 
#    0.000    0.000    0.000    0.000    0.000    1.000 
#
# Total GULP energy -495875.731533 kJ/mol
# GULP energy per Si atom -12396.893288 kJ/mol
# Density = 1.558774 g / cm^3
# Si number density = 15.623302 Si / 1000 Ang^3
#
#
#
# Elastic Constant Matrix: (Units=GPa)
#
#
# Indices 1 2 3 4 5 6 
#
# 1 67.9440 10.5386 36.8708 0.0000 0.0000 0.0000
# 2 10.5386 66.2398 47.5276 0.0000 0.0000 0.0000
# 3 36.8708 47.5276 120.8232 0.0000 0.0000 0.0000
# 4 0.0000 0.0000 0.0000 12.0402 0.0000 0.0000
# 5 0.0000 0.0000 0.0000 0.0000 6.9225 0.0000
# 6 0.0000 0.0000 0.0000 0.0000 0.0000 13.3238
#
#
#
# Elastic Compliance Matrix: (Units=1/GPa)
#
#
# Indices 1 2 3 4 5 6 
#
# 1 0.017743 0.001480 -0.005996 0.000000 0.000000 0.000000
# 2 0.001480 0.021156 -0.008774 0.000000 0.000000 0.000000
# 3 -0.005996 -0.008774 0.013558 0.000000 0.000000 0.000000
# 4 0.000000 0.000000 0.000000 0.083055 0.000000 0.000000
# 5 0.000000 0.000000 0.000000 0.000000 0.144456 0.000000
# 6 0.000000 0.000000 0.000000 0.000000 0.000000 0.075054
#
#
# Mechanical properties :
#
#
# Convention : Reuss Voigt Hill
#
# Bulk Modulus (GPa) = 38.64622 49.43124 44.03873
# Shear Modulus (GPa) = 12.81301 17.12863 14.97082
#
# Velocity S-wave (km/s) = 2.86688 3.31471 3.09890
# Velocity P-wave (km/s) = 5.97902 6.80866 6.40728
#
# Compressibility (1/GPa) = 0.02587575
#
# Stress axis : x y z
#
# Youngs Moduli (GPa) = 56.36167 47.26685 73.75867
#
# Poissons Ratio (x) = -0.06994 0.44229
# Poissons Ratio (y) = -0.08340 0.64714
# Poissons Ratio (z) = 0.33797 0.41471
#
# Static dielectric constant tensor:
#      x y z
#    x 2.725850 0.000000 0.000000 
#    y 0.000000 2.965940 0.000000 
#    z 0.000000 0.000000 3.050100 
# 
# 
# High freq. dielectric constant tensor:
#      x y z
#    x 1.546950 0.000000 0.000000 
#    y 0.000000 1.601000 0.000000 
#    z 0.000000 0.000000 1.584420 
# 
# From -- ./inp_files/66154.got.cif
#   From: 2010.03.12/outbox.cif.g09.slc.cpg/sg65_34_cif.got.tgz:66154.got - 2010.04.10 20:52:16.
