data_PCOD8265591
_publ_section_title
;
Structure prediction by ZEFSAII (Michael W. Deem and Ramdas Pophale) SiO2 
 PCOD8265591
Probable space group: C M M M
;
_chemical_formula_sum "Si O2"
_cell_formula_units_Z 64
_cell_length_a 20.674529
_cell_length_b 16.776794
_cell_length_c 10.544333
_cell_angle_alpha 90.000000
_cell_angle_beta 90.000000
_cell_angle_gamma 90.000000
_cell_volume 3657.326301
_symmetry_space_group_name_H-M "C M M M"
_symmetry_group_IT_number 65
_symmetry_cell_setting 'orthorhombic'
loop_
_space_group_symop_operation_xyz
x,y,z
-x,-y,z
x,-y,-z
-x,y,-z
-x,-y,-z
x,y,-z
-x,y,z
x,-y,z
1/2+x,1/2+y,z
1/2-x,1/2-y,z
1/2+x,1/2-y,-z
1/2-x,1/2+y,-z
1/2-x,1/2-y,-z
1/2+x,1/2+y,-z
1/2-x,1/2+y,z
1/2+x,1/2-y,z
loop_
_atom_site_type_symbol
_atom_site_label
_atom_site_fract_x
_atom_site_fract_y
_atom_site_fract_z
Si Si1 0.427833 0.696478 0.000000
Si Si2 0.882474 0.906576 0.227559
Si Si3 0.230280 0.593007 0.237910
Si Si4 0.190960 0.688684 0.000000
Si Si5 0.239527 0.656300 0.500000
Si Si6 0.380571 0.592712 0.500000
O O1 0.420440 0.641433 0.877233
O O2 0.500000 0.732477 0.000000
O O3 0.377501 0.767712 0.000000
O O4 0.806129 0.889659 0.216832
O O5 0.908474 0.874621 0.366124
O O6 0.896663 0.000000 0.209588
O O7 0.214738 0.500000 0.236838
O O8 0.191999 0.634072 0.124166
O O9 0.203405 0.630831 0.370046
O O10 0.250000 0.750000 0.000000
O O11 0.250000 0.750000 0.500000
O O12 0.304376 0.605332 0.500000
O O13 0.393319 0.500000 0.500000
#
# Coordination Sequence:
#
# PCOD8265591 Si02
#       6
#     8  16  16   8   8   8
#     4  12  25  36  49  74 111 142 176 225 273 317
#     4   9  17  32  53  77 107 143 176 208 258 321
#     4  10  19  33  54  81 110 141 175 217 265 317
#     4  12  21  35  55  79 105 136 184 230 266 305
#     4  10  18  26  48  84 119 138 160 210 268 317
#     4   8  16  30  49  73 107 142 173 207 249 308
#
# _framework density 17.499120999999999
#
# number of rings (size 3 to 8) (size 9 to 14) (size 15 to 20)
#    0.000    2.000    2.500    4.125    3.500    3.000 
#    0.000    0.625    0.000    3.750    0.000    0.000 
#    0.000    2.000    0.000    0.000    0.000    0.000 
#
# Total GULP energy -396570.765181 kJ/mol
# GULP energy per Si atom -12392.836412 kJ/mol
# Density = 1.745929 g / cm^3
# Si number density = 17.499121 Si / 1000 Ang^3
#
#
#
# Elastic Constant Matrix: (Units=GPa)
#
#
# Indices 1 2 3 4 5 6 
#
# 1 69.6357 37.6912 40.9196 0.0000 0.0000 0.0000
# 2 37.6912 80.0481 72.0648 0.0000 0.0000 0.0000
# 3 40.9196 72.0648 198.0935 0.0000 0.0000 0.0000
# 4 0.0000 0.0000 0.0000 23.3390 0.0000 0.0000
# 5 0.0000 0.0000 0.0000 0.0000 2.1387 0.0000
# 6 0.0000 0.0000 0.0000 0.0000 0.0000 16.4257
#
#
#
# Elastic Compliance Matrix: (Units=1/GPa)
#
#
# Indices 1 2 3 4 5 6 
#
# 1 0.019409 -0.008222 -0.001018 0.000000 0.000000 0.000000
# 2 -0.008222 0.022060 -0.006327 0.000000 0.000000 0.000000
# 3 -0.001018 -0.006327 0.007560 0.000000 0.000000 0.000000
# 4 0.000000 0.000000 0.000000 0.042847 0.000000 0.000000
# 5 0.000000 0.000000 0.000000 0.000000 0.467582 0.000000
# 6 0.000000 0.000000 0.000000 0.000000 0.000000 0.060880
#
#
# Mechanical properties :
#
#
# Convention : Reuss Voigt Hill
#
# Bulk Modulus (GPa) = 55.88260 72.12538 64.00399
# Shear Modulus (GPa) = 7.60529 21.52080 14.56305
#
# Velocity S-wave (km/s) = 2.08699 3.51069 2.88794
# Velocity P-wave (km/s) = 6.14908 7.59864 6.91196
#
# Compressibility (1/GPa) = 0.01789466
#
# Stress axis : x y z
#
# Youngs Moduli (GPa) = 51.52208 45.33137 132.27491
#
# Poissons Ratio (x) = 0.37273 0.13466
# Poissons Ratio (y) = 0.42364 0.83686
# Poissons Ratio (z) = 0.05245 0.28680
#
# Static dielectric constant tensor:
#      x y z
#    x 2.748550 0.000000 0.000000 
#    y 0.000000 3.166690 0.000000 
#    z 0.000000 0.000000 3.987140 
# 
# 
# High freq. dielectric constant tensor:
#      x y z
#    x 1.609790 0.000000 0.000000 
#    y 0.000000 1.666300 0.000000 
#    z 0.000000 0.000000 1.714530 
# 
# From -- ./inp_files/26162.got.cif
#   From: 2010.03.12/outbox.cif.g09.slc.cpg/sg65_14_cif.got.tgz:26162.got - 2010.04.10 20:52:16.
