data_PCOD8265365
_publ_section_title
;
Structure prediction by ZEFSAII (Michael W. Deem and Ramdas Pophale) SiO2 
 PCOD8265365
Probable space group: C M M M
;
_chemical_formula_sum "Si O2"
_cell_formula_units_Z 120
_cell_length_a 15.609896
_cell_length_b 26.539186
_cell_length_c 20.200115
_cell_angle_alpha 90.000000
_cell_angle_beta 90.000000
_cell_angle_gamma 90.000000
_cell_volume 8368.381096
_symmetry_space_group_name_H-M "C M M M"
_symmetry_group_IT_number 65
_symmetry_cell_setting 'orthorhombic'
loop_
_space_group_symop_operation_xyz
x,y,z
-x,-y,z
x,-y,-z
-x,y,-z
-x,-y,-z
x,y,-z
-x,y,z
x,-y,z
1/2+x,1/2+y,z
1/2-x,1/2-y,z
1/2+x,1/2-y,-z
1/2-x,1/2+y,-z
1/2-x,1/2-y,-z
1/2+x,1/2+y,-z
1/2-x,1/2+y,z
1/2+x,1/2-y,z
loop_
_atom_site_type_symbol
_atom_site_label
_atom_site_fract_x
_atom_site_fract_y
_atom_site_fract_z
Si Si1 0.405205 0.627552 0.073724
Si Si2 0.096132 0.940069 0.573907
Si Si3 0.848880 0.604236 0.140952
Si Si4 0.000000 0.445797 0.925242
Si Si5 0.822450 0.941869 0.828585
Si Si6 0.595926 0.941517 0.273582
Si Si7 0.756597 0.307155 0.076647
Si Si8 0.723013 0.559131 0.316399
O O1 0.500000 0.650854 0.079612
O O2 0.396961 0.585189 0.130367
O O3 0.338895 0.672137 0.085934
O O4 0.391214 0.604019 0.000000
O O5 0.116164 0.919764 0.500000
O O6 0.167094 0.916604 0.624051
O O7 0.000000 0.923387 0.595490
O O8 0.101484 0.000000 0.573670
O O9 0.766712 0.568071 0.133656
O O10 0.893228 0.596958 0.212553
O O11 0.821855 0.661874 0.124119
O O12 0.916420 0.587043 0.087217
O O13 0.000000 0.500000 0.885571
O O14 0.000000 0.460699 0.000000
O O15 0.812251 0.919850 0.753845
O O16 0.845630 0.000000 0.827005
O O17 0.500000 0.933356 0.304418
O O18 0.674315 0.929393 0.324610
O O19 0.606049 0.000000 0.250168
O O20 0.750000 0.250000 0.101556
O O21 0.787000 0.310542 0.000000
O O22 0.707341 0.500000 0.317204
#
# Coordination Sequence:
#
# PCOD8265365 Si02
#       8
#    16  16  16   8  16  16  16  16
#     4   9  18  31  43  55  72  95 125 160 198 239
#     4   8  13  21  33  49  71  99 130 169 212 239
#     4  10  17  28  41  56  77  99 126 157 196 247
#     4  11  20  26  36  58  86 106 121 153 202 256
#     4   9  17  27  40  56  76 103 131 159 192 232
#     4   9  15  24  39  56  79 108 131 156 193 238
#     4   9  18  33  47  56  70  93 124 165 208 246
#     4   8  14  23  35  53  73  98 134 165 192 233
#
# _framework density 14.339691999999999
#
# number of rings (size 3 to 8) (size 9 to 14) (size 15 to 20)
#    0.000    3.000    0.667    2.800    0.000    1.600 
#    1.200    2.000    0.000    0.400    0.000    2.800 
#    0.000    0.000    0.000    0.000    0.000   54.000 
#
# Total GULP energy -743290.313345 kJ/mol
# GULP energy per Si atom -12388.171889 kJ/mol
# Density = 1.430705 g / cm^3
# Si number density = 14.339692 Si / 1000 Ang^3
#
#
#
# Elastic Constant Matrix: (Units=GPa)
#
#
# Indices 1 2 3 4 5 6 
#
# 1 110.1790 30.3769 55.0093 0.0000 0.0000 0.0000
# 2 30.3769 57.0677 24.3035 0.0000 0.0000 0.0000
# 3 55.0093 24.3035 71.0067 0.0000 0.0000 0.0000
# 4 0.0000 0.0000 0.0000 4.5426 0.0000 0.0000
# 5 0.0000 0.0000 0.0000 0.0000 22.8765 0.0000
# 6 0.0000 0.0000 0.0000 0.0000 0.0000 12.2611
#
#
#
# Elastic Compliance Matrix: (Units=1/GPa)
#
#
# Indices 1 2 3 4 5 6 
#
# 1 0.015426 -0.003654 -0.010700 0.000000 0.000000 0.000000
# 2 -0.003654 0.021379 -0.004486 0.000000 0.000000 0.000000
# 3 -0.010700 -0.004486 0.023908 0.000000 0.000000 0.000000
# 4 0.000000 0.000000 0.000000 0.220139 0.000000 0.000000
# 5 0.000000 0.000000 0.000000 0.000000 0.043713 0.000000
# 6 0.000000 0.000000 0.000000 0.000000 0.000000 0.081559
#
#
# Mechanical properties :
#
#
# Convention : Reuss Voigt Hill
#
# Bulk Modulus (GPa) = 43.41828 50.84809 47.13319
# Shear Modulus (GPa) = 11.07468 16.50695 13.79082
#
# Velocity S-wave (km/s) = 2.78206 3.39652 3.10453
# Velocity P-wave (km/s) = 6.37683 7.13572 6.76692
#
# Compressibility (1/GPa) = 0.02303177
#
# Stress axis : x y z
#
# Youngs Moduli (GPa) = 64.82700 46.77524 41.82752
#
# Poissons Ratio (x) = 0.17093 0.44754
# Poissons Ratio (y) = 0.23690 0.18765
# Poissons Ratio (z) = 0.69362 0.20985
#
# Static dielectric constant tensor:
#      x y z
#    x 3.069930 0.000000 0.000000 
#    y 0.000000 2.445540 0.000000 
#    z 0.000000 0.000000 2.842260 
# 
# 
# High freq. dielectric constant tensor:
#      x y z
#    x 1.562130 0.000000 0.000000 
#    y 0.000000 1.493460 0.000000 
#    z 0.000000 0.000000 1.523080 
# 
# From -- ./inp_files/63125.got.cif
#   From: 2010.03.12/outbox.cif.g09.slc.cpg/sg65_32_cif.got.tgz:63125.got - 2010.04.10 20:52:16.
