data_PCOD8265205
_publ_section_title
;
Structure prediction by ZEFSAII (Michael W. Deem and Ramdas Pophale) SiO2 
 PCOD8265205
Probable space group: C M M M
;
_chemical_formula_sum "Si O2"
_cell_formula_units_Z 56
_cell_length_a 16.798967
_cell_length_b 34.674981
_cell_length_c 7.328991
_cell_angle_alpha 90.000000
_cell_angle_beta 90.000000
_cell_angle_gamma 90.000000
_cell_volume 4269.165559
_symmetry_space_group_name_H-M "C M M M"
_symmetry_group_IT_number 65
_symmetry_cell_setting 'orthorhombic'
loop_
_space_group_symop_operation_xyz
x,y,z
-x,-y,z
x,-y,-z
-x,y,-z
-x,-y,-z
x,y,-z
-x,y,z
x,-y,z
1/2+x,1/2+y,z
1/2-x,1/2-y,z
1/2+x,1/2-y,-z
1/2-x,1/2+y,-z
1/2-x,1/2-y,-z
1/2+x,1/2+y,-z
1/2-x,1/2+y,z
1/2+x,1/2-y,z
loop_
_atom_site_type_symbol
_atom_site_label
_atom_site_fract_x
_atom_site_fract_y
_atom_site_fract_z
Si Si1 0.906055 0.739879 0.000000
Si Si2 0.704032 0.789841 0.294866
Si Si3 0.594800 0.601127 0.000000
Si Si4 0.905382 0.957558 0.702705
Si Si5 0.814026 0.180441 0.000000
O O1 0.877150 0.717288 0.818259
O O2 0.872021 0.782977 0.000000
O O3 0.000000 0.741429 0.000000
O O4 0.685863 0.805597 0.500000
O O5 0.750000 0.750000 0.309137
O O6 0.759228 0.819577 0.181752
O O7 0.626682 0.576907 0.172599
O O8 0.500000 0.605961 0.000000
O O9 0.632833 0.642775 0.000000
O O10 0.872883 0.949883 0.500000
O O11 0.000000 0.957204 0.705691
O O12 0.876588 0.000000 0.770781
#
# Coordination Sequence:
#
# PCOD8265205 Si02
#       5
#     8  16   8  16   8
#     4   9  16  26  40  57  72  86 114 155 188 212
#     4   8  15  28  41  50  66  95 122 140 169 218
#     4  10  17  23  34  52  71  91 118 154 192 218
#     4   8  14  24  35  46  63  89 120 151 180 210
#     4   9  17  26  36  52  74  96 116 145 185 223
#
# _framework density 13.117317999999999
#
# number of rings (size 3 to 8) (size 9 to 14) (size 15 to 20)
#    0.000    3.429    0.000    3.429    0.000    3.429 
#    0.000    0.000    0.000    5.143    0.000    0.000 
#    0.000    0.000    0.000    0.000    0.000   45.714 
#
# Total GULP energy -346895.812578 kJ/mol
# GULP energy per Si atom -12389.136164 kJ/mol
# Density = 1.308746 g / cm^3
# Si number density = 13.117318 Si / 1000 Ang^3
#
#
#
# Elastic Constant Matrix: (Units=GPa)
#
#
# Indices 1 2 3 4 5 6 
#
# 1 61.7657 24.1731 36.7299 0.0000 0.0000 0.0000
# 2 24.1731 74.1649 43.2183 0.0000 0.0000 0.0000
# 3 36.7299 43.2183 119.0468 0.0000 0.0000 0.0000
# 4 0.0000 0.0000 0.0000 111.9344 0.0000 0.0000
# 5 0.0000 0.0000 0.0000 0.0000 8.8600 0.0000
# 6 0.0000 0.0000 0.0000 0.0000 0.0000 13.5502
#
#
#
# Elastic Compliance Matrix: (Units=1/GPa)
#
#
# Indices 1 2 3 4 5 6 
#
# 1 0.020651 -0.003828 -0.004982 0.000000 0.000000 0.000000
# 2 -0.003828 0.017811 -0.005285 0.000000 0.000000 0.000000
# 3 -0.004982 -0.005285 0.011856 0.000000 0.000000 0.000000
# 4 0.000000 0.000000 0.000000 0.008934 0.000000 0.000000
# 5 0.000000 0.000000 0.000000 0.000000 0.112866 0.000000
# 6 0.000000 0.000000 0.000000 0.000000 0.000000 0.073800
#
#
# Mechanical properties :
#
#
# Convention : Reuss Voigt Hill
#
# Bulk Modulus (GPa) = 45.19127 51.46891 48.33009
# Shear Modulus (GPa) = 17.76312 36.92600 27.34456
#
# Velocity S-wave (km/s) = 3.68390 5.31147 4.57071
# Velocity P-wave (km/s) = 7.25405 8.77144 8.04858
#
# Compressibility (1/GPa) = 0.02212817
#
# Stress axis : x y z
#
# Youngs Moduli (GPa) = 48.42429 56.14567 84.34724
#
# Poissons Ratio (x) = 0.21491 0.42020
# Poissons Ratio (y) = 0.18536 0.44577
# Poissons Ratio (z) = 0.24124 0.29673
#
# Static dielectric constant tensor:
#      x y z
#    x 2.252500 0.000000 0.000000 
#    y 0.000000 2.486940 0.000000 
#    z 0.000000 0.000000 3.180110 
# 
# 
# High freq. dielectric constant tensor:
#      x y z
#    x 1.448280 0.000000 0.000000 
#    y 0.000000 1.476960 0.000000 
#    z 0.000000 0.000000 1.517040 
# 
# From -- ./inp_files/7018.got.cif
#   From: 2010.03.12/outbox.cif.g09.slc.cpg/sg65_4_cif.got.tgz:7018.got - 2010.04.10 20:52:16.
