data_PCOD8265812
_publ_section_title
;
Structure prediction by ZEFSAII (Michael W. Deem and Ramdas Pophale) SiO2 
 PCOD8265812
Probable space group: C M M M
;
_chemical_formula_sum "Si O2"
_cell_formula_units_Z 72
_cell_length_a 18.762692
_cell_length_b 7.874632
_cell_length_c 26.961571
_cell_angle_alpha 90.000000
_cell_angle_beta 90.000000
_cell_angle_gamma 90.000000
_cell_volume 3983.553103
_symmetry_space_group_name_H-M "C M M M"
_symmetry_group_IT_number 65
_symmetry_cell_setting 'orthorhombic'
loop_
_space_group_symop_operation_xyz
x,y,z
-x,-y,z
x,-y,-z
-x,y,-z
-x,-y,-z
x,y,-z
-x,y,z
x,-y,z
1/2+x,1/2+y,z
1/2-x,1/2-y,z
1/2+x,1/2-y,-z
1/2-x,1/2+y,-z
1/2-x,1/2-y,-z
1/2+x,1/2+y,-z
1/2-x,1/2+y,z
1/2+x,1/2-y,z
loop_
_atom_site_type_symbol
_atom_site_label
_atom_site_fract_x
_atom_site_fract_y
_atom_site_fract_z
Si Si1 0.915287 0.188534 0.444247
Si Si2 0.415719 0.000000 0.731390
Si Si3 0.168428 0.195242 0.104798
Si Si4 0.585304 0.000000 0.379814
Si Si5 0.831513 0.697242 0.000000
Si Si6 0.583790 0.303049 0.198598
O O1 0.887767 0.225808 0.500000
O O2 0.884702 0.331937 0.407384
O O3 0.000000 0.195556 0.443911
O O4 0.889975 0.000000 0.427094
O O5 0.383888 0.000000 0.675945
O O6 0.390693 0.825205 0.758057
O O7 0.500000 0.000000 0.728795
O O8 0.250000 0.250000 0.107668
O O9 0.133292 0.235785 0.050965
O O10 0.121815 0.272609 0.149260
O O11 0.164604 0.000000 0.114006
O O12 0.500000 0.000000 0.380054
O O13 0.750000 0.750000 0.000000
O O14 0.839294 0.500000 0.000000
O O15 0.500000 0.289106 0.189215
O O16 0.604264 0.500000 0.211601
#
# Coordination Sequence:
#
# PCOD8265812 Si02
#       6
#    16   8  16   8   8  16
#     4   8  13  20  30  46  71 102 136 178 222 261
#     4   9  18  29  44  60  82 115 151 194 229 259
#     4  10  19  31  50  71  92 116 145 184 223 270
#     4   9  15  22  33  52  71 100 143 184 222 257
#     4  10  18  28  45  68  95 117 138 176 222 270
#     4   9  19  34  49  65  88 120 153 187 228 269
#
# _framework density 18.074318000000002
#
# number of rings (size 3 to 8) (size 9 to 14) (size 15 to 20)
#    0.000    2.889    0.000    4.000    3.111    2.222 
#    0.000    5.000    0.000    3.333    0.000    0.000 
#    0.000    0.000    0.000    0.000    0.000    4.444 
#
# Total GULP energy -446010.640121 kJ/mol
# GULP energy per Si atom -12389.184448 kJ/mol
# Density = 1.803318 g / cm^3
# Si number density = 18.074318 Si / 1000 Ang^3
#
#
#
# Elastic Constant Matrix: (Units=GPa)
#
#
# Indices 1 2 3 4 5 6 
#
# 1 15.3379 15.0992 22.9491 0.0000 0.0000 0.0000
# 2 15.0992 120.8407 89.8239 0.0000 0.0000 0.0000
# 3 22.9491 89.8239 178.6557 0.0000 0.0000 0.0000
# 4 0.0000 0.0000 0.0000 31.0047 0.0000 0.0000
# 5 0.0000 0.0000 0.0000 0.0000 6.5738 0.0000
# 6 0.0000 0.0000 0.0000 0.0000 0.0000 10.9181
#
#
#
# Elastic Compliance Matrix: (Units=1/GPa)
#
#
# Indices 1 2 3 4 5 6 
#
# 1 0.081817 -0.003850 -0.008574 0.000000 0.000000 0.000000
# 2 -0.003850 0.013395 -0.006240 0.000000 0.000000 0.000000
# 3 -0.008574 -0.006240 0.009836 0.000000 0.000000 0.000000
# 4 0.000000 0.000000 0.000000 0.032253 0.000000 0.000000
# 5 0.000000 0.000000 0.000000 0.000000 0.152118 0.000000
# 6 0.000000 0.000000 0.000000 0.000000 0.000000 0.091591
#
#
# Mechanical properties :
#
#
# Convention : Reuss Voigt Hill
#
# Bulk Modulus (GPa) = 14.76674 63.39762 39.08218
# Shear Modulus (GPa) = 11.34016 22.16347 16.75182
#
# Velocity S-wave (km/s) = 2.50755 3.50557 3.04769
# Velocity P-wave (km/s) = 4.07081 7.17897 5.83563
#
# Compressibility (1/GPa) = 0.06771975
#
# Stress axis : x y z
#
# Youngs Moduli (GPa) = 12.22243 74.65595 101.66634
#
# Poissons Ratio (x) = 0.28741 0.87170
# Poissons Ratio (y) = 0.04705 0.63440
# Poissons Ratio (z) = 0.10480 0.46586
#
# Static dielectric constant tensor:
#      x y z
#    x 2.609310 0.000000 0.000000 
#    y 0.000000 3.650070 0.000000 
#    z 0.000000 0.000000 3.722920 
# 
# 
# High freq. dielectric constant tensor:
#      x y z
#    x 1.620980 0.000000 0.000000 
#    y 0.000000 1.719500 0.000000 
#    z 0.000000 0.000000 1.707660 
# 
# From -- ./inp_files/75279.got.cif
#   From: 2010.03.12/outbox.cif.g09.slc.cpg/sg65_38_cif.got.tgz:75279.got - 2010.04.10 20:52:16.
