data_PCOD8265821
_publ_section_title
;
Structure prediction by ZEFSAII (Michael W. Deem and Ramdas Pophale) SiO2 
 PCOD8265821
Probable space group: C M M M
;
_chemical_formula_sum "Si O2"
_cell_formula_units_Z 92
_cell_length_a 28.784990
_cell_length_b 16.904558
_cell_length_c 11.809268
_cell_angle_alpha 90.000000
_cell_angle_beta 90.000000
_cell_angle_gamma 90.000000
_cell_volume 5746.360675
_symmetry_space_group_name_H-M "C M M M"
_symmetry_group_IT_number 65
_symmetry_cell_setting 'orthorhombic'
loop_
_space_group_symop_operation_xyz
x,y,z
-x,-y,z
x,-y,-z
-x,y,-z
-x,-y,-z
x,y,-z
-x,y,z
x,-y,z
1/2+x,1/2+y,z
1/2-x,1/2-y,z
1/2+x,1/2-y,-z
1/2-x,1/2+y,-z
1/2-x,1/2-y,-z
1/2+x,1/2+y,-z
1/2-x,1/2+y,z
1/2+x,1/2-y,z
loop_
_atom_site_type_symbol
_atom_site_label
_atom_site_fract_x
_atom_site_fract_y
_atom_site_fract_z
Si Si1 0.946769 0.500000 0.781446
Si Si2 0.052368 0.647179 0.628479
Si Si3 0.385187 0.000000 0.000000
Si Si4 0.302240 0.724129 0.179690
Si Si5 0.550896 0.411466 0.634645
Si Si6 0.623339 0.287068 0.368166
Si Si7 0.284910 0.594419 0.000000
Si Si8 0.681000 0.851691 0.000000
O O1 0.934079 0.424267 0.708289
O O2 0.916488 0.500000 0.891331
O O3 0.000000 0.500000 0.818659
O O4 0.054928 0.616846 0.500000
O O5 0.090862 0.712277 0.651607
O O6 0.000000 0.679304 0.653549
O O7 0.356772 0.919428 0.000000
O O8 0.250000 0.750000 0.208593
O O9 0.329378 0.716244 0.297528
O O10 0.304230 0.640610 0.111221
O O11 0.325205 0.795088 0.108389
O O12 0.550630 0.405841 0.500000
O O13 0.500000 0.382947 0.678638
O O14 0.560163 0.500000 0.676783
O O15 0.592900 0.359261 0.681554
O O16 0.636861 0.297328 0.500000
O O17 0.229801 0.603302 0.000000
O O18 0.298304 0.500000 0.000000
#
# Coordination Sequence:
#
# PCOD8265821 Si02
#       8
#     8  16   4  16  16  16   8   8
#     4  10  20  30  41  65  96 122 150 189 239 277
#     4   9  17  30  47  65  90 125 163 196 220 258
#     4  12  19  28  50  68  90 118 150 190 237 294
#     4   9  19  33  48  68  96 118 145 194 237 270
#     4   8  14  25  41  63  92 121 150 187 222 253
#     4  10  18  28  45  70  96 125 155 179 221 285
#     4   9  17  34  55  71  82 107 154 199 234 268
#     4   9  18  33  51  69  84 109 152 200 238 262
#
# _framework density 16.010134000000001
#
# number of rings (size 3 to 8) (size 9 to 14) (size 15 to 20)
#    0.000    2.783    0.435    3.522    0.000    4.174 
#    0.000    0.000    0.000    0.000    0.000    5.478 
#    0.000    8.348    0.000    0.000    0.000    0.000 
#
# Total GULP energy -570068.343226 kJ/mol
# GULP energy per Si atom -12392.790070 kJ/mol
# Density = 1.597369 g / cm^3
# Si number density = 16.010134 Si / 1000 Ang^3
#
#
#
# Elastic Constant Matrix: (Units=GPa)
#
#
# Indices 1 2 3 4 5 6 
#
# 1 88.6817 56.8978 64.3978 0.0000 0.0000 0.0000
# 2 56.8978 113.6875 53.8396 0.0000 0.0000 0.0000
# 3 64.3978 53.8396 89.1191 0.0000 0.0000 0.0000
# 4 0.0000 0.0000 0.0000 12.2973 0.0000 0.0000
# 5 0.0000 0.0000 0.0000 0.0000 27.8963 0.0000
# 6 0.0000 0.0000 0.0000 0.0000 0.0000 18.7733
#
#
#
# Elastic Compliance Matrix: (Units=1/GPa)
#
#
# Indices 1 2 3 4 5 6 
#
# 1 0.026206 -0.005810 -0.015427 0.000000 0.000000 0.000000
# 2 -0.005810 0.013609 -0.004023 0.000000 0.000000 0.000000
# 3 -0.015427 -0.004023 0.024799 0.000000 0.000000 0.000000
# 4 0.000000 0.000000 0.000000 0.081319 0.000000 0.000000
# 5 0.000000 0.000000 0.000000 0.000000 0.035847 0.000000
# 6 0.000000 0.000000 0.000000 0.000000 0.000000 0.053267
#
#
# Mechanical properties :
#
#
# Convention : Reuss Voigt Hill
#
# Bulk Modulus (GPa) = 70.95107 71.30653 71.12880
# Shear Modulus (GPa) = 17.22555 19.55024 18.38790
#
# Velocity S-wave (km/s) = 3.28367 3.49824 3.39265
# Velocity P-wave (km/s) = 7.66741 7.80717 7.73761
#
# Compressibility (1/GPa) = 0.01409422
#
# Stress axis : x y z
#
# Youngs Moduli (GPa) = 38.15864 73.47989 40.32392
#
# Poissons Ratio (x) = 0.42691 0.62207
# Poissons Ratio (y) = 0.22170 0.16224
# Poissons Ratio (z) = 0.58867 0.29565
#
# Static dielectric constant tensor:
#      x y z
#    x 3.003350 0.000000 0.000000 
#    y 0.000000 3.219000 0.000000 
#    z 0.000000 0.000000 2.788860 
# 
# 
# High freq. dielectric constant tensor:
#      x y z
#    x 1.611120 0.000000 0.000000 
#    y 0.000000 1.625060 0.000000 
#    z 0.000000 0.000000 1.590480 
# 
# From -- ./inp_files/30875.got.cif
#   From: 2010.03.12/outbox.cif.g09.slc.cpg/sg65_16_cif.got.tgz:30875.got - 2010.04.10 20:52:16.
