data_PCOD8265781
_publ_section_title
;
Structure prediction by ZEFSAII (Michael W. Deem and Ramdas Pophale) SiO2 
 PCOD8265781
Probable space group: C M M M
;
_chemical_formula_sum "Si O2"
_cell_formula_units_Z 104
_cell_length_a 7.774845
_cell_length_b 29.114407
_cell_length_c 26.877764
_cell_angle_alpha 90.000000
_cell_angle_beta 90.000000
_cell_angle_gamma 90.000000
_cell_volume 6084.050705
_symmetry_space_group_name_H-M "C M M M"
_symmetry_group_IT_number 65
_symmetry_cell_setting 'orthorhombic'
loop_
_space_group_symop_operation_xyz
x,y,z
-x,-y,z
x,-y,-z
-x,y,-z
-x,-y,-z
x,y,-z
-x,y,z
x,-y,z
1/2+x,1/2+y,z
1/2-x,1/2-y,z
1/2+x,1/2-y,-z
1/2-x,1/2+y,-z
1/2-x,1/2-y,-z
1/2+x,1/2+y,-z
1/2-x,1/2+y,z
1/2+x,1/2-y,z
loop_
_atom_site_type_symbol
_atom_site_label
_atom_site_fract_x
_atom_site_fract_y
_atom_site_fract_z
Si Si1 0.806368 0.299758 0.440904
Si Si2 0.000000 0.134479 0.558965
Si Si3 0.202024 0.550954 0.813347
Si Si4 0.798158 0.798633 0.055749
Si Si5 0.300231 0.607252 0.907147
Si Si6 0.809309 0.554407 0.296789
Si Si7 0.000000 0.054616 0.632908
Si Si8 0.705676 0.551196 0.000000
O O1 0.803364 0.297612 0.500000
O O2 0.750000 0.250000 0.419690
O O3 0.670137 0.338077 0.422802
O O4 0.000000 0.311806 0.422123
O O5 0.000000 0.128004 0.500000
O O6 0.000000 0.083458 0.582087
O O7 0.283062 0.500000 0.822542
O O8 0.270054 0.587300 0.852740
O O9 0.250408 0.569996 0.758450
O O10 0.000000 0.546735 0.817955
O O11 0.750000 0.750000 0.081206
O O12 0.723021 0.841014 0.088396
O O13 0.000000 0.803188 0.052292
O O14 0.718406 0.801017 0.000000
O O15 0.500000 0.609603 0.917861
O O16 0.219191 0.575798 0.950626
O O17 0.820651 0.500000 0.295831
O O18 0.668981 0.570313 0.336765
O O19 0.000000 0.574243 0.310202
O O20 0.000000 0.000000 0.621156
O O21 0.780292 0.500000 0.000000
O O22 0.500000 0.550721 0.000000
#
# Coordination Sequence:
#
# PCOD8265781 Si02
#       8
#    16   8  16  16  16  16   8   8
#     4   9  15  26  46  71 103 139 172 213 260 300
#     4  10  20  31  46  76 112 142 174 213 256 305
#     4   9  18  31  46  68  96 119 145 191 244 287
#     4   9  17  30  45  61  84 112 148 193 229 263
#     4  10  18  28  44  66  90 117 150 186 224 277
#     4   8  16  32  51  70  95 125 164 218 261 284
#     4  10  20  33  52  74 100 141 186 213 242 299
#     4   9  16  26  38  57  89 125 149 167 208 273
#
# _framework density 17.093875000000001
#
# number of rings (size 3 to 8) (size 9 to 14) (size 15 to 20)
#    0.000    2.846    1.538    1.385    1.077    2.308 
#    0.000    0.385    0.000    1.385    0.000    5.385 
#    0.000    0.000    0.000    0.000    0.000    0.000 
#
# Total GULP energy -644364.261242 kJ/mol
# GULP energy per Si atom -12391.620408 kJ/mol
# Density = 1.705497 g / cm^3
# Si number density = 17.093875 Si / 1000 Ang^3
#
#
#
# Elastic Constant Matrix: (Units=GPa)
#
#
# Indices 1 2 3 4 5 6 
#
# 1 76.2285 33.8105 30.3550 0.0000 0.0000 0.0000
# 2 33.8105 126.0045 49.6891 0.0000 0.0000 0.0000
# 3 30.3550 49.6891 64.6232 0.0000 0.0000 0.0000
# 4 0.0000 0.0000 0.0000 13.7913 0.0000 0.0000
# 5 0.0000 0.0000 0.0000 0.0000 8.0761 0.0000
# 6 0.0000 0.0000 0.0000 0.0000 0.0000 18.2589
#
#
#
# Elastic Compliance Matrix: (Units=1/GPa)
#
#
# Indices 1 2 3 4 5 6 
#
# 1 0.016469 -0.001964 -0.006226 0.000000 0.000000 0.000000
# 2 -0.001964 0.011624 -0.008015 0.000000 0.000000 0.000000
# 3 -0.006226 -0.008015 0.024562 0.000000 0.000000 0.000000
# 4 0.000000 0.000000 0.000000 0.072510 0.000000 0.000000
# 5 0.000000 0.000000 0.000000 0.000000 0.123823 0.000000
# 6 0.000000 0.000000 0.000000 0.000000 0.000000 0.054768
#
#
# Mechanical properties :
#
#
# Convention : Reuss Voigt Hill
#
# Bulk Modulus (GPa) = 49.39583 54.95172 52.17377
# Shear Modulus (GPa) = 14.58099 18.22535 16.40317
#
# Velocity S-wave (km/s) = 2.92378 3.26880 3.10109
# Velocity P-wave (km/s) = 6.35275 6.81642 6.58867
#
# Compressibility (1/GPa) = 0.02024462
#
# Stress axis : x y z
#
# Youngs Moduli (GPa) = 60.72137 86.02930 40.71405
#
# Poissons Ratio (x) = 0.16896 0.25347
# Poissons Ratio (y) = 0.11925 0.32633
# Poissons Ratio (z) = 0.37803 0.68954
#
# Static dielectric constant tensor:
#      x y z
#    x 3.375510 0.000000 0.000000 
#    y 0.000000 3.040380 0.000000 
#    z 0.000000 0.000000 3.141100 
# 
# 
# High freq. dielectric constant tensor:
#      x y z
#    x 1.661480 0.000000 0.000000 
#    y 0.000000 1.644730 0.000000 
#    z 0.000000 0.000000 1.618530 
# 
# From -- ./inp_files/68324.got.cif
#   From: 2010.03.12/outbox.cif.g09.slc.cpg/sg65_35_cif.got.tgz:68324.got - 2010.04.10 20:52:16.
