data_PCOD8265977
_publ_section_title
;
Structure prediction by ZEFSAII (Michael W. Deem and Ramdas Pophale) SiO2 
 PCOD8265977
Probable space group: C M M M
;
_chemical_formula_sum "Si O2"
_cell_formula_units_Z 104
_cell_length_a 9.048005
_cell_length_b 25.984253
_cell_length_c 25.905618
_cell_angle_alpha 90.000000
_cell_angle_beta 90.000000
_cell_angle_gamma 90.000000
_cell_volume 6090.557186
_symmetry_space_group_name_H-M "C M M M"
_symmetry_group_IT_number 65
_symmetry_cell_setting 'orthorhombic'
loop_
_space_group_symop_operation_xyz
x,y,z
-x,-y,z
x,-y,-z
-x,y,-z
-x,-y,-z
x,y,-z
-x,y,z
x,-y,z
1/2+x,1/2+y,z
1/2-x,1/2-y,z
1/2+x,1/2-y,-z
1/2-x,1/2+y,-z
1/2-x,1/2-y,-z
1/2+x,1/2+y,-z
1/2-x,1/2+y,z
1/2+x,1/2-y,z
loop_
_atom_site_type_symbol
_atom_site_label
_atom_site_fract_x
_atom_site_fract_y
_atom_site_fract_z
Si Si1 0.328286 0.303830 0.559725
Si Si2 0.167263 0.302046 0.000000
Si Si3 0.672025 0.941207 0.271459
Si Si4 0.674173 0.806223 0.887394
Si Si5 0.338974 0.294504 0.724761
Si Si6 0.663153 0.620871 0.191301
Si Si7 0.825774 0.357045 0.646069
O O1 0.305554 0.317403 0.500000
O O2 0.500000 0.299149 0.574296
O O3 0.250000 0.250000 0.573657
O O4 0.254815 0.351994 0.590694
O O5 0.250000 0.250000 0.000000
O O6 0.202482 0.329812 0.945392
O O7 0.000000 0.284962 0.000000
O O8 0.500000 0.931452 0.261058
O O9 0.752838 0.927368 0.217280
O O10 0.722044 0.908038 0.321625
O O11 0.708249 0.000000 0.285044
O O12 0.500000 0.799717 0.875237
O O13 0.750000 0.750000 0.879832
O O14 0.741677 0.850919 0.852260
O O15 0.500000 0.275874 0.705302
O O16 0.250000 0.250000 0.755467
O O17 0.361591 0.341304 0.761943
O O18 0.232900 0.307528 0.676970
O O19 0.500000 0.604673 0.169940
O O20 0.000000 0.354924 0.637894
#
# Coordination Sequence:
#
# PCOD8265977 Si02
#       7
#    16   8  16  16  16  16  16
#     4  10  20  33  49  70  98 130 161 191 224 266
#     4   8  16  28  42  62  89 126 167 200 232 271
#     4   9  19  36  55  73  93 119 153 194 241 289
#     4  10  18  29  45  66  96 131 165 200 235 275
#     4  10  19  29  41  60  90 123 153 184 220 268
#     4  10  20  31  45  68  94 122 156 192 234 283
#     4  10  19  31  49  70  92 119 152 190 230 274
#
# _framework density 17.075614000000002
#
# number of rings (size 3 to 8) (size 9 to 14) (size 15 to 20)
#    0.000    2.308    0.000    3.231    0.000    5.538 
#    0.000    0.000    0.000    0.462    0.000    3.769 
#    0.000    4.308    0.000    0.000    0.000    0.000 
#
# Total GULP energy -644190.146709 kJ/mol
# GULP energy per Si atom -12388.272052 kJ/mol
# Density = 1.703675 g / cm^3
# Si number density = 17.075614 Si / 1000 Ang^3
#
#
#
# Elastic Constant Matrix: (Units=GPa)
#
#
# Indices 1 2 3 4 5 6 
#
# 1 111.5843 46.7138 57.7264 0.0000 0.0000 0.0000
# 2 46.7138 73.9655 38.4680 0.0000 0.0000 0.0000
# 3 57.7264 38.4680 103.1568 0.0000 0.0000 0.0000
# 4 0.0000 0.0000 0.0000 15.1102 0.0000 0.0000
# 5 0.0000 0.0000 0.0000 0.0000 44.7678 0.0000
# 6 0.0000 0.0000 0.0000 0.0000 0.0000 20.0939
#
#
#
# Elastic Compliance Matrix: (Units=1/GPa)
#
#
# Indices 1 2 3 4 5 6 
#
# 1 0.014569 -0.006155 -0.005858 0.000000 0.000000 0.000000
# 2 -0.006155 0.019373 -0.003780 0.000000 0.000000 0.000000
# 3 -0.005858 -0.003780 0.014381 0.000000 0.000000 0.000000
# 4 0.000000 0.000000 0.000000 0.066181 0.000000 0.000000
# 5 0.000000 0.000000 0.000000 0.000000 0.022337 0.000000
# 6 0.000000 0.000000 0.000000 0.000000 0.000000 0.049766
#
#
# Mechanical properties :
#
#
# Convention : Reuss Voigt Hill
#
# Bulk Modulus (GPa) = 59.74288 63.83589 61.78939
# Shear Modulus (GPa) = 22.34421 25.71426 24.02924
#
# Velocity S-wave (km/s) = 3.62131 3.88481 3.75537
# Velocity P-wave (km/s) = 7.24902 7.58866 7.42078
#
# Compressibility (1/GPa) = 0.01673840
#
# Stress axis : x y z
#
# Youngs Moduli (GPa) = 68.64009 51.61859 69.53378
#
# Poissons Ratio (x) = 0.31770 0.40730
# Poissons Ratio (y) = 0.42246 0.26285
# Poissons Ratio (z) = 0.40206 0.19513
#
# Static dielectric constant tensor:
#      x y z
#    x 3.736560 0.000000 0.000000 
#    y 0.000000 2.889740 0.000000 
#    z 0.000000 0.000000 3.365800 
# 
# 
# High freq. dielectric constant tensor:
#      x y z
#    x 1.679890 0.000000 0.000000 
#    y 0.000000 1.614250 0.000000 
#    z 0.000000 0.000000 1.657580 
# 
# From -- ./inp_files/73801.got.cif
#   From: 2010.03.12/outbox.cif.g09.slc.cpg/sg65_37_cif.got.tgz:73801.got - 2010.04.10 20:52:16.
