data_PCOD8265269
_publ_section_title
;
Structure prediction by ZEFSAII (Michael W. Deem and Ramdas Pophale) SiO2 
 PCOD8265269
Probable space group: C M M M
;
_chemical_formula_sum "Si O2"
_cell_formula_units_Z 104
_cell_length_a 8.684652
_cell_length_b 28.648097
_cell_length_c 26.162294
_cell_angle_alpha 90.000000
_cell_angle_beta 90.000000
_cell_angle_gamma 90.000000
_cell_volume 6509.146120
_symmetry_space_group_name_H-M "C M M M"
_symmetry_group_IT_number 65
_symmetry_cell_setting 'orthorhombic'
loop_
_space_group_symop_operation_xyz
x,y,z
-x,-y,z
x,-y,-z
-x,y,-z
-x,-y,-z
x,y,-z
-x,y,z
x,-y,z
1/2+x,1/2+y,z
1/2-x,1/2-y,z
1/2+x,1/2-y,-z
1/2-x,1/2+y,-z
1/2-x,1/2-y,-z
1/2+x,1/2+y,-z
1/2-x,1/2+y,z
1/2+x,1/2-y,z
loop_
_atom_site_type_symbol
_atom_site_label
_atom_site_fract_x
_atom_site_fract_y
_atom_site_fract_z
Si Si1 0.171226 0.555006 0.000000
Si Si2 0.318135 0.698704 0.240846
Si Si3 0.820461 0.198968 0.444593
Si Si4 0.181156 0.946325 0.105552
Si Si5 0.682225 0.801769 0.344645
Si Si6 0.818937 0.360977 0.151244
Si Si7 0.180706 0.700913 0.056966
O O1 0.262842 0.571008 0.049983
O O2 0.154142 0.500000 0.000000
O O3 0.000000 0.578247 0.000000
O O4 0.500000 0.703452 0.244863
O O5 0.250000 0.750000 0.230388
O O6 0.251771 0.675698 0.293177
O O7 0.272871 0.663994 0.196009
O O8 0.793684 0.173693 0.500000
O O9 0.750000 0.250000 0.448889
O O10 0.738118 0.171981 0.396955
O O11 0.000000 0.203121 0.432207
O O12 0.266019 0.914962 0.148260
O O13 0.000000 0.939191 0.109199
O O14 0.227717 0.000000 0.115604
O O15 0.500000 0.801806 0.341120
O O16 0.750000 0.750000 0.347560
O O17 0.768294 0.337758 0.097663
O O18 0.000000 0.357305 0.161862
O O19 0.250000 0.750000 0.074390
O O20 0.000000 0.707305 0.057197
O O21 0.238834 0.686452 0.000000
#
# Coordination Sequence:
#
# PCOD8265269 Si02
#       7
#     8  16  16  16  16  16  16
#     4   9  17  31  51  71  90 113 138 167 207 255
#     4  11  21  34  49  65  89 117 152 192 232 270
#     4   9  15  22  33  51  76 106 141 180 222 264
#     4  10  21  36  52  72  96 118 143 177 218 267
#     4  10  17  26  40  57  79 108 145 185 227 266
#     4  11  22  34  51  71  91 115 149 184 222 272
#     4   9  19  34  49  66  88 113 140 174 214 259
#
# _framework density 15.977518999999999
#
# number of rings (size 3 to 8) (size 9 to 14) (size 15 to 20)
#    0.000    2.077    0.000    6.692    1.077    5.231 
#    0.000    0.000    0.000    0.000    0.000    0.000 
#    0.000    0.000    0.000    0.000    0.000    0.769 
#
# Total GULP energy -644517.745149 kJ/mol
# GULP energy per Si atom -12394.572022 kJ/mol
# Density = 1.594115 g / cm^3
# Si number density = 15.977519 Si / 1000 Ang^3
#
#
#
# Elastic Constant Matrix: (Units=GPa)
#
#
# Indices 1 2 3 4 5 6 
#
# 1 107.3951 25.9589 51.9054 0.0000 0.0000 0.0000
# 2 25.9589 48.4195 41.2716 0.0000 0.0000 0.0000
# 3 51.9054 41.2716 117.0987 0.0000 0.0000 0.0000
# 4 0.0000 0.0000 0.0000 -41.3492 0.0000 0.0000
# 5 0.0000 0.0000 0.0000 0.0000 28.6060 0.0000
# 6 0.0000 0.0000 0.0000 0.0000 0.0000 18.0697
#
#
#
# Elastic Compliance Matrix: (Units=1/GPa)
#
#
# Indices 1 2 3 4 5 6 
#
# 1 0.012099 -0.002738 -0.004398 0.000000 0.000000 0.000000
# 2 -0.002738 0.030141 -0.009410 0.000000 0.000000 0.000000
# 3 -0.004398 -0.009410 0.013806 0.000000 0.000000 0.000000
# 4 0.000000 0.000000 0.000000 -0.024184 0.000000 0.000000
# 5 0.000000 0.000000 0.000000 0.000000 0.034958 0.000000
# 6 0.000000 0.000000 0.000000 0.000000 0.000000 0.055341
#
#
# Mechanical properties :
#
#
# Convention : Reuss Voigt Hill
#
# Bulk Modulus (GPa) = 43.56392 56.79835 50.18113
# Shear Modulus (GPa) = 30.69309 11.31714 21.00511
#
# Velocity S-wave (km/s) = 4.38770 2.66431 3.62977
# Velocity P-wave (km/s) = 7.27971 6.71497 7.00303
#
# Compressibility (1/GPa) = 0.02295478
#
# Stress axis : x y z
#
# Youngs Moduli (GPa) = 82.65305 33.17709 72.43335
#
# Poissons Ratio (x) = 0.09083 0.31856
# Poissons Ratio (y) = 0.22628 0.68159
# Poissons Ratio (z) = 0.36351 0.31219
#
# Static dielectric constant tensor:
#      x y z
#    x 3.173130 0.000000 0.000000 
#    y 0.000000 2.632860 0.000000 
#    z 0.000000 0.000000 3.970980 
# 
# 
# High freq. dielectric constant tensor:
#      x y z
#    x 1.633220 0.000000 0.000000 
#    y 0.000000 1.552530 0.000000 
#    z 0.000000 0.000000 1.619650 
# 
# From -- ./inp_files/68149.got.cif
#   From: 2010.03.12/outbox.cif.g09.slc.cpg/sg65_35_cif.got.tgz:68149.got - 2010.04.10 20:52:16.
