data_PCOD8265559
_publ_section_title
;
Structure prediction by ZEFSAII (Michael W. Deem and Ramdas Pophale) SiO2 
 PCOD8265559
Probable space group: C M M M
;
_chemical_formula_sum "Si O2"
_cell_formula_units_Z 88
_cell_length_a 30.429420
_cell_length_b 27.356787
_cell_length_c 7.902545
_cell_angle_alpha 90.000000
_cell_angle_beta 90.000000
_cell_angle_gamma 90.000000
_cell_volume 6578.482764
_symmetry_space_group_name_H-M "C M M M"
_symmetry_group_IT_number 65
_symmetry_cell_setting 'orthorhombic'
loop_
_space_group_symop_operation_xyz
x,y,z
-x,-y,z
x,-y,-z
-x,y,-z
-x,-y,-z
x,y,-z
-x,y,z
x,-y,z
1/2+x,1/2+y,z
1/2-x,1/2-y,z
1/2+x,1/2-y,-z
1/2-x,1/2+y,-z
1/2-x,1/2-y,-z
1/2+x,1/2+y,-z
1/2-x,1/2+y,z
1/2+x,1/2-y,z
loop_
_atom_site_type_symbol
_atom_site_label
_atom_site_fract_x
_atom_site_fract_y
_atom_site_fract_z
Si Si1 0.367516 0.753387 0.315176
Si Si2 0.681372 0.724438 0.000000
Si Si3 0.549143 0.197873 0.194217
Si Si4 0.450329 0.000000 0.701234
Si Si5 0.819070 0.356347 0.687781
Si Si6 0.730771 0.172489 0.000000
Si Si7 0.409086 0.099953 0.302449
O O1 0.360844 0.728479 0.500000
O O2 0.419057 0.765007 0.293202
O O3 0.341625 0.803870 0.309110
O O4 0.348784 0.718463 0.167487
O O5 0.704840 0.776708 0.000000
O O6 0.717098 0.681276 0.000000
O O7 0.500000 0.203061 0.268786
O O8 0.564544 0.141893 0.205771
O O9 0.550473 0.213549 0.000000
O O10 0.425165 0.047893 0.769115
O O11 0.500000 0.000000 0.771117
O O12 0.450016 0.000000 0.500000
O O13 0.798731 0.365956 0.500000
O O14 0.856691 0.396174 0.729997
O O15 0.781506 0.358422 0.831516
O O16 0.419707 0.106246 0.500000
#
# Coordination Sequence:
#
# PCOD8265559 Si02
#       7
#    16   8  16   8  16   8  16
#     4   9  16  26  38  50  69  90 106 132 164 196
#     4   9  16  26  35  54  70  82 105 124 158 204
#     4  10  18  26  37  51  67  89 117 146 171 202
#     4   9  16  26  39  53  69  89 115 147 183 220
#     4   8  15  25  37  53  66  83 110 132 161 204
#     4   9  16  24  40  51  67  88  98 127 161 197
#     4   9  17  27  39  52  66  86 113 146 179 214
#
# _framework density 13.376944999999999
#
# number of rings (size 3 to 8) (size 9 to 14) (size 15 to 20)
#    0.000    3.000    0.909    2.182    3.818    2.909 
#    0.000    4.091    0.000    1.636    0.000    0.000 
#    0.000    0.000    0.000    0.000    0.000    0.000 
#
# Total GULP energy -545339.266670 kJ/mol
# GULP energy per Si atom -12394.074243 kJ/mol
# Density = 1.334650 g / cm^3
# Si number density = 13.376945 Si / 1000 Ang^3
#
#
#
# Elastic Constant Matrix: (Units=GPa)
#
#
# Indices 1 2 3 4 5 6 
#
# 1 86.1238 32.9644 49.2276 0.0000 0.0000 0.0000
# 2 32.9644 23.6544 21.0189 0.0000 0.0000 0.0000
# 3 49.2276 21.0189 91.3714 0.0000 0.0000 0.0000
# 4 0.0000 0.0000 0.0000 8.7289 0.0000 0.0000
# 5 0.0000 0.0000 0.0000 0.0000 16.0711 0.0000
# 6 0.0000 0.0000 0.0000 0.0000 0.0000 20.6297
#
#
#
# Elastic Compliance Matrix: (Units=1/GPa)
#
#
# Indices 1 2 3 4 5 6 
#
# 1 0.028804 -0.033121 -0.007899 0.000000 0.000000 0.000000
# 2 -0.033121 0.091223 -0.003140 0.000000 0.000000 0.000000
# 3 -0.007899 -0.003140 0.015923 0.000000 0.000000 0.000000
# 4 0.000000 0.000000 0.000000 0.114563 0.000000 0.000000
# 5 0.000000 0.000000 0.000000 0.000000 0.062223 0.000000
# 6 0.000000 0.000000 0.000000 0.000000 0.000000 0.048474
#
#
# Mechanical properties :
#
#
# Convention : Reuss Voigt Hill
#
# Bulk Modulus (GPa) = 20.99620 45.28571 33.14096
# Shear Modulus (GPa) = 10.74333 15.61518 13.17926
#
# Velocity S-wave (km/s) = 2.83702 3.42031 3.14223
# Velocity P-wave (km/s) = 5.14407 7.03741 6.16387
#
# Compressibility (1/GPa) = 0.04762766
#
# Stress axis : x y z
#
# Youngs Moduli (GPa) = 34.71799 10.96220 62.80408
#
# Poissons Ratio (x) = 0.36308 0.49610
# Poissons Ratio (y) = 1.14989 0.19723
# Poissons Ratio (z) = 0.27424 0.03442
#
# Static dielectric constant tensor:
#      x y z
#    x 2.705200 0.000000 0.000000 
#    y 0.000000 2.261580 0.000000 
#    z 0.000000 0.000000 2.882150 
# 
# 
# High freq. dielectric constant tensor:
#      x y z
#    x 1.494990 0.000000 0.000000 
#    y 0.000000 1.433510 0.000000 
#    z 0.000000 0.000000 1.524830 
# 
# From -- ./inp_files/17176.got.cif
#   From: 2010.03.12/outbox.cif.g09.slc.cpg/sg65_9_cif.got.tgz:17176.got - 2010.04.10 20:52:16.
