data_PCOD8265788
_publ_section_title
;
Structure prediction by ZEFSAII (Michael W. Deem and Ramdas Pophale) SiO2 
 PCOD8265788
Probable space group: C M M M
;
_chemical_formula_sum "Si O2"
_cell_formula_units_Z 88
_cell_length_a 23.612382
_cell_length_b 18.793074
_cell_length_c 12.853858
_cell_angle_alpha 90.000000
_cell_angle_beta 90.000000
_cell_angle_gamma 90.000000
_cell_volume 5703.889747
_symmetry_space_group_name_H-M "C M M M"
_symmetry_group_IT_number 65
_symmetry_cell_setting 'orthorhombic'
loop_
_space_group_symop_operation_xyz
x,y,z
-x,-y,z
x,-y,-z
-x,y,-z
-x,-y,-z
x,y,-z
-x,y,z
x,-y,z
1/2+x,1/2+y,z
1/2-x,1/2-y,z
1/2+x,1/2-y,-z
1/2-x,1/2+y,-z
1/2-x,1/2-y,-z
1/2+x,1/2+y,-z
1/2-x,1/2+y,z
1/2+x,1/2-y,z
loop_
_atom_site_type_symbol
_atom_site_label
_atom_site_fract_x
_atom_site_fract_y
_atom_site_fract_z
Si Si1 0.615303 0.161630 0.194006
Si Si2 0.934276 0.194122 0.122288
Si Si3 0.262652 0.167335 0.118945
Si Si4 0.066167 0.580992 0.381603
Si Si5 0.655186 0.420271 0.876876
Si Si6 0.433268 0.079156 0.000000
O O1 0.595715 0.243134 0.185618
O O2 0.682446 0.151423 0.187020
O O3 0.599465 0.133994 0.307385
O O4 0.585115 0.117954 0.104046
O O5 0.902269 0.121334 0.153948
O O6 0.000000 0.186577 0.153225
O O7 0.927118 0.210477 0.000000
O O8 0.250000 0.250000 0.125914
O O9 0.210334 0.121813 0.165106
O O10 0.275497 0.145534 0.000000
O O11 0.081692 0.600592 0.500000
O O12 0.083926 0.500000 0.357096
O O13 0.000000 0.590787 0.361591
O O14 0.652976 0.500000 0.829227
O O15 0.659712 0.424153 0.000000
O O16 0.500000 0.076690 0.000000
O O17 0.407277 0.000000 0.000000
#
# Coordination Sequence:
#
# PCOD8265788 Si02
#       6
#    16  16  16  16  16   8
#     4  12  19  30  49  70  97 124 163 199 235 291
#     4  10  18  28  44  67  94 124 157 195 243 290
#     4  10  18  31  46  65  97 132 160 193 236 288
#     4   9  19  35  51  68  95 131 167 201 239 286
#     4   9  18  30  43  61  90 129 168 199 227 275
#     4  11  22  30  39  68 107 131 151 190 242 290
#
# _framework density 15.428068
#
# number of rings (size 3 to 8) (size 9 to 14) (size 15 to 20)
#    0.000    1.909    3.636    2.727    0.000    3.273 
#    0.000    1.818    0.000    0.545    0.000    0.000 
#    0.000    0.727    0.000    3.818    0.000    0.182 
#
# Total GULP energy -545593.008038 kJ/mol
# GULP energy per Si atom -12399.841092 kJ/mol
# Density = 1.539295 g / cm^3
# Si number density = 15.428068 Si / 1000 Ang^3
#
#
#
# Elastic Constant Matrix: (Units=GPa)
#
#
# Indices 1 2 3 4 5 6 
#
# 1 107.0302 52.0743 26.2317 0.0000 0.0000 0.0000
# 2 52.0743 111.8797 29.4454 0.0000 0.0000 0.0000
# 3 26.2317 29.4454 56.4807 0.0000 0.0000 0.0000
# 4 0.0000 0.0000 0.0000 15.3523 0.0000 0.0000
# 5 0.0000 0.0000 0.0000 0.0000 17.3382 0.0000
# 6 0.0000 0.0000 0.0000 0.0000 0.0000 28.1042
#
#
#
# Elastic Compliance Matrix: (Units=1/GPa)
#
#
# Indices 1 2 3 4 5 6 
#
# 1 0.012567 -0.004999 -0.003230 0.000000 0.000000 0.000000
# 2 -0.004999 0.012348 -0.004116 0.000000 0.000000 0.000000
# 3 -0.003230 -0.004116 0.021351 0.000000 0.000000 0.000000
# 4 0.000000 0.000000 0.000000 0.065137 0.000000 0.000000
# 5 0.000000 0.000000 0.000000 0.000000 0.057676 0.000000
# 6 0.000000 0.000000 0.000000 0.000000 0.000000 0.035582
#
#
# Mechanical properties :
#
#
# Convention : Reuss Voigt Hill
#
# Bulk Modulus (GPa) = 46.34807 54.54373 50.44590
# Shear Modulus (GPa) = 21.13770 23.33488 22.23629
#
# Velocity S-wave (km/s) = 3.70548 3.89330 3.80055
# Velocity P-wave (km/s) = 6.95802 7.45927 7.21300
#
# Compressibility (1/GPa) = 0.02157587
#
# Stress axis : x y z
#
# Youngs Moduli (GPa) = 79.57230 80.98302 46.83583
#
# Poissons Ratio (x) = 0.40485 0.15130
# Poissons Ratio (y) = 0.39780 0.19277
# Poissons Ratio (z) = 0.25705 0.33331
#
# Static dielectric constant tensor:
#      x y z
#    x 3.177960 0.000000 0.000000 
#    y 0.000000 3.178620 0.000000 
#    z 0.000000 0.000000 2.565550 
# 
# 
# High freq. dielectric constant tensor:
#      x y z
#    x 1.600440 0.000000 0.000000 
#    y 0.000000 1.599570 0.000000 
#    z 0.000000 0.000000 1.533950 
# 
# From -- ./inp_files/44308.got.cif
#   From: 2010.03.12/outbox.cif.g09.slc.cpg/sg65_23_cif.got.tgz:44308.got - 2010.04.10 20:52:16.
