data_PCOD8265791
_publ_section_title
;
Structure prediction by ZEFSAII (Michael W. Deem and Ramdas Pophale) SiO2 
 PCOD8265791
Probable space group: C M M M
;
_chemical_formula_sum "Si O2"
_cell_formula_units_Z 96
_cell_length_a 10.602152
_cell_length_b 26.511168
_cell_length_c 21.833749
_cell_angle_alpha 90.000000
_cell_angle_beta 90.000000
_cell_angle_gamma 90.000000
_cell_volume 6136.930451
_symmetry_space_group_name_H-M "C M M M"
_symmetry_group_IT_number 65
_symmetry_cell_setting 'orthorhombic'
loop_
_space_group_symop_operation_xyz
x,y,z
-x,-y,z
x,-y,-z
-x,y,-z
-x,-y,-z
x,y,-z
-x,y,z
x,-y,z
1/2+x,1/2+y,z
1/2-x,1/2-y,z
1/2+x,1/2-y,-z
1/2-x,1/2+y,-z
1/2-x,1/2-y,-z
1/2+x,1/2+y,-z
1/2-x,1/2+y,z
1/2+x,1/2-y,z
loop_
_atom_site_type_symbol
_atom_site_label
_atom_site_fract_x
_atom_site_fract_y
_atom_site_fract_z
Si Si1 0.354203 0.707981 0.071108
Si Si2 0.000000 0.941635 0.809607
Si Si3 0.233191 0.559355 0.353836
Si Si4 0.269078 0.396360 0.120291
Si Si5 0.000000 0.060205 0.671820
Si Si6 0.500000 0.060387 0.430585
Si Si7 0.354620 0.940151 0.000000
Si Si8 0.642099 0.056644 0.224084
O O1 0.500000 0.724751 0.085767
O O2 0.250000 0.750000 0.087383
O O3 0.315836 0.660559 0.112162
O O4 0.343930 0.693119 0.000000
O O5 0.880572 0.928169 0.850356
O O6 0.000000 0.916640 0.741389
O O7 0.000000 0.000000 0.797737
O O8 0.218530 0.500000 0.361279
O O9 0.376676 0.577601 0.367700
O O10 0.125798 0.583234 0.397682
O O11 0.219737 0.574568 0.282827
O O12 0.221160 0.419436 0.057400
O O13 0.156649 0.402529 0.169566
O O14 0.000000 0.000000 0.677087
O O15 0.500000 0.080107 0.500000
O O16 0.500000 0.000000 0.428323
O O17 0.500000 0.920725 0.000000
O O18 0.352246 0.000000 0.000000
O O19 0.500000 0.055628 0.246592
O O20 0.682864 0.000000 0.202491
#
# Coordination Sequence:
#
# PCOD8265791 Si02
#       8
#    16   8  16  16   8   8   8  16
#     4  10  22  41  58  71  87 113 155 206 251 295
#     4  11  20  29  48  74  99 123 149 183 238 301
#     4   9  15  25  40  58  83 117 154 193 231 270
#     4  12  21  34  50  70  94 120 154 197 245 297
#     4   9  16  26  40  62  90 121 151 185 227 278
#     4   9  16  26  40  58  81 114 161 209 240 261
#     4  11  24  37  46  65 100 130 152 189 247 308
#     4  10  18  28  44  67  95 126 160 193 229 285
#
# _framework density 15.642999
#
# number of rings (size 3 to 8) (size 9 to 14) (size 15 to 20)
#    0.000    1.833    4.167    2.000    0.000    3.000 
#    0.000    1.250    0.000    2.500    0.000    0.000 
#    0.000    0.000    0.000    0.000    0.000    0.833 
#
# Total GULP energy -594673.719226 kJ/mol
# GULP energy per Si atom -12389.035817 kJ/mol
# Density = 1.560739 g / cm^3
# Si number density = 15.642999 Si / 1000 Ang^3
#
#
#
# Elastic Constant Matrix: (Units=GPa)
#
#
# Indices 1 2 3 4 5 6 
#
# 1 130.6953 26.2773 57.5540 0.0000 0.0000 0.0000
# 2 26.2773 41.7883 12.7246 0.0000 0.0000 0.0000
# 3 57.5540 12.7246 63.5033 0.0000 0.0000 0.0000
# 4 0.0000 0.0000 0.0000 1.5609 0.0000 0.0000
# 5 0.0000 0.0000 0.0000 0.0000 17.8368 0.0000
# 6 0.0000 0.0000 0.0000 0.0000 0.0000 13.4176
#
#
#
# Elastic Compliance Matrix: (Units=1/GPa)
#
#
# Indices 1 2 3 4 5 6 
#
# 1 0.013700 -0.005148 -0.011385 0.000000 0.000000 0.000000
# 2 -0.005148 0.027420 -0.000828 0.000000 0.000000 0.000000
# 3 -0.011385 -0.000828 0.026232 0.000000 0.000000 0.000000
# 4 0.000000 0.000000 0.000000 0.640648 0.000000 0.000000
# 5 0.000000 0.000000 0.000000 0.000000 0.056064 0.000000
# 6 0.000000 0.000000 0.000000 0.000000 0.000000 0.074529
#
#
# Mechanical properties :
#
#
# Convention : Reuss Voigt Hill
#
# Bulk Modulus (GPa) = 30.64835 47.67763 39.16299
# Shear Modulus (GPa) = 5.65488 15.85845 10.75667
#
# Velocity S-wave (km/s) = 1.90337 3.18743 2.62512
# Velocity P-wave (km/s) = 4.94624 6.64011 5.85476
#
# Compressibility (1/GPa) = 0.03262818
#
# Stress axis : x y z
#
# Youngs Moduli (GPa) = 72.99249 36.47021 38.12191
#
# Poissons Ratio (x) = 0.18775 0.43402
# Poissons Ratio (y) = 0.37577 0.03158
# Poissons Ratio (z) = 0.83102 0.03021
#
# Static dielectric constant tensor:
#      x y z
#    x 3.658890 0.000000 0.000000 
#    y 0.000000 2.514190 0.000000 
#    z 0.000000 0.000000 2.881600 
# 
# 
# High freq. dielectric constant tensor:
#      x y z
#    x 1.633300 0.000000 0.000000 
#    y 0.000000 1.527560 0.000000 
#    z 0.000000 0.000000 1.585630 
# 
# From -- ./inp_files/61683.got.cif
#   From: 2010.03.12/outbox.cif.g09.slc.cpg/sg65_31_cif.got.tgz:61683.got - 2010.04.10 20:52:16.
