data_PCOD8265095
_publ_section_title
;
Structure prediction by ZEFSAII (Michael W. Deem and Ramdas Pophale) SiO2 
 PCOD8265095
Probable space group: C M M M
;
_chemical_formula_sum "Si O2"
_cell_formula_units_Z 104
_cell_length_a 29.013362
_cell_length_b 8.696629
_cell_length_c 24.440259
_cell_angle_alpha 90.000000
_cell_angle_beta 90.000000
_cell_angle_gamma 90.000000
_cell_volume 6166.728155
_symmetry_space_group_name_H-M "C M M M"
_symmetry_group_IT_number 65
_symmetry_cell_setting 'orthorhombic'
loop_
_space_group_symop_operation_xyz
x,y,z
-x,-y,z
x,-y,-z
-x,y,-z
-x,-y,-z
x,y,-z
-x,y,z
x,-y,z
1/2+x,1/2+y,z
1/2-x,1/2-y,z
1/2+x,1/2-y,-z
1/2-x,1/2+y,-z
1/2-x,1/2-y,-z
1/2+x,1/2+y,-z
1/2-x,1/2+y,z
1/2+x,1/2-y,z
loop_
_atom_site_type_symbol
_atom_site_label
_atom_site_fract_x
_atom_site_fract_y
_atom_site_fract_z
Si Si1 0.205029 0.319360 0.888814
Si Si2 0.630381 0.679912 0.820113
Si Si3 0.801454 0.681100 0.500000
Si Si4 0.300873 0.320062 0.272285
Si Si5 0.699945 0.678996 0.393319
Si Si6 0.189120 0.820081 0.000000
Si Si7 0.580540 0.675958 0.000000
Si Si8 0.553012 0.175540 0.885553
O O1 0.199632 0.500000 0.877150
O O2 0.250000 0.250000 0.857188
O O3 0.160461 0.221914 0.872611
O O4 0.211232 0.277576 0.951527
O O5 0.622950 0.500000 0.813293
O O6 0.659412 0.747616 0.768103
O O7 0.580759 0.753120 0.833596
O O8 0.800389 0.500000 0.500000
O O9 0.750000 0.750000 0.500000
O O10 0.827093 0.740712 0.444361
O O11 0.294705 0.500000 0.261597
O O12 0.250000 0.250000 0.262825
O O13 0.321402 0.288404 0.333340
O O14 0.703011 0.500000 0.406111
O O15 0.750000 0.750000 0.390895
O O16 0.134669 0.803787 0.000000
O O17 0.203975 0.000000 0.000000
O O18 0.560478 0.748622 0.944663
O O19 0.565119 0.500000 0.000000
O O20 0.500000 0.192651 0.868780
O O21 0.568533 0.000000 0.891480
#
# Coordination Sequence:
#
# PCOD8265095 Si02
#       8
#    16  16   8  16  16   8   8  16
#     4  12  24  37  53  72  96 126 156 190 230 276
#     4  11  22  37  54  74  97 123 158 197 235 281
#     4  10  16  22  34  56  84 118 159 202 239 272
#     4   9  19  32  48  69  95 127 165 202 236 275
#     4   9  15  25  39  58  85 120 159 199 237 272
#     4  11  22  37  54  74  96 120 150 189 230 278
#     4  11  22  37  60  81  99 120 147 185 234 291
#     4  11  24  40  58  79 100 122 150 187 235 291
#
# _framework density 16.864698000000001
#
# number of rings (size 3 to 8) (size 9 to 14) (size 15 to 20)
#    0.000    1.538    1.538    5.769    0.000    5.846 
#    0.000    0.000    0.000    0.000    0.000    0.000 
#    0.000    0.000    0.000    0.692    0.000   14.538 
#
# Total GULP energy -644261.701553 kJ/mol
# GULP energy per Si atom -12389.648107 kJ/mol
# Density = 1.682631 g / cm^3
# Si number density = 16.864698 Si / 1000 Ang^3
#
#
#
# Elastic Constant Matrix: (Units=GPa)
#
#
# Indices 1 2 3 4 5 6 
#
# 1 70.1307 32.2763 34.1017 0.0000 0.0000 0.0000
# 2 32.2763 94.4750 41.2153 0.0000 0.0000 0.0000
# 3 34.1017 41.2153 121.8135 0.0000 0.0000 0.0000
# 4 0.0000 0.0000 0.0000 22.6805 0.0000 0.0000
# 5 0.0000 0.0000 0.0000 0.0000 25.3320 0.0000
# 6 0.0000 0.0000 0.0000 0.0000 0.0000 22.2153
#
#
#
# Elastic Compliance Matrix: (Units=1/GPa)
#
#
# Indices 1 2 3 4 5 6 
#
# 1 0.018102 -0.004662 -0.003490 0.000000 0.000000 0.000000
# 2 -0.004662 0.013618 -0.003303 0.000000 0.000000 0.000000
# 3 -0.003490 -0.003303 0.010304 0.000000 0.000000 0.000000
# 4 0.000000 0.000000 0.000000 0.044091 0.000000 0.000000
# 5 0.000000 0.000000 0.000000 0.000000 0.039476 0.000000
# 6 0.000000 0.000000 0.000000 0.000000 0.000000 0.045014
#
#
# Mechanical properties :
#
#
# Convention : Reuss Voigt Hill
#
# Bulk Modulus (GPa) = 52.31610 55.73399 54.02504
# Shear Modulus (GPa) = 25.01438 25.96727 25.49083
#
# Velocity S-wave (km/s) = 3.85546 3.92821 3.89201
# Velocity P-wave (km/s) = 7.13498 7.32761 7.23194
#
# Compressibility (1/GPa) = 0.01911458
#
# Stress axis : x y z
#
# Youngs Moduli (GPa) = 55.24339 73.43120 97.05109
#
# Poissons Ratio (x) = 0.34230 0.33874
# Poissons Ratio (y) = 0.25752 0.32053
# Poissons Ratio (z) = 0.19282 0.24252
#
# Static dielectric constant tensor:
#      x y z
#    x 2.972490 0.000000 0.000000 
#    y 0.000000 3.225170 0.000000 
#    z 0.000000 0.000000 4.265860 
# 
# 
# High freq. dielectric constant tensor:
#      x y z
#    x 1.607190 0.000000 0.000000 
#    y 0.000000 1.664300 0.000000 
#    z 0.000000 0.000000 1.650160 
# 
# From -- ./inp_files/72230.got.cif
#   From: 2010.03.12/outbox.cif.g09.slc.cpg/sg65_37_cif.got.tgz:72230.got - 2010.04.10 20:52:16.
