data_PCOD8265534
_publ_section_title
;
Structure prediction by ZEFSAII (Michael W. Deem and Ramdas Pophale) SiO2 
 PCOD8265534
Probable space group: C M M M
;
_chemical_formula_sum "Si O2"
_cell_formula_units_Z 96
_cell_length_a 23.963902
_cell_length_b 8.923776
_cell_length_c 23.294580
_cell_angle_alpha 90.000000
_cell_angle_beta 90.000000
_cell_angle_gamma 90.000000
_cell_volume 4981.510841
_symmetry_space_group_name_H-M "C M M M"
_symmetry_group_IT_number 65
_symmetry_cell_setting 'orthorhombic'
loop_
_space_group_symop_operation_xyz
x,y,z
-x,-y,z
x,-y,-z
-x,y,-z
-x,-y,-z
x,y,-z
-x,y,z
x,-y,z
1/2+x,1/2+y,z
1/2-x,1/2-y,z
1/2+x,1/2-y,-z
1/2-x,1/2+y,-z
1/2-x,1/2-y,-z
1/2+x,1/2+y,-z
1/2-x,1/2+y,z
1/2+x,1/2-y,z
loop_
_atom_site_type_symbol
_atom_site_label
_atom_site_fract_x
_atom_site_fract_y
_atom_site_fract_z
Si Si1 0.500000 0.178334 0.726360
Si Si2 0.391823 0.828517 0.435797
Si Si3 0.000000 0.822845 0.065526
Si Si4 0.500000 0.676241 0.603149
Si Si5 0.190381 0.323052 0.335146
Si Si6 0.309965 0.176744 0.000000
Si Si7 0.382784 0.176102 0.768981
Si Si8 0.887811 0.675895 0.103305
O O1 0.500000 0.236810 0.662422
O O2 0.445049 0.240805 0.758641
O O3 0.500000 0.000000 0.724971
O O4 0.366740 0.814139 0.500000
O O5 0.445627 0.723185 0.432350
O O6 0.345631 0.774703 0.390359
O O7 0.409417 0.000000 0.422454
O O8 0.054214 0.760423 0.096733
O O9 0.000000 0.000000 0.069763
O O10 0.000000 0.766895 0.000000
O O11 0.500000 0.500000 0.613645
O O12 0.197996 0.500000 0.331798
O O13 0.250000 0.250000 0.341288
O O14 0.160582 0.258062 0.277543
O O15 0.250000 0.250000 0.000000
O O16 0.343391 0.231656 0.943765
O O17 0.302155 0.000000 0.000000
O O18 0.363288 0.215255 0.833698
O O19 0.385336 0.000000 0.759297
O O20 0.899707 0.500000 0.096396
#
# Coordination Sequence:
#
# PCOD8265534 Si02
#       8
#     8  16   8   8  16   8  16  16
#     4  10  17  34  60  82 108 148 185 221 270 335
#     4  10  21  39  62  83 107 147 192 225 266 334
#     4  11  22  35  55  85 119 150 177 223 288 338
#     4  12  23  34  55  88 121 146 174 226 285 330
#     4  10  21  38  58  82 111 146 188 232 274 323
#     4  10  22  37  56  81 111 146 190 234 275 324
#     4   9  18  34  60  85 108 142 187 230 271 324
#     4  10  20  37  60  85 109 146 192 230 270 329
#
# _framework density 19.271260999999999
#
# number of rings (size 3 to 8) (size 9 to 14) (size 15 to 20)
#    0.000    1.917    2.500    1.750    0.000    5.333 
#    0.000    2.500    0.000    0.000    0.000    0.000 
#    0.000    0.000    0.000    0.000    0.000    0.000 
#
# Total GULP energy -595235.819374 kJ/mol
# GULP energy per Si atom -12400.746237 kJ/mol
# Density = 1.922740 g / cm^3
# Si number density = 19.271261 Si / 1000 Ang^3
#
#
#
# Elastic Constant Matrix: (Units=GPa)
#
#
# Indices 1 2 3 4 5 6 
#
# 1 159.1470 31.5130 74.6062 0.0000 0.0000 0.0000
# 2 31.5130 24.0174 18.0801 0.0000 0.0000 0.0000
# 3 74.6062 18.0801 162.8431 0.0000 0.0000 0.0000
# 4 0.0000 0.0000 0.0000 12.1504 0.0000 0.0000
# 5 0.0000 0.0000 0.0000 0.0000 12.4553 0.0000
# 6 0.0000 0.0000 0.0000 0.0000 0.0000 33.5336
#
#
#
# Elastic Compliance Matrix: (Units=1/GPa)
#
#
# Indices 1 2 3 4 5 6 
#
# 1 0.009955 -0.010507 -0.003394 0.000000 0.000000 0.000000
# 2 -0.010507 0.056523 -0.001462 0.000000 0.000000 0.000000
# 3 -0.003394 -0.001462 0.007858 0.000000 0.000000 0.000000
# 4 0.000000 0.000000 0.000000 0.082302 0.000000 0.000000
# 5 0.000000 0.000000 0.000000 0.000000 0.080287 0.000000
# 6 0.000000 0.000000 0.000000 0.000000 0.000000 0.029821
#
#
# Mechanical properties :
#
#
# Convention : Reuss Voigt Hill
#
# Bulk Modulus (GPa) = 22.93043 66.04513 44.48778
# Shear Modulus (GPa) = 16.02514 26.41507 21.22011
#
# Velocity S-wave (km/s) = 2.88680 3.70631 3.32192
# Velocity P-wave (km/s) = 4.79959 7.25681 6.15213
#
# Compressibility (1/GPa) = 0.04361017
#
# Stress axis : x y z
#
# Youngs Moduli (GPa) = 100.44947 17.69190 127.25330
#
# Poissons Ratio (x) = 0.18589 0.43195
# Poissons Ratio (y) = 1.05541 0.18603
# Poissons Ratio (z) = 0.34097 0.02586
#
# Static dielectric constant tensor:
#      x y z
#    x 3.657810 0.000000 0.000000 
#    y 0.000000 3.208680 0.000000 
#    z 0.000000 0.000000 3.821170 
# 
# 
# High freq. dielectric constant tensor:
#      x y z
#    x 1.744930 0.000000 0.000000 
#    y 0.000000 1.718050 0.000000 
#    z 0.000000 0.000000 1.769870 
# 
# From -- ./inp_files/71493.got.cif
#   From: 2010.03.12/outbox.cif.g09.slc.cpg/sg65_36_cif.got.tgz:71493.got - 2010.04.10 20:52:16.
