data_PCOD8265544
_publ_section_title
;
Structure prediction by ZEFSAII (Michael W. Deem and Ramdas Pophale) SiO2 
 PCOD8265544
Probable space group: C M M M
;
_chemical_formula_sum "Si O2"
_cell_formula_units_Z 104
_cell_length_a 9.273734
_cell_length_b 31.770585
_cell_length_c 21.582580
_cell_angle_alpha 90.000000
_cell_angle_beta 90.000000
_cell_angle_gamma 90.000000
_cell_volume 6358.917725
_symmetry_space_group_name_H-M "C M M M"
_symmetry_group_IT_number 65
_symmetry_cell_setting 'orthorhombic'
loop_
_space_group_symop_operation_xyz
x,y,z
-x,-y,z
x,-y,-z
-x,y,-z
-x,-y,-z
x,y,-z
-x,y,z
x,-y,z
1/2+x,1/2+y,z
1/2-x,1/2-y,z
1/2+x,1/2-y,-z
1/2-x,1/2+y,-z
1/2-x,1/2-y,-z
1/2+x,1/2+y,-z
1/2-x,1/2+y,z
1/2+x,1/2-y,z
loop_
_atom_site_type_symbol
_atom_site_label
_atom_site_fract_x
_atom_site_fract_y
_atom_site_fract_z
Si Si1 0.836007 0.659799 0.568966
Si Si2 0.836142 0.867554 0.257288
Si Si3 0.340228 0.000000 0.613987
Si Si4 0.831988 0.916086 0.381638
Si Si5 0.330493 0.500000 0.931921
Si Si6 0.655303 0.000000 0.757221
Si Si7 0.831582 0.292535 0.690715
Si Si8 0.165360 0.061915 0.828114
O O1 0.818537 0.679147 0.500000
O O2 0.728288 0.620861 0.574993
O O3 0.798037 0.695623 0.619293
O O4 0.000000 0.644062 0.580430
O O5 0.805545 0.902764 0.310077
O O6 0.726577 0.828959 0.263661
O O7 0.815503 0.888372 0.187932
O O8 0.000000 0.850881 0.264514
O O9 0.250011 0.041640 0.597413
O O10 0.500000 0.000000 0.581415
O O11 0.369800 0.000000 0.685652
O O12 0.000000 0.922888 0.395306
O O13 0.500000 0.500000 0.941369
O O14 0.283638 0.457040 0.894887
O O15 0.256049 0.500000 0.000000
O O16 0.742618 0.041086 0.774674
O O17 0.500000 0.000000 0.791268
O O18 0.750000 0.250000 0.707525
O O19 0.000000 0.286483 0.703491
O O20 0.000000 0.048636 0.818984
#
# Coordination Sequence:
#
# PCOD8265544 Si02
#       8
#    16  16   8  16   8   8  16  16
#     4   9  19  36  53  67  87 115 145 178 220 272
#     4   9  17  29  45  65  89 118 150 185 228 273
#     4  11  20  28  41  62  88 115 143 179 225 273
#     4  10  19  30  46  66  88 113 145 189 230 268
#     4   8  14  24  41  67  98 133 171 203 225 250
#     4  10  18  24  37  62  89 114 148 188 220 259
#     4  10  20  33  50  71  94 117 141 176 224 277
#     4   9  16  27  43  62  90 127 162 194 227 262
#
# _framework density 16.354984999999999
#
# number of rings (size 3 to 8) (size 9 to 14) (size 15 to 20)
#    0.000    2.538    1.538    1.846    0.000    3.077 
#    0.000    0.385    0.000    6.000    0.000    0.000 
#    0.000    0.615    0.000    1.077    0.000    1.538 
#
# Total GULP energy -644212.463299 kJ/mol
# GULP energy per Si atom -12388.701217 kJ/mol
# Density = 1.631776 g / cm^3
# Si number density = 16.354985 Si / 1000 Ang^3
#
#
#
# Elastic Constant Matrix: (Units=GPa)
#
#
# Indices 1 2 3 4 5 6 
#
# 1 84.0697 49.0009 17.8573 0.0000 0.0000 0.0000
# 2 49.0009 94.3957 29.0034 0.0000 0.0000 0.0000
# 3 17.8573 29.0034 72.2142 0.0000 0.0000 0.0000
# 4 0.0000 0.0000 0.0000 16.8506 0.0000 0.0000
# 5 0.0000 0.0000 0.0000 0.0000 9.5853 0.0000
# 6 0.0000 0.0000 0.0000 0.0000 0.0000 33.4608
#
#
#
# Elastic Compliance Matrix: (Units=1/GPa)
#
#
# Indices 1 2 3 4 5 6 
#
# 1 0.017091 -0.008640 -0.000756 0.000000 0.000000 0.000000
# 2 -0.008640 0.016452 -0.004471 0.000000 0.000000 0.000000
# 3 -0.000756 -0.004471 0.015831 0.000000 0.000000 0.000000
# 4 0.000000 0.000000 0.000000 0.059345 0.000000 0.000000
# 5 0.000000 0.000000 0.000000 0.000000 0.104326 0.000000
# 6 0.000000 0.000000 0.000000 0.000000 0.000000 0.029886
#
#
# Mechanical properties :
#
#
# Convention : Reuss Voigt Hill
#
# Bulk Modulus (GPa) = 46.21207 49.15588 47.68398
# Shear Modulus (GPa) = 17.99342 22.30055 20.14698
#
# Velocity S-wave (km/s) = 3.32049 3.69661 3.51359
# Velocity P-wave (km/s) = 6.55880 6.95275 6.75865
#
# Compressibility (1/GPa) = 0.02163937
#
# Stress axis : x y z
#
# Youngs Moduli (GPa) = 58.50930 60.78134 63.16889
#
# Poissons Ratio (x) = 0.52513 0.04778
# Poissons Ratio (y) = 0.50550 0.28245
# Poissons Ratio (z) = 0.04426 0.27177
#
# Static dielectric constant tensor:
#      x y z
#    x 3.186070 0.000000 0.000000 
#    y 0.000000 3.159750 0.000000 
#    z 0.000000 0.000000 2.967590 
# 
# 
# High freq. dielectric constant tensor:
#      x y z
#    x 1.636200 0.000000 0.000000 
#    y 0.000000 1.612260 0.000000 
#    z 0.000000 0.000000 1.587730 
# 
# From -- ./inp_files/68611.got.cif
#   From: 2010.03.12/outbox.cif.g09.slc.cpg/sg65_35_cif.got.tgz:68611.got - 2010.04.10 20:52:16.
