data_PCOD8265938
_publ_section_title
;
Structure prediction by ZEFSAII (Michael W. Deem and Ramdas Pophale) SiO2 
 PCOD8265938
Probable space group: C M M M
;
_chemical_formula_sum "Si O2"
_cell_formula_units_Z 80
_cell_length_a 29.017859
_cell_length_b 8.017586
_cell_length_c 22.200365
_cell_angle_alpha 90.000000
_cell_angle_beta 90.000000
_cell_angle_gamma 90.000000
_cell_volume 5164.985516
_symmetry_space_group_name_H-M "C M M M"
_symmetry_group_IT_number 65
_symmetry_cell_setting 'orthorhombic'
loop_
_space_group_symop_operation_xyz
x,y,z
-x,-y,z
x,-y,-z
-x,y,-z
-x,-y,-z
x,y,-z
-x,y,z
x,-y,z
1/2+x,1/2+y,z
1/2-x,1/2-y,z
1/2+x,1/2-y,-z
1/2-x,1/2+y,-z
1/2-x,1/2-y,-z
1/2+x,1/2+y,-z
1/2-x,1/2+y,z
1/2+x,1/2-y,z
loop_
_atom_site_type_symbol
_atom_site_label
_atom_site_fract_x
_atom_site_fract_y
_atom_site_fract_z
Si Si1 0.701309 0.696243 0.932585
Si Si2 0.448276 0.808089 0.769224
Si Si3 0.944981 0.500000 0.431662
Si Si4 0.948324 0.198264 0.000000
Si Si5 0.554700 0.684243 0.358022
Si Si6 0.605992 0.697731 0.883227
O O1 0.698096 0.500000 0.937738
O O2 0.750000 0.750000 0.902884
O O3 0.658888 0.758452 0.891507
O O4 0.697391 0.773857 0.000000
O O5 0.500000 0.748676 0.787600
O O6 0.429840 0.707731 0.711283
O O7 0.413524 0.782027 0.823794
O O8 0.449359 0.000000 0.750200
O O9 0.927090 0.500000 0.500000
O O10 0.925022 0.667778 0.399861
O O11 0.000000 0.500000 0.428900
O O12 0.922537 0.263888 0.059356
O O13 0.000000 0.270290 0.000000
O O14 0.948208 0.000000 0.000000
O O15 0.500000 0.694483 0.361120
O O16 0.571674 0.500000 0.379766
O O17 0.601798 0.500000 0.876922
#
# Coordination Sequence:
#
# PCOD8265938 Si02
#       6
#    16  16   8   8  16  16
#     4   9  17  30  46  62  80 101 130 174 223 271
#     4  10  19  30  42  58  83 113 145 184 222 261
#     4   9  16  26  40  60  86 111 143 189 225 252
#     4   9  16  26  40  57  79 103 131 175 224 264
#     4   9  16  27  42  58  80 113 149 183 220 260
#     4  10  18  29  44  62  79 102 141 181 219 270
#
# _framework density 15.488911
#
# number of rings (size 3 to 8) (size 9 to 14) (size 15 to 20)
#    0.000    2.600    2.000    1.200    0.000    3.200 
#    0.000    2.500    0.000    1.800    0.000    0.000 
#    0.000    0.000    0.000    0.000    0.000    1.000 
#
# Total GULP energy -495814.548888 kJ/mol
# GULP energy per Si atom -12395.363722 kJ/mol
# Density = 1.545366 g / cm^3
# Si number density = 15.488911 Si / 1000 Ang^3
#
#
#
# Elastic Constant Matrix: (Units=GPa)
#
#
# Indices 1 2 3 4 5 6 
#
# 1 83.3847 16.5724 35.1032 0.0000 0.0000 0.0000
# 2 16.5724 71.3891 41.4822 0.0000 0.0000 0.0000
# 3 35.1032 41.4822 99.0256 0.0000 0.0000 0.0000
# 4 0.0000 0.0000 0.0000 20.7802 0.0000 0.0000
# 5 0.0000 0.0000 0.0000 0.0000 -0.5252 0.0000
# 6 0.0000 0.0000 0.0000 0.0000 0.0000 14.7948
#
#
#
# Elastic Compliance Matrix: (Units=1/GPa)
#
#
# Indices 1 2 3 4 5 6 
#
# 1 0.014109 -0.000488 -0.004797 0.000000 0.000000 0.000000
# 2 -0.000488 0.018531 -0.007590 0.000000 0.000000 0.000000
# 3 -0.004797 -0.007590 0.014978 0.000000 0.000000 0.000000
# 4 0.000000 0.000000 0.000000 0.048123 0.000000 0.000000
# 5 0.000000 0.000000 0.000000 0.000000 -1.903979 0.000000
# 6 0.000000 0.000000 0.000000 0.000000 0.000000 0.067591
#
#
# Mechanical properties :
#
#
# Convention : Reuss Voigt Hill
#
# Bulk Modulus (GPa) = 45.72685 48.90167 47.31426
# Shear Modulus (GPa) = -2.92807 17.71938 7.39565
#
# Velocity S-wave (km/s) = -1.37642 3.38598 2.18750
# Velocity P-wave (km/s) = 5.20196 6.85034 6.08225
#
# Compressibility (1/GPa) = 0.02186899
#
# Stress axis : x y z
#
# Youngs Moduli (GPa) = 70.87645 53.96285 66.76304
#
# Poissons Ratio (x) = 0.02633 0.32027
# Poissons Ratio (y) = 0.03458 0.50672
# Poissons Ratio (z) = 0.34000 0.40957
#
# Static dielectric constant tensor:
#      x y z
#    x 2.842630 0.000000 0.000000 
#    y 0.000000 2.999110 0.000000 
#    z 0.000000 0.000000 2.867380 
# 
# 
# High freq. dielectric constant tensor:
#      x y z
#    x 1.545470 0.000000 0.000000 
#    y 0.000000 1.598550 0.000000 
#    z 0.000000 0.000000 1.574920 
# 
# From -- ./inp_files/66161.got.cif
#   From: 2010.03.12/outbox.cif.g09.slc.cpg/sg65_34_cif.got.tgz:66161.got - 2010.04.10 20:52:16.
