data_PCOD8265716
_publ_section_title
;
Structure prediction by ZEFSAII (Michael W. Deem and Ramdas Pophale) SiO2 
 PCOD8265716
Probable space group: C M M M
;
_chemical_formula_sum "Si O2"
_cell_formula_units_Z 96
_cell_length_a 27.144522
_cell_length_b 8.853597
_cell_length_c 24.061375
_cell_angle_alpha 90.000000
_cell_angle_beta 90.000000
_cell_angle_gamma 90.000000
_cell_volume 5782.589854
_symmetry_space_group_name_H-M "C M M M"
_symmetry_group_IT_number 65
_symmetry_cell_setting 'orthorhombic'
loop_
_space_group_symop_operation_xyz
x,y,z
-x,-y,z
x,-y,-z
-x,y,-z
-x,-y,-z
x,y,-z
-x,y,z
x,-y,z
1/2+x,1/2+y,z
1/2-x,1/2-y,z
1/2+x,1/2-y,-z
1/2-x,1/2+y,-z
1/2-x,1/2-y,-z
1/2+x,1/2+y,-z
1/2-x,1/2+y,z
1/2+x,1/2-y,z
loop_
_atom_site_type_symbol
_atom_site_label
_atom_site_fract_x
_atom_site_fract_y
_atom_site_fract_z
Si Si1 0.151988 0.675322 0.226067
Si Si2 0.304378 0.680309 0.000000
Si Si3 0.899181 0.821516 0.613968
Si Si4 0.556050 0.319896 0.500000
Si Si5 0.800607 0.821871 0.328498
Si Si6 0.696864 0.178129 0.889959
Si Si7 0.445617 0.825401 0.715898
O O1 0.162515 0.500000 0.237954
O O2 0.188103 0.769378 0.265753
O O3 0.162311 0.715927 0.162281
O O4 0.095091 0.719428 0.238073
O O5 0.250000 0.750000 0.000000
O O6 0.329460 0.744549 0.056283
O O7 0.304135 0.500000 0.000000
O O8 0.914913 0.757204 0.553885
O O9 0.844162 0.766331 0.630238
O O10 0.938119 0.765709 0.659267
O O11 0.901308 0.000000 0.613705
O O12 0.555654 0.500000 0.500000
O O13 0.500000 0.258733 0.500000
O O14 0.750000 0.750000 0.350299
O O15 0.795103 0.000000 0.328727
O O16 0.750000 0.250000 0.878568
O O17 0.702883 0.000000 0.900048
O O18 0.500000 0.787817 0.739793
O O19 0.440556 0.000000 0.700359
#
# Coordination Sequence:
#
# PCOD8265716 Si02
#       7
#    16   8  16   8  16  16  16
#     4   9  18  30  45  66  90 117 148 180 216 259
#     4  10  18  28  42  60  85 116 147 177 212 253
#     4   9  18  31  47  67  88 113 147 182 217 260
#     4   9  16  28  48  69  87 109 141 183 224 261
#     4  10  19  30  45  64  88 117 147 181 218 259
#     4  10  18  28  42  61  87 116 146 178 211 250
#     4   9  17  30  47  67  92 118 142 175 221 266
#
# _framework density 16.601559000000002
#
# number of rings (size 3 to 8) (size 9 to 14) (size 15 to 20)
#    0.000    2.583    0.000    3.750    0.000    4.333 
#    0.000    0.833    0.000    1.500    0.000    0.583 
#    0.000    4.667    0.000    0.000    0.000    0.000 
#
# Total GULP energy -595058.857406 kJ/mol
# GULP energy per Si atom -12397.059529 kJ/mol
# Density = 1.656377 g / cm^3
# Si number density = 16.601559 Si / 1000 Ang^3
#
#
#
# Elastic Constant Matrix: (Units=GPa)
#
#
# Indices 1 2 3 4 5 6 
#
# 1 107.0412 27.6672 60.9113 0.0000 0.0000 0.0000
# 2 27.6672 50.7932 37.6372 0.0000 0.0000 0.0000
# 3 60.9113 37.6372 143.1341 0.0000 0.0000 0.0000
# 4 0.0000 0.0000 0.0000 22.4719 0.0000 0.0000
# 5 0.0000 0.0000 0.0000 0.0000 19.4341 0.0000
# 6 0.0000 0.0000 0.0000 0.0000 0.0000 18.2220
#
#
#
# Elastic Compliance Matrix: (Units=1/GPa)
#
#
# Indices 1 2 3 4 5 6 
#
# 1 0.012853 -0.003662 -0.004507 0.000000 0.000000 0.000000
# 2 -0.003662 0.025495 -0.005146 0.000000 0.000000 0.000000
# 3 -0.004507 -0.005146 0.010257 0.000000 0.000000 0.000000
# 4 0.000000 0.000000 0.000000 0.044500 0.000000 0.000000
# 5 0.000000 0.000000 0.000000 0.000000 0.051456 0.000000
# 6 0.000000 0.000000 0.000000 0.000000 0.000000 0.054879
#
#
# Mechanical properties :
#
#
# Convention : Reuss Voigt Hill
#
# Bulk Modulus (GPa) = 45.50157 61.48886 53.49522
# Shear Modulus (GPa) = 21.42291 23.67578 22.54935
#
# Velocity S-wave (km/s) = 3.59613 3.78049 3.68947
# Velocity P-wave (km/s) = 6.68658 7.49497 7.10229
#
# Compressibility (1/GPa) = 0.02197726
#
# Stress axis : x y z
#
# Youngs Moduli (GPa) = 77.80118 39.22327 97.48988
#
# Poissons Ratio (x) = 0.14362 0.43938
# Poissons Ratio (y) = 0.28488 0.50166
# Poissons Ratio (z) = 0.35065 0.20183
#
# Static dielectric constant tensor:
#      x y z
#    x 3.190250 0.000000 0.000000 
#    y 0.000000 3.080040 0.000000 
#    z 0.000000 0.000000 3.462350 
# 
# 
# High freq. dielectric constant tensor:
#      x y z
#    x 1.622680 0.000000 0.000000 
#    y 0.000000 1.637770 0.000000 
#    z 0.000000 0.000000 1.634120 
# 
# From -- ./inp_files/71701.got.cif
#   From: 2010.03.12/outbox.cif.g09.slc.cpg/sg65_36_cif.got.tgz:71701.got - 2010.04.10 20:52:16.
