data_PCOD8265800
_publ_section_title
;
Structure prediction by ZEFSAII (Michael W. Deem and Ramdas Pophale) SiO2 
 PCOD8265800
Probable space group: C M M M
;
_chemical_formula_sum "Si O2"
_cell_formula_units_Z 80
_cell_length_a 23.646636
_cell_length_b 25.660911
_cell_length_c 8.877660
_cell_angle_alpha 90.000000
_cell_angle_beta 90.000000
_cell_angle_gamma 90.000000
_cell_volume 5386.912792
_symmetry_space_group_name_H-M "C M M M"
_symmetry_group_IT_number 65
_symmetry_cell_setting 'orthorhombic'
loop_
_space_group_symop_operation_xyz
x,y,z
-x,-y,z
x,-y,-z
-x,y,-z
-x,-y,-z
x,y,-z
-x,y,z
x,-y,z
1/2+x,1/2+y,z
1/2-x,1/2-y,z
1/2+x,1/2-y,-z
1/2-x,1/2+y,-z
1/2-x,1/2-y,-z
1/2+x,1/2+y,-z
1/2-x,1/2+y,z
1/2+x,1/2-y,z
loop_
_atom_site_type_symbol
_atom_site_label
_atom_site_fract_x
_atom_site_fract_y
_atom_site_fract_z
Si Si1 0.219201 0.194826 0.833449
Si Si2 0.603951 0.059142 0.671797
Si Si3 0.114055 0.255475 0.178239
Si Si4 0.500000 0.223337 0.321562
Si Si5 0.000000 0.389498 0.176154
Si Si6 0.180815 0.347060 0.327563
O O1 0.250000 0.250000 0.838757
O O2 0.155119 0.206811 0.778248
O O3 0.253419 0.156266 0.723340
O O4 0.218621 0.169741 0.000000
O O5 0.581948 0.064575 0.500000
O O6 0.554788 0.076939 0.783325
O O7 0.660040 0.093858 0.695544
O O8 0.620993 0.000000 0.709738
O O9 0.054680 0.246149 0.260282
O O10 0.140611 0.310225 0.229432
O O11 0.105077 0.258655 0.000000
O O12 0.500000 0.224140 0.500000
O O13 0.500000 0.164015 0.267343
O O14 0.000000 0.376496 0.000000
O O15 0.176232 0.328953 0.500000
#
# Coordination Sequence:
#
# PCOD8265800 Si02
#       6
#    16  16  16   8   8  16
#     4   8  16  29  44  61  83 108 134 168 213 256
#     4  10  21  35  47  60  83 114 146 184 226 260
#     4  10  19  31  45  62  84 111 139 172 213 257
#     4  12  22  31  45  64  86 113 143 179 218 255
#     4  12  23  33  46  61  80 110 148 189 225 259
#     4  10  18  28  45  64  82 108 142 178 214 254
#
# _framework density 14.850806
#
# number of rings (size 3 to 8) (size 9 to 14) (size 15 to 20)
#    0.000    2.000    2.000    4.500    0.000    6.800 
#    0.000    0.000    0.000    0.000    0.000    0.000 
#    0.000    0.000    0.000    0.900    0.000   18.200 
#
# Total GULP energy -495917.113706 kJ/mol
# GULP energy per Si atom -12397.927843 kJ/mol
# Density = 1.481700 g / cm^3
# Si number density = 14.850806 Si / 1000 Ang^3
#
#
#
# Elastic Constant Matrix: (Units=GPa)
#
#
# Indices 1 2 3 4 5 6 
#
# 1 120.4785 49.0415 56.1217 0.0000 0.0000 0.0000
# 2 49.0415 47.5715 30.3058 0.0000 0.0000 0.0000
# 3 56.1217 30.3058 93.2364 0.0000 0.0000 0.0000
# 4 0.0000 0.0000 0.0000 7.2110 0.0000 0.0000
# 5 0.0000 0.0000 0.0000 0.0000 27.3989 0.0000
# 6 0.0000 0.0000 0.0000 0.0000 0.0000 13.6723
#
#
#
# Elastic Compliance Matrix: (Units=1/GPa)
#
#
# Indices 1 2 3 4 5 6 
#
# 1 0.016247 -0.013266 -0.005468 0.000000 0.000000 0.000000
# 2 -0.013266 0.037342 -0.004153 0.000000 0.000000 0.000000
# 3 -0.005468 -0.004153 0.015366 0.000000 0.000000 0.000000
# 4 0.000000 0.000000 0.000000 0.138677 0.000000 0.000000
# 5 0.000000 0.000000 0.000000 0.000000 0.036498 0.000000
# 6 0.000000 0.000000 0.000000 0.000000 0.000000 0.073141
#
#
# Mechanical properties :
#
#
# Convention : Reuss Voigt Hill
#
# Bulk Modulus (GPa) = 43.13448 59.13604 51.13526
# Shear Modulus (GPa) = 13.48538 18.04426 15.76482
#
# Velocity S-wave (km/s) = 3.01667 3.48952 3.26167
# Velocity P-wave (km/s) = 6.42199 7.49281 6.97797
#
# Compressibility (1/GPa) = 0.02318331
#
# Stress axis : x y z
#
# Youngs Moduli (GPa) = 61.54900 26.77917 65.07722
#
# Poissons Ratio (x) = 0.35525 0.35582
# Poissons Ratio (y) = 0.81651 0.27024
# Poissons Ratio (z) = 0.33653 0.11120
#
# Static dielectric constant tensor:
#      x y z
#    x 3.221110 0.000000 0.000000 
#    y 0.000000 2.650480 0.000000 
#    z 0.000000 0.000000 2.998710 
# 
# 
# High freq. dielectric constant tensor:
#      x y z
#    x 1.564730 0.000000 0.000000 
#    y 0.000000 1.517650 0.000000 
#    z 0.000000 0.000000 1.581890 
# 
# From -- ./inp_files/12119.got.cif
#   From: 2010.03.12/outbox.cif.g09.slc.cpg/sg65_7_cif.got.tgz:12119.got - 2010.04.10 20:52:16.
