data_PCOD8265360
_publ_section_title
;
Structure prediction by ZEFSAII (Michael W. Deem and Ramdas Pophale) SiO2 
 PCOD8265360
Probable space group: C M M M
;
_chemical_formula_sum "Si O2"
_cell_formula_units_Z 88
_cell_length_a 22.927359
_cell_length_b 23.921343
_cell_length_c 9.590612
_cell_angle_alpha 90.000000
_cell_angle_beta 90.000000
_cell_angle_gamma 90.000000
_cell_volume 5260.002021
_symmetry_space_group_name_H-M "C M M M"
_symmetry_group_IT_number 65
_symmetry_cell_setting 'orthorhombic'
loop_
_space_group_symop_operation_xyz
x,y,z
-x,-y,z
x,-y,-z
-x,y,-z
-x,-y,-z
x,y,-z
-x,y,z
x,-y,z
1/2+x,1/2+y,z
1/2-x,1/2-y,z
1/2+x,1/2-y,-z
1/2-x,1/2+y,-z
1/2-x,1/2-y,-z
1/2+x,1/2+y,-z
1/2-x,1/2+y,z
1/2+x,1/2-y,z
loop_
_atom_site_type_symbol
_atom_site_label
_atom_site_fract_x
_atom_site_fract_y
_atom_site_fract_z
Si Si1 0.567637 0.232410 0.160355
Si Si2 0.933192 0.859993 0.161391
Si Si3 0.651876 0.565463 0.660274
Si Si4 0.389614 0.134177 0.665627
Si Si5 0.500000 0.062620 0.334803
Si Si6 0.217940 0.438178 0.334565
O O1 0.500000 0.223411 0.196857
O O2 0.585738 0.296210 0.189580
O O3 0.606558 0.194041 0.260416
O O4 0.579633 0.216647 0.000000
O O5 0.893753 0.900942 0.249451
O O6 0.000000 0.868863 0.206828
O O7 0.925260 0.874890 0.000000
O O8 0.643420 0.582698 0.500000
O O9 0.640370 0.500000 0.680780
O O10 0.717333 0.580842 0.711497
O O11 0.390726 0.143258 0.500000
O O12 0.442701 0.095134 0.716669
O O13 0.329868 0.105785 0.718832
O O14 0.500000 0.058728 0.500000
O O15 0.500000 0.000000 0.271177
O O16 0.215527 0.442123 0.500000
O O17 0.203860 0.500000 0.273895
#
# Coordination Sequence:
#
# PCOD8265360 Si02
#       6
#    16  16  16  16   8  16
#     4   9  18  33  49  65  93 130 160 193 242 289
#     4   9  19  35  53  72  94 124 160 194 235 288
#     4   9  18  33  52  74  99 126 155 189 235 287
#     4  10  17  27  47  73  95 122 164 204 235 273
#     4   9  16  24  39  69 101 121 150 201 244 271
#     4   8  15  29  48  69  97 131 160 190 234 285
#
# _framework density 16.730032000000001
#
# number of rings (size 3 to 8) (size 9 to 14) (size 15 to 20)
#    0.000    3.000    0.909    2.727    0.000    4.000 
#    0.000    5.455    0.000    9.273    0.000    0.000 
#    0.000    0.000    0.000    0.000    0.000    0.000 
#
# Total GULP energy -545487.660195 kJ/mol
# GULP energy per Si atom -12397.446823 kJ/mol
# Density = 1.669195 g / cm^3
# Si number density = 16.730032 Si / 1000 Ang^3
#
#
#
# Elastic Constant Matrix: (Units=GPa)
#
#
# Indices 1 2 3 4 5 6 
#
# 1 118.2641 71.9403 47.5340 0.0000 0.0000 0.0000
# 2 71.9403 91.1869 46.0869 0.0000 0.0000 0.0000
# 3 47.5340 46.0869 46.7657 0.0000 0.0000 0.0000
# 4 0.0000 0.0000 0.0000 -21.2420 0.0000 0.0000
# 5 0.0000 0.0000 0.0000 0.0000 15.1125 0.0000
# 6 0.0000 0.0000 0.0000 0.0000 0.0000 29.5052
#
#
#
# Elastic Compliance Matrix: (Units=1/GPa)
#
#
# Indices 1 2 3 4 5 6 
#
# 1 0.017797 -0.009759 -0.008473 0.000000 0.000000 0.000000
# 2 -0.009759 0.027200 -0.016886 0.000000 0.000000 0.000000
# 3 -0.008473 -0.016886 0.046636 0.000000 0.000000 0.000000
# 4 0.000000 0.000000 0.000000 -0.047077 0.000000 0.000000
# 5 0.000000 0.000000 0.000000 0.000000 0.066171 0.000000
# 6 0.000000 0.000000 0.000000 0.000000 0.000000 0.033892
#
#
# Mechanical properties :
#
#
# Convention : Reuss Voigt Hill
#
# Bulk Modulus (GPa) = 46.73250 65.25989 55.99620
# Shear Modulus (GPa) = 22.52387 10.71884 16.62135
#
# Velocity S-wave (km/s) = 3.67320 2.53394 3.15541
# Velocity P-wave (km/s) = 6.78113 6.90315 6.84241
#
# Compressibility (1/GPa) = 0.02139838
#
# Stress axis : x y z
#
# Youngs Moduli (GPa) = 56.18824 36.76495 21.44273
#
# Poissons Ratio (x) = 0.35878 0.18168
# Poissons Ratio (y) = 0.54833 0.36208
# Poissons Ratio (z) = 0.47606 0.62081
#
# Static dielectric constant tensor:
#      x y z
#    x 3.214800 0.000000 0.000000 
#    y 0.000000 3.151290 0.000000 
#    z 0.000000 0.000000 2.802570 
# 
# 
# High freq. dielectric constant tensor:
#      x y z
#    x 1.642840 0.000000 0.000000 
#    y 0.000000 1.646370 0.000000 
#    z 0.000000 0.000000 1.613640 
# 
# From -- ./inp_files/28692.got.cif
#   From: 2010.03.12/outbox.cif.g09.slc.cpg/sg65_15_cif.got.tgz:28692.got - 2010.04.10 20:52:16.
