data_PCOD8265295
_publ_section_title
;
Structure prediction by ZEFSAII (Michael W. Deem and Ramdas Pophale) SiO2 
 PCOD8265295
Probable space group: C M M M
;
_chemical_formula_sum "Si O2"
_cell_formula_units_Z 104
_cell_length_a 8.985323
_cell_length_b 30.698163
_cell_length_c 22.579887
_cell_angle_alpha 90.000000
_cell_angle_beta 90.000000
_cell_angle_gamma 90.000000
_cell_volume 6228.275940
_symmetry_space_group_name_H-M "C M M M"
_symmetry_group_IT_number 65
_symmetry_cell_setting 'orthorhombic'
loop_
_space_group_symop_operation_xyz
x,y,z
-x,-y,z
x,-y,-z
-x,y,-z
-x,-y,-z
x,y,-z
-x,y,z
x,-y,z
1/2+x,1/2+y,z
1/2-x,1/2-y,z
1/2+x,1/2-y,-z
1/2-x,1/2+y,-z
1/2-x,1/2-y,-z
1/2+x,1/2+y,-z
1/2-x,1/2+y,z
1/2+x,1/2-y,z
loop_
_atom_site_type_symbol
_atom_site_label
_atom_site_fract_x
_atom_site_fract_y
_atom_site_fract_z
Si Si1 0.824166 0.048626 0.934101
Si Si2 0.827235 0.290084 0.159793
Si Si3 0.669526 0.113756 0.152725
Si Si4 0.177061 0.207299 0.713189
Si Si5 0.667448 0.448226 0.500000
Si Si6 0.825419 0.620756 0.711623
Si Si7 0.325996 0.950563 0.382793
O O1 0.768153 0.082444 0.886237
O O2 0.000000 0.049836 0.933392
O O3 0.768088 0.000000 0.917781
O O4 0.766312 0.061068 0.000000
O O5 0.750000 0.250000 0.122877
O O6 0.812956 0.336757 0.127503
O O7 0.732643 0.293102 0.219532
O O8 0.000000 0.279883 0.173606
O O9 0.500000 0.098170 0.147580
O O10 0.722658 0.110998 0.220841
O O11 0.250000 0.250000 0.681454
O O12 0.237072 0.162267 0.684673
O O13 0.000000 0.209552 0.708428
O O14 0.675951 0.500000 0.500000
O O15 0.500000 0.430623 0.500000
O O16 0.747327 0.430827 0.440923
O O17 0.782038 0.578581 0.673444
O O18 0.000000 0.631736 0.709055
O O19 0.500000 0.949056 0.395500
O O20 0.273482 0.000000 0.369262
#
# Coordination Sequence:
#
# PCOD8265295 Si02
#       7
#    16  16  16  16   8  16  16
#     4   9  19  35  51  66  86 115 153 193 229 269
#     4   9  16  27  43  65  92 119 148 181 219 266
#     4   9  18  30  46  70  96 119 146 185 230 272
#     4  10  17  26  42  63  89 121 155 188 224 267
#     4   9  17  29  45  65  90 119 154 197 233 261
#     4   9  18  31  45  67  98 124 150 187 229 272
#     4   9  17  30  48  67  90 124 160 189 222 269
#
# _framework density 16.698039000000001
#
# number of rings (size 3 to 8) (size 9 to 14) (size 15 to 20)
#    0.000    2.846    0.000    4.385    0.000    5.846 
#    0.000    2.308    0.000    2.308    0.000    0.538 
#    0.000    0.000    0.000    0.000    0.000    0.000 
#
# Total GULP energy -644402.092761 kJ/mol
# GULP energy per Si atom -12392.347938 kJ/mol
# Density = 1.666003 g / cm^3
# Si number density = 16.698039 Si / 1000 Ang^3
#
#
#
# Elastic Constant Matrix: (Units=GPa)
#
#
# Indices 1 2 3 4 5 6 
#
# 1 78.4546 53.0999 33.9807 0.0000 0.0000 0.0000
# 2 53.0999 123.7641 59.7410 0.0000 0.0000 0.0000
# 3 33.9807 59.7410 73.5132 0.0000 0.0000 0.0000
# 4 0.0000 0.0000 0.0000 -0.2370 0.0000 0.0000
# 5 0.0000 0.0000 0.0000 0.0000 19.5148 0.0000
# 6 0.0000 0.0000 0.0000 0.0000 0.0000 29.3951
#
#
#
# Elastic Compliance Matrix: (Units=1/GPa)
#
#
# Indices 1 2 3 4 5 6 
#
# 1 0.018480 -0.006262 -0.003454 0.000000 0.000000 0.000000
# 2 -0.006262 0.015417 -0.009634 0.000000 0.000000 0.000000
# 3 -0.003454 -0.009634 0.023029 0.000000 0.000000 0.000000
# 4 0.000000 0.000000 0.000000 -4.219733 0.000000 0.000000
# 5 0.000000 0.000000 0.000000 0.000000 0.051243 0.000000
# 6 0.000000 0.000000 0.000000 0.000000 0.000000 0.034019
#
#
# Mechanical properties :
#
#
# Convention : Reuss Voigt Hill
#
# Bulk Modulus (GPa) = 54.86479 63.26390 59.06435
# Shear Modulus (GPa) = -1.23984 18.32859 8.54437
#
# Velocity S-wave (km/s) = -0.86262 3.31667 2.26453
# Velocity P-wave (km/s) = 5.65121 7.25509 6.50279
#
# Compressibility (1/GPa) = 0.01822662
#
# Stress axis : x y z
#
# Youngs Moduli (GPa) = 54.11218 64.86413 43.42402
#
# Poissons Ratio (x) = 0.40616 0.14997
# Poissons Ratio (y) = 0.33883 0.41836
# Poissons Ratio (z) = 0.18689 0.62492
#
# Static dielectric constant tensor:
#      x y z
#    x 3.154620 0.000000 0.000000 
#    y 0.000000 3.739090 0.000000 
#    z 0.000000 0.000000 2.850550 
# 
# 
# High freq. dielectric constant tensor:
#      x y z
#    x 1.646100 0.000000 0.000000 
#    y 0.000000 1.651540 0.000000 
#    z 0.000000 0.000000 1.596780 
# 
# From -- ./inp_files/68481.got.cif
#   From: 2010.03.12/outbox.cif.g09.slc.cpg/sg65_35_cif.got.tgz:68481.got - 2010.04.10 20:52:16.
