data_PCOD8265156
_publ_section_title
;
Structure prediction by ZEFSAII (Michael W. Deem and Ramdas Pophale) SiO2 
 PCOD8265156
Probable space group: C M M M
;
_chemical_formula_sum "Si O2"
_cell_formula_units_Z 96
_cell_length_a 22.598862
_cell_length_b 17.849100
_cell_length_c 12.133717
_cell_angle_alpha 90.000000
_cell_angle_beta 90.000000
_cell_angle_gamma 90.000000
_cell_volume 4894.369512
_symmetry_space_group_name_H-M "C M M M"
_symmetry_group_IT_number 65
_symmetry_cell_setting 'orthorhombic'
loop_
_space_group_symop_operation_xyz
x,y,z
-x,-y,z
x,-y,-z
-x,y,-z
-x,-y,-z
x,y,-z
-x,y,z
x,-y,z
1/2+x,1/2+y,z
1/2-x,1/2-y,z
1/2+x,1/2-y,-z
1/2-x,1/2+y,-z
1/2-x,1/2-y,-z
1/2+x,1/2+y,-z
1/2-x,1/2+y,z
1/2+x,1/2-y,z
loop_
_atom_site_type_symbol
_atom_site_label
_atom_site_fract_x
_atom_site_fract_y
_atom_site_fract_z
Si Si1 0.333283 0.588593 0.877563
Si Si2 0.433813 0.410534 0.722072
Si Si3 0.235382 0.332128 0.743171
Si Si4 0.113649 0.590543 0.739324
Si Si5 0.747666 0.125247 0.500000
Si Si6 0.000000 0.411241 0.876303
Si Si7 0.379889 0.415913 0.500000
Si Si8 0.619805 0.080880 0.500000
O O1 0.333778 0.500000 0.885337
O O2 0.394902 0.617856 0.825079
O O3 0.280469 0.610014 0.796926
O O4 0.326354 0.623504 0.000000
O O5 0.500000 0.379430 0.737210
O O6 0.432828 0.500000 0.717036
O O7 0.405770 0.376219 0.609495
O O8 0.250000 0.250000 0.792152
O O9 0.171016 0.363299 0.779280
O O10 0.243467 0.325817 0.611189
O O11 0.125001 0.500000 0.742722
O O12 0.059068 0.616232 0.814632
O O13 0.099213 0.619330 0.614141
O O14 0.809022 0.080932 0.500000
O O15 0.691305 0.070212 0.500000
O O16 0.000000 0.500000 0.878772
O O17 0.000000 0.378408 0.000000
O O18 0.404108 0.500000 0.500000
O O19 0.589682 0.000000 0.500000
#
# Coordination Sequence:
#
# PCOD8265156 Si02
#       8
#    16  16  16  16   8   8   8   8
#     4  10  21  36  54  77 104 140 186 228 268 315
#     4   9  17  29  48  77 108 137 173 221 273 318
#     4  11  22  36  56  81 112 144 178 222 274 329
#     4   9  18  33  55  82 110 140 177 221 269 323
#     4  10  18  31  51  76 106 143 178 214 269 328
#     4   9  18  33  55  83 109 136 174 220 273 324
#     4  10  16  25  49  79 107 136 172 221 271 321
#     4   8  15  26  46  79 110 135 169 212 264 323
#
# _framework density 19.614376
#
# number of rings (size 3 to 8) (size 9 to 14) (size 15 to 20)
#    0.000    2.417    1.667    1.250    0.000    4.000 
#    0.000    5.000    1.833    0.000    0.000    0.000 
#    0.000    0.000    0.000    0.000    0.000    0.000 
#
# Total GULP energy -594746.335893 kJ/mol
# GULP energy per Si atom -12390.548664 kJ/mol
# Density = 1.956973 g / cm^3
# Si number density = 19.614376 Si / 1000 Ang^3
#
#
#
# Elastic Constant Matrix: (Units=GPa)
#
#
# Indices 1 2 3 4 5 6 
#
# 1 160.1370 20.1128 87.0607 0.0000 0.0000 0.0000
# 2 20.1128 35.2406 15.6566 0.0000 0.0000 0.0000
# 3 87.0607 15.6566 141.8621 0.0000 0.0000 0.0000
# 4 0.0000 0.0000 0.0000 9.1790 0.0000 0.0000
# 5 0.0000 0.0000 0.0000 0.0000 21.5234 0.0000
# 6 0.0000 0.0000 0.0000 0.0000 0.0000 8.4984
#
#
#
# Elastic Compliance Matrix: (Units=1/GPa)
#
#
# Indices 1 2 3 4 5 6 
#
# 1 0.009670 -0.003031 -0.005600 0.000000 0.000000 0.000000
# 2 -0.003031 0.030789 -0.001538 0.000000 0.000000 0.000000
# 3 -0.005600 -0.001538 0.010655 0.000000 0.000000 0.000000
# 4 0.000000 0.000000 0.000000 0.108944 0.000000 0.000000
# 5 0.000000 0.000000 0.000000 0.000000 0.046461 0.000000
# 6 0.000000 0.000000 0.000000 0.000000 0.000000 0.117670
#
#
# Mechanical properties :
#
#
# Convention : Reuss Voigt Hill
#
# Bulk Modulus (GPa) = 32.49158 64.76665 48.62911
# Shear Modulus (GPa) = 14.09298 22.13412 18.11355
#
# Velocity S-wave (km/s) = 2.68340 3.36291 3.04218
# Velocity P-wave (km/s) = 5.11879 6.94050 6.09805
#
# Compressibility (1/GPa) = 0.03077720
#
# Stress axis : x y z
#
# Youngs Moduli (GPa) = 103.41534 32.47863 93.84879
#
# Poissons Ratio (x) = 0.09844 0.52554
# Poissons Ratio (y) = 0.31344 0.14434
# Poissons Ratio (z) = 0.57911 0.04995
#
# Static dielectric constant tensor:
#      x y z
#    x 3.611180 0.000000 0.000000 
#    y 0.000000 2.940250 0.000000 
#    z 0.000000 0.000000 3.888620 
# 
# 
# High freq. dielectric constant tensor:
#      x y z
#    x 1.766960 0.000000 0.000000 
#    y 0.000000 1.701990 0.000000 
#    z 0.000000 0.000000 1.772190 
# 
# From -- ./inp_files/30878.got.cif
#   From: 2010.03.12/outbox.cif.g09.slc.cpg/sg65_16_cif.got.tgz:30878.got - 2010.04.10 20:52:16.
