data_PCOD8265155
_publ_section_title
;
Structure prediction by ZEFSAII (Michael W. Deem and Ramdas Pophale) SiO2 
 PCOD8265155
Probable space group: C M M M
;
_chemical_formula_sum "Si O2"
_cell_formula_units_Z 72
_cell_length_a 16.659854
_cell_length_b 27.252009
_cell_length_c 11.592198
_cell_angle_alpha 90.000000
_cell_angle_beta 90.000000
_cell_angle_gamma 90.000000
_cell_volume 5263.025876
_symmetry_space_group_name_H-M "C M M M"
_symmetry_group_IT_number 65
_symmetry_cell_setting 'orthorhombic'
loop_
_space_group_symop_operation_xyz
x,y,z
-x,-y,z
x,-y,-z
-x,y,-z
-x,-y,-z
x,y,-z
-x,y,z
x,-y,z
1/2+x,1/2+y,z
1/2-x,1/2-y,z
1/2+x,1/2-y,-z
1/2-x,1/2+y,-z
1/2-x,1/2-y,-z
1/2+x,1/2+y,-z
1/2-x,1/2+y,z
1/2+x,1/2-y,z
loop_
_atom_site_type_symbol
_atom_site_label
_atom_site_fract_x
_atom_site_fract_y
_atom_site_fract_z
Si Si1 0.905869 0.647363 0.868585
Si Si2 0.300445 0.945092 0.500000
Si Si3 0.406686 0.272803 0.500000
Si Si4 0.769835 0.846250 0.500000
Si Si5 0.818470 0.713179 0.689387
Si Si6 0.592059 0.945088 0.277889
O O1 0.860771 0.689831 0.799463
O O2 0.883669 0.593512 0.820580
O O3 0.000000 0.657466 0.858389
O O4 0.876319 0.649460 0.000000
O O5 0.227900 0.905643 0.500000
O O6 0.355358 0.935688 0.610112
O O7 0.263662 0.000000 0.500000
O O8 0.500000 0.285139 0.500000
O O9 0.359530 0.324638 0.500000
O O10 0.384006 0.242068 0.613498
O O11 0.722128 0.828773 0.612636
O O12 0.750000 0.750000 0.734443
O O13 0.500000 0.937636 0.315572
O O14 0.606012 0.000000 0.228499
#
# Coordination Sequence:
#
# PCOD8265155 Si02
#       6
#    16   8   8   8  16  16
#     4  10  19  28  39  56  80 111 141 165 194 230
#     4  10  16  25  43  62  80 102 128 165 205 235
#     4   9  17  28  45  63  80 103 127 160 204 244
#     4   9  16  28  43  63  82  99 129 163 200 244
#     4   9  17  29  43  59  80 103 134 168 196 232
#     4   9  17  27  39  57  80 107 137 164 194 233
#
# _framework density 13.680343000000001
#
# number of rings (size 3 to 8) (size 9 to 14) (size 15 to 20)
#    0.000    2.667    2.222    2.333    0.000    2.222 
#    0.000    2.222    0.000    0.333    0.000    0.000 
#    0.000    0.000    0.000    0.000    0.000   21.778 
#
# Total GULP energy -446290.603380 kJ/mol
# GULP energy per Si atom -12396.961205 kJ/mol
# Density = 1.364921 g / cm^3
# Si number density = 13.680343 Si / 1000 Ang^3
#
#
#
# Elastic Constant Matrix: (Units=GPa)
#
#
# Indices 1 2 3 4 5 6 
#
# 1 68.7333 49.9255 38.8258 0.0000 0.0000 0.0000
# 2 49.9255 118.4091 57.1880 0.0000 0.0000 0.0000
# 3 38.8258 57.1880 105.5317 0.0000 0.0000 0.0000
# 4 0.0000 0.0000 0.0000 20.8343 0.0000 0.0000
# 5 0.0000 0.0000 0.0000 0.0000 17.8731 0.0000
# 6 0.0000 0.0000 0.0000 0.0000 0.0000 22.9455
#
#
#
# Elastic Compliance Matrix: (Units=1/GPa)
#
#
# Indices 1 2 3 4 5 6 
#
# 1 0.022270 -0.007358 -0.004206 0.000000 0.000000 0.000000
# 2 -0.007358 0.013871 -0.004809 0.000000 0.000000 0.000000
# 3 -0.004206 -0.004809 0.013629 0.000000 0.000000 0.000000
# 4 0.000000 0.000000 0.000000 0.047998 0.000000 0.000000
# 5 0.000000 0.000000 0.000000 0.000000 0.055950 0.000000
# 6 0.000000 0.000000 0.000000 0.000000 0.000000 0.043582
#
#
# Mechanical properties :
#
#
# Convention : Reuss Voigt Hill
#
# Bulk Modulus (GPa) = 58.74479 64.95028 61.84753
# Shear Modulus (GPa) = 21.21165 22.11292 21.66229
#
# Velocity S-wave (km/s) = 3.94194 4.02481 3.98359
# Velocity P-wave (km/s) = 7.98453 8.31739 8.15266
#
# Compressibility (1/GPa) = 0.01702279
#
# Stress axis : x y z
#
# Youngs Moduli (GPa) = 44.90446 72.09470 73.37170
#
# Poissons Ratio (x) = 0.53051 0.30856
# Poissons Ratio (y) = 0.33043 0.35287
# Poissons Ratio (z) = 0.18885 0.34673
#
# Static dielectric constant tensor:
#      x y z
#    x 2.472030 0.000000 0.000000 
#    y 0.000000 2.815990 0.000000 
#    z 0.000000 0.000000 2.651390 
# 
# 
# High freq. dielectric constant tensor:
#      x y z
#    x 1.491590 0.000000 0.000000 
#    y 0.000000 1.526720 0.000000 
#    z 0.000000 0.000000 1.514320 
# 
# From -- ./inp_files/9548.got.cif
#   From: 2010.03.12/outbox.cif.g09.slc.cpg/sg65_5_cif.got.tgz:9548.got - 2010.04.10 20:52:16.
