data_PCOD8265077
_publ_section_title
;
Structure prediction by ZEFSAII (Michael W. Deem and Ramdas Pophale) SiO2 
 PCOD8265077
Probable space group: C M M M
;
_chemical_formula_sum "Si O2"
_cell_formula_units_Z 80
_cell_length_a 8.660163
_cell_length_b 19.300248
_cell_length_c 26.220823
_cell_angle_alpha 90.000000
_cell_angle_beta 90.000000
_cell_angle_gamma 90.000000
_cell_volume 4382.634718
_symmetry_space_group_name_H-M "C M M M"
_symmetry_group_IT_number 65
_symmetry_cell_setting 'orthorhombic'
loop_
_space_group_symop_operation_xyz
x,y,z
-x,-y,z
x,-y,-z
-x,y,-z
-x,-y,-z
x,y,-z
-x,y,z
x,-y,z
1/2+x,1/2+y,z
1/2-x,1/2-y,z
1/2+x,1/2-y,-z
1/2-x,1/2+y,-z
1/2-x,1/2-y,-z
1/2+x,1/2+y,-z
1/2-x,1/2+y,z
1/2+x,1/2-y,z
loop_
_atom_site_type_symbol
_atom_site_label
_atom_site_fract_x
_atom_site_fract_y
_atom_site_fract_z
Si Si1 0.319939 0.674155 0.944729
Si Si2 0.319696 0.825211 0.359473
Si Si3 0.182306 0.327308 0.844625
Si Si4 0.822872 0.919951 0.558704
Si Si5 0.182871 0.827015 0.256913
O O1 0.500000 0.679937 0.932383
O O2 0.250000 0.750000 0.948981
O O3 0.237425 0.634439 0.897127
O O4 0.292681 0.636665 0.000000
O O5 0.500000 0.816870 0.349475
O O6 0.250000 0.750000 0.371019
O O7 0.290596 0.873996 0.407599
O O8 0.242058 0.861530 0.309485
O O9 0.250000 0.250000 0.846536
O O10 0.250640 0.365047 0.793959
O O11 0.000000 0.326289 0.841088
O O12 0.789313 0.902183 0.500000
O O13 0.000000 0.902650 0.572282
O O14 0.787291 0.000000 0.569669
O O15 0.250000 0.750000 0.257868
O O16 0.000000 0.827091 0.254718
#
# Coordination Sequence:
#
# PCOD8265077 Si02
#       5
#    16  16  16  16  16
#     4   9  15  21  28  39  57  84 122 167 212 257
#     4  11  21  33  50  73 100 127 159 198 239 281
#     4  10  16  22  32  46  66  93 128 169 216 266
#     4   9  19  37  58  77  99 128 160 193 232 280
#     4  10  17  27  41  57  80 108 141 180 225 273
#
# _framework density 18.253858999999999
#
# number of rings (size 3 to 8) (size 9 to 14) (size 15 to 20)
#    0.000    2.200    0.000   10.200    0.000    2.400 
#    0.000    1.000    0.000    0.000    0.000    0.000 
#    0.000    0.000    0.000    0.000    0.000    1.000 
#
# Total GULP energy -495635.278905 kJ/mol
# GULP energy per Si atom -12390.881973 kJ/mol
# Density = 1.821231 g / cm^3
# Si number density = 18.253859 Si / 1000 Ang^3
#
#
#
# Elastic Constant Matrix: (Units=GPa)
#
#
# Indices 1 2 3 4 5 6 
#
# 1 167.7388 20.3959 70.4660 0.0000 0.0000 0.0000
# 2 20.3959 23.0042 34.8351 0.0000 0.0000 0.0000
# 3 70.4660 34.8351 164.6067 0.0000 0.0000 0.0000
# 4 0.0000 0.0000 0.0000 -0.8042 0.0000 0.0000
# 5 0.0000 0.0000 0.0000 0.0000 38.3381 0.0000
# 6 0.0000 0.0000 0.0000 0.0000 0.0000 13.0746
#
#
#
# Elastic Compliance Matrix: (Units=1/GPa)
#
#
# Indices 1 2 3 4 5 6 
#
# 1 0.007372 -0.002586 -0.002609 0.000000 0.000000 0.000000
# 2 -0.002586 0.064878 -0.012623 0.000000 0.000000 0.000000
# 3 -0.002609 -0.012623 0.009863 0.000000 0.000000 0.000000
# 4 0.000000 0.000000 0.000000 -1.243538 0.000000 0.000000
# 5 0.000000 0.000000 0.000000 0.000000 0.026084 0.000000
# 6 0.000000 0.000000 0.000000 0.000000 0.000000 0.076484
#
#
# Mechanical properties :
#
#
# Convention : Reuss Voigt Hill
#
# Bulk Modulus (GPa) = 21.51546 67.41597 44.46571
# Shear Modulus (GPa) = -4.96165 25.43187 10.23511
#
# Velocity S-wave (km/s) = -1.65047 3.73665 2.37050
# Velocity P-wave (km/s) = 2.86013 7.45851 5.64844
#
# Compressibility (1/GPa) = 0.04647821
#
# Stress axis : x y z
#
# Youngs Moduli (GPa) = 135.64976 15.41355 101.38775
#
# Poissons Ratio (x) = 0.03986 0.26448
# Poissons Ratio (y) = 0.35078 1.27981
# Poissons Ratio (z) = 0.35385 0.19456
#
# Static dielectric constant tensor:
#      x y z
#    x 3.354620 0.000000 0.000000 
#    y 0.000000 2.576530 0.000000 
#    z 0.000000 0.000000 4.964920 
# 
# 
# High freq. dielectric constant tensor:
#      x y z
#    x 1.724950 0.000000 0.000000 
#    y 0.000000 1.604850 0.000000 
#    z 0.000000 0.000000 1.747890 
# 
# From -- ./inp_files/72838.got.cif
#   From: 2010.03.12/outbox.cif.g09.slc.cpg/sg65_37_cif.got.tgz:72838.got - 2010.04.10 20:52:16.
