data_PCOD8265355
_publ_section_title
;
Structure prediction by ZEFSAII (Michael W. Deem and Ramdas Pophale) SiO2 
 PCOD8265355
Probable space group: C M M M
;
_chemical_formula_sum "Si O2"
_cell_formula_units_Z 96
_cell_length_a 13.581391
_cell_length_b 28.998624
_cell_length_c 14.609397
_cell_angle_alpha 90.000000
_cell_angle_beta 90.000000
_cell_angle_gamma 90.000000
_cell_volume 5753.789035
_symmetry_space_group_name_H-M "C M M M"
_symmetry_group_IT_number 65
_symmetry_cell_setting 'orthorhombic'
loop_
_space_group_symop_operation_xyz
x,y,z
-x,-y,z
x,-y,-z
-x,y,-z
-x,-y,-z
x,y,-z
-x,y,z
x,-y,z
1/2+x,1/2+y,z
1/2-x,1/2-y,z
1/2+x,1/2-y,-z
1/2-x,1/2+y,-z
1/2-x,1/2-y,-z
1/2+x,1/2+y,-z
1/2-x,1/2+y,z
1/2+x,1/2-y,z
loop_
_atom_site_type_symbol
_atom_site_label
_atom_site_fract_x
_atom_site_fract_y
_atom_site_fract_z
Si Si1 0.798148 0.135928 0.394239
Si Si2 0.882967 0.809601 0.900546
Si Si3 0.883621 0.222136 0.290290
Si Si4 0.115130 0.052072 0.290252
Si Si5 0.110937 0.689355 0.395207
Si Si6 0.383304 0.413473 0.098828
O O1 0.829195 0.136186 0.500000
O O2 0.858150 0.175826 0.344107
O O3 0.822222 0.086018 0.353406
O O4 0.681039 0.145057 0.382016
O O5 0.843845 0.779691 0.814747
O O6 0.843172 0.861584 0.887968
O O7 0.000000 0.810470 0.898010
O O8 0.847464 0.789909 0.000000
O O9 0.841438 0.268672 0.336503
O O10 0.000000 0.226661 0.293277
O O11 0.151966 0.056013 0.184691
O O12 0.000000 0.065107 0.298226
O O13 0.134298 0.000000 0.323699
O O14 0.111301 0.706184 0.500000
O O15 0.000000 0.675995 0.364266
O O16 0.500000 0.412899 0.096439
O O17 0.345003 0.432994 0.000000
#
# Coordination Sequence:
#
# PCOD8265355 Si02
#       6
#    16  16  16  16  16  16
#     4  11  21  32  47  65  90 124 155 186 228 274
#     4   8  13  22  39  63  92 126 157 181 210 255
#     4  10  17  27  46  71  97 123 151 184 223 269
#     4  10  20  32  46  69  99 125 150 180 219 273
#     4   9  19  34  50  68  87 111 152 203 240 264
#     4   8  13  24  42  63  90 124 157 184 212 251
#
# _framework density 16.684657999999999
#
# number of rings (size 3 to 8) (size 9 to 14) (size 15 to 20)
#    0.000    2.667    1.667    2.500    0.000    4.000 
#    0.000    2.500    0.000    3.500    0.000    2.333 
#    0.000    0.000    0.000    1.500    0.000    0.167 
#
# Total GULP energy -594787.429061 kJ/mol
# GULP energy per Si atom -12391.404772 kJ/mol
# Density = 1.664668 g / cm^3
# Si number density = 16.684658 Si / 1000 Ang^3
#
#
#
# Elastic Constant Matrix: (Units=GPa)
#
#
# Indices 1 2 3 4 5 6 
#
# 1 31.9300 32.8357 28.6278 0.0000 0.0000 0.0000
# 2 32.8357 90.1586 57.1188 0.0000 0.0000 0.0000
# 3 28.6278 57.1188 129.5854 0.0000 0.0000 0.0000
# 4 0.0000 0.0000 0.0000 22.0855 0.0000 0.0000
# 5 0.0000 0.0000 0.0000 0.0000 8.6683 0.0000
# 6 0.0000 0.0000 0.0000 0.0000 0.0000 19.8178
#
#
#
# Elastic Compliance Matrix: (Units=1/GPa)
#
#
# Indices 1 2 3 4 5 6 
#
# 1 0.051771 -0.016107 -0.004338 0.000000 0.000000 0.000000
# 2 -0.016107 0.020400 -0.005434 0.000000 0.000000 0.000000
# 3 -0.004338 -0.005434 0.011070 0.000000 0.000000 0.000000
# 4 0.000000 0.000000 0.000000 0.045279 0.000000 0.000000
# 5 0.000000 0.000000 0.000000 0.000000 0.115362 0.000000
# 6 0.000000 0.000000 0.000000 0.000000 0.000000 0.050460
#
#
# Mechanical properties :
#
#
# Convention : Reuss Voigt Hill
#
# Bulk Modulus (GPa) = 31.76096 54.31540 43.03818
# Shear Modulus (GPa) = 14.02154 18.98710 16.50432
#
# Velocity S-wave (km/s) = 2.90208 3.37708 3.14855
# Velocity P-wave (km/s) = 5.50516 6.91600 6.25051
#
# Compressibility (1/GPa) = 0.03148520
#
# Stress axis : x y z
#
# Youngs Moduli (GPa) = 19.31566 49.01909 90.33244
#
# Poissons Ratio (x) = 0.78956 0.39182
# Poissons Ratio (y) = 0.31112 0.49084
# Poissons Ratio (z) = 0.08378 0.26635
#
# Static dielectric constant tensor:
#      x y z
#    x 2.821770 0.000000 0.000000 
#    y 0.000000 2.949780 0.000000 
#    z 0.000000 0.000000 3.667020 
# 
# 
# High freq. dielectric constant tensor:
#      x y z
#    x 1.596310 0.000000 0.000000 
#    y 0.000000 1.618090 0.000000 
#    z 0.000000 0.000000 1.662250 
# 
# From -- ./inp_files/41241.got.cif
#   From: 2010.03.12/outbox.cif.g09.slc.cpg/sg65_21_cif.got.tgz:41241.got - 2010.04.10 20:52:16.
