data_PCOD8265037
_publ_section_title
;
Structure prediction by ZEFSAII (Michael W. Deem and Ramdas Pophale) SiO2 
 PCOD8265037
Probable space group: C M C A
;
_chemical_formula_sum "Si O2"
_cell_formula_units_Z 80
_cell_length_a 21.002220
_cell_length_b 15.632251
_cell_length_c 15.466614
_cell_angle_alpha 90.000000
_cell_angle_beta 90.000000
_cell_angle_gamma 90.000000
_cell_volume 5077.874583
_symmetry_space_group_name_H-M "C M C A"
_symmetry_group_IT_number 64
_symmetry_cell_setting 'orthorhombic'
loop_
_space_group_symop_operation_xyz
x,y,z
-x,1/2-y,1/2+z
x,-y,-z
-x,1/2+y,1/2-z
-x,-y,-z
x,1/2+y,1/2-z
-x,y,z
x,1/2-y,1/2+z
1/2+x,1/2+y,z
1/2-x,-y,1/2+z
1/2+x,1/2-y,-z
1/2-x,y,1/2-z
1/2-x,1/2-y,-z
1/2+x,y,1/2-z
1/2-x,1/2+y,z
1/2+x,-y,1/2+z
loop_
_atom_site_type_symbol
_atom_site_label
_atom_site_fract_x
_atom_site_fract_y
_atom_site_fract_z
Si Si1 0.192836 0.523753 0.135882
Si Si2 0.337639 0.175670 0.471239
Si Si3 0.571088 0.429844 0.074102
Si Si4 0.337633 0.457277 0.825856
Si Si5 0.197478 0.866153 0.475461
O O1 0.267765 0.512457 0.149268
O O2 0.156822 0.553451 0.222553
O O3 0.173831 0.430094 0.100017
O O4 0.174726 0.597125 0.067585
O O5 0.395519 0.154911 0.536183
O O6 0.350067 0.130987 0.377968
O O7 0.273914 0.142835 0.519033
O O8 0.336027 0.276621 0.455235
O O9 0.500000 0.406516 0.106042
O O10 0.611663 0.468945 0.152366
O O11 0.569342 0.500000 0.000000
#
# Coordination Sequence:
#
# PCOD8265037 Si02
#       5
#    16  16  16  16  16
#     4   9  16  28  44  66  96 126 148 181 237 286
#     4   9  16  28  44  68  94 119 154 194 228 272
#     4   9  16  28  48  68  90 122 153 188 233 271
#     4   9  16  28  43  68  95 117 153 196 228 270
#     4   9  16  28  45  65  96 127 148 181 237 283
#
# _framework density 15.754623
#
# number of rings (size 3 to 8) (size 9 to 14) (size 15 to 20)
#    0.000    3.000    2.000    0.000    0.000    0.000 
#    3.600    2.000    0.000    2.400    0.000    2.800 
#    0.000    0.000    0.000    0.000    0.000    0.000 
#
# Total GULP energy -495705.280431 kJ/mol
# GULP energy per Si atom -12392.632011 kJ/mol
# Density = 1.571876 g / cm^3
# Si number density = 15.754623 Si / 1000 Ang^3
#
#
#
# Elastic Constant Matrix: (Units=GPa)
#
#
# Indices 1 2 3 4 5 6 
#
# 1 67.3472 32.7474 35.0982 0.0000 0.0000 0.0000
# 2 32.7474 106.4738 61.2709 0.0000 0.0000 0.0000
# 3 35.0982 61.2709 108.3540 0.0000 0.0000 0.0000
# 4 0.0000 0.0000 0.0000 13.9886 0.0000 0.0000
# 5 0.0000 0.0000 0.0000 0.0000 15.5259 0.0000
# 6 0.0000 0.0000 0.0000 0.0000 0.0000 16.1868
#
#
#
# Elastic Compliance Matrix: (Units=1/GPa)
#
#
# Indices 1 2 3 4 5 6 
#
# 1 0.018635 -0.003347 -0.004144 0.000000 0.000000 0.000000
# 2 -0.003347 0.014523 -0.007128 0.000000 0.000000 0.000000
# 3 -0.004144 -0.007128 0.014602 0.000000 0.000000 0.000000
# 4 0.000000 0.000000 0.000000 0.071487 0.000000 0.000000
# 5 0.000000 0.000000 0.000000 0.000000 0.064408 0.000000
# 6 0.000000 0.000000 0.000000 0.000000 0.000000 0.061779
#
#
# Mechanical properties :
#
#
# Convention : Reuss Voigt Hill
#
# Bulk Modulus (GPa) = 53.98791 60.04534 57.01662
# Shear Modulus (GPa) = 17.80325 19.34416 18.57370
#
# Velocity S-wave (km/s) = 3.36524 3.50786 3.43729
# Velocity P-wave (km/s) = 7.03151 7.38934 7.21265
#
# Compressibility (1/GPa) = 0.01852267
#
# Stress axis : x y z
#
# Youngs Moduli (GPa) = 53.66113 68.85394 68.48285
#
# Poissons Ratio (x) = 0.23045 0.28378
# Poissons Ratio (y) = 0.17960 0.48818
# Poissons Ratio (z) = 0.22236 0.49082
#
# Static dielectric constant tensor:
#      x y z
#    x 2.922890 0.000000 0.000000 
#    y 0.000000 2.890260 0.000000 
#    z 0.000000 0.000000 3.041080 
# 
# 
# High freq. dielectric constant tensor:
#      x y z
#    x 1.569130 0.000000 0.000000 
#    y 0.000000 1.596830 0.000000 
#    z 0.000000 0.000000 1.597730 
# 
# From -- ./inp_files/25314.got.cif
#   From: 2010.03.12/outbox.cif.g09.slc.cpg/sg64_13_cif.got.tgz:25314.got - 2010.04.10 20:19:32.
