data_PCOD8265251
_publ_section_title
;
Structure prediction by ZEFSAII (Michael W. Deem and Ramdas Pophale) SiO2 
 PCOD8265251
Probable space group: C M M M
;
_chemical_formula_sum "Si O2"
_cell_formula_units_Z 80
_cell_length_a 25.689725
_cell_length_b 7.653685
_cell_length_c 23.917082
_cell_angle_alpha 90.000000
_cell_angle_beta 90.000000
_cell_angle_gamma 90.000000
_cell_volume 4702.602084
_symmetry_space_group_name_H-M "C M M M"
_symmetry_group_IT_number 65
_symmetry_cell_setting 'orthorhombic'
loop_
_space_group_symop_operation_xyz
x,y,z
-x,-y,z
x,-y,-z
-x,y,-z
-x,-y,-z
x,y,-z
-x,y,z
x,-y,z
1/2+x,1/2+y,z
1/2-x,1/2-y,z
1/2+x,1/2-y,-z
1/2-x,1/2+y,-z
1/2-x,1/2-y,-z
1/2+x,1/2+y,-z
1/2-x,1/2+y,z
1/2+x,1/2-y,z
loop_
_atom_site_type_symbol
_atom_site_label
_atom_site_fract_x
_atom_site_fract_y
_atom_site_fract_z
Si Si1 0.370500 0.805993 0.286533
Si Si2 0.309932 0.705030 0.058926
Si Si3 0.938770 0.000000 0.326152
Si Si4 0.309451 0.799351 0.604667
Si Si5 0.378878 0.500000 0.438234
Si Si6 0.189701 0.794389 0.819991
O O1 0.417214 0.670417 0.294586
O O2 0.324692 0.765418 0.330806
O O3 0.345915 0.799480 0.225236
O O4 0.393388 0.000000 0.296173
O O5 0.317910 0.500000 0.059341
O O6 0.250000 0.750000 0.057189
O O7 0.330811 0.775732 0.118785
O O8 0.335228 0.779318 0.000000
O O9 0.923849 0.000000 0.391627
O O10 0.000000 0.000000 0.320361
O O11 0.250000 0.750000 0.596353
O O12 0.343948 0.673935 0.566183
O O13 0.319262 0.000000 0.586862
O O14 0.404524 0.500000 0.500000
O O15 0.250000 0.750000 0.810551
O O16 0.182005 0.000000 0.813984
#
# Coordination Sequence:
#
# PCOD8265251 Si02
#       6
#    16  16   8  16   8  16
#     4  10  20  33  52  75 101 127 163 208 249 302
#     4   8  14  23  34  52  86 132 175 206 232 270
#     4  10  22  41  60  76  97 124 160 208 258 300
#     4  10  19  32  49  73 105 141 167 193 235 283
#     4  10  22  37  54  78 104 131 166 200 234 286
#     4  10  17  25  41  68 101 138 172 204 243 289
#
# _framework density 17.011858
#
# number of rings (size 3 to 8) (size 9 to 14) (size 15 to 20)
#    0.000    2.400    2.000    1.200    0.000    3.800 
#    0.000    0.000    0.000    0.000    0.000    5.600 
#    0.000    1.600    0.000    1.800    0.000    0.000 
#
# Total GULP energy -495544.267216 kJ/mol
# GULP energy per Si atom -12388.606680 kJ/mol
# Density = 1.697314 g / cm^3
# Si number density = 17.011858 Si / 1000 Ang^3
#
#
#
# Elastic Constant Matrix: (Units=GPa)
#
#
# Indices 1 2 3 4 5 6 
#
# 1 70.9270 27.8172 31.9213 0.0000 0.0000 0.0000
# 2 27.8172 93.1667 26.8650 0.0000 0.0000 0.0000
# 3 31.9213 26.8650 136.4260 0.0000 0.0000 0.0000
# 4 0.0000 0.0000 0.0000 17.0642 0.0000 0.0000
# 5 0.0000 0.0000 0.0000 0.0000 11.4452 0.0000
# 6 0.0000 0.0000 0.0000 0.0000 0.0000 12.6347
#
#
#
# Elastic Compliance Matrix: (Units=1/GPa)
#
#
# Indices 1 2 3 4 5 6 
#
# 1 0.017187 -0.004211 -0.003192 0.000000 0.000000 0.000000
# 2 -0.004211 0.012411 -0.001459 0.000000 0.000000 0.000000
# 3 -0.003192 -0.001459 0.008364 0.000000 0.000000 0.000000
# 4 0.000000 0.000000 0.000000 0.058602 0.000000 0.000000
# 5 0.000000 0.000000 0.000000 0.000000 0.087373 0.000000
# 6 0.000000 0.000000 0.000000 0.000000 0.000000 0.079147
#
#
# Mechanical properties :
#
#
# Convention : Reuss Voigt Hill
#
# Bulk Modulus (GPa) = 49.41060 52.63630 51.02345
# Shear Modulus (GPa) = 17.38793 22.48990 19.93891
#
# Velocity S-wave (km/s) = 3.20051 3.63989 3.42725
# Velocity P-wave (km/s) = 6.53954 6.97662 6.76161
#
# Compressibility (1/GPa) = 0.02023857
#
# Stress axis : x y z
#
# Youngs Moduli (GPa) = 58.18247 80.57095 119.55771
#
# Poissons Ratio (x) = 0.33930 0.38166
# Poissons Ratio (y) = 0.24502 0.17440
# Poissons Ratio (z) = 0.18573 0.11753
#
# Static dielectric constant tensor:
#      x y z
#    x 2.578610 0.000000 0.000000 
#    y 0.000000 3.431990 0.000000 
#    z 0.000000 0.000000 3.710380 
# 
# 
# High freq. dielectric constant tensor:
#      x y z
#    x 1.580700 0.000000 0.000000 
#    y 0.000000 1.672450 0.000000 
#    z 0.000000 0.000000 1.676100 
# 
# From -- ./inp_files/67785.got.cif
#   From: 2010.03.12/outbox.cif.g09.slc.cpg/sg65_34_cif.got.tgz:67785.got - 2010.04.10 20:52:16.
