data_PCOD8265476
_publ_section_title
;
Structure prediction by ZEFSAII (Michael W. Deem and Ramdas Pophale) SiO2 
 PCOD8265476
Probable space group: C M M M
;
_chemical_formula_sum "Si O2"
_cell_formula_units_Z 80
_cell_length_a 8.721259
_cell_length_b 23.818127
_cell_length_c 20.382903
_cell_angle_alpha 90.000000
_cell_angle_beta 90.000000
_cell_angle_gamma 90.000000
_cell_volume 4234.019253
_symmetry_space_group_name_H-M "C M M M"
_symmetry_group_IT_number 65
_symmetry_cell_setting 'orthorhombic'
loop_
_space_group_symop_operation_xyz
x,y,z
-x,-y,z
x,-y,-z
-x,y,-z
-x,-y,-z
x,y,-z
-x,y,z
x,-y,z
1/2+x,1/2+y,z
1/2-x,1/2-y,z
1/2+x,1/2-y,-z
1/2-x,1/2+y,-z
1/2-x,1/2-y,-z
1/2+x,1/2+y,-z
1/2-x,1/2+y,z
1/2+x,1/2-y,z
loop_
_atom_site_type_symbol
_atom_site_label
_atom_site_fract_x
_atom_site_fract_y
_atom_site_fract_z
Si Si1 0.821834 0.877506 0.070465
Si Si2 0.820193 0.936022 0.425047
Si Si3 0.817348 0.811155 0.196425
Si Si4 0.825574 0.000000 0.111047
Si Si5 0.818524 0.386259 0.695060
Si Si6 0.177214 0.500000 0.754998
O O1 0.750369 0.847876 0.134990
O O2 0.794824 0.944380 0.069148
O O3 0.000000 0.863290 0.072242
O O4 0.754105 0.855419 0.000000
O O5 0.779302 0.921801 0.500000
O O6 0.731372 0.889681 0.381118
O O7 0.000000 0.930262 0.412520
O O8 0.766660 0.000000 0.408841
O O9 0.750000 0.750000 0.186762
O O10 0.759029 0.835333 0.265789
O O11 0.000000 0.809682 0.197679
O O12 0.702693 0.000000 0.168259
O O13 0.000000 0.000000 0.139016
O O14 0.749565 0.443719 0.725398
O O15 0.000000 0.379657 0.701513
O O16 0.000000 0.500000 0.737379
#
# Coordination Sequence:
#
# PCOD8265476 Si02
#       6
#    16  16  16   8  16   8
#     4   9  18  32  53  81 109 138 176 223 274 329
#     4   9  18  32  52  82 119 154 185 218 261 318
#     4  11  23  39  58  79 104 140 187 236 281 327
#     4  10  17  30  54  81 107 139 178 218 267 332
#     4  11  21  35  55  81 113 148 184 226 273 323
#     4  10  20  31  48  78 114 144 174 219 274 324
#
# _framework density 18.894577000000002
#
# number of rings (size 3 to 8) (size 9 to 14) (size 15 to 20)
#    0.000    2.000    3.000    2.100    0.000    2.800 
#    0.000    1.000    0.000    6.000    0.000    0.000 
#    0.000    0.000    0.000    0.000    0.000    0.000 
#
# Total GULP energy -495771.478333 kJ/mol
# GULP energy per Si atom -12394.286958 kJ/mol
# Density = 1.885157 g / cm^3
# Si number density = 18.894577 Si / 1000 Ang^3
#
#
#
# Elastic Constant Matrix: (Units=GPa)
#
#
# Indices 1 2 3 4 5 6 
#
# 1 51.6353 31.5982 34.6529 0.0000 0.0000 0.0000
# 2 31.5982 103.7596 54.0853 0.0000 0.0000 0.0000
# 3 34.6529 54.0853 139.3409 0.0000 0.0000 0.0000
# 4 0.0000 0.0000 0.0000 4.1024 0.0000 0.0000
# 5 0.0000 0.0000 0.0000 0.0000 18.1944 0.0000
# 6 0.0000 0.0000 0.0000 0.0000 0.0000 24.2343
#
#
#
# Elastic Compliance Matrix: (Units=1/GPa)
#
#
# Indices 1 2 3 4 5 6 
#
# 1 0.025616 -0.005617 -0.004190 0.000000 0.000000 0.000000
# 2 -0.005617 0.013314 -0.003771 0.000000 0.000000 0.000000
# 3 -0.004190 -0.003771 0.009682 0.000000 0.000000 0.000000
# 4 0.000000 0.000000 0.000000 0.243758 0.000000 0.000000
# 5 0.000000 0.000000 0.000000 0.000000 0.054962 0.000000
# 6 0.000000 0.000000 0.000000 0.000000 0.000000 0.041264
#
#
# Mechanical properties :
#
#
# Convention : Reuss Voigt Hill
#
# Bulk Modulus (GPa) = 46.60654 59.48985 53.04819
# Shear Modulus (GPa) = 11.82302 20.93286 16.37794
#
# Velocity S-wave (km/s) = 2.50419 3.33209 2.94735
# Velocity P-wave (km/s) = 5.75165 6.80862 6.30233
#
# Compressibility (1/GPa) = 0.02145622
#
# Stress axis : x y z
#
# Youngs Moduli (GPa) = 39.03834 75.11043 103.27980
#
# Poissons Ratio (x) = 0.42187 0.43278
# Poissons Ratio (y) = 0.21926 0.38946
# Poissons Ratio (z) = 0.16358 0.28324
#
# Static dielectric constant tensor:
#      x y z
#    x 3.155750 0.000000 0.000000 
#    y 0.000000 3.347440 0.000000 
#    z 0.000000 0.000000 3.667490 
# 
# 
# High freq. dielectric constant tensor:
#      x y z
#    x 1.710620 0.000000 0.000000 
#    y 0.000000 1.709550 0.000000 
#    z 0.000000 0.000000 1.746020 
# 
# From -- ./inp_files/59695.got.cif
#   From: 2010.03.12/outbox.cif.g09.slc.cpg/sg65_30_cif.got.tgz:59695.got - 2010.04.10 20:52:16.
