data_PCOD8265627
_publ_section_title
;
Structure prediction by ZEFSAII (Michael W. Deem and Ramdas Pophale) SiO2 
 PCOD8265627
Probable space group: C M M M
;
_chemical_formula_sum "Si O2"
_cell_formula_units_Z 80
_cell_length_a 23.908575
_cell_length_b 25.663685
_cell_length_c 9.207230
_cell_angle_alpha 90.000000
_cell_angle_beta 90.000000
_cell_angle_gamma 90.000000
_cell_volume 5649.391865
_symmetry_space_group_name_H-M "C M M M"
_symmetry_group_IT_number 65
_symmetry_cell_setting 'orthorhombic'
loop_
_space_group_symop_operation_xyz
x,y,z
-x,-y,z
x,-y,-z
-x,y,-z
-x,-y,-z
x,y,-z
-x,y,z
x,-y,z
1/2+x,1/2+y,z
1/2-x,1/2-y,z
1/2+x,1/2-y,-z
1/2-x,1/2+y,-z
1/2-x,1/2-y,-z
1/2+x,1/2+y,-z
1/2-x,1/2+y,z
1/2+x,1/2-y,z
loop_
_atom_site_type_symbol
_atom_site_label
_atom_site_fract_x
_atom_site_fract_y
_atom_site_fract_z
Si Si1 0.000000 0.602745 0.827312
Si Si2 0.500000 0.779653 0.171037
Si Si3 0.779085 0.806067 0.838602
Si Si4 0.104892 0.440837 0.665485
Si Si5 0.683213 0.847763 0.668148
Si Si6 0.620457 0.243202 0.171726
O O1 0.054703 0.573463 0.771650
O O2 0.000000 0.661758 0.765373
O O3 0.000000 0.600850 0.000000
O O4 0.444171 0.748527 0.220403
O O5 0.500000 0.785043 0.000000
O O6 0.750000 0.750000 0.838095
O O7 0.746480 0.845034 0.731460
O O8 0.843335 0.794893 0.787506
O O9 0.777881 0.830454 0.000000
O O10 0.084048 0.433193 0.500000
O O11 0.123580 0.500000 0.695082
O O12 0.159377 0.405446 0.695131
O O13 0.685798 0.832690 0.500000
O O14 0.642494 0.807822 0.748101
O O15 0.626053 0.232242 0.000000
#
# Coordination Sequence:
#
# PCOD8265627 Si02
#       6
#     8   8  16  16  16  16
#     4  11  20  30  45  60  74  98 136 177 205 227
#     4   9  16  26  42  59  78 102 129 161 188 222
#     4   8  15  26  41  57  75  98 122 150 191 237
#     4  10  21  34  43  53  75 106 135 166 206 244
#     4  10  18  27  41  57  73  96 129 165 195 227
#     4   9  16  28  42  57  77 102 126 152 191 232
#
# _framework density 14.160817
#
# number of rings (size 3 to 8) (size 9 to 14) (size 15 to 20)
#    0.000    2.600    2.000    2.400    0.000    6.000 
#    0.000    0.500    0.000    0.000    0.000    0.000 
#    0.000    0.000    0.000    0.900    0.000   20.200 
#
# Total GULP energy -495737.604818 kJ/mol
# GULP energy per Si atom -12393.440120 kJ/mol
# Density = 1.412859 g / cm^3
# Si number density = 14.160817 Si / 1000 Ang^3
#
#
#
# Elastic Constant Matrix: (Units=GPa)
#
#
# Indices 1 2 3 4 5 6 
#
# 1 128.3466 55.6033 43.0848 0.0000 0.0000 0.0000
# 2 55.6033 52.5155 31.4371 0.0000 0.0000 0.0000
# 3 43.0848 31.4371 57.7310 0.0000 0.0000 0.0000
# 4 0.0000 0.0000 0.0000 14.3056 0.0000 0.0000
# 5 0.0000 0.0000 0.0000 0.0000 18.2751 0.0000
# 6 0.0000 0.0000 0.0000 0.0000 0.0000 16.7395
#
#
#
# Elastic Compliance Matrix: (Units=1/GPa)
#
#
# Indices 1 2 3 4 5 6 
#
# 1 0.014924 -0.013552 -0.003758 0.000000 0.000000 0.000000
# 2 -0.013552 0.040557 -0.011971 0.000000 0.000000 0.000000
# 3 -0.003758 -0.011971 0.026645 0.000000 0.000000 0.000000
# 4 0.000000 0.000000 0.000000 0.069903 0.000000 0.000000
# 5 0.000000 0.000000 0.000000 0.000000 0.054719 0.000000
# 6 0.000000 0.000000 0.000000 0.000000 0.000000 0.059739
#
#
# Mechanical properties :
#
#
# Convention : Reuss Voigt Hill
#
# Bulk Modulus (GPa) = 42.43831 55.42706 48.93269
# Shear Modulus (GPa) = 15.01931 17.09523 16.05727
#
# Velocity S-wave (km/s) = 3.26026 3.47828 3.37103
# Velocity P-wave (km/s) = 6.64878 7.44025 7.05562
#
# Compressibility (1/GPa) = 0.02356362
#
# Stress axis : x y z
#
# Youngs Moduli (GPa) = 67.00612 24.65672 37.52984
#
# Poissons Ratio (x) = 0.33414 0.14105
# Poissons Ratio (y) = 0.90805 0.44928
# Poissons Ratio (z) = 0.25183 0.29517
#
# Static dielectric constant tensor:
#      x y z
#    x 3.322810 0.000000 0.000000 
#    y 0.000000 2.593320 0.000000 
#    z 0.000000 0.000000 2.797730 
# 
# 
# High freq. dielectric constant tensor:
#      x y z
#    x 1.539790 0.000000 0.000000 
#    y 0.000000 1.493340 0.000000 
#    z 0.000000 0.000000 1.541380 
# 
# From -- ./inp_files/14209.got.cif
#   From: 2010.03.12/outbox.cif.g09.slc.cpg/sg65_8_cif.got.tgz:14209.got - 2010.04.10 20:52:16.
