data_PCOD8265662
_publ_section_title
;
Structure prediction by ZEFSAII (Michael W. Deem and Ramdas Pophale) SiO2 
 PCOD8265662
Probable space group: C M M M
;
_chemical_formula_sum "Si O2"
_cell_formula_units_Z 128
_cell_length_a 24.463253
_cell_length_b 15.553077
_cell_length_c 18.310495
_cell_angle_alpha 90.000000
_cell_angle_beta 90.000000
_cell_angle_gamma 90.000000
_cell_volume 6966.756219
_symmetry_space_group_name_H-M "C M M M"
_symmetry_group_IT_number 65
_symmetry_cell_setting 'orthorhombic'
loop_
_space_group_symop_operation_xyz
x,y,z
-x,-y,z
x,-y,-z
-x,y,-z
-x,-y,-z
x,y,-z
-x,y,z
x,-y,z
1/2+x,1/2+y,z
1/2-x,1/2-y,z
1/2+x,1/2-y,-z
1/2-x,1/2+y,-z
1/2-x,1/2-y,-z
1/2+x,1/2+y,-z
1/2-x,1/2+y,z
1/2+x,1/2-y,z
loop_
_atom_site_type_symbol
_atom_site_label
_atom_site_fract_x
_atom_site_fract_y
_atom_site_fract_z
Si Si1 0.238374 0.101389 0.790157
Si Si2 0.687359 0.860305 0.579936
Si Si3 0.388220 0.297543 0.580659
Si Si4 0.334040 0.600831 0.919615
Si Si5 0.561387 0.754112 0.723194
Si Si6 0.062370 0.098134 0.171974
Si Si7 0.645497 0.904081 0.732931
Si Si8 0.201331 0.099572 0.363297
O O1 0.210439 0.141514 0.863006
O O2 0.302283 0.125424 0.781570
O O3 0.205044 0.136159 0.719693
O O4 0.231282 0.000000 0.793663
O O5 0.672655 0.901234 0.500000
O O6 0.663708 0.764907 0.583163
O O7 0.661369 0.912892 0.647371
O O8 0.752660 0.854633 0.587424
O O9 0.414768 0.304799 0.500000
O O10 0.434162 0.265597 0.636741
O O11 0.359818 0.386635 0.605413
O O12 0.323675 0.500000 0.925427
O O13 0.396243 0.618464 0.893881
O O14 0.326349 0.642939 0.000000
O O15 0.500000 0.783722 0.740070
O O16 0.575800 0.665338 0.763893
O O17 0.599206 0.833336 0.748199
O O18 0.000000 0.109172 0.143805
O O19 0.071651 0.000000 0.201075
O O20 0.625683 0.000000 0.756705
O O21 0.215789 0.000000 0.364407
#
# Coordination Sequence:
#
# PCOD8265662 Si02
#       8
#    16  16  16  16  16  16  16  16
#     4   8  15  28  45  68 100 131 156 189 238 294
#     4   9  17  29  44  65  95 126 155 190 238 295
#     4  10  20  31  43  62  90 122 157 200 246 291
#     4   9  16  27  48  78 108 136 164 195 234 281
#     4  10  21  36  53  70  89 121 164 206 250 296
#     4   9  18  33  52  73  99 133 172 209 240 273
#     4   9  18  32  51  74  97 123 155 196 248 299
#     4  10  18  27  43  66  92 125 162 197 233 276
#
# _framework density 18.372969999999999
#
# number of rings (size 3 to 8) (size 9 to 14) (size 15 to 20)
#    0.000    2.750    0.000    2.625    0.000    5.000 
#    0.000    3.125    0.000    1.500    0.000    6.125 
#    0.000    0.000    0.000    7.625    0.000    0.125 
#
# Total GULP energy -793002.568440 kJ/mol
# GULP energy per Si atom -12390.665132 kJ/mol
# Density = 1.833115 g / cm^3
# Si number density = 18.372970 Si / 1000 Ang^3
#
#
#
# Elastic Constant Matrix: (Units=GPa)
#
#
# Indices 1 2 3 4 5 6 
#
# 1 90.7560 35.8785 51.6610 0.0000 0.0000 0.0000
# 2 35.8785 54.2557 31.9131 0.0000 0.0000 0.0000
# 3 51.6610 31.9131 127.5146 0.0000 0.0000 0.0000
# 4 0.0000 0.0000 0.0000 14.2672 0.0000 0.0000
# 5 0.0000 0.0000 0.0000 0.0000 20.4969 0.0000
# 6 0.0000 0.0000 0.0000 0.0000 0.0000 22.6309
#
#
#
# Elastic Compliance Matrix: (Units=1/GPa)
#
#
# Indices 1 2 3 4 5 6 
#
# 1 0.017111 -0.008487 -0.004808 0.000000 0.000000 0.000000
# 2 -0.008487 0.025822 -0.003024 0.000000 0.000000 0.000000
# 3 -0.004808 -0.003024 0.010547 0.000000 0.000000 0.000000
# 4 0.000000 0.000000 0.000000 0.070091 0.000000 0.000000
# 5 0.000000 0.000000 0.000000 0.000000 0.048788 0.000000
# 6 0.000000 0.000000 0.000000 0.000000 0.000000 0.044187
#
#
# Mechanical properties :
#
#
# Convention : Reuss Voigt Hill
#
# Bulk Modulus (GPa) = 47.98106 56.82573 52.40339
# Shear Modulus (GPa) = 19.52121 21.68391 20.60256
#
# Velocity S-wave (km/s) = 3.26313 3.43914 3.35229
# Velocity P-wave (km/s) = 6.35367 6.83860 6.60059
#
# Compressibility (1/GPa) = 0.02084156
#
# Stress axis : x y z
#
# Youngs Moduli (GPa) = 58.44333 38.72625 94.81304
#
# Poissons Ratio (x) = 0.32866 0.45588
# Poissons Ratio (y) = 0.49600 0.28673
# Poissons Ratio (z) = 0.28100 0.11712
#
# Static dielectric constant tensor:
#      x y z
#    x 3.245130 0.000000 0.000000 
#    y 0.000000 3.166640 0.000000 
#    z 0.000000 0.000000 3.614860 
# 
# 
# High freq. dielectric constant tensor:
#      x y z
#    x 1.697190 0.000000 0.000000 
#    y 0.000000 1.691560 0.000000 
#    z 0.000000 0.000000 1.696850 
# 
# From -- ./inp_files/56972.got.cif
#   From: 2010.03.12/outbox.cif.g09.slc.cpg/sg65_29_cif.got.tgz:56972.got - 2010.04.10 20:52:16.
