data_PCOD8265422
_publ_section_title
;
Structure prediction by ZEFSAII (Michael W. Deem and Ramdas Pophale) SiO2 
 PCOD8265422
Probable space group: C M M M
;
_chemical_formula_sum "Si O2"
_cell_formula_units_Z 64
_cell_length_a 7.795420
_cell_length_b 28.857372
_cell_length_c 17.095542
_cell_angle_alpha 90.000000
_cell_angle_beta 90.000000
_cell_angle_gamma 90.000000
_cell_volume 3845.733375
_symmetry_space_group_name_H-M "C M M M"
_symmetry_group_IT_number 65
_symmetry_cell_setting 'orthorhombic'
loop_
_space_group_symop_operation_xyz
x,y,z
-x,-y,z
x,-y,-z
-x,y,-z
-x,-y,-z
x,y,-z
-x,y,z
x,-y,z
1/2+x,1/2+y,z
1/2-x,1/2-y,z
1/2+x,1/2-y,-z
1/2-x,1/2+y,-z
1/2-x,1/2-y,-z
1/2+x,1/2+y,-z
1/2-x,1/2+y,z
1/2+x,1/2-y,z
loop_
_atom_site_type_symbol
_atom_site_label
_atom_site_fract_x
_atom_site_fract_y
_atom_site_fract_z
Si Si1 0.798983 0.799518 0.087234
Si Si2 0.000000 0.945129 0.586989
Si Si3 0.703435 0.394702 0.846889
Si Si4 0.796435 0.948293 0.000000
Si Si5 0.307456 0.053256 0.695554
O O1 0.750000 0.750000 0.125589
O O2 0.735220 0.841309 0.142579
O O3 0.000000 0.804723 0.078514
O O4 0.716221 0.803093 0.000000
O O5 0.171398 0.928272 0.631753
O O6 0.000000 0.923161 0.500000
O O7 0.000000 0.000000 0.580426
O O8 0.500000 0.399540 0.835399
O O9 0.768879 0.422100 0.923041
O O10 0.797498 0.415479 0.772302
O O11 0.000000 0.949116 0.000000
O O12 0.719964 0.000000 0.000000
O O13 0.500000 0.057353 0.660750
O O14 0.264967 0.000000 0.718113
#
# Coordination Sequence:
#
# PCOD8265422 Si02
#       5
#    16   8  16   8  16
#     4   9  17  29  44  63  88 122 166 210 251 290
#     4   9  18  34  54  73  97 131 163 194 242 298
#     4  10  17  29  46  65  92 129 169 207 246 287
#     4   9  16  24  40  63  85 122 173 209 235 276
#     4  10  20  32  48  73 102 131 163 202 243 287
#
# _framework density 16.641819999999999
#
# number of rings (size 3 to 8) (size 9 to 14) (size 15 to 20)
#    0.000    2.500    2.500    0.750    0.000    2.500 
#    0.000    3.125    0.000    2.250    0.000    0.000 
#    0.000    1.000    0.500    0.000    0.000    0.000 
#
# Total GULP energy -396692.037606 kJ/mol
# GULP energy per Si atom -12396.626175 kJ/mol
# Density = 1.660394 g / cm^3
# Si number density = 16.641820 Si / 1000 Ang^3
#
#
#
# Elastic Constant Matrix: (Units=GPa)
#
#
# Indices 1 2 3 4 5 6 
#
# 1 70.5010 23.7574 39.9196 0.0000 0.0000 0.0000
# 2 23.7574 110.1283 44.6745 0.0000 0.0000 0.0000
# 3 39.9196 44.6745 111.8239 0.0000 0.0000 0.0000
# 4 0.0000 0.0000 0.0000 23.0320 0.0000 0.0000
# 5 0.0000 0.0000 0.0000 0.0000 8.5651 0.0000
# 6 0.0000 0.0000 0.0000 0.0000 0.0000 18.4898
#
#
#
# Elastic Compliance Matrix: (Units=1/GPa)
#
#
# Indices 1 2 3 4 5 6 
#
# 1 0.017989 -0.001522 -0.005814 0.000000 0.000000 0.000000
# 2 -0.001522 0.010965 -0.003837 0.000000 0.000000 0.000000
# 3 -0.005814 -0.003837 0.012551 0.000000 0.000000 0.000000
# 4 0.000000 0.000000 0.000000 0.043418 0.000000 0.000000
# 5 0.000000 0.000000 0.000000 0.000000 0.116753 0.000000
# 6 0.000000 0.000000 0.000000 0.000000 0.000000 0.054084
#
#
# Mechanical properties :
#
#
# Convention : Reuss Voigt Hill
#
# Bulk Modulus (GPa) = 52.19510 56.57294 54.38402
# Shear Modulus (GPa) = 17.57512 22.29083 19.93298
#
# Velocity S-wave (km/s) = 3.25327 3.66382 3.46463
# Velocity P-wave (km/s) = 6.74860 7.20877 6.98247
#
# Compressibility (1/GPa) = 0.01915889
#
# Stress axis : x y z
#
# Youngs Moduli (GPa) = 55.58942 91.19636 79.67452
#
# Poissons Ratio (x) = 0.13883 0.46320
# Poissons Ratio (y) = 0.08462 0.30573
# Poissons Ratio (z) = 0.32318 0.34995
#
# Static dielectric constant tensor:
#      x y z
#    x 3.040420 0.000000 0.000000 
#    y 0.000000 3.260890 0.000000 
#    z 0.000000 0.000000 2.998660 
# 
# 
# High freq. dielectric constant tensor:
#      x y z
#    x 1.639200 0.000000 0.000000 
#    y 0.000000 1.624180 0.000000 
#    z 0.000000 0.000000 1.605370 
# 
# From -- ./inp_files/36838.got.cif
#   From: 2010.03.12/outbox.cif.g09.slc.cpg/sg65_19_cif.got.tgz:36838.got - 2010.04.10 20:52:16.
