data_PCOD8265584
_publ_section_title
;
Structure prediction by ZEFSAII (Michael W. Deem and Ramdas Pophale) SiO2 
 PCOD8265584
Probable space group: C M M M
;
_chemical_formula_sum "Si O2"
_cell_formula_units_Z 80
_cell_length_a 7.709047
_cell_length_b 25.768193
_cell_length_c 23.854350
_cell_angle_alpha 90.000000
_cell_angle_beta 90.000000
_cell_angle_gamma 90.000000
_cell_volume 4738.623951
_symmetry_space_group_name_H-M "C M M M"
_symmetry_group_IT_number 65
_symmetry_cell_setting 'orthorhombic'
loop_
_space_group_symop_operation_xyz
x,y,z
-x,-y,z
x,-y,-z
-x,y,-z
-x,-y,-z
x,y,-z
-x,y,z
x,-y,z
1/2+x,1/2+y,z
1/2-x,1/2-y,z
1/2+x,1/2-y,-z
1/2-x,1/2+y,-z
1/2-x,1/2-y,-z
1/2+x,1/2+y,-z
1/2-x,1/2+y,z
1/2+x,1/2-y,z
loop_
_atom_site_type_symbol
_atom_site_label
_atom_site_fract_x
_atom_site_fract_y
_atom_site_fract_z
Si Si1 0.202837 0.309781 0.060084
Si Si2 0.000000 0.622955 0.437581
Si Si3 0.302534 0.309271 0.393529
Si Si4 0.799187 0.870581 0.717513
Si Si5 0.000000 0.561045 0.327430
Si Si6 0.694562 0.309519 0.821512
O O1 0.250000 0.250000 0.058605
O O2 0.286095 0.334691 0.115994
O O3 0.000000 0.316767 0.066527
O O4 0.265378 0.334610 0.000000
O O5 0.172993 0.657407 0.431472
O O6 0.000000 0.598930 0.500000
O O7 0.000000 0.576495 0.392868
O O8 0.500000 0.317831 0.414611
O O9 0.250000 0.250000 0.398796
O O10 0.283444 0.325881 0.328971
O O11 0.675355 0.918474 0.702034
O O12 0.716761 0.845744 0.774660
O O13 0.000000 0.890025 0.722995
O O14 0.000000 0.500000 0.321805
O O15 0.500000 0.310035 0.801588
O O16 0.750000 0.250000 0.821478
#
# Coordination Sequence:
#
# PCOD8265584 Si02
#       6
#    16   8  16  16   8  16
#     4   9  16  24  34  52  85 130 173 204 228 265
#     4  10  22  37  52  76 104 129 166 202 230 286
#     4  10  18  32  49  72 105 140 165 191 235 281
#     4   9  20  33  50  75 101 124 160 205 244 300
#     4  10  22  39  60  76  91 126 160 202 262 292
#     4  10  18  26  41  67  96 133 165 196 239 281
#
# _framework density 16.882539000000001
#
# number of rings (size 3 to 8) (size 9 to 14) (size 15 to 20)
#    0.000    2.400    1.000    3.000    2.800    2.600 
#    0.000    0.000    0.000    0.000    0.000    5.600 
#    0.000    1.600    0.000    4.400    0.000    0.000 
#
# Total GULP energy -495562.706588 kJ/mol
# GULP energy per Si atom -12389.067665 kJ/mol
# Density = 1.684411 g / cm^3
# Si number density = 16.882539 Si / 1000 Ang^3
#
#
#
# Elastic Constant Matrix: (Units=GPa)
#
#
# Indices 1 2 3 4 5 6 
#
# 1 91.3493 28.6882 35.4844 0.0000 0.0000 0.0000
# 2 28.6882 71.5405 41.9840 0.0000 0.0000 0.0000
# 3 35.4844 41.9840 140.3227 0.0000 0.0000 0.0000
# 4 0.0000 0.0000 0.0000 11.3155 0.0000 0.0000
# 5 0.0000 0.0000 0.0000 0.0000 20.1342 0.0000
# 6 0.0000 0.0000 0.0000 0.0000 0.0000 14.5400
#
#
#
# Elastic Compliance Matrix: (Units=1/GPa)
#
#
# Indices 1 2 3 4 5 6 
#
# 1 0.013014 -0.003988 -0.002098 0.000000 0.000000 0.000000
# 2 -0.003988 0.018177 -0.004430 0.000000 0.000000 0.000000
# 3 -0.002098 -0.004430 0.008982 0.000000 0.000000 0.000000
# 4 0.000000 0.000000 0.000000 0.088374 0.000000 0.000000
# 5 0.000000 0.000000 0.000000 0.000000 0.049667 0.000000
# 6 0.000000 0.000000 0.000000 0.000000 0.000000 0.068776
#
#
# Mechanical properties :
#
#
# Convention : Reuss Voigt Hill
#
# Bulk Modulus (GPa) = 52.24018 57.28064 54.76041
# Shear Modulus (GPa) = 18.22141 22.33499 20.27820
#
# Velocity S-wave (km/s) = 3.28884 3.64120 3.46950
# Velocity P-wave (km/s) = 6.74036 7.18891 6.96824
#
# Compressibility (1/GPa) = 0.01914235
#
# Stress axis : x y z
#
# Youngs Moduli (GPa) = 76.83888 55.01459 111.32856
#
# Poissons Ratio (x) = 0.21938 0.23356
# Poissons Ratio (y) = 0.30640 0.49320
# Poissons Ratio (z) = 0.16120 0.24372
#
# Static dielectric constant tensor:
#      x y z
#    x 3.460510 0.000000 0.000000 
#    y 0.000000 2.435320 0.000000 
#    z 0.000000 0.000000 3.609120 
# 
# 
# High freq. dielectric constant tensor:
#      x y z
#    x 1.668540 0.000000 0.000000 
#    y 0.000000 1.578240 0.000000 
#    z 0.000000 0.000000 1.668540 
# 
# From -- ./inp_files/59665.got.cif
#   From: 2010.03.12/outbox.cif.g09.slc.cpg/sg65_30_cif.got.tgz:59665.got - 2010.04.10 20:52:16.
