data_PCOD8265632
_publ_section_title
;
Structure prediction by ZEFSAII (Michael W. Deem and Ramdas Pophale) SiO2 
 PCOD8265632
Probable space group: C M M M
;
_chemical_formula_sum "Si O2"
_cell_formula_units_Z 112
_cell_length_a 27.717160
_cell_length_b 27.356719
_cell_length_c 9.682579
_cell_angle_alpha 90.000000
_cell_angle_beta 90.000000
_cell_angle_gamma 90.000000
_cell_volume 7341.820926
_symmetry_space_group_name_H-M "C M M M"
_symmetry_group_IT_number 65
_symmetry_cell_setting 'orthorhombic'
loop_
_space_group_symop_operation_xyz
x,y,z
-x,-y,z
x,-y,-z
-x,y,-z
-x,-y,-z
x,y,-z
-x,y,z
x,-y,z
1/2+x,1/2+y,z
1/2-x,1/2-y,z
1/2+x,1/2-y,-z
1/2-x,1/2+y,-z
1/2-x,1/2-y,-z
1/2+x,1/2+y,-z
1/2-x,1/2+y,z
1/2+x,1/2-y,z
loop_
_atom_site_type_symbol
_atom_site_label
_atom_site_fract_x
_atom_site_fract_y
_atom_site_fract_z
Si Si1 0.551583 0.873620 0.662861
Si Si2 0.864683 0.217746 0.841604
Si Si3 0.307614 0.812759 0.155739
Si Si4 0.751108 0.444606 0.338218
Si Si5 0.209050 0.861522 0.158170
Si Si6 0.152865 0.605432 0.661024
Si Si7 0.944818 0.737007 0.340662
O O1 0.545994 0.870156 0.500000
O O2 0.500000 0.893411 0.723613
O O3 0.597166 0.908948 0.700901
O O4 0.560981 0.818381 0.716123
O O5 0.821819 0.256841 0.817740
O O6 0.841408 0.164930 0.805353
O O7 0.910798 0.226920 0.746245
O O8 0.882138 0.218907 0.000000
O O9 0.251027 0.821557 0.182871
O O10 0.338055 0.844433 0.261457
O O11 0.321011 0.828814 0.000000
O O12 0.742853 0.435344 0.500000
O O13 0.738746 0.500000 0.296961
O O14 0.715945 0.408772 0.254955
O O15 0.807618 0.435368 0.298237
O O16 0.209338 0.879774 0.000000
O O17 0.156334 0.617200 0.500000
O O18 0.929096 0.740689 0.500000
O O19 0.000000 0.754375 0.321569
#
# Coordination Sequence:
#
# PCOD8265632 Si02
#       7
#    16  16  16  16  16  16  16
#     4   8  13  22  37  56  77 104 140 177 207 239
#     4  10  18  27  41  61  87 115 140 172 208 242
#     4   9  16  26  39  57  84 113 138 168 205 243
#     4   9  18  31  45  62  83 105 134 177 222 257
#     4   9  18  30  43  61  84 111 142 169 204 255
#     4   9  15  25  42  59  77 106 142 175 211 252
#     4   9  17  28  41  58  83 116 150 178 203 238
#
# _framework density 15.255070999999999
#
# number of rings (size 3 to 8) (size 9 to 14) (size 15 to 20)
#    0.000    3.000    1.429    1.286    0.000    2.857 
#    0.000    0.000    0.000    5.143    0.000    3.000 
#    0.000    0.571    0.000   13.429    0.000   12.000 
#
# Total GULP energy -693800.347475 kJ/mol
# GULP energy per Si atom -12389.291919 kJ/mol
# Density = 1.522035 g / cm^3
# Si number density = 15.255071 Si / 1000 Ang^3
#
#
#
# Elastic Constant Matrix: (Units=GPa)
#
#
# Indices 1 2 3 4 5 6 
#
# 1 47.8422 22.0187 23.0664 0.0000 0.0000 0.0000
# 2 22.0187 64.4307 29.9374 0.0000 0.0000 0.0000
# 3 23.0664 29.9374 42.7829 0.0000 0.0000 0.0000
# 4 0.0000 0.0000 0.0000 18.5729 0.0000 0.0000
# 5 0.0000 0.0000 0.0000 0.0000 20.9496 0.0000
# 6 0.0000 0.0000 0.0000 0.0000 0.0000 13.9897
#
#
#
# Elastic Compliance Matrix: (Units=1/GPa)
#
#
# Indices 1 2 3 4 5 6 
#
# 1 0.028892 -0.003906 -0.012844 0.000000 0.000000 0.000000
# 2 -0.003906 0.023526 -0.014357 0.000000 0.000000 0.000000
# 3 -0.012844 -0.014357 0.040345 0.000000 0.000000 0.000000
# 4 0.000000 0.000000 0.000000 0.053842 0.000000 0.000000
# 5 0.000000 0.000000 0.000000 0.000000 0.047734 0.000000
# 6 0.000000 0.000000 0.000000 0.000000 0.000000 0.071481
#
#
# Mechanical properties :
#
#
# Convention : Reuss Voigt Hill
#
# Bulk Modulus (GPa) = 32.73318 33.90008 33.31663
# Shear Modulus (GPa) = 14.78343 16.03797 15.41070
#
# Velocity S-wave (km/s) = 3.11639 3.24593 3.18182
# Velocity P-wave (km/s) = 5.86967 6.02648 5.94859
#
# Compressibility (1/GPa) = 0.03055004
#
# Stress axis : x y z
#
# Youngs Moduli (GPa) = 34.61136 42.50610 24.78633
#
# Poissons Ratio (x) = 0.16602 0.31836
# Poissons Ratio (y) = 0.13518 0.35585
# Poissons Ratio (z) = 0.44456 0.61024
#
# Static dielectric constant tensor:
#      x y z
#    x 3.128510 0.000000 0.000000 
#    y 0.000000 2.626900 0.000000 
#    z 0.000000 0.000000 2.830950 
# 
# 
# High freq. dielectric constant tensor:
#      x y z
#    x 1.579420 0.000000 0.000000 
#    y 0.000000 1.543150 0.000000 
#    z 0.000000 0.000000 1.573460 
# 
# From -- ./inp_files/32925.got.cif
#   From: 2010.03.12/outbox.cif.g09.slc.cpg/sg65_17_cif.got.tgz:32925.got - 2010.04.10 20:52:16.
