data_PCOD8265881
_publ_section_title
;
Structure prediction by ZEFSAII (Michael W. Deem and Ramdas Pophale) SiO2 
 PCOD8265881
Probable space group: C M M M
;
_chemical_formula_sum "Si O2"
_cell_formula_units_Z 120
_cell_length_a 9.210257
_cell_length_b 29.227735
_cell_length_c 25.623481
_cell_angle_alpha 90.000000
_cell_angle_beta 90.000000
_cell_angle_gamma 90.000000
_cell_volume 6897.711709
_symmetry_space_group_name_H-M "C M M M"
_symmetry_group_IT_number 65
_symmetry_cell_setting 'orthorhombic'
loop_
_space_group_symop_operation_xyz
x,y,z
-x,-y,z
x,-y,-z
-x,y,-z
-x,-y,-z
x,y,-z
-x,y,z
x,-y,z
1/2+x,1/2+y,z
1/2-x,1/2-y,z
1/2+x,1/2-y,-z
1/2-x,1/2+y,-z
1/2-x,1/2-y,-z
1/2+x,1/2+y,-z
1/2-x,1/2+y,z
1/2+x,1/2-y,z
loop_
_atom_site_type_symbol
_atom_site_label
_atom_site_fract_x
_atom_site_fract_y
_atom_site_fract_z
Si Si1 0.328803 0.702461 0.236130
Si Si2 0.169125 0.447417 0.101734
Si Si3 0.662806 0.445749 0.000000
Si Si4 0.169330 0.796269 0.644271
Si Si5 0.171627 0.616543 0.198767
Si Si6 0.827582 0.449799 0.712337
Si Si7 0.833033 0.134293 0.442329
Si Si8 0.830241 0.551813 0.595071
O O1 0.500000 0.707254 0.224950
O O2 0.250000 0.750000 0.222888
O O3 0.298185 0.688439 0.296322
O O4 0.259230 0.664131 0.198400
O O5 0.211321 0.500000 0.116086
O O6 0.255105 0.428629 0.051622
O O7 0.210860 0.413589 0.148480
O O8 0.000000 0.444738 0.088475
O O9 0.662141 0.500000 0.000000
O O10 0.500000 0.425754 0.000000
O O11 0.250000 0.750000 0.630521
O O12 0.230833 0.833322 0.603166
O O13 0.000000 0.787646 0.635416
O O14 0.231453 0.588240 0.248305
O O15 0.000000 0.626599 0.202135
O O16 0.768138 0.500000 0.728666
O O17 0.776227 0.438165 0.654002
O O18 0.000000 0.451292 0.715023
O O19 0.812380 0.156501 0.500000
O O20 0.751791 0.085921 0.443115
O O21 0.000000 0.124413 0.430381
O O22 0.792459 0.500000 0.578857
O O23 0.000000 0.560809 0.589998
#
# Coordination Sequence:
#
# PCOD8265881 Si02
#       8
#    16  16   8  16  16  16  16  16
#     4  10  20  34  51  70  94 123 155 192 235 284
#     4   9  17  29  46  70 101 136 171 204 238 278
#     4   9  17  29  45  65  94 135 178 215 245 273
#     4   9  19  35  53  72  93 118 149 186 231 285
#     4  10  18  28  47  74 100 126 158 196 237 281
#     4   8  14  26  45  69  96 124 153 186 227 277
#     4  10  21  35  49  67  92 119 148 186 233 283
#     4   9  18  32  49  68  90 119 156 194 228 267
#
# _framework density 17.397074
#
# number of rings (size 3 to 8) (size 9 to 14) (size 15 to 20)
#    0.000    2.733    0.000    2.600    0.000    5.067 
#    0.000    1.333    0.000    2.000    0.000    0.467 
#    0.000    0.000    0.000    0.000    0.000    0.000 
#
# Total GULP energy -743855.582619 kJ/mol
# GULP energy per Si atom -12397.593044 kJ/mol
# Density = 1.735748 g / cm^3
# Si number density = 17.397074 Si / 1000 Ang^3
#
#
#
# Elastic Constant Matrix: (Units=GPa)
#
#
# Indices 1 2 3 4 5 6 
#
# 1 55.1077 46.2365 38.4905 0.0000 0.0000 0.0000
# 2 46.2365 106.0608 54.9653 0.0000 0.0000 0.0000
# 3 38.4905 54.9653 83.3883 0.0000 0.0000 0.0000
# 4 0.0000 0.0000 0.0000 21.0675 0.0000 0.0000
# 5 0.0000 0.0000 0.0000 0.0000 19.5020 0.0000
# 6 0.0000 0.0000 0.0000 0.0000 0.0000 27.8279
#
#
#
# Elastic Compliance Matrix: (Units=1/GPa)
#
#
# Indices 1 2 3 4 5 6 
#
# 1 0.032148 -0.009606 -0.008507 0.000000 0.000000 0.000000
# 2 -0.009606 0.017191 -0.006897 0.000000 0.000000 0.000000
# 3 -0.008507 -0.006897 0.020465 0.000000 0.000000 0.000000
# 4 0.000000 0.000000 0.000000 0.047466 0.000000 0.000000
# 5 0.000000 0.000000 0.000000 0.000000 0.051277 0.000000
# 6 0.000000 0.000000 0.000000 0.000000 0.000000 0.035935
#
#
# Mechanical properties :
#
#
# Convention : Reuss Voigt Hill
#
# Bulk Modulus (GPa) = 50.54849 58.21571 54.38210
# Shear Modulus (GPa) = 19.15001 20.67046 19.91023
#
# Velocity S-wave (km/s) = 3.32137 3.45070 3.38666
# Velocity P-wave (km/s) = 6.62023 7.02937 6.82787
#
# Compressibility (1/GPa) = 0.01978299
#
# Stress axis : x y z
#
# Youngs Moduli (GPa) = 31.10654 58.17120 48.86359
#
# Poissons Ratio (x) = 0.55878 0.41569
# Poissons Ratio (y) = 0.29880 0.33703
# Poissons Ratio (z) = 0.26462 0.40123
#
# Static dielectric constant tensor:
#      x y z
#    x 3.063730 0.000000 0.000000 
#    y 0.000000 3.176710 0.000000 
#    z 0.000000 0.000000 3.230080 
# 
# 
# High freq. dielectric constant tensor:
#      x y z
#    x 1.657120 0.000000 0.000000 
#    y 0.000000 1.660390 0.000000 
#    z 0.000000 0.000000 1.661680 
# 
# From -- ./inp_files/73923.got.cif
#   From: 2010.03.12/outbox.cif.g09.slc.cpg/sg65_37_cif.got.tgz:73923.got - 2010.04.10 20:52:16.
