data_PCOD8265028
_publ_section_title
;
Structure prediction by ZEFSAII (Michael W. Deem and Ramdas Pophale) SiO2 
 PCOD8265028
Probable space group: C M C A
;
_chemical_formula_sum "Si O2"
_cell_formula_units_Z 80
_cell_length_a 9.184018
_cell_length_b 25.438980
_cell_length_c 20.038156
_cell_angle_alpha 90.000000
_cell_angle_beta 90.000000
_cell_angle_gamma 90.000000
_cell_volume 4681.555469
_symmetry_space_group_name_H-M "C M C A"
_symmetry_group_IT_number 64
_symmetry_cell_setting 'orthorhombic'
loop_
_space_group_symop_operation_xyz
x,y,z
-x,1/2-y,1/2+z
x,-y,-z
-x,1/2+y,1/2-z
-x,-y,-z
x,1/2+y,1/2-z
-x,y,z
x,1/2-y,1/2+z
1/2+x,1/2+y,z
1/2-x,-y,1/2+z
1/2+x,1/2-y,-z
1/2-x,y,1/2-z
1/2-x,1/2-y,-z
1/2+x,y,1/2-z
1/2-x,1/2+y,z
1/2+x,-y,1/2+z
loop_
_atom_site_type_symbol
_atom_site_label
_atom_site_fract_x
_atom_site_fract_y
_atom_site_fract_z
Si Si1 0.830414 0.755340 0.930504
Si Si2 0.830716 0.558914 0.183561
Si Si3 0.671838 0.060958 0.817607
Si Si4 0.168184 0.360310 0.072891
Si Si5 0.172190 0.355066 0.922459
O O1 0.810399 0.698245 0.895504
O O2 0.752451 0.803373 0.891450
O O3 0.000000 0.768229 0.940814
O O4 0.750000 0.750000 0.000000
O O5 0.750000 0.577990 0.250000
O O6 0.789311 0.499231 0.164798
O O7 0.783080 0.595061 0.121755
O O8 0.000000 0.564632 0.198588
O O9 0.500000 0.069311 0.808275
O O10 0.750000 0.078630 0.750000
O O11 0.737790 0.097000 0.877034
O O12 0.000000 0.374433 0.066035
O O13 0.232480 0.364992 0.997721
O O14 0.000000 0.344356 0.921975
#
# Coordination Sequence:
#
# PCOD8265028 Si02
#       5
#    16  16  16  16  16
#     4   9  16  28  46  68  93 121 149 183 226 271
#     4   9  18  31  48  67  90 119 151 185 226 272
#     4   9  17  31  48  66  89 119 149 183 226 271
#     4   8  15  28  47  68  90 114 147 186 223 262
#     4   9  17  30  47  69  92 117 151 189 224 266
#
# _framework density 17.088338
#
# number of rings (size 3 to 8) (size 9 to 14) (size 15 to 20)
#    0.000    3.200    0.000    1.800    0.000    1.600 
#    0.000   10.000    0.000    4.800    0.000   11.200 
#    0.000    0.000    0.000    0.000    0.000    0.000 
#
# Total GULP energy -495680.342606 kJ/mol
# GULP energy per Si atom -12392.008565 kJ/mol
# Density = 1.704944 g / cm^3
# Si number density = 17.088338 Si / 1000 Ang^3
#
#
#
# Elastic Constant Matrix: (Units=GPa)
#
#
# Indices 1 2 3 4 5 6 
#
# 1 41.7025 40.4525 29.2721 0.0000 0.0000 0.0000
# 2 40.4525 130.9714 81.7755 0.0000 0.0000 0.0000
# 3 29.2721 81.7755 101.3161 0.0000 0.0000 0.0000
# 4 0.0000 0.0000 0.0000 16.7806 0.0000 0.0000
# 5 0.0000 0.0000 0.0000 0.0000 22.8367 0.0000
# 6 0.0000 0.0000 0.0000 0.0000 0.0000 25.8562
#
#
#
# Elastic Compliance Matrix: (Units=1/GPa)
#
#
# Indices 1 2 3 4 5 6 
#
# 1 0.034617 -0.008966 -0.002765 0.000000 0.000000 0.000000
# 2 -0.008966 0.017714 -0.011707 0.000000 0.000000 0.000000
# 3 -0.002765 -0.011707 0.020118 0.000000 0.000000 0.000000
# 4 0.000000 0.000000 0.000000 0.059593 0.000000 0.000000
# 5 0.000000 0.000000 0.000000 0.000000 0.043789 0.000000
# 6 0.000000 0.000000 0.000000 0.000000 0.000000 0.038675
#
#
# Mechanical properties :
#
#
# Convention : Reuss Voigt Hill
#
# Bulk Modulus (GPa) = 39.10284 64.11002 51.60643
# Shear Modulus (GPa) = 18.52484 21.26069 19.89277
#
# Velocity S-wave (km/s) = 3.29608 3.53110 3.41561
# Velocity P-wave (km/s) = 6.11703 7.36364 6.76909
#
# Compressibility (1/GPa) = 0.02557359
#
# Stress axis : x y z
#
# Youngs Moduli (GPa) = 28.88742 56.45174 49.70561
#
# Poissons Ratio (x) = 0.50612 0.13744
# Poissons Ratio (y) = 0.25899 0.58193
# Poissons Ratio (z) = 0.07988 0.66090
#
# Static dielectric constant tensor:
#      x y z
#    x 3.122450 0.000000 0.000000 
#    y 0.000000 3.877900 0.000000 
#    z 0.000000 0.000000 3.195060 
# 
# 
# High freq. dielectric constant tensor:
#      x y z
#    x 1.640650 0.000000 0.000000 
#    y 0.000000 1.672160 0.000000 
#    z 0.000000 0.000000 1.632280 
# 
# From -- ./inp_files/29797.got.cif
#   From: 2010.03.12/outbox.cif.g09.slc.cpg/sg64_15_cif.got.tgz:29797.got - 2010.04.10 20:19:32.
