data_PCOD8266725
_publ_section_title
;
Structure prediction by ZEFSAII (Michael W. Deem and Ramdas Pophale) SiO2 
 PCOD8266725
Probable space group: C M M M
;
_chemical_formula_sum "Si O2"
_cell_formula_units_Z 88
_cell_length_a 9.167730
_cell_length_b 23.337330
_cell_length_c 22.584081
_cell_angle_alpha 90.000000
_cell_angle_beta 90.000000
_cell_angle_gamma 90.000000
_cell_volume 4831.871817
_symmetry_space_group_name_H-M "C M M M"
_symmetry_group_IT_number 65
_symmetry_cell_setting 'orthorhombic'
loop_
_space_group_symop_operation_xyz
x,y,z
-x,-y,z
x,-y,-z
-x,y,-z
-x,-y,-z
x,y,-z
-x,y,z
x,-y,z
1/2+x,1/2+y,z
1/2-x,1/2-y,z
1/2+x,1/2-y,-z
1/2-x,1/2+y,-z
1/2-x,1/2-y,-z
1/2+x,1/2+y,-z
1/2-x,1/2+y,z
1/2+x,1/2-y,z
loop_
_atom_site_type_symbol
_atom_site_label
_atom_site_fract_x
_atom_site_fract_y
_atom_site_fract_z
Si Si1 0.672011 0.500000 0.762318
Si Si2 0.829313 0.888247 0.827673
Si Si3 0.329013 0.065190 0.067298
Si Si4 0.827519 0.189670 0.279476
Si Si5 0.836841 0.500000 0.355722
Si Si6 0.672065 0.810069 0.500000
Si Si7 0.331970 0.125539 0.617409
O O1 0.500000 0.500000 0.763232
O O2 0.733492 0.556225 0.794126
O O3 0.719593 0.500000 0.695299
O O4 0.749017 0.887609 0.891041
O O5 0.793460 0.833194 0.786902
O O6 0.000000 0.892860 0.839868
O O7 0.500000 0.069473 0.077966
O O8 0.275490 0.000000 0.080687
O O9 0.289254 0.081350 0.000000
O O10 0.750000 0.250000 0.288475
O O11 0.766401 0.145085 0.327450
O O12 0.000000 0.196063 0.289504
O O13 0.813820 0.442565 0.394287
O O14 0.000000 0.500000 0.328304
O O15 0.500000 0.800871 0.500000
O O16 0.750000 0.750000 0.500000
O O17 0.723620 0.844099 0.558015
O O18 0.500000 0.141418 0.631180
#
# Coordination Sequence:
#
# PCOD8266725 Si02
#       7
#     8  16  16  16   8   8  16
#     4  10  18  32  50  76 111 141 171 212 267 322
#     4  10  20  33  52  77 106 140 174 214 264 315
#     4   9  18  31  48  75 110 143 174 211 257 310
#     4  11  23  38  56  79 107 139 179 226 270 315
#     4  10  20  33  54  83 111 140 175 213 265 326
#     4  10  22  39  57  77 105 142 185 228 267 312
#     4  10  21  37  57  82 110 141 177 219 268 321
#
# _framework density 18.212402999999998
#
# number of rings (size 3 to 8) (size 9 to 14) (size 15 to 20)
#    0.000    2.000    2.727    1.636    0.000    5.091 
#    0.000    2.727    0.000    0.545    0.000    2.545 
#    0.000    0.000    0.000    0.000    0.000    0.000 
#
# Total GULP energy -545543.574467 kJ/mol
# GULP energy per Si atom -12398.717602 kJ/mol
# Density = 1.817095 g / cm^3
# Si number density = 18.212403 Si / 1000 Ang^3
#
#
#
# Elastic Constant Matrix: (Units=GPa)
#
#
# Indices 1 2 3 4 5 6 
#
# 1 50.9150 35.8752 45.3387 0.0000 0.0000 0.0000
# 2 35.8752 111.6898 46.7489 0.0000 0.0000 0.0000
# 3 45.3387 46.7489 122.4622 0.0000 0.0000 0.0000
# 4 0.0000 0.0000 0.0000 26.8439 0.0000 0.0000
# 5 0.0000 0.0000 0.0000 0.0000 27.0897 0.0000
# 6 0.0000 0.0000 0.0000 0.0000 0.0000 23.6882
#
#
#
# Elastic Compliance Matrix: (Units=1/GPa)
#
#
# Indices 1 2 3 4 5 6 
#
# 1 0.032834 -0.006497 -0.009676 0.000000 0.000000 0.000000
# 2 -0.006497 0.011941 -0.002153 0.000000 0.000000 0.000000
# 3 -0.009676 -0.002153 0.012570 0.000000 0.000000 0.000000
# 4 0.000000 0.000000 0.000000 0.037252 0.000000 0.000000
# 5 0.000000 0.000000 0.000000 0.000000 0.036914 0.000000
# 6 0.000000 0.000000 0.000000 0.000000 0.000000 0.042215
#
#
# Mechanical properties :
#
#
# Convention : Reuss Voigt Hill
#
# Bulk Modulus (GPa) = 48.32327 60.11028 54.21678
# Shear Modulus (GPa) = 23.01199 25.99798 24.50499
#
# Velocity S-wave (km/s) = 3.55848 3.78231 3.67210
# Velocity P-wave (km/s) = 6.59352 7.22158 6.91468
#
# Compressibility (1/GPa) = 0.02069396
#
# Stress axis : x y z
#
# Youngs Moduli (GPa) = 30.45578 83.74243 79.55336
#
# Poissons Ratio (x) = 0.54403 0.76977
# Poissons Ratio (y) = 0.19786 0.17131
# Poissons Ratio (z) = 0.29470 0.18033
#
# Static dielectric constant tensor:
#      x y z
#    x 3.254690 0.000000 0.000000 
#    y 0.000000 3.381480 0.000000 
#    z 0.000000 0.000000 3.368730 
# 
# 
# High freq. dielectric constant tensor:
#      x y z
#    x 1.701190 0.000000 0.000000 
#    y 0.000000 1.695930 0.000000 
#    z 0.000000 0.000000 1.703830 
# 
# From -- ./inp_files/65274.got.cif
#   From: 2010.03.12/outbox.cif.g09.slc.cpg/sg65_33_cif.got.tgz:65274.got - 2010.04.10 20:52:16.
