data_PCOD8266472
_publ_section_title
;
Structure prediction by ZEFSAII (Michael W. Deem and Ramdas Pophale) SiO2 
 PCOD8266472
Probable space group: C M M M
;
_chemical_formula_sum "Si O2"
_cell_formula_units_Z 80
_cell_length_a 25.968397
_cell_length_b 8.915361
_cell_length_c 19.399463
_cell_angle_alpha 90.000000
_cell_angle_beta 90.000000
_cell_angle_gamma 90.000000
_cell_volume 4491.317772
_symmetry_space_group_name_H-M "C M M M"
_symmetry_group_IT_number 65
_symmetry_cell_setting 'orthorhombic'
loop_
_space_group_symop_operation_xyz
x,y,z
-x,-y,z
x,-y,-z
-x,y,-z
-x,-y,-z
x,y,-z
-x,y,z
x,-y,z
1/2+x,1/2+y,z
1/2-x,1/2-y,z
1/2+x,1/2-y,-z
1/2-x,1/2+y,-z
1/2-x,1/2-y,-z
1/2+x,1/2+y,-z
1/2-x,1/2+y,z
1/2+x,1/2-y,z
loop_
_atom_site_type_symbol
_atom_site_label
_atom_site_fract_x
_atom_site_fract_y
_atom_site_fract_z
Si Si1 0.056589 0.166744 0.201372
Si Si2 0.405338 0.175468 0.329981
Si Si3 0.804296 0.177332 0.282956
Si Si4 0.303928 0.825895 0.000000
Si Si5 0.500000 0.821679 0.577926
Si Si6 0.342614 0.331578 0.868659
O O1 0.068001 0.294408 0.256892
O O2 0.095921 0.177029 0.138389
O O3 0.000000 0.191316 0.170402
O O4 0.062247 0.000000 0.235752
O O5 0.350048 0.260320 0.332460
O O6 0.446815 0.235551 0.386435
O O7 0.394410 0.000000 0.339281
O O8 0.750000 0.250000 0.304894
O O9 0.816002 0.219178 0.203144
O O10 0.801269 0.000000 0.293194
O O11 0.250000 0.750000 0.000000
O O12 0.331991 0.781139 0.069969
O O13 0.296470 0.000000 0.000000
O O14 0.500000 0.761265 0.500000
O O15 0.500000 0.000000 0.581811
O O16 0.324306 0.500000 0.887784
#
# Coordination Sequence:
#
# PCOD8266472 Si02
#       6
#    16  16  16   8   8  16
#     4   9  17  31  52  75 101 131 165 208 254 299
#     4  10  18  30  51  78 106 139 174 211 255 301
#     4  10  20  34  53  78 105 134 170 216 263 309
#     4  12  24  36  51  68  91 125 162 207 255 304
#     4   9  18  32  51  79 113 144 175 208 247 299
#     4   9  19  34  51  72  97 128 165 205 252 305
#
# _framework density 17.812144
#
# number of rings (size 3 to 8) (size 9 to 14) (size 15 to 20)
#    0.000    2.300    1.000    3.900    0.000    5.600 
#    0.000    0.500    0.000    8.400    0.000    0.000 
#    0.000    0.000    0.000    0.000    0.000    0.000 
#
# Total GULP energy -495749.799266 kJ/mol
# GULP energy per Si atom -12393.744982 kJ/mol
# Density = 1.777160 g / cm^3
# Si number density = 17.812144 Si / 1000 Ang^3
#
#
#
# Elastic Constant Matrix: (Units=GPa)
#
#
# Indices 1 2 3 4 5 6 
#
# 1 171.7488 51.9877 53.0184 0.0000 0.0000 0.0000
# 2 51.9877 84.2438 37.9182 0.0000 0.0000 0.0000
# 3 53.0184 37.9182 81.2909 0.0000 0.0000 0.0000
# 4 0.0000 0.0000 0.0000 16.5825 0.0000 0.0000
# 5 0.0000 0.0000 0.0000 0.0000 21.7148 0.0000
# 6 0.0000 0.0000 0.0000 0.0000 0.0000 28.4838
#
#
#
# Elastic Compliance Matrix: (Units=1/GPa)
#
#
# Indices 1 2 3 4 5 6 
#
# 1 0.007936 -0.003250 -0.003660 0.000000 0.000000 0.000000
# 2 -0.003250 0.016356 -0.005509 0.000000 0.000000 0.000000
# 3 -0.003660 -0.005509 0.017258 0.000000 0.000000 0.000000
# 4 0.000000 0.000000 0.000000 0.060305 0.000000 0.000000
# 5 0.000000 0.000000 0.000000 0.000000 0.046051 0.000000
# 6 0.000000 0.000000 0.000000 0.000000 0.000000 0.035108
#
#
# Mechanical properties :
#
#
# Convention : Reuss Voigt Hill
#
# Bulk Modulus (GPa) = 59.83965 69.23689 64.53827
# Shear Modulus (GPa) = 23.42762 26.31351 24.87057
#
# Velocity S-wave (km/s) = 3.63059 3.84771 3.74072
# Velocity P-wave (km/s) = 7.15840 7.66125 7.41409
#
# Compressibility (1/GPa) = 0.01671133
#
# Stress axis : x y z
#
# Youngs Moduli (GPa) = 126.00719 61.14052 57.94282
#
# Poissons Ratio (x) = 0.19871 0.21207
# Poissons Ratio (y) = 0.40953 0.31923
# Poissons Ratio (z) = 0.46118 0.33685
#
# Static dielectric constant tensor:
#      x y z
#    x 3.624730 0.000000 0.000000 
#    y 0.000000 3.467150 0.000000 
#    z 0.000000 0.000000 3.024140 
# 
# 
# High freq. dielectric constant tensor:
#      x y z
#    x 1.707590 0.000000 0.000000 
#    y 0.000000 1.686820 0.000000 
#    z 0.000000 0.000000 1.646050 
# 
# From -- ./inp_files/57271.got.cif
#   From: 2010.03.12/outbox.cif.g09.slc.cpg/sg65_29_cif.got.tgz:57271.got - 2010.04.10 20:52:16.
