data_PCOD8266866
_publ_section_title
;
Structure prediction by ZEFSAII (Michael W. Deem and Ramdas Pophale) SiO2 
 PCOD8266866
Probable space group: C M M M
;
_chemical_formula_sum "Si O2"
_cell_formula_units_Z 80
_cell_length_a 17.628020
_cell_length_b 29.163833
_cell_length_c 8.657187
_cell_angle_alpha 90.000000
_cell_angle_beta 90.000000
_cell_angle_gamma 90.000000
_cell_volume 4450.665303
_symmetry_space_group_name_H-M "C M M M"
_symmetry_group_IT_number 65
_symmetry_cell_setting 'orthorhombic'
loop_
_space_group_symop_operation_xyz
x,y,z
-x,-y,z
x,-y,-z
-x,y,-z
-x,-y,-z
x,y,-z
-x,y,z
x,-y,z
1/2+x,1/2+y,z
1/2-x,1/2-y,z
1/2+x,1/2-y,-z
1/2-x,1/2+y,-z
1/2-x,1/2-y,-z
1/2+x,1/2+y,-z
1/2-x,1/2+y,z
1/2+x,1/2-y,z
loop_
_atom_site_type_symbol
_atom_site_label
_atom_site_fract_x
_atom_site_fract_y
_atom_site_fract_z
Si Si1 0.500000 0.658748 0.681131
Si Si2 0.369975 0.401710 0.815011
Si Si3 0.000000 0.742997 0.178796
Si Si4 0.301796 0.000000 0.170725
Si Si5 0.417007 0.166806 0.674244
Si Si6 0.294517 0.905395 0.683143
Si Si7 0.622401 0.500000 0.831664
O O1 0.500000 0.649818 0.500000
O O2 0.575093 0.637377 0.755110
O O3 0.500000 0.712191 0.716447
O O4 0.285824 0.391619 0.755533
O O5 0.399738 0.451744 0.749572
O O6 0.368608 0.402847 0.000000
O O7 0.924586 0.713107 0.221839
O O8 0.000000 0.756638 0.000000
O O9 0.326532 0.045509 0.262128
O O10 0.212245 0.000000 0.152962
O O11 0.339115 0.000000 0.000000
O O12 0.394769 0.181344 0.500000
O O13 0.500000 0.142013 0.674373
O O14 0.354176 0.132665 0.742472
O O15 0.287414 0.906153 0.500000
O O16 0.583904 0.500000 0.000000
#
# Coordination Sequence:
#
# PCOD8266866 Si02
#       7
#     8  16   8   8  16  16   8
#     4  12  24  39  55  76 106 139 178 220 266 314
#     4  10  20  35  55  79 110 142 177 218 263 309
#     4  10  20  36  59  80 101 134 173 218 274 322
#     4   9  17  29  47  73 111 147 177 218 264 301
#     4   8  17  35  56  78 106 141 173 212 266 323
#     4  10  18  32  55  81 108 142 182 215 257 315
#     4   7  14  30  50  72 101 140 171 203 252 302
#
# _framework density 17.974841000000001
#
# number of rings (size 3 to 8) (size 9 to 14) (size 15 to 20)
#    0.600    2.000    0.000    4.200    0.000    2.000 
#    0.000    5.000    0.000    9.000    0.000    0.000 
#    0.000    0.000    0.000    0.000    0.000    0.000 
#
# Total GULP energy -495569.239399 kJ/mol
# GULP energy per Si atom -12389.230985 kJ/mol
# Density = 1.793393 g / cm^3
# Si number density = 17.974841 Si / 1000 Ang^3
#
#
#
# Elastic Constant Matrix: (Units=GPa)
#
#
# Indices 1 2 3 4 5 6 
#
# 1 80.1583 58.2542 28.0935 0.0000 0.0000 0.0000
# 2 58.2542 132.7564 33.6859 0.0000 0.0000 0.0000
# 3 28.0935 33.6859 82.3962 0.0000 0.0000 0.0000
# 4 0.0000 0.0000 0.0000 29.3574 0.0000 0.0000
# 5 0.0000 0.0000 0.0000 0.0000 18.4583 0.0000
# 6 0.0000 0.0000 0.0000 0.0000 0.0000 94.0136
#
#
#
# Elastic Compliance Matrix: (Units=1/GPa)
#
#
# Indices 1 2 3 4 5 6 
#
# 1 0.019158 -0.007531 -0.003453 0.000000 0.000000 0.000000
# 2 -0.007531 0.011364 -0.002079 0.000000 0.000000 0.000000
# 3 -0.003453 -0.002079 0.014164 0.000000 0.000000 0.000000
# 4 0.000000 0.000000 0.000000 0.034063 0.000000 0.000000
# 5 0.000000 0.000000 0.000000 0.000000 0.054176 0.000000
# 6 0.000000 0.000000 0.000000 0.000000 0.000000 0.010637
#
#
# Mechanical properties :
#
#
# Convention : Reuss Voigt Hill
#
# Bulk Modulus (GPa) = 53.87492 59.48646 56.68069
# Shear Modulus (GPa) = 28.42936 40.05102 34.24019
#
# Velocity S-wave (km/s) = 3.98127 4.72547 4.36925
# Velocity P-wave (km/s) = 7.15343 7.93345 7.55351
#
# Compressibility (1/GPa) = 0.01856151
#
# Stress axis : x y z
#
# Youngs Moduli (GPa) = 52.19648 87.99386 70.60284
#
# Poissons Ratio (x) = 0.66264 0.24383
# Poissons Ratio (y) = 0.39307 0.14675
# Poissons Ratio (z) = 0.18026 0.18290
#
# Static dielectric constant tensor:
#      x y z
#    x 3.220670 0.000000 0.000000 
#    y 0.000000 3.481210 0.000000 
#    z 0.000000 0.000000 3.272470 
# 
# 
# High freq. dielectric constant tensor:
#      x y z
#    x 1.671280 0.000000 0.000000 
#    y 0.000000 1.696750 0.000000 
#    z 0.000000 0.000000 1.694490 
# 
# From -- ./inp_files/9980.got.cif
#   From: 2010.03.12/outbox.cif.g09.slc.cpg/sg65_5_cif.got.tgz:9980.got - 2010.04.10 20:52:16.
