data_PCOD8266445
_publ_section_title
;
Structure prediction by ZEFSAII (Michael W. Deem and Ramdas Pophale) SiO2 
 PCOD8266445
Probable space group: C M M M
;
_chemical_formula_sum "Si O2"
_cell_formula_units_Z 96
_cell_length_a 22.433997
_cell_length_b 19.869879
_cell_length_c 12.181792
_cell_angle_alpha 90.000000
_cell_angle_beta 90.000000
_cell_angle_gamma 90.000000
_cell_volume 5430.165419
_symmetry_space_group_name_H-M "C M M M"
_symmetry_group_IT_number 65
_symmetry_cell_setting 'orthorhombic'
loop_
_space_group_symop_operation_xyz
x,y,z
-x,-y,z
x,-y,-z
-x,y,-z
-x,-y,-z
x,y,-z
-x,y,z
x,-y,z
1/2+x,1/2+y,z
1/2-x,1/2-y,z
1/2+x,1/2-y,-z
1/2-x,1/2+y,-z
1/2-x,1/2-y,-z
1/2+x,1/2+y,-z
1/2-x,1/2+y,z
1/2+x,1/2-y,z
loop_
_atom_site_type_symbol
_atom_site_label
_atom_site_fract_x
_atom_site_fract_y
_atom_site_fract_z
Si Si1 0.290222 0.079586 0.000000
Si Si2 0.845439 0.079449 0.000000
Si Si3 0.326481 0.819875 0.377844
Si Si4 0.500000 0.920644 0.880030
Si Si5 0.313869 0.672137 0.622735
Si Si6 0.000000 0.920068 0.373188
Si Si7 0.128119 0.579771 0.202719
Si Si8 0.386217 0.420506 0.235813
O O1 0.327253 0.103618 0.106235
O O2 0.222493 0.109619 0.000000
O O3 0.287573 0.000000 0.000000
O O4 0.883409 0.101877 0.107483
O O5 0.838303 0.000000 0.000000
O O6 0.352340 0.827681 0.500000
O O7 0.340342 0.743940 0.335011
O O8 0.256358 0.827745 0.379438
O O9 0.355914 0.878973 0.309777
O O10 0.560193 0.898180 0.819900
O O11 0.500000 0.000000 0.893366
O O12 0.500000 0.887002 0.000000
O O13 0.338255 0.657316 0.500000
O O14 0.330334 0.612478 0.704630
O O15 0.055789 0.894076 0.301209
O O16 0.000000 0.892345 0.500000
O O17 0.000000 0.000000 0.378072
O O18 0.133835 0.500000 0.224105
O O19 0.380018 0.500000 0.245727
#
# Coordination Sequence:
#
# PCOD8266445 Si02
#       8
#     8   8  16   8  16   8  16  16
#     4   9  16  27  46  74 101 123 160 209 246 284
#     4   9  18  29  44  72 105 131 154 193 252 306
#     4   9  19  34  50  72 102 133 164 202 256 311
#     4   9  16  30  50  75 101 132 172 207 248 291
#     4   9  18  34  53  71  98 133 166 207 255 303
#     4   9  18  31  48  73  99 123 163 212 241 271
#     4  10  18  30  51  75 101 132 170 212 247 293
#     4  10  19  32  51  74 100 129 165 206 248 296
#
# _framework density 17.679019
#
# number of rings (size 3 to 8) (size 9 to 14) (size 15 to 20)
#    0.000    2.667    0.833    2.500    0.000    3.667 
#    0.000    5.417    0.000    6.500    0.000    0.000 
#    0.000    0.000    0.000    0.000    0.000    0.000 
#
# Total GULP energy -594792.660287 kJ/mol
# GULP energy per Si atom -12391.513756 kJ/mol
# Density = 1.763878 g / cm^3
# Si number density = 17.679019 Si / 1000 Ang^3
#
#
#
# Elastic Constant Matrix: (Units=GPa)
#
#
# Indices 1 2 3 4 5 6 
#
# 1 85.8838 24.6473 62.6798 0.0000 0.0000 0.0000
# 2 24.6473 43.8047 44.1258 0.0000 0.0000 0.0000
# 3 62.6798 44.1258 133.9569 0.0000 0.0000 0.0000
# 4 0.0000 0.0000 0.0000 13.3724 0.0000 0.0000
# 5 0.0000 0.0000 0.0000 0.0000 15.6199 0.0000
# 6 0.0000 0.0000 0.0000 0.0000 0.0000 14.6505
#
#
#
# Elastic Compliance Matrix: (Units=1/GPa)
#
#
# Indices 1 2 3 4 5 6 
#
# 1 0.017854 -0.002440 -0.007550 0.000000 0.000000 0.000000
# 2 -0.002440 0.034499 -0.010222 0.000000 0.000000 0.000000
# 3 -0.007550 -0.010222 0.014365 0.000000 0.000000 0.000000
# 4 0.000000 0.000000 0.000000 0.074781 0.000000 0.000000
# 5 0.000000 0.000000 0.000000 0.000000 0.064021 0.000000
# 6 0.000000 0.000000 0.000000 0.000000 0.000000 0.068257
#
#
# Mechanical properties :
#
#
# Convention : Reuss Voigt Hill
#
# Bulk Modulus (GPa) = 38.03343 58.50571 48.26957
# Shear Modulus (GPa) = 15.48143 17.54138 16.51140
#
# Velocity S-wave (km/s) = 2.96243 3.15336 3.05938
# Velocity P-wave (km/s) = 5.76726 6.81347 6.31208
#
# Compressibility (1/GPa) = 0.02629266
#
# Stress axis : x y z
#
# Youngs Moduli (GPa) = 56.00850 28.98657 69.61255
#
# Poissons Ratio (x) = 0.07073 0.52561
# Poissons Ratio (y) = 0.13668 0.71159
# Poissons Ratio (z) = 0.42289 0.29631
#
# Static dielectric constant tensor:
#      x y z
#    x 3.411280 0.000000 0.000000 
#    y 0.000000 2.985970 0.000000 
#    z 0.000000 0.000000 3.536180 
# 
# 
# High freq. dielectric constant tensor:
#      x y z
#    x 1.679920 0.000000 0.000000 
#    y 0.000000 1.647900 0.000000 
#    z 0.000000 0.000000 1.690050 
# 
# From -- ./inp_files/30860.got.cif
#   From: 2010.03.12/outbox.cif.g09.slc.cpg/sg65_16_cif.got.tgz:30860.got - 2010.04.10 20:52:16.
