data_PCOD8266751
_publ_section_title
;
Structure prediction by ZEFSAII (Michael W. Deem and Ramdas Pophale) SiO2 
 PCOD8266751
Probable space group: C M M M
;
_chemical_formula_sum "Si O2"
_cell_formula_units_Z 64
_cell_length_a 36.001501
_cell_length_b 8.710226
_cell_length_c 12.454450
_cell_angle_alpha 90.000000
_cell_angle_beta 90.000000
_cell_angle_gamma 90.000000
_cell_volume 3905.481501
_symmetry_space_group_name_H-M "C M M M"
_symmetry_group_IT_number 65
_symmetry_cell_setting 'orthorhombic'
loop_
_space_group_symop_operation_xyz
x,y,z
-x,-y,z
x,-y,-z
-x,y,-z
-x,-y,-z
x,y,-z
-x,y,z
x,-y,z
1/2+x,1/2+y,z
1/2-x,1/2-y,z
1/2+x,1/2-y,-z
1/2-x,1/2+y,-z
1/2-x,1/2-y,-z
1/2+x,1/2+y,-z
1/2-x,1/2+y,z
1/2+x,1/2-y,z
loop_
_atom_site_type_symbol
_atom_site_label
_atom_site_fract_x
_atom_site_fract_y
_atom_site_fract_z
Si Si1 0.420674 0.827957 0.871950
Si Si2 0.790453 0.680396 0.715817
Si Si3 0.653892 0.675865 0.126018
Si Si4 0.000000 0.682738 0.882103
Si Si5 0.791121 0.817583 0.500000
O O1 0.387628 0.717063 0.833498
O O2 0.460898 0.769755 0.824208
O O3 0.411656 0.000000 0.831033
O O4 0.424158 0.828158 0.000000
O O5 0.786306 0.500000 0.699889
O O6 0.750000 0.750000 0.737869
O O7 0.816244 0.716521 0.816896
O O8 0.809810 0.753975 0.609223
O O9 0.662042 0.500000 0.154839
O O10 0.657586 0.708308 0.000000
O O11 0.000000 0.500000 0.892972
O O12 0.000000 0.758818 0.000000
O O13 0.750000 0.750000 0.500000
O O14 0.791440 0.000000 0.500000
#
# Coordination Sequence:
#
# PCOD8266751 Si02
#       5
#    16  16  16   8   8
#     4   8  13  23  39  58  81 112 148 183 219 260
#     4  11  21  34  51  69  89 115 149 186 225 267
#     4  10  20  32  44  62  91 124 155 187 224 266
#     4   7  10  18  35  57  79 106 143 182 217 257
#     4  10  18  32  52  72  92 111 138 179 226 268
#
# _framework density 16.387224
#
# number of rings (size 3 to 8) (size 9 to 14) (size 15 to 20)
#    0.000    2.625    0.000    7.125    0.000    2.000 
#    0.000    0.625    0.000    3.750    0.000    0.000 
#    0.000    1.000    0.000   10.750    0.000    7.750 
#
# Total GULP energy -396473.543791 kJ/mol
# GULP energy per Si atom -12389.798243 kJ/mol
# Density = 1.634993 g / cm^3
# Si number density = 16.387224 Si / 1000 Ang^3
#
#
#
# Elastic Constant Matrix: (Units=GPa)
#
#
# Indices 1 2 3 4 5 6 
#
# 1 105.6475 38.2783 37.2601 0.0000 0.0000 0.0000
# 2 38.2783 106.1934 30.9954 0.0000 0.0000 0.0000
# 3 37.2601 30.9954 45.6877 0.0000 0.0000 0.0000
# 4 0.0000 0.0000 0.0000 21.6249 0.0000 0.0000
# 5 0.0000 0.0000 0.0000 0.0000 0.6939 0.0000
# 6 0.0000 0.0000 0.0000 0.0000 0.0000 24.7595
#
#
#
# Elastic Compliance Matrix: (Units=1/GPa)
#
#
# Indices 1 2 3 4 5 6 
#
# 1 0.013647 -0.002083 -0.009716 0.000000 0.000000 0.000000
# 2 -0.002083 0.012060 -0.006483 0.000000 0.000000 0.000000
# 3 -0.009716 -0.006483 0.034210 0.000000 0.000000 0.000000
# 4 0.000000 0.000000 0.000000 0.046243 0.000000 0.000000
# 5 0.000000 0.000000 0.000000 0.000000 1.441184 0.000000
# 6 0.000000 0.000000 0.000000 0.000000 0.000000 0.040389
#
#
# Mechanical properties :
#
#
# Convention : Reuss Voigt Hill
#
# Bulk Modulus (GPa) = 42.82269 52.28846 47.55558
# Shear Modulus (GPa) = 3.06357 19.48195 11.27276
#
# Velocity S-wave (km/s) = 1.36878 3.45171 2.62563
# Velocity P-wave (km/s) = 5.35598 6.91831 6.18666
#
# Compressibility (1/GPa) = 0.02335211
#
# Stress axis : x y z
#
# Youngs Moduli (GPa) = 73.27586 82.91980 29.23131
#
# Poissons Ratio (x) = 0.17274 0.28402
# Poissons Ratio (y) = 0.15265 0.18950
# Poissons Ratio (z) = 0.71198 0.53755
#
# Static dielectric constant tensor:
#      x y z
#    x 3.352030 0.000000 0.000000 
#    y 0.000000 3.060380 0.000000 
#    z 0.000000 0.000000 3.010960 
# 
# 
# High freq. dielectric constant tensor:
#      x y z
#    x 1.630760 0.000000 0.000000 
#    y 0.000000 1.632050 0.000000 
#    z 0.000000 0.000000 1.578020 
# 
# From -- ./inp_files/47382.got.cif
#   From: 2010.03.12/outbox.cif.g09.slc.cpg/sg65_24_cif.got.tgz:47382.got - 2010.04.10 20:52:16.
