data_PCOD8266488
_publ_section_title
;
Structure prediction by ZEFSAII (Michael W. Deem and Ramdas Pophale) SiO2 
 PCOD8266488
Probable space group: C M M M
;
_chemical_formula_sum "Si O2"
_cell_formula_units_Z 88
_cell_length_a 37.896216
_cell_length_b 9.643457
_cell_length_c 13.643328
_cell_angle_alpha 90.000000
_cell_angle_beta 90.000000
_cell_angle_gamma 90.000000
_cell_volume 4985.961441
_symmetry_space_group_name_H-M "C M M M"
_symmetry_group_IT_number 65
_symmetry_cell_setting 'orthorhombic'
loop_
_space_group_symop_operation_xyz
x,y,z
-x,-y,z
x,-y,-z
-x,y,-z
-x,-y,-z
x,y,-z
-x,y,z
x,-y,z
1/2+x,1/2+y,z
1/2-x,1/2-y,z
1/2+x,1/2-y,-z
1/2-x,1/2+y,-z
1/2-x,1/2-y,-z
1/2+x,1/2+y,-z
1/2-x,1/2+y,z
1/2+x,1/2-y,z
loop_
_atom_site_type_symbol
_atom_site_label
_atom_site_fract_x
_atom_site_fract_y
_atom_site_fract_z
Si Si1 0.414351 0.160882 0.317446
Si Si2 0.539493 0.164815 0.500000
Si Si3 0.146152 0.841779 0.611152
Si Si4 0.599501 0.840865 0.892387
Si Si5 0.168502 0.841748 0.890713
Si Si6 0.783479 0.158834 0.716606
O O1 0.441725 0.218446 0.399442
O O2 0.377449 0.240918 0.323608
O O3 0.426560 0.182875 0.202535
O O4 0.407532 0.000000 0.339685
O O5 0.500000 0.226595 0.500000
O O6 0.538096 0.000000 0.500000
O O7 0.138709 0.802251 0.500000
O O8 0.187332 0.818982 0.632680
O O9 0.135423 0.000000 0.634378
O O10 0.633807 0.748604 0.877868
O O11 0.611993 0.000000 0.891380
O O12 0.581732 0.807328 0.000000
O O13 0.199546 0.790956 0.819300
O O14 0.158074 0.000000 0.863705
O O15 0.183699 0.829946 0.000000
O O16 0.750000 0.250000 0.689195
O O17 0.771051 0.000000 0.722485
#
# Coordination Sequence:
#
# PCOD8266488 Si02
#       6
#    16   8  16  16  16  16
#     4  10  18  30  52  77 100 130 167 201 237 287
#     4   9  18  32  51  79 110 135 162 197 238 285
#     4  10  20  34  51  71  96 125 159 204 255 298
#     4   9  17  28  45  72 101 126 158 204 249 286
#     4   9  17  30  47  66  90 121 159 202 247 298
#     4  10  21  34  46  64  91 125 163 203 250 299
#
# _framework density 17.649554999999999
#
# number of rings (size 3 to 8) (size 9 to 14) (size 15 to 20)
#    0.000    2.455    2.727    0.000    0.000    2.182 
#    0.000    0.000    0.000    1.636    0.000    3.818 
#    0.000    0.000    0.000    6.182    0.000    6.545 
#
# Total GULP energy -545151.039743 kJ/mol
# GULP energy per Si atom -12389.796358 kJ/mol
# Density = 1.760938 g / cm^3
# Si number density = 17.649555 Si / 1000 Ang^3
#
#
#
# Elastic Constant Matrix: (Units=GPa)
#
#
# Indices 1 2 3 4 5 6 
#
# 1 61.7651 21.2470 47.5571 0.0000 0.0000 0.0000
# 2 21.2470 38.1936 32.6793 0.0000 0.0000 0.0000
# 3 47.5571 32.6793 135.4619 0.0000 0.0000 0.0000
# 4 0.0000 0.0000 0.0000 18.0864 0.0000 0.0000
# 5 0.0000 0.0000 0.0000 0.0000 18.8091 0.0000
# 6 0.0000 0.0000 0.0000 0.0000 0.0000 12.9737
#
#
#
# Elastic Compliance Matrix: (Units=1/GPa)
#
#
# Indices 1 2 3 4 5 6 
#
# 1 0.023857 -0.007693 -0.006519 0.000000 0.000000 0.000000
# 2 -0.007693 0.035473 -0.005857 0.000000 0.000000 0.000000
# 3 -0.006519 -0.005857 0.011084 0.000000 0.000000 0.000000
# 4 0.000000 0.000000 0.000000 0.055290 0.000000 0.000000
# 5 0.000000 0.000000 0.000000 0.000000 0.053166 0.000000
# 6 0.000000 0.000000 0.000000 0.000000 0.000000 0.077079
#
#
# Mechanical properties :
#
#
# Convention : Reuss Voigt Hill
#
# Bulk Modulus (GPa) = 33.03072 48.70971 40.87021
# Shear Modulus (GPa) = 16.33031 18.90299 17.61665
#
# Velocity S-wave (km/s) = 3.04510 3.27619 3.16276
# Velocity P-wave (km/s) = 5.57843 6.47838 6.04518
#
# Compressibility (1/GPa) = 0.03027485
#
# Stress axis : x y z
#
# Youngs Moduli (GPa) = 41.91715 28.19019 90.22094
#
# Poissons Ratio (x) = 0.21687 0.58819
# Poissons Ratio (y) = 0.32247 0.52841
# Poissons Ratio (z) = 0.27328 0.16511
#
# Static dielectric constant tensor:
#      x y z
#    x 2.911170 0.000000 0.000000 
#    y 0.000000 3.223570 0.000000 
#    z 0.000000 0.000000 3.854570 
# 
# 
# High freq. dielectric constant tensor:
#      x y z
#    x 1.631170 0.000000 0.000000 
#    y 0.000000 1.671480 0.000000 
#    z 0.000000 0.000000 1.713450 
# 
# From -- ./inp_files/47631.got.cif
#   From: 2010.03.12/outbox.cif.g09.slc.cpg/sg65_24_cif.got.tgz:47631.got - 2010.04.10 20:52:16.
