data_PCOD8266490
_publ_section_title
;
Structure prediction by ZEFSAII (Michael W. Deem and Ramdas Pophale) SiO2 
 PCOD8266490
Probable space group: C M M M
;
_chemical_formula_sum "Si O2"
_cell_formula_units_Z 80
_cell_length_a 26.001100
_cell_length_b 8.922337
_cell_length_c 18.617876
_cell_angle_alpha 90.000000
_cell_angle_beta 90.000000
_cell_angle_gamma 90.000000
_cell_volume 4319.171788
_symmetry_space_group_name_H-M "C M M M"
_symmetry_group_IT_number 65
_symmetry_cell_setting 'orthorhombic'
loop_
_space_group_symop_operation_xyz
x,y,z
-x,-y,z
x,-y,-z
-x,y,-z
-x,-y,-z
x,y,-z
-x,y,z
x,-y,z
1/2+x,1/2+y,z
1/2-x,1/2-y,z
1/2+x,1/2-y,-z
1/2-x,1/2+y,-z
1/2-x,1/2-y,-z
1/2+x,1/2+y,-z
1/2-x,1/2+y,z
1/2+x,1/2-y,z
loop_
_atom_site_type_symbol
_atom_site_label
_atom_site_fract_x
_atom_site_fract_y
_atom_site_fract_z
Si Si1 0.910548 0.820184 0.830109
Si Si2 0.094325 0.321684 0.322653
Si Si3 0.000000 0.322691 0.420005
Si Si4 0.298309 0.336127 0.161792
Si Si5 0.000000 0.671608 0.915091
Si Si6 0.199839 0.832044 0.667868
O O1 0.922273 0.751191 0.752548
O O2 0.853998 0.766144 0.857168
O O3 0.950152 0.757967 0.887497
O O4 0.913231 0.000000 0.824116
O O5 0.097471 0.500000 0.313432
O O6 0.051193 0.269578 0.379032
O O7 0.148822 0.261193 0.351761
O O8 0.000000 0.500000 0.424404
O O9 0.000000 0.252678 0.500000
O O10 0.295020 0.500000 0.127912
O O11 0.250000 0.250000 0.127476
O O12 0.293677 0.341803 0.247164
O O13 0.000000 0.500000 0.887699
O O14 0.000000 0.679381 0.000000
O O15 0.250000 0.750000 0.634581
O O16 0.195698 0.000000 0.635773
#
# Coordination Sequence:
#
# PCOD8266490 Si02
#       6
#    16  16   8  16   8  16
#     4  10  20  34  53  77 105 135 168 206 249 302
#     4  10  18  30  52  78 103 133 169 210 254 299
#     4   9  19  34  50  70  98 133 172 211 254 306
#     4   8  15  26  43  70 100 129 158 193 238 286
#     4  11  24  39  54  74 100 131 170 215 260 304
#     4   9  16  27  44  70 103 133 164 204 251 301
#
# _framework density 18.522068999999998
#
# number of rings (size 3 to 8) (size 9 to 14) (size 15 to 20)
#    0.000    2.600    0.000    3.900    0.000    7.200 
#    0.000    1.500    0.000    6.000    0.000    0.000 
#    0.000    0.000    0.000    0.000    0.000    0.000 
#
# Total GULP energy -495819.002689 kJ/mol
# GULP energy per Si atom -12395.475067 kJ/mol
# Density = 1.847991 g / cm^3
# Si number density = 18.522069 Si / 1000 Ang^3
#
#
#
# Elastic Constant Matrix: (Units=GPa)
#
#
# Indices 1 2 3 4 5 6 
#
# 1 176.3169 62.3852 53.3752 0.0000 0.0000 0.0000
# 2 62.3852 104.2074 31.6678 0.0000 0.0000 0.0000
# 3 53.3752 31.6678 55.4845 0.0000 0.0000 0.0000
# 4 0.0000 0.0000 0.0000 10.2447 0.0000 0.0000
# 5 0.0000 0.0000 0.0000 0.0000 -0.1111 0.0000
# 6 0.0000 0.0000 0.0000 0.0000 0.0000 32.0626
#
#
#
# Elastic Compliance Matrix: (Units=1/GPa)
#
#
# Indices 1 2 3 4 5 6 
#
# 1 0.008839 -0.003276 -0.006633 0.000000 0.000000 0.000000
# 2 -0.003276 0.012824 -0.004168 0.000000 0.000000 0.000000
# 3 -0.006633 -0.004168 0.026783 0.000000 0.000000 0.000000
# 4 0.000000 0.000000 0.000000 0.097612 0.000000 0.000000
# 5 0.000000 0.000000 0.000000 0.000000 -9.001877 0.000000
# 6 0.000000 0.000000 0.000000 0.000000 0.000000 0.031189
#
#
# Mechanical properties :
#
#
# Convention : Reuss Voigt Hill
#
# Bulk Modulus (GPa) = 49.28101 70.09616 59.68859
# Shear Modulus (GPa) = -0.56885 21.01127 10.22121
#
# Velocity S-wave (km/s) = -0.55478 3.37173 2.35168
# Velocity P-wave (km/s) = 5.12387 7.28594 6.29837
#
# Compressibility (1/GPa) = 0.02029179
#
# Stress axis : x y z
#
# Youngs Moduli (GPa) = 113.14057 77.97927 37.33727
#
# Poissons Ratio (x) = 0.25543 0.24766
# Poissons Ratio (y) = 0.37060 0.15563
# Poissons Ratio (z) = 0.75046 0.32503
#
# Static dielectric constant tensor:
#      x y z
#    x 3.770550 0.000000 0.000000 
#    y 0.000000 3.574720 0.000000 
#    z 0.000000 0.000000 2.956110 
# 
# 
# High freq. dielectric constant tensor:
#      x y z
#    x 1.742350 0.000000 0.000000 
#    y 0.000000 1.722270 0.000000 
#    z 0.000000 0.000000 1.660510 
# 
# From -- ./inp_files/57328.got.cif
#   From: 2010.03.12/outbox.cif.g09.slc.cpg/sg65_29_cif.got.tgz:57328.got - 2010.04.10 20:52:16.
