data_PCOD8266958
_publ_section_title
;
Structure prediction by ZEFSAII (Michael W. Deem and Ramdas Pophale) SiO2 
 PCOD8266958
Probable space group: C M M M
;
_chemical_formula_sum "Si O2"
_cell_formula_units_Z 80
_cell_length_a 18.177943
_cell_length_b 7.540628
_cell_length_c 28.959516
_cell_angle_alpha 90.000000
_cell_angle_beta 90.000000
_cell_angle_gamma 90.000000
_cell_volume 3969.570805
_symmetry_space_group_name_H-M "C M M M"
_symmetry_group_IT_number 65
_symmetry_cell_setting 'orthorhombic'
loop_
_space_group_symop_operation_xyz
x,y,z
-x,-y,z
x,-y,-z
-x,y,-z
-x,-y,-z
x,y,-z
-x,y,z
x,-y,z
1/2+x,1/2+y,z
1/2-x,1/2-y,z
1/2+x,1/2-y,-z
1/2-x,1/2+y,-z
1/2-x,1/2-y,-z
1/2+x,1/2+y,-z
1/2-x,1/2+y,z
1/2+x,1/2-y,z
loop_
_atom_site_type_symbol
_atom_site_label
_atom_site_fract_x
_atom_site_fract_y
_atom_site_fract_z
Si Si1 0.167021 0.707661 0.708381
Si Si2 0.834320 0.802595 0.393382
Si Si3 0.915184 0.000000 0.945501
Si Si4 0.664312 0.208126 0.888620
Si Si5 0.417739 0.789738 0.203117
Si Si6 0.913178 0.500000 0.447667
O O1 0.156222 0.500000 0.701073
O O2 0.250000 0.750000 0.722694
O O3 0.144350 0.799929 0.660610
O O4 0.115954 0.784342 0.749191
O O5 0.750000 0.750000 0.399706
O O6 0.885636 0.675291 0.422511
O O7 0.846818 0.000000 0.412479
O O8 0.876176 0.178735 0.927774
O O9 0.000000 0.000000 0.929725
O O10 0.907403 0.000000 0.000000
O O11 0.750000 0.250000 0.889338
O O12 0.632215 0.272557 0.839527
O O13 0.649408 0.000000 0.897799
O O14 0.500000 0.713389 0.197011
O O15 0.418851 0.000000 0.205249
O O16 0.883649 0.500000 0.500000
O O17 0.000000 0.500000 0.445975
#
# Coordination Sequence:
#
# PCOD8266958 Si02
#       6
#    16  16   8  16  16   8
#     4  10  18  33  57  87 123 165 204 259 310 370
#     4  11  21  41  67  95 127 164 216 264 315 377
#     4  11  26  46  68  97 129 165 213 266 327 392
#     4  11  22  42  67  95 129 169 213 267 322 375
#     4   9  19  34  56  87 125 169 213 255 311 378
#     4  11  26  46  66  93 129 167 207 264 333 384
#
# _framework density 20.153312
#
# number of rings (size 3 to 8) (size 9 to 14) (size 15 to 20)
#    0.000    1.600    3.000    3.000    0.000    4.000 
#    3.600    2.000    0.000    0.000    0.000    0.000 
#    0.000    0.000    0.000    0.000    0.000    0.000 
#
# Total GULP energy -496096.297316 kJ/mol
# GULP energy per Si atom -12402.407433 kJ/mol
# Density = 2.010744 g / cm^3
# Si number density = 20.153312 Si / 1000 Ang^3
#
#
#
# Elastic Constant Matrix: (Units=GPa)
#
#
# Indices 1 2 3 4 5 6 
#
# 1 138.7111 39.2948 77.9913 0.0000 0.0000 0.0000
# 2 39.2948 128.4900 43.7729 0.0000 0.0000 0.0000
# 3 77.9913 43.7729 119.1299 0.0000 0.0000 0.0000
# 4 0.0000 0.0000 0.0000 12.7033 0.0000 0.0000
# 5 0.0000 0.0000 0.0000 0.0000 40.8130 0.0000
# 6 0.0000 0.0000 0.0000 0.0000 0.0000 32.9856
#
#
#
# Elastic Compliance Matrix: (Units=1/GPa)
#
#
# Indices 1 2 3 4 5 6 
#
# 1 0.011541 -0.001092 -0.007154 0.000000 0.000000 0.000000
# 2 -0.001092 0.009000 -0.002592 0.000000 0.000000 0.000000
# 3 -0.007154 -0.002592 0.014030 0.000000 0.000000 0.000000
# 4 0.000000 0.000000 0.000000 0.078720 0.000000 0.000000
# 5 0.000000 0.000000 0.000000 0.000000 0.024502 0.000000
# 6 0.000000 0.000000 0.000000 0.000000 0.000000 0.030316
#
#
# Mechanical properties :
#
#
# Convention : Reuss Voigt Hill
#
# Bulk Modulus (GPa) = 77.55307 78.71657 78.13482
# Shear Modulus (GPa) = 25.76196 32.31851 29.04024
#
# Velocity S-wave (km/s) = 3.57921 4.00888 3.80012
# Velocity P-wave (km/s) = 7.45963 7.78279 7.62292
#
# Compressibility (1/GPa) = 0.01289440
#
# Stress axis : x y z
#
# Youngs Moduli (GPa) = 86.64538 111.11510 71.27404
#
# Poissons Ratio (x) = 0.12136 0.50993
# Poissons Ratio (y) = 0.09464 0.18473
# Poissons Ratio (z) = 0.61990 0.28798
#
# Static dielectric constant tensor:
#      x y z
#    x 3.747520 0.000000 0.000000 
#    y 0.000000 3.705230 0.000000 
#    z 0.000000 0.000000 3.748960 
# 
# 
# High freq. dielectric constant tensor:
#      x y z
#    x 1.788570 0.000000 0.000000 
#    y 0.000000 1.792150 0.000000 
#    z 0.000000 0.000000 1.786800 
# 
# From -- ./inp_files/75097.got.cif
#   From: 2010.03.12/outbox.cif.g09.slc.cpg/sg65_38_cif.got.tgz:75097.got - 2010.04.10 20:52:16.
