data_PCOD8266505
_publ_section_title
;
Structure prediction by ZEFSAII (Michael W. Deem and Ramdas Pophale) SiO2 
 PCOD8266505
Probable space group: C M M M
;
_chemical_formula_sum "Si O2"
_cell_formula_units_Z 88
_cell_length_a 17.920389
_cell_length_b 13.579459
_cell_length_c 19.241007
_cell_angle_alpha 90.000000
_cell_angle_beta 90.000000
_cell_angle_gamma 90.000000
_cell_volume 4682.283424
_symmetry_space_group_name_H-M "C M M M"
_symmetry_group_IT_number 65
_symmetry_cell_setting 'orthorhombic'
loop_
_space_group_symop_operation_xyz
x,y,z
-x,-y,z
x,-y,-z
-x,y,-z
-x,-y,-z
x,y,-z
-x,y,z
x,-y,z
1/2+x,1/2+y,z
1/2-x,1/2-y,z
1/2+x,1/2-y,-z
1/2-x,1/2+y,-z
1/2-x,1/2-y,-z
1/2+x,1/2+y,-z
1/2-x,1/2+y,z
1/2+x,1/2-y,z
loop_
_atom_site_type_symbol
_atom_site_label
_atom_site_fract_x
_atom_site_fract_y
_atom_site_fract_z
Si Si1 0.323427 0.110606 0.663333
Si Si2 0.588773 0.500000 0.077803
Si Si3 0.085805 0.764031 0.420578
Si Si4 0.586793 0.681100 0.169988
Si Si5 0.655234 0.386466 0.309463
Si Si6 0.914399 0.392312 0.803885
O O1 0.362904 0.174982 0.604984
O O2 0.238942 0.146739 0.673522
O O3 0.364348 0.118869 0.736456
O O4 0.324233 0.000000 0.634661
O O5 0.500000 0.500000 0.075073
O O6 0.618059 0.600214 0.115355
O O7 0.621945 0.500000 0.000000
O O8 0.105356 0.788672 0.500000
O O9 0.103050 0.860762 0.374972
O O10 0.000000 0.733205 0.411910
O O11 0.500000 0.658542 0.182234
O O12 0.629135 0.673612 0.242582
O O13 0.599489 0.796285 0.145886
O O14 0.647680 0.500000 0.291281
O O15 0.897691 0.500000 0.840054
O O16 0.000000 0.389576 0.779025
#
# Coordination Sequence:
#
# PCOD8266505 Si02
#       6
#    16   8  16  16  16  16
#     4  10  21  35  53  78 107 134 178 229 284 333
#     4   9  18  32  52  84 121 151 184 225 271 325
#     4  11  24  39  54  73 102 143 187 233 285 338
#     4  10  18  30  53  81 110 147 182 223 274 327
#     4  11  22  35  53  79 109 140 180 227 282 341
#     4   9  17  30  50  77 108 139 178 228 276 325
#
# _framework density 18.794248
#
# number of rings (size 3 to 8) (size 9 to 14) (size 15 to 20)
#    0.000    1.909    2.727    1.636    0.000    4.364 
#    0.000    3.636    0.000    0.545    0.000    6.364 
#    0.000    0.000    0.000    0.000    0.000    0.545 
#
# Total GULP energy -545289.385415 kJ/mol
# GULP energy per Si atom -12392.940578 kJ/mol
# Density = 1.875147 g / cm^3
# Si number density = 18.794248 Si / 1000 Ang^3
#
#
#
# Elastic Constant Matrix: (Units=GPa)
#
#
# Indices 1 2 3 4 5 6 
#
# 1 65.6829 26.6158 29.6719 0.0000 0.0000 0.0000
# 2 26.6158 155.6980 53.8410 0.0000 0.0000 0.0000
# 3 29.6719 53.8410 83.9649 0.0000 0.0000 0.0000
# 4 0.0000 0.0000 0.0000 24.4622 0.0000 0.0000
# 5 0.0000 0.0000 0.0000 0.0000 3.6914 0.0000
# 6 0.0000 0.0000 0.0000 0.0000 0.0000 22.7319
#
#
#
# Elastic Compliance Matrix: (Units=1/GPa)
#
#
# Indices 1 2 3 4 5 6 
#
# 1 0.018274 -0.001145 -0.005724 0.000000 0.000000 0.000000
# 2 -0.001145 0.008324 -0.004933 0.000000 0.000000 0.000000
# 3 -0.005724 -0.004933 0.017096 0.000000 0.000000 0.000000
# 4 0.000000 0.000000 0.000000 0.040879 0.000000 0.000000
# 5 0.000000 0.000000 0.000000 0.000000 0.270902 0.000000
# 6 0.000000 0.000000 0.000000 0.000000 0.000000 0.043991
#
#
# Mechanical properties :
#
#
# Convention : Reuss Voigt Hill
#
# Bulk Modulus (GPa) = 49.77397 58.40035 54.08716
# Shear Modulus (GPa) = 11.63420 23.19159 17.41290
#
# Velocity S-wave (km/s) = 2.49073 3.51661 3.04715
# Velocity P-wave (km/s) = 5.90023 6.90142 6.42038
#
# Compressibility (1/GPa) = 0.02009082
#
# Stress axis : x y z
#
# Youngs Moduli (GPa) = 54.72202 120.13004 58.49358
#
# Poissons Ratio (x) = 0.13749 0.33481
# Poissons Ratio (y) = 0.06263 0.28857
# Poissons Ratio (z) = 0.31322 0.59264
#
# Static dielectric constant tensor:
#      x y z
#    x 3.464340 0.000000 0.000000 
#    y 0.000000 3.998360 0.000000 
#    z 0.000000 0.000000 3.150160 
# 
# 
# High freq. dielectric constant tensor:
#      x y z
#    x 1.724190 0.000000 0.000000 
#    y 0.000000 1.758540 0.000000 
#    z 0.000000 0.000000 1.682010 
# 
# From -- ./inp_files/53043.got.cif
#   From: 2010.03.12/outbox.cif.g09.slc.cpg/sg65_27_cif.got.tgz:53043.got - 2010.04.10 20:52:16.
