data_PCOD8266043
_publ_section_title
;
Structure prediction by ZEFSAII (Michael W. Deem and Ramdas Pophale) SiO2 
 PCOD8266043
Probable space group: C M M M
;
_chemical_formula_sum "Si O2"
_cell_formula_units_Z 104
_cell_length_a 17.104512
_cell_length_b 34.763734
_cell_length_c 9.088516
_cell_angle_alpha 90.000000
_cell_angle_beta 90.000000
_cell_angle_gamma 90.000000
_cell_volume 5404.183441
_symmetry_space_group_name_H-M "C M M M"
_symmetry_group_IT_number 65
_symmetry_cell_setting 'orthorhombic'
loop_
_space_group_symop_operation_xyz
x,y,z
-x,-y,z
x,-y,-z
-x,y,-z
-x,-y,-z
x,y,-z
-x,y,z
x,-y,z
1/2+x,1/2+y,z
1/2-x,1/2-y,z
1/2+x,1/2-y,-z
1/2-x,1/2+y,-z
1/2-x,1/2-y,-z
1/2+x,1/2+y,-z
1/2-x,1/2+y,z
1/2+x,1/2-y,z
loop_
_atom_site_type_symbol
_atom_site_label
_atom_site_fract_x
_atom_site_fract_y
_atom_site_fract_z
Si Si1 0.312761 0.345096 0.826795
Si Si2 0.500000 0.924390 0.326879
Si Si3 0.087450 0.772258 0.826026
Si Si4 0.180533 0.075973 0.325784
Si Si5 0.000000 0.348846 0.164172
Si Si6 0.340690 0.196076 0.168551
Si Si7 0.089259 0.000000 0.674712
Si Si8 0.341063 0.042341 0.325413
O O1 0.378244 0.313778 0.787459
O O2 0.343094 0.384107 0.749984
O O3 0.229952 0.328956 0.760086
O O4 0.306578 0.353321 0.000000
O O5 0.500000 0.930504 0.500000
O O6 0.500000 0.879908 0.291298
O O7 0.577405 0.943266 0.256220
O O8 0.145625 0.738839 0.762692
O O9 0.000000 0.769201 0.758265
O O10 0.082024 0.765901 0.000000
O O11 0.169846 0.080035 0.500000
O O12 0.270591 0.069882 0.278246
O O13 0.130516 0.039245 0.267331
O O14 0.076618 0.324049 0.188182
O O15 0.000000 0.367035 0.000000
O O16 0.315197 0.200760 0.000000
O O17 0.095245 0.000000 0.500000
O O18 0.000000 0.000000 0.730184
O O19 0.347418 0.041265 0.500000
O O20 0.323290 0.000000 0.263767
#
# Coordination Sequence:
#
# PCOD8266043 Si02
#       8
#    16   8  16  16   8  16   8  16
#     4  10  20  31  49  77 103 124 155 202 249 288
#     4  10  19  28  44  72 100 124 156 198 241 281
#     4   9  16  29  49  72  97 127 164 202 237 279
#     4  10  19  34  54  73  96 127 162 200 242 288
#     4  10  18  29  47  67  94 130 164 197 231 274
#     4   9  16  29  48  71  97 129 167 201 232 276
#     4   9  18  34  57  78  94 124 171 209 235 281
#     4   9  16  29  49  70  92 123 163 201 233 275
#
# _framework density 19.244351000000002
#
# number of rings (size 3 to 8) (size 9 to 14) (size 15 to 20)
#    0.000    2.538    1.538    1.615    0.000    3.385 
#    0.000    0.385    0.000    5.077    0.000    0.000 
#    0.000    0.000    0.000    0.000    0.000    0.000 
#
# Total GULP energy -644412.742713 kJ/mol
# GULP energy per Si atom -12392.552744 kJ/mol
# Density = 1.920055 g / cm^3
# Si number density = 19.244351 Si / 1000 Ang^3
#
#
#
# Elastic Constant Matrix: (Units=GPa)
#
#
# Indices 1 2 3 4 5 6 
#
# 1 113.5189 53.4896 14.8621 0.0000 0.0000 0.0000
# 2 53.4896 157.2980 22.6515 0.0000 0.0000 0.0000
# 3 14.8621 22.6515 12.3403 0.0000 0.0000 0.0000
# 4 0.0000 0.0000 0.0000 25.8699 0.0000 0.0000
# 5 0.0000 0.0000 0.0000 0.0000 10.0360 0.0000
# 6 0.0000 0.0000 0.0000 0.0000 0.0000 29.7723
#
#
#
# Elastic Compliance Matrix: (Units=1/GPa)
#
#
# Indices 1 2 3 4 5 6 
#
# 1 0.011150 -0.002525 -0.008793 0.000000 0.000000 0.000000
# 2 -0.002525 0.009214 -0.013871 0.000000 0.000000 0.000000
# 3 -0.008793 -0.013871 0.117086 0.000000 0.000000 0.000000
# 4 0.000000 0.000000 0.000000 0.038655 0.000000 0.000000
# 5 0.000000 0.000000 0.000000 0.000000 0.099641 0.000000
# 6 0.000000 0.000000 0.000000 0.000000 0.000000 0.033588
#
#
# Mechanical properties :
#
#
# Convention : Reuss Voigt Hill
#
# Bulk Modulus (GPa) = 11.48490 51.68484 31.58487
# Shear Modulus (GPa) = 12.86220 25.94591 19.40406
#
# Velocity S-wave (km/s) = 2.58808 3.67582 3.17882
# Velocity P-wave (km/s) = 3.86157 6.70306 5.47004
#
# Compressibility (1/GPa) = 0.08707089
#
# Stress axis : x y z
#
# Youngs Moduli (GPa) = 89.68351 108.53590 8.54076
#
# Poissons Ratio (x) = 0.27410 0.07510
# Poissons Ratio (y) = 0.22649 0.11846
# Poissons Ratio (z) = 0.78862 1.50545
#
# Static dielectric constant tensor:
#      x y z
#    x 3.824880 0.000000 0.000000 
#    y 0.000000 3.646100 0.000000 
#    z 0.000000 0.000000 2.874780 
# 
# 
# High freq. dielectric constant tensor:
#      x y z
#    x 1.762810 0.000000 0.000000 
#    y 0.000000 1.764060 0.000000 
#    z 0.000000 0.000000 1.670060 
# 
# From -- ./inp_files/27557.got.cif
#   From: 2010.03.12/outbox.cif.g09.slc.cpg/sg65_14_cif.got.tgz:27557.got - 2010.04.10 20:52:16.
