data_PCOD8266001
_publ_section_title
;
Structure prediction by ZEFSAII (Michael W. Deem and Ramdas Pophale) SiO2 
 PCOD8266001
Probable space group: C M M M
;
_chemical_formula_sum "Si O2"
_cell_formula_units_Z 104
_cell_length_a 28.682666
_cell_length_b 27.736218
_cell_length_c 9.265705
_cell_angle_alpha 90.000000
_cell_angle_beta 90.000000
_cell_angle_gamma 90.000000
_cell_volume 7371.319354
_symmetry_space_group_name_H-M "C M M M"
_symmetry_group_IT_number 65
_symmetry_cell_setting 'orthorhombic'
loop_
_space_group_symop_operation_xyz
x,y,z
-x,-y,z
x,-y,-z
-x,y,-z
-x,-y,-z
x,y,-z
-x,y,z
x,-y,z
1/2+x,1/2+y,z
1/2-x,1/2-y,z
1/2+x,1/2-y,-z
1/2-x,1/2+y,-z
1/2-x,1/2-y,-z
1/2+x,1/2+y,-z
1/2-x,1/2+y,z
1/2+x,1/2-y,z
loop_
_atom_site_type_symbol
_atom_site_label
_atom_site_fract_x
_atom_site_fract_y
_atom_site_fract_z
Si Si1 0.714304 0.793572 0.337913
Si Si2 0.553077 0.689912 0.836064
Si Si3 0.179618 0.055959 0.666042
Si Si4 0.850927 0.230907 0.835408
Si Si5 0.000000 0.946636 0.847531
Si Si6 0.577006 0.403622 0.665015
Si Si7 0.716818 0.356105 0.830061
O O1 0.703523 0.812084 0.500000
O O2 0.750000 0.750000 0.342576
O O3 0.666936 0.774224 0.265021
O O4 0.736027 0.836114 0.242396
O O5 0.500000 0.708385 0.803290
O O6 0.592827 0.730655 0.815705
O O7 0.568262 0.649334 0.725114
O O8 0.556049 0.670360 0.000000
O O9 0.195732 0.060576 0.500000
O O10 0.128264 0.076520 0.685088
O O11 0.210901 0.090136 0.766386
O O12 0.182681 0.000000 0.716223
O O13 0.827130 0.179180 0.793612
O O14 0.836900 0.242665 0.000000
O O15 0.045387 0.939330 0.753791
O O16 0.000000 0.000000 0.900659
O O17 0.000000 0.915978 0.000000
O O18 0.561447 0.403453 0.500000
O O19 0.724533 0.360460 0.000000
#
# Coordination Sequence:
#
# PCOD8266001 Si02
#       7
#    16  16  16  16   8  16  16
#     4   9  17  28  44  65  85 106 131 164 210 258
#     4  10  19  31  46  62  84 112 141 173 214 259
#     4  10  21  34  45  59  82 110 139 174 217 261
#     4   9  17  29  44  63  85 108 136 172 211 252
#     4  11  23  35  45  55  69  93 129 175 223 267
#     4  11  21  32  46  60  76 100 134 177 220 258
#     4  10  18  29  46  65  84 106 135 173 212 254
#
# _framework density 14.108736
#
# number of rings (size 3 to 8) (size 9 to 14) (size 15 to 20)
#    0.000    2.077    2.308    2.077    0.000    5.231 
#    0.000    0.000    0.000    0.000    0.000    0.000 
#    0.000    0.000    0.000    0.000    0.000    0.769 
#
# Total GULP energy -644378.677665 kJ/mol
# GULP energy per Si atom -12391.897647 kJ/mol
# Density = 1.407662 g / cm^3
# Si number density = 14.108736 Si / 1000 Ang^3
#
#
#
# Elastic Constant Matrix: (Units=GPa)
#
#
# Indices 1 2 3 4 5 6 
#
# 1 75.2091 46.7787 48.8145 0.0000 0.0000 0.0000
# 2 46.7787 53.2970 47.8115 0.0000 0.0000 0.0000
# 3 48.8145 47.8115 99.1107 0.0000 0.0000 0.0000
# 4 0.0000 0.0000 0.0000 21.8831 0.0000 0.0000
# 5 0.0000 0.0000 0.0000 0.0000 19.4067 0.0000
# 6 0.0000 0.0000 0.0000 0.0000 0.0000 23.2228
#
#
#
# Elastic Compliance Matrix: (Units=1/GPa)
#
#
# Indices 1 2 3 4 5 6 
#
# 1 0.030015 -0.023063 -0.003657 0.000000 0.000000 0.000000
# 2 -0.023063 0.050798 -0.013146 0.000000 0.000000 0.000000
# 3 -0.003657 -0.013146 0.018233 0.000000 0.000000 0.000000
# 4 0.000000 0.000000 0.000000 0.045697 0.000000 0.000000
# 5 0.000000 0.000000 0.000000 0.000000 0.051528 0.000000
# 6 0.000000 0.000000 0.000000 0.000000 0.000000 0.043061
#
#
# Mechanical properties :
#
#
# Convention : Reuss Voigt Hill
#
# Bulk Modulus (GPa) = 51.77912 57.15845 54.46878
# Shear Modulus (GPa) = 15.36079 18.51667 16.93873
#
# Velocity S-wave (km/s) = 3.30319 3.62667 3.46870
# Velocity P-wave (km/s) = 7.16434 7.62481 7.39816
#
# Compressibility (1/GPa) = 0.01931281
#
# Stress axis : x y z
#
# Youngs Moduli (GPa) = 33.31681 19.68566 54.84609
#
# Poissons Ratio (x) = 0.45401 0.20059
# Poissons Ratio (y) = 0.76839 0.72102
# Poissons Ratio (z) = 0.12185 0.25879
#
# Static dielectric constant tensor:
#      x y z
#    x 2.796520 0.000000 0.000000 
#    y 0.000000 2.565170 0.000000 
#    z 0.000000 0.000000 2.967660 
# 
# 
# High freq. dielectric constant tensor:
#      x y z
#    x 1.516510 0.000000 0.000000 
#    y 0.000000 1.498540 0.000000 
#    z 0.000000 0.000000 1.557370 
# 
# From -- ./inp_files/16989.got.cif
#   From: 2010.03.12/outbox.cif.g09.slc.cpg/sg65_9_cif.got.tgz:16989.got - 2010.04.10 20:52:16.
