data_PCOD8266082
_publ_section_title
;
Structure prediction by ZEFSAII (Michael W. Deem and Ramdas Pophale) SiO2 
 PCOD8266082
Probable space group: C M M M
;
_chemical_formula_sum "Si O2"
_cell_formula_units_Z 96
_cell_length_a 21.703801
_cell_length_b 20.359557
_cell_length_c 12.400381
_cell_angle_alpha 90.000000
_cell_angle_beta 90.000000
_cell_angle_gamma 90.000000
_cell_volume 5479.477549
_symmetry_space_group_name_H-M "C M M M"
_symmetry_group_IT_number 65
_symmetry_cell_setting 'orthorhombic'
loop_
_space_group_symop_operation_xyz
x,y,z
-x,-y,z
x,-y,-z
-x,y,-z
-x,-y,-z
x,y,-z
-x,y,z
x,-y,z
1/2+x,1/2+y,z
1/2-x,1/2-y,z
1/2+x,1/2-y,-z
1/2-x,1/2+y,-z
1/2-x,1/2-y,-z
1/2+x,1/2+y,-z
1/2-x,1/2+y,z
1/2+x,1/2-y,z
loop_
_atom_site_type_symbol
_atom_site_label
_atom_site_fract_x
_atom_site_fract_y
_atom_site_fract_z
Si Si1 0.250000 0.750000 0.730897
Si Si2 0.930126 0.635486 0.768251
Si Si3 0.780673 0.500000 0.246925
Si Si4 0.132608 0.754551 0.124589
Si Si5 0.067139 0.884929 0.872869
Si Si6 0.685504 0.871508 0.373359
Si Si7 0.152895 0.000000 0.871594
Si Si8 0.597094 0.000000 0.873292
O O1 0.193464 0.768435 0.807217
O O2 0.270319 0.810700 0.656303
O O3 0.900841 0.685435 0.854810
O O4 0.885469 0.637855 0.664238
O O5 0.933856 0.563870 0.821150
O O6 0.000000 0.655796 0.735382
O O7 0.786086 0.563919 0.320390
O O8 0.717225 0.500000 0.186003
O O9 0.830589 0.500000 0.151656
O O10 0.085276 0.811234 0.158193
O O11 0.151682 0.758345 0.000000
O O12 0.000000 0.899370 0.821875
O O13 0.116472 0.936480 0.828340
O O14 0.063371 0.893856 0.000000
O O15 0.684506 0.880858 0.500000
O O16 0.162327 0.000000 0.000000
O O17 0.585015 0.000000 0.000000
#
# Coordination Sequence:
#
# PCOD8266082 Si02
#       8
#     8  16   8  16  16  16   8   8
#     4  10  20  34  52  76 100 126 168 206 246 300
#     4  10  21  34  50  74  99 129 169 203 239 292
#     4  10  20  34  51  74  98 123 163 203 248 304
#     4  10  19  31  49  73 105 138 163 196 239 289
#     4   9  17  28  43  66  98 136 169 192 224 274
#     4  10  21  37  55  72  95 126 162 212 259 293
#     4  10  18  29  48  72 101 132 160 197 241 291
#     4  10  20  33  49  70 101 135 161 193 237 292
#
# _framework density 17.519918000000001
#
# number of rings (size 3 to 8) (size 9 to 14) (size 15 to 20)
#    0.000    2.167    0.000    3.500    0.000    3.667 
#    0.000    5.000    0.000    3.000    0.000    0.000 
#    0.000   25.333    0.000    0.000    0.000    0.000 
#
# Total GULP energy -595145.573513 kJ/mol
# GULP energy per Si atom -12398.866115 kJ/mol
# Density = 1.748004 g / cm^3
# Si number density = 17.519918 Si / 1000 Ang^3
#
#
#
# Elastic Constant Matrix: (Units=GPa)
#
#
# Indices 1 2 3 4 5 6 
#
# 1 140.3640 35.6737 40.2275 0.0000 0.0000 0.0000
# 2 35.6737 95.2373 25.6723 0.0000 0.0000 0.0000
# 3 40.2275 25.6723 69.6663 0.0000 0.0000 0.0000
# 4 0.0000 0.0000 0.0000 20.2195 0.0000 0.0000
# 5 0.0000 0.0000 0.0000 0.0000 14.3292 0.0000
# 6 0.0000 0.0000 0.0000 0.0000 0.0000 14.1530
#
#
#
# Elastic Compliance Matrix: (Units=1/GPa)
#
#
# Indices 1 2 3 4 5 6 
#
# 1 0.008923 -0.002169 -0.004353 0.000000 0.000000 0.000000
# 2 -0.002169 0.012185 -0.003238 0.000000 0.000000 0.000000
# 3 -0.004353 -0.003238 0.018061 0.000000 0.000000 0.000000
# 4 0.000000 0.000000 0.000000 0.049457 0.000000 0.000000
# 5 0.000000 0.000000 0.000000 0.000000 0.069788 0.000000
# 6 0.000000 0.000000 0.000000 0.000000 0.000000 0.070656
#
#
# Mechanical properties :
#
#
# Convention : Reuss Voigt Hill
#
# Bulk Modulus (GPa) = 50.89238 56.49049 53.69143
# Shear Modulus (GPa) = 19.59701 23.31994 21.45848
#
# Velocity S-wave (km/s) = 3.34811 3.65232 3.50352
# Velocity P-wave (km/s) = 6.63761 7.07810 6.86139
#
# Compressibility (1/GPa) = 0.01964931
#
# Stress axis : x y z
#
# Youngs Moduli (GPa) = 112.06743 82.06574 55.36781
#
# Poissons Ratio (x) = 0.17800 0.24103
# Poissons Ratio (y) = 0.24307 0.17928
# Poissons Ratio (z) = 0.48786 0.26572
#
# Static dielectric constant tensor:
#      x y z
#    x 3.439280 0.000000 0.000000 
#    y 0.000000 3.447970 0.000000 
#    z 0.000000 0.000000 2.916610 
# 
# 
# High freq. dielectric constant tensor:
#      x y z
#    x 1.691430 0.000000 0.000000 
#    y 0.000000 1.695680 0.000000 
#    z 0.000000 0.000000 1.640540 
# 
# From -- ./inp_files/29145.got.cif
#   From: 2010.03.12/outbox.cif.g09.slc.cpg/sg65_15_cif.got.tgz:29145.got - 2010.04.10 20:52:16.
