data_PCOD8266529
_publ_section_title
;
Structure prediction by ZEFSAII (Michael W. Deem and Ramdas Pophale) SiO2 
 PCOD8266529
Probable space group: C M M M
;
_chemical_formula_sum "Si O2"
_cell_formula_units_Z 128
_cell_length_a 22.114733
_cell_length_b 27.176611
_cell_length_c 12.861009
_cell_angle_alpha 90.000000
_cell_angle_beta 90.000000
_cell_angle_gamma 90.000000
_cell_volume 7729.511373
_symmetry_space_group_name_H-M "C M M M"
_symmetry_group_IT_number 65
_symmetry_cell_setting 'orthorhombic'
loop_
_space_group_symop_operation_xyz
x,y,z
-x,-y,z
x,-y,-z
-x,y,-z
-x,-y,-z
x,y,-z
-x,y,z
x,-y,z
1/2+x,1/2+y,z
1/2-x,1/2-y,z
1/2+x,1/2-y,-z
1/2-x,1/2+y,-z
1/2-x,1/2-y,-z
1/2+x,1/2+y,-z
1/2-x,1/2+y,z
1/2+x,1/2-y,z
loop_
_atom_site_type_symbol
_atom_site_label
_atom_site_fract_x
_atom_site_fract_y
_atom_site_fract_z
Si Si1 0.570144 0.443319 0.121937
Si Si2 0.748677 0.357303 0.623159
Si Si3 0.067961 0.617434 0.379813
Si Si4 0.325567 0.947202 0.379007
Si Si5 0.932304 0.791050 0.615198
Si Si6 0.179634 0.238247 0.882890
Si Si7 0.143057 0.704569 0.692718
Si Si8 0.365407 0.645872 0.233530
O O1 0.500000 0.432431 0.148815
O O2 0.585889 0.500000 0.152052
O O3 0.614094 0.406151 0.184469
O O4 0.581328 0.435037 0.000000
O O5 0.739535 0.357994 0.500000
O O6 0.782521 0.405538 0.667846
O O7 0.789777 0.310097 0.653121
O O8 0.684395 0.358876 0.676904
O O9 0.073056 0.634397 0.500000
O O10 0.104334 0.567016 0.361856
O O11 0.096785 0.659554 0.309218
O O12 0.000000 0.607579 0.344501
O O13 0.311217 0.951285 0.500000
O O14 0.313669 0.000000 0.324640
O O15 0.926379 0.814879 0.500000
O O16 0.882349 0.748119 0.620814
O O17 0.922606 0.831065 0.706157
O O18 0.000000 0.769363 0.630534
O O19 0.250000 0.250000 0.870028
O O20 0.144098 0.276621 0.810959
O O21 0.162383 0.182002 0.853858
O O22 0.157944 0.247341 0.000000
#
# Coordination Sequence:
#
# PCOD8266529 Si02
#       8
#    16  16  16  16  16  16  16  16
#     4   9  19  37  59  79  97 120 158 211 262 298
#     4  10  19  30  45  69  98 132 166 195 231 285
#     4   9  16  26  44  68  94 125 161 200 238 278
#     4   8  15  27  41  60  91 127 161 197 233 270
#     4  10  20  31  46  69  98 131 166 205 241 278
#     4  10  20  34  48  68  96 125 157 192 237 288
#     4  10  18  31  48  67  92 130 166 198 238 284
#     4  11  20  32  51  75  99 129 157 196 239 299
#
# _framework density 16.559906999999999
#
# number of rings (size 3 to 8) (size 9 to 14) (size 15 to 20)
#    0.000    2.375    1.250    3.750    0.000    1.750 
#    0.000    3.125    0.000    8.625    0.000    4.375 
#    0.000    4.500    0.000    4.500    0.000    0.500 
#
# Total GULP energy -793194.428067 kJ/mol
# GULP energy per Si atom -12393.662939 kJ/mol
# Density = 1.652222 g / cm^3
# Si number density = 16.559907 Si / 1000 Ang^3
#
#
#
# Elastic Constant Matrix: (Units=GPa)
#
#
# Indices 1 2 3 4 5 6 
#
# 1 85.3466 38.0151 38.6971 0.0000 0.0000 0.0000
# 2 38.0151 103.4311 41.5342 0.0000 0.0000 0.0000
# 3 38.6971 41.5342 83.8396 0.0000 0.0000 0.0000
# 4 0.0000 0.0000 0.0000 19.8057 0.0000 0.0000
# 5 0.0000 0.0000 0.0000 0.0000 18.6583 0.0000
# 6 0.0000 0.0000 0.0000 0.0000 0.0000 21.9844
#
#
#
# Elastic Compliance Matrix: (Units=1/GPa)
#
#
# Indices 1 2 3 4 5 6 
#
# 1 0.015823 -0.003599 -0.005520 0.000000 0.000000 0.000000
# 2 -0.003599 0.012888 -0.004724 0.000000 0.000000 0.000000
# 3 -0.005520 -0.004724 0.016816 0.000000 0.000000 0.000000
# 4 0.000000 0.000000 0.000000 0.050490 0.000000 0.000000
# 5 0.000000 0.000000 0.000000 0.000000 0.053595 0.000000
# 6 0.000000 0.000000 0.000000 0.000000 0.000000 0.045487
#
#
# Mechanical properties :
#
#
# Convention : Reuss Voigt Hill
#
# Bulk Modulus (GPa) = 56.05124 56.56777 56.30951
# Shear Modulus (GPa) = 21.85971 22.38109 22.12040
#
# Velocity S-wave (km/s) = 3.63717 3.68029 3.65880
# Velocity P-wave (km/s) = 7.18051 7.23139 7.20600
#
# Compressibility (1/GPa) = 0.01784082
#
# Stress axis : x y z
#
# Youngs Moduli (GPa) = 63.19953 77.59299 59.46867
#
# Poissons Ratio (x) = 0.27924 0.32829
# Poissons Ratio (y) = 0.22744 0.28090
# Poissons Ratio (z) = 0.34889 0.36651
#
# Static dielectric constant tensor:
#      x y z
#    x 3.160340 0.000000 0.000000 
#    y 0.000000 3.305250 0.000000 
#    z 0.000000 0.000000 2.934020 
# 
# 
# High freq. dielectric constant tensor:
#      x y z
#    x 1.642230 0.000000 0.000000 
#    y 0.000000 1.634860 0.000000 
#    z 0.000000 0.000000 1.610740 
# 
# From -- ./inp_files/31459.got.cif
#   From: 2010.03.12/outbox.cif.g09.slc.cpg/sg65_16_cif.got.tgz:31459.got - 2010.04.10 20:52:16.
