data_PCOD8266567
_publ_section_title
;
Structure prediction by ZEFSAII (Michael W. Deem and Ramdas Pophale) SiO2 
 PCOD8266567
Probable space group: C M M M
;
_chemical_formula_sum "Si O2"
_cell_formula_units_Z 80
_cell_length_a 14.357031
_cell_length_b 19.281116
_cell_length_c 15.791740
_cell_angle_alpha 90.000000
_cell_angle_beta 90.000000
_cell_angle_gamma 90.000000
_cell_volume 4371.462836
_symmetry_space_group_name_H-M "C M M M"
_symmetry_group_IT_number 65
_symmetry_cell_setting 'orthorhombic'
loop_
_space_group_symop_operation_xyz
x,y,z
-x,-y,z
x,-y,-z
-x,y,-z
-x,-y,-z
x,y,-z
-x,y,z
x,-y,z
1/2+x,1/2+y,z
1/2-x,1/2-y,z
1/2+x,1/2-y,-z
1/2-x,1/2+y,-z
1/2-x,1/2-y,-z
1/2+x,1/2+y,-z
1/2-x,1/2+y,z
1/2+x,1/2-y,z
loop_
_atom_site_type_symbol
_atom_site_label
_atom_site_fract_x
_atom_site_fract_y
_atom_site_fract_z
Si Si1 0.604191 0.920193 0.364656
Si Si2 0.608573 0.308828 0.752407
Si Si3 0.771603 0.830283 0.907239
Si Si4 0.102797 0.345894 0.196763
Si Si5 0.224110 0.829165 0.408060
O O1 0.500000 0.901456 0.399006
O O2 0.605841 0.907413 0.264149
O O3 0.681840 0.874195 0.409351
O O4 0.627166 0.000000 0.382883
O O5 0.500000 0.324521 0.746186
O O6 0.647226 0.344057 0.838667
O O7 0.630339 0.226256 0.755299
O O8 0.656453 0.345728 0.671099
O O9 0.750000 0.750000 0.916097
O O10 0.675583 0.865724 0.876347
O O11 0.800115 0.860165 0.000000
O O12 0.000000 0.338026 0.156015
O O13 0.175172 0.842787 0.500000
O O14 0.250000 0.750000 0.400445
#
# Coordination Sequence:
#
# PCOD8266567 Si02
#       5
#    16  16  16  16  16
#     4  10  20  35  56  81 111 145 178 217 270 329
#     4  10  18  31  50  73 105 138 173 221 268 310
#     4   9  16  27  46  74 106 137 172 216 269 321
#     4   9  16  29  49  74 107 140 172 212 263 321
#     4  11  21  34  53  77 106 140 180 223 267 317
#
# _framework density 18.300509999999999
#
# number of rings (size 3 to 8) (size 9 to 14) (size 15 to 20)
#    0.000    2.200    4.000    0.600    0.000    2.000 
#    0.000    7.000    0.000    1.200    0.000    4.200 
#    0.000    1.600    0.000    0.000    0.000    0.000 
#
# Total GULP energy -495681.100063 kJ/mol
# GULP energy per Si atom -12392.027502 kJ/mol
# Density = 1.825886 g / cm^3
# Si number density = 18.300510 Si / 1000 Ang^3
#
#
#
# Elastic Constant Matrix: (Units=GPa)
#
#
# Indices 1 2 3 4 5 6 
#
# 1 117.4368 36.0642 69.6535 0.0000 0.0000 0.0000
# 2 36.0642 49.4236 16.7000 0.0000 0.0000 0.0000
# 3 69.6535 16.7000 159.1365 0.0000 0.0000 0.0000
# 4 0.0000 0.0000 0.0000 57.5444 0.0000 0.0000
# 5 0.0000 0.0000 0.0000 0.0000 12.6561 0.0000
# 6 0.0000 0.0000 0.0000 0.0000 0.0000 22.1260
#
#
#
# Elastic Compliance Matrix: (Units=1/GPa)
#
#
# Indices 1 2 3 4 5 6 
#
# 1 0.014367 -0.008666 -0.005379 0.000000 0.000000 0.000000
# 2 -0.008666 0.026204 0.001043 0.000000 0.000000 0.000000
# 3 -0.005379 0.001043 0.008529 0.000000 0.000000 0.000000
# 4 0.000000 0.000000 0.000000 0.017378 0.000000 0.000000
# 5 0.000000 0.000000 0.000000 0.000000 0.079013 0.000000
# 6 0.000000 0.000000 0.000000 0.000000 0.000000 0.045196
#
#
# Mechanical properties :
#
#
# Convention : Reuss Voigt Hill
#
# Bulk Modulus (GPa) = 43.29663 63.42582 53.36123
# Shear Modulus (GPa) = 22.28279 32.03725 27.16002
#
# Velocity S-wave (km/s) = 3.49320 4.18858 3.85660
# Velocity P-wave (km/s) = 6.32298 7.62401 7.00377
#
# Compressibility (1/GPa) = 0.02309649
#
# Stress axis : x y z
#
# Youngs Moduli (GPa) = 69.60524 38.16182 117.25032
#
# Poissons Ratio (x) = 0.33070 0.63067
# Poissons Ratio (y) = 0.60319 -0.12230
# Poissons Ratio (z) = 0.37440 -0.03981
#
# Static dielectric constant tensor:
#      x y z
#    x 3.467080 0.000000 0.000000 
#    y 0.000000 2.916300 0.000000 
#    z 0.000000 0.000000 3.697610 
# 
# 
# High freq. dielectric constant tensor:
#      x y z
#    x 1.709170 0.000000 0.000000 
#    y 0.000000 1.649710 0.000000 
#    z 0.000000 0.000000 1.715380 
# 
# From -- ./inp_files/43900.got.cif
#   From: 2010.03.12/outbox.cif.g09.slc.cpg/sg65_22_cif.got.tgz:43900.got - 2010.04.10 20:52:16.
