data_PCOD8266767
_publ_section_title
;
Structure prediction by ZEFSAII (Michael W. Deem and Ramdas Pophale) SiO2 
 PCOD8266767
Probable space group: C M M M
;
_chemical_formula_sum "Si O2"
_cell_formula_units_Z 120
_cell_length_a 28.479226
_cell_length_b 8.577578
_cell_length_c 28.363485
_cell_angle_alpha 90.000000
_cell_angle_beta 90.000000
_cell_angle_gamma 90.000000
_cell_volume 6928.711034
_symmetry_space_group_name_H-M "C M M M"
_symmetry_group_IT_number 65
_symmetry_cell_setting 'orthorhombic'
loop_
_space_group_symop_operation_xyz
x,y,z
-x,-y,z
x,-y,-z
-x,y,-z
-x,-y,-z
x,y,-z
-x,y,z
x,-y,z
1/2+x,1/2+y,z
1/2-x,1/2-y,z
1/2+x,1/2-y,-z
1/2-x,1/2+y,-z
1/2-x,1/2-y,-z
1/2+x,1/2+y,-z
1/2-x,1/2+y,z
1/2+x,1/2-y,z
loop_
_atom_site_type_symbol
_atom_site_label
_atom_site_fract_x
_atom_site_fract_y
_atom_site_fract_z
Si Si1 0.197854 0.815986 0.500000
Si Si2 0.198526 0.317887 0.404467
Si Si3 0.552823 0.819693 0.826960
Si Si4 0.947744 0.821730 0.727504
Si Si5 0.198551 0.316569 0.227197
Si Si6 0.299473 0.316525 0.947735
Si Si7 0.352315 0.319183 0.682474
Si Si8 0.143272 0.818569 0.858783
O O1 0.250000 0.750000 0.500000
O O2 0.174422 0.753608 0.548250
O O3 0.197062 0.000000 0.500000
O O4 0.204181 0.500000 0.411574
O O5 0.250000 0.250000 0.393882
O O6 0.164212 0.282416 0.361428
O O7 0.500000 0.771705 0.841152
O O8 0.561288 0.789800 0.771683
O O9 0.587745 0.715545 0.858189
O O10 0.562489 0.000000 0.837089
O O11 0.908049 0.786329 0.688589
O O12 0.000000 0.792499 0.706070
O O13 0.942763 0.000000 0.745241
O O14 0.200550 0.500000 0.237366
O O15 0.250000 0.250000 0.218238
O O16 0.175750 0.229247 0.271186
O O17 0.167979 0.284913 0.180922
O O18 0.294737 0.500000 0.949521
O O19 0.250000 0.250000 0.930309
O O20 0.338665 0.265399 0.910159
O O21 0.312603 0.251717 0.000000
O O22 0.342157 0.500000 0.672214
O O23 0.153552 0.000000 0.849049
#
# Coordination Sequence:
#
# PCOD8266767 Si02
#       8
#     8  16  16  16  16  16  16  16
#     4  10  18  32  52  74  99 130 173 218 260 301
#     4  11  21  34  51  73 103 138 176 214 258 303
#     4  10  20  33  51  75 102 131 167 210 253 299
#     4   9  18  33  53  74  99 132 170 211 253 301
#     4  12  24  36  49  69 102 138 172 206 247 299
#     4   9  19  35  54  76 101 129 165 208 252 299
#     4  11  21  34  51  74 104 136 172 209 253 304
#     4  11  21  34  53  76 101 132 168 206 252 304
#
# _framework density 17.319237999999999
#
# number of rings (size 3 to 8) (size 9 to 14) (size 15 to 20)
#    0.000    1.600    1.333    5.800    0.000    3.467 
#    0.000    0.000    0.000    0.400    0.000    3.267 
#    0.000    3.733    0.000    0.000    0.000    0.000 
#
# Total GULP energy -744046.179311 kJ/mol
# GULP energy per Si atom -12400.769655 kJ/mol
# Density = 1.727982 g / cm^3
# Si number density = 17.319238 Si / 1000 Ang^3
#
#
#
# Elastic Constant Matrix: (Units=GPa)
#
#
# Indices 1 2 3 4 5 6 
#
# 1 107.1093 26.0355 52.4719 0.0000 0.0000 0.0000
# 2 26.0355 74.2280 24.6769 0.0000 0.0000 0.0000
# 3 52.4719 24.6769 106.5907 0.0000 0.0000 0.0000
# 4 0.0000 0.0000 0.0000 20.9629 0.0000 0.0000
# 5 0.0000 0.0000 0.0000 0.0000 41.5316 0.0000
# 6 0.0000 0.0000 0.0000 0.0000 0.0000 24.3133
#
#
#
# Elastic Compliance Matrix: (Units=1/GPa)
#
#
# Indices 1 2 3 4 5 6 
#
# 1 0.012745 -0.002583 -0.005676 0.000000 0.000000 0.000000
# 2 -0.002583 0.015119 -0.002229 0.000000 0.000000 0.000000
# 3 -0.005676 -0.002229 0.012692 0.000000 0.000000 0.000000
# 4 0.000000 0.000000 0.000000 0.047703 0.000000 0.000000
# 5 0.000000 0.000000 0.000000 0.000000 0.024078 0.000000
# 6 0.000000 0.000000 0.000000 0.000000 0.000000 0.041130
#
#
# Mechanical properties :
#
#
# Convention : Reuss Voigt Hill
#
# Bulk Modulus (GPa) = 51.07236 54.92185 52.99710
# Shear Modulus (GPa) = 27.62914 29.67782 28.65348
#
# Velocity S-wave (km/s) = 3.99844 4.14403 4.07188
# Velocity P-wave (km/s) = 7.13228 7.39443 7.26454
#
# Compressibility (1/GPa) = 0.01958006
#
# Stress axis : x y z
#
# Youngs Moduli (GPa) = 78.46367 66.14212 78.79173
#
# Poissons Ratio (x) = 0.17086 0.44721
# Poissons Ratio (y) = 0.20270 0.17559
# Poissons Ratio (z) = 0.44535 0.14740
#
# Static dielectric constant tensor:
#      x y z
#    x 3.362610 0.000000 0.000000 
#    y 0.000000 3.298520 0.000000 
#    z 0.000000 0.000000 3.514390 
# 
# 
# High freq. dielectric constant tensor:
#      x y z
#    x 1.658400 0.000000 0.000000 
#    y 0.000000 1.682060 0.000000 
#    z 0.000000 0.000000 1.653560 
# 
# From -- ./inp_files/76151.got.cif
#   From: 2010.03.12/outbox.cif.g09.slc.cpg/sg65_39_cif.got.tgz:76151.got - 2010.04.10 20:52:16.
