data_PCOD8266325
_publ_section_title
;
Structure prediction by ZEFSAII (Michael W. Deem and Ramdas Pophale) SiO2 
 PCOD8266325
Probable space group: C M M M
;
_chemical_formula_sum "Si O2"
_cell_formula_units_Z 104
_cell_length_a 9.100078
_cell_length_b 28.134807
_cell_length_c 21.370389
_cell_angle_alpha 90.000000
_cell_angle_beta 90.000000
_cell_angle_gamma 90.000000
_cell_volume 5471.438005
_symmetry_space_group_name_H-M "C M M M"
_symmetry_group_IT_number 65
_symmetry_cell_setting 'orthorhombic'
loop_
_space_group_symop_operation_xyz
x,y,z
-x,-y,z
x,-y,-z
-x,y,-z
-x,-y,-z
x,y,-z
-x,y,z
x,-y,z
1/2+x,1/2+y,z
1/2-x,1/2-y,z
1/2+x,1/2-y,-z
1/2-x,1/2+y,-z
1/2-x,1/2-y,-z
1/2+x,1/2+y,-z
1/2-x,1/2+y,z
1/2+x,1/2-y,z
loop_
_atom_site_type_symbol
_atom_site_label
_atom_site_fract_x
_atom_site_fract_y
_atom_site_fract_z
Si Si1 0.672305 0.447472 0.762594
Si Si2 0.659430 0.792360 0.252168
Si Si3 0.327142 0.298739 0.429339
Si Si4 0.829394 0.134320 0.319667
Si Si5 0.336239 0.794823 0.892610
Si Si6 0.824017 0.105725 0.112410
Si Si7 0.832843 0.443995 0.000000
O O1 0.500000 0.453764 0.771215
O O2 0.746585 0.500000 0.761309
O O3 0.705054 0.421281 0.695192
O O4 0.729259 0.415942 0.820960
O O5 0.500000 0.794823 0.284713
O O6 0.750000 0.750000 0.285088
O O7 0.747055 0.840493 0.262701
O O8 0.641431 0.782668 0.179571
O O9 0.279687 0.311873 0.500000
O O10 0.500000 0.290475 0.424510
O O11 0.250000 0.250000 0.407541
O O12 0.276494 0.343880 0.386288
O O13 0.000000 0.144795 0.311142
O O14 0.500000 0.800488 0.922785
O O15 0.250000 0.750000 0.923817
O O16 0.241527 0.842251 0.900672
O O17 0.000000 0.108562 0.107433
O O18 0.757753 0.071406 0.060579
O O19 0.840305 0.500000 0.000000
O O20 0.000000 0.423211 0.000000
#
# Coordination Sequence:
#
# PCOD8266325 Si02
#       7
#    16  16  16  16  16  16   8
#     4   9  18  32  52  78 105 134 172 221 273 322
#     4  10  19  29  45  71 105 137 170 208 252 307
#     4   9  18  31  47  70 102 140 178 217 262 315
#     4  10  18  30  49  72 101 136 176 219 266 316
#     4  10  20  34  53  79 112 146 178 213 261 321
#     4  11  21  37  61  85 111 142 182 227 273 327
#     4  11  25  43  62  85 114 147 185 229 277 327
#
# _framework density 19.007801000000001
#
# number of rings (size 3 to 8) (size 9 to 14) (size 15 to 20)
#    0.000    2.077    1.538    2.538    0.000    4.308 
#    0.000    0.385    0.000    1.846    0.000    3.231 
#    0.000    0.000    0.000    5.231    0.000    5.538 
#
# Total GULP energy -644285.506188 kJ/mol
# GULP energy per Si atom -12390.105888 kJ/mol
# Density = 1.896454 g / cm^3
# Si number density = 19.007801 Si / 1000 Ang^3
#
#
#
# Elastic Constant Matrix: (Units=GPa)
#
#
# Indices 1 2 3 4 5 6 
#
# 1 76.4394 42.9759 25.7135 0.0000 0.0000 0.0000
# 2 42.9759 137.5393 45.8871 0.0000 0.0000 0.0000
# 3 25.7135 45.8871 85.3958 0.0000 0.0000 0.0000
# 4 0.0000 0.0000 0.0000 15.8529 0.0000 0.0000
# 5 0.0000 0.0000 0.0000 0.0000 17.5132 0.0000
# 6 0.0000 0.0000 0.0000 0.0000 0.0000 25.1158
#
#
#
# Elastic Compliance Matrix: (Units=1/GPa)
#
#
# Indices 1 2 3 4 5 6 
#
# 1 0.016349 -0.004223 -0.002654 0.000000 0.000000 0.000000
# 2 -0.004223 0.009950 -0.004075 0.000000 0.000000 0.000000
# 3 -0.002654 -0.004075 0.014699 0.000000 0.000000 0.000000
# 4 0.000000 0.000000 0.000000 0.063080 0.000000 0.000000
# 5 0.000000 0.000000 0.000000 0.000000 0.057100 0.000000
# 6 0.000000 0.000000 0.000000 0.000000 0.000000 0.039816
#
#
# Mechanical properties :
#
#
# Convention : Reuss Voigt Hill
#
# Bulk Modulus (GPa) = 52.37093 58.72528 55.54810
# Shear Modulus (GPa) = 21.80919 24.01625 22.91272
#
# Velocity S-wave (km/s) = 3.39098 3.55842 3.47571
# Velocity P-wave (km/s) = 6.55315 6.91705 6.73756
#
# Compressibility (1/GPa) = 0.01909456
#
# Stress axis : x y z
#
# Youngs Moduli (GPa) = 61.16472 100.50538 68.03297
#
# Poissons Ratio (x) = 0.42446 0.18053
# Poissons Ratio (y) = 0.25831 0.27722
# Poissons Ratio (z) = 0.16231 0.40954
#
# Static dielectric constant tensor:
#      x y z
#    x 3.633820 0.000000 0.000000 
#    y 0.000000 3.776870 0.000000 
#    z 0.000000 0.000000 3.461030 
# 
# 
# High freq. dielectric constant tensor:
#      x y z
#    x 1.733050 0.000000 0.000000 
#    y 0.000000 1.735030 0.000000 
#    z 0.000000 0.000000 1.720300 
# 
# From -- ./inp_files/60431.got.cif
#   From: 2010.03.12/outbox.cif.g09.slc.cpg/sg65_31_cif.got.tgz:60431.got - 2010.04.10 20:52:16.
