data_PCOD8266220
_publ_section_title
;
Structure prediction by ZEFSAII (Michael W. Deem and Ramdas Pophale) SiO2 
 PCOD8266220
Probable space group: C M M M
;
_chemical_formula_sum "Si O2"
_cell_formula_units_Z 120
_cell_length_a 29.023215
_cell_length_b 15.377168
_cell_length_c 14.904371
_cell_angle_alpha 90.000000
_cell_angle_beta 90.000000
_cell_angle_gamma 90.000000
_cell_volume 6651.744064
_symmetry_space_group_name_H-M "C M M M"
_symmetry_group_IT_number 65
_symmetry_cell_setting 'orthorhombic'
loop_
_space_group_symop_operation_xyz
x,y,z
-x,-y,z
x,-y,-z
-x,y,-z
-x,-y,-z
x,y,-z
-x,y,z
x,-y,z
1/2+x,1/2+y,z
1/2-x,1/2-y,z
1/2+x,1/2-y,-z
1/2-x,1/2+y,-z
1/2-x,1/2-y,-z
1/2+x,1/2+y,-z
1/2-x,1/2+y,z
1/2+x,1/2-y,z
loop_
_atom_site_type_symbol
_atom_site_label
_atom_site_fract_x
_atom_site_fract_y
_atom_site_fract_z
Si Si1 0.197039 0.757090 0.105779
Si Si2 0.112525 0.901843 0.598358
Si Si3 0.862443 0.404709 0.105330
Si Si4 0.054712 0.597549 0.500000
Si Si5 0.552208 0.636725 0.100687
Si Si6 0.553416 0.760024 0.634859
Si Si7 0.551514 0.817560 0.830376
Si Si8 0.858407 0.096653 0.792275
O O1 0.250000 0.750000 0.133531
O O2 0.172873 0.668457 0.139186
O O3 0.174233 0.837637 0.155604
O O4 0.191014 0.772031 0.000000
O O5 0.138057 0.895984 0.500000
O O6 0.073181 0.829397 0.596551
O O7 0.144587 0.882820 0.685250
O O8 0.092054 0.000000 0.609586
O O9 0.843678 0.500000 0.133254
O O10 0.912831 0.393752 0.148835
O O11 0.868544 0.398040 0.000000
O O12 0.076640 0.500000 0.500000
O O13 0.072287 0.652804 0.414103
O O14 0.000000 0.587614 0.500000
O O15 0.500000 0.609659 0.130421
O O16 0.555436 0.741700 0.095724
O O17 0.588958 0.598960 0.170990
O O18 0.562600 0.602201 0.000000
O O19 0.500000 0.753097 0.615333
O O20 0.565440 0.769587 0.738685
O O21 0.500000 0.857843 0.825856
O O22 0.839077 0.000000 0.809808
#
# Coordination Sequence:
#
# PCOD8266220 Si02
#       8
#    16  16  16   8  16  16  16  16
#     4  10  21  38  59  82 110 141 175 220 272 326
#     4  10  20  33  51  76 105 138 175 218 269 324
#     4  10  20  34  52  74 102 135 173 218 265 312
#     4   9  18  30  43  61  87 121 167 226 282 321
#     4  10  19  31  49  73 106 148 188 224 263 312
#     4  10  18  30  47  66  95 135 179 226 271 316
#     4  10  19  31  49  72 101 141 184 221 259 313
#     4  11  22  36  56  82 112 145 182 224 271 327
#
# _framework density 18.040382000000001
#
# number of rings (size 3 to 8) (size 9 to 14) (size 15 to 20)
#    0.000    1.933    3.333    0.800    0.000    3.733 
#    0.000    6.000    0.000    0.400    0.000    0.000 
#    0.000    0.000    0.000    0.000    0.000    0.000 
#
# Total GULP energy -743541.355058 kJ/mol
# GULP energy per Si atom -12392.355918 kJ/mol
# Density = 1.799932 g / cm^3
# Si number density = 18.040382 Si / 1000 Ang^3
#
#
#
# Elastic Constant Matrix: (Units=GPa)
#
#
# Indices 1 2 3 4 5 6 
#
# 1 83.1718 52.3862 34.7536 0.0000 0.0000 0.0000
# 2 52.3862 139.7887 40.5503 0.0000 0.0000 0.0000
# 3 34.7536 40.5503 79.8695 0.0000 0.0000 0.0000
# 4 0.0000 0.0000 0.0000 23.4590 0.0000 0.0000
# 5 0.0000 0.0000 0.0000 0.0000 13.8435 0.0000
# 6 0.0000 0.0000 0.0000 0.0000 0.0000 7.4086
#
#
#
# Elastic Compliance Matrix: (Units=1/GPa)
#
#
# Indices 1 2 3 4 5 6 
#
# 1 0.017264 -0.005032 -0.004957 0.000000 0.000000 0.000000
# 2 -0.005032 0.009856 -0.002814 0.000000 0.000000 0.000000
# 3 -0.004957 -0.002814 0.016106 0.000000 0.000000 0.000000
# 4 0.000000 0.000000 0.000000 0.042628 0.000000 0.000000
# 5 0.000000 0.000000 0.000000 0.000000 0.072236 0.000000
# 6 0.000000 0.000000 0.000000 0.000000 0.000000 0.134978
#
#
# Mechanical properties :
#
#
# Convention : Reuss Voigt Hill
#
# Bulk Modulus (GPa) = 56.75649 62.02334 59.38992
# Shear Modulus (GPa) = 15.40603 20.61820 18.01212
#
# Velocity S-wave (km/s) = 2.92546 3.38434 3.16323
# Velocity P-wave (km/s) = 6.55287 7.05171 6.80686
#
# Compressibility (1/GPa) = 0.01761913
#
# Stress axis : x y z
#
# Youngs Moduli (GPa) = 57.92389 101.46424 62.08694
#
# Poissons Ratio (x) = 0.51053 0.30779
# Poissons Ratio (y) = 0.29145 0.17474
# Poissons Ratio (z) = 0.28716 0.28556
#
# Static dielectric constant tensor:
#      x y z
#    x 2.994570 0.000000 0.000000 
#    y 0.000000 3.510930 0.000000 
#    z 0.000000 0.000000 3.544300 
# 
# 
# High freq. dielectric constant tensor:
#      x y z
#    x 1.646530 0.000000 0.000000 
#    y 0.000000 1.708400 0.000000 
#    z 0.000000 0.000000 1.702040 
# 
# From -- ./inp_files/48082.got.cif
#   From: 2010.03.12/outbox.cif.g09.slc.cpg/sg65_25_cif.got.tgz:48082.got - 2010.04.10 20:52:16.
