data_PCOD8266795
_publ_section_title
;
Structure prediction by ZEFSAII (Michael W. Deem and Ramdas Pophale) SiO2 
 PCOD8266795
Probable space group: C M M M
;
_chemical_formula_sum "Si O2"
_cell_formula_units_Z 64
_cell_length_a 19.096385
_cell_length_b 8.670818
_cell_length_c 20.597728
_cell_angle_alpha 90.000000
_cell_angle_beta 90.000000
_cell_angle_gamma 90.000000
_cell_volume 3410.598142
_symmetry_space_group_name_H-M "C M M M"
_symmetry_group_IT_number 65
_symmetry_cell_setting 'orthorhombic'
loop_
_space_group_symop_operation_xyz
x,y,z
-x,-y,z
x,-y,-z
-x,y,-z
-x,-y,-z
x,y,-z
-x,y,z
x,-y,z
1/2+x,1/2+y,z
1/2-x,1/2-y,z
1/2+x,1/2-y,-z
1/2-x,1/2+y,-z
1/2-x,1/2-y,-z
1/2+x,1/2+y,-z
1/2-x,1/2+y,z
1/2+x,1/2-y,z
loop_
_atom_site_type_symbol
_atom_site_label
_atom_site_fract_x
_atom_site_fract_y
_atom_site_fract_z
Si Si1 0.172421 0.817299 0.000000
Si Si2 0.082127 0.823033 0.238567
Si Si3 0.326864 0.683531 0.500000
Si Si4 0.922460 0.817122 0.384219
Si Si5 0.173784 0.680283 0.869508
O O1 0.250000 0.750000 0.000000
O O2 0.137139 0.754768 0.933760
O O3 0.171377 0.000000 0.000000
O O4 0.101258 0.770180 0.311749
O O5 0.124066 0.711779 0.191144
O O6 0.000000 0.802761 0.226006
O O7 0.104675 0.000000 0.226692
O O8 0.323578 0.500000 0.500000
O O9 0.250000 0.750000 0.500000
O O10 0.367243 0.747245 0.563559
O O11 0.000000 0.749856 0.399331
O O12 0.926794 0.000000 0.388775
O O13 0.182250 0.500000 0.880837
O O14 0.250000 0.750000 0.855655
#
# Coordination Sequence:
#
# PCOD8266795 Si02
#       5
#     8  16   8  16  16
#     4  10  18  32  53  76 103 134 171 211 255 305
#     4   9  18  34  54  76 103 134 170 213 261 310
#     4  10  19  31  49  75 105 132 164 208 256 300
#     4   8  15  30  53  75  95 128 173 212 246 296
#     4  11  21  34  53  77 105 136 173 213 255 304
#
# _framework density 18.765035999999998
#
# number of rings (size 3 to 8) (size 9 to 14) (size 15 to 20)
#    0.000    2.500    0.000    6.750    0.000    3.000 
#    0.000    4.375    0.000    6.750    0.000    0.000 
#    0.000    0.000    0.000    0.000    0.000    0.000 
#
# Total GULP energy -396703.483061 kJ/mol
# GULP energy per Si atom -12396.983846 kJ/mol
# Density = 1.872233 g / cm^3
# Si number density = 18.765036 Si / 1000 Ang^3
#
#
#
# Elastic Constant Matrix: (Units=GPa)
#
#
# Indices 1 2 3 4 5 6 
#
# 1 84.0199 31.1381 77.2241 0.0000 0.0000 0.0000
# 2 31.1381 97.7919 47.4672 0.0000 0.0000 0.0000
# 3 77.2241 47.4672 168.5578 0.0000 0.0000 0.0000
# 4 0.0000 0.0000 0.0000 23.6489 0.0000 0.0000
# 5 0.0000 0.0000 0.0000 0.0000 26.2534 0.0000
# 6 0.0000 0.0000 0.0000 0.0000 0.0000 26.3064
#
#
#
# Elastic Compliance Matrix: (Units=1/GPa)
#
#
# Indices 1 2 3 4 5 6 
#
# 1 0.021010 -0.002337 -0.008968 0.000000 0.000000 0.000000
# 2 -0.002337 0.012105 -0.002338 0.000000 0.000000 0.000000
# 3 -0.008968 -0.002338 0.010700 0.000000 0.000000 0.000000
# 4 0.000000 0.000000 0.000000 0.042285 0.000000 0.000000
# 5 0.000000 0.000000 0.000000 0.000000 0.038090 0.000000
# 6 0.000000 0.000000 0.000000 0.000000 0.000000 0.038014
#
#
# Mechanical properties :
#
#
# Convention : Reuss Voigt Hill
#
# Bulk Modulus (GPa) = 60.49941 73.55875 67.02908
# Shear Modulus (GPa) = 25.64108 28.21109 26.92609
#
# Velocity S-wave (km/s) = 3.70053 3.88156 3.79213
# Velocity P-wave (km/s) = 7.11119 7.70543 7.41427
#
# Compressibility (1/GPa) = 0.01652909
#
# Stress axis : x y z
#
# Youngs Moduli (GPa) = 47.59530 82.61155 93.46122
#
# Poissons Ratio (x) = 0.19308 0.83813
# Poissons Ratio (y) = 0.11124 0.21852
# Poissons Ratio (z) = 0.42682 0.19315
#
# Static dielectric constant tensor:
#      x y z
#    x 3.292110 0.000000 0.000000 
#    y 0.000000 3.148410 0.000000 
#    z 0.000000 0.000000 4.047710 
# 
# 
# High freq. dielectric constant tensor:
#      x y z
#    x 1.706190 0.000000 0.000000 
#    y 0.000000 1.705260 0.000000 
#    z 0.000000 0.000000 1.749470 
# 
# From -- ./inp_files/59112.got.cif
#   From: 2010.03.12/outbox.cif.g09.slc.cpg/sg65_30_cif.got.tgz:59112.got - 2010.04.10 20:52:16.
