data_PCOD8266925
_publ_section_title
;
Structure prediction by ZEFSAII (Michael W. Deem and Ramdas Pophale) SiO2 
 PCOD8266925
Probable space group: C M M M
;
_chemical_formula_sum "Si O2"
_cell_formula_units_Z 72
_cell_length_a 30.178269
_cell_length_b 14.414384
_cell_length_c 8.917422
_cell_angle_alpha 90.000000
_cell_angle_beta 90.000000
_cell_angle_gamma 90.000000
_cell_volume 3879.088895
_symmetry_space_group_name_H-M "C M M M"
_symmetry_group_IT_number 65
_symmetry_cell_setting 'orthorhombic'
loop_
_space_group_symop_operation_xyz
x,y,z
-x,-y,z
x,-y,-z
-x,y,-z
-x,-y,-z
x,y,-z
-x,y,z
x,-y,z
1/2+x,1/2+y,z
1/2-x,1/2-y,z
1/2+x,1/2-y,-z
1/2-x,1/2+y,-z
1/2-x,1/2-y,-z
1/2+x,1/2+y,-z
1/2-x,1/2+y,z
1/2+x,1/2-y,z
loop_
_atom_site_type_symbol
_atom_site_label
_atom_site_fract_x
_atom_site_fract_y
_atom_site_fract_z
Si Si1 0.291419 0.194190 0.677533
Si Si2 0.447343 0.000000 0.169035
Si Si3 0.661195 0.500000 0.177968
Si Si4 0.257959 0.000000 0.677856
Si Si5 0.449910 0.815101 0.675015
Si Si6 0.372218 0.316686 0.676505
O O1 0.289817 0.198786 0.500000
O O2 0.250000 0.250000 0.746403
O O3 0.286930 0.087921 0.730817
O O4 0.336621 0.240723 0.734224
O O5 0.429510 0.906701 0.247487
O O6 0.500000 0.000000 0.181017
O O7 0.430081 0.000000 0.000000
O O8 0.710145 0.500000 0.245881
O O9 0.633749 0.410920 0.232500
O O10 0.664293 0.500000 0.000000
O O11 0.249195 0.000000 0.500000
O O12 0.448480 0.836471 0.500000
O O13 0.500000 0.793916 0.729762
O O14 0.420456 0.725257 0.714122
O O15 0.366452 0.337352 0.500000
#
# Coordination Sequence:
#
# PCOD8266925 Si02
#       6
#    16   8   8   8  16  16
#     4   9  16  28  52  81 101 128 172 215 251 300
#     4   9  17  30  51  77 108 147 178 203 252 316
#     4  12  24  36  52  76 104 137 177 217 269 327
#     4  10  18  33  55  76 105 137 175 217 256 306
#     4   9  18  33  55  83 111 138 175 223 266 304
#     4  10  20  36  57  78 103 138 179 220 266 314
#
# _framework density 18.561057999999999
#
# number of rings (size 3 to 8) (size 9 to 14) (size 15 to 20)
#    0.000    2.333    2.222    1.333    0.000    3.111 
#    0.000    6.111    0.000    4.667    0.000    0.000 
#    0.000    0.000    0.000    0.000    0.000    0.000 
#
# Total GULP energy -446329.093461 kJ/mol
# GULP energy per Si atom -12398.030374 kJ/mol
# Density = 1.851881 g / cm^3
# Si number density = 18.561058 Si / 1000 Ang^3
#
#
#
# Elastic Constant Matrix: (Units=GPa)
#
#
# Indices 1 2 3 4 5 6 
#
# 1 95.2310 66.5624 29.4914 0.0000 0.0000 0.0000
# 2 66.5624 176.0587 49.2272 0.0000 0.0000 0.0000
# 3 29.4914 49.2272 59.8095 0.0000 0.0000 0.0000
# 4 0.0000 0.0000 0.0000 12.9348 0.0000 0.0000
# 5 0.0000 0.0000 0.0000 0.0000 10.2899 0.0000
# 6 0.0000 0.0000 0.0000 0.0000 0.0000 24.6954
#
#
#
# Elastic Compliance Matrix: (Units=1/GPa)
#
#
# Indices 1 2 3 4 5 6 
#
# 1 0.014816 -0.004623 -0.003501 0.000000 0.000000 0.000000
# 2 -0.004623 0.008820 -0.004980 0.000000 0.000000 0.000000
# 3 -0.003501 -0.004980 0.022545 0.000000 0.000000 0.000000
# 4 0.000000 0.000000 0.000000 0.077311 0.000000 0.000000
# 5 0.000000 0.000000 0.000000 0.000000 0.097183 0.000000
# 6 0.000000 0.000000 0.000000 0.000000 0.000000 0.040493
#
#
# Mechanical properties :
#
#
# Convention : Reuss Voigt Hill
#
# Bulk Modulus (GPa) = 50.06567 69.07347 59.56957
# Shear Modulus (GPa) = 17.00488 21.97190 19.48839
#
# Velocity S-wave (km/s) = 3.03010 3.44432 3.24383
# Velocity P-wave (km/s) = 6.26690 7.28785 6.79657
#
# Compressibility (1/GPa) = 0.01997377
#
# Stress axis : x y z
#
# Youngs Moduli (GPa) = 67.49496 113.37781 44.35572
#
# Poissons Ratio (x) = 0.52410 0.15528
# Poissons Ratio (y) = 0.31200 0.22090
# Poissons Ratio (z) = 0.23629 0.56464
#
# Static dielectric constant tensor:
#      x y z
#    x 3.442610 0.000000 0.000000 
#    y 0.000000 3.647660 0.000000 
#    z 0.000000 0.000000 3.097020 
# 
# 
# High freq. dielectric constant tensor:
#      x y z
#    x 1.709550 0.000000 0.000000 
#    y 0.000000 1.729930 0.000000 
#    z 0.000000 0.000000 1.685550 
# 
# From -- ./inp_files/18041.got.cif
#   From: 2010.03.12/outbox.cif.g09.slc.cpg/sg65_10_cif.got.tgz:18041.got - 2010.04.10 20:52:16.
