data_PCOD8266884
_publ_section_title
;
Structure prediction by ZEFSAII (Michael W. Deem and Ramdas Pophale) SiO2 
 PCOD8266884
Probable space group: C M M M
;
_chemical_formula_sum "Si O2"
_cell_formula_units_Z 112
_cell_length_a 18.028932
_cell_length_b 19.479494
_cell_length_c 18.376417
_cell_angle_alpha 90.000000
_cell_angle_beta 90.000000
_cell_angle_gamma 90.000000
_cell_volume 6453.696079
_symmetry_space_group_name_H-M "C M M M"
_symmetry_group_IT_number 65
_symmetry_cell_setting 'orthorhombic'
loop_
_space_group_symop_operation_xyz
x,y,z
-x,-y,z
x,-y,-z
-x,y,-z
-x,-y,-z
x,y,-z
-x,y,z
x,-y,z
1/2+x,1/2+y,z
1/2-x,1/2-y,z
1/2+x,1/2-y,-z
1/2-x,1/2+y,-z
1/2-x,1/2-y,-z
1/2+x,1/2+y,-z
1/2-x,1/2+y,z
1/2+x,1/2-y,z
loop_
_atom_site_type_symbol
_atom_site_label
_atom_site_fract_x
_atom_site_fract_y
_atom_site_fract_z
Si Si1 0.913992 0.369060 0.081680
Si Si2 0.144193 0.423164 0.221065
Si Si3 0.587280 0.666615 0.233357
Si Si4 0.791017 0.079621 0.695666
Si Si5 0.083615 0.306849 0.313862
Si Si6 0.587931 0.286322 0.079010
Si Si7 0.216295 0.324827 0.416909
O O1 0.864348 0.416151 0.134291
O O2 0.883773 0.291393 0.088266
O O3 0.000000 0.373808 0.104658
O O4 0.903039 0.396745 0.000000
O O5 0.123007 0.500000 0.245890
O O6 0.228744 0.406871 0.243209
O O7 0.087893 0.370334 0.258461
O O8 0.500000 0.651186 0.239876
O O9 0.630829 0.605781 0.273063
O O10 0.608530 0.738432 0.271329
O O11 0.613530 0.668863 0.148437
O O12 0.769169 0.120536 0.622877
O O13 0.799414 0.000000 0.675328
O O14 0.134465 0.322354 0.383077
O O15 0.000000 0.299337 0.342612
O O16 0.500000 0.283337 0.077977
O O17 0.616004 0.315843 0.000000
O O18 0.209268 0.348657 0.500000
O O19 0.250000 0.250000 0.409591
#
# Coordination Sequence:
#
# PCOD8266884 Si02
#       7
#    16  16  16  16  16  16  16
#     4   9  16  27  44  68 101 139 177 217 262 314
#     4  10  20  32  47  69 104 144 177 214 261 314
#     4  10  18  32  56  80 103 136 177 225 272 314
#     4  10  22  38  55  78 105 138 177 218 265 317
#     4  10  19  32  53  81 107 135 173 217 261 305
#     4   8  14  26  46  73 102 131 170 220 267 309
#     4  10  20  36  58  82 107 140 174 204 248 311
#
# _framework density 17.354396000000001
#
# number of rings (size 3 to 8) (size 9 to 14) (size 15 to 20)
#    0.000    2.429    2.857    1.286    0.000    2.286 
#    0.000    1.429    0.000    3.429    0.000    7.000 
#    0.000    0.000    0.000    0.000    0.000    0.000 
#
# Total GULP energy -694240.343206 kJ/mol
# GULP energy per Si atom -12397.148986 kJ/mol
# Density = 1.731490 g / cm^3
# Si number density = 17.354396 Si / 1000 Ang^3
#
#
#
# Elastic Constant Matrix: (Units=GPa)
#
#
# Indices 1 2 3 4 5 6 
#
# 1 56.7638 31.9506 50.4206 0.0000 0.0000 0.0000
# 2 31.9506 88.2676 51.8390 0.0000 0.0000 0.0000
# 3 50.4206 51.8390 139.1798 0.0000 0.0000 0.0000
# 4 0.0000 0.0000 0.0000 11.7146 0.0000 0.0000
# 5 0.0000 0.0000 0.0000 0.0000 21.5283 0.0000
# 6 0.0000 0.0000 0.0000 0.0000 0.0000 20.6924
#
#
#
# Elastic Compliance Matrix: (Units=1/GPa)
#
#
# Indices 1 2 3 4 5 6 
#
# 1 0.027791 -0.005308 -0.008091 0.000000 0.000000 0.000000
# 2 -0.005308 0.015515 -0.003856 0.000000 0.000000 0.000000
# 3 -0.008091 -0.003856 0.011552 0.000000 0.000000 0.000000
# 4 0.000000 0.000000 0.000000 0.085363 0.000000 0.000000
# 5 0.000000 0.000000 0.000000 0.000000 0.046451 0.000000
# 6 0.000000 0.000000 0.000000 0.000000 0.000000 0.048327
#
#
# Mechanical properties :
#
#
# Convention : Reuss Voigt Hill
#
# Bulk Modulus (GPa) = 49.14225 61.40350 55.27287
# Shear Modulus (GPa) = 18.09680 20.78713 19.44196
#
# Velocity S-wave (km/s) = 3.23271 3.46468 3.35071
# Velocity P-wave (km/s) = 6.50479 7.17386 6.84750
#
# Compressibility (1/GPa) = 0.02034909
#
# Stress axis : x y z
#
# Youngs Moduli (GPa) = 35.98240 64.45361 86.56365
#
# Poissons Ratio (x) = 0.34212 0.70038
# Poissons Ratio (y) = 0.19099 0.33377
# Poissons Ratio (z) = 0.29113 0.24852
#
# Static dielectric constant tensor:
#      x y z
#    x 2.987550 0.000000 0.000000 
#    y 0.000000 3.087340 0.000000 
#    z 0.000000 0.000000 3.429640 
# 
# 
# High freq. dielectric constant tensor:
#      x y z
#    x 1.650070 0.000000 0.000000 
#    y 0.000000 1.655060 0.000000 
#    z 0.000000 0.000000 1.672170 
# 
# From -- ./inp_files/54815.got.cif
#   From: 2010.03.12/outbox.cif.g09.slc.cpg/sg65_28_cif.got.tgz:54815.got - 2010.04.10 20:52:16.
