data_PCOD8266397
_publ_section_title
;
Structure prediction by ZEFSAII (Michael W. Deem and Ramdas Pophale) SiO2 
 PCOD8266397
Probable space group: C M M M
;
_chemical_formula_sum "Si O2"
_cell_formula_units_Z 96
_cell_length_a 23.710070
_cell_length_b 25.572748
_cell_length_c 8.945367
_cell_angle_alpha 90.000000
_cell_angle_beta 90.000000
_cell_angle_gamma 90.000000
_cell_volume 5423.859090
_symmetry_space_group_name_H-M "C M M M"
_symmetry_group_IT_number 65
_symmetry_cell_setting 'orthorhombic'
loop_
_space_group_symop_operation_xyz
x,y,z
-x,-y,z
x,-y,-z
-x,y,-z
-x,-y,-z
x,y,-z
-x,y,z
x,-y,z
1/2+x,1/2+y,z
1/2-x,1/2-y,z
1/2+x,1/2-y,-z
1/2-x,1/2+y,-z
1/2-x,1/2-y,-z
1/2+x,1/2+y,-z
1/2-x,1/2+y,z
1/2+x,1/2-y,z
loop_
_atom_site_type_symbol
_atom_site_label
_atom_site_fract_x
_atom_site_fract_y
_atom_site_fract_z
Si Si1 0.064893 0.699342 0.826356
Si Si2 0.368694 0.901107 0.177787
Si Si3 0.564205 0.692308 0.676122
Si Si4 0.869322 0.899780 0.177353
Si Si5 0.750001 0.559197 0.822420
Si Si6 0.063013 0.000000 0.822202
Si Si7 0.936824 0.500000 0.178480
O O1 0.105101 0.653263 0.764317
O O2 0.080548 0.750309 0.732382
O O3 0.000000 0.682437 0.801784
O O4 0.076453 0.711250 0.000000
O O5 0.304526 0.908678 0.234926
O O6 0.405539 0.948877 0.241438
O O7 0.371198 0.901813 0.000000
O O8 0.571084 0.690363 0.500000
O O9 0.500000 0.678594 0.724782
O O10 0.607681 0.652501 0.749140
O O11 0.805171 0.909259 0.230556
O O12 0.905718 0.948558 0.237123
O O13 0.873845 0.894222 0.000000
O O14 0.750019 0.500000 0.757282
O O15 0.750506 0.555021 0.000000
O O16 0.000000 0.000000 0.756944
O O17 0.063224 0.000000 0.000000
O O18 0.000000 0.500000 0.241348
O O19 0.936228 0.500000 0.000000
#
# Coordination Sequence:
#
# PCOD8266397 Si02
#       7
#    16  16  16  16  16   8   8
#     4   9  17  30  49  73  99 128 164 203 241 284
#     4   9  15  24  41  68 102 133 160 195 241 287
#     4  10  21  36  52  70  94 126 162 201 249 297
#     4  10  18  30  50  74  98 126 162 199 237 286
#     4   9  15  26  44  69 100 133 163 193 235 287
#     4   9  16  25  42  70  97 117 144 188 238 283
#     4   9  14  19  33  63 103 137 158 187 240 296
#
# _framework density 17.699573999999998
#
# number of rings (size 3 to 8) (size 9 to 14) (size 15 to 20)
#    0.000    2.667    1.667    1.500    0.000    3.667 
#    0.000    1.250    0.000    7.500    0.000    0.583 
#    0.000    3.333    0.000    0.000    0.000    0.000 
#
# Total GULP energy -595116.747861 kJ/mol
# GULP energy per Si atom -12398.265580 kJ/mol
# Density = 1.765929 g / cm^3
# Si number density = 17.699574 Si / 1000 Ang^3
#
#
#
# Elastic Constant Matrix: (Units=GPa)
#
#
# Indices 1 2 3 4 5 6 
#
# 1 170.4148 97.7705 24.4120 0.0000 0.0000 0.0000
# 2 97.7705 147.0314 26.4992 0.0000 0.0000 0.0000
# 3 24.4120 26.4992 21.9570 0.0000 0.0000 0.0000
# 4 0.0000 0.0000 0.0000 -3.1070 0.0000 0.0000
# 5 0.0000 0.0000 0.0000 0.0000 9.1104 0.0000
# 6 0.0000 0.0000 0.0000 0.0000 0.0000 32.1384
#
#
#
# Elastic Compliance Matrix: (Units=1/GPa)
#
#
# Indices 1 2 3 4 5 6 
#
# 1 0.009736 -0.005780 -0.003848 0.000000 0.000000 0.000000
# 2 -0.005780 0.012124 -0.008205 0.000000 0.000000 0.000000
# 3 -0.003848 -0.008205 0.059724 0.000000 0.000000 0.000000
# 4 0.000000 0.000000 0.000000 -0.321859 0.000000 0.000000
# 5 0.000000 0.000000 0.000000 0.000000 0.109765 0.000000
# 6 0.000000 0.000000 0.000000 0.000000 0.000000 0.031115
#
#
# Mechanical properties :
#
#
# Convention : Reuss Voigt Hill
#
# Bulk Modulus (GPa) = 21.77855 70.75183 46.26519
# Shear Modulus (GPa) = -103.25805 20.34315 -41.45745
#
# Velocity S-wave (km/s) = -7.64630 3.39390 -4.84497
# Velocity P-wave (km/s) = 8.10082 7.44436 2.25884
#
# Compressibility (1/GPa) = 0.04591673
#
# Stress axis : x y z
#
# Youngs Moduli (GPa) = 102.71683 82.48299 16.74355
#
# Poissons Ratio (x) = 0.47677 0.06443
# Poissons Ratio (y) = 0.59373 0.13738
# Poissons Ratio (z) = 0.39526 0.67679
#
# Static dielectric constant tensor:
#      x y z
#    x 3.534010 0.000000 0.000000 
#    y 0.000000 3.339830 0.000000 
#    z 0.000000 0.000000 2.705050 
# 
# 
# High freq. dielectric constant tensor:
#      x y z
#    x 1.691340 0.000000 0.000000 
#    y 0.000000 1.689600 0.000000 
#    z 0.000000 0.000000 1.625340 
# 
# From -- ./inp_files/14374.got.cif
#   From: 2010.03.12/outbox.cif.g09.slc.cpg/sg65_8_cif.got.tgz:14374.got - 2010.04.10 20:52:16.
