data_PCOD8266511
_publ_section_title
;
Structure prediction by ZEFSAII (Michael W. Deem and Ramdas Pophale) SiO2 
 PCOD8266511
Probable space group: C M M M
;
_chemical_formula_sum "Si O2"
_cell_formula_units_Z 80
_cell_length_a 9.028171
_cell_length_b 19.420525
_cell_length_c 22.326824
_cell_angle_alpha 90.000000
_cell_angle_beta 90.000000
_cell_angle_gamma 90.000000
_cell_volume 3914.602700
_symmetry_space_group_name_H-M "C M M M"
_symmetry_group_IT_number 65
_symmetry_cell_setting 'orthorhombic'
loop_
_space_group_symop_operation_xyz
x,y,z
-x,-y,z
x,-y,-z
-x,y,-z
-x,-y,-z
x,y,-z
-x,y,z
x,-y,z
1/2+x,1/2+y,z
1/2-x,1/2-y,z
1/2+x,1/2-y,-z
1/2-x,1/2+y,-z
1/2-x,1/2-y,-z
1/2+x,1/2+y,-z
1/2-x,1/2+y,z
1/2+x,1/2-y,z
loop_
_atom_site_type_symbol
_atom_site_label
_atom_site_fract_x
_atom_site_fract_y
_atom_site_fract_z
Si Si1 0.169288 0.816527 0.190982
Si Si2 0.827944 0.420797 0.729884
Si Si3 0.821354 0.174778 0.500000
Si Si4 0.838640 0.500000 0.929290
Si Si5 0.675435 0.823696 0.618205
Si Si6 0.831675 0.867063 0.933907
O O1 0.250000 0.750000 0.218931
O O2 0.239388 0.886959 0.215242
O O3 0.185044 0.810808 0.118397
O O4 0.000000 0.813511 0.211442
O O5 0.776683 0.500000 0.721575
O O6 0.792312 0.377708 0.670488
O O7 0.000000 0.417115 0.745879
O O8 0.750000 0.250000 0.500000
O O9 0.755163 0.140877 0.439602
O O10 0.000000 0.174629 0.500000
O O11 0.755856 0.567892 0.908448
O O12 0.000000 0.500000 0.898833
O O13 0.850682 0.500000 0.000000
O O14 0.500000 0.813002 0.606985
O O15 0.750000 0.750000 0.633648
O O16 0.000000 0.890743 0.940700
O O17 0.774319 0.841118 0.000000
#
# Coordination Sequence:
#
# PCOD8266511 Si02
#       6
#    16  16   8   8  16  16
#     4  11  24  40  60  85 113 149 192 237 292 350
#     4  10  23  42  62  85 115 153 195 242 293 344
#     4  10  18  30  53  86 121 155 193 235 281 330
#     4   9  17  29  49  79 109 139 177 220 269 326
#     4  10  19  34  58  86 118 154 194 236 283 337
#     4   9  19  36  56  79 111 148 185 228 283 348
#
# _framework density 20.436302999999999
#
# number of rings (size 3 to 8) (size 9 to 14) (size 15 to 20)
#    0.000    2.100    0.000    4.200    1.400    6.800 
#    0.000    0.500    0.000    3.000    0.000    0.000 
#    0.000    0.000    0.000    0.000    0.000    0.000 
#
# Total GULP energy -495732.305095 kJ/mol
# GULP energy per Si atom -12393.307627 kJ/mol
# Density = 2.038979 g / cm^3
# Si number density = 20.436303 Si / 1000 Ang^3
#
#
#
# Elastic Constant Matrix: (Units=GPa)
#
#
# Indices 1 2 3 4 5 6 
#
# 1 116.2065 54.4210 56.1223 0.0000 0.0000 0.0000
# 2 54.4210 115.2376 44.2972 0.0000 0.0000 0.0000
# 3 56.1223 44.2972 115.2585 0.0000 0.0000 0.0000
# 4 0.0000 0.0000 0.0000 22.5884 0.0000 0.0000
# 5 0.0000 0.0000 0.0000 0.0000 30.2477 0.0000
# 6 0.0000 0.0000 0.0000 0.0000 0.0000 47.6431
#
#
#
# Elastic Compliance Matrix: (Units=1/GPa)
#
#
# Indices 1 2 3 4 5 6 
#
# 1 0.012839 -0.004294 -0.004601 0.000000 0.000000 0.000000
# 2 -0.004294 0.011618 -0.002374 0.000000 0.000000 0.000000
# 3 -0.004601 -0.002374 0.011829 0.000000 0.000000 0.000000
# 4 0.000000 0.000000 0.000000 0.044271 0.000000 0.000000
# 5 0.000000 0.000000 0.000000 0.000000 0.033060 0.000000
# 6 0.000000 0.000000 0.000000 0.000000 0.000000 0.020989
#
#
# Mechanical properties :
#
#
# Convention : Reuss Voigt Hill
#
# Bulk Modulus (GPa) = 72.74459 72.93150 72.83804
# Shear Modulus (GPa) = 30.91617 32.88664 31.90141
#
# Velocity S-wave (km/s) = 3.89370 4.01587 3.95526
# Velocity P-wave (km/s) = 7.47580 7.56754 7.52181
#
# Compressibility (1/GPa) = 0.01374673
#
# Stress axis : x y z
#
# Youngs Moduli (GPa) = 77.89055 86.07033 84.53832
#
# Poissons Ratio (x) = 0.36962 0.38896
# Poissons Ratio (y) = 0.33449 0.20071
# Poissons Ratio (z) = 0.35837 0.20435
#
# Static dielectric constant tensor:
#      x y z
#    x 3.829670 0.000000 0.000000 
#    y 0.000000 3.451580 0.000000 
#    z 0.000000 0.000000 4.129830 
# 
# 
# High freq. dielectric constant tensor:
#      x y z
#    x 1.804340 0.000000 0.000000 
#    y 0.000000 1.771230 0.000000 
#    z 0.000000 0.000000 1.810650 
# 
# From -- ./inp_files/67284.got.cif
#   From: 2010.03.12/outbox.cif.g09.slc.cpg/sg65_34_cif.got.tgz:67284.got - 2010.04.10 20:52:16.
