data_PCOD8267756
_publ_section_title
;
Structure prediction by ZEFSAII (Michael W. Deem and Ramdas Pophale) SiO2 
 PCOD8267756
Probable space group: C M M M
;
_chemical_formula_sum "Si O2"
_cell_formula_units_Z 88
_cell_length_a 19.183903
_cell_length_b 30.645319
_cell_length_c 7.945986
_cell_angle_alpha 90.000000
_cell_angle_beta 90.000000
_cell_angle_gamma 90.000000
_cell_volume 4671.419958
_symmetry_space_group_name_H-M "C M M M"
_symmetry_group_IT_number 65
_symmetry_cell_setting 'orthorhombic'
loop_
_space_group_symop_operation_xyz
x,y,z
-x,-y,z
x,-y,-z
-x,y,-z
-x,-y,-z
x,y,-z
-x,y,z
x,-y,z
1/2+x,1/2+y,z
1/2-x,1/2-y,z
1/2+x,1/2-y,-z
1/2-x,1/2+y,-z
1/2-x,1/2-y,-z
1/2+x,1/2+y,-z
1/2-x,1/2+y,z
1/2+x,1/2-y,z
loop_
_atom_site_type_symbol
_atom_site_label
_atom_site_fract_x
_atom_site_fract_y
_atom_site_fract_z
Si Si1 0.921916 0.753100 0.698342
Si Si2 0.422399 0.551515 0.500000
Si Si3 0.675433 0.449244 0.194982
Si Si4 0.283133 0.877974 0.803682
Si Si5 0.923643 0.344609 0.697835
Si Si6 0.286839 0.707805 0.194833
O O1 0.913381 0.755032 0.500000
O O2 0.905107 0.704022 0.765613
O O3 0.869864 0.788147 0.780247
O O4 0.000000 0.766246 0.752666
O O5 0.428247 0.500000 0.500000
O O6 0.500000 0.572336 0.500000
O O7 0.384043 0.566010 0.326758
O O8 0.693286 0.500000 0.217902
O O9 0.745178 0.422914 0.246939
O O10 0.652478 0.439551 0.000000
O O11 0.364068 0.879033 0.749097
O O12 0.242519 0.836627 0.720023
O O13 0.279684 0.872369 0.000000
O O14 0.929214 0.342092 0.500000
O O15 0.000000 0.359136 0.769042
O O16 0.250000 0.750000 0.280461
O O17 0.268084 0.706617 0.000000
#
# Coordination Sequence:
#
# PCOD8267756 Si02
#       6
#    16   8  16  16  16  16
#     4   9  18  32  47  66  95 130 168 206 246 297
#     4   9  18  34  58  86 108 133 177 219 259 319
#     4   9  19  36  56  80 110 140 173 218 265 306
#     4  10  20  33  51  75  99 130 171 209 253 310
#     4   9  18  31  48  72 100 131 169 211 252 297
#     4  10  19  31  46  69  98 126 162 206 248 298
#
# _framework density 18.837955999999998
#
# number of rings (size 3 to 8) (size 9 to 14) (size 15 to 20)
#    0.000    2.636    1.818    1.091    1.273    2.182 
#    0.000    4.545    0.000    3.818    0.000    3.818 
#    0.000    0.000    0.000    0.000    0.000    0.000 
#
# Total GULP energy -545259.735302 kJ/mol
# GULP energy per Si atom -12392.266711 kJ/mol
# Density = 1.879508 g / cm^3
# Si number density = 18.837956 Si / 1000 Ang^3
#
#
#
# Elastic Constant Matrix: (Units=GPa)
#
#
# Indices 1 2 3 4 5 6 
#
# 1 161.3801 62.0164 30.9347 0.0000 0.0000 0.0000
# 2 62.0164 69.2621 32.6848 0.0000 0.0000 0.0000
# 3 30.9347 32.6848 37.2743 0.0000 0.0000 0.0000
# 4 0.0000 0.0000 0.0000 14.8608 0.0000 0.0000
# 5 0.0000 0.0000 0.0000 0.0000 18.9546 0.0000
# 6 0.0000 0.0000 0.0000 0.0000 0.0000 34.7305
#
#
#
# Elastic Compliance Matrix: (Units=1/GPa)
#
#
# Indices 1 2 3 4 5 6 
#
# 1 0.009459 -0.008128 -0.000723 0.000000 0.000000 0.000000
# 2 -0.008128 0.031614 -0.020976 0.000000 0.000000 0.000000
# 3 -0.000723 -0.020976 0.045821 0.000000 0.000000 0.000000
# 4 0.000000 0.000000 0.000000 0.067291 0.000000 0.000000
# 5 0.000000 0.000000 0.000000 0.000000 0.052758 0.000000
# 6 0.000000 0.000000 0.000000 0.000000 0.000000 0.028793
#
#
# Mechanical properties :
#
#
# Convention : Reuss Voigt Hill
#
# Bulk Modulus (GPa) = 36.70994 57.68758 47.19876
# Shear Modulus (GPa) = 16.42202 23.19455 19.80829
#
# Velocity S-wave (km/s) = 2.95575 3.51275 3.24622
# Velocity P-wave (km/s) = 5.58374 6.86601 6.25780
#
# Compressibility (1/GPa) = 0.02724058
#
# Stress axis : x y z
#
# Youngs Moduli (GPa) = 105.72384 31.63124 21.82408
#
# Poissons Ratio (x) = 0.25710 0.01577
# Poissons Ratio (y) = 0.85934 0.45778
# Poissons Ratio (z) = 0.07639 0.66350
#
# Static dielectric constant tensor:
#      x y z
#    x 2.870900 0.000000 0.000000 
#    y 0.000000 3.472290 0.000000 
#    z 0.000000 0.000000 3.306030 
# 
# 
# High freq. dielectric constant tensor:
#      x y z
#    x 1.737370 0.000000 0.000000 
#    y 0.000000 1.693170 0.000000 
#    z 0.000000 0.000000 1.722800 
# 
# From -- ./inp_files/9997.got.cif
#   From: 2010.03.12/outbox.cif.g09.slc.cpg/sg65_5_cif.got.tgz:9997.got - 2010.04.10 20:52:16.
