data_PCOD8267734
_publ_section_title
;
Structure prediction by ZEFSAII (Michael W. Deem and Ramdas Pophale) SiO2 
 PCOD8267734
Probable space group: C M M M
;
_chemical_formula_sum "Si O2"
_cell_formula_units_Z 104
_cell_length_a 9.760747
_cell_length_b 27.428062
_cell_length_c 27.480157
_cell_angle_alpha 90.000000
_cell_angle_beta 90.000000
_cell_angle_gamma 90.000000
_cell_volume 7356.942946
_symmetry_space_group_name_H-M "C M M M"
_symmetry_group_IT_number 65
_symmetry_cell_setting 'orthorhombic'
loop_
_space_group_symop_operation_xyz
x,y,z
-x,-y,z
x,-y,-z
-x,y,-z
-x,-y,-z
x,y,-z
-x,y,z
x,-y,z
1/2+x,1/2+y,z
1/2-x,1/2-y,z
1/2+x,1/2-y,-z
1/2-x,1/2+y,-z
1/2-x,1/2-y,-z
1/2+x,1/2+y,-z
1/2-x,1/2+y,z
1/2+x,1/2-y,z
loop_
_atom_site_type_symbol
_atom_site_label
_atom_site_fract_x
_atom_site_fract_y
_atom_site_fract_z
Si Si1 0.655247 0.944227 0.632755
Si Si2 0.000000 0.712246 0.442622
Si Si3 0.655320 0.558235 0.000000
Si Si4 0.846431 0.442006 0.805836
Si Si5 0.000000 0.179657 0.557536
Si Si6 0.844443 0.058067 0.279379
Si Si7 0.153419 0.557946 0.085549
Si Si8 0.719759 0.135307 0.557340
O O1 0.500000 0.939765 0.652923
O O2 0.760466 0.924364 0.673318
O O3 0.670573 0.913391 0.583710
O O4 0.689248 0.000000 0.619233
O O5 0.000000 0.766135 0.418593
O O6 0.132542 0.682128 0.425989
O O7 0.000000 0.718525 0.500000
O O8 0.735261 0.578535 0.047459
O O9 0.653827 0.500000 0.000000
O O10 0.500000 0.578565 0.000000
O O11 0.845137 0.500000 0.803759
O O12 0.734655 0.420908 0.768025
O O13 0.806702 0.424141 0.860169
O O14 0.000000 0.423664 0.792450
O O15 0.128095 0.147899 0.574407
O O16 0.000000 0.186432 0.500000
O O17 0.000000 0.078607 0.280732
O O18 0.846412 0.000000 0.277574
O O19 0.154267 0.500000 0.083789
O O20 0.000000 0.576295 0.071952
O O21 0.705008 0.125486 0.500000
#
# Coordination Sequence:
#
# PCOD8267734 Si02
#       8
#    16   8   8  16   8  16  16  16
#     4  10  20  32  44  57  77 106 134 160 188 223
#     4   9  16  30  49  67  85 103 126 154 183 222
#     4   9  15  19  23  35  55  77  99 127 167 215
#     4   8  13  22  35  48  60  77 106 143 180 219
#     4   9  18  30  47  67  87 105 120 150 193 228
#     4   9  17  27  39  53  68  88 116 151 188 223
#     4   8  13  20  29  39  53  75 101 130 167 215
#     4  10  19  31  46  66  85 104 130 155 185 228
#
# _framework density 14.136307
#
# number of rings (size 3 to 8) (size 9 to 14) (size 15 to 20)
#    0.000    3.000    0.769    2.077    1.077    5.538 
#    0.000    3.846    0.000    1.385    0.000    0.000 
#    0.000    0.000    0.000    0.000    0.000    0.000 
#
# Total GULP energy -644447.965756 kJ/mol
# GULP energy per Si atom -12393.230111 kJ/mol
# Density = 1.410413 g / cm^3
# Si number density = 14.136307 Si / 1000 Ang^3
#
#
#
# Elastic Constant Matrix: (Units=GPa)
#
#
# Indices 1 2 3 4 5 6 
#
# 1 116.6377 17.3735 49.9266 0.0000 0.0000 0.0000
# 2 17.3735 29.0775 20.0185 0.0000 0.0000 0.0000
# 3 49.9266 20.0185 79.4549 0.0000 0.0000 0.0000
# 4 0.0000 0.0000 0.0000 0.8578 0.0000 0.0000
# 5 0.0000 0.0000 0.0000 0.0000 22.0677 0.0000
# 6 0.0000 0.0000 0.0000 0.0000 0.0000 8.8400
#
#
#
# Elastic Compliance Matrix: (Units=1/GPa)
#
#
# Indices 1 2 3 4 5 6 
#
# 1 0.011861 -0.002366 -0.006857 0.000000 0.000000 0.000000
# 2 -0.002366 0.042080 -0.009115 0.000000 0.000000 0.000000
# 3 -0.006857 -0.009115 0.019191 0.000000 0.000000 0.000000
# 4 0.000000 0.000000 0.000000 1.165834 0.000000 0.000000
# 5 0.000000 0.000000 0.000000 0.000000 0.045315 0.000000
# 6 0.000000 0.000000 0.000000 0.000000 0.000000 0.113122
#
#
# Mechanical properties :
#
#
# Convention : Reuss Voigt Hill
#
# Bulk Modulus (GPa) = 27.43072 44.42304 35.92688
# Shear Modulus (GPa) = 3.45726 15.54320 9.50023
#
# Velocity S-wave (km/s) = 1.56556 3.31950 2.59520
# Velocity P-wave (km/s) = 4.76598 6.79597 5.86940
#
# Compressibility (1/GPa) = 0.03645548
#
# Stress axis : x y z
#
# Youngs Moduli (GPa) = 84.30909 23.76431 52.10796
#
# Poissons Ratio (x) = 0.05623 0.35730
# Poissons Ratio (y) = 0.19950 0.47497
# Poissons Ratio (z) = 0.57810 0.21661
#
# Static dielectric constant tensor:
#      x y z
#    x 3.096850 0.000000 0.000000 
#    y 0.000000 2.256750 0.000000 
#    z 0.000000 0.000000 2.800280 
# 
# 
# High freq. dielectric constant tensor:
#      x y z
#    x 1.559040 0.000000 0.000000 
#    y 0.000000 1.463980 0.000000 
#    z 0.000000 0.000000 1.528280 
# 
# From -- ./inp_files/73838.got.cif
#   From: 2010.03.12/outbox.cif.g09.slc.cpg/sg65_37_cif.got.tgz:73838.got - 2010.04.10 20:52:16.
