data_PCOD8267983
_publ_section_title
;
Structure prediction by ZEFSAII (Michael W. Deem and Ramdas Pophale) SiO2 
 PCOD8267983
Probable space group: C M M M
;
_chemical_formula_sum "Si O2"
_cell_formula_units_Z 104
_cell_length_a 9.660661
_cell_length_b 18.674514
_cell_length_c 33.854557
_cell_angle_alpha 90.000000
_cell_angle_beta 90.000000
_cell_angle_gamma 90.000000
_cell_volume 6107.637967
_symmetry_space_group_name_H-M "C M M M"
_symmetry_group_IT_number 65
_symmetry_cell_setting 'orthorhombic'
loop_
_space_group_symop_operation_xyz
x,y,z
-x,-y,z
x,-y,-z
-x,y,-z
-x,-y,-z
x,y,-z
-x,y,z
x,-y,z
1/2+x,1/2+y,z
1/2-x,1/2-y,z
1/2+x,1/2-y,-z
1/2-x,1/2+y,-z
1/2-x,1/2-y,-z
1/2+x,1/2+y,-z
1/2-x,1/2+y,z
1/2+x,1/2-y,z
loop_
_atom_site_type_symbol
_atom_site_label
_atom_site_fract_x
_atom_site_fract_y
_atom_site_fract_z
Si Si1 0.660918 0.319037 0.857563
Si Si2 0.664440 0.080194 0.458182
Si Si3 0.343813 0.085763 0.626370
Si Si4 0.163193 0.920160 0.073083
Si Si5 0.665204 0.323433 0.000000
Si Si6 0.340809 0.317359 0.232053
Si Si7 0.340551 0.417531 0.302755
O O1 0.500000 0.299550 0.864120
O O2 0.750000 0.250000 0.869243
O O3 0.706975 0.384719 0.885308
O O4 0.690819 0.342910 0.812569
O O5 0.710004 0.119007 0.500000
O O6 0.500000 0.076628 0.456105
O O7 0.711971 0.116107 0.416463
O O8 0.724563 0.000000 0.459918
O O9 0.500000 0.111941 0.634846
O O10 0.247248 0.116082 0.661212
O O11 0.337914 0.000000 0.624663
O O12 0.000000 0.928000 0.070255
O O13 0.229503 0.000000 0.070096
O O14 0.213876 0.869311 0.037768
O O15 0.750000 0.250000 0.000000
O O16 0.500000 0.307899 0.000000
O O17 0.500000 0.294718 0.236512
O O18 0.250000 0.250000 0.244125
O O19 0.300717 0.380995 0.261503
O O20 0.500000 0.405842 0.313648
O O21 0.303052 0.500000 0.296864
#
# Coordination Sequence:
#
# PCOD8267983 Si02
#       7
#    16  16  16  16   8  16  16
#     4   9  17  30  48  67  87 113 145 180 217 258
#     4   7   9  14  26  45  69  97 129 164 199 235
#     4   8  13  21  34  53  76 103 136 170 203 243
#     4   9  17  29  47  71  95 119 150 187 222 257
#     4  10  19  31  49  71  95 124 156 188 222 262
#     4   9  18  31  46  64  85 111 143 178 215 254
#     4   9  17  28  41  58  82 110 137 168 209 254
#
# _framework density 17.027858999999999
#
# number of rings (size 3 to 8) (size 9 to 14) (size 15 to 20)
#    0.000    3.385    0.000    2.077    0.000    2.154 
#    0.000    3.077    0.000    2.769    0.000    7.538 
#    0.000    0.615    0.000    1.385    0.000    3.692 
#
# Total GULP energy -644201.912022 kJ/mol
# GULP energy per Si atom -12388.498308 kJ/mol
# Density = 1.698910 g / cm^3
# Si number density = 17.027859 Si / 1000 Ang^3
#
#
#
# Elastic Constant Matrix: (Units=GPa)
#
#
# Indices 1 2 3 4 5 6 
#
# 1 40.0641 33.3732 47.9818 0.0000 0.0000 0.0000
# 2 33.3732 83.1996 69.9080 0.0000 0.0000 0.0000
# 3 47.9818 69.9080 157.4504 0.0000 0.0000 0.0000
# 4 0.0000 0.0000 0.0000 7.1804 0.0000 0.0000
# 5 0.0000 0.0000 0.0000 0.0000 20.1210 0.0000
# 6 0.0000 0.0000 0.0000 0.0000 0.0000 18.5209
#
#
#
# Elastic Compliance Matrix: (Units=1/GPa)
#
#
# Indices 1 2 3 4 5 6 
#
# 1 0.044151 -0.010216 -0.008919 0.000000 0.000000 0.000000
# 2 -0.010216 0.021536 -0.006448 0.000000 0.000000 0.000000
# 3 -0.008919 -0.006448 0.011932 0.000000 0.000000 0.000000
# 4 0.000000 0.000000 0.000000 0.139268 0.000000 0.000000
# 5 0.000000 0.000000 0.000000 0.000000 0.049699 0.000000
# 6 0.000000 0.000000 0.000000 0.000000 0.000000 0.053993
#
#
# Mechanical properties :
#
#
# Convention : Reuss Voigt Hill
#
# Bulk Modulus (GPa) = 37.80385 64.80445 51.30415
# Shear Modulus (GPa) = 13.13841 17.79453 15.46647
#
# Velocity S-wave (km/s) = 2.78075 3.23619 3.01708
# Velocity P-wave (km/s) = 5.70609 7.21834 6.50630
#
# Compressibility (1/GPa) = 0.02645234
#
# Stress axis : x y z
#
# Youngs Moduli (GPa) = 22.64929 46.43495 83.80620
#
# Poissons Ratio (x) = 0.47439 0.74746
# Poissons Ratio (y) = 0.23139 0.54042
# Poissons Ratio (z) = 0.20201 0.29943
#
# Static dielectric constant tensor:
#      x y z
#    x 2.934350 0.000000 0.000000 
#    y 0.000000 2.910290 0.000000 
#    z 0.000000 0.000000 3.709070 
# 
# 
# High freq. dielectric constant tensor:
#      x y z
#    x 1.620730 0.000000 0.000000 
#    y 0.000000 1.613470 0.000000 
#    z 0.000000 0.000000 1.683930 
# 
# From -- ./inp_files/77486.got.cif
#   From: 2010.03.12/outbox.cif.g09.slc.cpg/sg65_39_cif.got.tgz:77486.got - 2010.04.10 20:52:16.
