data_PCOD8267081
_publ_section_title
;
Structure prediction by ZEFSAII (Michael W. Deem and Ramdas Pophale) SiO2 
 PCOD8267081
Probable space group: C M M M
;
_chemical_formula_sum "Si O2"
_cell_formula_units_Z 104
_cell_length_a 27.658434
_cell_length_b 17.181294
_cell_length_c 13.406873
_cell_angle_alpha 90.000000
_cell_angle_beta 90.000000
_cell_angle_gamma 90.000000
_cell_volume 6371.049097
_symmetry_space_group_name_H-M "C M M M"
_symmetry_group_IT_number 65
_symmetry_cell_setting 'orthorhombic'
loop_
_space_group_symop_operation_xyz
x,y,z
-x,-y,z
x,-y,-z
-x,y,-z
-x,-y,-z
x,y,-z
-x,y,z
x,-y,z
1/2+x,1/2+y,z
1/2-x,1/2-y,z
1/2+x,1/2-y,-z
1/2-x,1/2+y,-z
1/2-x,1/2-y,-z
1/2+x,1/2+y,-z
1/2-x,1/2+y,z
1/2+x,1/2-y,z
loop_
_atom_site_type_symbol
_atom_site_label
_atom_site_fract_x
_atom_site_fract_y
_atom_site_fract_z
Si Si1 0.444391 0.586113 0.220133
Si Si2 0.214401 0.086127 0.617705
Si Si3 0.500000 0.910137 0.382034
Si Si4 0.056885 0.759597 0.112654
Si Si5 0.592527 0.821001 0.698945
Si Si6 0.116108 0.843103 0.615060
Si Si7 0.820616 0.592138 0.613295
O O1 0.500000 0.596378 0.249400
O O2 0.434226 0.500000 0.175615
O O3 0.429581 0.650960 0.138772
O O4 0.415195 0.596199 0.322235
O O5 0.218263 0.077980 0.500000
O O6 0.172411 0.146801 0.648259
O O7 0.267201 0.116231 0.653387
O O8 0.203119 0.000000 0.662392
O O9 0.500000 0.902164 0.500000
O O10 0.452663 0.869639 0.339335
O O11 0.500000 0.000000 0.348698
O O12 0.085359 0.700925 0.185089
O O13 0.000000 0.745348 0.125834
O O14 0.073649 0.742753 0.000000
O O15 0.597703 0.743758 0.632969
O O16 0.640944 0.871125 0.688809
O O17 0.109602 0.865541 0.500000
O O18 0.829801 0.622661 0.500000
O O19 0.826385 0.500000 0.615315
#
# Coordination Sequence:
#
# PCOD8267081 Si02
#       7
#    16  16   8  16  16  16  16
#     4   9  18  30  44  68  96 123 163 201 230 279
#     4   8  15  28  44  64  93 130 166 193 224 271
#     4  11  22  34  49  69  98 133 161 187 225 277
#     4   9  18  34  52  67  89 122 155 199 252 285
#     4  11  20  32  47  71  94 121 162 201 238 287
#     4  10  19  28  43  67 100 137 160 188 231 280
#     4   9  17  30  48  69  95 125 159 199 235 274
#
# _framework density 16.323841999999999
#
# number of rings (size 3 to 8) (size 9 to 14) (size 15 to 20)
#    0.000    2.538    0.769    3.231    1.077    3.385 
#    0.000    4.615    0.000    2.308    0.000    8.615 
#    0.000    4.923    0.000    0.000    0.000    0.000 
#
# Total GULP energy -644606.476060 kJ/mol
# GULP energy per Si atom -12396.278386 kJ/mol
# Density = 1.628669 g / cm^3
# Si number density = 16.323842 Si / 1000 Ang^3
#
#
#
# Elastic Constant Matrix: (Units=GPa)
#
#
# Indices 1 2 3 4 5 6 
#
# 1 99.2693 54.3900 46.3568 0.0000 0.0000 0.0000
# 2 54.3900 84.4951 38.0405 0.0000 0.0000 0.0000
# 3 46.3568 38.0405 90.3411 0.0000 0.0000 0.0000
# 4 0.0000 0.0000 0.0000 15.1336 0.0000 0.0000
# 5 0.0000 0.0000 0.0000 0.0000 8.0773 0.0000
# 6 0.0000 0.0000 0.0000 0.0000 0.0000 12.4405
#
#
#
# Elastic Compliance Matrix: (Units=1/GPa)
#
#
# Indices 1 2 3 4 5 6 
#
# 1 0.017323 -0.008821 -0.005175 0.000000 0.000000 0.000000
# 2 -0.008821 0.019096 -0.003514 0.000000 0.000000 0.000000
# 3 -0.005175 -0.003514 0.015204 0.000000 0.000000 0.000000
# 4 0.000000 0.000000 0.000000 0.066078 0.000000 0.000000
# 5 0.000000 0.000000 0.000000 0.000000 0.123804 0.000000
# 6 0.000000 0.000000 0.000000 0.000000 0.000000 0.080383
#
#
# Mechanical properties :
#
#
# Convention : Reuss Voigt Hill
#
# Bulk Modulus (GPa) = 60.23159 61.29779 60.76469
# Shear Modulus (GPa) = 13.79530 16.15150 14.97340
#
# Velocity S-wave (km/s) = 2.91022 3.14895 3.03193
# Velocity P-wave (km/s) = 6.94770 7.13119 7.04004
#
# Compressibility (1/GPa) = 0.01660258
#
# Stress axis : x y z
#
# Youngs Moduli (GPa) = 57.72543 52.36827 65.77165
#
# Poissons Ratio (x) = 0.46197 0.34034
# Poissons Ratio (y) = 0.50922 0.23113
# Poissons Ratio (z) = 0.29871 0.18403
#
# Static dielectric constant tensor:
#      x y z
#    x 3.332670 0.000000 0.000000 
#    y 0.000000 3.159050 0.000000 
#    z 0.000000 0.000000 2.822790 
# 
# 
# High freq. dielectric constant tensor:
#      x y z
#    x 1.632560 0.000000 0.000000 
#    y 0.000000 1.632130 0.000000 
#    z 0.000000 0.000000 1.585040 
# 
# From -- ./inp_files/45938.got.cif
#   From: 2010.03.12/outbox.cif.g09.slc.cpg/sg65_23_cif.got.tgz:45938.got - 2010.04.10 20:52:16.
