data_PCOD8267313
_publ_section_title
;
Structure prediction by ZEFSAII (Michael W. Deem and Ramdas Pophale) SiO2 
 PCOD8267313
Probable space group: C M M M
;
_chemical_formula_sum "Si O2"
_cell_formula_units_Z 120
_cell_length_a 9.665412
_cell_length_b 27.961750
_cell_length_c 28.456395
_cell_angle_alpha 90.000000
_cell_angle_beta 90.000000
_cell_angle_gamma 90.000000
_cell_volume 7690.677501
_symmetry_space_group_name_H-M "C M M M"
_symmetry_group_IT_number 65
_symmetry_cell_setting 'orthorhombic'
loop_
_space_group_symop_operation_xyz
x,y,z
-x,-y,z
x,-y,-z
-x,y,-z
-x,-y,-z
x,y,-z
-x,y,z
x,-y,z
1/2+x,1/2+y,z
1/2-x,1/2-y,z
1/2+x,1/2-y,-z
1/2-x,1/2+y,-z
1/2-x,1/2-y,-z
1/2+x,1/2+y,-z
1/2-x,1/2+y,z
1/2+x,1/2-y,z
loop_
_atom_site_type_symbol
_atom_site_label
_atom_site_fract_x
_atom_site_fract_y
_atom_site_fract_z
Si Si1 0.161297 0.702373 0.223636
Si Si2 0.338785 0.862569 0.687493
Si Si3 0.340589 0.554461 0.278870
Si Si4 0.660046 0.863223 0.136444
Si Si5 0.340689 0.445635 0.829536
Si Si6 0.658946 0.205300 0.946543
Si Si7 0.839603 0.702213 0.601815
Si Si8 0.344461 0.204871 0.500000
O O1 0.250000 0.750000 0.225617
O O2 0.199302 0.670932 0.268778
O O3 0.204387 0.673202 0.177378
O O4 0.000000 0.716292 0.222898
O O5 0.500000 0.875617 0.687225
O O6 0.254334 0.911717 0.689503
O O7 0.291460 0.836305 0.639926
O O8 0.500000 0.568749 0.286014
O O9 0.315440 0.500000 0.294995
O O10 0.297891 0.560561 0.224636
O O11 0.500000 0.877061 0.141842
O O12 0.747449 0.911636 0.138494
O O13 0.693032 0.839675 0.086223
O O14 0.500000 0.431548 0.836682
O O15 0.314666 0.500000 0.845740
O O16 0.500000 0.220941 0.940728
O O17 0.750000 0.250000 0.930162
O O18 0.693429 0.190363 0.000000
O O19 0.750000 0.750000 0.607531
O O20 0.818107 0.677648 0.549727
O O21 0.000000 0.716004 0.610328
O O22 0.500000 0.224426 0.500000
O O23 0.250000 0.250000 0.500000
#
# Coordination Sequence:
#
# PCOD8267313 Si02
#       8
#    16  16  16  16  16  16  16   8
#     4  10  20  30  40  60  90 120 148 176 209 256
#     4  10  19  30  43  64  92 119 147 181 220 264
#     4   9  18  32  48  66  88 115 148 184 222 266
#     4  10  19  31  47  68  92 118 150 184 221 263
#     4   9  18  32  49  69  91 115 147 185 223 266
#     4   9  18  32  49  69  93 120 152 189 223 258
#     4   9  17  28  43  63  89 120 153 186 220 259
#     4   8  14  26  42  60  83 114 151 189 222 253
#
# _framework density 15.603306
#
# number of rings (size 3 to 8) (size 9 to 14) (size 15 to 20)
#    0.000    2.667    1.333    1.600    0.000    2.667 
#    0.000    1.333    0.000    0.400    0.000    3.267 
#    0.000    3.733    0.000    0.000    0.000    0.000 
#
# Total GULP energy -743852.804545 kJ/mol
# GULP energy per Si atom -12397.546742 kJ/mol
# Density = 1.556779 g / cm^3
# Si number density = 15.603306 Si / 1000 Ang^3
#
#
#
# Elastic Constant Matrix: (Units=GPa)
#
#
# Indices 1 2 3 4 5 6 
#
# 1 59.0167 56.7292 38.3278 0.0000 0.0000 0.0000
# 2 56.7292 100.3357 51.6540 0.0000 0.0000 0.0000
# 3 38.3278 51.6540 97.1525 0.0000 0.0000 0.0000
# 4 0.0000 0.0000 0.0000 16.4726 0.0000 0.0000
# 5 0.0000 0.0000 0.0000 0.0000 16.1769 0.0000
# 6 0.0000 0.0000 0.0000 0.0000 0.0000 35.0318
#
#
#
# Elastic Compliance Matrix: (Units=1/GPa)
#
#
# Indices 1 2 3 4 5 6 
#
# 1 0.038816 -0.019363 -0.005019 0.000000 0.000000 0.000000
# 2 -0.019363 0.023381 -0.004793 0.000000 0.000000 0.000000
# 3 -0.005019 -0.004793 0.014821 0.000000 0.000000 0.000000
# 4 0.000000 0.000000 0.000000 0.060707 0.000000 0.000000
# 5 0.000000 0.000000 0.000000 0.000000 0.061817 0.000000
# 6 0.000000 0.000000 0.000000 0.000000 0.000000 0.028545
#
#
# Mechanical properties :
#
#
# Convention : Reuss Voigt Hill
#
# Bulk Modulus (GPa) = 53.55999 61.10300 57.33150
# Shear Modulus (GPa) = 17.08477 20.85584 18.97030
#
# Velocity S-wave (km/s) = 3.31259 3.65996 3.49060
# Velocity P-wave (km/s) = 7.00225 7.55683 7.28482
#
# Compressibility (1/GPa) = 0.01867065
#
# Stress axis : x y z
#
# Youngs Moduli (GPa) = 25.76276 42.76915 67.47128
#
# Poissons Ratio (x) = 0.82812 0.33861
# Poissons Ratio (y) = 0.49883 0.32336
# Poissons Ratio (z) = 0.12929 0.20498
#
# Static dielectric constant tensor:
#      x y z
#    x 2.970880 0.000000 0.000000 
#    y 0.000000 2.823400 0.000000 
#    z 0.000000 0.000000 3.210650 
# 
# 
# High freq. dielectric constant tensor:
#      x y z
#    x 1.603140 0.000000 0.000000 
#    y 0.000000 1.578270 0.000000 
#    z 0.000000 0.000000 1.594180 
# 
# From -- ./inp_files/74490.got.cif
#   From: 2010.03.12/outbox.cif.g09.slc.cpg/sg65_38_cif.got.tgz:74490.got - 2010.04.10 20:52:16.
