data_PCOD8267584
_publ_section_title
;
Structure prediction by ZEFSAII (Michael W. Deem and Ramdas Pophale) SiO2 
 PCOD8267584
Probable space group: C M M M
;
_chemical_formula_sum "Si O2"
_cell_formula_units_Z 104
_cell_length_a 10.119266
_cell_length_b 18.008629
_cell_length_c 30.811768
_cell_angle_alpha 90.000000
_cell_angle_beta 90.000000
_cell_angle_gamma 90.000000
_cell_volume 5614.955031
_symmetry_space_group_name_H-M "C M M M"
_symmetry_group_IT_number 65
_symmetry_cell_setting 'orthorhombic'
loop_
_space_group_symop_operation_xyz
x,y,z
-x,-y,z
x,-y,-z
-x,y,-z
-x,-y,-z
x,y,-z
-x,y,z
x,-y,z
1/2+x,1/2+y,z
1/2-x,1/2-y,z
1/2+x,1/2-y,-z
1/2-x,1/2+y,-z
1/2-x,1/2-y,-z
1/2+x,1/2+y,-z
1/2-x,1/2+y,z
1/2+x,1/2-y,z
loop_
_atom_site_type_symbol
_atom_site_label
_atom_site_fract_x
_atom_site_fract_y
_atom_site_fract_z
Si Si1 0.845086 0.917795 0.289532
Si Si2 0.842712 0.179609 0.628251
Si Si3 0.352862 0.418487 0.127914
Si Si4 0.739058 0.662722 0.049852
Si Si5 0.500000 0.082011 0.051296
Si Si6 0.341207 0.321905 0.207004
Si Si7 0.156489 0.917448 0.451871
O O1 0.805113 0.877030 0.333691
O O2 0.799256 0.870107 0.248458
O O3 0.000000 0.927863 0.287538
O O4 0.779105 0.000000 0.288352
O O5 0.750000 0.250000 0.635288
O O6 0.795302 0.141917 0.583364
O O7 0.000000 0.199792 0.628590
O O8 0.500000 0.433440 0.144016
O O9 0.282750 0.500000 0.123308
O O10 0.365137 0.374999 0.081851
O O11 0.288840 0.366907 0.164778
O O12 0.750000 0.750000 0.055969
O O13 0.874892 0.627828 0.066956
O O14 0.703974 0.642671 0.000000
O O15 0.500000 0.000000 0.072063
O O16 0.500000 0.076504 0.000000
O O17 0.500000 0.303533 0.205858
O O18 0.250000 0.250000 0.208821
O O19 0.203618 0.892164 0.500000
O O20 0.000000 0.921898 0.450071
O O21 0.212820 0.000000 0.441539
#
# Coordination Sequence:
#
# PCOD8267584 Si02
#       7
#    16  16  16  16   8  16  16
#     4   9  17  31  54  79 100 129 171 213 250 294
#     4  10  19  30  47  73 102 131 168 211 255 305
#     4  10  21  36  54  76 102 132 167 205 247 297
#     4  10  21  35  54  78 105 134 169 210 252 299
#     4   9  18  34  54  74 101 137 171 203 248 306
#     4  10  20  36  57  79 105 134 165 205 254 304
#     4   8  14  26  45  68  94 127 170 218 260 298
#
# _framework density 18.521964000000001
#
# number of rings (size 3 to 8) (size 9 to 14) (size 15 to 20)
#    0.000    2.538    0.000    2.769    1.077    5.231 
#    1.385    0.769    0.000    4.154    0.000    1.077 
#    0.000    0.000    0.000    0.000    0.000    0.000 
#
# Total GULP energy -644356.633377 kJ/mol
# GULP energy per Si atom -12391.473719 kJ/mol
# Density = 1.847981 g / cm^3
# Si number density = 18.521964 Si / 1000 Ang^3
#
#
#
# Elastic Constant Matrix: (Units=GPa)
#
#
# Indices 1 2 3 4 5 6 
#
# 1 43.0550 40.0709 20.9617 0.0000 0.0000 0.0000
# 2 40.0709 164.3432 80.8888 0.0000 0.0000 0.0000
# 3 20.9617 80.8888 141.2983 0.0000 0.0000 0.0000
# 4 0.0000 0.0000 0.0000 -390.3979 0.0000 0.0000
# 5 0.0000 0.0000 0.0000 0.0000 13.1353 0.0000
# 6 0.0000 0.0000 0.0000 0.0000 0.0000 27.2623
#
#
#
# Elastic Compliance Matrix: (Units=1/GPa)
#
#
# Indices 1 2 3 4 5 6 
#
# 1 0.030057 -0.007148 -0.000367 0.000000 0.000000 0.000000
# 2 -0.007148 0.010172 -0.004763 0.000000 0.000000 0.000000
# 3 -0.000367 -0.004763 0.009858 0.000000 0.000000 0.000000
# 4 0.000000 0.000000 0.000000 -0.002561 0.000000 0.000000
# 5 0.000000 0.000000 0.000000 0.000000 0.076131 0.000000
# 6 0.000000 0.000000 0.000000 0.000000 0.000000 0.036681
#
#
# Mechanical properties :
#
#
# Convention : Reuss Voigt Hill
#
# Bulk Modulus (GPa) = 39.16659 70.28217 54.72438
# Shear Modulus (GPa) = 25.85270 -56.21505 -15.18118
#
# Velocity S-wave (km/s) = 3.74008 -5.51510 -2.86603
# Velocity P-wave (km/s) = 6.31212 1.58980 4.31945
#
# Compressibility (1/GPa) = 0.02553197
#
# Stress axis : x y z
#
# Youngs Moduli (GPa) = 33.26962 98.31048 101.43912
#
# Poissons Ratio (x) = 0.70273 0.03723
# Poissons Ratio (y) = 0.23782 0.48312
# Poissons Ratio (z) = 0.01221 0.46822
#
# Static dielectric constant tensor:
#      x y z
#    x 3.001430 0.000000 0.000000 
#    y 0.000000 3.656100 0.000000 
#    z 0.000000 0.000000 3.647550 
# 
# 
# High freq. dielectric constant tensor:
#      x y z
#    x 1.668220 0.000000 0.000000 
#    y 0.000000 1.732510 0.000000 
#    z 0.000000 0.000000 1.729050 
# 
# From -- ./inp_files/77424.got.cif
#   From: 2010.03.12/outbox.cif.g09.slc.cpg/sg65_39_cif.got.tgz:77424.got - 2010.04.10 20:52:16.
