data_PCOD8267940
_publ_section_title
;
Structure prediction by ZEFSAII (Michael W. Deem and Ramdas Pophale) SiO2 
 PCOD8267940
Probable space group: C M M M
;
_chemical_formula_sum "Si O2"
_cell_formula_units_Z 80
_cell_length_a 19.559493
_cell_length_b 18.997315
_cell_length_c 12.597779
_cell_angle_alpha 90.000000
_cell_angle_beta 90.000000
_cell_angle_gamma 90.000000
_cell_volume 4681.055633
_symmetry_space_group_name_H-M "C M M M"
_symmetry_group_IT_number 65
_symmetry_cell_setting 'orthorhombic'
loop_
_space_group_symop_operation_xyz
x,y,z
-x,-y,z
x,-y,-z
-x,y,-z
-x,-y,-z
x,y,-z
-x,y,z
x,-y,z
1/2+x,1/2+y,z
1/2-x,1/2-y,z
1/2+x,1/2-y,-z
1/2-x,1/2+y,-z
1/2-x,1/2-y,-z
1/2+x,1/2+y,-z
1/2-x,1/2+y,z
1/2+x,1/2-y,z
loop_
_atom_site_type_symbol
_atom_site_label
_atom_site_fract_x
_atom_site_fract_y
_atom_site_fract_z
Si Si1 0.139679 0.732315 0.000000
Si Si2 0.733675 0.922085 0.620576
Si Si3 0.665392 0.579136 0.806123
Si Si4 0.824320 0.278640 0.378012
Si Si5 0.739497 0.363768 0.000000
Si Si6 0.920738 0.213065 0.205974
O O1 0.180566 0.658194 0.000000
O O2 0.194137 0.794342 0.000000
O O3 0.092739 0.737374 0.104409
O O4 0.760301 0.914674 0.500000
O O5 0.800069 0.909111 0.692144
O O6 0.675805 0.863143 0.641621
O O7 0.702281 0.000000 0.641836
O O8 0.636090 0.500000 0.816952
O O9 0.723332 0.590940 0.895450
O O10 0.603090 0.633392 0.819165
O O11 0.839936 0.259630 0.500000
O O12 0.750000 0.250000 0.343368
O O13 0.882145 0.243948 0.307261
O O14 0.000000 0.211865 0.233422
#
# Coordination Sequence:
#
# PCOD8267940 Si02
#       6
#     8  16  16  16   8  16
#     4   9  19  32  51  71  98 130 168 218 260 297
#     4   9  17  30  51  77 101 127 164 213 264 308
#     4  10  19  31  48  73 105 136 171 209 252 304
#     4  10  19  33  54  77 102 134 174 221 266 303
#     4   9  17  30  51  75  93 125 170 218 256 290
#     4  11  22  34  50  74 107 143 177 209 254 313
#
# _framework density 17.090161999999999
#
# number of rings (size 3 to 8) (size 9 to 14) (size 15 to 20)
#    0.000    2.200    2.000    1.800    2.800    0.800 
#    0.000    0.000    0.000    4.200    0.000    7.000 
#    0.000    8.000    0.000    0.000    0.000    0.000 
#
# Total GULP energy -495947.512778 kJ/mol
# GULP energy per Si atom -12398.687819 kJ/mol
# Density = 1.705126 g / cm^3
# Si number density = 17.090162 Si / 1000 Ang^3
#
#
#
# Elastic Constant Matrix: (Units=GPa)
#
#
# Indices 1 2 3 4 5 6 
#
# 1 107.8321 56.1618 54.5468 0.0000 0.0000 0.0000
# 2 56.1618 94.0911 42.6711 0.0000 0.0000 0.0000
# 3 54.5468 42.6711 99.7245 0.0000 0.0000 0.0000
# 4 0.0000 0.0000 0.0000 23.1750 0.0000 0.0000
# 5 0.0000 0.0000 0.0000 0.0000 16.3178 0.0000
# 6 0.0000 0.0000 0.0000 0.0000 0.0000 17.2905
#
#
#
# Elastic Compliance Matrix: (Units=1/GPa)
#
#
# Indices 1 2 3 4 5 6 
#
# 1 0.015676 -0.006785 -0.005671 0.000000 0.000000 0.000000
# 2 -0.006785 0.016124 -0.003188 0.000000 0.000000 0.000000
# 3 -0.005671 -0.003188 0.014494 0.000000 0.000000 0.000000
# 4 0.000000 0.000000 0.000000 0.043150 0.000000 0.000000
# 5 0.000000 0.000000 0.000000 0.000000 0.061283 0.000000
# 6 0.000000 0.000000 0.000000 0.000000 0.000000 0.057835
#
#
# Mechanical properties :
#
#
# Convention : Reuss Voigt Hill
#
# Bulk Modulus (GPa) = 66.64336 67.60080 67.12208
# Shear Modulus (GPa) = 20.42053 21.24121 20.83087
#
# Velocity S-wave (km/s) = 3.46044 3.52929 3.49503
# Velocity P-wave (km/s) = 7.41930 7.49994 7.45973
#
# Compressibility (1/GPa) = 0.01500525
#
# Stress axis : x y z
#
# Youngs Moduli (GPa) = 63.79042 62.02070 68.99520
#
# Poissons Ratio (x) = 0.42081 0.39129
# Poissons Ratio (y) = 0.43282 0.21995
# Poissons Ratio (z) = 0.36178 0.19772
#
# Static dielectric constant tensor:
#      x y z
#    x 2.770540 0.000000 0.000000 
#    y 0.000000 3.483360 0.000000 
#    z 0.000000 0.000000 3.353740 
# 
# 
# High freq. dielectric constant tensor:
#      x y z
#    x 1.606090 0.000000 0.000000 
#    y 0.000000 1.666680 0.000000 
#    z 0.000000 0.000000 1.678320 
# 
# From -- ./inp_files/26664.got.cif
#   From: 2010.03.12/outbox.cif.g09.slc.cpg/sg65_14_cif.got.tgz:26664.got - 2010.04.10 20:52:16.
