data_PCOD8267680
_publ_section_title
;
Structure prediction by ZEFSAII (Michael W. Deem and Ramdas Pophale) SiO2 
 PCOD8267680
Probable space group: C M M M
;
_chemical_formula_sum "Si O2"
_cell_formula_units_Z 64
_cell_length_a 7.992838
_cell_length_b 38.608233
_cell_length_c 12.886989
_cell_angle_alpha 90.000000
_cell_angle_beta 90.000000
_cell_angle_gamma 90.000000
_cell_volume 3976.787583
_symmetry_space_group_name_H-M "C M M M"
_symmetry_group_IT_number 65
_symmetry_cell_setting 'orthorhombic'
loop_
_space_group_symop_operation_xyz
x,y,z
-x,-y,z
x,-y,-z
-x,y,-z
-x,-y,-z
x,y,-z
-x,y,z
x,-y,z
1/2+x,1/2+y,z
1/2-x,1/2-y,z
1/2+x,1/2-y,-z
1/2-x,1/2+y,-z
1/2-x,1/2-y,-z
1/2+x,1/2+y,-z
1/2-x,1/2+y,z
1/2+x,1/2-y,z
loop_
_atom_site_type_symbol
_atom_site_label
_atom_site_fract_x
_atom_site_fract_y
_atom_site_fract_z
Si Si1 0.303702 0.289054 0.500000
Si Si2 0.808000 0.654825 0.116248
Si Si3 0.197666 0.210353 0.275803
Si Si4 0.000000 0.539228 0.123893
Si Si5 0.815175 0.082084 0.123299
O O1 0.500000 0.291509 0.500000
O O2 0.250000 0.250000 0.500000
O O3 0.240343 0.304536 0.389475
O O4 0.785437 0.688018 0.188014
O O5 0.707521 0.621762 0.160812
O O6 0.000000 0.643508 0.113583
O O7 0.746661 0.664496 0.000000
O O8 0.250000 0.250000 0.260463
O O9 0.000000 0.207022 0.264186
O O10 0.168086 0.557628 0.168497
O O11 0.000000 0.500000 0.165009
O O12 0.000000 0.540361 0.000000
O O13 0.000000 0.069158 0.159760
O O14 0.802183 0.081452 0.000000
#
# Coordination Sequence:
#
# PCOD8267680 Si02
#       5
#     8  16  16   8  16
#     4   8  16  30  46  62  82 106 136 179 228 277
#     4  10  19  31  45  61  85 117 151 188 226 266
#     4  10  19  31  46  64  84 110 146 186 230 273
#     4   9  16  26  40  60  86 113 147 189 221 258
#     4   9  16  27  42  59  82 115 150 181 221 268
#
# _framework density 16.093392000000001
#
# number of rings (size 3 to 8) (size 9 to 14) (size 15 to 20)
#    0.000    2.625    1.250    1.500    0.000    3.500 
#    0.000    2.500    0.000    0.000    0.000    0.000 
#    0.000    0.000    0.000    2.250    0.000   14.500 
#
# Total GULP energy -396437.515501 kJ/mol
# GULP energy per Si atom -12388.672359 kJ/mol
# Density = 1.605676 g / cm^3
# Si number density = 16.093392 Si / 1000 Ang^3
#
#
#
# Elastic Constant Matrix: (Units=GPa)
#
#
# Indices 1 2 3 4 5 6 
#
# 1 90.0410 41.0697 19.4764 0.0000 0.0000 0.0000
# 2 41.0697 90.4915 38.3014 0.0000 0.0000 0.0000
# 3 19.4764 38.3014 66.7525 0.0000 0.0000 0.0000
# 4 0.0000 0.0000 0.0000 1.6424 0.0000 0.0000
# 5 0.0000 0.0000 0.0000 0.0000 9.9399 0.0000
# 6 0.0000 0.0000 0.0000 0.0000 0.0000 22.3783
#
#
#
# Elastic Compliance Matrix: (Units=1/GPa)
#
#
# Indices 1 2 3 4 5 6 
#
# 1 0.014022 -0.006118 -0.000581 0.000000 0.000000 0.000000
# 2 -0.006118 0.017265 -0.008121 0.000000 0.000000 0.000000
# 3 -0.000581 -0.008121 0.019810 0.000000 0.000000 0.000000
# 4 0.000000 0.000000 0.000000 0.608873 0.000000 0.000000
# 5 0.000000 0.000000 0.000000 0.000000 0.100605 0.000000
# 6 0.000000 0.000000 0.000000 0.000000 0.000000 0.044686
#
#
# Mechanical properties :
#
#
# Convention : Reuss Voigt Hill
#
# Bulk Modulus (GPa) = 46.60520 49.44222 48.02371
# Shear Modulus (GPa) = 5.93786 16.68794 11.31290
#
# Velocity S-wave (km/s) = 1.92292 3.22365 2.65420
# Velocity P-wave (km/s) = 5.82686 6.68167 6.26885
#
# Compressibility (1/GPa) = 0.02145683
#
# Stress axis : x y z
#
# Youngs Moduli (GPa) = 71.31473 57.92103 50.47972
#
# Poissons Ratio (x) = 0.35438 0.02932
# Poissons Ratio (y) = 0.43632 0.40995
# Poissons Ratio (z) = 0.04142 0.47039
#
# Static dielectric constant tensor:
#      x y z
#    x 3.325410 0.000000 0.000000 
#    y 0.000000 2.964740 0.000000 
#    z 0.000000 0.000000 3.025880 
# 
# 
# High freq. dielectric constant tensor:
#      x y z
#    x 1.637640 0.000000 0.000000 
#    y 0.000000 1.595890 0.000000 
#    z 0.000000 0.000000 1.570670 
# 
# From -- ./inp_files/36842.got.cif
#   From: 2010.03.12/outbox.cif.g09.slc.cpg/sg65_19_cif.got.tgz:36842.got - 2010.04.10 20:52:16.
