data_PCOD8267371
_publ_section_title
;
Structure prediction by ZEFSAII (Michael W. Deem and Ramdas Pophale) SiO2 
 PCOD8267371
Probable space group: C M M M
;
_chemical_formula_sum "Si O2"
_cell_formula_units_Z 88
_cell_length_a 18.222708
_cell_length_b 8.789051
_cell_length_c 29.127349
_cell_angle_alpha 90.000000
_cell_angle_beta 90.000000
_cell_angle_gamma 90.000000
_cell_volume 4665.045244
_symmetry_space_group_name_H-M "C M M M"
_symmetry_group_IT_number 65
_symmetry_cell_setting 'orthorhombic'
loop_
_space_group_symop_operation_xyz
x,y,z
-x,-y,z
x,-y,-z
-x,y,-z
-x,-y,-z
x,y,-z
-x,y,z
x,-y,z
1/2+x,1/2+y,z
1/2-x,1/2-y,z
1/2+x,1/2-y,-z
1/2-x,1/2+y,-z
1/2-x,1/2-y,-z
1/2+x,1/2+y,-z
1/2-x,1/2+y,z
1/2+x,1/2-y,z
loop_
_atom_site_type_symbol
_atom_site_label
_atom_site_fract_x
_atom_site_fract_y
_atom_site_fract_z
Si Si1 0.582379 0.319122 0.822571
Si Si2 0.082679 0.817850 0.353141
Si Si3 0.830089 0.180802 0.911135
Si Si4 0.829321 0.180761 0.265803
Si Si5 0.417434 0.319116 0.000000
Si Si6 0.087214 0.829347 0.548585
O O1 0.500000 0.252462 0.824623
O O2 0.579386 0.500000 0.823454
O O3 0.628074 0.258538 0.866043
O O4 0.620676 0.261214 0.776109
O O5 0.135298 0.756989 0.313030
O O6 0.112664 0.753734 0.402885
O O7 0.000000 0.759605 0.343335
O O8 0.082460 0.000000 0.354675
O O9 0.750000 0.250000 0.912472
O O10 0.875085 0.240268 0.955109
O O11 0.823776 0.000000 0.911036
O O12 0.750000 0.250000 0.259428
O O13 0.823783 0.000000 0.266115
O O14 0.420589 0.500000 0.000000
O O15 0.500000 0.252693 0.000000
O O16 0.111544 0.746923 0.500000
O O17 0.000000 0.834834 0.550927
O O18 0.118502 0.000000 0.546520
#
# Coordination Sequence:
#
# PCOD8267371 Si02
#       6
#    16  16  16  16   8  16
#     4   9  17  30  49  70  88 111 148 187 217 250
#     4   8  13  22  38  59  80 105 140 177 210 247
#     4  10  19  31  49  71  95 121 148 182 222 263
#     4  10  19  30  45  64  87 114 142 175 214 256
#     4   9  17  30  49  71  92 119 158 194 218 247
#     4   7   9  14  27  50  78 102 126 165 214 251
#
# _framework density 18.863697999999999
#
# number of rings (size 3 to 8) (size 9 to 14) (size 15 to 20)
#    0.000    3.182    0.000    3.545    0.000    4.364 
#    0.000    0.000    0.000    6.545    0.000    0.000 
#    0.000    0.000    0.000    4.545    0.000    3.636 
#
# Total GULP energy -545099.070168 kJ/mol
# GULP energy per Si atom -12388.615231 kJ/mol
# Density = 1.882076 g / cm^3
# Si number density = 18.863698 Si / 1000 Ang^3
#
#
#
# Elastic Constant Matrix: (Units=GPa)
#
#
# Indices 1 2 3 4 5 6 
#
# 1 149.2926 12.6394 96.0650 0.0000 0.0000 0.0000
# 2 12.6394 6.5730 14.4316 0.0000 0.0000 0.0000
# 3 96.0650 14.4316 223.3890 0.0000 0.0000 0.0000
# 4 0.0000 0.0000 0.0000 4.1342 0.0000 0.0000
# 5 0.0000 0.0000 0.0000 0.0000 17.9264 0.0000
# 6 0.0000 0.0000 0.0000 0.0000 0.0000 21.3424
#
#
#
# Elastic Compliance Matrix: (Units=1/GPa)
#
#
# Indices 1 2 3 4 5 6 
#
# 1 0.009936 -0.011332 -0.003541 0.000000 0.000000 0.000000
# 2 -0.011332 0.190209 -0.007415 0.000000 0.000000 0.000000
# 3 -0.003541 -0.007415 0.006478 0.000000 0.000000 0.000000
# 4 0.000000 0.000000 0.000000 0.241888 0.000000 0.000000
# 5 0.000000 0.000000 0.000000 0.000000 0.055784 0.000000
# 6 0.000000 0.000000 0.000000 0.000000 0.000000 0.046855
#
#
# Mechanical properties :
#
#
# Convention : Reuss Voigt Hill
#
# Bulk Modulus (GPa) = 6.17102 69.50296 37.83699
# Shear Modulus (GPa) = 7.69537 25.75516 16.72526
#
# Velocity S-wave (km/s) = 2.02196 3.69904 2.98088
# Velocity P-wave (km/s) = 2.95458 7.42756 5.65236
#
# Compressibility (1/GPa) = 0.16204779
#
# Stress axis : x y z
#
# Youngs Moduli (GPa) = 100.64398 5.25736 154.36495
#
# Poissons Ratio (x) = 0.05958 0.54656
# Poissons Ratio (y) = 1.14053 1.14459
# Poissons Ratio (z) = 0.35635 0.03898
#
# Static dielectric constant tensor:
#      x y z
#    x 3.336650 0.000000 0.000000 
#    y 0.000000 2.716080 0.000000 
#    z 0.000000 0.000000 4.203800 
# 
# 
# High freq. dielectric constant tensor:
#      x y z
#    x 1.717560 0.000000 0.000000 
#    y 0.000000 1.651530 0.000000 
#    z 0.000000 0.000000 1.768060 
# 
# From -- ./inp_files/74750.got.cif
#   From: 2010.03.12/outbox.cif.g09.slc.cpg/sg65_38_cif.got.tgz:74750.got - 2010.04.10 20:52:16.
