data_PCOD8267324
_publ_section_title
;
Structure prediction by ZEFSAII (Michael W. Deem and Ramdas Pophale) SiO2 
 PCOD8267324
Probable space group: C M M M
;
_chemical_formula_sum "Si O2"
_cell_formula_units_Z 112
_cell_length_a 33.432285
_cell_length_b 14.521000
_cell_length_c 14.030887
_cell_angle_alpha 90.000000
_cell_angle_beta 90.000000
_cell_angle_gamma 90.000000
_cell_volume 6811.577665
_symmetry_space_group_name_H-M "C M M M"
_symmetry_group_IT_number 65
_symmetry_cell_setting 'orthorhombic'
loop_
_space_group_symop_operation_xyz
x,y,z
-x,-y,z
x,-y,-z
-x,y,-z
-x,-y,-z
x,y,-z
-x,y,z
x,-y,z
1/2+x,1/2+y,z
1/2-x,1/2-y,z
1/2+x,1/2-y,-z
1/2-x,1/2+y,-z
1/2-x,1/2-y,-z
1/2+x,1/2+y,-z
1/2-x,1/2+y,z
1/2+x,1/2-y,z
loop_
_atom_site_type_symbol
_atom_site_label
_atom_site_fract_x
_atom_site_fract_y
_atom_site_fract_z
Si Si1 0.880755 0.718198 0.886650
Si Si2 0.850744 0.890789 0.799863
Si Si3 0.455854 0.102622 0.112878
Si Si4 0.677064 0.398424 0.602583
Si Si5 0.232083 0.108617 0.105008
Si Si6 0.235915 0.353316 0.607229
Si Si7 0.190029 0.607301 0.210962
O O1 0.882062 0.826613 0.856927
O O2 0.923017 0.676025 0.853019
O O3 0.847258 0.665468 0.826037
O O4 0.873481 0.707060 0.000000
O O5 0.849166 0.857127 0.689139
O O6 0.807605 0.863810 0.839889
O O7 0.860779 0.000000 0.812695
O O8 0.500000 0.131868 0.150763
O O9 0.445060 0.000000 0.150892
O O10 0.456524 0.099989 0.000000
O O11 0.672439 0.344338 0.500000
O O12 0.660030 0.500000 0.588225
O O13 0.723816 0.410134 0.631034
O O14 0.271111 0.147937 0.157294
O O15 0.236062 0.000000 0.099265
O O16 0.229842 0.152332 0.000000
O O17 0.220812 0.373961 0.500000
O O18 0.250000 0.250000 0.620103
O O19 0.199071 0.379235 0.676441
O O20 0.181849 0.500000 0.188756
#
# Coordination Sequence:
#
# PCOD8267324 Si02
#       7
#    16  16  16  16  16  16  16
#     4  11  22  32  47  70  95 124 155 191 234 280
#     4  10  19  32  46  64  93 127 164 199 229 271
#     4   8  15  31  54  75  94 117 147 185 230 280
#     4   9  16  28  46  62  78 111 161 207 241 271
#     4   9  17  28  40  55  82 125 165 191 220 263
#     4  10  19  30  44  61  83 116 160 205 246 285
#     4  11  21  31  44  65  92 120 156 203 245 279
#
# _framework density 16.442592000000001
#
# number of rings (size 3 to 8) (size 9 to 14) (size 15 to 20)
#    0.000    2.286    1.429    3.000    0.000    3.143 
#    0.000    1.429    0.000    0.429    0.000    2.000 
#    0.000    2.286    0.000   11.429    0.000    0.571 
#
# Total GULP energy -693810.314704 kJ/mol
# GULP energy per Si atom -12389.469905 kJ/mol
# Density = 1.640517 g / cm^3
# Si number density = 16.442592 Si / 1000 Ang^3
#
#
#
# Elastic Constant Matrix: (Units=GPa)
#
#
# Indices 1 2 3 4 5 6 
#
# 1 85.3413 45.2179 30.2230 0.0000 0.0000 0.0000
# 2 45.2179 74.7512 26.1355 0.0000 0.0000 0.0000
# 3 30.2230 26.1355 93.6545 0.0000 0.0000 0.0000
# 4 0.0000 0.0000 0.0000 17.9863 0.0000 0.0000
# 5 0.0000 0.0000 0.0000 0.0000 6.8642 0.0000
# 6 0.0000 0.0000 0.0000 0.0000 0.0000 21.9054
#
#
#
# Elastic Compliance Matrix: (Units=1/GPa)
#
#
# Indices 1 2 3 4 5 6 
#
# 1 0.018008 -0.009820 -0.003071 0.000000 0.000000 0.000000
# 2 -0.009820 0.020179 -0.002462 0.000000 0.000000 0.000000
# 3 -0.003071 -0.002462 0.012356 0.000000 0.000000 0.000000
# 4 0.000000 0.000000 0.000000 0.055598 0.000000 0.000000
# 5 0.000000 0.000000 0.000000 0.000000 0.145683 0.000000
# 6 0.000000 0.000000 0.000000 0.000000 0.000000 0.045651
#
#
# Mechanical properties :
#
#
# Convention : Reuss Voigt Hill
#
# Bulk Modulus (GPa) = 50.41180 50.76666 50.58923
# Shear Modulus (GPa) = 14.93464 19.49588 17.21526
#
# Velocity S-wave (km/s) = 3.01705 3.44713 3.23924
# Velocity P-wave (km/s) = 6.54696 6.84001 6.69509
#
# Compressibility (1/GPa) = 0.01983663
#
# Stress axis : x y z
#
# Youngs Moduli (GPa) = 55.53037 49.55751 80.93417
#
# Poissons Ratio (x) = 0.48664 0.24856
# Poissons Ratio (y) = 0.54529 0.19928
# Poissons Ratio (z) = 0.17054 0.12202
#
# Static dielectric constant tensor:
#      x y z
#    x 2.920760 0.000000 0.000000 
#    y 0.000000 3.200910 0.000000 
#    z 0.000000 0.000000 3.351880 
# 
# 
# High freq. dielectric constant tensor:
#      x y z
#    x 1.572830 0.000000 0.000000 
#    y 0.000000 1.637460 0.000000 
#    z 0.000000 0.000000 1.632640 
# 
# From -- ./inp_files/41370.got.cif
#   From: 2010.03.12/outbox.cif.g09.slc.cpg/sg65_21_cif.got.tgz:41370.got - 2010.04.10 20:52:16.
