data_PCOD8267820
_publ_section_title
;
Structure prediction by ZEFSAII (Michael W. Deem and Ramdas Pophale) SiO2 
 PCOD8267820
Probable space group: C M M M
;
_chemical_formula_sum "Si O2"
_cell_formula_units_Z 104
_cell_length_a 9.202113
_cell_length_b 25.623519
_cell_length_c 26.088591
_cell_angle_alpha 90.000000
_cell_angle_beta 90.000000
_cell_angle_gamma 90.000000
_cell_volume 6151.442367
_symmetry_space_group_name_H-M "C M M M"
_symmetry_group_IT_number 65
_symmetry_cell_setting 'orthorhombic'
loop_
_space_group_symop_operation_xyz
x,y,z
-x,-y,z
x,-y,-z
-x,y,-z
-x,-y,-z
x,y,-z
-x,y,z
x,-y,z
1/2+x,1/2+y,z
1/2-x,1/2-y,z
1/2+x,1/2-y,-z
1/2-x,1/2+y,-z
1/2-x,1/2-y,-z
1/2+x,1/2+y,-z
1/2-x,1/2+y,z
1/2+x,1/2-y,z
loop_
_atom_site_type_symbol
_atom_site_label
_atom_site_fract_x
_atom_site_fract_y
_atom_site_fract_z
Si Si1 0.669339 0.801589 0.270478
Si Si2 0.333384 0.603929 0.440076
Si Si3 0.828613 0.401721 0.207429
Si Si4 0.669844 0.500000 0.619204
Si Si5 0.169563 0.939646 0.000000
Si Si6 0.170975 0.697257 0.388363
Si Si7 0.828772 0.500000 0.726289
Si Si8 0.327907 0.439202 0.889283
O O1 0.500000 0.791338 0.264165
O O2 0.750000 0.750000 0.251191
O O3 0.722356 0.849169 0.235433
O O4 0.708504 0.814755 0.329197
O O5 0.312822 0.594896 0.500000
O O6 0.500000 0.618109 0.426640
O O7 0.284286 0.550850 0.412639
O O8 0.229228 0.650109 0.422222
O O9 0.776758 0.449569 0.242458
O O10 0.751551 0.404082 0.152605
O O11 0.000000 0.403456 0.198668
O O12 0.500000 0.500000 0.631086
O O13 0.754541 0.500000 0.671850
O O14 0.228392 0.917740 0.054637
O O15 0.000000 0.930182 0.000000
O O16 0.206333 0.000000 0.000000
O O17 0.250000 0.750000 0.406464
O O18 0.000000 0.703743 0.397504
O O19 0.000000 0.500000 0.717335
O O20 0.500000 0.432198 0.883896
O O21 0.285707 0.500000 0.882261
#
# Coordination Sequence:
#
# PCOD8267820 Si02
#       8
#    16  16  16   8   8  16   8  16
#     4   9  19  34  51  71  95 126 161 197 238 286
#     4  10  21  37  55  75 100 129 161 199 244 290
#     4  10  19  31  47  69 100 132 159 193 242 290
#     4  10  21  36  54  74  97 129 168 205 237 279
#     4   7  12  24  41  61  90 129 164 199 238 276
#     4  10  20  36  57  78 100 126 160 200 245 295
#     4  10  20  33  49  70 101 134 159 191 240 295
#     4   9  16  27  44  67  96 129 167 202 235 278
#
# _framework density 16.906604000000002
#
# number of rings (size 3 to 8) (size 9 to 14) (size 15 to 20)
#    0.000    2.538    0.769    2.538    0.000    5.231 
#    0.000    0.385    0.000    2.769    0.000    0.538 
#    0.000    0.000    0.000    0.000    0.000    0.000 
#
# Total GULP energy -644689.940904 kJ/mol
# GULP energy per Si atom -12397.883479 kJ/mol
# Density = 1.686812 g / cm^3
# Si number density = 16.906604 Si / 1000 Ang^3
#
#
#
# Elastic Constant Matrix: (Units=GPa)
#
#
# Indices 1 2 3 4 5 6 
#
# 1 44.2288 38.3822 40.8617 0.0000 0.0000 0.0000
# 2 38.3822 109.1890 60.9389 0.0000 0.0000 0.0000
# 3 40.8617 60.9389 127.3653 0.0000 0.0000 0.0000
# 4 0.0000 0.0000 0.0000 -35.7150 0.0000 0.0000
# 5 0.0000 0.0000 0.0000 0.0000 26.2530 0.0000
# 6 0.0000 0.0000 0.0000 0.0000 0.0000 26.8122
#
#
#
# Elastic Compliance Matrix: (Units=1/GPa)
#
#
# Indices 1 2 3 4 5 6 
#
# 1 0.037470 -0.008817 -0.007803 0.000000 0.000000 0.000000
# 2 -0.008817 0.014570 -0.004142 0.000000 0.000000 0.000000
# 3 -0.007803 -0.004142 0.012337 0.000000 0.000000 0.000000
# 4 0.000000 0.000000 0.000000 -0.027999 0.000000 0.000000
# 5 0.000000 0.000000 0.000000 0.000000 0.038091 0.000000
# 6 0.000000 0.000000 0.000000 0.000000 0.000000 0.037296
#
#
# Mechanical properties :
#
#
# Convention : Reuss Voigt Hill
#
# Bulk Modulus (GPa) = 43.75905 62.34986 53.05446
# Shear Modulus (GPa) = 31.07436 12.84340 21.95888
#
# Velocity S-wave (km/s) = 4.29184 2.75920 3.60784
# Velocity P-wave (km/s) = 7.10626 6.86367 6.98602
#
# Compressibility (1/GPa) = 0.02285241
#
# Stress axis : x y z
#
# Youngs Moduli (GPa) = 26.68832 68.63648 81.05923
#
# Poissons Ratio (x) = 0.60514 0.63248
# Poissons Ratio (y) = 0.23530 0.33577
# Poissons Ratio (z) = 0.20824 0.28431
#
# Static dielectric constant tensor:
#      x y z
#    x 3.035470 0.000000 0.000000 
#    y 0.000000 3.111380 0.000000 
#    z 0.000000 0.000000 3.341440 
# 
# 
# High freq. dielectric constant tensor:
#      x y z
#    x 1.642020 0.000000 0.000000 
#    y 0.000000 1.636530 0.000000 
#    z 0.000000 0.000000 1.658690 
# 
# From -- ./inp_files/73649.got.cif
#   From: 2010.03.12/outbox.cif.g09.slc.cpg/sg65_37_cif.got.tgz:73649.got - 2010.04.10 20:52:16.
