data_PCOD8267779
_publ_section_title
;
Structure prediction by ZEFSAII (Michael W. Deem and Ramdas Pophale) SiO2 
 PCOD8267779
Probable space group: C M M M
;
_chemical_formula_sum "Si O2"
_cell_formula_units_Z 88
_cell_length_a 27.339136
_cell_length_b 8.838723
_cell_length_c 21.470545
_cell_angle_alpha 90.000000
_cell_angle_beta 90.000000
_cell_angle_gamma 90.000000
_cell_volume 5188.207982
_symmetry_space_group_name_H-M "C M M M"
_symmetry_group_IT_number 65
_symmetry_cell_setting 'orthorhombic'
loop_
_space_group_symop_operation_xyz
x,y,z
-x,-y,z
x,-y,-z
-x,y,-z
-x,-y,-z
x,y,-z
-x,y,z
x,-y,z
1/2+x,1/2+y,z
1/2-x,1/2-y,z
1/2+x,1/2-y,-z
1/2-x,1/2+y,-z
1/2-x,1/2-y,-z
1/2+x,1/2+y,-z
1/2-x,1/2+y,z
1/2+x,1/2-y,z
loop_
_atom_site_type_symbol
_atom_site_label
_atom_site_fract_x
_atom_site_fract_y
_atom_site_fract_z
Si Si1 0.696976 0.822601 0.500000
Si Si2 0.944259 0.179043 0.315949
Si Si3 0.444509 0.679988 0.931963
Si Si4 0.853629 0.678854 0.627004
Si Si5 0.699530 0.677925 0.741824
Si Si6 0.896153 0.177424 0.190249
O O1 0.750000 0.750000 0.500000
O O2 0.665928 0.770917 0.559773
O O3 0.705331 0.000000 0.500000
O O4 0.908863 0.259103 0.365761
O O5 0.930128 0.237639 0.246701
O O6 0.000000 0.224602 0.330723
O O7 0.935965 0.000000 0.320718
O O8 0.500000 0.733126 0.920809
O O9 0.441741 0.500000 0.931354
O O10 0.411738 0.750611 0.876054
O O11 0.426181 0.738663 0.000000
O O12 0.853687 0.500000 0.635923
O O13 0.817116 0.751568 0.676801
O O14 0.705419 0.500000 0.732031
O O15 0.750000 0.750000 0.764391
O O16 0.660223 0.716529 0.795612
O O17 0.904578 0.000000 0.185650
#
# Coordination Sequence:
#
# PCOD8267779 Si02
#       6
#     8  16  16  16  16  16
#     4  10  22  36  51  70  91 117 146 181 227 274
#     4   9  17  30  48  69  94 124 156 188 223 263
#     4   8  12  18  32  57  87 116 145 178 218 263
#     4  10  20  34  50  70  94 118 148 184 224 271
#     4  10  19  31  47  67  90 117 149 186 229 271
#     4   8  14  24  39  60  87 118 149 183 223 264
#
# _framework density 16.961541
#
# number of rings (size 3 to 8) (size 9 to 14) (size 15 to 20)
#    0.000    2.909    0.000    3.818    0.000    5.455 
#    0.000    0.455    0.000    3.273    0.000    0.000 
#    0.000   17.455    0.000   58.364    0.000   53.455 
#
# Total GULP energy -545383.820531 kJ/mol
# GULP energy per Si atom -12395.086830 kJ/mol
# Density = 1.692294 g / cm^3
# Si number density = 16.961541 Si / 1000 Ang^3
#
#
#
# Elastic Constant Matrix: (Units=GPa)
#
#
# Indices 1 2 3 4 5 6 
#
# 1 145.6867 40.6668 84.8989 0.0000 0.0000 0.0000
# 2 40.6668 41.3224 33.3894 0.0000 0.0000 0.0000
# 3 84.8989 33.3894 153.1078 0.0000 0.0000 0.0000
# 4 0.0000 0.0000 0.0000 11.1353 0.0000 0.0000
# 5 0.0000 0.0000 0.0000 0.0000 21.4534 0.0000
# 6 0.0000 0.0000 0.0000 0.0000 0.0000 27.1900
#
#
#
# Elastic Compliance Matrix: (Units=1/GPa)
#
#
# Indices 1 2 3 4 5 6 
#
# 1 0.011877 -0.007729 -0.004900 0.000000 0.000000 0.000000
# 2 -0.007729 0.034406 -0.003217 0.000000 0.000000 0.000000
# 3 -0.004900 -0.003217 0.009950 0.000000 0.000000 0.000000
# 4 0.000000 0.000000 0.000000 0.089804 0.000000 0.000000
# 5 0.000000 0.000000 0.000000 0.000000 0.046613 0.000000
# 6 0.000000 0.000000 0.000000 0.000000 0.000000 0.036778
#
#
# Mechanical properties :
#
#
# Convention : Reuss Voigt Hill
#
# Bulk Modulus (GPa) = 40.75015 73.11412 56.93213
# Shear Modulus (GPa) = 18.56646 24.03321 21.29983
#
# Velocity S-wave (km/s) = 3.31209 3.76829 3.54753
# Velocity P-wave (km/s) = 6.22124 7.88243 7.10058
#
# Compressibility (1/GPa) = 0.02453979
#
# Stress axis : x y z
#
# Youngs Moduli (GPa) = 84.19423 29.06456 100.49958
#
# Poissons Ratio (x) = 0.22465 0.49249
# Poissons Ratio (y) = 0.65075 0.32334
# Poissons Ratio (z) = 0.41259 0.09351
#
# Static dielectric constant tensor:
#      x y z
#    x 3.243570 0.000000 0.000000 
#    y 0.000000 2.879320 0.000000 
#    z 0.000000 0.000000 3.488280 
# 
# 
# High freq. dielectric constant tensor:
#      x y z
#    x 1.654010 0.000000 0.000000 
#    y 0.000000 1.623800 0.000000 
#    z 0.000000 0.000000 1.649450 
# 
# From -- ./inp_files/66203.got.cif
#   From: 2010.03.12/outbox.cif.g09.slc.cpg/sg65_34_cif.got.tgz:66203.got - 2010.04.10 20:52:16.
