data_PCOD8267161
_publ_section_title
;
Structure prediction by ZEFSAII (Michael W. Deem and Ramdas Pophale) SiO2 
 PCOD8267161
Probable space group: C M M M
;
_chemical_formula_sum "Si O2"
_cell_formula_units_Z 80
_cell_length_a 19.423806
_cell_length_b 8.970954
_cell_length_c 25.733472
_cell_angle_alpha 90.000000
_cell_angle_beta 90.000000
_cell_angle_gamma 90.000000
_cell_volume 4484.059301
_symmetry_space_group_name_H-M "C M M M"
_symmetry_group_IT_number 65
_symmetry_cell_setting 'orthorhombic'
loop_
_space_group_symop_operation_xyz
x,y,z
-x,-y,z
x,-y,-z
-x,y,-z
-x,-y,-z
x,y,-z
-x,y,z
x,-y,z
1/2+x,1/2+y,z
1/2-x,1/2-y,z
1/2+x,1/2-y,-z
1/2-x,1/2+y,-z
1/2-x,1/2-y,-z
1/2+x,1/2+y,-z
1/2-x,1/2+y,z
1/2+x,1/2-y,z
loop_
_atom_site_type_symbol
_atom_site_label
_atom_site_fract_x
_atom_site_fract_y
_atom_site_fract_z
Si Si1 0.577238 0.323153 0.260268
Si Si2 0.076398 0.177158 0.144827
Si Si3 0.321915 0.324759 0.058282
Si Si4 0.324643 0.322207 0.648696
Si Si5 0.923132 0.822998 0.557989
O O1 0.500000 0.262244 0.272465
O O2 0.574535 0.500000 0.263692
O O3 0.600741 0.272284 0.202438
O O4 0.632800 0.262680 0.301396
O O5 0.125097 0.243575 0.100064
O O6 0.000000 0.239104 0.134358
O O7 0.076011 0.000000 0.141588
O O8 0.312960 0.500000 0.065480
O O9 0.250000 0.250000 0.070308
O O10 0.347780 0.286448 0.000000
O O11 0.317142 0.500000 0.648893
O O12 0.250000 0.250000 0.648986
O O13 0.366285 0.263267 0.598256
O O14 0.903407 0.767546 0.500000
O O15 0.000000 0.765103 0.572790
O O16 0.924103 0.000000 0.559863
#
# Coordination Sequence:
#
# PCOD8267161 Si02
#       5
#    16  16  16  16  16
#     4   8  14  26  44  63  82 107 141 177 208 241
#     4   8  14  25  42  64  85 104 134 178 217 242
#     4   9  17  28  42  61  85 112 139 167 203 248
#     4  10  19  29  43  65  90 113 138 170 209 250
#     4   8  14  26  45  66  84 106 142 182 210 236
#
# _framework density 17.840976999999999
#
# number of rings (size 3 to 8) (size 9 to 14) (size 15 to 20)
#    0.000    3.400    0.000    2.400    0.000    4.000 
#    0.000    2.000    0.000    3.000    0.000    7.000 
#    0.000    0.000    0.000    0.000    0.000    0.000 
#
# Total GULP energy -495670.421444 kJ/mol
# GULP energy per Si atom -12391.760536 kJ/mol
# Density = 1.780037 g / cm^3
# Si number density = 17.840977 Si / 1000 Ang^3
#
#
#
# Elastic Constant Matrix: (Units=GPa)
#
#
# Indices 1 2 3 4 5 6 
#
# 1 154.8602 19.6087 123.9213 0.0000 0.0000 0.0000
# 2 19.6087 8.1484 18.3811 0.0000 0.0000 0.0000
# 3 123.9213 18.3811 181.2905 0.0000 0.0000 0.0000
# 4 0.0000 0.0000 0.0000 9.8872 0.0000 0.0000
# 5 0.0000 0.0000 0.0000 0.0000 33.0525 0.0000
# 6 0.0000 0.0000 0.0000 0.0000 0.0000 24.1220
#
#
#
# Elastic Compliance Matrix: (Units=1/GPa)
#
#
# Indices 1 2 3 4 5 6 
#
# 1 0.016062 -0.018003 -0.009154 0.000000 0.000000 0.000000
# 2 -0.018003 0.179295 -0.005873 0.000000 0.000000 0.000000
# 3 -0.009154 -0.005873 0.012369 0.000000 0.000000 0.000000
# 4 0.000000 0.000000 0.000000 0.101141 0.000000 0.000000
# 5 0.000000 0.000000 0.000000 0.000000 0.030255 0.000000
# 6 0.000000 0.000000 0.000000 0.000000 0.000000 0.041456
#
#
# Mechanical properties :
#
#
# Convention : Reuss Voigt Hill
#
# Bulk Modulus (GPa) = 7.05884 74.23569 40.64726
# Shear Modulus (GPa) = 10.12434 25.57153 17.84793
#
# Velocity S-wave (km/s) = 2.38476 3.79001 3.16633
# Velocity P-wave (km/s) = 3.39822 7.80078 6.01665
#
# Compressibility (1/GPa) = 0.14166636
#
# Stress axis : x y z
#
# Youngs Moduli (GPa) = 62.25813 5.57739 80.84971
#
# Poissons Ratio (x) = 0.10041 0.74009
# Poissons Ratio (y) = 1.12085 0.47480
# Poissons Ratio (z) = 0.56991 0.03275
#
# Static dielectric constant tensor:
#      x y z
#    x 3.479160 0.000000 0.000000 
#    y 0.000000 2.647570 0.000000 
#    z 0.000000 0.000000 3.815830 
# 
# 
# High freq. dielectric constant tensor:
#      x y z
#    x 1.690550 0.000000 0.000000 
#    y 0.000000 1.619340 0.000000 
#    z 0.000000 0.000000 1.708490 
# 
# From -- ./inp_files/68819.got.cif
#   From: 2010.03.12/outbox.cif.g09.slc.cpg/sg65_35_cif.got.tgz:68819.got - 2010.04.10 20:52:16.
