data_PCOD8267806
_publ_section_title
;
Structure prediction by ZEFSAII (Michael W. Deem and Ramdas Pophale) SiO2 
 PCOD8267806
Probable space group: C M M M
;
_chemical_formula_sum "Si O2"
_cell_formula_units_Z 96
_cell_length_a 29.011976
_cell_length_b 7.900967
_cell_length_c 22.691341
_cell_angle_alpha 90.000000
_cell_angle_beta 90.000000
_cell_angle_gamma 90.000000
_cell_volume 5201.369656
_symmetry_space_group_name_H-M "C M M M"
_symmetry_group_IT_number 65
_symmetry_cell_setting 'orthorhombic'
loop_
_space_group_symop_operation_xyz
x,y,z
-x,-y,z
x,-y,-z
-x,y,-z
-x,-y,-z
x,y,-z
-x,y,z
x,-y,z
1/2+x,1/2+y,z
1/2-x,1/2-y,z
1/2+x,1/2-y,-z
1/2-x,1/2+y,-z
1/2-x,1/2-y,-z
1/2+x,1/2+y,-z
1/2-x,1/2+y,z
1/2+x,1/2-y,z
loop_
_atom_site_type_symbol
_atom_site_label
_atom_site_fract_x
_atom_site_fract_y
_atom_site_fract_z
Si Si1 0.300014 0.301682 0.147702
Si Si2 0.196918 0.799775 0.500000
Si Si3 0.699631 0.300249 0.278214
Si Si4 0.115460 0.195421 0.930891
Si Si5 0.551136 0.000000 0.930274
Si Si6 0.551058 0.200016 0.566447
Si Si7 0.644349 0.303751 0.386710
O O1 0.302169 0.500000 0.153372
O O2 0.250000 0.250000 0.123022
O O3 0.308713 0.221119 0.212895
O O4 0.338676 0.240783 0.102150
O O5 0.250000 0.750000 0.500000
O O6 0.171178 0.721888 0.442549
O O7 0.191643 0.000000 0.500000
O O8 0.694690 0.500000 0.274317
O O9 0.750000 0.250000 0.301420
O O10 0.663062 0.224117 0.325361
O O11 0.075893 0.325807 0.909923
O O12 0.101883 0.000000 0.915085
O O13 0.125265 0.212186 0.000000
O O14 0.500000 0.000000 0.902351
O O15 0.548108 0.000000 0.000000
O O16 0.559761 0.266640 0.500000
O O17 0.500000 0.258296 0.587559
O O18 0.589468 0.276271 0.609529
O O19 0.554364 0.000000 0.567690
O O20 0.656044 0.500000 0.385775
#
# Coordination Sequence:
#
# PCOD8267806 Si02
#       7
#    16   8  16  16   8  16  16
#     4   9  18  31  48  71  99 134 171 203 242 295
#     4  10  20  30  41  64  93 119 148 185 229 278
#     4   9  18  32  48  68  95 126 163 198 231 281
#     4   9  18  32  50  76 108 137 171 216 263 308
#     4   9  18  32  52  78 106 138 176 217 262 310
#     4   9  18  32  49  69  91 115 148 190 235 287
#     4  10  19  31  47  68  93 119 151 191 235 280
#
# _framework density 18.456676999999999
#
# number of rings (size 3 to 8) (size 9 to 14) (size 15 to 20)
#    0.000    2.750    0.833    1.000    1.167    2.333 
#    0.000    2.500    0.000    1.000    0.000    4.667 
#    0.000    0.000    0.000    0.000    0.000    0.000 
#
# Total GULP energy -594907.379549 kJ/mol
# GULP energy per Si atom -12393.903741 kJ/mol
# Density = 1.841467 g / cm^3
# Si number density = 18.456677 Si / 1000 Ang^3
#
#
#
# Elastic Constant Matrix: (Units=GPa)
#
#
# Indices 1 2 3 4 5 6 
#
# 1 164.6834 32.9112 66.0434 0.0000 0.0000 0.0000
# 2 32.9112 43.0714 23.8392 0.0000 0.0000 0.0000
# 3 66.0434 23.8392 74.2718 0.0000 0.0000 0.0000
# 4 0.0000 0.0000 0.0000 9.9003 0.0000 0.0000
# 5 0.0000 0.0000 0.0000 0.0000 31.8159 0.0000
# 6 0.0000 0.0000 0.0000 0.0000 0.0000 30.5371
#
#
#
# Elastic Compliance Matrix: (Units=1/GPa)
#
#
# Indices 1 2 3 4 5 6 
#
# 1 0.009796 -0.003239 -0.007671 0.000000 0.000000 0.000000
# 2 -0.003239 0.029304 -0.006525 0.000000 0.000000 0.000000
# 3 -0.007671 -0.006525 0.022379 0.000000 0.000000 0.000000
# 4 0.000000 0.000000 0.000000 0.101007 0.000000 0.000000
# 5 0.000000 0.000000 0.000000 0.000000 0.031431 0.000000
# 6 0.000000 0.000000 0.000000 0.000000 0.000000 0.032747
#
#
# Mechanical properties :
#
#
# Convention : Reuss Voigt Hill
#
# Bulk Modulus (GPa) = 37.58205 58.62378 48.10292
# Shear Modulus (GPa) = 18.49075 25.06619 21.77847
#
# Velocity S-wave (km/s) = 3.16863 3.68925 3.43881
# Velocity P-wave (km/s) = 5.81321 7.06960 6.47197
#
# Compressibility (1/GPa) = 0.02660845
#
# Stress axis : x y z
#
# Youngs Moduli (GPa) = 102.08342 34.12483 44.68377
#
# Poissons Ratio (x) = 0.11055 0.34276
# Poissons Ratio (y) = 0.33070 0.29157
# Poissons Ratio (z) = 0.78307 0.22267
#
# Static dielectric constant tensor:
#      x y z
#    x 3.499770 0.000000 0.000000 
#    y 0.000000 3.268450 0.000000 
#    z 0.000000 0.000000 3.683970 
# 
# 
# High freq. dielectric constant tensor:
#      x y z
#    x 1.712500 0.000000 0.000000 
#    y 0.000000 1.706700 0.000000 
#    z 0.000000 0.000000 1.693750 
# 
# From -- ./inp_files/71727.got.cif
#   From: 2010.03.12/outbox.cif.g09.slc.cpg/sg65_36_cif.got.tgz:71727.got - 2010.04.10 20:52:16.
