data_PCOD8267370
_publ_section_title
;
Structure prediction by ZEFSAII (Michael W. Deem and Ramdas Pophale) SiO2 
 PCOD8267370
Probable space group: C M M M
;
_chemical_formula_sum "Si O2"
_cell_formula_units_Z 72
_cell_length_a 9.088367
_cell_length_b 18.694456
_cell_length_c 23.450169
_cell_angle_alpha 90.000000
_cell_angle_beta 90.000000
_cell_angle_gamma 90.000000
_cell_volume 3984.232419
_symmetry_space_group_name_H-M "C M M M"
_symmetry_group_IT_number 65
_symmetry_cell_setting 'orthorhombic'
loop_
_space_group_symop_operation_xyz
x,y,z
-x,-y,z
x,-y,-z
-x,y,-z
-x,-y,-z
x,y,-z
-x,y,z
x,-y,z
1/2+x,1/2+y,z
1/2-x,1/2-y,z
1/2+x,1/2-y,-z
1/2-x,1/2+y,-z
1/2-x,1/2-y,-z
1/2+x,1/2+y,-z
1/2-x,1/2+y,z
1/2+x,1/2-y,z
loop_
_atom_site_type_symbol
_atom_site_label
_atom_site_fract_x
_atom_site_fract_y
_atom_site_fract_z
Si Si1 0.839118 0.084786 0.000000
Si Si2 0.675990 0.419692 0.122317
Si Si3 0.672615 0.323178 0.435633
Si Si4 0.325406 0.579712 0.666286
Si Si5 0.175031 0.173800 0.227687
O O1 0.759634 0.105922 0.060020
O O2 0.000000 0.121141 0.000000
O O3 0.857392 0.000000 0.000000
O O4 0.500000 0.420354 0.119316
O O5 0.731353 0.500000 0.137134
O O6 0.731563 0.365327 0.170431
O O7 0.715074 0.346094 0.500000
O O8 0.500000 0.310128 0.429398
O O9 0.750000 0.250000 0.417766
O O10 0.727548 0.384996 0.393046
O O11 0.500000 0.574992 0.668227
O O12 0.257710 0.500000 0.670170
O O13 0.269085 0.626707 0.719164
O O14 0.250000 0.250000 0.231805
O O15 0.000000 0.182954 0.228162
#
# Coordination Sequence:
#
# PCOD8267370 Si02
#       5
#     8  16  16  16  16
#     4   7  10  18  35  60  85 105 132 175 216 244
#     4   8  13  23  41  63  84 108 141 178 212 246
#     4   9  17  29  46  67  90 116 143 172 209 253
#     4   9  17  29  46  67  87 109 143 184 217 245
#     4  10  19  30  45  64  87 114 142 174 213 256
#
# _framework density 18.071235000000001
#
# number of rings (size 3 to 8) (size 9 to 14) (size 15 to 20)
#    0.000    3.222    0.000    2.667    0.000    3.111 
#    0.000    2.778    0.000    4.667    0.000    3.111 
#    0.000    2.667    0.000    0.000    0.000    0.000 
#
# Total GULP energy -446080.115673 kJ/mol
# GULP energy per Si atom -12391.114324 kJ/mol
# Density = 1.803010 g / cm^3
# Si number density = 18.071235 Si / 1000 Ang^3
#
#
#
# Elastic Constant Matrix: (Units=GPa)
#
#
# Indices 1 2 3 4 5 6 
#
# 1 10.7308 20.0124 17.6633 0.0000 0.0000 0.0000
# 2 20.0124 156.0796 105.7047 0.0000 0.0000 0.0000
# 3 17.6633 105.7047 178.5544 0.0000 0.0000 0.0000
# 4 0.0000 0.0000 0.0000 28.3783 0.0000 0.0000
# 5 0.0000 0.0000 0.0000 0.0000 7.8388 0.0000
# 6 0.0000 0.0000 0.0000 0.0000 0.0000 21.9281
#
#
#
# Elastic Compliance Matrix: (Units=1/GPa)
#
#
# Indices 1 2 3 4 5 6 
#
# 1 0.124892 -0.012764 -0.004799 0.000000 0.000000 0.000000
# 2 -0.012764 0.011999 -0.005841 0.000000 0.000000 0.000000
# 3 -0.004799 -0.005841 0.009533 0.000000 0.000000 0.000000
# 4 0.000000 0.000000 0.000000 0.035238 0.000000 0.000000
# 5 0.000000 0.000000 0.000000 0.000000 0.127571 0.000000
# 6 0.000000 0.000000 0.000000 0.000000 0.000000 0.045604
#
#
# Mechanical properties :
#
#
# Convention : Reuss Voigt Hill
#
# Bulk Modulus (GPa) = 10.03840 70.23619 40.13730
# Shear Modulus (GPa) = 11.49824 25.09466 18.29645
#
# Velocity S-wave (km/s) = 2.52518 3.73051 3.18537
# Velocity P-wave (km/s) = 3.75087 7.58329 5.98228
#
# Compressibility (1/GPa) = 0.09961743
#
# Stress axis : x y z
#
# Youngs Moduli (GPa) = 8.00695 83.33781 104.89711
#
# Poissons Ratio (x) = 1.06369 0.50337
# Poissons Ratio (y) = 0.10220 0.61271
# Poissons Ratio (z) = 0.03842 0.48678
#
# Static dielectric constant tensor:
#      x y z
#    x 2.717350 0.000000 0.000000 
#    y 0.000000 3.342470 0.000000 
#    z 0.000000 0.000000 3.904490 
# 
# 
# High freq. dielectric constant tensor:
#      x y z
#    x 1.628910 0.000000 0.000000 
#    y 0.000000 1.688650 0.000000 
#    z 0.000000 0.000000 1.727320 
# 
# From -- ./inp_files/61307.got.cif
#   From: 2010.03.12/outbox.cif.g09.slc.cpg/sg65_31_cif.got.tgz:61307.got - 2010.04.10 20:52:16.
