data_PCOD8267274
_publ_section_title
;
Structure prediction by ZEFSAII (Michael W. Deem and Ramdas Pophale) SiO2 
 PCOD8267274
Probable space group: C M M M
;
_chemical_formula_sum "Si O2"
_cell_formula_units_Z 72
_cell_length_a 30.965249
_cell_length_b 9.336104
_cell_length_c 14.576743
_cell_angle_alpha 90.000000
_cell_angle_beta 90.000000
_cell_angle_gamma 90.000000
_cell_volume 4214.060384
_symmetry_space_group_name_H-M "C M M M"
_symmetry_group_IT_number 65
_symmetry_cell_setting 'orthorhombic'
loop_
_space_group_symop_operation_xyz
x,y,z
-x,-y,z
x,-y,-z
-x,y,-z
-x,-y,-z
x,y,-z
-x,y,z
x,-y,z
1/2+x,1/2+y,z
1/2-x,1/2-y,z
1/2+x,1/2-y,-z
1/2-x,1/2+y,-z
1/2-x,1/2-y,-z
1/2+x,1/2+y,-z
1/2-x,1/2+y,z
1/2+x,1/2-y,z
loop_
_atom_site_type_symbol
_atom_site_label
_atom_site_fract_x
_atom_site_fract_y
_atom_site_fract_z
Si Si1 0.792178 0.666820 0.606226
Si Si2 0.450869 0.665804 0.393519
Si Si3 0.123259 0.331141 0.709103
Si Si4 0.592306 0.829786 0.100799
Si Si5 0.000000 0.654433 0.107493
O O1 0.801526 0.699359 0.500000
O O2 0.784256 0.500000 0.624258
O O3 0.750000 0.750000 0.640906
O O4 0.832906 0.726335 0.663157
O O5 0.444490 0.702793 0.500000
O O6 0.500000 0.701569 0.363530
O O7 0.440610 0.500000 0.375289
O O8 0.418523 0.761156 0.335414
O O9 0.119158 0.500000 0.693390
O O10 0.125593 0.290589 0.817864
O O11 0.545120 0.763433 0.130048
O O12 0.586535 0.000000 0.094163
O O13 0.607686 0.771836 0.000000
O O14 0.000000 0.500000 0.158787
O O15 0.000000 0.627362 0.000000
#
# Coordination Sequence:
#
# PCOD8267274 Si02
#       5
#    16  16  16  16   8
#     4   9  18  32  48  68  93 117 146 189 238 286
#     4   9  19  34  47  62  92 132 164 186 219 279
#     4  10  19  29  48  75  96 116 152 202 242 269
#     4   8  14  24  39  63  95 125 151 185 230 275
#     4   7  10  18  32  52  82 117 148 176 209 255
#
# _framework density 17.085657999999999
#
# number of rings (size 3 to 8) (size 9 to 14) (size 15 to 20)
#    0.000    3.222    0.000    2.667    1.556    2.667 
#    0.000    3.333    0.000    1.333    0.000    1.556 
#    0.000    0.000    0.000    0.000    0.000    0.000 
#
# Total GULP energy -445993.374000 kJ/mol
# GULP energy per Si atom -12388.704833 kJ/mol
# Density = 1.704677 g / cm^3
# Si number density = 17.085658 Si / 1000 Ang^3
#
#
#
# Elastic Constant Matrix: (Units=GPa)
#
#
# Indices 1 2 3 4 5 6 
#
# 1 122.3457 32.9157 78.0185 0.0000 0.0000 0.0000
# 2 32.9157 26.5017 27.0270 0.0000 0.0000 0.0000
# 3 78.0185 27.0270 102.3042 0.0000 0.0000 0.0000
# 4 0.0000 0.0000 0.0000 10.9922 0.0000 0.0000
# 5 0.0000 0.0000 0.0000 0.0000 22.9287 0.0000
# 6 0.0000 0.0000 0.0000 0.0000 0.0000 25.9172
#
#
#
# Elastic Compliance Matrix: (Units=1/GPa)
#
#
# Indices 1 2 3 4 5 6 
#
# 1 0.018173 -0.011549 -0.010808 0.000000 0.000000 0.000000
# 2 -0.011549 0.058988 -0.006776 0.000000 0.000000 0.000000
# 3 -0.010808 -0.006776 0.019807 0.000000 0.000000 0.000000
# 4 0.000000 0.000000 0.000000 0.090974 0.000000 0.000000
# 5 0.000000 0.000000 0.000000 0.000000 0.043613 0.000000
# 6 0.000000 0.000000 0.000000 0.000000 0.000000 0.038584
#
#
# Mechanical properties :
#
#
# Convention : Reuss Voigt Hill
#
# Bulk Modulus (GPa) = 25.83849 58.56380 42.20115
# Shear Modulus (GPa) = 14.64964 19.51365 17.08164
#
# Velocity S-wave (km/s) = 2.93136 3.38317 3.16534
# Velocity P-wave (km/s) = 5.15877 7.04359 6.17353
#
# Compressibility (1/GPa) = 0.03870195
#
# Stress axis : x y z
#
# Youngs Moduli (GPa) = 55.02806 16.95260 50.48727
#
# Poissons Ratio (x) = 0.19578 0.54565
# Poissons Ratio (y) = 0.63551 0.34212
# Poissons Ratio (z) = 0.59472 0.11488
#
# Static dielectric constant tensor:
#      x y z
#    x 3.311630 0.000000 0.000000 
#    y 0.000000 2.787930 0.000000 
#    z 0.000000 0.000000 3.344610 
# 
# 
# High freq. dielectric constant tensor:
#      x y z
#    x 1.647510 0.000000 0.000000 
#    y 0.000000 1.616750 0.000000 
#    z 0.000000 0.000000 1.658990 
# 
# From -- ./inp_files/36981.got.cif
#   From: 2010.03.12/outbox.cif.g09.slc.cpg/sg65_19_cif.got.tgz:36981.got - 2010.04.10 20:52:16.
