data_PCOD8267540
_publ_section_title
;
Structure prediction by ZEFSAII (Michael W. Deem and Ramdas Pophale) SiO2 
 PCOD8267540
Probable space group: C M M M
;
_chemical_formula_sum "Si O2"
_cell_formula_units_Z 120
_cell_length_a 19.531336
_cell_length_b 20.771615
_cell_length_c 16.837760
_cell_angle_alpha 90.000000
_cell_angle_beta 90.000000
_cell_angle_gamma 90.000000
_cell_volume 6831.035316
_symmetry_space_group_name_H-M "C M M M"
_symmetry_group_IT_number 65
_symmetry_cell_setting 'orthorhombic'
loop_
_space_group_symop_operation_xyz
x,y,z
-x,-y,z
x,-y,-z
-x,y,-z
-x,-y,-z
x,y,-z
-x,y,z
x,-y,z
1/2+x,1/2+y,z
1/2-x,1/2-y,z
1/2+x,1/2-y,-z
1/2-x,1/2+y,-z
1/2-x,1/2-y,-z
1/2+x,1/2+y,-z
1/2-x,1/2+y,z
1/2+x,1/2-y,z
loop_
_atom_site_type_symbol
_atom_site_label
_atom_site_fract_x
_atom_site_fract_y
_atom_site_fract_z
Si Si1 0.080383 0.757972 0.796429
Si Si2 0.500000 0.425672 0.412009
Si Si3 0.755813 0.177242 0.584180
Si Si4 0.772242 0.925220 0.803914
Si Si5 0.876413 0.868190 0.319544
Si Si6 0.920171 0.570301 0.585076
Si Si7 0.653616 0.861133 0.280953
Si Si8 0.305230 0.696072 0.906209
O O1 0.088886 0.808735 0.725914
O O2 0.116175 0.690939 0.773533
O O3 0.119916 0.784557 0.873782
O O4 0.000000 0.747873 0.816057
O O5 0.500000 0.500000 0.428541
O O6 0.500000 0.391574 0.500000
O O7 0.434423 0.410235 0.359294
O O8 0.738446 0.140199 0.500000
O O9 0.750000 0.250000 0.561476
O O10 0.832381 0.159355 0.608380
O O11 0.707845 0.167810 0.658921
O O12 0.829916 0.912791 0.737341
O O13 0.694959 0.912829 0.772154
O O14 0.784252 0.874923 0.875661
O O15 0.777263 0.000000 0.832107
O O16 0.896974 0.602417 0.500000
O O17 0.885103 0.500000 0.590738
O O18 0.904051 0.608609 0.664148
O O19 0.000000 0.561935 0.583420
O O20 0.250000 0.750000 0.877655
O O21 0.309536 0.692990 0.000000
#
# Coordination Sequence:
#
# PCOD8267540 Si02
#       8
#    16   8  16  16  16  16  16  16
#     4  11  21  35  57  85 112 148 181 229 280 337
#     4  11  22  36  52  70 103 153 198 238 292 351
#     4  10  19  30  47  70 102 141 184 236 285 320
#     4  10  21  35  59  88 114 143 181 229 279 335
#     4  10  20  35  52  75 108 143 189 240 283 333
#     4   9  18  32  47  66 100 146 191 233 274 315
#     4  11  19  32  52  77 111 141 186 225 276 331
#     4  10  21  40  64  88 114 145 179 222 272 334
#
# _framework density 17.566884000000002
#
# number of rings (size 3 to 8) (size 9 to 14) (size 15 to 20)
#    0.000    1.800    3.333    2.400    0.000    0.533 
#    0.000    0.000    0.000    6.400    0.000    1.867 
#    0.000    2.133    0.000    0.000    0.000    0.000 
#
# Total GULP energy -743343.592320 kJ/mol
# GULP energy per Si atom -12389.059872 kJ/mol
# Density = 1.752690 g / cm^3
# Si number density = 17.566884 Si / 1000 Ang^3
#
#
#
# Elastic Constant Matrix: (Units=GPa)
#
#
# Indices 1 2 3 4 5 6 
#
# 1 103.7718 40.1498 36.8771 0.0000 0.0000 0.0000
# 2 40.1498 103.6991 40.8192 0.0000 0.0000 0.0000
# 3 36.8771 40.8192 85.4576 0.0000 0.0000 0.0000
# 4 0.0000 0.0000 0.0000 21.5180 0.0000 0.0000
# 5 0.0000 0.0000 0.0000 0.0000 25.0850 0.0000
# 6 0.0000 0.0000 0.0000 0.0000 0.0000 24.1936
#
#
#
# Elastic Compliance Matrix: (Units=1/GPa)
#
#
# Indices 1 2 3 4 5 6 
#
# 1 0.012221 -0.003271 -0.003711 0.000000 0.000000 0.000000
# 2 -0.003271 0.012752 -0.004679 0.000000 0.000000 0.000000
# 3 -0.003711 -0.004679 0.015538 0.000000 0.000000 0.000000
# 4 0.000000 0.000000 0.000000 0.046473 0.000000 0.000000
# 5 0.000000 0.000000 0.000000 0.000000 0.039864 0.000000
# 6 0.000000 0.000000 0.000000 0.000000 0.000000 0.041333
#
#
# Mechanical properties :
#
#
# Convention : Reuss Voigt Hill
#
# Bulk Modulus (GPa) = 58.18065 58.73562 58.45814
# Shear Modulus (GPa) = 25.35064 25.83148 25.59106
#
# Velocity S-wave (km/s) = 3.80293 3.83882 3.82092
# Velocity P-wave (km/s) = 7.24392 7.29087 7.26743
#
# Compressibility (1/GPa) = 0.01718784
#
# Stress axis : x y z
#
# Youngs Moduli (GPa) = 81.82710 78.42138 64.35658
#
# Poissons Ratio (x) = 0.25650 0.23885
# Poissons Ratio (y) = 0.26763 0.30115
# Poissons Ratio (z) = 0.30369 0.36697
#
# Static dielectric constant tensor:
#      x y z
#    x 3.377800 0.000000 0.000000 
#    y 0.000000 3.187420 0.000000 
#    z 0.000000 0.000000 3.163940 
# 
# 
# High freq. dielectric constant tensor:
#      x y z
#    x 1.682210 0.000000 0.000000 
#    y 0.000000 1.671420 0.000000 
#    z 0.000000 0.000000 1.674200 
# 
# From -- ./inp_files/54968.got.cif
#   From: 2010.03.12/outbox.cif.g09.slc.cpg/sg65_28_cif.got.tgz:54968.got - 2010.04.10 20:52:16.
