data_PCOD8267172
_publ_section_title
;
Structure prediction by ZEFSAII (Michael W. Deem and Ramdas Pophale) SiO2 
 PCOD8267172
Probable space group: C M M M
;
_chemical_formula_sum "Si O2"
_cell_formula_units_Z 88
_cell_length_a 18.809933
_cell_length_b 8.781341
_cell_length_c 28.607899
_cell_angle_alpha 90.000000
_cell_angle_beta 90.000000
_cell_angle_gamma 90.000000
_cell_volume 4725.350794
_symmetry_space_group_name_H-M "C M M M"
_symmetry_group_IT_number 65
_symmetry_cell_setting 'orthorhombic'
loop_
_space_group_symop_operation_xyz
x,y,z
-x,-y,z
x,-y,-z
-x,y,-z
-x,-y,-z
x,y,-z
-x,y,z
x,-y,z
1/2+x,1/2+y,z
1/2-x,1/2-y,z
1/2+x,1/2-y,-z
1/2-x,1/2+y,-z
1/2-x,1/2-y,-z
1/2+x,1/2+y,-z
1/2-x,1/2+y,z
1/2+x,1/2-y,z
loop_
_atom_site_type_symbol
_atom_site_label
_atom_site_fract_x
_atom_site_fract_y
_atom_site_fract_z
Si Si1 0.579863 0.317683 0.085950
Si Si2 0.581113 0.318172 0.287143
Si Si3 0.915875 0.166250 0.186042
Si Si4 0.673009 0.178509 0.368629
Si Si5 0.582041 0.325372 0.553834
Si Si6 0.327281 0.318755 0.000000
O O1 0.500000 0.261002 0.074439
O O2 0.580447 0.500000 0.088198
O O3 0.606029 0.251554 0.136973
O O4 0.631945 0.256917 0.045795
O O5 0.500000 0.271248 0.299060
O O6 0.588318 0.500000 0.288077
O O7 0.603700 0.252758 0.235414
O O8 0.633225 0.244438 0.323959
O O9 0.000000 0.145608 0.184792
O O10 0.879579 0.000000 0.186740
O O11 0.750000 0.250000 0.372779
O O12 0.629896 0.214573 0.415572
O O13 0.680643 0.000000 0.362770
O O14 0.602625 0.300099 0.500000
O O15 0.500000 0.283995 0.562355
O O16 0.596072 0.500000 0.568591
O O17 0.250000 0.250000 0.000000
O O18 0.323912 0.500000 0.000000
#
# Coordination Sequence:
#
# PCOD8267172 Si02
#       6
#    16  16  16  16  16   8
#     4   8  13  24  45  71  93 117 159 207 242 279
#     4   9  17  32  55  79 103 132 165 204 253 307
#     4   7  11  22  44  73  98 120 153 200 248 291
#     4  12  25  38  53  75 106 142 177 214 254 297
#     4   9  19  38  63  87 110 137 169 206 250 301
#     4  10  19  29  43  65  95 128 158 196 244 292
#
# _framework density 18.622955000000001
#
# number of rings (size 3 to 8) (size 9 to 14) (size 15 to 20)
#    0.000    2.909    0.000    5.182    0.000    4.727 
#    0.000    1.818    0.000    4.364    0.000    2.545 
#    0.000    0.000    0.000    0.000    0.000    0.000 
#
# Total GULP energy -545141.222919 kJ/mol
# GULP energy per Si atom -12389.573248 kJ/mol
# Density = 1.858057 g / cm^3
# Si number density = 18.622955 Si / 1000 Ang^3
#
#
#
# Elastic Constant Matrix: (Units=GPa)
#
#
# Indices 1 2 3 4 5 6 
#
# 1 94.4341 23.6874 70.8490 0.0000 0.0000 0.0000
# 2 23.6874 35.7216 28.6498 0.0000 0.0000 0.0000
# 3 70.8490 28.6498 159.9591 0.0000 0.0000 0.0000
# 4 0.0000 0.0000 0.0000 11.3322 0.0000 0.0000
# 5 0.0000 0.0000 0.0000 0.0000 -0.4780 0.0000
# 6 0.0000 0.0000 0.0000 0.0000 0.0000 26.3047
#
#
#
# Elastic Compliance Matrix: (Units=1/GPa)
#
#
# Indices 1 2 3 4 5 6 
#
# 1 0.016921 -0.006083 -0.006405 0.000000 0.000000 0.000000
# 2 -0.006083 0.034877 -0.003552 0.000000 0.000000 0.000000
# 3 -0.006405 -0.003552 0.009725 0.000000 0.000000 0.000000
# 4 0.000000 0.000000 0.000000 0.088244 0.000000 0.000000
# 5 0.000000 0.000000 0.000000 0.000000 -2.091966 0.000000
# 6 0.000000 0.000000 0.000000 0.000000 0.000000 0.038016
#
#
# Mechanical properties :
#
#
# Convention : Reuss Voigt Hill
#
# Bulk Modulus (GPa) = 33.96576 59.60969 46.78773
# Shear Modulus (GPa) = -2.68487 18.56037 7.93775
#
# Velocity S-wave (km/s) = -1.20201 3.16038 2.06679
# Velocity P-wave (km/s) = 4.04374 6.73762 5.55641
#
# Compressibility (1/GPa) = 0.02944141
#
# Stress axis : x y z
#
# Youngs Moduli (GPa) = 59.09976 28.67200 102.83115
#
# Poissons Ratio (x) = 0.17442 0.65862
# Poissons Ratio (y) = 0.35952 0.36529
# Poissons Ratio (z) = 0.37853 0.10185
#
# Static dielectric constant tensor:
#      x y z
#    x 3.234340 0.000000 0.000000 
#    y 0.000000 2.972280 0.000000 
#    z 0.000000 0.000000 4.042070 
# 
# 
# High freq. dielectric constant tensor:
#      x y z
#    x 1.698130 0.000000 0.000000 
#    y 0.000000 1.673010 0.000000 
#    z 0.000000 0.000000 1.753130 
# 
# From -- ./inp_files/77807.got.cif
#   From: 2010.03.12/outbox.cif.g09.slc.cpg/sg65_39_cif.got.tgz:77807.got - 2010.04.10 20:52:16.
