data_PCOD8267678
_publ_section_title
;
Structure prediction by ZEFSAII (Michael W. Deem and Ramdas Pophale) SiO2 
 PCOD8267678
Probable space group: C M M M
;
_chemical_formula_sum "Si O2"
_cell_formula_units_Z 104
_cell_length_a 8.030794
_cell_length_b 30.591849
_cell_length_c 31.287200
_cell_angle_alpha 90.000000
_cell_angle_beta 90.000000
_cell_angle_gamma 90.000000
_cell_volume 7686.540347
_symmetry_space_group_name_H-M "C M M M"
_symmetry_group_IT_number 65
_symmetry_cell_setting 'orthorhombic'
loop_
_space_group_symop_operation_xyz
x,y,z
-x,-y,z
x,-y,-z
-x,y,-z
-x,-y,-z
x,y,-z
-x,y,z
x,-y,z
1/2+x,1/2+y,z
1/2-x,1/2-y,z
1/2+x,1/2-y,-z
1/2-x,1/2+y,-z
1/2-x,1/2-y,-z
1/2+x,1/2+y,-z
1/2-x,1/2+y,z
1/2+x,1/2-y,z
loop_
_atom_site_type_symbol
_atom_site_label
_atom_site_fract_x
_atom_site_fract_y
_atom_site_fract_z
Si Si1 0.189839 0.548871 0.117886
Si Si2 0.314546 0.204606 0.949400
Si Si3 0.810030 0.887104 0.951471
Si Si4 0.316048 0.551936 0.207327
Si Si5 0.000000 0.447896 0.356296
Si Si6 0.685159 0.552014 0.590214
Si Si7 0.500000 0.052195 0.259436
Si Si8 0.312251 0.947997 0.500000
O O1 0.249550 0.500000 0.104934
O O2 0.204883 0.580270 0.077384
O O3 0.294104 0.567153 0.158142
O O4 0.000000 0.547451 0.133167
O O5 0.500000 0.196125 0.932815
O O6 0.250000 0.250000 0.928662
O O7 0.205753 0.162921 0.934960
O O8 0.307623 0.209500 0.000000
O O9 0.000000 0.901731 0.948962
O O10 0.741598 0.890594 0.000000
O O11 0.500000 0.567626 0.223148
O O12 0.304523 0.500000 0.208766
O O13 0.167873 0.571017 0.236954
O O14 0.168228 0.429786 0.379033
O O15 0.000000 0.500000 0.358188
O O16 0.000000 0.430641 0.307900
O O17 0.500000 0.568015 0.604886
O O18 0.691124 0.500000 0.590963
O O19 0.717543 0.569180 0.542111
O O20 0.500000 0.000000 0.257835
O O21 0.500000 0.929642 0.500000
O O22 0.316415 0.000000 0.500000
#
# Coordination Sequence:
#
# PCOD8267678 Si02
#       8
#    16  16  16  16   8  16   8   8
#     4  10  19  31  45  58  74  96 122 151 181 214
#     4   9  16  27  43  60  78 100 123 145 170 200
#     4  10  20  31  42  59  81 101 123 149 175 207
#     4   9  16  27  42  55  66  83 108 136 166 203
#     4   9  16  23  30  41  58  73  88 119 156 191
#     4   9  15  21  28  38  52  71  93 116 146 184
#     4   9  16  26  37  50  64  78 101 130 164 205
#     4   9  13  19  29  36  47  69  94 117 141 176
#
# _framework density 13.530144999999999
#
# number of rings (size 3 to 8) (size 9 to 14) (size 15 to 20)
#    0.000    2.692    1.538    1.615    0.000    5.538 
#    0.000    4.615    0.000    0.000    0.000    0.000 
#    0.000    0.000    0.000    0.000    0.000    0.000 
#
# Total GULP energy -644430.048909 kJ/mol
# GULP energy per Si atom -12392.885556 kJ/mol
# Density = 1.349935 g / cm^3
# Si number density = 13.530145 Si / 1000 Ang^3
#
#
#
# Elastic Constant Matrix: (Units=GPa)
#
#
# Indices 1 2 3 4 5 6 
#
# 1 103.8928 12.2731 42.9663 0.0000 0.0000 0.0000
# 2 12.2731 30.7967 22.1316 0.0000 0.0000 0.0000
# 3 42.9663 22.1316 79.0547 0.0000 0.0000 0.0000
# 4 0.0000 0.0000 0.0000 0.0462 0.0000 0.0000
# 5 0.0000 0.0000 0.0000 0.0000 16.4838 0.0000
# 6 0.0000 0.0000 0.0000 0.0000 0.0000 11.3130
#
#
#
# Elastic Compliance Matrix: (Units=1/GPa)
#
#
# Indices 1 2 3 4 5 6 
#
# 1 0.012416 -0.000123 -0.006714 0.000000 0.000000 0.000000
# 2 -0.000123 0.040650 -0.011313 0.000000 0.000000 0.000000
# 3 -0.006714 -0.011313 0.019466 0.000000 0.000000 0.000000
# 4 0.000000 0.000000 0.000000 21.654807 0.000000 0.000000
# 5 0.000000 0.000000 0.000000 0.000000 0.060666 0.000000
# 6 0.000000 0.000000 0.000000 0.000000 0.000000 0.088394
#
#
# Mechanical properties :
#
#
# Convention : Reuss Voigt Hill
#
# Bulk Modulus (GPa) = 27.60020 40.94289 34.27155
# Shear Modulus (GPa) = 0.22805 14.66015 7.44410
#
# Velocity S-wave (km/s) = 0.41100 3.29525 2.34815
# Velocity P-wave (km/s) = 4.54627 6.69361 5.72158
#
# Compressibility (1/GPa) = 0.03623162
#
# Stress axis : x y z
#
# Youngs Moduli (GPa) = 80.53823 24.60017 51.37285
#
# Poissons Ratio (x) = 0.00304 0.34491
# Poissons Ratio (y) = 0.00994 0.58118
# Poissons Ratio (z) = 0.54072 0.27830
#
# Static dielectric constant tensor:
#      x y z
#    x 2.950590 0.000000 0.000000 
#    y 0.000000 2.212610 0.000000 
#    z 0.000000 0.000000 2.618890 
# 
# 
# High freq. dielectric constant tensor:
#      x y z
#    x 1.539050 0.000000 0.000000 
#    y 0.000000 1.437030 0.000000 
#    z 0.000000 0.000000 1.495060 
# 
# From -- ./inp_files/74066.got.cif
#   From: 2010.03.12/outbox.cif.g09.slc.cpg/sg65_38_cif.got.tgz:74066.got - 2010.04.10 20:52:16.
