data_PCOD8267481
_publ_section_title
;
Structure prediction by ZEFSAII (Michael W. Deem and Ramdas Pophale) SiO2 
 PCOD8267481
Probable space group: C M M M
;
_chemical_formula_sum "Si O2"
_cell_formula_units_Z 104
_cell_length_a 27.709971
_cell_length_b 8.233466
_cell_length_c 28.008890
_cell_angle_alpha 90.000000
_cell_angle_beta 90.000000
_cell_angle_gamma 90.000000
_cell_volume 6390.203160
_symmetry_space_group_name_H-M "C M M M"
_symmetry_group_IT_number 65
_symmetry_cell_setting 'orthorhombic'
loop_
_space_group_symop_operation_xyz
x,y,z
-x,-y,z
x,-y,-z
-x,y,-z
-x,-y,-z
x,y,-z
-x,y,z
x,-y,z
1/2+x,1/2+y,z
1/2-x,1/2-y,z
1/2+x,1/2-y,-z
1/2-x,1/2+y,-z
1/2-x,1/2-y,-z
1/2+x,1/2+y,-z
1/2-x,1/2+y,z
1/2+x,1/2-y,z
loop_
_atom_site_type_symbol
_atom_site_label
_atom_site_fract_x
_atom_site_fract_y
_atom_site_fract_z
Si Si1 0.889165 0.687227 0.695867
Si Si2 0.644789 0.191222 0.447590
Si Si3 0.057448 0.500000 0.054461
Si Si4 0.945664 0.187903 0.217868
Si Si5 0.552844 0.192418 0.394245
Si Si6 0.442803 0.681142 0.890902
Si Si7 0.698560 0.313200 0.358195
O O1 0.876453 0.500000 0.688913
O O2 0.907504 0.719124 0.749189
O O3 0.931139 0.741491 0.659280
O O4 0.839970 0.781910 0.683873
O O5 0.657666 0.263907 0.500000
O O6 0.592605 0.262247 0.431089
O O7 0.685150 0.230888 0.408606
O O8 0.640551 0.000000 0.451135
O O9 0.077992 0.332873 0.078281
O O10 0.000000 0.500000 0.058811
O O11 0.074887 0.500000 0.000000
O O12 0.928029 0.213823 0.163742
O O13 0.000000 0.258258 0.224472
O O14 0.945349 0.000000 0.231745
O O15 0.500000 0.269115 0.404534
O O16 0.549782 0.000000 0.398853
O O17 0.500000 0.676537 0.895511
O O18 0.423496 0.500000 0.907034
O O19 0.702158 0.500000 0.369275
O O20 0.750000 0.250000 0.340091
#
# Coordination Sequence:
#
# PCOD8267481 Si02
#       7
#    16  16   8  16  16  16  16
#     4  10  19  30  46  69  91 114 147 181 217 269
#     4   9  18  32  49  70  93 114 141 176 213 257
#     4   9  16  24  36  54  76 110 160 206 241 279
#     4   9  17  28  42  63  92 123 153 189 231 270
#     4   8  14  25  41  64  92 116 140 171 207 247
#     4   8  15  26  37  53  81 114 151 198 242 277
#     4  11  22  37  54  68  86 110 138 178 221 267
#
# _framework density 16.274912
#
# number of rings (size 3 to 8) (size 9 to 14) (size 15 to 20)
#    0.000    2.846    0.000    4.154    1.077    2.154 
#    0.000    3.077    0.000    4.154    0.000    4.308 
#    0.000    0.000    0.000    0.000    0.000    0.769 
#
# Total GULP energy -644427.913608 kJ/mol
# GULP energy per Si atom -12392.844492 kJ/mol
# Density = 1.623787 g / cm^3
# Si number density = 16.274912 Si / 1000 Ang^3
#
#
#
# Elastic Constant Matrix: (Units=GPa)
#
#
# Indices 1 2 3 4 5 6 
#
# 1 72.3541 15.2806 23.5217 0.0000 0.0000 0.0000
# 2 15.2806 65.1144 39.2111 0.0000 0.0000 0.0000
# 3 23.5217 39.2111 94.1245 0.0000 0.0000 0.0000
# 4 0.0000 0.0000 0.0000 21.0402 0.0000 0.0000
# 5 0.0000 0.0000 0.0000 0.0000 10.4998 0.0000
# 6 0.0000 0.0000 0.0000 0.0000 0.0000 15.1508
#
#
#
# Elastic Compliance Matrix: (Units=1/GPa)
#
#
# Indices 1 2 3 4 5 6 
#
# 1 0.015184 -0.001706 -0.003084 0.000000 0.000000 0.000000
# 2 -0.001706 0.020692 -0.008194 0.000000 0.000000 0.000000
# 3 -0.003084 -0.008194 0.014808 0.000000 0.000000 0.000000
# 4 0.000000 0.000000 0.000000 0.047528 0.000000 0.000000
# 5 0.000000 0.000000 0.000000 0.000000 0.095240 0.000000
# 6 0.000000 0.000000 0.000000 0.000000 0.000000 0.066003
#
#
# Mechanical properties :
#
#
# Convention : Reuss Voigt Hill
#
# Bulk Modulus (GPa) = 40.45812 43.06886 41.76349
# Shear Modulus (GPa) = 17.02644 19.57682 18.30163
#
# Velocity S-wave (km/s) = 3.23797 3.47202 3.35704
# Velocity P-wave (km/s) = 6.23638 6.52641 6.38304
#
# Compressibility (1/GPa) = 0.02471692
#
# Stress axis : x y z
#
# Youngs Moduli (GPa) = 65.86006 48.32746 67.53012
#
# Poissons Ratio (x) = 0.08246 0.20823
# Poissons Ratio (y) = 0.11238 0.55332
# Poissons Ratio (z) = 0.20308 0.39598
#
# Static dielectric constant tensor:
#      x y z
#    x 2.773650 0.000000 0.000000 
#    y 0.000000 3.137430 0.000000 
#    z 0.000000 0.000000 3.071050 
# 
# 
# High freq. dielectric constant tensor:
#      x y z
#    x 1.581810 0.000000 0.000000 
#    y 0.000000 1.626190 0.000000 
#    z 0.000000 0.000000 1.611880 
# 
# From -- ./inp_files/78462.got.cif
#   From: 2010.03.12/outbox.cif.g09.slc.cpg/sg65_40_cif.got.tgz:78462.got - 2010.04.10 20:52:16.
