data_PCOD8267831
_publ_section_title
;
Structure prediction by ZEFSAII (Michael W. Deem and Ramdas Pophale) SiO2 
 PCOD8267831
Probable space group: C M M M
;
_chemical_formula_sum "Si O2"
_cell_formula_units_Z 80
_cell_length_a 18.333103
_cell_length_b 8.721852
_cell_length_c 25.894528
_cell_angle_alpha 90.000000
_cell_angle_beta 90.000000
_cell_angle_gamma 90.000000
_cell_volume 4140.499061
_symmetry_space_group_name_H-M "C M M M"
_symmetry_group_IT_number 65
_symmetry_cell_setting 'orthorhombic'
loop_
_space_group_symop_operation_xyz
x,y,z
-x,-y,z
x,-y,-z
-x,y,-z
-x,-y,-z
x,y,-z
-x,y,z
x,-y,z
1/2+x,1/2+y,z
1/2-x,1/2-y,z
1/2+x,1/2-y,-z
1/2-x,1/2+y,-z
1/2-x,1/2-y,-z
1/2+x,1/2+y,-z
1/2-x,1/2+y,z
1/2+x,1/2-y,z
loop_
_atom_site_type_symbol
_atom_site_label
_atom_site_fract_x
_atom_site_fract_y
_atom_site_fract_z
Si Si1 0.581155 0.317431 0.402987
Si Si2 0.170914 0.182506 0.500000
Si Si3 0.586505 0.329785 0.290772
Si Si4 0.170050 0.819511 0.904995
Si Si5 0.914886 0.677288 0.186871
Si Si6 0.585404 0.820465 0.000000
O O1 0.500000 0.249590 0.410840
O O2 0.577525 0.500000 0.404861
O O3 0.630991 0.253112 0.448939
O O4 0.614118 0.268319 0.346781
O O5 0.250000 0.250000 0.500000
O O6 0.172825 0.000000 0.500000
O O7 0.500000 0.339773 0.294599
O O8 0.617805 0.500000 0.278883
O O9 0.610382 0.214825 0.245289
O O10 0.250000 0.750000 0.909062
O O11 0.133530 0.780183 0.850527
O O12 0.176128 0.000000 0.911575
O O13 0.119508 0.752545 0.949398
O O14 0.899617 0.500000 0.175210
O O15 0.000000 0.717674 0.178766
O O16 0.500000 0.784770 0.000000
O O17 0.601699 0.000000 0.000000
#
# Coordination Sequence:
#
# PCOD8267831 Si02
#       6
#    16   8  16  16  16   8
#     4   8  14  27  50  75  95 124 173 224 261 301
#     4  10  19  31  47  69  99 132 166 208 262 320
#     4   8  14  27  49  76 102 130 171 222 269 311
#     4  12  25  41  61  85 116 151 188 228 272 322
#     4  10  20  35  56  83 114 146 181 222 269 321
#     4  11  24  43  66  91 119 149 184 227 272 319
#
# _framework density 19.321342999999999
#
# number of rings (size 3 to 8) (size 9 to 14) (size 15 to 20)
#    0.000    2.300    0.000    5.100    0.000    5.600 
#    0.000    2.000    0.000    4.800    0.000    0.000 
#    0.000    0.000    0.000    0.000    0.000    0.000 
#
# Total GULP energy -495912.126861 kJ/mol
# GULP energy per Si atom -12397.803172 kJ/mol
# Density = 1.927737 g / cm^3
# Si number density = 19.321343 Si / 1000 Ang^3
#
#
#
# Elastic Constant Matrix: (Units=GPa)
#
#
# Indices 1 2 3 4 5 6 
#
# 1 91.2954 57.6048 64.5861 0.0000 0.0000 0.0000
# 2 57.6048 83.1231 51.5757 0.0000 0.0000 0.0000
# 3 64.5861 51.5757 164.4272 0.0000 0.0000 0.0000
# 4 0.0000 0.0000 0.0000 36.8456 0.0000 0.0000
# 5 0.0000 0.0000 0.0000 0.0000 -0.7145 0.0000
# 6 0.0000 0.0000 0.0000 0.0000 0.0000 26.8761
#
#
#
# Elastic Compliance Matrix: (Units=1/GPa)
#
#
# Indices 1 2 3 4 5 6 
#
# 1 0.022177 -0.012371 -0.004830 0.000000 0.000000 0.000000
# 2 -0.012371 0.021839 -0.001991 0.000000 0.000000 0.000000
# 3 -0.004830 -0.001991 0.008603 0.000000 0.000000 0.000000
# 4 0.000000 0.000000 0.000000 0.027140 0.000000 0.000000
# 5 0.000000 0.000000 0.000000 0.000000 -1.399606 0.000000
# 6 0.000000 0.000000 0.000000 0.000000 0.000000 0.037208
#
#
# Mechanical properties :
#
#
# Convention : Reuss Voigt Hill
#
# Bulk Modulus (GPa) = 70.25403 76.26434 73.25919
# Shear Modulus (GPa) = -4.03386 23.60671 9.78643
#
# Velocity S-wave (km/s) = -1.44648 3.49921 2.25302
# Velocity P-wave (km/s) = 5.80087 7.47551 6.69079
#
# Compressibility (1/GPa) = 0.01423406
#
# Stress axis : x y z
#
# Youngs Moduli (GPa) = 45.09245 45.78944 116.23190
#
# Poissons Ratio (x) = 0.56648 0.56144
# Poissons Ratio (y) = 0.55786 0.23139
# Poissons Ratio (z) = 0.21781 0.09116
#
# Static dielectric constant tensor:
#      x y z
#    x 3.406680 0.000000 0.000000 
#    y 0.000000 3.360480 0.000000 
#    z 0.000000 0.000000 4.074630 
# 
# 
# High freq. dielectric constant tensor:
#      x y z
#    x 1.727770 0.000000 0.000000 
#    y 0.000000 1.732880 0.000000 
#    z 0.000000 0.000000 1.776040 
# 
# From -- ./inp_files/75104.got.cif
#   From: 2010.03.12/outbox.cif.g09.slc.cpg/sg65_38_cif.got.tgz:75104.got - 2010.04.10 20:52:16.
