data_PCOD8267248
_publ_section_title
;
Structure prediction by ZEFSAII (Michael W. Deem and Ramdas Pophale) SiO2 
 PCOD8267248
Probable space group: C M M M
;
_chemical_formula_sum "Si O2"
_cell_formula_units_Z 80
_cell_length_a 9.103633
_cell_length_b 28.688377
_cell_length_c 18.198626
_cell_angle_alpha 90.000000
_cell_angle_beta 90.000000
_cell_angle_gamma 90.000000
_cell_volume 4752.907046
_symmetry_space_group_name_H-M "C M M M"
_symmetry_group_IT_number 65
_symmetry_cell_setting 'orthorhombic'
loop_
_space_group_symop_operation_xyz
x,y,z
-x,-y,z
x,-y,-z
-x,y,-z
-x,-y,-z
x,y,-z
-x,y,z
x,-y,z
1/2+x,1/2+y,z
1/2-x,1/2-y,z
1/2+x,1/2-y,-z
1/2-x,1/2+y,-z
1/2-x,1/2-y,-z
1/2+x,1/2+y,-z
1/2-x,1/2+y,z
1/2+x,1/2-y,z
loop_
_atom_site_type_symbol
_atom_site_label
_atom_site_fract_x
_atom_site_fract_y
_atom_site_fract_z
Si Si1 0.170368 0.298474 0.659193
Si Si2 0.172787 0.054161 0.853844
Si Si3 0.325606 0.947328 0.419537
Si Si4 0.169828 0.702087 0.500000
Si Si5 0.165474 0.555256 0.000000
Si Si6 0.326551 0.106325 0.277540
O O1 0.250000 0.250000 0.677429
O O2 0.210973 0.321530 0.578483
O O3 0.207883 0.338289 0.718820
O O4 0.000000 0.286172 0.661782
O O5 0.236384 0.084852 0.788631
O O6 0.000000 0.062118 0.861042
O O7 0.210276 0.000000 0.839239
O O8 0.248431 0.072698 0.928165
O O9 0.271678 0.928689 0.500000
O O10 0.500000 0.945915 0.418667
O O11 0.265487 0.916353 0.352879
O O12 0.269055 0.000000 0.408043
O O13 0.250000 0.750000 0.500000
O O14 0.000000 0.712877 0.500000
O O15 0.161604 0.500000 0.000000
O O16 0.000000 0.575683 0.000000
O O17 0.500000 0.096693 0.266764
#
# Coordination Sequence:
#
# PCOD8267248 Si02
#       6
#    16  16  16   8   8  16
#     4   9  18  30  45  65  90 121 158 204 254 298
#     4  10  20  33  49  72 103 134 160 189 232 286
#     4   8  14  24  39  61  88 118 155 200 243 278
#     4   8  14  26  42  60  83 112 149 197 250 295
#     4   9  17  31  53  77 100 127 158 193 231 273
#     4  10  19  29  46  70  94 123 163 206 245 284
#
# _framework density 16.831803000000001
#
# number of rings (size 3 to 8) (size 9 to 14) (size 15 to 20)
#    0.000    2.900    0.000    2.100    1.400    4.000 
#    0.000    0.000    0.000    0.600    0.000    3.500 
#    0.000    0.000    0.000    0.000    0.000    0.000 
#
# Total GULP energy -495544.160392 kJ/mol
# GULP energy per Si atom -12388.604010 kJ/mol
# Density = 1.679349 g / cm^3
# Si number density = 16.831803 Si / 1000 Ang^3
#
#
#
# Elastic Constant Matrix: (Units=GPa)
#
#
# Indices 1 2 3 4 5 6 
#
# 1 60.6064 37.4527 52.5376 0.0000 0.0000 0.0000
# 2 37.4527 73.3244 61.9573 0.0000 0.0000 0.0000
# 3 52.5376 61.9573 135.6493 0.0000 0.0000 0.0000
# 4 0.0000 0.0000 0.0000 13.6926 0.0000 0.0000
# 5 0.0000 0.0000 0.0000 0.0000 19.5496 0.0000
# 6 0.0000 0.0000 0.0000 0.0000 0.0000 20.1993
#
#
#
# Elastic Compliance Matrix: (Units=1/GPa)
#
#
# Indices 1 2 3 4 5 6 
#
# 1 0.027596 -0.008247 -0.006921 0.000000 0.000000 0.000000
# 2 -0.008247 0.024674 -0.008076 0.000000 0.000000 0.000000
# 3 -0.006921 -0.008076 0.013741 0.000000 0.000000 0.000000
# 4 0.000000 0.000000 0.000000 0.073032 0.000000 0.000000
# 5 0.000000 0.000000 0.000000 0.000000 0.051152 0.000000
# 6 0.000000 0.000000 0.000000 0.000000 0.000000 0.049507
#
#
# Mechanical properties :
#
#
# Convention : Reuss Voigt Hill
#
# Bulk Modulus (GPa) = 51.22112 63.71949 57.47030
# Shear Modulus (GPa) = 17.08241 18.53047 17.80644
#
# Velocity S-wave (km/s) = 3.18919 3.32161 3.25607
# Velocity P-wave (km/s) = 6.63765 7.25600 6.95371
#
# Compressibility (1/GPa) = 0.01952320
#
# Stress axis : x y z
#
# Youngs Moduli (GPa) = 36.23676 40.52785 72.77446
#
# Poissons Ratio (x) = 0.33425 0.50369
# Poissons Ratio (y) = 0.29886 0.58770
# Poissons Ratio (z) = 0.25080 0.32729
#
# Static dielectric constant tensor:
#      x y z
#    x 2.977270 0.000000 0.000000 
#    y 0.000000 2.972970 0.000000 
#    z 0.000000 0.000000 3.165820 
# 
# 
# High freq. dielectric constant tensor:
#      x y z
#    x 1.628350 0.000000 0.000000 
#    y 0.000000 1.625180 0.000000 
#    z 0.000000 0.000000 1.645170 
# 
# From -- ./inp_files/49933.got.cif
#   From: 2010.03.12/outbox.cif.g09.slc.cpg/sg65_25_cif.got.tgz:49933.got - 2010.04.10 20:52:16.
