data_PCOD8267915
_publ_section_title
;
Structure prediction by ZEFSAII (Michael W. Deem and Ramdas Pophale) SiO2 
 PCOD8267915
Probable space group: C M M M
;
_chemical_formula_sum "Si O2"
_cell_formula_units_Z 72
_cell_length_a 7.872434
_cell_length_b 19.919267
_cell_length_c 24.281107
_cell_angle_alpha 90.000000
_cell_angle_beta 90.000000
_cell_angle_gamma 90.000000
_cell_volume 3807.596019
_symmetry_space_group_name_H-M "C M M M"
_symmetry_group_IT_number 65
_symmetry_cell_setting 'orthorhombic'
loop_
_space_group_symop_operation_xyz
x,y,z
-x,-y,z
x,-y,-z
-x,y,-z
-x,-y,-z
x,y,-z
-x,y,z
x,-y,z
1/2+x,1/2+y,z
1/2-x,1/2-y,z
1/2+x,1/2-y,-z
1/2-x,1/2+y,-z
1/2-x,1/2-y,-z
1/2+x,1/2+y,-z
1/2-x,1/2+y,z
1/2+x,1/2-y,z
loop_
_atom_site_type_symbol
_atom_site_label
_atom_site_fract_x
_atom_site_fract_y
_atom_site_fract_z
Si Si1 0.690070 0.922824 0.864038
Si Si2 0.306338 0.325469 0.225329
Si Si3 0.500000 0.420463 0.061318
Si Si4 0.298101 0.924916 0.438936
Si Si5 0.200492 0.323961 0.347477
O O1 0.500000 0.916465 0.889379
O O2 0.696120 0.878290 0.809048
O O3 0.828913 0.896044 0.907782
O O4 0.729124 0.000000 0.847905
O O5 0.500000 0.334809 0.207729
O O6 0.250000 0.250000 0.211760
O O7 0.286486 0.341624 0.289631
O O8 0.500000 0.500000 0.057242
O O9 0.500000 0.388977 0.000000
O O10 0.233183 0.904122 0.500000
O O11 0.500000 0.922377 0.438083
O O12 0.224669 0.874402 0.393313
O O13 0.234770 0.000000 0.424890
O O14 0.250000 0.250000 0.367402
O O15 0.000000 0.330301 0.340030
#
# Coordination Sequence:
#
# PCOD8267915 Si02
#       5
#    16  16   8  16  16
#     4  10  20  35  56  84 114 145 185 227 270 324
#     4  11  21  35  54  77 106 142 181 222 275 330
#     4   9  18  34  56  84 116 148 184 226 270 315
#     4   8  15  29  48  69  94 127 168 213 262 316
#     4  10  19  31  48  72 100 129 169 214 262 322
#
# _framework density 18.909569000000001
#
# number of rings (size 3 to 8) (size 9 to 14) (size 15 to 20)
#    0.000    2.333    1.111    4.667    0.000    1.778 
#    0.000    4.444    0.000    4.667    0.000    6.222 
#    0.000    0.000    0.000    0.000    0.000    0.000 
#
# Total GULP energy -446349.846607 kJ/mol
# GULP energy per Si atom -12398.606850 kJ/mol
# Density = 1.886653 g / cm^3
# Si number density = 18.909569 Si / 1000 Ang^3
#
#
#
# Elastic Constant Matrix: (Units=GPa)
#
#
# Indices 1 2 3 4 5 6 
#
# 1 94.9575 25.2336 32.2073 0.0000 0.0000 0.0000
# 2 25.2336 91.6353 80.3142 0.0000 0.0000 0.0000
# 3 32.2073 80.3142 125.5968 0.0000 0.0000 0.0000
# 4 0.0000 0.0000 0.0000 19.1368 0.0000 0.0000
# 5 0.0000 0.0000 0.0000 0.0000 20.1751 0.0000
# 6 0.0000 0.0000 0.0000 0.0000 0.0000 23.4825
#
#
#
# Elastic Compliance Matrix: (Units=1/GPa)
#
#
# Indices 1 2 3 4 5 6 
#
# 1 0.011606 -0.001337 -0.002121 0.000000 0.000000 0.000000
# 2 -0.001337 0.024982 -0.015632 0.000000 0.000000 0.000000
# 3 -0.002121 -0.015632 0.018502 0.000000 0.000000 0.000000
# 4 0.000000 0.000000 0.000000 0.052255 0.000000 0.000000
# 5 0.000000 0.000000 0.000000 0.000000 0.049566 0.000000
# 6 0.000000 0.000000 0.000000 0.000000 0.000000 0.042585
#
#
# Mechanical properties :
#
#
# Convention : Reuss Voigt Hill
#
# Bulk Modulus (GPa) = 59.13865 65.29998 62.21932
# Shear Modulus (GPa) = 20.54972 24.18785 22.36878
#
# Velocity S-wave (km/s) = 3.30015 3.58038 3.44311
# Velocity P-wave (km/s) = 6.77227 7.19026 6.98439
#
# Compressibility (1/GPa) = 0.01690942
#
# Stress axis : x y z
#
# Youngs Moduli (GPa) = 86.16435 40.02938 54.04794
#
# Poissons Ratio (x) = 0.05350 0.11466
# Poissons Ratio (y) = 0.11516 0.84488
# Poissons Ratio (z) = 0.18279 0.62574
#
# Static dielectric constant tensor:
#      x y z
#    x 3.439700 0.000000 0.000000 
#    y 0.000000 3.430620 0.000000 
#    z 0.000000 0.000000 3.551810 
# 
# 
# High freq. dielectric constant tensor:
#      x y z
#    x 1.736680 0.000000 0.000000 
#    y 0.000000 1.720460 0.000000 
#    z 0.000000 0.000000 1.726100 
# 
# From -- ./inp_files/59299.got.cif
#   From: 2010.03.12/outbox.cif.g09.slc.cpg/sg65_30_cif.got.tgz:59299.got - 2010.04.10 20:52:16.
