data_PCOD8268564
_publ_section_title
;
Structure prediction by ZEFSAII (Michael W. Deem and Ramdas Pophale) SiO2 
 PCOD8268564
Probable space group: C M M M
;
_chemical_formula_sum "Si O2"
_cell_formula_units_Z 96
_cell_length_a 24.849116
_cell_length_b 9.296526
_cell_length_c 21.930913
_cell_angle_alpha 90.000000
_cell_angle_beta 90.000000
_cell_angle_gamma 90.000000
_cell_volume 5066.270146
_symmetry_space_group_name_H-M "C M M M"
_symmetry_group_IT_number 65
_symmetry_cell_setting 'orthorhombic'
loop_
_space_group_symop_operation_xyz
x,y,z
-x,-y,z
x,-y,-z
-x,y,-z
-x,-y,-z
x,y,-z
-x,y,z
x,-y,z
1/2+x,1/2+y,z
1/2-x,1/2-y,z
1/2+x,1/2-y,-z
1/2-x,1/2+y,-z
1/2-x,1/2-y,-z
1/2+x,1/2+y,-z
1/2-x,1/2+y,z
1/2+x,1/2-y,z
loop_
_atom_site_type_symbol
_atom_site_label
_atom_site_fract_x
_atom_site_fract_y
_atom_site_fract_z
Si Si1 0.196332 0.666020 0.928096
Si Si2 0.000000 0.829368 0.200461
Si Si3 0.585571 0.670864 0.433378
Si Si4 0.614369 0.667090 0.151761
Si Si5 0.500000 0.328081 0.661622
Si Si6 0.799745 0.836321 0.251399
Si Si7 0.801230 0.831496 0.609700
O O1 0.201408 0.500000 0.907402
O O2 0.250000 0.750000 0.906325
O O3 0.142791 0.737246 0.899834
O O4 0.189463 0.678722 0.000000
O O5 0.053067 0.779517 0.163182
O O6 0.000000 0.764793 0.269535
O O7 0.000000 0.000000 0.206457
O O8 0.564234 0.722716 0.500000
O O9 0.582742 0.500000 0.429968
O O10 0.550931 0.731345 0.376910
O O11 0.646875 0.722431 0.426888
O O12 0.615754 0.500000 0.131420
O O13 0.645465 0.690619 0.215082
O O14 0.500000 0.500000 0.664895
O O15 0.750000 0.750000 0.221749
O O16 0.810486 0.786347 0.320164
O O17 0.781619 0.000000 0.248579
O O18 0.750000 0.750000 0.581949
O O19 0.791627 0.000000 0.602256
#
# Coordination Sequence:
#
# PCOD8268564 Si02
#       7
#    16   8  16  16   8  16  16
#     4  10  21  37  57  81 108 137 168 203 245 291
#     4   9  18  31  48  71  99 134 172 209 252 300
#     4   9  16  25  40  64  92 122 158 201 247 293
#     4  10  19  32  51  75 103 134 171 211 250 296
#     4   9  15  26  45  68  96 126 158 203 254 296
#     4   9  17  28  44  67  93 123 158 199 249 300
#     4   9  17  29  43  62  92 125 156 194 242 296
#
# _framework density 18.948851999999999
#
# number of rings (size 3 to 8) (size 9 to 14) (size 15 to 20)
#    0.000    2.667    0.000    2.250    0.000    8.333 
#    0.000    0.833    0.000    2.500    0.000    1.750 
#    0.000    1.333    0.000    0.000    0.000    0.000 
#
# Total GULP energy -595002.143956 kJ/mol
# GULP energy per Si atom -12395.877999 kJ/mol
# Density = 1.890572 g / cm^3
# Si number density = 18.948852 Si / 1000 Ang^3
#
#
#
# Elastic Constant Matrix: (Units=GPa)
#
#
# Indices 1 2 3 4 5 6 
#
# 1 157.8334 45.3664 48.5348 0.0000 0.0000 0.0000
# 2 45.3664 52.7070 31.4401 0.0000 0.0000 0.0000
# 3 48.5348 31.4401 72.3581 0.0000 0.0000 0.0000
# 4 0.0000 0.0000 0.0000 15.3051 0.0000 0.0000
# 5 0.0000 0.0000 0.0000 0.0000 29.7772 0.0000
# 6 0.0000 0.0000 0.0000 0.0000 0.0000 24.5064
#
#
#
# Elastic Compliance Matrix: (Units=1/GPa)
#
#
# Indices 1 2 3 4 5 6 
#
# 1 0.009076 -0.005643 -0.003636 0.000000 0.000000 0.000000
# 2 -0.005643 0.029119 -0.008867 0.000000 0.000000 0.000000
# 3 -0.003636 -0.008867 0.020112 0.000000 0.000000 0.000000
# 4 0.000000 0.000000 0.000000 0.065338 0.000000 0.000000
# 5 0.000000 0.000000 0.000000 0.000000 0.033583 0.000000
# 6 0.000000 0.000000 0.000000 0.000000 0.000000 0.040806
#
#
# Mechanical properties :
#
#
# Convention : Reuss Voigt Hill
#
# Bulk Modulus (GPa) = 45.42449 59.28679 52.35564
# Shear Modulus (GPa) = 20.68990 24.42156 22.55573
#
# Velocity S-wave (km/s) = 3.30795 3.59390 3.45389
# Velocity P-wave (km/s) = 6.21403 6.96974 6.60271
#
# Compressibility (1/GPa) = 0.02201456
#
# Stress axis : x y z
#
# Youngs Moduli (GPa) = 110.18312 34.34130 49.72201
#
# Poissons Ratio (x) = 0.19379 0.18078
# Poissons Ratio (y) = 0.62177 0.44091
# Poissons Ratio (z) = 0.40059 0.30452
#
# Static dielectric constant tensor:
#      x y z
#    x 3.707450 0.000000 0.000000 
#    y 0.000000 3.148180 0.000000 
#    z 0.000000 0.000000 3.503210 
# 
# 
# High freq. dielectric constant tensor:
#      x y z
#    x 1.742180 0.000000 0.000000 
#    y 0.000000 1.686270 0.000000 
#    z 0.000000 0.000000 1.738020 
# 
# From -- ./inp_files/71452.got.cif
#   From: 2010.03.12/outbox.cif.g09.slc.cpg/sg65_36_cif.got.tgz:71452.got - 2010.04.10 20:52:16.
