data_PCOD8268364
_publ_section_title
;
Structure prediction by ZEFSAII (Michael W. Deem and Ramdas Pophale) SiO2 
 PCOD8268364
Probable space group: C M M M
;
_chemical_formula_sum "Si O2"
_cell_formula_units_Z 64
_cell_length_a 7.862651
_cell_length_b 37.730070
_cell_length_c 12.607346
_cell_angle_alpha 90.000000
_cell_angle_beta 90.000000
_cell_angle_gamma 90.000000
_cell_volume 3740.074747
_symmetry_space_group_name_H-M "C M M M"
_symmetry_group_IT_number 65
_symmetry_cell_setting 'orthorhombic'
loop_
_space_group_symop_operation_xyz
x,y,z
-x,-y,z
x,-y,-z
-x,y,-z
-x,-y,-z
x,y,-z
-x,y,z
x,-y,z
1/2+x,1/2+y,z
1/2-x,1/2-y,z
1/2+x,1/2-y,-z
1/2-x,1/2+y,-z
1/2-x,1/2-y,-z
1/2+x,1/2+y,-z
1/2-x,1/2+y,z
1/2+x,1/2-y,z
loop_
_atom_site_type_symbol
_atom_site_label
_atom_site_fract_x
_atom_site_fract_y
_atom_site_fract_z
Si Si1 0.196225 0.335053 0.807406
Si Si2 0.201068 0.709542 0.000000
Si Si3 0.699513 0.288554 0.619088
Si Si4 0.000000 0.960458 0.125718
Si Si5 0.804633 0.410799 0.125399
O O1 0.281055 0.309406 0.895721
O O2 0.224331 0.319680 0.690397
O O3 0.263652 0.375215 0.816482
O O4 0.000000 0.337282 0.834707
O O5 0.250000 0.750000 0.000000
O O6 0.000000 0.706386 0.000000
O O7 0.774056 0.292716 0.500000
O O8 0.500000 0.292603 0.618955
O O9 0.750000 0.250000 0.665077
O O10 0.826085 0.941216 0.163478
O O11 0.000000 0.000000 0.174504
O O12 0.000000 0.962254 0.000000
O O13 0.000000 0.420887 0.157011
O O14 0.793266 0.404247 0.000000
#
# Coordination Sequence:
#
# PCOD8268364 Si02
#       5
#    16   8  16   8  16
#     4  10  19  32  49  67  93 126 162 202 244 296
#     4  10  20  32  42  64  94 121 159 200 240 289
#     4  10  21  35  49  66  90 123 164 210 257 297
#     4   9  18  30  46  72 101 131 171 203 234 297
#     4   9  17  31  48  69  99 133 164 199 247 291
#
# _framework density 17.111958000000001
#
# number of rings (size 3 to 8) (size 9 to 14) (size 15 to 20)
#    0.000    2.375    1.250    1.500    1.750    5.000 
#    0.000    2.500    0.000    0.000    0.000    0.000 
#    0.000    2.000    0.000    5.500    0.000    0.250 
#
# Total GULP energy -396679.036186 kJ/mol
# GULP energy per Si atom -12396.219881 kJ/mol
# Density = 1.707301 g / cm^3
# Si number density = 17.111958 Si / 1000 Ang^3
#
#
#
# Elastic Constant Matrix: (Units=GPa)
#
#
# Indices 1 2 3 4 5 6 
#
# 1 64.5628 53.5394 12.8406 0.0000 0.0000 0.0000
# 2 53.5394 160.0499 44.5242 0.0000 0.0000 0.0000
# 3 12.8406 44.5242 57.7462 0.0000 0.0000 0.0000
# 4 0.0000 0.0000 0.0000 17.5359 0.0000 0.0000
# 5 0.0000 0.0000 0.0000 0.0000 16.7083 0.0000
# 6 0.0000 0.0000 0.0000 0.0000 0.0000 28.9564
#
#
#
# Elastic Compliance Matrix: (Units=1/GPa)
#
#
# Indices 1 2 3 4 5 6 
#
# 1 0.021478 -0.007455 0.000972 0.000000 0.000000 0.000000
# 2 -0.007455 0.010542 -0.006470 0.000000 0.000000 0.000000
# 3 0.000972 -0.006470 0.022090 0.000000 0.000000 0.000000
# 4 0.000000 0.000000 0.000000 0.057026 0.000000 0.000000
# 5 0.000000 0.000000 0.000000 0.000000 0.059850 0.000000
# 6 0.000000 0.000000 0.000000 0.000000 0.000000 0.034535
#
#
# Mechanical properties :
#
#
# Convention : Reuss Voigt Hill
#
# Bulk Modulus (GPa) = 35.45727 56.01859 45.73793
# Shear Modulus (GPa) = 20.76172 24.07044 22.41608
#
# Velocity S-wave (km/s) = 3.48701 3.75459 3.62327
# Velocity P-wave (km/s) = 6.08096 7.18356 6.65513
#
# Compressibility (1/GPa) = 0.02820296
#
# Stress axis : x y z
#
# Youngs Moduli (GPa) = 46.56004 94.85939 45.26967
#
# Poissons Ratio (x) = 0.70719 -0.04402
# Poissons Ratio (y) = 0.34711 0.29291
# Poissons Ratio (z) = -0.04527 0.61378
#
# Static dielectric constant tensor:
#      x y z
#    x 3.447450 0.000000 0.000000 
#    y 0.000000 3.515910 0.000000 
#    z 0.000000 0.000000 3.111440 
# 
# 
# High freq. dielectric constant tensor:
#      x y z
#    x 1.665210 0.000000 0.000000 
#    y 0.000000 1.650940 0.000000 
#    z 0.000000 0.000000 1.620960 
# 
# From -- ./inp_files/21040.got.cif
#   From: 2010.03.12/outbox.cif.g09.slc.cpg/sg65_11_cif.got.tgz:21040.got - 2010.04.10 20:52:16.
