data_PCOD8268341
_publ_section_title
;
Structure prediction by ZEFSAII (Michael W. Deem and Ramdas Pophale) SiO2 
 PCOD8268341
Probable space group: C M M M
;
_chemical_formula_sum "Si O2"
_cell_formula_units_Z 80
_cell_length_a 7.922449
_cell_length_b 29.002571
_cell_length_c 22.442318
_cell_angle_alpha 90.000000
_cell_angle_beta 90.000000
_cell_angle_gamma 90.000000
_cell_volume 5156.602593
_symmetry_space_group_name_H-M "C M M M"
_symmetry_group_IT_number 65
_symmetry_cell_setting 'orthorhombic'
loop_
_space_group_symop_operation_xyz
x,y,z
-x,-y,z
x,-y,-z
-x,y,-z
-x,-y,-z
x,y,-z
-x,y,z
x,-y,z
1/2+x,1/2+y,z
1/2-x,1/2-y,z
1/2+x,1/2-y,-z
1/2-x,1/2+y,-z
1/2-x,1/2-y,-z
1/2+x,1/2+y,-z
1/2-x,1/2+y,z
1/2+x,1/2-y,z
loop_
_atom_site_type_symbol
_atom_site_label
_atom_site_fract_x
_atom_site_fract_y
_atom_site_fract_z
Si Si1 0.799203 0.947474 0.727828
Si Si2 0.812175 0.445233 0.855903
Si Si3 0.699074 0.701115 0.566941
Si Si4 0.302189 0.946660 0.500000
Si Si5 0.696210 0.607061 0.384517
Si Si6 0.000000 0.055058 0.067337
O O1 0.721876 0.927544 0.788937
O O2 0.723226 0.916762 0.673873
O O3 0.000000 0.945045 0.732327
O O4 0.740602 0.000000 0.716606
O O5 0.799059 0.500000 0.855896
O O6 0.668859 0.425534 0.900366
O O7 0.000000 0.429228 0.876443
O O8 0.775432 0.698720 0.500000
O O9 0.500000 0.696153 0.563960
O O10 0.750000 0.750000 0.596771
O O11 0.774727 0.658232 0.604739
O O12 0.500000 0.938155 0.500000
O O13 0.222195 0.924403 0.558172
O O14 0.253414 0.000000 0.500000
O O15 0.500000 0.611956 0.372013
O O16 0.000000 0.000000 0.068597
O O17 0.000000 0.073780 0.000000
#
# Coordination Sequence:
#
# PCOD8268341 Si02
#       6
#    16  16  16   8  16   8
#     4   9  16  27  43  60  79 107 141 178 216 254
#     4   9  16  26  40  57  80 110 143 179 215 252
#     4   9  17  30  46  63  80 100 130 171 218 265
#     4  11  23  33  40  57  86 109 130 173 226 265
#     4  10  19  32  48  63  78 104 143 178 212 264
#     4   9  16  26  40  58  82 109 143 185 217 246
#
# _framework density 15.514089999999999
#
# number of rings (size 3 to 8) (size 9 to 14) (size 15 to 20)
#    0.000    2.600    2.000    0.900    0.000    3.600 
#    0.000    4.000    0.000    0.000    0.000    0.000 
#    0.000    0.000    0.000    0.000    0.000    1.000 
#
# Total GULP energy -495779.217737 kJ/mol
# GULP energy per Si atom -12394.480443 kJ/mol
# Density = 1.547878 g / cm^3
# Si number density = 15.514090 Si / 1000 Ang^3
#
#
#
# Elastic Constant Matrix: (Units=GPa)
#
#
# Indices 1 2 3 4 5 6 
#
# 1 51.7900 16.0318 40.5453 0.0000 0.0000 0.0000
# 2 16.0318 80.7866 39.7752 0.0000 0.0000 0.0000
# 3 40.5453 39.7752 122.5772 0.0000 0.0000 0.0000
# 4 0.0000 0.0000 0.0000 3.7352 0.0000 0.0000
# 5 0.0000 0.0000 0.0000 0.0000 9.3978 0.0000
# 6 0.0000 0.0000 0.0000 0.0000 0.0000 12.6521
#
#
#
# Elastic Compliance Matrix: (Units=1/GPa)
#
#
# Indices 1 2 3 4 5 6 
#
# 1 0.026139 -0.001107 -0.008287 0.000000 0.000000 0.000000
# 2 -0.001107 0.014779 -0.004429 0.000000 0.000000 0.000000
# 3 -0.008287 -0.004429 0.012336 0.000000 0.000000 0.000000
# 4 0.000000 0.000000 0.000000 0.267723 0.000000 0.000000
# 5 0.000000 0.000000 0.000000 0.000000 0.106407 0.000000
# 6 0.000000 0.000000 0.000000 0.000000 0.000000 0.079038
#
#
# Mechanical properties :
#
#
# Convention : Reuss Voigt Hill
#
# Bulk Modulus (GPa) = 39.05092 49.76205 44.40649
# Shear Modulus (GPa) = 9.21479 15.74379 12.47929
#
# Velocity S-wave (km/s) = 2.43978 3.18906 2.83924
# Velocity P-wave (km/s) = 5.75870 6.76056 6.27964
#
# Compressibility (1/GPa) = 0.02560759
#
# Stress axis : x y z
#
# Youngs Moduli (GPa) = 38.25684 67.66449 81.06036
#
# Poissons Ratio (x) = 0.07492 0.67174
# Poissons Ratio (y) = 0.04236 0.35905
# Poissons Ratio (z) = 0.31703 0.29971
#
# Static dielectric constant tensor:
#      x y z
#    x 2.978170 0.000000 0.000000 
#    y 0.000000 2.911320 0.000000 
#    z 0.000000 0.000000 3.029580 
# 
# 
# High freq. dielectric constant tensor:
#      x y z
#    x 1.598760 0.000000 0.000000 
#    y 0.000000 1.547870 0.000000 
#    z 0.000000 0.000000 1.577930 
# 
# From -- ./inp_files/60593.got.cif
#   From: 2010.03.12/outbox.cif.g09.slc.cpg/sg65_31_cif.got.tgz:60593.got - 2010.04.10 20:52:16.
