data_PCOD8268046
_publ_section_title
;
Structure prediction by ZEFSAII (Michael W. Deem and Ramdas Pophale) SiO2 
 PCOD8268046
Probable space group: C M M M
;
_chemical_formula_sum "Si O2"
_cell_formula_units_Z 80
_cell_length_a 23.063310
_cell_length_b 13.614849
_cell_length_c 13.402518
_cell_angle_alpha 90.000000
_cell_angle_beta 90.000000
_cell_angle_gamma 90.000000
_cell_volume 4208.437334
_symmetry_space_group_name_H-M "C M M M"
_symmetry_group_IT_number 65
_symmetry_cell_setting 'orthorhombic'
loop_
_space_group_symop_operation_xyz
x,y,z
-x,-y,z
x,-y,-z
-x,y,-z
-x,-y,-z
x,y,-z
-x,y,z
x,-y,z
1/2+x,1/2+y,z
1/2-x,1/2-y,z
1/2+x,1/2-y,-z
1/2-x,1/2+y,-z
1/2-x,1/2-y,-z
1/2+x,1/2+y,-z
1/2-x,1/2+y,z
1/2+x,1/2-y,z
loop_
_atom_site_type_symbol
_atom_site_label
_atom_site_fract_x
_atom_site_fract_y
_atom_site_fract_z
Si Si1 0.871039 0.693697 0.612186
Si Si2 0.249738 0.109819 0.611283
Si Si3 0.131011 0.109314 0.294990
Si Si4 0.933280 0.607317 0.209594
Si Si5 0.067557 0.192515 0.886088
O O1 0.888296 0.665014 0.500000
O O2 0.801136 0.688761 0.627912
O O3 0.894904 0.803791 0.636045
O O4 0.899505 0.616774 0.686649
O O5 0.222152 0.126484 0.500000
O O6 0.200740 0.119056 0.696690
O O7 0.276791 0.000000 0.616200
O O8 0.108711 0.124705 0.182010
O O9 0.111781 0.000000 0.331064
O O10 0.918766 0.500000 0.162754
O O11 0.916650 0.692699 0.131479
O O12 0.000000 0.615341 0.237867
O O13 0.000000 0.171958 0.861056
O O14 0.081345 0.165943 0.000000
#
# Coordination Sequence:
#
# PCOD8268046 Si02
#       5
#    16  16  16  16  16
#     4  10  19  31  49  73 103 138 172 203 236 280
#     4   9  17  30  50  75 100 129 167 205 241 287
#     4  10  20  32  48  71  98 128 164 208 251 287
#     4   9  18  32  51  77 106 132 159 196 245 298
#     4   9  19  36  56  76  96 121 159 206 253 301
#
# _framework density 19.009432
#
# number of rings (size 3 to 8) (size 9 to 14) (size 15 to 20)
#    0.000    2.600    0.000    1.800    0.000    5.600 
#    0.000    4.000    0.000   11.400    0.000   19.600 
#    0.000    0.000    0.000    0.000    0.000    0.000 
#
# Total GULP energy -495695.590004 kJ/mol
# GULP energy per Si atom -12392.389750 kJ/mol
# Density = 1.896617 g / cm^3
# Si number density = 19.009432 Si / 1000 Ang^3
#
#
#
# Elastic Constant Matrix: (Units=GPa)
#
#
# Indices 1 2 3 4 5 6 
#
# 1 50.2537 24.5223 43.3723 0.0000 0.0000 0.0000
# 2 24.5223 90.6040 20.5053 0.0000 0.0000 0.0000
# 3 43.3723 20.5053 90.6944 0.0000 0.0000 0.0000
# 4 0.0000 0.0000 0.0000 17.6238 0.0000 0.0000
# 5 0.0000 0.0000 0.0000 0.0000 28.7563 0.0000
# 6 0.0000 0.0000 0.0000 0.0000 0.0000 26.7151
#
#
#
# Elastic Compliance Matrix: (Units=1/GPa)
#
#
# Indices 1 2 3 4 5 6 
#
# 1 0.037047 -0.006342 -0.016283 0.000000 0.000000 0.000000
# 2 -0.006342 0.012718 0.000157 0.000000 0.000000 0.000000
# 3 -0.016283 0.000157 0.018777 0.000000 0.000000 0.000000
# 4 0.000000 0.000000 0.000000 0.056742 0.000000 0.000000
# 5 0.000000 0.000000 0.000000 0.000000 0.034775 0.000000
# 6 0.000000 0.000000 0.000000 0.000000 0.000000 0.037432
#
#
# Mechanical properties :
#
#
# Convention : Reuss Voigt Hill
#
# Bulk Modulus (GPa) = 42.35945 45.37243 43.86594
# Shear Modulus (GPa) = 19.97650 24.16252 22.06951
#
# Velocity S-wave (km/s) = 3.24523 3.56909 3.41101
# Velocity P-wave (km/s) = 6.03107 6.39568 6.21605
#
# Compressibility (1/GPa) = 0.02360749
#
# Stress axis : x y z
#
# Youngs Moduli (GPa) = 26.99291 78.62976 53.25574
#
# Poissons Ratio (x) = 0.49865 0.86716
# Poissons Ratio (y) = 0.17118 -0.00838
# Poissons Ratio (z) = 0.43952 -0.01237
#
# Static dielectric constant tensor:
#      x y z
#    x 3.269900 0.000000 0.000000 
#    y 0.000000 3.838910 0.000000 
#    z 0.000000 0.000000 3.248790 
# 
# 
# High freq. dielectric constant tensor:
#      x y z
#    x 1.711990 0.000000 0.000000 
#    y 0.000000 1.764300 0.000000 
#    z 0.000000 0.000000 1.709450 
# 
# From -- ./inp_files/24638.got.cif
#   From: 2010.03.12/outbox.cif.g09.slc.cpg/sg65_13_cif.got.tgz:24638.got - 2010.04.10 20:52:16.
