data_PCOD8268685
_publ_section_title
;
Structure prediction by ZEFSAII (Michael W. Deem and Ramdas Pophale) SiO2 
 PCOD8268685
Probable space group: C M M M
;
_chemical_formula_sum "Si O2"
_cell_formula_units_Z 104
_cell_length_a 14.248086
_cell_length_b 16.757504
_cell_length_c 23.068323
_cell_angle_alpha 90.000000
_cell_angle_beta 90.000000
_cell_angle_gamma 90.000000
_cell_volume 5507.847198
_symmetry_space_group_name_H-M "C M M M"
_symmetry_group_IT_number 65
_symmetry_cell_setting 'orthorhombic'
loop_
_space_group_symop_operation_xyz
x,y,z
-x,-y,z
x,-y,-z
-x,y,-z
-x,-y,-z
x,y,-z
-x,y,z
x,-y,z
1/2+x,1/2+y,z
1/2-x,1/2-y,z
1/2+x,1/2-y,-z
1/2-x,1/2+y,-z
1/2-x,1/2-y,-z
1/2+x,1/2+y,-z
1/2-x,1/2+y,z
1/2+x,1/2-y,z
loop_
_atom_site_type_symbol
_atom_site_label
_atom_site_fract_x
_atom_site_fract_y
_atom_site_fract_z
Si Si1 0.898467 0.093564 0.843668
Si Si2 0.890759 0.351545 0.766173
Si Si3 0.105566 0.825434 0.275558
Si Si4 0.895336 0.594753 0.435529
Si Si5 0.605572 0.905170 0.000000
Si Si6 0.267042 0.090997 0.666998
Si Si7 0.200728 0.595153 0.882576
O O1 0.881067 0.112496 0.776583
O O2 0.809713 0.124345 0.880888
O O3 0.000000 0.131140 0.863634
O O4 0.904927 0.000000 0.850747
O O5 0.867969 0.261396 0.747951
O O6 0.832965 0.409007 0.723768
O O7 0.858433 0.363517 0.831981
O O8 0.000000 0.372690 0.761102
O O9 0.175793 0.853127 0.326076
O O10 0.000000 0.827147 0.300451
O O11 0.862856 0.621287 0.500000
O O12 0.898354 0.500000 0.431194
O O13 0.823590 0.628088 0.387596
O O14 0.000000 0.628306 0.422740
O O15 0.659314 0.874002 0.056816
O O16 0.500000 0.871040 0.000000
O O17 0.603963 0.000000 0.000000
O O18 0.235611 0.000000 0.655345
O O19 0.192596 0.500000 0.875515
#
# Coordination Sequence:
#
# PCOD8268685 Si02
#       7
#    16  16  16  16   8  16  16
#     4   9  17  31  51  73  97 129 173 218 256 302
#     4  11  22  33  49  75 107 138 168 212 263 315
#     4  10  21  35  50  71 103 142 176 210 260 313
#     4   8  15  29  49  75 109 143 171 208 262 316
#     4   9  18  32  49  72 105 139 171 211 265 330
#     4  11  20  31  52  81 106 132 173 219 259 306
#     4  10  19  32  52  77 103 136 173 215 266 319
#
# _framework density 18.882151
#
# number of rings (size 3 to 8) (size 9 to 14) (size 15 to 20)
#    0.000    2.231    1.538    2.769    0.000    3.385 
#    0.000    0.385    0.000    6.462    0.000    7.538 
#    0.000    0.000    0.000    0.000    0.000    0.000 
#
# Total GULP energy -644643.616843 kJ/mol
# GULP energy per Si atom -12396.992632 kJ/mol
# Density = 1.883917 g / cm^3
# Si number density = 18.882151 Si / 1000 Ang^3
#
#
#
# Elastic Constant Matrix: (Units=GPa)
#
#
# Indices 1 2 3 4 5 6 
#
# 1 147.8203 35.5160 71.1490 0.0000 0.0000 0.0000
# 2 35.5160 30.0324 21.1832 0.0000 0.0000 0.0000
# 3 71.1490 21.1832 130.0943 0.0000 0.0000 0.0000
# 4 0.0000 0.0000 0.0000 12.2815 0.0000 0.0000
# 5 0.0000 0.0000 0.0000 0.0000 37.4477 0.0000
# 6 0.0000 0.0000 0.0000 0.0000 0.0000 22.3119
#
#
#
# Elastic Compliance Matrix: (Units=1/GPa)
#
#
# Indices 1 2 3 4 5 6 
#
# 1 0.011446 -0.010304 -0.004582 0.000000 0.000000 0.000000
# 2 -0.010304 0.046894 -0.002000 0.000000 0.000000 0.000000
# 3 -0.004582 -0.002000 0.010518 0.000000 0.000000 0.000000
# 4 0.000000 0.000000 0.000000 0.081423 0.000000 0.000000
# 5 0.000000 0.000000 0.000000 0.000000 0.026704 0.000000
# 6 0.000000 0.000000 0.000000 0.000000 0.000000 0.044819
#
#
# Mechanical properties :
#
#
# Convention : Reuss Voigt Hill
#
# Bulk Modulus (GPa) = 28.50202 62.62705 45.56453
# Shear Modulus (GPa) = 18.70745 26.41479 22.56112
#
# Velocity S-wave (km/s) = 3.15103 3.74428 3.46039
# Velocity P-wave (km/s) = 5.32598 7.20640 6.33634
#
# Compressibility (1/GPa) = 0.03508523
#
# Stress axis : x y z
#
# Youngs Moduli (GPa) = 87.36542 21.32476 95.07122
#
# Poissons Ratio (x) = 0.21973 0.43563
# Poissons Ratio (y) = 0.90023 0.19017
# Poissons Ratio (z) = 0.40032 0.04266
#
# Static dielectric constant tensor:
#      x y z
#    x 3.944180 0.000000 0.000000 
#    y 0.000000 3.128890 0.000000 
#    z 0.000000 0.000000 3.452200 
# 
# 
# High freq. dielectric constant tensor:
#      x y z
#    x 1.750750 0.000000 0.000000 
#    y 0.000000 1.703070 0.000000 
#    z 0.000000 0.000000 1.711110 
# 
# From -- ./inp_files/62837.got.cif
#   From: 2010.03.12/outbox.cif.g09.slc.cpg/sg65_32_cif.got.tgz:62837.got - 2010.04.10 20:52:16.
