data_PCOD8268712
_publ_section_title
;
Structure prediction by ZEFSAII (Michael W. Deem and Ramdas Pophale) SiO2 
 PCOD8268712
Probable space group: C M M M
;
_chemical_formula_sum "Si O2"
_cell_formula_units_Z 88
_cell_length_a 15.341092
_cell_length_b 9.688525
_cell_length_c 31.709717
_cell_angle_alpha 90.000000
_cell_angle_beta 90.000000
_cell_angle_gamma 90.000000
_cell_volume 4713.096204
_symmetry_space_group_name_H-M "C M M M"
_symmetry_group_IT_number 65
_symmetry_cell_setting 'orthorhombic'
loop_
_space_group_symop_operation_xyz
x,y,z
-x,-y,z
x,-y,-z
-x,y,-z
-x,-y,-z
x,y,-z
-x,y,z
x,-y,z
1/2+x,1/2+y,z
1/2-x,1/2-y,z
1/2+x,1/2-y,-z
1/2-x,1/2+y,-z
1/2-x,1/2-y,-z
1/2+x,1/2+y,-z
1/2-x,1/2+y,z
1/2+x,1/2-y,z
loop_
_atom_site_type_symbol
_atom_site_label
_atom_site_fract_x
_atom_site_fract_y
_atom_site_fract_z
Si Si1 0.500000 0.836026 0.236629
Si Si2 0.500000 0.163318 0.858010
Si Si3 0.396329 0.655285 0.546486
Si Si4 0.831968 0.338124 0.287426
Si Si5 0.100949 0.658138 0.378891
Si Si6 0.667316 0.836208 0.089450
Si Si7 0.403147 0.162892 0.000000
O O1 0.500000 0.775551 0.189251
O O2 0.414288 0.783786 0.260804
O O3 0.500000 0.000000 0.236775
O O4 0.586009 0.213001 0.882365
O O5 0.500000 0.000000 0.856587
O O6 0.362864 0.701795 0.500000
O O7 0.500000 0.663901 0.546981
O O8 0.365162 0.500000 0.556080
O O9 0.357890 0.753561 0.582821
O O10 0.814819 0.500000 0.279594
O O11 0.750000 0.250000 0.271575
O O12 0.847463 0.306754 0.336528
O O13 0.111914 0.500000 0.391884
O O14 0.000000 0.694307 0.370848
O O15 0.750000 0.750000 0.105820
O O16 0.684621 0.000000 0.093481
O O17 0.648849 0.790236 0.041400
O O18 0.500000 0.229306 0.000000
O O19 0.414294 0.000000 0.000000
#
# Coordination Sequence:
#
# PCOD8268712 Si02
#       7
#     8   8  16  16  16  16   8
#     4   9  18  36  58  77 103 137 172 211 259 314
#     4   9  18  33  55  78 100 137 181 212 251 320
#     4   8  14  24  39  64  98 131 161 196 242 293
#     4  10  20  35  55  78 103 132 167 210 258 307
#     4   9  16  28  47  69  94 127 165 202 242 292
#     4  10  19  32  52  78 106 139 180 221 263 310
#     4   9  15  28  51  74 101 140 185 225 256 302
#
# _framework density 18.671378000000001
#
# number of rings (size 3 to 8) (size 9 to 14) (size 15 to 20)
#    0.000    2.818    1.818    0.818    0.000    1.818 
#    0.000    2.727    0.000    2.182    0.000    0.000 
#    0.000    0.000    0.000    0.000    0.000    0.000 
#
# Total GULP energy -545496.636908 kJ/mol
# GULP energy per Si atom -12397.650839 kJ/mol
# Density = 1.862888 g / cm^3
# Si number density = 18.671378 Si / 1000 Ang^3
#
#
#
# Elastic Constant Matrix: (Units=GPa)
#
#
# Indices 1 2 3 4 5 6 
#
# 1 126.1849 47.5079 60.7457 0.0000 0.0000 0.0000
# 2 47.5079 50.7919 46.9783 0.0000 0.0000 0.0000
# 3 60.7457 46.9783 136.0203 0.0000 0.0000 0.0000
# 4 0.0000 0.0000 0.0000 12.3790 0.0000 0.0000
# 5 0.0000 0.0000 0.0000 0.0000 6.9361 0.0000
# 6 0.0000 0.0000 0.0000 0.0000 0.0000 27.0381
#
#
#
# Elastic Compliance Matrix: (Units=1/GPa)
#
#
# Indices 1 2 3 4 5 6 
#
# 1 0.012707 -0.009752 -0.002307 0.000000 0.000000 0.000000
# 2 -0.009752 0.036413 -0.008221 0.000000 0.000000 0.000000
# 3 -0.002307 -0.008221 0.011221 0.000000 0.000000 0.000000
# 4 0.000000 0.000000 0.000000 0.080782 0.000000 0.000000
# 5 0.000000 0.000000 0.000000 0.000000 0.144173 0.000000
# 6 0.000000 0.000000 0.000000 0.000000 0.000000 0.036985
#
#
# Mechanical properties :
#
#
# Convention : Reuss Voigt Hill
#
# Bulk Modulus (GPa) = 50.55059 69.27344 59.91201
# Shear Modulus (GPa) = 13.53416 19.78831 16.66124
#
# Velocity S-wave (km/s) = 2.69525 3.25902 2.99045
# Velocity P-wave (km/s) = 6.06782 7.16544 6.63935
#
# Compressibility (1/GPa) = 0.01978216
#
# Stress axis : x y z
#
# Youngs Moduli (GPa) = 78.69797 27.46238 89.11466
#
# Poissons Ratio (x) = 0.26780 0.20557
# Poissons Ratio (y) = 0.76744 0.73264
# Poissons Ratio (z) = 0.18154 0.22578
#
# Static dielectric constant tensor:
#      x y z
#    x 3.252490 0.000000 0.000000 
#    y 0.000000 3.093640 0.000000 
#    z 0.000000 0.000000 3.730260 
# 
# 
# High freq. dielectric constant tensor:
#      x y z
#    x 1.716720 0.000000 0.000000 
#    y 0.000000 1.686200 0.000000 
#    z 0.000000 0.000000 1.730550 
# 
# From -- ./inp_files/74782.got.cif
#   From: 2010.03.12/outbox.cif.g09.slc.cpg/sg65_38_cif.got.tgz:74782.got - 2010.04.10 20:52:16.
