data_PCOD8268325
_publ_section_title
;
Structure prediction by ZEFSAII (Michael W. Deem and Ramdas Pophale) SiO2 
 PCOD8268325
Probable space group: C M M M
;
_chemical_formula_sum "Si O2"
_cell_formula_units_Z 104
_cell_length_a 21.675495
_cell_length_b 13.957619
_cell_length_c 19.150478
_cell_angle_alpha 90.000000
_cell_angle_beta 90.000000
_cell_angle_gamma 90.000000
_cell_volume 5793.753075
_symmetry_space_group_name_H-M "C M M M"
_symmetry_group_IT_number 65
_symmetry_cell_setting 'orthorhombic'
loop_
_space_group_symop_operation_xyz
x,y,z
-x,-y,z
x,-y,-z
-x,y,-z
-x,-y,-z
x,y,-z
-x,y,z
x,-y,z
1/2+x,1/2+y,z
1/2-x,1/2-y,z
1/2+x,1/2-y,-z
1/2-x,1/2+y,-z
1/2-x,1/2-y,-z
1/2+x,1/2+y,-z
1/2-x,1/2+y,z
1/2+x,1/2-y,z
loop_
_atom_site_type_symbol
_atom_site_label
_atom_site_fract_x
_atom_site_fract_y
_atom_site_fract_z
Si Si1 0.572407 0.391776 0.920916
Si Si2 0.236062 0.892936 0.634293
Si Si3 0.363223 0.107441 0.421797
Si Si4 0.500000 0.613155 0.579760
Si Si5 0.613724 0.290187 0.346310
Si Si6 0.649935 0.288091 0.810488
Si Si7 0.273347 0.890113 0.211014
O O1 0.500000 0.375495 0.916608
O O2 0.588943 0.500000 0.896492
O O3 0.603228 0.312215 0.872145
O O4 0.595637 0.375925 0.000000
O O5 0.288647 0.880905 0.576154
O O6 0.179628 0.821445 0.620810
O O7 0.271769 0.870392 0.706395
O O8 0.208158 0.000000 0.636232
O O9 0.387399 0.126244 0.500000
O O10 0.397020 0.180259 0.369224
O O11 0.380358 0.000000 0.396800
O O12 0.500000 0.500000 0.578679
O O13 0.500000 0.652733 0.500000
O O14 0.560092 0.646226 0.621459
O O15 0.614566 0.302354 0.262971
O O16 0.673383 0.178675 0.819675
O O17 0.706607 0.361774 0.818722
O O18 0.288628 0.000000 0.191762
#
# Coordination Sequence:
#
# PCOD8268325 Si02
#       7
#    16  16  16   8  16  16  16
#     4   9  19  36  57  82 113 145 175 214 260 302
#     4   9  17  31  50  74 104 135 171 216 266 316
#     4  10  20  33  52  77 102 133 176 225 272 315
#     4  11  26  42  51  67 100 138 171 212 273 331
#     4  11  21  35  53  75 101 137 177 219 262 312
#     4  10  19  31  55  84 105 138 181 214 257 313
#     4   9  17  31  50  78 115 142 167 213 265 312
#
# _framework density 17.950368000000001
#
# number of rings (size 3 to 8) (size 9 to 14) (size 15 to 20)
#    0.000    2.231    1.538    2.308    1.077    3.692 
#    0.000    3.462    0.000    3.231    0.000    1.077 
#    0.000    0.000    0.000    0.000    0.000    0.000 
#
# Total GULP energy -644732.843102 kJ/mol
# GULP energy per Si atom -12398.708521 kJ/mol
# Density = 1.790951 g / cm^3
# Si number density = 17.950368 Si / 1000 Ang^3
#
#
#
# Elastic Constant Matrix: (Units=GPa)
#
#
# Indices 1 2 3 4 5 6 
#
# 1 54.5545 39.5690 42.5574 0.0000 0.0000 0.0000
# 2 39.5690 124.5080 47.3263 0.0000 0.0000 0.0000
# 3 42.5574 47.3263 84.2395 0.0000 0.0000 0.0000
# 4 0.0000 0.0000 0.0000 27.5521 0.0000 0.0000
# 5 0.0000 0.0000 0.0000 0.0000 25.4551 0.0000
# 6 0.0000 0.0000 0.0000 0.0000 0.0000 30.6819
#
#
#
# Elastic Compliance Matrix: (Units=1/GPa)
#
#
# Indices 1 2 3 4 5 6 
#
# 1 0.032733 -0.005235 -0.013596 0.000000 0.000000 0.000000
# 2 -0.005235 0.011050 -0.003563 0.000000 0.000000 0.000000
# 3 -0.013596 -0.003563 0.020741 0.000000 0.000000 0.000000
# 4 0.000000 0.000000 0.000000 0.036295 0.000000 0.000000
# 5 0.000000 0.000000 0.000000 0.000000 0.039285 0.000000
# 6 0.000000 0.000000 0.000000 0.000000 0.000000 0.032592
#
#
# Mechanical properties :
#
#
# Convention : Reuss Voigt Hill
#
# Bulk Modulus (GPa) = 50.66725 58.02303 54.34514
# Shear Modulus (GPa) = 22.31525 25.66110 23.98817
#
# Velocity S-wave (km/s) = 3.52968 3.78505 3.65959
# Velocity P-wave (km/s) = 6.70068 7.17610 6.94246
#
# Compressibility (1/GPa) = 0.01973662
#
# Stress axis : x y z
#
# Youngs Moduli (GPa) = 30.55021 90.50071 48.21344
#
# Poissons Ratio (x) = 0.47376 0.65549
# Poissons Ratio (y) = 0.15993 0.17179
# Poissons Ratio (z) = 0.41535 0.32246
#
# Static dielectric constant tensor:
#      x y z
#    x 3.072930 0.000000 0.000000 
#    y 0.000000 3.437360 0.000000 
#    z 0.000000 0.000000 3.134310 
# 
# 
# High freq. dielectric constant tensor:
#      x y z
#    x 1.672340 0.000000 0.000000 
#    y 0.000000 1.705520 0.000000 
#    z 0.000000 0.000000 1.670560 
# 
# From -- ./inp_files/64679.got.cif
#   From: 2010.03.12/outbox.cif.g09.slc.cpg/sg65_33_cif.got.tgz:64679.got - 2010.04.10 20:52:16.
