data_PCOD8268476
_publ_section_title
;
Structure prediction by ZEFSAII (Michael W. Deem and Ramdas Pophale) SiO2 
 PCOD8268476
Probable space group: C M M M
;
_chemical_formula_sum "Si O2"
_cell_formula_units_Z 128
_cell_length_a 17.275947
_cell_length_b 23.394714
_cell_length_c 18.164840
_cell_angle_alpha 90.000000
_cell_angle_beta 90.000000
_cell_angle_gamma 90.000000
_cell_volume 7341.607802
_symmetry_space_group_name_H-M "C M M M"
_symmetry_group_IT_number 65
_symmetry_cell_setting 'orthorhombic'
loop_
_space_group_symop_operation_xyz
x,y,z
-x,-y,z
x,-y,-z
-x,y,-z
-x,-y,-z
x,y,-z
-x,y,z
x,-y,z
1/2+x,1/2+y,z
1/2-x,1/2-y,z
1/2+x,1/2-y,-z
1/2-x,1/2+y,-z
1/2-x,1/2-y,-z
1/2+x,1/2+y,-z
1/2-x,1/2+y,z
1/2+x,1/2-y,z
loop_
_atom_site_type_symbol
_atom_site_label
_atom_site_fract_x
_atom_site_fract_y
_atom_site_fract_z
Si Si1 0.590079 0.562366 0.420820
Si Si2 0.706171 0.190245 0.584973
Si Si3 0.912471 0.152864 0.917348
Si Si4 0.087789 0.779469 0.223381
Si Si5 0.320280 0.630464 0.313550
Si Si6 0.303034 0.066449 0.773085
Si Si7 0.778590 0.934687 0.082764
Si Si8 0.910332 0.662189 0.293097
O O1 0.618513 0.588041 0.500000
O O2 0.500000 0.554312 0.423869
O O3 0.629127 0.500000 0.409678
O O4 0.606458 0.602217 0.351714
O O5 0.687703 0.176380 0.500000
O O6 0.750000 0.250000 0.593386
O O7 0.761803 0.143331 0.620061
O O8 0.625988 0.185938 0.630565
O O9 0.899165 0.205943 0.862368
O O10 0.853783 0.102429 0.896694
O O11 0.000000 0.128819 0.909038
O O12 0.897864 0.175720 0.000000
O O13 0.150932 0.813472 0.271171
O O14 0.101950 0.711986 0.232715
O O15 0.000000 0.795249 0.248261
O O16 0.279485 0.585278 0.259965
O O17 0.292939 0.076319 0.861146
O O18 0.371406 0.105076 0.739556
O O19 0.320644 0.000000 0.754861
O O20 0.806300 0.000000 0.089446
O O21 0.749069 0.920781 0.000000
O O22 0.000000 0.648638 0.307888
#
# Coordination Sequence:
#
# PCOD8268476 Si02
#       8
#    16  16  16  16  16  16  16  16
#     4   9  18  31  45  65  98 138 175 208 246 299
#     4  10  20  34  53  80 109 136 167 208 258 315
#     4   9  17  30  48  73 109 150 186 219 257 311
#     4  10  19  32  50  76 107 143 178 212 261 318
#     4  11  18  31  52  75 104 135 167 218 261 313
#     4  10  21  35  55  80 102 133 180 226 271 315
#     4   9  17  31  50  75 109 145 181 222 267 316
#     4  10  22  39  58  78 106 142 176 218 270 318
#
# _framework density 17.434873
#
# number of rings (size 3 to 8) (size 9 to 14) (size 15 to 20)
#    0.000    2.250    2.500    1.500    0.000    0.750 
#    0.000    1.875    0.000    6.000    0.000    5.250 
#    0.000    0.000    0.000    0.000    0.000    0.000 
#
# Total GULP energy -793168.431473 kJ/mol
# GULP energy per Si atom -12393.256742 kJ/mol
# Density = 1.739519 g / cm^3
# Si number density = 17.434873 Si / 1000 Ang^3
#
#
#
# Elastic Constant Matrix: (Units=GPa)
#
#
# Indices 1 2 3 4 5 6 
#
# 1 81.7200 39.9238 48.1748 0.0000 0.0000 0.0000
# 2 39.9238 91.5475 52.1495 0.0000 0.0000 0.0000
# 3 48.1748 52.1495 114.0819 0.0000 0.0000 0.0000
# 4 0.0000 0.0000 0.0000 25.1045 0.0000 0.0000
# 5 0.0000 0.0000 0.0000 0.0000 23.0849 0.0000
# 6 0.0000 0.0000 0.0000 0.0000 0.0000 24.2886
#
#
#
# Elastic Compliance Matrix: (Units=1/GPa)
#
#
# Indices 1 2 3 4 5 6 
#
# 1 0.017654 -0.004668 -0.005321 0.000000 0.000000 0.000000
# 2 -0.004668 0.016003 -0.005344 0.000000 0.000000 0.000000
# 3 -0.005321 -0.005344 0.013456 0.000000 0.000000 0.000000
# 4 0.000000 0.000000 0.000000 0.039833 0.000000 0.000000
# 5 0.000000 0.000000 0.000000 0.000000 0.043318 0.000000
# 6 0.000000 0.000000 0.000000 0.000000 0.000000 0.041172
#
#
# Mechanical properties :
#
#
# Convention : Reuss Voigt Hill
#
# Bulk Modulus (GPa) = 60.80356 63.09399 61.94877
# Shear Modulus (GPa) = 24.08641 24.30236 24.19438
#
# Velocity S-wave (km/s) = 3.72090 3.73754 3.72923
# Velocity P-wave (km/s) = 7.30825 7.40895 7.35877
#
# Compressibility (1/GPa) = 0.01644641
#
# Stress axis : x y z
#
# Youngs Moduli (GPa) = 56.64337 62.48721 74.31745
#
# Poissons Ratio (x) = 0.29167 0.39547
# Poissons Ratio (y) = 0.26440 0.39718
# Poissons Ratio (z) = 0.30142 0.33395
#
# Static dielectric constant tensor:
#      x y z
#    x 3.083710 0.000000 0.000000 
#    y 0.000000 3.121140 0.000000 
#    z 0.000000 0.000000 3.477340 
# 
# 
# High freq. dielectric constant tensor:
#      x y z
#    x 1.655870 0.000000 0.000000 
#    y 0.000000 1.663410 0.000000 
#    z 0.000000 0.000000 1.684130 
# 
# From -- ./inp_files/55109.got.cif
#   From: 2010.03.12/outbox.cif.g09.slc.cpg/sg65_28_cif.got.tgz:55109.got - 2010.04.10 20:52:16.
