data_PCOD8268347
_publ_section_title
;
Structure prediction by ZEFSAII (Michael W. Deem and Ramdas Pophale) SiO2 
 PCOD8268347
Probable space group: C M M M
;
_chemical_formula_sum "Si O2"
_cell_formula_units_Z 104
_cell_length_a 27.551482
_cell_length_b 8.794130
_cell_length_c 26.651691
_cell_angle_alpha 90.000000
_cell_angle_beta 90.000000
_cell_angle_gamma 90.000000
_cell_volume 6457.473243
_symmetry_space_group_name_H-M "C M M M"
_symmetry_group_IT_number 65
_symmetry_cell_setting 'orthorhombic'
loop_
_space_group_symop_operation_xyz
x,y,z
-x,-y,z
x,-y,-z
-x,y,-z
-x,-y,-z
x,y,-z
-x,y,z
x,-y,z
1/2+x,1/2+y,z
1/2-x,1/2-y,z
1/2+x,1/2-y,-z
1/2-x,1/2+y,-z
1/2-x,1/2-y,-z
1/2+x,1/2+y,-z
1/2-x,1/2+y,z
1/2+x,1/2-y,z
loop_
_atom_site_type_symbol
_atom_site_label
_atom_site_fract_x
_atom_site_fract_y
_atom_site_fract_z
Si Si1 0.555807 0.324868 0.942395
Si Si2 0.801924 0.177522 0.500000
Si Si3 0.803073 0.819666 0.392013
Si Si4 0.301592 0.320041 0.804852
Si Si5 0.608102 0.821774 0.853816
Si Si6 0.554703 0.678466 0.763934
Si Si7 0.854217 0.820668 0.294643
O O1 0.500000 0.278407 0.933778
O O2 0.563549 0.500000 0.926959
O O3 0.590136 0.217999 0.909407
O O4 0.570522 0.299008 0.000000
O O5 0.750000 0.250000 0.500000
O O6 0.827106 0.224053 0.553224
O O7 0.793665 0.000000 0.500000
O O8 0.750000 0.750000 0.385889
O O9 0.837617 0.751359 0.348221
O O10 0.797901 0.000000 0.386615
O O11 0.298655 0.500000 0.808634
O O12 0.250000 0.250000 0.818403
O O13 0.340741 0.260886 0.844724
O O14 0.317718 0.266074 0.749150
O O15 0.567281 0.766270 0.814746
O O16 0.615872 0.000000 0.848209
O O17 0.500000 0.717425 0.747194
O O18 0.561547 0.500000 0.775027
O O19 0.590978 0.731524 0.719258
O O20 0.852601 0.000000 0.298708
#
# Coordination Sequence:
#
# PCOD8268347 Si02
#       7
#    16   8  16  16  16  16  16
#     4   9  18  33  52  72  94 121 151 182 218 259
#     4   8  14  22  34  52  75 105 135 167 208 254
#     4   9  15  24  37  55  80 107 137 171 210 255
#     4  10  19  32  48  66  89 117 150 184 218 257
#     4  11  21  31  46  69  95 121 147 177 216 260
#     4   9  17  30  46  62  83 113 147 181 218 260
#     4   8  15  26  41  61  83 109 142 178 214 256
#
# _framework density 16.105370000000001
#
# number of rings (size 3 to 8) (size 9 to 14) (size 15 to 20)
#    0.000    2.769    0.000    4.154    0.000    2.769 
#    0.000    3.846    0.000    0.462    0.000    0.538 
#    0.000    4.308    0.000    0.000    0.000   34.154 
#
# Total GULP energy -644423.432008 kJ/mol
# GULP energy per Si atom -12392.758308 kJ/mol
# Density = 1.606871 g / cm^3
# Si number density = 16.105370 Si / 1000 Ang^3
#
#
#
# Elastic Constant Matrix: (Units=GPa)
#
#
# Indices 1 2 3 4 5 6 
#
# 1 107.6409 29.8733 58.0150 0.0000 0.0000 0.0000
# 2 29.8733 49.1781 27.2083 0.0000 0.0000 0.0000
# 3 58.0150 27.2083 118.6227 0.0000 0.0000 0.0000
# 4 0.0000 0.0000 0.0000 13.5791 0.0000 0.0000
# 5 0.0000 0.0000 0.0000 0.0000 23.5148 0.0000
# 6 0.0000 0.0000 0.0000 0.0000 0.0000 20.9673
#
#
#
# Elastic Compliance Matrix: (Units=1/GPa)
#
#
# Indices 1 2 3 4 5 6 
#
# 1 0.013722 -0.005294 -0.005497 0.000000 0.000000 0.000000
# 2 -0.005294 0.025332 -0.003221 0.000000 0.000000 0.000000
# 3 -0.005497 -0.003221 0.011857 0.000000 0.000000 0.000000
# 4 0.000000 0.000000 0.000000 0.073643 0.000000 0.000000
# 5 0.000000 0.000000 0.000000 0.000000 0.042526 0.000000
# 6 0.000000 0.000000 0.000000 0.000000 0.000000 0.047693
#
#
# Mechanical properties :
#
#
# Convention : Reuss Voigt Hill
#
# Bulk Modulus (GPa) = 43.69238 56.18165 49.93701
# Shear Modulus (GPa) = 19.96586 22.30190 21.13388
#
# Velocity S-wave (km/s) = 3.52476 3.72526 3.62640
# Velocity P-wave (km/s) = 6.61462 7.31184 6.97195
#
# Compressibility (1/GPa) = 0.02288729
#
# Stress axis : x y z
#
# Youngs Moduli (GPa) = 72.87555 39.47503 84.33688
#
# Poissons Ratio (x) = 0.20899 0.46357
# Poissons Ratio (y) = 0.38583 0.27166
# Poissons Ratio (z) = 0.40057 0.12716
#
# Static dielectric constant tensor:
#      x y z
#    x 2.999190 0.000000 0.000000 
#    y 0.000000 3.292360 0.000000 
#    z 0.000000 0.000000 3.441240 
# 
# 
# High freq. dielectric constant tensor:
#      x y z
#    x 1.597700 0.000000 0.000000 
#    y 0.000000 1.607850 0.000000 
#    z 0.000000 0.000000 1.618460 
# 
# From -- ./inp_files/76029.got.cif
#   From: 2010.03.12/outbox.cif.g09.slc.cpg/sg65_39_cif.got.tgz:76029.got - 2010.04.10 20:52:16.
