data_PCOD8268939
_publ_section_title
;
Structure prediction by ZEFSAII (Michael W. Deem and Ramdas Pophale) SiO2 
 PCOD8268939
Probable space group: C M M M
;
_chemical_formula_sum "Si O2"
_cell_formula_units_Z 96
_cell_length_a 8.714610
_cell_length_b 19.092834
_cell_length_c 31.171798
_cell_angle_alpha 90.000000
_cell_angle_beta 90.000000
_cell_angle_gamma 90.000000
_cell_volume 5186.569551
_symmetry_space_group_name_H-M "C M M M"
_symmetry_group_IT_number 65
_symmetry_cell_setting 'orthorhombic'
loop_
_space_group_symop_operation_xyz
x,y,z
-x,-y,z
x,-y,-z
-x,y,-z
-x,-y,-z
x,y,-z
-x,y,z
x,-y,z
1/2+x,1/2+y,z
1/2-x,1/2-y,z
1/2+x,1/2-y,-z
1/2-x,1/2+y,-z
1/2-x,1/2-y,-z
1/2+x,1/2+y,-z
1/2-x,1/2+y,z
1/2+x,1/2-y,z
loop_
_atom_site_type_symbol
_atom_site_label
_atom_site_fract_x
_atom_site_fract_y
_atom_site_fract_z
Si Si1 0.680416 0.326024 0.045254
Si Si2 0.818115 0.826922 0.138095
Si Si3 0.317537 0.421319 0.784821
Si Si4 0.682039 0.674661 0.292903
Si Si5 0.820686 0.323859 0.382601
Si Si6 0.825083 0.081833 0.451182
O O1 0.500000 0.317630 0.045793
O O2 0.750000 0.250000 0.043900
O O3 0.729961 0.359677 0.091073
O O4 0.729121 0.365474 0.000000
O O5 0.750000 0.750000 0.145458
O O6 0.752774 0.879997 0.173737
O O7 0.000000 0.819955 0.142445
O O8 0.500000 0.424028 0.786534
O O9 0.249674 0.500000 0.784629
O O10 0.262146 0.381561 0.742092
O O11 0.500000 0.680759 0.294489
O O12 0.750000 0.750000 0.280508
O O13 0.743481 0.648761 0.338823
O O14 0.750000 0.250000 0.396663
O O15 0.791604 0.378665 0.420301
O O16 0.000000 0.314649 0.374674
O O17 0.788879 0.103710 0.500000
O O18 0.000000 0.101770 0.439571
O O19 0.797990 0.000000 0.444890
#
# Coordination Sequence:
#
# PCOD8268939 Si02
#       6
#    16  16  16  16  16  16
#     4   8  13  21  35  58  86 113 143 182 227 272
#     4   9  16  27  45  66  89 118 152 191 232 277
#     4   9  18  31  47  68  92 121 157 193 233 284
#     4  10  19  33  53  73  95 124 159 200 244 291
#     4  11  22  36  55  79 107 136 168 207 250 296
#     4   9  19  37  59  81 107 140 175 209 247 292
#
# _framework density 18.509343999999999
#
# number of rings (size 3 to 8) (size 9 to 14) (size 15 to 20)
#    0.000    2.667    0.000    4.000    0.000    1.667 
#    0.000    3.333    0.000    4.500    0.000    3.500 
#    0.000    0.000    0.000   27.000    0.000   12.667 
#
# Total GULP energy -594750.967328 kJ/mol
# GULP energy per Si atom -12390.645153 kJ/mol
# Density = 1.846722 g / cm^3
# Si number density = 18.509344 Si / 1000 Ang^3
#
#
#
# Elastic Constant Matrix: (Units=GPa)
#
#
# Indices 1 2 3 4 5 6 
#
# 1 52.1494 22.9895 34.6988 0.0000 0.0000 0.0000
# 2 22.9895 92.8577 81.9376 0.0000 0.0000 0.0000
# 3 34.6988 81.9376 166.5367 0.0000 0.0000 0.0000
# 4 0.0000 0.0000 0.0000 10.6476 0.0000 0.0000
# 5 0.0000 0.0000 0.0000 0.0000 19.6950 0.0000
# 6 0.0000 0.0000 0.0000 0.0000 0.0000 21.6560
#
#
#
# Elastic Compliance Matrix: (Units=1/GPa)
#
#
# Indices 1 2 3 4 5 6 
#
# 1 0.022597 -0.002545 -0.003456 0.000000 0.000000 0.000000
# 2 -0.002545 0.019318 -0.008975 0.000000 0.000000 0.000000
# 3 -0.003456 -0.008975 0.011140 0.000000 0.000000 0.000000
# 4 0.000000 0.000000 0.000000 0.093917 0.000000 0.000000
# 5 0.000000 0.000000 0.000000 0.000000 0.050774 0.000000
# 6 0.000000 0.000000 0.000000 0.000000 0.000000 0.046177
#
#
# Mechanical properties :
#
#
# Convention : Reuss Voigt Hill
#
# Bulk Modulus (GPa) = 43.28117 65.64396 54.46257
# Shear Modulus (GPa) = 17.75712 21.86092 19.80902
#
# Velocity S-wave (km/s) = 3.10071 3.44041 3.27497
# Velocity P-wave (km/s) = 6.02108 7.16409 6.61731
#
# Compressibility (1/GPa) = 0.02310474
#
# Stress axis : x y z
#
# Youngs Moduli (GPa) = 44.25334 51.76413 89.76360
#
# Poissons Ratio (x) = 0.13173 0.31024
# Poissons Ratio (y) = 0.11262 0.80559
# Poissons Ratio (z) = 0.15295 0.46456
#
# Static dielectric constant tensor:
#      x y z
#    x 3.132870 0.000000 0.000000 
#    y 0.000000 3.212390 0.000000 
#    z 0.000000 0.000000 4.003320 
# 
# 
# High freq. dielectric constant tensor:
#      x y z
#    x 1.700600 0.000000 0.000000 
#    y 0.000000 1.685220 0.000000 
#    z 0.000000 0.000000 1.744930 
# 
# From -- ./inp_files/73122.got.cif
#   From: 2010.03.12/outbox.cif.g09.slc.cpg/sg65_37_cif.got.tgz:73122.got - 2010.04.10 20:52:16.
