data_PCOD8268348
_publ_section_title
;
Structure prediction by ZEFSAII (Michael W. Deem and Ramdas Pophale) SiO2 
 PCOD8268348
Probable space group: C M M M
;
_chemical_formula_sum "Si O2"
_cell_formula_units_Z 96
_cell_length_a 27.542865
_cell_length_b 8.634114
_cell_length_c 24.342724
_cell_angle_alpha 90.000000
_cell_angle_beta 90.000000
_cell_angle_gamma 90.000000
_cell_volume 5788.900261
_symmetry_space_group_name_H-M "C M M M"
_symmetry_group_IT_number 65
_symmetry_cell_setting 'orthorhombic'
loop_
_space_group_symop_operation_xyz
x,y,z
-x,-y,z
x,-y,-z
-x,y,-z
-x,-y,-z
x,y,-z
-x,y,z
x,-y,z
1/2+x,1/2+y,z
1/2-x,1/2-y,z
1/2+x,1/2-y,-z
1/2-x,1/2+y,-z
1/2-x,1/2-y,-z
1/2+x,1/2+y,-z
1/2-x,1/2+y,z
1/2+x,1/2-y,z
loop_
_atom_site_type_symbol
_atom_site_label
_atom_site_fract_x
_atom_site_fract_y
_atom_site_fract_z
Si Si1 0.800855 0.318042 0.376464
Si Si2 0.446793 0.317272 0.335398
Si Si3 0.803896 0.682132 0.830464
Si Si4 0.852800 0.183582 0.726297
Si Si5 0.303164 0.318799 0.059414
Si Si6 0.386764 0.319856 0.437932
O O1 0.797405 0.500000 0.366842
O O2 0.750000 0.250000 0.396835
O O3 0.814447 0.236754 0.319202
O O4 0.839365 0.280024 0.424020
O O5 0.500000 0.242686 0.323807
O O6 0.450793 0.500000 0.330796
O O7 0.406797 0.258790 0.291468
O O8 0.430225 0.271122 0.397051
O O9 0.799691 0.500000 0.828121
O O10 0.750000 0.750000 0.822359
O O11 0.840357 0.739931 0.784001
O O12 0.828308 0.735260 0.888582
O O13 0.850185 0.000000 0.731746
O O14 0.299940 0.500000 0.072078
O O15 0.250000 0.250000 0.055060
O O16 0.329555 0.289126 0.000000
O O17 0.403572 0.285023 0.500000
O O18 0.373462 0.500000 0.429327
#
# Coordination Sequence:
#
# PCOD8268348 Si02
#       6
#    16  16  16  16  16  16
#     4  11  21  33  48  65  88 118 151 184 221 263
#     4   8  15  29  50  73  92 112 140 178 224 268
#     4  11  20  29  43  64  92 125 160 192 224 262
#     4  10  19  32  48  67  92 117 147 186 224 266
#     4   9  16  26  40  59  86 121 159 194 226 259
#     4   9  18  32  49  70  94 117 144 178 215 260
#
# _framework density 16.583462000000001
#
# number of rings (size 3 to 8) (size 9 to 14) (size 15 to 20)
#    0.000    2.333    0.000    6.500    0.000    2.000 
#    0.000    1.667    0.000   12.500    0.000    4.667 
#    0.000    0.667    0.000    7.667    0.000    2.167 
#
# Total GULP energy -594930.399640 kJ/mol
# GULP energy per Si atom -12394.383326 kJ/mol
# Density = 1.654572 g / cm^3
# Si number density = 16.583462 Si / 1000 Ang^3
#
#
#
# Elastic Constant Matrix: (Units=GPa)
#
#
# Indices 1 2 3 4 5 6 
#
# 1 94.4429 27.8363 47.2386 0.0000 0.0000 0.0000
# 2 27.8363 93.3263 42.7416 0.0000 0.0000 0.0000
# 3 47.2386 42.7416 141.7176 0.0000 0.0000 0.0000
# 4 0.0000 0.0000 0.0000 26.0423 0.0000 0.0000
# 5 0.0000 0.0000 0.0000 0.0000 15.0312 0.0000
# 6 0.0000 0.0000 0.0000 0.0000 0.0000 13.7191
#
#
#
# Elastic Compliance Matrix: (Units=1/GPa)
#
#
# Indices 1 2 3 4 5 6 
#
# 1 0.013089 -0.002211 -0.003696 0.000000 0.000000 0.000000
# 2 -0.002211 0.012806 -0.003125 0.000000 0.000000 0.000000
# 3 -0.003696 -0.003125 0.009231 0.000000 0.000000 0.000000
# 4 0.000000 0.000000 0.000000 0.038399 0.000000 0.000000
# 5 0.000000 0.000000 0.000000 0.000000 0.066528 0.000000
# 6 0.000000 0.000000 0.000000 0.000000 0.000000 0.072891
#
#
# Mechanical properties :
#
#
# Convention : Reuss Voigt Hill
#
# Bulk Modulus (GPa) = 58.61419 62.79110 60.70264
# Shear Modulus (GPa) = 21.12417 25.06986 23.09701
#
# Velocity S-wave (km/s) = 3.57292 3.89233 3.73604
# Velocity P-wave (km/s) = 7.24173 7.62536 7.43602
#
# Compressibility (1/GPa) = 0.01706072
#
# Stress axis : x y z
#
# Youngs Moduli (GPa) = 76.40106 78.08890 108.33308
#
# Poissons Ratio (x) = 0.17268 0.40039
# Poissons Ratio (y) = 0.16895 0.33856
# Poissons Ratio (z) = 0.28238 0.24404
#
# Static dielectric constant tensor:
#      x y z
#    x 3.082840 0.000000 0.000000 
#    y 0.000000 3.123370 0.000000 
#    z 0.000000 0.000000 3.574220 
# 
# 
# High freq. dielectric constant tensor:
#      x y z
#    x 1.598310 0.000000 0.000000 
#    y 0.000000 1.638910 0.000000 
#    z 0.000000 0.000000 1.644320 
# 
# From -- ./inp_files/71677.got.cif
#   From: 2010.03.12/outbox.cif.g09.slc.cpg/sg65_36_cif.got.tgz:71677.got - 2010.04.10 20:52:16.
