data_PCOD8268883
_publ_section_title
;
Structure prediction by ZEFSAII (Michael W. Deem and Ramdas Pophale) SiO2 
 PCOD8268883
Probable space group: C M M M
;
_chemical_formula_sum "Si O2"
_cell_formula_units_Z 72
_cell_length_a 10.351544
_cell_length_b 28.168548
_cell_length_c 13.072332
_cell_angle_alpha 90.000000
_cell_angle_beta 90.000000
_cell_angle_gamma 90.000000
_cell_volume 3811.734673
_symmetry_space_group_name_H-M "C M M M"
_symmetry_group_IT_number 65
_symmetry_cell_setting 'orthorhombic'
loop_
_space_group_symop_operation_xyz
x,y,z
-x,-y,z
x,-y,-z
-x,y,-z
-x,-y,-z
x,y,-z
-x,y,z
x,-y,z
1/2+x,1/2+y,z
1/2-x,1/2-y,z
1/2+x,1/2-y,-z
1/2-x,1/2+y,-z
1/2-x,1/2-y,-z
1/2+x,1/2+y,-z
1/2-x,1/2+y,z
1/2+x,1/2-y,z
loop_
_atom_site_type_symbol
_atom_site_label
_atom_site_fract_x
_atom_site_fract_y
_atom_site_fract_z
Si Si1 0.351372 0.208242 0.116928
Si Si2 0.650984 0.207452 0.500000
Si Si3 0.000000 0.555043 0.109488
Si Si4 0.000000 0.055348 0.111549
Si Si5 0.249884 0.055167 0.237540
Si Si6 0.148472 0.356890 0.308788
O O1 0.500000 0.226231 0.132249
O O2 0.250000 0.250000 0.140168
O O3 0.322107 0.166553 0.198043
O O4 0.332329 0.189817 0.000000
O O5 0.500000 0.223604 0.500000
O O6 0.750000 0.250000 0.500000
O O7 0.686021 0.178226 0.600885
O O8 0.128325 0.568704 0.168283
O O9 0.000000 0.500000 0.088701
O O10 0.000000 0.581877 0.000000
O O11 0.875475 0.069601 0.175000
O O12 0.000000 0.000000 0.092162
O O13 0.000000 0.080696 0.000000
O O14 0.265946 0.094599 0.326476
O O15 0.249054 0.000000 0.275613
O O16 0.000000 0.371680 0.318283
#
# Coordination Sequence:
#
# PCOD8268883 Si02
#       6
#    16   8   8   8  16  16
#     4   9  18  33  52  75 106 139 172 217 273 330
#     4  10  22  42  65  87 112 140 181 237 287 332
#     4   9  16  26  46  73 101 144 192 225 254 302
#     4   9  18  32  48  71 109 156 196 231 274 314
#     4  10  19  33  51  75 112 149 185 229 271 326
#     4  10  20  36  57  84 110 143 184 230 275 328
#
# _framework density 18.889039
#
# number of rings (size 3 to 8) (size 9 to 14) (size 15 to 20)
#    0.000    2.444    1.111    1.333    0.000    4.444 
#    4.000    0.556    0.000    2.000    0.000    2.333 
#    0.000    0.000    0.000    0.000    0.000    0.000 
#
# Total GULP energy -446011.736841 kJ/mol
# GULP energy per Si atom -12389.214912 kJ/mol
# Density = 1.884605 g / cm^3
# Si number density = 18.889039 Si / 1000 Ang^3
#
#
#
# Elastic Constant Matrix: (Units=GPa)
#
#
# Indices 1 2 3 4 5 6 
#
# 1 119.4685 59.6132 38.2675 0.0000 0.0000 0.0000
# 2 59.6132 127.7204 60.4389 0.0000 0.0000 0.0000
# 3 38.2675 60.4389 94.0809 0.0000 0.0000 0.0000
# 4 0.0000 0.0000 0.0000 20.4335 0.0000 0.0000
# 5 0.0000 0.0000 0.0000 0.0000 54.9514 0.0000
# 6 0.0000 0.0000 0.0000 0.0000 0.0000 31.9000
#
#
#
# Elastic Compliance Matrix: (Units=1/GPa)
#
#
# Indices 1 2 3 4 5 6 
#
# 1 0.011099 -0.004374 -0.001705 0.000000 0.000000 0.000000
# 2 -0.004374 0.012973 -0.006555 0.000000 0.000000 0.000000
# 3 -0.001705 -0.006555 0.015534 0.000000 0.000000 0.000000
# 4 0.000000 0.000000 0.000000 0.048939 0.000000 0.000000
# 5 0.000000 0.000000 0.000000 0.000000 0.018198 0.000000
# 6 0.000000 0.000000 0.000000 0.000000 0.000000 0.031348
#
#
# Mechanical properties :
#
#
# Convention : Reuss Voigt Hill
#
# Bulk Modulus (GPa) = 69.74223 73.10101 71.42162
# Shear Modulus (GPa) = 29.73770 33.65367 31.69568
#
# Velocity S-wave (km/s) = 3.97210 4.22554 4.10078
# Velocity P-wave (km/s) = 7.61833 7.91146 7.76628
#
# Compressibility (1/GPa) = 0.01433852
#
# Stress axis : x y z
#
# Youngs Moduli (GPa) = 90.09937 77.08387 64.37666
#
# Poissons Ratio (x) = 0.33714 0.10975
# Poissons Ratio (y) = 0.39406 0.42199
# Poissons Ratio (z) = 0.15360 0.50528
#
# Static dielectric constant tensor:
#      x y z
#    x 3.640690 0.000000 0.000000 
#    y 0.000000 3.415340 0.000000 
#    z 0.000000 0.000000 3.677840 
# 
# 
# High freq. dielectric constant tensor:
#      x y z
#    x 1.734910 0.000000 0.000000 
#    y 0.000000 1.728690 0.000000 
#    z 0.000000 0.000000 1.715230 
# 
# From -- ./inp_files/37063.got.cif
#   From: 2010.03.12/outbox.cif.g09.slc.cpg/sg65_19_cif.got.tgz:37063.got - 2010.04.10 20:52:16.
