data_PCOD8268746
_publ_section_title
;
Structure prediction by ZEFSAII (Michael W. Deem and Ramdas Pophale) SiO2 
 PCOD8268746
Probable space group: C M M M
;
_chemical_formula_sum "Si O2"
_cell_formula_units_Z 120
_cell_length_a 18.898152
_cell_length_b 17.060753
_cell_length_c 22.405839
_cell_angle_alpha 90.000000
_cell_angle_beta 90.000000
_cell_angle_gamma 90.000000
_cell_volume 7224.016748
_symmetry_space_group_name_H-M "C M M M"
_symmetry_group_IT_number 65
_symmetry_cell_setting 'orthorhombic'
loop_
_space_group_symop_operation_xyz
x,y,z
-x,-y,z
x,-y,-z
-x,y,-z
-x,-y,-z
x,y,-z
-x,y,z
x,-y,z
1/2+x,1/2+y,z
1/2-x,1/2-y,z
1/2+x,1/2-y,-z
1/2-x,1/2+y,-z
1/2-x,1/2-y,-z
1/2+x,1/2+y,-z
1/2-x,1/2+y,z
1/2+x,1/2-y,z
loop_
_atom_site_type_symbol
_atom_site_label
_atom_site_fract_x
_atom_site_fract_y
_atom_site_fract_z
Si Si1 0.328951 0.719753 0.567229
Si Si2 0.169898 0.273352 0.825931
Si Si3 0.322424 0.908376 0.730448
Si Si4 0.416429 0.168780 0.929986
Si Si5 0.921249 0.822823 0.259102
Si Si6 0.178330 0.089527 0.664228
Si Si7 0.582180 0.000000 0.931228
Si Si8 0.578810 0.818839 0.350722
O O1 0.352789 0.699724 0.500000
O O2 0.250000 0.750000 0.569456
O O3 0.333733 0.640667 0.605367
O O4 0.378992 0.789409 0.591244
O O5 0.250000 0.250000 0.837780
O O6 0.165147 0.354498 0.788686
O O7 0.130652 0.274868 0.889799
O O8 0.130323 0.201911 0.793961
O O9 0.248481 0.884221 0.699871
O O10 0.382892 0.892169 0.681118
O O11 0.324557 0.000000 0.749128
O O12 0.500000 0.180497 0.917587
O O13 0.389365 0.082635 0.906653
O O14 0.400739 0.182516 0.000000
O O15 0.888053 0.898655 0.291433
O O16 0.924611 0.752123 0.305046
O O17 0.000000 0.843446 0.235631
O O18 0.183149 0.000000 0.643690
O O19 0.500000 0.000000 0.919466
O O20 0.599580 0.000000 0.000000
O O21 0.500000 0.845437 0.369665
#
# Coordination Sequence:
#
# PCOD8268746 Si02
#       8
#    16  16  16  16  16  16   8  16
#     4  10  19  32  53  76  98 132 173 209 249 302
#     4  11  20  31  50  74 102 134 166 211 251 295
#     4  10  20  33  50  73 101 134 169 208 254 302
#     4   9  18  32  49  70 100 135 168 204 248 300
#     4   9  18  32  50  72  97 130 165 197 244 303
#     4  10  19  33  53  74 100 131 163 208 260 303
#     4   7  12  26  46  66  90 124 159 191 236 290
#     4   9  18  32  51  72  99 133 164 201 249 299
#
# _framework density 16.611256000000001
#
# number of rings (size 3 to 8) (size 9 to 14) (size 15 to 20)
#    0.000    2.467    2.667    1.200    0.933    1.867 
#    0.000    0.000    0.000    0.400    0.000    4.667 
#    0.000    0.000    0.000    4.533    0.000    0.000 
#
# Total GULP energy -743533.101603 kJ/mol
# GULP energy per Si atom -12392.218360 kJ/mol
# Density = 1.657345 g / cm^3
# Si number density = 16.611256 Si / 1000 Ang^3
#
#
#
# Elastic Constant Matrix: (Units=GPa)
#
#
# Indices 1 2 3 4 5 6 
#
# 1 117.9387 21.1847 49.3746 0.0000 0.0000 0.0000
# 2 21.1847 51.3894 34.3471 0.0000 0.0000 0.0000
# 3 49.3746 34.3471 102.0530 0.0000 0.0000 0.0000
# 4 0.0000 0.0000 0.0000 17.9150 0.0000 0.0000
# 5 0.0000 0.0000 0.0000 0.0000 128.1810 0.0000
# 6 0.0000 0.0000 0.0000 0.0000 0.0000 19.0666
#
#
#
# Elastic Compliance Matrix: (Units=1/GPa)
#
#
# Indices 1 2 3 4 5 6 
#
# 1 0.010692 -0.001226 -0.004760 0.000000 0.000000 0.000000
# 2 -0.001226 0.025248 -0.007904 0.000000 0.000000 0.000000
# 3 -0.004760 -0.007904 0.014762 0.000000 0.000000 0.000000
# 4 0.000000 0.000000 0.000000 0.055819 0.000000 0.000000
# 5 0.000000 0.000000 0.000000 0.000000 0.007801 0.000000
# 6 0.000000 0.000000 0.000000 0.000000 0.000000 0.052448
#
#
# Mechanical properties :
#
#
# Convention : Reuss Voigt Hill
#
# Bulk Modulus (GPa) = 43.62854 53.46597 48.54725
# Shear Modulus (GPa) = 24.72901 44.13084 34.42992
#
# Velocity S-wave (km/s) = 3.86254 5.15989 4.55762
# Velocity P-wave (km/s) = 6.79807 8.23139 7.54883
#
# Compressibility (1/GPa) = 0.02292078
#
# Stress axis : x y z
#
# Youngs Moduli (GPa) = 93.52694 39.60769 67.74055
#
# Poissons Ratio (x) = 0.04856 0.32247
# Poissons Ratio (y) = 0.11467 0.53544
# Poissons Ratio (z) = 0.44522 0.31307
#
# Static dielectric constant tensor:
#      x y z
#    x 3.277220 0.000000 0.000000 
#    y 0.000000 2.974840 0.000000 
#    z 0.000000 0.000000 3.006780 
# 
# 
# High freq. dielectric constant tensor:
#      x y z
#    x 1.642190 0.000000 0.000000 
#    y 0.000000 1.620870 0.000000 
#    z 0.000000 0.000000 1.625850 
# 
# From -- ./inp_files/64012.got.cif
#   From: 2010.03.12/outbox.cif.g09.slc.cpg/sg65_33_cif.got.tgz:64012.got - 2010.04.10 20:52:16.
