data_PCOD8268673
_publ_section_title
;
Structure prediction by ZEFSAII (Michael W. Deem and Ramdas Pophale) SiO2 
 PCOD8268673
Probable space group: C M M M
;
_chemical_formula_sum "Si O2"
_cell_formula_units_Z 104
_cell_length_a 31.730042
_cell_length_b 18.964379
_cell_length_c 9.208326
_cell_angle_alpha 90.000000
_cell_angle_beta 90.000000
_cell_angle_gamma 90.000000
_cell_volume 5541.023080
_symmetry_space_group_name_H-M "C M M M"
_symmetry_group_IT_number 65
_symmetry_cell_setting 'orthorhombic'
loop_
_space_group_symop_operation_xyz
x,y,z
-x,-y,z
x,-y,-z
-x,y,-z
-x,-y,-z
x,y,-z
-x,y,z
x,-y,z
1/2+x,1/2+y,z
1/2-x,1/2-y,z
1/2+x,1/2-y,-z
1/2-x,1/2+y,-z
1/2-x,1/2-y,-z
1/2+x,1/2+y,-z
1/2-x,1/2+y,z
1/2+x,1/2-y,z
loop_
_atom_site_type_symbol
_atom_site_label
_atom_site_fract_x
_atom_site_fract_y
_atom_site_fract_z
Si Si1 0.752285 0.330629 0.172319
Si Si2 0.500000 0.922079 0.172448
Si Si3 0.083254 0.343540 0.827604
Si Si4 0.184067 0.918916 0.333110
Si Si5 0.047870 0.782787 0.671543
Si Si6 0.332028 0.919882 0.172584
Si Si7 0.088939 0.076352 0.327935
O O1 0.750000 0.250000 0.227688
O O2 0.711943 0.370302 0.231823
O O3 0.794220 0.370394 0.230712
O O4 0.751058 0.333475 0.000000
O O5 0.457980 0.884420 0.228661
O O6 0.500000 0.000000 0.238862
O O7 0.500000 0.924570 0.000000
O O8 0.081175 0.267293 0.752590
O O9 0.124180 0.385858 0.772860
O O10 0.083804 0.333606 0.000000
O O11 0.189342 0.895410 0.500000
O O12 0.136487 0.907687 0.277416
O O13 0.197816 0.000000 0.314059
O O14 0.054450 0.775040 0.500000
O O15 0.057719 0.862286 0.724956
O O16 0.000000 0.764897 0.717298
O O17 0.327734 0.000000 0.233663
O O18 0.331781 0.922475 0.000000
O O19 0.089028 0.071710 0.500000
O O20 0.074013 0.000000 0.265467
#
# Coordination Sequence:
#
# PCOD8268673 Si02
#       7
#    16   8  16  16  16  16  16
#     4  10  21  34  50  77 109 138 169 207 255 309
#     4   9  16  28  49  75  96 119 164 212 241 283
#     4  10  19  32  52  76  99 129 168 209 251 294
#     4   9  18  34  55  76  99 131 172 214 253 296
#     4  10  20  33  51  76 106 136 164 202 254 307
#     4   9  18  33  52  73 100 135 172 211 252 293
#     4   8  16  32  53  76 101 132 172 212 248 294
#
# _framework density 18.769096999999999
#
# number of rings (size 3 to 8) (size 9 to 14) (size 15 to 20)
#    0.000    2.692    0.769    1.846    2.154    3.385 
#    0.000    2.308    0.000    4.615    0.000    1.077 
#    0.000    0.000    0.000    0.000    0.000    0.000 
#
# Total GULP energy -644643.889860 kJ/mol
# GULP energy per Si atom -12396.997882 kJ/mol
# Density = 1.872638 g / cm^3
# Si number density = 18.769097 Si / 1000 Ang^3
#
#
#
# Elastic Constant Matrix: (Units=GPa)
#
#
# Indices 1 2 3 4 5 6 
#
# 1 88.0577 67.2443 16.2047 0.0000 0.0000 0.0000
# 2 67.2443 151.9477 23.5134 0.0000 0.0000 0.0000
# 3 16.2047 23.5134 12.9808 0.0000 0.0000 0.0000
# 4 0.0000 0.0000 0.0000 22.5076 0.0000 0.0000
# 5 0.0000 0.0000 0.0000 0.0000 20.8484 0.0000
# 6 0.0000 0.0000 0.0000 0.0000 0.0000 35.8495
#
#
#
# Elastic Compliance Matrix: (Units=1/GPa)
#
#
# Indices 1 2 3 4 5 6 
#
# 1 0.018282 -0.006335 -0.011348 0.000000 0.000000 0.000000
# 2 -0.006335 0.011339 -0.012632 0.000000 0.000000 0.000000
# 3 -0.011348 -0.012632 0.114085 0.000000 0.000000 0.000000
# 4 0.000000 0.000000 0.000000 0.044429 0.000000 0.000000
# 5 0.000000 0.000000 0.000000 0.000000 0.047965 0.000000
# 6 0.000000 0.000000 0.000000 0.000000 0.000000 0.027894
#
#
# Mechanical properties :
#
#
# Convention : Reuss Voigt Hill
#
# Bulk Modulus (GPa) = 12.03701 51.87900 31.95801
# Shear Modulus (GPa) = 14.19174 25.57601 19.88387
#
# Velocity S-wave (km/s) = 2.75275 3.69544 3.25836
# Velocity P-wave (km/s) = 4.06579 6.77562 5.58747
#
# Compressibility (1/GPa) = 0.08307708
#
# Stress axis : x y z
#
# Youngs Moduli (GPa) = 54.69937 88.18840 8.76536
#
# Poissons Ratio (x) = 0.55863 0.09947
# Poissons Ratio (y) = 0.34649 0.11073
# Poissons Ratio (z) = 0.62072 1.11403
#
# Static dielectric constant tensor:
#      x y z
#    x 3.550110 0.000000 0.000000 
#    y 0.000000 3.886770 0.000000 
#    z 0.000000 0.000000 2.901530 
# 
# 
# High freq. dielectric constant tensor:
#      x y z
#    x 1.734710 0.000000 0.000000 
#    y 0.000000 1.745440 0.000000 
#    z 0.000000 0.000000 1.675480 
# 
# From -- ./inp_files/32550.got.cif
#   From: 2010.03.12/outbox.cif.g09.slc.cpg/sg65_17_cif.got.tgz:32550.got - 2010.04.10 20:52:16.
