data_PCOD8268629
_publ_section_title
;
Structure prediction by ZEFSAII (Michael W. Deem and Ramdas Pophale) SiO2 
 PCOD8268629
Probable space group: C M M M
;
_chemical_formula_sum "Si O2"
_cell_formula_units_Z 104
_cell_length_a 15.020613
_cell_length_b 18.320884
_cell_length_c 20.817849
_cell_angle_alpha 90.000000
_cell_angle_beta 90.000000
_cell_angle_gamma 90.000000
_cell_volume 5728.882777
_symmetry_space_group_name_H-M "C M M M"
_symmetry_group_IT_number 65
_symmetry_cell_setting 'orthorhombic'
loop_
_space_group_symop_operation_xyz
x,y,z
-x,-y,z
x,-y,-z
-x,y,-z
-x,-y,-z
x,y,-z
-x,y,z
x,-y,z
1/2+x,1/2+y,z
1/2-x,1/2-y,z
1/2+x,1/2-y,-z
1/2-x,1/2+y,-z
1/2-x,1/2-y,-z
1/2+x,1/2+y,-z
1/2-x,1/2+y,z
1/2+x,1/2-y,z
loop_
_atom_site_type_symbol
_atom_site_label
_atom_site_fract_x
_atom_site_fract_y
_atom_site_fract_z
Si Si1 0.900579 0.651000 0.926218
Si Si2 0.245776 0.918652 0.290505
Si Si3 0.603663 0.149778 0.633493
Si Si4 0.738874 0.581168 0.140916
Si Si5 0.599665 0.301467 0.697089
Si Si6 0.895247 0.582751 0.500000
Si Si7 0.151935 0.221202 0.160878
O O1 0.829096 0.594144 0.898878
O O2 0.898502 0.727828 0.889151
O O3 0.000000 0.617764 0.919167
O O4 0.877135 0.666844 0.000000
O O5 0.341472 0.903112 0.320535
O O6 0.261999 0.909521 0.215335
O O7 0.169759 0.865126 0.317668
O O8 0.214441 0.000000 0.308089
O O9 0.500000 0.132475 0.644607
O O10 0.625259 0.233541 0.651420
O O11 0.634702 0.130524 0.561288
O O12 0.703112 0.500000 0.124753
O O13 0.661600 0.640978 0.127119
O O14 0.500000 0.328667 0.680333
O O15 0.599483 0.279672 0.772168
O O16 0.853769 0.500000 0.500000
O O17 0.000000 0.573772 0.500000
O O18 0.250000 0.250000 0.176567
#
# Coordination Sequence:
#
# PCOD8268629 Si02
#       7
#    16  16  16  16  16   8  16
#     4  10  20  32  47  68  94 125 159 195 240 296
#     4  10  20  34  51  73 103 133 164 203 246 297
#     4  10  19  32  53  78 102 130 164 204 249 292
#     4   9  19  33  48  69  95 123 156 196 242 289
#     4  10  19  32  52  75 100 131 166 205 247 291
#     4   9  18  32  49  74 108 138 165 201 248 300
#     4   9  17  31  51  71  94 123 160 204 245 288
#
# _framework density 18.153627
#
# number of rings (size 3 to 8) (size 9 to 14) (size 15 to 20)
#    0.000    2.385    0.000    4.154    0.000    6.462 
#    0.000    3.846    0.000    1.385    0.000    1.077 
#    0.000    4.923    0.000    0.000    0.000    0.000 
#
# Total GULP energy -644627.823890 kJ/mol
# GULP energy per Si atom -12396.688921 kJ/mol
# Density = 1.811231 g / cm^3
# Si number density = 18.153627 Si / 1000 Ang^3
#
#
#
# Elastic Constant Matrix: (Units=GPa)
#
#
# Indices 1 2 3 4 5 6 
#
# 1 59.8781 29.9897 30.0513 0.0000 0.0000 0.0000
# 2 29.9897 125.8588 46.4081 0.0000 0.0000 0.0000
# 3 30.0513 46.4081 63.1259 0.0000 0.0000 0.0000
# 4 0.0000 0.0000 0.0000 11.3263 0.0000 0.0000
# 5 0.0000 0.0000 0.0000 0.0000 19.1113 0.0000
# 6 0.0000 0.0000 0.0000 0.0000 0.0000 19.1560
#
#
#
# Elastic Compliance Matrix: (Units=1/GPa)
#
#
# Indices 1 2 3 4 5 6 
#
# 1 0.022275 -0.001917 -0.009195 0.000000 0.000000 0.000000
# 2 -0.001917 0.011065 -0.007222 0.000000 0.000000 0.000000
# 3 -0.009195 -0.007222 0.025528 0.000000 0.000000 0.000000
# 4 0.000000 0.000000 0.000000 0.088290 0.000000 0.000000
# 5 0.000000 0.000000 0.000000 0.000000 0.052325 0.000000
# 6 0.000000 0.000000 0.000000 0.000000 0.000000 0.052203
#
#
# Mechanical properties :
#
#
# Convention : Reuss Voigt Hill
#
# Bulk Modulus (GPa) = 45.04425 51.30676 48.17551
# Shear Modulus (GPa) = 16.90589 19.41299 18.15944
#
# Velocity S-wave (km/s) = 3.05498 3.27367 3.16622
# Velocity P-wave (km/s) = 6.10824 6.52787 6.32154
#
# Compressibility (1/GPa) = 0.02220039
#
# Stress axis : x y z
#
# Youngs Moduli (GPa) = 44.89238 90.37266 39.17280
#
# Poissons Ratio (x) = 0.17328 0.36018
# Poissons Ratio (y) = 0.08608 0.28291
# Poissons Ratio (z) = 0.41277 0.65267
#
# Static dielectric constant tensor:
#      x y z
#    x 3.278510 0.000000 0.000000 
#    y 0.000000 3.766740 0.000000 
#    z 0.000000 0.000000 3.336970 
# 
# 
# High freq. dielectric constant tensor:
#      x y z
#    x 1.688520 0.000000 0.000000 
#    y 0.000000 1.707110 0.000000 
#    z 0.000000 0.000000 1.691260 
# 
# From -- ./inp_files/62889.got.cif
#   From: 2010.03.12/outbox.cif.g09.slc.cpg/sg65_32_cif.got.tgz:62889.got - 2010.04.10 20:52:16.
