data_PCOD8268836
_publ_section_title
;
Structure prediction by ZEFSAII (Michael W. Deem and Ramdas Pophale) SiO2 
 PCOD8268836
Probable space group: C M M M
;
_chemical_formula_sum "Si O2"
_cell_formula_units_Z 88
_cell_length_a 22.022085
_cell_length_b 16.118192
_cell_length_c 16.825048
_cell_angle_alpha 90.000000
_cell_angle_beta 90.000000
_cell_angle_gamma 90.000000
_cell_volume 5972.155006
_symmetry_space_group_name_H-M "C M M M"
_symmetry_group_IT_number 65
_symmetry_cell_setting 'orthorhombic'
loop_
_space_group_symop_operation_xyz
x,y,z
-x,-y,z
x,-y,-z
-x,y,-z
-x,-y,-z
x,y,-z
-x,y,z
x,-y,z
1/2+x,1/2+y,z
1/2-x,1/2-y,z
1/2+x,1/2-y,-z
1/2-x,1/2+y,-z
1/2-x,1/2-y,-z
1/2+x,1/2+y,-z
1/2-x,1/2+y,z
1/2+x,1/2-y,z
loop_
_atom_site_type_symbol
_atom_site_label
_atom_site_fract_x
_atom_site_fract_y
_atom_site_fract_z
Si Si1 0.361349 0.337969 0.407261
Si Si2 0.572440 0.904029 0.172017
Si Si3 0.769841 0.404423 0.589955
Si Si4 0.568311 0.500000 0.405696
Si Si5 0.115932 0.667944 0.673067
Si Si6 0.000000 0.402581 0.412603
Si Si7 0.433886 0.902188 0.000000
O O1 0.375674 0.319416 0.500000
O O2 0.289751 0.349912 0.394829
O O3 0.397169 0.418270 0.375646
O O4 0.383646 0.263614 0.351789
O O5 0.500000 0.890873 0.176305
O O6 0.607150 0.842947 0.232501
O O7 0.598258 0.878557 0.083810
O O8 0.587868 0.000000 0.191970
O O9 0.793330 0.390379 0.500000
O O10 0.752703 0.500000 0.604054
O O11 0.821744 0.376256 0.649456
O O12 0.500000 0.500000 0.371779
O O13 0.568809 0.500000 0.500000
O O14 0.059952 0.623249 0.632452
O O15 0.000000 0.500000 0.419407
O O16 0.000000 0.361645 0.500000
O O17 0.500000 0.859404 0.000000
O O18 0.443397 0.000000 0.000000
#
# Coordination Sequence:
#
# PCOD8268836 Si02
#       7
#    16  16  16   8  16   8   8
#     4  10  20  34  47  63  85 116 160 201 233 266
#     4   9  16  28  43  64  93 121 148 179 219 268
#     4  10  19  33  48  61  83 120 162 197 227 262
#     4   9  18  32  50  64  80 110 152 204 249 270
#     4  12  21  28  44  67  92 119 150 190 225 267
#     4  11  22  32  38  56  94 132 154 169 208 268
#     4   7  12  24  44  62  83 119 151 175 212 265
#
# _framework density 14.735049
#
# number of rings (size 3 to 8) (size 9 to 14) (size 15 to 20)
#    0.000    2.091    1.818    4.909    1.273    2.909 
#    0.000    0.000    0.000    0.000    0.000    2.545 
#    0.000    0.727    0.000    4.091    0.000    0.000 
#
# Total GULP energy -545401.150477 kJ/mol
# GULP energy per Si atom -12395.480693 kJ/mol
# Density = 1.470151 g / cm^3
# Si number density = 14.735049 Si / 1000 Ang^3
#
#
#
# Elastic Constant Matrix: (Units=GPa)
#
#
# Indices 1 2 3 4 5 6 
#
# 1 67.8269 25.8285 36.2471 0.0000 0.0000 0.0000
# 2 25.8285 78.7688 46.1034 0.0000 0.0000 0.0000
# 3 36.2471 46.1034 115.7447 0.0000 0.0000 0.0000
# 4 0.0000 0.0000 0.0000 13.7186 0.0000 0.0000
# 5 0.0000 0.0000 0.0000 0.0000 9.9070 0.0000
# 6 0.0000 0.0000 0.0000 0.0000 0.0000 19.3477
#
#
#
# Elastic Compliance Matrix: (Units=1/GPa)
#
#
# Indices 1 2 3 4 5 6 
#
# 1 0.018407 -0.003471 -0.004382 0.000000 0.000000 0.000000
# 2 -0.003471 0.017209 -0.005768 0.000000 0.000000 0.000000
# 3 -0.004382 -0.005768 0.012309 0.000000 0.000000 0.000000
# 4 0.000000 0.000000 0.000000 0.072894 0.000000 0.000000
# 5 0.000000 0.000000 0.000000 0.000000 0.100939 0.000000
# 6 0.000000 0.000000 0.000000 0.000000 0.000000 0.051686
#
#
# Mechanical properties :
#
#
# Convention : Reuss Voigt Hill
#
# Bulk Modulus (GPa) = 48.34571 53.18872 50.76721
# Shear Modulus (GPa) = 16.25594 18.87208 17.56401
#
# Velocity S-wave (km/s) = 3.32507 3.58266 3.45626
# Velocity P-wave (km/s) = 6.90092 7.29993 7.10323
#
# Compressibility (1/GPa) = 0.02068436
#
# Stress axis : x y z
#
# Youngs Moduli (GPa) = 54.32762 58.10753 81.23875
#
# Poissons Ratio (x) = 0.20169 0.35597
# Poissons Ratio (y) = 0.18857 0.46858
# Poissons Ratio (z) = 0.23805 0.33516
#
# Static dielectric constant tensor:
#      x y z
#    x 2.938010 0.000000 0.000000 
#    y 0.000000 2.803680 0.000000 
#    z 0.000000 0.000000 2.958070 
# 
# 
# High freq. dielectric constant tensor:
#      x y z
#    x 1.556060 0.000000 0.000000 
#    y 0.000000 1.554510 0.000000 
#    z 0.000000 0.000000 1.535950 
# 
# From -- ./inp_files/55798.got.cif
#   From: 2010.03.12/outbox.cif.g09.slc.cpg/sg65_28_cif.got.tgz:55798.got - 2010.04.10 20:52:16.
