data_PCOD8268717
_publ_section_title
;
Structure prediction by ZEFSAII (Michael W. Deem and Ramdas Pophale) SiO2 
 PCOD8268717
Probable space group: C M M M
;
_chemical_formula_sum "Si O2"
_cell_formula_units_Z 72
_cell_length_a 8.458789
_cell_length_b 18.807934
_cell_length_c 23.186711
_cell_angle_alpha 90.000000
_cell_angle_beta 90.000000
_cell_angle_gamma 90.000000
_cell_volume 3688.828231
_symmetry_space_group_name_H-M "C M M M"
_symmetry_group_IT_number 65
_symmetry_cell_setting 'orthorhombic'
loop_
_space_group_symop_operation_xyz
x,y,z
-x,-y,z
x,-y,-z
-x,y,-z
-x,-y,-z
x,y,-z
-x,y,z
x,-y,z
1/2+x,1/2+y,z
1/2-x,1/2-y,z
1/2+x,1/2-y,-z
1/2-x,1/2+y,-z
1/2-x,1/2-y,-z
1/2+x,1/2+y,-z
1/2-x,1/2+y,z
1/2+x,1/2-y,z
loop_
_atom_site_type_symbol
_atom_site_label
_atom_site_fract_x
_atom_site_fract_y
_atom_site_fract_z
Si Si1 0.186881 0.328909 0.708827
Si Si2 0.813579 0.081562 0.605823
Si Si3 0.685077 0.829433 0.500000
Si Si4 0.187715 0.920496 0.063068
Si Si5 0.688481 0.672766 0.167874
O O1 0.250000 0.250000 0.695120
O O2 0.262790 0.386419 0.666745
O O3 0.235680 0.354194 0.772607
O O4 0.000000 0.328320 0.701654
O O5 0.737289 0.128144 0.556066
O O6 0.000000 0.085362 0.599006
O O7 0.754517 0.000000 0.601540
O O8 0.500000 0.822664 0.500000
O O9 0.750000 0.750000 0.500000
O O10 0.255390 0.874532 0.115544
O O11 0.000000 0.920646 0.066300
O O12 0.253457 0.000000 0.070514
O O13 0.241132 0.890625 0.000000
O O14 0.500000 0.671562 0.173853
O O15 0.750000 0.750000 0.152910
#
# Coordination Sequence:
#
# PCOD8268717 Si02
#       5
#    16  16   8  16  16
#     4  11  22  38  59  82 112 148 188 232 279 333
#     4  11  24  42  63  88 119 152 188 231 279 330
#     4  12  25  42  65  91 121 155 193 232 275 328
#     4   8  15  29  49  73 101 135 177 223 270 324
#     4  10  19  32  52  78 107 140 179 224 275 329
#
# _framework density 19.518393
#
# number of rings (size 3 to 8) (size 9 to 14) (size 15 to 20)
#    0.000    1.778    0.000    7.333    0.000    4.444 
#    0.000    2.222    0.000    4.000    0.000    6.222 
#    0.000    0.000    0.000    0.000    0.000    0.000 
#
# Total GULP energy -446377.327167 kJ/mol
# GULP energy per Si atom -12399.370199 kJ/mol
# Density = 1.947397 g / cm^3
# Si number density = 19.518393 Si / 1000 Ang^3
#
#
#
# Elastic Constant Matrix: (Units=GPa)
#
#
# Indices 1 2 3 4 5 6 
#
# 1 71.3662 38.0301 19.8763 0.0000 0.0000 0.0000
# 2 38.0301 142.0334 105.3415 0.0000 0.0000 0.0000
# 3 19.8763 105.3415 160.0745 0.0000 0.0000 0.0000
# 4 0.0000 0.0000 0.0000 12.2062 0.0000 0.0000
# 5 0.0000 0.0000 0.0000 0.0000 15.3396 0.0000
# 6 0.0000 0.0000 0.0000 0.0000 0.0000 28.8527
#
#
#
# Elastic Compliance Matrix: (Units=1/GPa)
#
#
# Indices 1 2 3 4 5 6 
#
# 1 0.016574 -0.005687 0.001685 0.000000 0.000000 0.000000
# 2 -0.005687 0.015705 -0.009629 0.000000 0.000000 0.000000
# 3 0.001685 -0.009629 0.012374 0.000000 0.000000 0.000000
# 4 0.000000 0.000000 0.000000 0.081925 0.000000 0.000000
# 5 0.000000 0.000000 0.000000 0.000000 0.065191 0.000000
# 6 0.000000 0.000000 0.000000 0.000000 0.000000 0.034659
#
#
# Mechanical properties :
#
#
# Convention : Reuss Voigt Hill
#
# Bulk Modulus (GPa) = 57.50348 77.77441 67.63895
# Shear Modulus (GPa) = 19.26881 25.29478 22.28180
#
# Velocity S-wave (km/s) = 3.14540 3.60383 3.38239
# Velocity P-wave (km/s) = 6.53579 7.56637 7.06989
#
# Compressibility (1/GPa) = 0.01739025
#
# Stress axis : x y z
#
# Youngs Moduli (GPa) = 60.33683 63.67544 80.81228
#
# Poissons Ratio (x) = 0.36213 -0.13614
# Poissons Ratio (y) = 0.34314 0.77812
# Poissons Ratio (z) = -0.10164 0.61311
#
# Static dielectric constant tensor:
#      x y z
#    x 3.491470 0.000000 0.000000 
#    y 0.000000 3.766300 0.000000 
#    z 0.000000 0.000000 3.979940 
# 
# 
# High freq. dielectric constant tensor:
#      x y z
#    x 1.754280 0.000000 0.000000 
#    y 0.000000 1.760230 0.000000 
#    z 0.000000 0.000000 1.780580 
# 
# From -- ./inp_files/67050.got.cif
#   From: 2010.03.12/outbox.cif.g09.slc.cpg/sg65_34_cif.got.tgz:67050.got - 2010.04.10 20:52:16.
