data_PCOD8268417
_publ_section_title
;
Structure prediction by ZEFSAII (Michael W. Deem and Ramdas Pophale) SiO2 
 PCOD8268417
Probable space group: C M M M
;
_chemical_formula_sum "Si O2"
_cell_formula_units_Z 104
_cell_length_a 15.714239
_cell_length_b 25.275350
_cell_length_c 14.728208
_cell_angle_alpha 90.000000
_cell_angle_beta 90.000000
_cell_angle_gamma 90.000000
_cell_volume 5849.792228
_symmetry_space_group_name_H-M "C M M M"
_symmetry_group_IT_number 65
_symmetry_cell_setting 'orthorhombic'
loop_
_space_group_symop_operation_xyz
x,y,z
-x,-y,z
x,-y,-z
-x,y,-z
-x,-y,-z
x,y,-z
-x,y,z
x,-y,z
1/2+x,1/2+y,z
1/2-x,1/2-y,z
1/2+x,1/2-y,-z
1/2-x,1/2+y,-z
1/2-x,1/2-y,-z
1/2+x,1/2+y,-z
1/2-x,1/2+y,z
1/2+x,1/2-y,z
loop_
_atom_site_type_symbol
_atom_site_label
_atom_site_fract_x
_atom_site_fract_y
_atom_site_fract_z
Si Si1 0.362454 0.145030 0.394359
Si Si2 0.099423 0.942587 0.724992
Si Si3 0.901286 0.884041 0.900303
Si Si4 0.000000 0.560398 0.392578
Si Si5 0.148186 0.748734 0.292503
Si Si6 0.654109 0.268341 0.097144
Si Si7 0.164480 0.146936 0.394098
O O1 0.379634 0.154881 0.500000
O O2 0.416401 0.093776 0.360897
O O3 0.392100 0.198463 0.343461
O O4 0.263571 0.136764 0.373069
O O5 0.135598 0.921383 0.821205
O O6 0.117953 0.905392 0.639840
O O7 0.000000 0.948894 0.736334
O O8 0.141060 0.000000 0.706201
O O9 0.845563 0.831408 0.895354
O O10 0.000000 0.869209 0.883497
O O11 0.890263 0.910966 0.000000
O O12 0.000000 0.500000 0.351548
O O13 0.000000 0.555058 0.500000
O O14 0.250000 0.750000 0.293390
O O15 0.111007 0.745832 0.189210
O O16 0.122205 0.803077 0.342716
O O17 0.750000 0.250000 0.094168
O O18 0.609736 0.251475 0.000000
O O19 0.148018 0.155422 0.500000
#
# Coordination Sequence:
#
# PCOD8268417 Si02
#       7
#    16  16  16   8  16  16  16
#     4   9  18  32  51  74  98 127 162 199 242 290
#     4  10  21  35  48  66  94 127 167 209 244 284
#     4   9  17  31  50  70  93 122 159 200 241 286
#     4   9  18  34  52  72 101 129 160 208 254 287
#     4   9  16  29  48  70  99 125 153 193 239 285
#     4   9  16  27  47  72  95 122 150 184 238 296
#     4  10  19  32  50  70  95 131 168 199 240 291
#
# _framework density 17.778410000000001
#
# number of rings (size 3 to 8) (size 9 to 14) (size 15 to 20)
#    0.000    2.692    1.538    0.462    0.000    3.385 
#    2.769    3.846    0.000    0.000    0.000    0.000 
#    0.000    1.231    0.000    0.000    0.000    0.154 
#
# Total GULP energy -644248.078624 kJ/mol
# GULP energy per Si atom -12389.386127 kJ/mol
# Density = 1.773795 g / cm^3
# Si number density = 17.778410 Si / 1000 Ang^3
#
#
#
# Elastic Constant Matrix: (Units=GPa)
#
#
# Indices 1 2 3 4 5 6 
#
# 1 25.7861 28.4079 17.5134 0.0000 0.0000 0.0000
# 2 28.4079 141.4408 53.9262 0.0000 0.0000 0.0000
# 3 17.5134 53.9262 108.3961 0.0000 0.0000 0.0000
# 4 0.0000 0.0000 0.0000 23.3033 0.0000 0.0000
# 5 0.0000 0.0000 0.0000 0.0000 13.3487 0.0000
# 6 0.0000 0.0000 0.0000 0.0000 0.0000 25.0836
#
#
#
# Elastic Compliance Matrix: (Units=1/GPa)
#
#
# Indices 1 2 3 4 5 6 
#
# 1 0.051093 -0.008780 -0.003887 0.000000 0.000000 0.000000
# 2 -0.008780 0.010234 -0.003673 0.000000 0.000000 0.000000
# 3 -0.003887 -0.003673 0.011681 0.000000 0.000000 0.000000
# 4 0.000000 0.000000 0.000000 0.042912 0.000000 0.000000
# 5 0.000000 0.000000 0.000000 0.000000 0.074913 0.000000
# 6 0.000000 0.000000 0.000000 0.000000 0.000000 0.039867
#
#
# Mechanical properties :
#
#
# Convention : Reuss Voigt Hill
#
# Bulk Modulus (GPa) = 24.79650 52.81310 38.80480
# Shear Modulus (GPa) = 18.06212 24.06548 21.06380
#
# Velocity S-wave (km/s) = 3.19087 3.68317 3.44582
# Velocity P-wave (km/s) = 5.24913 6.91798 6.14051
#
# Compressibility (1/GPa) = 0.04032827
#
# Stress axis : x y z
#
# Youngs Moduli (GPa) = 19.57202 97.71587 85.61214
#
# Poissons Ratio (x) = 0.85793 0.33279
# Poissons Ratio (y) = 0.17184 0.31442
# Poissons Ratio (z) = 0.07608 0.35888
#
# Static dielectric constant tensor:
#      x y z
#    x 3.036000 0.000000 0.000000 
#    y 0.000000 3.493070 0.000000 
#    z 0.000000 0.000000 3.684870 
# 
# 
# High freq. dielectric constant tensor:
#      x y z
#    x 1.654290 0.000000 0.000000 
#    y 0.000000 1.680130 0.000000 
#    z 0.000000 0.000000 1.694200 
# 
# From -- ./inp_files/43265.got.cif
#   From: 2010.03.12/outbox.cif.g09.slc.cpg/sg65_22_cif.got.tgz:43265.got - 2010.04.10 20:52:16.
