data_PCOD8268146
_publ_section_title
;
Structure prediction by ZEFSAII (Michael W. Deem and Ramdas Pophale) SiO2 
 PCOD8268146
Probable space group: C M M M
;
_chemical_formula_sum "Si O2"
_cell_formula_units_Z 88
_cell_length_a 18.900060
_cell_length_b 8.972030
_cell_length_c 28.294415
_cell_angle_alpha 90.000000
_cell_angle_beta 90.000000
_cell_angle_gamma 90.000000
_cell_volume 4797.937862
_symmetry_space_group_name_H-M "C M M M"
_symmetry_group_IT_number 65
_symmetry_cell_setting 'orthorhombic'
loop_
_space_group_symop_operation_xyz
x,y,z
-x,-y,z
x,-y,-z
-x,y,-z
-x,-y,-z
x,y,-z
-x,y,z
x,-y,z
1/2+x,1/2+y,z
1/2-x,1/2-y,z
1/2+x,1/2-y,-z
1/2-x,1/2+y,-z
1/2-x,1/2-y,-z
1/2+x,1/2+y,-z
1/2-x,1/2+y,z
1/2+x,1/2-y,z
loop_
_atom_site_type_symbol
_atom_site_label
_atom_site_fract_x
_atom_site_fract_y
_atom_site_fract_z
Si Si1 0.083444 0.826598 0.500000
Si Si2 0.675350 0.326530 0.049833
Si Si3 0.918774 0.325713 0.768883
Si Si4 0.676264 0.176951 0.576768
Si Si5 0.821139 0.326902 0.315754
Si Si6 0.826398 0.824263 0.152494
O O1 0.113493 0.746725 0.546437
O O2 0.000000 0.803938 0.500000
O O3 0.104596 0.000000 0.500000
O O4 0.690492 0.500000 0.050736
O O5 0.750000 0.250000 0.047820
O O6 0.640161 0.283531 0.100285
O O7 0.633703 0.285546 0.000000
O O8 0.909403 0.500000 0.779199
O O9 0.885170 0.281268 0.718473
O O10 0.882157 0.235264 0.810332
O O11 0.000000 0.277766 0.766661
O O12 0.750000 0.250000 0.560349
O O13 0.659691 0.221160 0.630950
O O14 0.680014 0.000000 0.568876
O O15 0.805223 0.500000 0.313709
O O16 0.750000 0.250000 0.297289
O O17 0.750000 0.750000 0.160142
O O18 0.816886 0.000000 0.159369
#
# Coordination Sequence:
#
# PCOD8268146 Si02
#       6
#     8  16  16  16  16  16
#     4  11  24  39  54  77 111 145 176 213 256 299
#     4   8  14  25  42  66  95 124 156 199 249 296
#     4  10  21  36  52  72 102 137 170 208 255 302
#     4  10  20  36  59  83 107 136 172 212 253 301
#     4   9  19  35  56  80 103 131 168 210 254 301
#     4  10  19  31  50  75 101 130 167 208 250 301
#
# _framework density 18.341214000000001
#
# number of rings (size 3 to 8) (size 9 to 14) (size 15 to 20)
#    0.000    2.455    0.000    2.182    0.000    5.455 
#    0.000    1.818    0.000    0.545    0.000    3.818 
#    0.000    0.000    0.000    0.000    0.000    0.000 
#
# Total GULP energy -545240.651885 kJ/mol
# GULP energy per Si atom -12391.832997 kJ/mol
# Density = 1.829947 g / cm^3
# Si number density = 18.341214 Si / 1000 Ang^3
#
#
#
# Elastic Constant Matrix: (Units=GPa)
#
#
# Indices 1 2 3 4 5 6 
#
# 1 111.3677 49.3473 77.6792 0.0000 0.0000 0.0000
# 2 49.3473 66.0351 54.2018 0.0000 0.0000 0.0000
# 3 77.6792 54.2018 149.9935 0.0000 0.0000 0.0000
# 4 0.0000 0.0000 0.0000 80.6983 0.0000 0.0000
# 5 0.0000 0.0000 0.0000 0.0000 -7.8326 0.0000
# 6 0.0000 0.0000 0.0000 0.0000 0.0000 25.5971
#
#
#
# Elastic Compliance Matrix: (Units=1/GPa)
#
#
# Indices 1 2 3 4 5 6 
#
# 1 0.016289 -0.007461 -0.005739 0.000000 0.000000 0.000000
# 2 -0.007461 0.024947 -0.005151 0.000000 0.000000 0.000000
# 3 -0.005739 -0.005151 0.011501 0.000000 0.000000 0.000000
# 4 0.000000 0.000000 0.000000 0.012392 0.000000 0.000000
# 5 0.000000 0.000000 0.000000 0.000000 -0.127672 0.000000
# 6 0.000000 0.000000 0.000000 0.000000 0.000000 0.039067
#
#
# Mechanical properties :
#
#
# Convention : Reuss Voigt Hill
#
# Bulk Modulus (GPa) = 62.37065 76.65035 69.51050
# Shear Modulus (GPa) = 269.24933 29.43711 149.34322
#
# Velocity S-wave (km/s) = 12.12926 4.01055 9.03337
# Velocity P-wave (km/s) = 15.17360 7.95790 12.11541
#
# Compressibility (1/GPa) = 0.01603318
#
# Stress axis : x y z
#
# Youngs Moduli (GPa) = 61.39238 40.08490 86.95237
#
# Poissons Ratio (x) = 0.29909 0.49905
# Poissons Ratio (y) = 0.45808 0.44787
# Poissons Ratio (z) = 0.35235 0.20647
#
# Static dielectric constant tensor:
#      x y z
#    x 3.103800 0.000000 0.000000 
#    y 0.000000 3.428190 0.000000 
#    z 0.000000 0.000000 4.082170 
# 
# 
# High freq. dielectric constant tensor:
#      x y z
#    x 1.674690 0.000000 0.000000 
#    y 0.000000 1.716050 0.000000 
#    z 0.000000 0.000000 1.739310 
# 
# From -- ./inp_files/77790.got.cif
#   From: 2010.03.12/outbox.cif.g09.slc.cpg/sg65_39_cif.got.tgz:77790.got - 2010.04.10 20:52:16.
