data_PCOD8268332
_publ_section_title
;
Structure prediction by ZEFSAII (Michael W. Deem and Ramdas Pophale) SiO2 
 PCOD8268332
Probable space group: C M M M
;
_chemical_formula_sum "Si O2"
_cell_formula_units_Z 80
_cell_length_a 19.772148
_cell_length_b 14.310781
_cell_length_c 17.685776
_cell_angle_alpha 90.000000
_cell_angle_beta 90.000000
_cell_angle_gamma 90.000000
_cell_volume 5004.276625
_symmetry_space_group_name_H-M "C M M M"
_symmetry_group_IT_number 65
_symmetry_cell_setting 'orthorhombic'
loop_
_space_group_symop_operation_xyz
x,y,z
-x,-y,z
x,-y,-z
-x,y,-z
-x,-y,-z
x,y,-z
-x,y,z
x,-y,z
1/2+x,1/2+y,z
1/2-x,1/2-y,z
1/2+x,1/2-y,-z
1/2-x,1/2+y,-z
1/2-x,1/2-y,-z
1/2+x,1/2+y,-z
1/2-x,1/2+y,z
1/2+x,1/2-y,z
loop_
_atom_site_type_symbol
_atom_site_label
_atom_site_fract_x
_atom_site_fract_y
_atom_site_fract_z
Si Si1 0.657445 0.393627 0.224956
Si Si2 0.575482 0.389142 0.083917
Si Si3 0.750000 0.250000 0.693767
Si Si4 0.633991 0.789514 0.584745
Si Si5 0.421946 0.603331 0.627287
Si Si6 0.000000 0.606024 0.589773
O O1 0.684426 0.500000 0.215688
O O2 0.628387 0.351885 0.146267
O O3 0.718092 0.328302 0.252586
O O4 0.596037 0.390326 0.284338
O O5 0.500000 0.348765 0.098507
O O6 0.572085 0.500000 0.090607
O O7 0.600285 0.359079 0.000000
O O8 0.696559 0.194379 0.641002
O O9 0.652066 0.825078 0.500000
O O10 0.619976 0.678534 0.579616
O O11 0.568161 0.842687 0.618593
O O12 0.500000 0.626399 0.616984
O O13 0.404531 0.500000 0.595807
O O14 0.000000 0.500000 0.620222
O O15 0.000000 0.609800 0.500000
#
# Coordination Sequence:
#
# PCOD8268332 Si02
#       6
#    16  16   8  16  16   8
#     4   9  17  29  43  62  91 121 147 178 214 262
#     4   8  13  23  43  70  95 118 142 170 211 263
#     4  10  21  32  45  64  88 120 156 184 233 278
#     4  10  19  32  46  63  86 113 149 194 237 277
#     4   9  16  26  43  66  89 112 137 171 225 282
#     4   9  18  32  49  65  81 109 151 196 236 266
#
# _framework density 15.986326
#
# number of rings (size 3 to 8) (size 9 to 14) (size 15 to 20)
#    0.000    2.900    1.000    1.500    0.000    3.600 
#    0.000    1.500    0.000    3.600    0.000    0.000 
#    0.000    0.000    0.000    2.200    0.000    0.200 
#
# Total GULP energy -495770.712370 kJ/mol
# GULP energy per Si atom -12394.267809 kJ/mol
# Density = 1.594994 g / cm^3
# Si number density = 15.986326 Si / 1000 Ang^3
#
#
#
# Elastic Constant Matrix: (Units=GPa)
#
#
# Indices 1 2 3 4 5 6 
#
# 1 98.7628 33.9181 51.2600 0.0000 0.0000 0.0000
# 2 33.9181 57.8835 25.2830 0.0000 0.0000 0.0000
# 3 51.2600 25.2830 91.1244 0.0000 0.0000 0.0000
# 4 0.0000 0.0000 0.0000 15.0135 0.0000 0.0000
# 5 0.0000 0.0000 0.0000 0.0000 24.0905 0.0000
# 6 0.0000 0.0000 0.0000 0.0000 0.0000 23.5692
#
#
#
# Elastic Compliance Matrix: (Units=1/GPa)
#
#
# Indices 1 2 3 4 5 6 
#
# 1 0.016051 -0.006215 -0.007305 0.000000 0.000000 0.000000
# 2 -0.006215 0.022065 -0.002626 0.000000 0.000000 0.000000
# 3 -0.007305 -0.002626 0.015812 0.000000 0.000000 0.000000
# 4 0.000000 0.000000 0.000000 0.066607 0.000000 0.000000
# 5 0.000000 0.000000 0.000000 0.000000 0.041510 0.000000
# 6 0.000000 0.000000 0.000000 0.000000 0.000000 0.042428
#
#
# Mechanical properties :
#
#
# Convention : Reuss Voigt Hill
#
# Bulk Modulus (GPa) = 46.21850 52.07699 49.14775
# Shear Modulus (GPa) = 20.49385 21.68862 21.09123
#
# Velocity S-wave (km/s) = 3.58433 3.68733 3.63620
# Velocity P-wave (km/s) = 6.78999 7.12568 6.95986
#
# Compressibility (1/GPa) = 0.02163636
#
# Stress axis : x y z
#
# Youngs Moduli (GPa) = 62.30163 45.32113 63.24409
#
# Poissons Ratio (x) = 0.28166 0.46198
# Poissons Ratio (y) = 0.38719 0.16608
# Poissons Ratio (z) = 0.45510 0.11901
#
# Static dielectric constant tensor:
#      x y z
#    x 3.000880 0.000000 0.000000 
#    y 0.000000 2.893900 0.000000 
#    z 0.000000 0.000000 3.072310 
# 
# 
# High freq. dielectric constant tensor:
#      x y z
#    x 1.606670 0.000000 0.000000 
#    y 0.000000 1.586640 0.000000 
#    z 0.000000 0.000000 1.601060 
# 
# From -- ./inp_files/55735.got.cif
#   From: 2010.03.12/outbox.cif.g09.slc.cpg/sg65_28_cif.got.tgz:55735.got - 2010.04.10 20:52:16.
