data_PCOD8269898
_publ_section_title
;
Structure prediction by ZEFSAII (Michael W. Deem and Ramdas Pophale) SiO2 
 PCOD8269898
Probable space group: C M M M
;
_chemical_formula_sum "Si O2"
_cell_formula_units_Z 88
_cell_length_a 9.076765
_cell_length_b 28.160866
_cell_length_c 23.299161
_cell_angle_alpha 90.000000
_cell_angle_beta 90.000000
_cell_angle_gamma 90.000000
_cell_volume 5955.488359
_symmetry_space_group_name_H-M "C M M M"
_symmetry_group_IT_number 65
_symmetry_cell_setting 'orthorhombic'
loop_
_space_group_symop_operation_xyz
x,y,z
-x,-y,z
x,-y,-z
-x,y,-z
-x,-y,-z
x,y,-z
-x,y,z
x,-y,z
1/2+x,1/2+y,z
1/2-x,1/2-y,z
1/2+x,1/2-y,-z
1/2-x,1/2+y,-z
1/2-x,1/2-y,-z
1/2+x,1/2+y,-z
1/2-x,1/2+y,z
1/2+x,1/2-y,z
loop_
_atom_site_type_symbol
_atom_site_label
_atom_site_fract_x
_atom_site_fract_y
_atom_site_fract_z
Si Si1 0.828751 0.055777 0.213807
Si Si2 0.671342 0.203696 0.065232
Si Si3 0.173998 0.601886 0.107287
Si Si4 0.334429 0.443531 0.436776
Si Si5 0.667684 0.556186 0.000000
Si Si6 0.335436 0.943595 0.327742
O O1 0.736592 0.084145 0.167145
O O2 0.768651 0.072357 0.275532
O O3 0.000000 0.069071 0.209400
O O4 0.803499 0.000000 0.203981
O O5 0.500000 0.214257 0.066548
O O6 0.750000 0.250000 0.091706
O O7 0.711584 0.157660 0.102564
O O8 0.725364 0.194419 0.000000
O O9 0.000000 0.592627 0.103857
O O10 0.249625 0.573602 0.056233
O O11 0.277415 0.427497 0.500000
O O12 0.500000 0.424551 0.426829
O O13 0.335333 0.500000 0.433182
O O14 0.229734 0.422399 0.387134
O O15 0.669312 0.500000 0.000000
O O16 0.500000 0.575279 0.000000
O O17 0.500000 0.923233 0.318889
O O18 0.339967 0.000000 0.331227
#
# Coordination Sequence:
#
# PCOD8269898 Si02
#       6
#    16  16  16  16   8  16
#     4  10  20  32  44  59  81 110 144 177 208 248
#     4   9  18  33  50  69  88 105 128 160 202 251
#     4  11  21  34  49  66  86 107 135 170 209 250
#     4   8  13  21  33  49  70  97 129 167 210 249
#     4  11  23  35  46  63  86 111 140 171 204 245
#     4   9  16  25  37  53  73 100 135 173 211 246
#
# _framework density 14.776286000000001
#
# number of rings (size 3 to 8) (size 9 to 14) (size 15 to 20)
#    0.000    2.455    0.909    3.000    0.000    8.000 
#    0.000    1.818    0.000    0.000    0.000    0.000 
#    0.000    0.000    0.000    0.000    0.000    0.909 
#
# Total GULP energy -545500.014690 kJ/mol
# GULP energy per Si atom -12397.727607 kJ/mol
# Density = 1.474265 g / cm^3
# Si number density = 14.776286 Si / 1000 Ang^3
#
#
#
# Elastic Constant Matrix: (Units=GPa)
#
#
# Indices 1 2 3 4 5 6 
#
# 1 96.6732 38.7073 54.1022 0.0000 0.0000 0.0000
# 2 38.7073 49.9347 34.9934 0.0000 0.0000 0.0000
# 3 54.1022 34.9934 113.0558 0.0000 0.0000 0.0000
# 4 0.0000 0.0000 0.0000 -5.0644 0.0000 0.0000
# 5 0.0000 0.0000 0.0000 0.0000 31.0312 0.0000
# 6 0.0000 0.0000 0.0000 0.0000 0.0000 18.5160
#
#
#
# Elastic Compliance Matrix: (Units=1/GPa)
#
#
# Indices 1 2 3 4 5 6 
#
# 1 0.017109 -0.009609 -0.005213 0.000000 0.000000 0.000000
# 2 -0.009609 0.030970 -0.004988 0.000000 0.000000 0.000000
# 3 -0.005213 -0.004988 0.012884 0.000000 0.000000 0.000000
# 4 0.000000 0.000000 0.000000 -0.197456 0.000000 0.000000
# 5 0.000000 0.000000 0.000000 0.000000 0.032226 0.000000
# 6 0.000000 0.000000 0.000000 0.000000 0.000000 0.054007
#
#
# Mechanical properties :
#
#
# Convention : Reuss Voigt Hill
#
# Bulk Modulus (GPa) = 46.85354 57.25217 52.05286
# Shear Modulus (GPa) = -1417.57388 17.68727 -699.94330
#
# Velocity S-wave (km/s) = -31.00710 3.46353 -21.78812
# Velocity P-wave (km/s) = 35.35736 7.40438 24.44706
#
# Compressibility (1/GPa) = 0.02134310
#
# Stress axis : x y z
#
# Youngs Moduli (GPa) = 58.44883 32.28961 77.61720
#
# Poissons Ratio (x) = 0.31026 0.40464
# Poissons Ratio (y) = 0.56162 0.38712
# Poissons Ratio (z) = 0.30471 0.16105
#
# Static dielectric constant tensor:
#      x y z
#    x 3.083270 0.000000 0.000000 
#    y 0.000000 2.521670 0.000000 
#    z 0.000000 0.000000 3.164630 
# 
# 
# High freq. dielectric constant tensor:
#      x y z
#    x 1.581670 0.000000 0.000000 
#    y 0.000000 1.506170 0.000000 
#    z 0.000000 0.000000 1.565990 
# 
# From -- ./inp_files/60677.got.cif
#   From: 2010.03.12/outbox.cif.g09.slc.cpg/sg65_31_cif.got.tgz:60677.got - 2010.04.10 20:52:16.
