data_PCOD8269112
_publ_section_title
;
Structure prediction by ZEFSAII (Michael W. Deem and Ramdas Pophale) SiO2 
 PCOD8269112
Probable space group: C M M M
;
_chemical_formula_sum "Si O2"
_cell_formula_units_Z 64
_cell_length_a 7.734829
_cell_length_b 18.090871
_cell_length_c 22.068143
_cell_angle_alpha 90.000000
_cell_angle_beta 90.000000
_cell_angle_gamma 90.000000
_cell_volume 3087.990696
_symmetry_space_group_name_H-M "C M M M"
_symmetry_group_IT_number 65
_symmetry_cell_setting 'orthorhombic'
loop_
_space_group_symop_operation_xyz
x,y,z
-x,-y,z
x,-y,-z
-x,y,-z
-x,-y,-z
x,y,-z
-x,y,z
x,-y,z
1/2+x,1/2+y,z
1/2-x,1/2-y,z
1/2+x,1/2-y,-z
1/2-x,1/2+y,-z
1/2-x,1/2-y,-z
1/2+x,1/2+y,-z
1/2-x,1/2+y,z
1/2+x,1/2-y,z
loop_
_atom_site_type_symbol
_atom_site_label
_atom_site_fract_x
_atom_site_fract_y
_atom_site_fract_z
Si Si1 0.500000 0.414845 0.928570
Si Si2 0.694557 0.834296 0.861362
Si Si3 0.803491 0.083363 0.748012
Si Si4 0.296164 0.164511 0.630835
Si Si5 0.702213 0.165646 0.500000
O O1 0.500000 0.500000 0.908341
O O2 0.325150 0.378041 0.904297
O O3 0.500000 0.405286 0.000000
O O4 0.500000 0.840372 0.887956
O O5 0.750000 0.750000 0.857063
O O6 0.691491 0.867673 0.793772
O O7 0.798607 0.115924 0.680723
O O8 0.000000 0.084752 0.771666
O O9 0.730871 0.000000 0.747175
O O10 0.500000 0.153978 0.637582
O O11 0.250000 0.250000 0.639879
O O12 0.228973 0.133936 0.564543
O O13 0.500000 0.155249 0.500000
O O14 0.750000 0.250000 0.500000
#
# Coordination Sequence:
#
# PCOD8269112 Si02
#       5
#     8  16  16  16   8
#     4  11  26  48  72 104 145 180 218 270 324 386
#     4  12  24  44  71 102 134 176 223 274 326 384
#     4  11  23  39  59  85 122 162 207 263 324 385
#     4  10  19  33  54  81 111 150 199 254 314 382
#     4   8  16  30  49  74 107 145 193 251 311 372
#
# _framework density 20.725451
#
# number of rings (size 3 to 8) (size 9 to 14) (size 15 to 20)
#    0.000    1.375    2.500    3.000    0.000    5.500 
#    0.000    1.875    0.000    3.750    0.000    0.000 
#    0.000    0.000    0.000    0.000    0.000    0.000 
#
# Total GULP energy -396671.039564 kJ/mol
# GULP energy per Si atom -12395.969986 kJ/mol
# Density = 2.067828 g / cm^3
# Si number density = 20.725451 Si / 1000 Ang^3
#
#
#
# Elastic Constant Matrix: (Units=GPa)
#
#
# Indices 1 2 3 4 5 6 
#
# 1 115.4176 47.3714 35.5228 0.0000 0.0000 0.0000
# 2 47.3714 147.7284 67.1112 0.0000 0.0000 0.0000
# 3 35.5228 67.1112 115.3858 0.0000 0.0000 0.0000
# 4 0.0000 0.0000 0.0000 28.9599 0.0000 0.0000
# 5 0.0000 0.0000 0.0000 0.0000 28.2267 0.0000
# 6 0.0000 0.0000 0.0000 0.0000 0.0000 26.0589
#
#
#
# Elastic Compliance Matrix: (Units=1/GPa)
#
#
# Indices 1 2 3 4 5 6 
#
# 1 0.010213 -0.002510 -0.001684 0.000000 0.000000 0.000000
# 2 -0.002510 0.009817 -0.004937 0.000000 0.000000 0.000000
# 3 -0.001684 -0.004937 0.012057 0.000000 0.000000 0.000000
# 4 0.000000 0.000000 0.000000 0.034531 0.000000 0.000000
# 5 0.000000 0.000000 0.000000 0.000000 0.035428 0.000000
# 6 0.000000 0.000000 0.000000 0.000000 0.000000 0.038375
#
#
# Mechanical properties :
#
#
# Convention : Reuss Voigt Hill
#
# Bulk Modulus (GPa) = 72.33865 75.39364 73.86614
# Shear Modulus (GPa) = 30.62056 31.88416 31.25236
#
# Velocity S-wave (km/s) = 3.84791 3.92651 3.88741
# Velocity P-wave (km/s) = 7.39736 7.55069 7.47442
#
# Compressibility (1/GPa) = 0.01382387
#
# Stress axis : x y z
#
# Youngs Moduli (GPa) = 97.91765 101.86636 82.94169
#
# Poissons Ratio (x) = 0.25565 0.13971
# Poissons Ratio (y) = 0.24574 0.40949
# Poissons Ratio (z) = 0.16493 0.50292
#
# Static dielectric constant tensor:
#      x y z
#    x 3.849590 0.000000 0.000000 
#    y 0.000000 3.661740 0.000000 
#    z 0.000000 0.000000 4.058990 
# 
# 
# High freq. dielectric constant tensor:
#      x y z
#    x 1.816750 0.000000 0.000000 
#    y 0.000000 1.796020 0.000000 
#    z 0.000000 0.000000 1.824100 
# 
# From -- ./inp_files/66778.got.cif
#   From: 2010.03.12/outbox.cif.g09.slc.cpg/sg65_34_cif.got.tgz:66778.got - 2010.04.10 20:52:16.
