data_PCOD8269305
_publ_section_title
;
Structure prediction by ZEFSAII (Michael W. Deem and Ramdas Pophale) SiO2 
 PCOD8269305
Probable space group: C M M M
;
_chemical_formula_sum "Si O2"
_cell_formula_units_Z 104
_cell_length_a 8.903594
_cell_length_b 25.546308
_cell_length_c 25.806203
_cell_angle_alpha 90.000000
_cell_angle_beta 90.000000
_cell_angle_gamma 90.000000
_cell_volume 5869.722926
_symmetry_space_group_name_H-M "C M M M"
_symmetry_group_IT_number 65
_symmetry_cell_setting 'orthorhombic'
loop_
_space_group_symop_operation_xyz
x,y,z
-x,-y,z
x,-y,-z
-x,y,-z
-x,-y,-z
x,y,-z
-x,y,z
x,-y,z
1/2+x,1/2+y,z
1/2-x,1/2-y,z
1/2+x,1/2-y,-z
1/2-x,1/2+y,-z
1/2-x,1/2-y,-z
1/2+x,1/2+y,-z
1/2-x,1/2+y,z
1/2+x,1/2-y,z
loop_
_atom_site_type_symbol
_atom_site_label
_atom_site_fract_x
_atom_site_fract_y
_atom_site_fract_z
Si Si1 0.173449 0.559349 0.398275
Si Si2 0.175529 0.593893 0.286278
Si Si3 0.672608 0.596549 0.060500
Si Si4 0.174838 0.696896 0.226746
Si Si5 0.330072 0.437848 0.500000
Si Si6 0.178464 0.500000 0.882864
Si Si7 0.822123 0.695445 0.891750
Si Si8 0.323277 0.500000 0.228113
O O1 0.229120 0.500000 0.387055
O O2 0.206541 0.594318 0.347756
O O3 0.256612 0.584864 0.447603
O O4 0.000000 0.559035 0.412512
O O5 0.225333 0.649780 0.263809
O O6 0.280297 0.550991 0.260354
O O7 0.000000 0.581537 0.274600
O O8 0.500000 0.597902 0.079064
O O9 0.759652 0.551485 0.090163
O O10 0.750994 0.651399 0.072259
O O11 0.683529 0.584631 0.000000
O O12 0.250000 0.750000 0.246805
O O13 0.221870 0.683467 0.167842
O O14 0.000000 0.706675 0.230127
O O15 0.308403 0.500000 0.500000
O O16 0.500000 0.419557 0.500000
O O17 0.228080 0.500000 0.823877
O O18 0.000000 0.500000 0.886312
O O19 0.750000 0.750000 0.909612
O O20 0.000000 0.697319 0.900085
O O21 0.500000 0.500000 0.216078
#
# Coordination Sequence:
#
# PCOD8269305 Si02
#       8
#    16  16  16  16   8   8  16   8
#     4   9  16  28  46  68  97 136 177 213 253 307
#     4  10  19  34  53  76 107 142 177 216 260 312
#     4  11  24  41  60  83 110 137 170 217 268 317
#     4   9  19  34  54  77 103 135 172 212 256 305
#     4   9  17  27  41  63  96 135 172 215 260 306
#     4  12  25  41  60  79 105 143 182 215 252 311
#     4  10  20  36  58  83 109 141 177 217 264 317
#     4  12  24  35  53  81 111 141 172 213 263 311
#
# _framework density 17.718043000000002
#
# number of rings (size 3 to 8) (size 9 to 14) (size 15 to 20)
#    0.000    1.923    0.769    3.692    0.000    6.462 
#    0.000    0.000    0.000    0.000    0.000    0.538 
#    0.000    0.000    0.000    0.000    0.000    0.000 
#
# Total GULP energy -644936.712894 kJ/mol
# GULP energy per Si atom -12402.629094 kJ/mol
# Density = 1.767772 g / cm^3
# Si number density = 17.718043 Si / 1000 Ang^3
#
#
#
# Elastic Constant Matrix: (Units=GPa)
#
#
# Indices 1 2 3 4 5 6 
#
# 1 93.3972 42.1117 42.3242 0.0000 0.0000 0.0000
# 2 42.1117 90.2994 35.2018 0.0000 0.0000 0.0000
# 3 42.3242 35.2018 89.5989 0.0000 0.0000 0.0000
# 4 0.0000 0.0000 0.0000 45.4985 0.0000 0.0000
# 5 0.0000 0.0000 0.0000 0.0000 23.8871 0.0000
# 6 0.0000 0.0000 0.0000 0.0000 0.0000 29.4561
#
#
#
# Elastic Compliance Matrix: (Units=1/GPa)
#
#
# Indices 1 2 3 4 5 6 
#
# 1 0.015405 -0.005134 -0.005260 0.000000 0.000000 0.000000
# 2 -0.005134 0.014788 -0.003385 0.000000 0.000000 0.000000
# 3 -0.005260 -0.003385 0.014975 0.000000 0.000000 0.000000
# 4 0.000000 0.000000 0.000000 0.021979 0.000000 0.000000
# 5 0.000000 0.000000 0.000000 0.000000 0.041864 0.000000
# 6 0.000000 0.000000 0.000000 0.000000 0.000000 0.033949
#
#
# Mechanical properties :
#
#
# Convention : Reuss Voigt Hill
#
# Bulk Modulus (GPa) = 56.78191 56.95231 56.86711
# Shear Modulus (GPa) = 28.34658 30.01220 29.17939
#
# Velocity S-wave (km/s) = 4.00418 4.12014 4.06257
# Velocity P-wave (km/s) = 7.31403 7.40591 7.36011
#
# Compressibility (1/GPa) = 0.01761124
#
# Stress axis : x y z
#
# Youngs Moduli (GPa) = 64.91207 67.62240 66.77598
#
# Poissons Ratio (x) = 0.34716 0.35125
# Poissons Ratio (y) = 0.33325 0.22603
# Poissons Ratio (z) = 0.34145 0.22889
#
# Static dielectric constant tensor:
#      x y z
#    x 3.341370 0.000000 0.000000 
#    y 0.000000 3.036740 0.000000 
#    z 0.000000 0.000000 3.380810 
# 
# 
# High freq. dielectric constant tensor:
#      x y z
#    x 1.692200 0.000000 0.000000 
#    y 0.000000 1.666250 0.000000 
#    z 0.000000 0.000000 1.687760 
# 
# From -- ./inp_files/73651.got.cif
#   From: 2010.03.12/outbox.cif.g09.slc.cpg/sg65_37_cif.got.tgz:73651.got - 2010.04.10 20:52:16.
