data_PCOD8269516
_publ_section_title
;
Structure prediction by ZEFSAII (Michael W. Deem and Ramdas Pophale) SiO2 
 PCOD8269516
Probable space group: C M M M
;
_chemical_formula_sum "Si O2"
_cell_formula_units_Z 96
_cell_length_a 15.443149
_cell_length_b 20.460793
_cell_length_c 12.100778
_cell_angle_alpha 90.000000
_cell_angle_beta 90.000000
_cell_angle_gamma 90.000000
_cell_volume 3823.592639
_symmetry_space_group_name_H-M "C M M M"
_symmetry_group_IT_number 65
_symmetry_cell_setting 'orthorhombic'
loop_
_space_group_symop_operation_xyz
x,y,z
-x,-y,z
x,-y,-z
-x,y,-z
-x,-y,-z
x,y,-z
-x,y,z
x,-y,z
1/2+x,1/2+y,z
1/2-x,1/2-y,z
1/2+x,1/2-y,-z
1/2-x,1/2+y,-z
1/2-x,1/2-y,-z
1/2+x,1/2+y,-z
1/2-x,1/2+y,z
1/2+x,1/2-y,z
loop_
_atom_site_type_symbol
_atom_site_label
_atom_site_fract_x
_atom_site_fract_y
_atom_site_fract_z
Si Si1 0.782765 0.890355 0.375384
Si Si2 0.309739 0.924616 0.867135
Si Si3 0.404587 0.500000 0.632069
Si Si4 0.095069 0.220326 0.673463
Si Si5 0.500000 0.077636 0.123737
Si Si6 0.314900 0.310119 0.878721
Si Si7 0.094452 0.371764 0.629083
O O1 0.766123 0.912454 0.500000
O O2 0.853542 0.937538 0.320614
O O3 0.823082 0.817602 0.378394
O O4 0.685586 0.900533 0.319456
O O5 0.406652 0.901490 0.820480
O O6 0.233976 0.874059 0.825379
O O7 0.288605 0.000000 0.835347
O O8 0.314982 0.917811 0.000000
O O9 0.500000 0.500000 0.685060
O O10 0.411586 0.500000 0.500000
O O11 0.103099 0.210812 0.805663
O O12 0.103038 0.294301 0.637017
O O13 0.000000 0.193485 0.636626
O O14 0.500000 0.000000 0.115387
O O15 0.500000 0.107196 0.000000
O O16 0.250000 0.250000 0.883000
O O17 0.349608 0.327567 0.000000
O O18 0.091558 0.390198 0.500000
O O19 0.000000 0.395555 0.680883
#
# Coordination Sequence:
#
# PCOD8269516 Si02
#       7
#    16  16   8  16   8  16  16
#     4  10  19  34  58  85 115 147 181 228 280 331
#     4   8  14  28  52  78 103 133 171 223 283 340
#     4   9  18  32  51  81 120 156 189 224 265 319
#     4  11  22  36  56  79 108 147 187 235 287 336
#     4   7  10  20  44  78 104 120 154 208 272 344
#     4  10  21  37  54  75 108 148 190 234 283 342
#     4   9  18  33  57  89 116 140 177 224 280 346
#
# _framework density 25.107277
#
# number of rings (size 3 to 8) (size 9 to 14) (size 15 to 20)
#    0.000    2.667    0.000    3.500    0.000    3.333 
#    3.000    0.417    1.833    2.500    0.000    2.333 
#    0.000    0.000    0.000    0.000    0.000    0.500 
#
# Total GULP energy -594848.161210 kJ/mol
# GULP energy per Si atom -12392.670025 kJ/mol
# Density = 2.505013 g / cm^3
# Si number density = 25.107277 Si / 1000 Ang^3
#
#
#
# Elastic Constant Matrix: (Units=GPa)
#
#
# Indices 1 2 3 4 5 6 
#
# 1 212.3595 49.7160 32.9045 0.0000 0.0000 0.0000
# 2 49.7160 84.3471 -10.8008 0.0000 0.0000 0.0000
# 3 32.9045 -10.8008 55.8990 0.0000 0.0000 0.0000
# 4 0.0000 0.0000 0.0000 -4.5821 0.0000 0.0000
# 5 0.0000 0.0000 0.0000 0.0000 35.4135 0.0000
# 6 0.0000 0.0000 0.0000 0.0000 0.0000 34.7895
#
#
#
# Elastic Compliance Matrix: (Units=1/GPa)
#
#
# Indices 1 2 3 4 5 6 
#
# 1 0.006461 -0.004404 -0.004654 0.000000 0.000000 0.000000
# 2 -0.004404 0.015159 0.005522 0.000000 0.000000 0.000000
# 3 -0.004654 0.005522 0.021696 0.000000 0.000000 0.000000
# 4 0.000000 0.000000 0.000000 -0.218239 0.000000 0.000000
# 5 0.000000 0.000000 0.000000 0.000000 0.028238 0.000000
# 6 0.000000 0.000000 0.000000 0.000000 0.000000 0.028744
#
#
# Mechanical properties :
#
#
# Convention : Reuss Voigt Hill
#
# Bulk Modulus (GPa) = 27.59241 55.13833 41.36537
# Shear Modulus (GPa) = -50.61494 31.84324 -9.38585
#
# Velocity S-wave (km/s) = -4.49480 3.56517 -1.93557
# Velocity P-wave (km/s) = 3.99049 6.24147 3.39352
#
# Compressibility (1/GPa) = 0.03624185
#
# Stress axis : x y z
#
# Youngs Moduli (GPa) = 154.76705 65.96787 46.09121
#
# Poissons Ratio (x) = 0.29055 0.21453
# Poissons Ratio (y) = 0.68166 -0.25450
# Poissons Ratio (z) = 0.72035 -0.36425
#
# Static dielectric constant tensor:
#      x y z
#    x 5.161020 0.000000 0.000000 
#    y 0.000000 4.231840 0.000000 
#    z 0.000000 0.000000 4.973900 
# 
# 
# High freq. dielectric constant tensor:
#      x y z
#    x 2.015890 0.000000 0.000000 
#    y 0.000000 1.973180 0.000000 
#    z 0.000000 0.000000 2.042680 
# 
# From -- ./inp_files/40460.got.cif
#   From: 2010.03.12/outbox.cif.g09.slc.cpg/sg65_21_cif.got.tgz:40460.got - 2010.04.10 20:52:16.
