data_PCOD8269544
_publ_section_title
;
Structure prediction by ZEFSAII (Michael W. Deem and Ramdas Pophale) SiO2 
 PCOD8269544
Probable space group: C M M M
;
_chemical_formula_sum "Si O2"
_cell_formula_units_Z 104
_cell_length_a 9.358928
_cell_length_b 23.558628
_cell_length_c 27.421451
_cell_angle_alpha 90.000000
_cell_angle_beta 90.000000
_cell_angle_gamma 90.000000
_cell_volume 6045.977580
_symmetry_space_group_name_H-M "C M M M"
_symmetry_group_IT_number 65
_symmetry_cell_setting 'orthorhombic'
loop_
_space_group_symop_operation_xyz
x,y,z
-x,-y,z
x,-y,-z
-x,y,-z
-x,-y,-z
x,y,-z
-x,y,z
x,-y,z
1/2+x,1/2+y,z
1/2-x,1/2-y,z
1/2+x,1/2-y,-z
1/2-x,1/2+y,-z
1/2-x,1/2-y,-z
1/2+x,1/2+y,-z
1/2-x,1/2+y,z
1/2+x,1/2-y,z
loop_
_atom_site_type_symbol
_atom_site_label
_atom_site_fract_x
_atom_site_fract_y
_atom_site_fract_z
Si Si1 0.665826 0.693832 0.943467
Si Si2 0.159545 0.500000 0.837129
Si Si3 0.663632 0.898562 0.303114
Si Si4 0.835614 0.692237 0.774572
Si Si5 0.837718 0.376744 0.129320
Si Si6 0.161119 0.932466 0.500000
Si Si7 0.831073 0.000000 0.258007
Si Si8 0.662469 0.065348 0.591613
O O1 0.500000 0.702620 0.931100
O O2 0.750000 0.750000 0.927620
O O3 0.729287 0.642575 0.912410
O O4 0.690050 0.679636 0.000000
O O5 0.177647 0.444484 0.870112
O O6 0.282864 0.500000 0.797535
O O7 0.000000 0.500000 0.813013
O O8 0.500000 0.916972 0.291104
O O9 0.697996 0.838798 0.276888
O O10 0.772946 0.944469 0.283859
O O11 0.685505 0.894428 0.361362
O O12 0.750000 0.750000 0.778530
O O13 0.793386 0.649850 0.818508
O O14 0.000000 0.709223 0.777954
O O15 0.000000 0.359012 0.116062
O O16 0.238677 0.909984 0.548627
O O17 0.000000 0.909488 0.500000
O O18 0.168502 0.000000 0.500000
O O19 0.000000 0.000000 0.261244
O O20 0.500000 0.068464 0.573117
O O21 0.701487 0.000000 0.605152
#
# Coordination Sequence:
#
# PCOD8269544 Si02
#       8
#    16   8  16  16  16   8   8  16
#     4  10  21  37  57  80 107 138 174 218 263 307
#     4  10  20  38  57  75 105 142 176 206 247 306
#     4  10  19  35  53  70  99 141 176 208 250 304
#     4  10  21  35  53  75 103 135 169 209 257 302
#     4  10  20  35  58  81 103 137 174 213 255 303
#     4   9  17  27  39  61 100 133 154 197 258 304
#     4  12  22  30  48  78 106 134 170 215 254 296
#     4   9  16  27  47  68  89 126 174 208 237 292
#
# _framework density 17.201519999999999
#
# number of rings (size 3 to 8) (size 9 to 14) (size 15 to 20)
#    0.000    2.077    2.308    1.846    0.000    5.538 
#    0.000    0.385    0.000    2.308    0.000    0.538 
#    0.000    0.000    0.000    0.000    0.000    0.000 
#
# Total GULP energy -644826.423328 kJ/mol
# GULP energy per Si atom -12400.508141 kJ/mol
# Density = 1.716237 g / cm^3
# Si number density = 17.201520 Si / 1000 Ang^3
#
#
#
# Elastic Constant Matrix: (Units=GPa)
#
#
# Indices 1 2 3 4 5 6 
#
# 1 111.1756 52.3636 57.2915 0.0000 0.0000 0.0000
# 2 52.3636 100.7021 48.1403 0.0000 0.0000 0.0000
# 3 57.2915 48.1403 97.1342 0.0000 0.0000 0.0000
# 4 0.0000 0.0000 0.0000 22.2055 0.0000 0.0000
# 5 0.0000 0.0000 0.0000 0.0000 25.4657 0.0000
# 6 0.0000 0.0000 0.0000 0.0000 0.0000 17.4101
#
#
#
# Elastic Compliance Matrix: (Units=1/GPa)
#
#
# Indices 1 2 3 4 5 6 
#
# 1 0.014305 -0.004462 -0.006226 0.000000 0.000000 0.000000
# 2 -0.004462 0.014405 -0.004508 0.000000 0.000000 0.000000
# 3 -0.006226 -0.004508 0.016201 0.000000 0.000000 0.000000
# 4 0.000000 0.000000 0.000000 0.045034 0.000000 0.000000
# 5 0.000000 0.000000 0.000000 0.000000 0.039269 0.000000
# 6 0.000000 0.000000 0.000000 0.000000 0.000000 0.057438
#
#
# Mechanical properties :
#
#
# Convention : Reuss Voigt Hill
#
# Bulk Modulus (GPa) = 68.86883 69.40031 69.13457
# Shear Modulus (GPa) = 22.53449 23.09736 22.81592
#
# Velocity S-wave (km/s) = 3.62336 3.66833 3.64591
# Velocity P-wave (km/s) = 7.59133 7.64037 7.61589
#
# Compressibility (1/GPa) = 0.01452036
#
# Stress axis : x y z
#
# Youngs Moduli (GPa) = 69.90722 69.41897 61.72433
#
# Poissons Ratio (x) = 0.30975 0.38428
# Poissons Ratio (y) = 0.31193 0.27823
# Poissons Ratio (z) = 0.43523 0.31291
#
# Static dielectric constant tensor:
#      x y z
#    x 3.236290 0.000000 0.000000 
#    y 0.000000 2.962800 0.000000 
#    z 0.000000 0.000000 3.230710 
# 
# 
# High freq. dielectric constant tensor:
#      x y z
#    x 1.666270 0.000000 0.000000 
#    y 0.000000 1.633250 0.000000 
#    z 0.000000 0.000000 1.663960 
# 
# From -- ./inp_files/73631.got.cif
#   From: 2010.03.12/outbox.cif.g09.slc.cpg/sg65_37_cif.got.tgz:73631.got - 2010.04.10 20:52:16.
