data_PCOD8269075
_publ_section_title
;
Structure prediction by ZEFSAII (Michael W. Deem and Ramdas Pophale) SiO2 
 PCOD8269075
Probable space group: C M M M
;
_chemical_formula_sum "Si O2"
_cell_formula_units_Z 80
_cell_length_a 25.952028
_cell_length_b 8.703924
_cell_length_c 19.386462
_cell_angle_alpha 90.000000
_cell_angle_beta 90.000000
_cell_angle_gamma 90.000000
_cell_volume 4379.100875
_symmetry_space_group_name_H-M "C M M M"
_symmetry_group_IT_number 65
_symmetry_cell_setting 'orthorhombic'
loop_
_space_group_symop_operation_xyz
x,y,z
-x,-y,z
x,-y,-z
-x,y,-z
-x,-y,-z
x,y,-z
-x,y,z
x,-y,z
1/2+x,1/2+y,z
1/2-x,1/2-y,z
1/2+x,1/2-y,-z
1/2-x,1/2+y,-z
1/2-x,1/2-y,-z
1/2+x,1/2+y,-z
1/2-x,1/2+y,z
1/2+x,1/2-y,z
loop_
_atom_site_type_symbol
_atom_site_label
_atom_site_fract_x
_atom_site_fract_y
_atom_site_fract_z
Si Si1 0.804029 0.177580 0.919304
Si Si2 0.000000 0.826594 0.691162
Si Si3 0.886796 0.176365 0.325439
Si Si4 0.302958 0.819446 0.421747
Si Si5 0.389471 0.183077 0.824744
Si Si6 0.500000 0.174896 0.830600
O O1 0.750000 0.250000 0.896955
O O2 0.847485 0.270716 0.879995
O O3 0.804895 0.000000 0.897751
O O4 0.813943 0.199848 0.000000
O O5 0.053408 0.805736 0.648833
O O6 0.000000 0.694459 0.748241
O O7 0.000000 0.000000 0.723791
O O8 0.851828 0.269609 0.377721
O O9 0.878269 0.238569 0.248333
O O10 0.869410 0.000000 0.326528
O O11 0.311196 0.760901 0.500000
O O12 0.250000 0.750000 0.391208
O O13 0.297868 0.000000 0.418288
O O14 0.445022 0.244258 0.855652
O O15 0.390278 0.000000 0.814251
O O16 0.500000 0.000000 0.852644
#
# Coordination Sequence:
#
# PCOD8269075 Si02
#       6
#    16   8  16  16  16   8
#     4  10  21  37  55  75 101 134 171 211 257 306
#     4   8  16  30  49  74 103 135 167 203 249 298
#     4  10  19  33  54  79 106 135 170 210 252 299
#     4  10  21  37  55  75 101 134 171 211 257 306
#     4  10  19  33  54  79 106 135 170 210 252 299
#     4   8  16  30  49  74 103 135 167 203 249 298
#
# _framework density 18.26859
#
# number of rings (size 3 to 8) (size 9 to 14) (size 15 to 20)
#    0.000    2.400    0.000    2.400    0.000    4.800 
#    0.000    5.000    0.000    6.000    0.000    0.000 
#    0.000    0.000    0.000    0.000    0.000    0.000 
#
# Total GULP energy -495680.201419 kJ/mol
# GULP energy per Si atom -12392.005035 kJ/mol
# Density = 1.822701 g / cm^3
# Si number density = 18.268590 Si / 1000 Ang^3
#
#
#
# Elastic Constant Matrix: (Units=GPa)
#
#
# Indices 1 2 3 4 5 6 
#
# 1 155.6222 27.7820 53.7467 0.0000 0.0000 0.0000
# 2 27.7820 52.0230 17.0959 0.0000 0.0000 0.0000
# 3 53.7467 17.0959 46.2764 0.0000 0.0000 0.0000
# 4 0.0000 0.0000 0.0000 27.7322 0.0000 0.0000
# 5 0.0000 0.0000 0.0000 0.0000 -65.1451 0.0000
# 6 0.0000 0.0000 0.0000 0.0000 0.0000 28.1021
#
#
#
# Elastic Compliance Matrix: (Units=1/GPa)
#
#
# Indices 1 2 3 4 5 6 
#
# 1 0.010890 -0.001889 -0.011951 0.000000 0.000000 0.000000
# 2 -0.001889 0.022206 -0.006010 0.000000 0.000000 0.000000
# 3 -0.011951 -0.006010 0.037709 0.000000 0.000000 0.000000
# 4 0.000000 0.000000 0.000000 0.036059 0.000000 0.000000
# 5 0.000000 0.000000 0.000000 0.000000 -0.015350 0.000000
# 6 0.000000 0.000000 0.000000 0.000000 0.000000 0.035585
#
#
# Mechanical properties :
#
#
# Convention : Reuss Voigt Hill
#
# Bulk Modulus (GPa) = 32.14708 50.13010 41.13859
# Shear Modulus (GPa) = 28.22206 8.49098 18.35652
#
# Velocity S-wave (km/s) = 3.93471 2.15823 3.17332
# Velocity P-wave (km/s) = 6.18690 5.80610 5.99952
#
# Compressibility (1/GPa) = 0.03110702
#
# Stress axis : x y z
#
# Youngs Moduli (GPa) = 91.82475 45.03319 26.51861
#
# Poissons Ratio (x) = 0.08505 0.31691
# Poissons Ratio (y) = 0.17342 0.15938
# Poissons Ratio (z) = 1.09736 0.27065
#
# Static dielectric constant tensor:
#      x y z
#    x 3.847390 0.000000 0.000000 
#    y 0.000000 3.484930 0.000000 
#    z 0.000000 0.000000 3.043840 
# 
# 
# High freq. dielectric constant tensor:
#      x y z
#    x 1.732060 0.000000 0.000000 
#    y 0.000000 1.719670 0.000000 
#    z 0.000000 0.000000 1.669360 
# 
# From -- ./inp_files/9709.got.cif
#   From: 2010.03.12/outbox.cif.g09.slc.cpg/sg65_5_cif.got.tgz:9709.got - 2010.04.10 20:52:16.
