data_PCOD8269242
_publ_section_title
;
Structure prediction by ZEFSAII (Michael W. Deem and Ramdas Pophale) SiO2 
 PCOD8269242
Probable space group: C M M M
;
_chemical_formula_sum "Si O2"
_cell_formula_units_Z 88
_cell_length_a 24.356739
_cell_length_b 8.970749
_cell_length_c 21.466691
_cell_angle_alpha 90.000000
_cell_angle_beta 90.000000
_cell_angle_gamma 90.000000
_cell_volume 4690.433172
_symmetry_space_group_name_H-M "C M M M"
_symmetry_group_IT_number 65
_symmetry_cell_setting 'orthorhombic'
loop_
_space_group_symop_operation_xyz
x,y,z
-x,-y,z
x,-y,-z
-x,y,-z
-x,-y,-z
x,y,-z
-x,y,z
x,-y,z
1/2+x,1/2+y,z
1/2-x,1/2-y,z
1/2+x,1/2-y,-z
1/2-x,1/2+y,-z
1/2-x,1/2-y,-z
1/2+x,1/2+y,-z
1/2-x,1/2+y,z
1/2+x,1/2-y,z
loop_
_atom_site_type_symbol
_atom_site_label
_atom_site_fract_x
_atom_site_fract_y
_atom_site_fract_z
Si Si1 0.809775 0.177964 0.000000
Si Si2 0.115399 0.176217 0.115999
Si Si3 0.308092 0.326413 0.429509
Si Si4 0.403722 0.824722 0.637916
Si Si5 0.000000 0.834662 0.427343
Si Si6 0.436995 0.825412 0.222268
Si Si7 0.500000 0.676867 0.067406
O O1 0.750000 0.250000 0.000000
O O2 0.841411 0.231707 0.936857
O O3 0.805320 0.000000 0.000000
O O4 0.115116 0.252231 0.183988
O O5 0.054960 0.234037 0.098662
O O6 0.121061 0.000000 0.122229
O O7 0.330744 0.302421 0.500000
O O8 0.302693 0.500000 0.414093
O O9 0.250000 0.250000 0.422249
O O10 0.346061 0.250902 0.377648
O O11 0.446932 0.757951 0.590473
O O12 0.423272 0.784876 0.707089
O O13 0.399037 0.000000 0.627635
O O14 0.000000 0.855876 0.500000
O O15 0.000000 0.000000 0.396110
O O16 0.500000 0.766768 0.207867
O O17 0.434977 0.000000 0.209965
O O18 0.500000 0.500000 0.063829
O O19 0.500000 0.749150 0.000000
#
# Coordination Sequence:
#
# PCOD8269242 Si02
#       7
#     8  16  16  16   8  16   8
#     4  10  22  39  59  84 116 149 188 232 278 335
#     4  10  19  33  57  85 109 143 187 229 275 331
#     4  10  21  38  60  86 113 143 186 240 292 342
#     4  11  22  38  57  80 115 157 195 236 289 345
#     4  11  23  36  53  82 118 154 195 244 295 351
#     4  10  21  37  54  80 118 153 185 227 281 341
#     4   9  14  25  49  80 108 129 162 217 272 313
#
# _framework density 18.761593000000001
#
# number of rings (size 3 to 8) (size 9 to 14) (size 15 to 20)
#    0.000    1.818    2.727    1.909    0.000    6.182 
#    0.000    0.909    0.000    3.818    0.000    0.000 
#    0.000    0.000    0.000    0.000    0.000    0.000 
#
# Total GULP energy -545195.325256 kJ/mol
# GULP energy per Si atom -12390.802847 kJ/mol
# Density = 1.871889 g / cm^3
# Si number density = 18.761593 Si / 1000 Ang^3
#
#
#
# Elastic Constant Matrix: (Units=GPa)
#
#
# Indices 1 2 3 4 5 6 
#
# 1 111.8109 46.0829 54.1223 0.0000 0.0000 0.0000
# 2 46.0829 74.4750 48.1942 0.0000 0.0000 0.0000
# 3 54.1223 48.1942 92.8291 0.0000 0.0000 0.0000
# 4 0.0000 0.0000 0.0000 26.3024 0.0000 0.0000
# 5 0.0000 0.0000 0.0000 0.0000 29.0780 0.0000
# 6 0.0000 0.0000 0.0000 0.0000 0.0000 31.5531
#
#
#
# Elastic Compliance Matrix: (Units=1/GPa)
#
#
# Indices 1 2 3 4 5 6 
#
# 1 0.013566 -0.004933 -0.005348 0.000000 0.000000 0.000000
# 2 -0.004933 0.022015 -0.008553 0.000000 0.000000 0.000000
# 3 -0.005348 -0.008553 0.018331 0.000000 0.000000 0.000000
# 4 0.000000 0.000000 0.000000 0.038019 0.000000 0.000000
# 5 0.000000 0.000000 0.000000 0.000000 0.034390 0.000000
# 6 0.000000 0.000000 0.000000 0.000000 0.000000 0.031693
#
#
# Mechanical properties :
#
#
# Convention : Reuss Voigt Hill
#
# Bulk Modulus (GPa) = 61.56626 63.99043 62.77834
# Shear Modulus (GPa) = 24.86365 26.10109 25.48237
#
# Velocity S-wave (km/s) = 3.64434 3.73392 3.68940
# Velocity P-wave (km/s) = 7.11298 7.26435 7.18906
#
# Compressibility (1/GPa) = 0.01624266
#
# Stress axis : x y z
#
# Youngs Moduli (GPa) = 73.71586 45.42398 54.55198
#
# Poissons Ratio (x) = 0.22408 0.29174
# Poissons Ratio (y) = 0.36365 0.46660
# Poissons Ratio (z) = 0.39423 0.38852
#
# Static dielectric constant tensor:
#      x y z
#    x 3.335170 0.000000 0.000000 
#    y 0.000000 3.338180 0.000000 
#    z 0.000000 0.000000 3.708370 
# 
# 
# High freq. dielectric constant tensor:
#      x y z
#    x 1.718750 0.000000 0.000000 
#    y 0.000000 1.723250 0.000000 
#    z 0.000000 0.000000 1.736500 
# 
# From -- ./inp_files/65252.got.cif
#   From: 2010.03.12/outbox.cif.g09.slc.cpg/sg65_33_cif.got.tgz:65252.got - 2010.04.10 20:52:16.
