data_PCOD8269063
_publ_section_title
;
Structure prediction by ZEFSAII (Michael W. Deem and Ramdas Pophale) SiO2 
 PCOD8269063
Probable space group: C M M M
;
_chemical_formula_sum "Si O2"
_cell_formula_units_Z 104
_cell_length_a 9.091430
_cell_length_b 18.497838
_cell_length_c 33.196122
_cell_angle_alpha 90.000000
_cell_angle_beta 90.000000
_cell_angle_gamma 90.000000
_cell_volume 5582.651567
_symmetry_space_group_name_H-M "C M M M"
_symmetry_group_IT_number 65
_symmetry_cell_setting 'orthorhombic'
loop_
_space_group_symop_operation_xyz
x,y,z
-x,-y,z
x,-y,-z
-x,y,-z
-x,-y,-z
x,y,-z
-x,y,z
x,-y,z
1/2+x,1/2+y,z
1/2-x,1/2-y,z
1/2+x,1/2-y,-z
1/2-x,1/2+y,-z
1/2-x,1/2-y,-z
1/2+x,1/2+y,-z
1/2-x,1/2+y,z
1/2+x,1/2-y,z
loop_
_atom_site_type_symbol
_atom_site_label
_atom_site_fract_x
_atom_site_fract_y
_atom_site_fract_z
Si Si1 0.171109 0.583533 0.109275
Si Si2 0.326957 0.827487 0.412690
Si Si3 0.173174 0.673378 0.186996
Si Si4 0.332334 0.176294 0.500000
Si Si5 0.667715 0.414596 0.655265
Si Si6 0.828780 0.416429 0.264440
Si Si7 0.171330 0.176799 0.953274
O O1 0.205745 0.500000 0.117256
O O2 0.222906 0.627373 0.148422
O O3 0.263941 0.609345 0.070936
O O4 0.000000 0.596185 0.100040
O O5 0.500000 0.818169 0.404431
O O6 0.250000 0.750000 0.408492
O O7 0.296824 0.863322 0.457402
O O8 0.259742 0.882307 0.381109
O O9 0.250000 0.750000 0.185688
O O10 0.224224 0.630155 0.226502
O O11 0.000000 0.685302 0.187199
O O12 0.500000 0.199214 0.500000
O O13 0.250000 0.250000 0.500000
O O14 0.500000 0.387518 0.653240
O O15 0.679296 0.500000 0.651547
O O16 0.736728 0.388493 0.697375
O O17 0.795561 0.500000 0.254701
O O18 0.000000 0.404728 0.273923
O O19 0.250000 0.250000 0.938652
O O20 0.000000 0.185357 0.944122
O O21 0.203084 0.161751 0.000000
#
# Coordination Sequence:
#
# PCOD8269063 Si02
#       7
#    16  16  16   8  16  16  16
#     4  10  21  37  57  81 110 144 181 221 266 317
#     4  10  19  33  54  78 104 135 173 216 262 312
#     4  10  21  36  55  80 108 137 172 216 264 315
#     4   8  16  30  49  74 101 131 169 213 259 308
#     4  10  21  36  53  76 107 140 175 216 261 310
#     4   9  18  35  57  76  98 134 176 214 257 311
#     4  10  21  37  57  81 110 144 182 224 269 317
#
# _framework density 18.629141000000001
#
# number of rings (size 3 to 8) (size 9 to 14) (size 15 to 20)
#    0.000    2.308    0.000    2.308    0.000    8.000 
#    0.000    3.462    0.000    5.077    0.000    0.000 
#    0.000    0.000    0.000    0.000    0.000    0.000 
#
# Total GULP energy -644760.468912 kJ/mol
# GULP energy per Si atom -12399.239787 kJ/mol
# Density = 1.858674 g / cm^3
# Si number density = 18.629141 Si / 1000 Ang^3
#
#
#
# Elastic Constant Matrix: (Units=GPa)
#
#
# Indices 1 2 3 4 5 6 
#
# 1 87.6426 45.7449 68.4460 0.0000 0.0000 0.0000
# 2 45.7449 88.1790 68.6916 0.0000 0.0000 0.0000
# 3 68.4460 68.6916 147.1863 0.0000 0.0000 0.0000
# 4 0.0000 0.0000 0.0000 31.8759 0.0000 0.0000
# 5 0.0000 0.0000 0.0000 0.0000 25.7435 0.0000
# 6 0.0000 0.0000 0.0000 0.0000 0.0000 32.9617
#
#
#
# Elastic Compliance Matrix: (Units=1/GPa)
#
#
# Indices 1 2 3 4 5 6 
#
# 1 0.019077 -0.004691 -0.006682 0.000000 0.000000 0.000000
# 2 -0.004691 0.018972 -0.006673 0.000000 0.000000 0.000000
# 3 -0.006682 -0.006673 0.013016 0.000000 0.000000 0.000000
# 4 0.000000 0.000000 0.000000 0.031372 0.000000 0.000000
# 5 0.000000 0.000000 0.000000 0.000000 0.038845 0.000000
# 6 0.000000 0.000000 0.000000 0.000000 0.000000 0.030338
#
#
# Mechanical properties :
#
#
# Convention : Reuss Voigt Hill
#
# Bulk Modulus (GPa) = 66.78758 76.53034 71.65896
# Shear Modulus (GPa) = 25.94668 27.45789 26.70229
#
# Velocity S-wave (km/s) = 3.73607 3.84333 3.79008
# Velocity P-wave (km/s) = 7.38512 7.80161 7.59622
#
# Compressibility (1/GPa) = 0.01497284
#
# Stress axis : x y z
#
# Youngs Moduli (GPa) = 52.41909 52.70797 76.83118
#
# Poissons Ratio (x) = 0.24728 0.51338
# Poissons Ratio (y) = 0.24592 0.51268
# Poissons Ratio (z) = 0.35026 0.35171
#
# Static dielectric constant tensor:
#      x y z
#    x 3.484130 0.000000 0.000000 
#    y 0.000000 3.224920 0.000000 
#    z 0.000000 0.000000 3.785320 
# 
# 
# High freq. dielectric constant tensor:
#      x y z
#    x 1.726690 0.000000 0.000000 
#    y 0.000000 1.707690 0.000000 
#    z 0.000000 0.000000 1.740970 
# 
# From -- ./inp_files/73371.got.cif
#   From: 2010.03.12/outbox.cif.g09.slc.cpg/sg65_37_cif.got.tgz:73371.got - 2010.04.10 20:52:16.
