data_PCOD8269499
_publ_section_title
;
Structure prediction by ZEFSAII (Michael W. Deem and Ramdas Pophale) SiO2 
 PCOD8269499
Probable space group: C M M M
;
_chemical_formula_sum "Si O2"
_cell_formula_units_Z 96
_cell_length_a 19.750006
_cell_length_b 14.776574
_cell_length_c 14.775039
_cell_angle_alpha 90.000000
_cell_angle_beta 90.000000
_cell_angle_gamma 90.000000
_cell_volume 4311.909338
_symmetry_space_group_name_H-M "C M M M"
_symmetry_group_IT_number 65
_symmetry_cell_setting 'orthorhombic'
loop_
_space_group_symop_operation_xyz
x,y,z
-x,-y,z
x,-y,-z
-x,y,-z
-x,-y,-z
x,y,-z
-x,y,z
x,-y,z
1/2+x,1/2+y,z
1/2-x,1/2-y,z
1/2+x,1/2-y,-z
1/2-x,1/2+y,-z
1/2-x,1/2-y,-z
1/2+x,1/2+y,-z
1/2-x,1/2+y,z
1/2+x,1/2-y,z
loop_
_atom_site_type_symbol
_atom_site_label
_atom_site_fract_x
_atom_site_fract_y
_atom_site_fract_z
Si Si1 0.923813 0.602428 0.642408
Si Si2 0.424048 0.651127 0.103442
Si Si3 0.680089 0.600224 0.239350
Si Si4 0.573747 0.855653 0.150751
Si Si5 0.218095 0.602720 0.096841
Si Si6 0.828600 0.231983 0.599996
O O1 0.903550 0.500000 0.611850
O O2 0.922820 0.605247 0.749609
O O3 0.870426 0.674510 0.604348
O O4 0.000000 0.625170 0.607303
O O5 0.500000 0.613083 0.105940
O O6 0.377698 0.586594 0.163642
O O7 0.418807 0.748286 0.150637
O O8 0.397860 0.655368 0.000000
O O9 0.698218 0.500000 0.277518
O O10 0.744657 0.646586 0.185250
O O11 0.651884 0.660895 0.321815
O O12 0.500000 0.881753 0.107477
O O13 0.636717 0.896630 0.097634
O O14 0.243298 0.500000 0.097688
O O15 0.240397 0.647070 0.000000
O O16 0.841943 0.190051 0.500000
O O17 0.750000 0.250000 0.613276
#
# Coordination Sequence:
#
# PCOD8269499 Si02
#       6
#    16  16  16  16  16  16
#     4  10  21  40  69 101 133 171 214 263 322 388
#     4  10  21  37  60  91 125 164 212 261 308 361
#     4  11  24  42  64  90 124 166 213 265 316 371
#     4  10  19  34  57  88 127 167 206 251 306 371
#     4  10  21  35  54  86 126 168 214 258 305 368
#     4  11  25  44  67  96 128 166 212 264 329 398
#
# _framework density 22.263918
#
# number of rings (size 3 to 8) (size 9 to 14) (size 15 to 20)
#    0.000    1.667    1.667    2.500    0.000    6.333 
#    0.000    5.833    0.000    0.000    0.000    2.333 
#    0.000    0.000    0.000    0.000    0.000    0.000 
#
# Total GULP energy -594707.927693 kJ/mol
# GULP energy per Si atom -12389.748494 kJ/mol
# Density = 2.221324 g / cm^3
# Si number density = 22.263918 Si / 1000 Ang^3
#
#
#
# Elastic Constant Matrix: (Units=GPa)
#
#
# Indices 1 2 3 4 5 6 
#
# 1 131.2940 42.0299 44.8960 0.0000 0.0000 0.0000
# 2 42.0299 91.6558 43.5359 0.0000 0.0000 0.0000
# 3 44.8960 43.5359 130.9262 0.0000 0.0000 0.0000
# 4 0.0000 0.0000 0.0000 21.0650 0.0000 0.0000
# 5 0.0000 0.0000 0.0000 0.0000 78.4521 0.0000
# 6 0.0000 0.0000 0.0000 0.0000 0.0000 29.9458
#
#
#
# Elastic Compliance Matrix: (Units=1/GPa)
#
#
# Indices 1 2 3 4 5 6 
#
# 1 0.009400 -0.003301 -0.002126 0.000000 0.000000 0.000000
# 2 -0.003301 0.014116 -0.003562 0.000000 0.000000 0.000000
# 3 -0.002126 -0.003562 0.009551 0.000000 0.000000 0.000000
# 4 0.000000 0.000000 0.000000 0.047472 0.000000 0.000000
# 5 0.000000 0.000000 0.000000 0.000000 0.012747 0.000000
# 6 0.000000 0.000000 0.000000 0.000000 0.000000 0.033394
#
#
# Mechanical properties :
#
#
# Convention : Reuss Voigt Hill
#
# Bulk Modulus (GPa) = 66.26844 68.31108 67.28976
# Shear Modulus (GPa) = 33.40308 40.78687 37.09498
#
# Velocity S-wave (km/s) = 3.87760 4.28480 4.08628
# Velocity P-wave (km/s) = 7.06239 7.43158 7.24933
#
# Compressibility (1/GPa) = 0.01509014
#
# Stress axis : x y z
#
# Youngs Moduli (GPa) = 106.38231 70.84205 104.69792
#
# Poissons Ratio (x) = 0.23383 0.22257
# Poissons Ratio (y) = 0.35114 0.37293
# Poissons Ratio (z) = 0.22615 0.25234
#
# Static dielectric constant tensor:
#      x y z
#    x 4.262580 0.000000 0.000000 
#    y 0.000000 3.752990 0.000000 
#    z 0.000000 0.000000 4.126010 
# 
# 
# High freq. dielectric constant tensor:
#      x y z
#    x 1.883420 0.000000 0.000000 
#    y 0.000000 1.860340 0.000000 
#    z 0.000000 0.000000 1.872640 
# 
# From -- ./inp_files/40348.got.cif
#   From: 2010.03.12/outbox.cif.g09.slc.cpg/sg65_21_cif.got.tgz:40348.got - 2010.04.10 20:52:16.
