data_PCOD8269068
_publ_section_title
;
Structure prediction by ZEFSAII (Michael W. Deem and Ramdas Pophale) SiO2 
 PCOD8269068
Probable space group: C M M M
;
_chemical_formula_sum "Si O2"
_cell_formula_units_Z 64
_cell_length_a 9.351693
_cell_length_b 30.619608
_cell_length_c 12.352148
_cell_angle_alpha 90.000000
_cell_angle_beta 90.000000
_cell_angle_gamma 90.000000
_cell_volume 3536.977966
_symmetry_space_group_name_H-M "C M M M"
_symmetry_group_IT_number 65
_symmetry_cell_setting 'orthorhombic'
loop_
_space_group_symop_operation_xyz
x,y,z
-x,-y,z
x,-y,-z
-x,y,-z
-x,-y,-z
x,y,-z
-x,y,z
x,-y,z
1/2+x,1/2+y,z
1/2-x,1/2-y,z
1/2+x,1/2-y,-z
1/2-x,1/2+y,-z
1/2-x,1/2-y,-z
1/2+x,1/2+y,-z
1/2-x,1/2+y,z
1/2+x,1/2-y,z
loop_
_atom_site_type_symbol
_atom_site_label
_atom_site_fract_x
_atom_site_fract_y
_atom_site_fract_z
Si Si1 0.345605 0.787505 0.375526
Si Si2 0.658915 0.000000 0.126786
Si Si3 0.831837 0.084575 0.125134
Si Si4 0.330570 0.949633 0.500000
Si Si5 0.169359 0.617243 0.315351
O O1 0.362078 0.774825 0.500000
O O2 0.500000 0.785458 0.317643
O O3 0.250000 0.750000 0.318201
O O4 0.286838 0.836805 0.369061
O O5 0.750902 0.041032 0.162908
O O6 0.500000 0.000000 0.182189
O O7 0.637047 0.000000 0.000000
O O8 0.759652 0.119716 0.203705
O O9 0.000000 0.079351 0.145954
O O10 0.801783 0.096593 0.000000
O O11 0.500000 0.950857 0.500000
O O12 0.280006 0.922630 0.393499
O O13 0.270752 0.000000 0.500000
O O14 0.000000 0.613688 0.292070
#
# Coordination Sequence:
#
# PCOD8269068 Si02
#       5
#    16   8  16   8  16
#     4   9  17  31  51  76 105 133 167 213 263 312
#     4   9  17  31  51  72  93 126 177 223 255 295
#     4  10  21  35  50  72 105 140 173 216 265 306
#     4   9  18  32  50  75 107 141 174 208 255 306
#     4  10  19  33  54  78 105 137 176 217 255 309
#
# _framework density 18.094543000000002
#
# number of rings (size 3 to 8) (size 9 to 14) (size 15 to 20)
#    0.000    2.500    1.250    1.125    1.750    4.000 
#    0.000    0.625    0.000    1.500    0.000    0.000 
#    0.000    0.000    0.000    0.000    0.000    0.000 
#
# Total GULP energy -396456.706850 kJ/mol
# GULP energy per Si atom -12389.272089 kJ/mol
# Density = 1.805336 g / cm^3
# Si number density = 18.094543 Si / 1000 Ang^3
#
#
#
# Elastic Constant Matrix: (Units=GPa)
#
#
# Indices 1 2 3 4 5 6 
#
# 1 86.0161 46.6610 43.0511 0.0000 0.0000 0.0000
# 2 46.6610 129.3669 31.9202 0.0000 0.0000 0.0000
# 3 43.0511 31.9202 75.5517 0.0000 0.0000 0.0000
# 4 0.0000 0.0000 0.0000 18.0965 0.0000 0.0000
# 5 0.0000 0.0000 0.0000 0.0000 23.3737 0.0000
# 6 0.0000 0.0000 0.0000 0.0000 0.0000 27.1582
#
#
#
# Elastic Compliance Matrix: (Units=1/GPa)
#
#
# Indices 1 2 3 4 5 6 
#
# 1 0.018352 -0.004509 -0.008552 0.000000 0.000000 0.000000
# 2 -0.004509 0.009737 -0.001545 0.000000 0.000000 0.000000
# 3 -0.008552 -0.001545 0.018762 0.000000 0.000000 0.000000
# 4 0.000000 0.000000 0.000000 0.055259 0.000000 0.000000
# 5 0.000000 0.000000 0.000000 0.000000 0.042783 0.000000
# 6 0.000000 0.000000 0.000000 0.000000 0.000000 0.036821
#
#
# Mechanical properties :
#
#
# Convention : Reuss Voigt Hill
#
# Bulk Modulus (GPa) = 56.69178 59.35547 58.02362
# Shear Modulus (GPa) = 23.06190 25.01250 24.03720
#
# Velocity S-wave (km/s) = 3.57392 3.72199 3.64871
# Velocity P-wave (km/s) = 6.95912 7.16555 7.06309
#
# Compressibility (1/GPa) = 0.01763924
#
# Stress axis : x y z
#
# Youngs Moduli (GPa) = 54.48898 102.69603 53.29943
#
# Poissons Ratio (x) = 0.46308 0.45584
# Poissons Ratio (y) = 0.24570 0.08233
# Poissons Ratio (z) = 0.46602 0.15862
#
# Static dielectric constant tensor:
#      x y z
#    x 3.441050 0.000000 0.000000 
#    y 0.000000 3.411730 0.000000 
#    z 0.000000 0.000000 3.127450 
# 
# 
# High freq. dielectric constant tensor:
#      x y z
#    x 1.689350 0.000000 0.000000 
#    y 0.000000 1.694900 0.000000 
#    z 0.000000 0.000000 1.676820 
# 
# From -- ./inp_files/20963.got.cif
#   From: 2010.03.12/outbox.cif.g09.slc.cpg/sg65_11_cif.got.tgz:20963.got - 2010.04.10 20:52:16.
