data_PCOD8269316
_publ_section_title
;
Structure prediction by ZEFSAII (Michael W. Deem and Ramdas Pophale) SiO2 
 PCOD8269316
Probable space group: C M M M
;
_chemical_formula_sum "Si O2"
_cell_formula_units_Z 104
_cell_length_a 9.478708
_cell_length_b 26.298911
_cell_length_c 24.465551
_cell_angle_alpha 90.000000
_cell_angle_beta 90.000000
_cell_angle_gamma 90.000000
_cell_volume 6098.765167
_symmetry_space_group_name_H-M "C M M M"
_symmetry_group_IT_number 65
_symmetry_cell_setting 'orthorhombic'
loop_
_space_group_symop_operation_xyz
x,y,z
-x,-y,z
x,-y,-z
-x,y,-z
-x,-y,-z
x,y,-z
-x,y,z
x,-y,z
1/2+x,1/2+y,z
1/2-x,1/2-y,z
1/2+x,1/2-y,-z
1/2-x,1/2+y,-z
1/2-x,1/2-y,-z
1/2+x,1/2+y,-z
1/2-x,1/2+y,z
1/2+x,1/2-y,z
loop_
_atom_site_type_symbol
_atom_site_label
_atom_site_fract_x
_atom_site_fract_y
_atom_site_fract_z
Si Si1 0.335014 0.093442 0.113499
Si Si2 0.163354 0.701119 0.063714
Si Si3 0.654787 0.440857 0.329365
Si Si4 0.338618 0.058220 0.768104
Si Si5 0.162647 0.000000 0.064660
Si Si6 0.156209 0.705809 0.563821
Si Si7 0.162964 0.892240 0.560838
O O1 0.500000 0.083082 0.099697
O O2 0.287967 0.149474 0.093907
O O3 0.308044 0.091543 0.178380
O O4 0.241236 0.050659 0.084757
O O5 0.250000 0.750000 0.085711
O O6 0.000000 0.712358 0.075316
O O7 0.193859 0.692584 0.000000
O O8 0.500000 0.416972 0.320437
O O9 0.653431 0.500000 0.318916
O O10 0.756021 0.416982 0.283303
O O11 0.701510 0.432753 0.392326
O O12 0.500000 0.060508 0.750686
O O13 0.293706 0.000000 0.780920
O O14 0.000000 0.000000 0.085585
O O15 0.167201 0.000000 0.000000
O O16 0.140092 0.717038 0.500000
O O17 0.250000 0.750000 0.591522
O O18 0.236343 0.654006 0.574626
O O19 0.000000 0.704028 0.590587
O O20 0.194733 0.914611 0.500000
O O21 0.000000 0.874628 0.563651
#
# Coordination Sequence:
#
# PCOD8269316 Si02
#       7
#    16  16  16  16   8  16  16
#     4  10  19  34  54  74  98 134 176 210 246 299
#     4   9  18  32  51  74 100 133 171 209 248 292
#     4   9  18  31  47  68  94 125 160 198 240 287
#     4   9  17  31  50  71  93 120 160 206 245 287
#     4  11  23  33  45  75 113 139 160 199 256 303
#     4   9  16  26  42  64  89 116 146 181 225 279
#     4   9  17  29  45  66  93 123 156 194 236 286
#
# _framework density 17.052631999999999
#
# number of rings (size 3 to 8) (size 9 to 14) (size 15 to 20)
#    0.000    2.692    0.769    1.154    0.000    5.231 
#    0.000    3.077    0.000    0.923    0.000    8.615 
#    0.000    0.000    0.000    0.000    0.000    0.000 
#
# Total GULP energy -644466.636461 kJ/mol
# GULP energy per Si atom -12393.589163 kJ/mol
# Density = 1.701382 g / cm^3
# Si number density = 17.052632 Si / 1000 Ang^3
#
#
#
# Elastic Constant Matrix: (Units=GPa)
#
#
# Indices 1 2 3 4 5 6 
#
# 1 83.5057 51.4429 48.4881 0.0000 0.0000 0.0000
# 2 51.4429 90.6365 50.2647 0.0000 0.0000 0.0000
# 3 48.4881 50.2647 100.6949 0.0000 0.0000 0.0000
# 4 0.0000 0.0000 0.0000 16.8576 0.0000 0.0000
# 5 0.0000 0.0000 0.0000 0.0000 25.4246 0.0000
# 6 0.0000 0.0000 0.0000 0.0000 0.0000 24.5476
#
#
#
# Elastic Compliance Matrix: (Units=1/GPa)
#
#
# Indices 1 2 3 4 5 6 
#
# 1 0.020476 -0.008509 -0.005612 0.000000 0.000000 0.000000
# 2 -0.008509 0.018793 -0.005283 0.000000 0.000000 0.000000
# 3 -0.005612 -0.005283 0.015271 0.000000 0.000000 0.000000
# 4 0.000000 0.000000 0.000000 0.059320 0.000000 0.000000
# 5 0.000000 0.000000 0.000000 0.000000 0.039332 0.000000
# 6 0.000000 0.000000 0.000000 0.000000 0.000000 0.040737
#
#
# Mechanical properties :
#
#
# Convention : Reuss Voigt Hill
#
# Bulk Modulus (GPa) = 63.57381 63.91426 63.74403
# Shear Modulus (GPa) = 21.00995 21.67540 21.34268
#
# Velocity S-wave (km/s) = 3.51389 3.56910 3.54160
# Velocity P-wave (km/s) = 7.33656 7.38557 7.36110
#
# Compressibility (1/GPa) = 0.01572975
#
# Stress axis : x y z
#
# Youngs Moduli (GPa) = 48.83744 53.21193 65.48405
#
# Poissons Ratio (x) = 0.45279 0.36752
# Poissons Ratio (y) = 0.41557 0.34598
# Poissons Ratio (z) = 0.27409 0.28114
#
# Static dielectric constant tensor:
#      x y z
#    x 3.422990 0.000000 0.000000 
#    y 0.000000 3.060400 0.000000 
#    z 0.000000 0.000000 3.149880 
# 
# 
# High freq. dielectric constant tensor:
#      x y z
#    x 1.662950 0.000000 0.000000 
#    y 0.000000 1.637500 0.000000 
#    z 0.000000 0.000000 1.642200 
# 
# From -- ./inp_files/68226.got.cif
#   From: 2010.03.12/outbox.cif.g09.slc.cpg/sg65_35_cif.got.tgz:68226.got - 2010.04.10 20:52:16.
