data_PCOD8269167
_publ_section_title
;
Structure prediction by ZEFSAII (Michael W. Deem and Ramdas Pophale) SiO2 
 PCOD8269167
Probable space group: C M M M
;
_chemical_formula_sum "Si O2"
_cell_formula_units_Z 104
_cell_length_a 29.351874
_cell_length_b 9.569294
_cell_length_c 19.863479
_cell_angle_alpha 90.000000
_cell_angle_beta 90.000000
_cell_angle_gamma 90.000000
_cell_volume 5579.188666
_symmetry_space_group_name_H-M "C M M M"
_symmetry_group_IT_number 65
_symmetry_cell_setting 'orthorhombic'
loop_
_space_group_symop_operation_xyz
x,y,z
-x,-y,z
x,-y,-z
-x,y,-z
-x,-y,-z
x,y,-z
-x,y,z
x,-y,z
1/2+x,1/2+y,z
1/2-x,1/2-y,z
1/2+x,1/2-y,-z
1/2-x,1/2+y,-z
1/2-x,1/2-y,-z
1/2+x,1/2+y,-z
1/2-x,1/2+y,z
1/2+x,1/2-y,z
loop_
_atom_site_type_symbol
_atom_site_label
_atom_site_fract_x
_atom_site_fract_y
_atom_site_fract_z
Si Si1 0.789532 0.346025 0.101386
Si Si2 0.417536 0.342590 0.575685
Si Si3 0.552347 0.339009 0.182023
Si Si4 0.000000 0.654585 0.579594
Si Si5 0.608853 0.161983 0.922741
Si Si6 0.872637 0.156547 0.289590
Si Si7 0.289478 0.154929 0.258016
O O1 0.787039 0.500000 0.067876
O O2 0.750000 0.250000 0.068557
O O3 0.839506 0.281075 0.087353
O O4 0.779468 0.360327 0.179832
O O5 0.400266 0.304428 0.500000
O O6 0.437551 0.500000 0.576032
O O7 0.455672 0.237649 0.602737
O O8 0.377057 0.329952 0.629535
O O9 0.500000 0.292759 0.193888
O O10 0.554964 0.500000 0.159440
O O11 0.573975 0.248137 0.122534
O O12 0.579479 0.315611 0.251875
O O13 0.000000 0.500000 0.612171
O O14 0.000000 0.644787 0.500000
O O15 0.606820 0.000000 0.900483
O O16 0.593928 0.181086 0.000000
O O17 0.837972 0.273176 0.266093
O O18 0.854887 0.000000 0.271633
O O19 0.250000 0.250000 0.292117
O O20 0.289804 0.000000 0.291326
#
# Coordination Sequence:
#
# PCOD8269167 Si02
#       7
#    16  16  16   8  16  16  16
#     4   9  18  32  51  77 107 136 167 208 258 314
#     4   9  18  32  51  75 105 143 182 219 265 323
#     4  10  22  38  55  77 106 139 178 224 267 310
#     4   9  17  29  45  69 103 139 176 217 260 311
#     4  10  21  38  57  77 105 140 178 220 265 315
#     4  10  20  34  56  81 108 140 178 221 267 316
#     4  10  19  33  55  81 110 139 174 216 265 318
#
# _framework density 18.640702000000001
#
# number of rings (size 3 to 8) (size 9 to 14) (size 15 to 20)
#    0.000    2.385    1.538    0.692    1.077    4.000 
#    0.000    1.538    0.000    0.462    0.000    0.000 
#    0.000    0.000    0.000    0.000    0.000    0.000 
#
# Total GULP energy -644599.306164 kJ/mol
# GULP energy per Si atom -12396.140503 kJ/mol
# Density = 1.859828 g / cm^3
# Si number density = 18.640702 Si / 1000 Ang^3
#
#
#
# Elastic Constant Matrix: (Units=GPa)
#
#
# Indices 1 2 3 4 5 6 
#
# 1 120.8028 63.5291 27.6753 0.0000 0.0000 0.0000
# 2 63.5291 111.2612 30.9153 0.0000 0.0000 0.0000
# 3 27.6753 30.9153 67.6688 0.0000 0.0000 0.0000
# 4 0.0000 0.0000 0.0000 9.4577 0.0000 0.0000
# 5 0.0000 0.0000 0.0000 0.0000 9.2133 0.0000
# 6 0.0000 0.0000 0.0000 0.0000 0.0000 245.1982
#
#
#
# Elastic Compliance Matrix: (Units=1/GPa)
#
#
# Indices 1 2 3 4 5 6 
#
# 1 0.012073 -0.006325 -0.002048 0.000000 0.000000 0.000000
# 2 -0.006325 0.013608 -0.003630 0.000000 0.000000 0.000000
# 3 -0.002048 -0.003630 0.017274 0.000000 0.000000 0.000000
# 4 0.000000 0.000000 0.000000 0.105734 0.000000 0.000000
# 5 0.000000 0.000000 0.000000 0.000000 0.108538 0.000000
# 6 0.000000 0.000000 0.000000 0.000000 0.000000 0.004078
#
#
# Mechanical properties :
#
#
# Convention : Reuss Voigt Hill
#
# Bulk Modulus (GPa) = 52.77341 60.44136 56.60739
# Shear Modulus (GPa) = 17.14510 64.61471 40.87991
#
# Velocity S-wave (km/s) = 3.03606 5.89394 4.68808
# Velocity P-wave (km/s) = 6.37671 8.87766 7.72901
#
# Compressibility (1/GPa) = 0.01894894
#
# Stress axis : x y z
#
# Youngs Moduli (GPa) = 82.82787 73.48698 57.89016
#
# Poissons Ratio (x) = 0.46477 0.11857
# Poissons Ratio (y) = 0.52385 0.21016
# Poissons Ratio (z) = 0.16965 0.26678
#
# Static dielectric constant tensor:
#      x y z
#    x 3.265790 0.000000 0.000000 
#    y 0.000000 3.763430 0.000000 
#    z 0.000000 0.000000 3.273500 
# 
# 
# High freq. dielectric constant tensor:
#      x y z
#    x 1.708970 0.000000 0.000000 
#    y 0.000000 1.728480 0.000000 
#    z 0.000000 0.000000 1.705520 
# 
# From -- ./inp_files/66404.got.cif
#   From: 2010.03.12/outbox.cif.g09.slc.cpg/sg65_34_cif.got.tgz:66404.got - 2010.04.10 20:52:16.
