data_PCOD8269630
_publ_section_title
;
Structure prediction by ZEFSAII (Michael W. Deem and Ramdas Pophale) SiO2 
 PCOD8269630
Probable space group: C M M M
;
_chemical_formula_sum "Si O2"
_cell_formula_units_Z 64
_cell_length_a 17.085260
_cell_length_b 11.961485
_cell_length_c 15.483738
_cell_angle_alpha 90.000000
_cell_angle_beta 90.000000
_cell_angle_gamma 90.000000
_cell_volume 3164.335374
_symmetry_space_group_name_H-M "C M M M"
_symmetry_group_IT_number 65
_symmetry_cell_setting 'orthorhombic'
loop_
_space_group_symop_operation_xyz
x,y,z
-x,-y,z
x,-y,-z
-x,y,-z
-x,-y,-z
x,y,-z
-x,y,z
x,-y,z
1/2+x,1/2+y,z
1/2-x,1/2-y,z
1/2+x,1/2-y,-z
1/2-x,1/2+y,-z
1/2-x,1/2-y,-z
1/2+x,1/2+y,-z
1/2-x,1/2+y,z
1/2+x,1/2-y,z
loop_
_atom_site_type_symbol
_atom_site_label
_atom_site_fract_x
_atom_site_fract_y
_atom_site_fract_z
Si Si1 0.907322 0.500000 0.903939
Si Si2 0.593085 0.625685 0.000000
Si Si3 0.841277 0.735038 0.345909
Si Si4 0.091849 0.875998 0.500000
Si Si5 0.907127 0.736118 0.164680
Si Si6 0.091174 0.500000 0.602408
O O1 0.879727 0.390795 0.852524
O O2 0.000000 0.500000 0.913408
O O3 0.870440 0.500000 0.000000
O O4 0.623406 0.687977 0.085680
O O5 0.626210 0.500000 0.000000
O O6 0.500000 0.627420 0.000000
O O7 0.750000 0.750000 0.360520
O O8 0.884205 0.811159 0.414805
O O9 0.865392 0.778602 0.251303
O O10 0.867020 0.607183 0.357368
O O11 0.000000 0.885694 0.500000
O O12 0.129861 0.000000 0.500000
O O13 0.000000 0.745444 0.175952
O O14 0.100898 0.500000 0.500000
O O15 0.000000 0.500000 0.629550
#
# Coordination Sequence:
#
# PCOD8269630 Si02
#       6
#     8   8  16   8  16   8
#     4   9  15  29  59  92 117 149 202 270 320 352
#     4   9  18  33  56  85 115 160 213 258 299 361
#     4  12  26  41  65  95 135 168 208 262 328 386
#     4  11  25  45  69  93 123 165 215 261 313 383
#     4  10  19  35  60  88 120 158 210 262 312 372
#     4  11  23  43  73  98 123 167 223 269 315 379
#
# _framework density 20.225418000000001
#
# number of rings (size 3 to 8) (size 9 to 14) (size 15 to 20)
#    0.000    1.500    2.500    3.375    1.750    2.000 
#    0.000    3.125    0.000    0.000    0.000    0.000 
#    0.000    0.000    0.000    0.000    0.000    0.000 
#
# Total GULP energy -396898.935641 kJ/mol
# GULP energy per Si atom -12403.091739 kJ/mol
# Density = 2.017938 g / cm^3
# Si number density = 20.225418 Si / 1000 Ang^3
#
#
#
# Elastic Constant Matrix: (Units=GPa)
#
#
# Indices 1 2 3 4 5 6 
#
# 1 68.3590 34.2445 25.0553 0.0000 0.0000 0.0000
# 2 34.2445 167.0877 70.5435 0.0000 0.0000 0.0000
# 3 25.0553 70.5435 165.5139 0.0000 0.0000 0.0000
# 4 0.0000 0.0000 0.0000 -12.1485 0.0000 0.0000
# 5 0.0000 0.0000 0.0000 0.0000 -8.3254 0.0000
# 6 0.0000 0.0000 0.0000 0.0000 0.0000 21.2443
#
#
#
# Elastic Compliance Matrix: (Units=1/GPa)
#
#
# Indices 1 2 3 4 5 6 
#
# 1 0.016525 -0.002842 -0.001290 0.000000 0.000000 0.000000
# 2 -0.002842 0.007787 -0.002889 0.000000 0.000000 0.000000
# 3 -0.001290 -0.002889 0.007468 0.000000 0.000000 0.000000
# 4 0.000000 0.000000 0.000000 -0.082315 0.000000 0.000000
# 5 0.000000 0.000000 0.000000 0.000000 -0.120114 0.000000
# 6 0.000000 0.000000 0.000000 0.000000 0.000000 0.047071
#
#
# Mechanical properties :
#
#
# Convention : Reuss Voigt Hill
#
# Bulk Modulus (GPa) = 56.37442 73.40524 64.88983
# Shear Modulus (GPa) = -48.25218 18.22857 -15.01181
#
# Velocity S-wave (km/s) = -4.88968 3.00537 -2.72734
# Velocity P-wave (km/s) = 1.98622 6.95812 4.71542
#
# Compressibility (1/GPa) = 0.01773854
#
# Stress axis : x y z
#
# Youngs Moduli (GPa) = 60.51321 128.42020 133.89993
#
# Poissons Ratio (x) = 0.36499 0.17276
# Poissons Ratio (y) = 0.17199 0.38679
# Poissons Ratio (z) = 0.07808 0.37096
#
# Static dielectric constant tensor:
#      x y z
#    x 3.305810 0.000000 0.000000 
#    y 0.000000 4.007380 0.000000 
#    z 0.000000 0.000000 3.873080 
# 
# 
# High freq. dielectric constant tensor:
#      x y z
#    x 1.756730 0.000000 0.000000 
#    y 0.000000 1.797330 0.000000 
#    z 0.000000 0.000000 1.811240 
# 
# From -- ./inp_files/37839.got.cif
#   From: 2010.03.12/outbox.cif.g09.slc.cpg/sg65_19_cif.got.tgz:37839.got - 2010.04.10 20:52:16.
