data_PCOD8269175
_publ_section_title
;
Structure prediction by ZEFSAII (Michael W. Deem and Ramdas Pophale) SiO2 
 PCOD8269175
Probable space group: C M M M
;
_chemical_formula_sum "Si O2"
_cell_formula_units_Z 104
_cell_length_a 21.286262
_cell_length_b 26.410034
_cell_length_c 8.943360
_cell_angle_alpha 90.000000
_cell_angle_beta 90.000000
_cell_angle_gamma 90.000000
_cell_volume 5027.696768
_symmetry_space_group_name_H-M "C M M M"
_symmetry_group_IT_number 65
_symmetry_cell_setting 'orthorhombic'
loop_
_space_group_symop_operation_xyz
x,y,z
-x,-y,z
x,-y,-z
-x,y,-z
-x,-y,-z
x,y,-z
-x,y,z
x,-y,z
1/2+x,1/2+y,z
1/2-x,1/2-y,z
1/2+x,1/2-y,-z
1/2-x,1/2+y,-z
1/2-x,1/2-y,-z
1/2+x,1/2+y,-z
1/2-x,1/2+y,z
1/2+x,1/2-y,z
loop_
_atom_site_type_symbol
_atom_site_label
_atom_site_fract_x
_atom_site_fract_y
_atom_site_fract_z
Si Si1 0.111591 0.222473 0.669203
Si Si2 0.000000 0.620525 0.178824
Si Si3 0.500000 0.766838 0.171978
Si Si4 0.700116 0.209277 0.839382
Si Si5 0.375014 0.605515 0.326269
Si Si6 0.382694 0.943682 0.822552
Si Si7 0.252187 0.100928 0.175983
Si Si8 0.500000 0.440400 0.823050
O O1 0.088281 0.229289 0.500000
O O2 0.161112 0.266701 0.704119
O O3 0.134510 0.165551 0.697191
O O4 0.057133 0.231748 0.785157
O O5 0.000000 0.677323 0.246996
O O6 0.936809 0.593448 0.240921
O O7 0.000000 0.618615 0.000000
O O8 0.500000 0.777620 0.000000
O O9 0.750000 0.250000 0.886613
O O10 0.733436 0.158874 0.780794
O O11 0.663410 0.197808 0.000000
O O12 0.380747 0.591027 0.500000
O O13 0.311209 0.581291 0.257995
O O14 0.437418 0.585083 0.245011
O O15 0.312814 0.929949 0.764940
O O16 0.399275 0.000000 0.767581
O O17 0.382299 0.940154 0.000000
O O18 0.240919 0.093657 0.000000
O O19 0.500000 0.500000 0.784630
O O20 0.500000 0.431020 0.000000
#
# Coordination Sequence:
#
# PCOD8269175 Si02
#       8
#    16   8   8  16  16  16  16   8
#     4  11  23  37  55  83 120 155 192 235 286 347
#     4   9  17  32  53  79 114 151 192 238 287 344
#     4  11  22  35  55  81 112 149 192 237 283 341
#     4  10  19  33  55  81 112 154 196 233 280 336
#     4  11  24  41  62  88 119 155 193 236 293 358
#     4   9  17  30  52  82 114 148 187 238 295 342
#     4  10  20  35  56  86 122 156 200 249 291 347
#     4  11  26  47  70  92 112 143 192 248 304 359
#
# _framework density 20.685417000000001
#
# number of rings (size 3 to 8) (size 9 to 14) (size 15 to 20)
#    0.000    1.769    1.538    3.000    0.000    9.231 
#    0.000    1.538    0.000    0.000    0.000    0.000 
#    0.000    4.923    0.000    0.000    0.000    0.000 
#
# Total GULP energy -644381.394422 kJ/mol
# GULP energy per Si atom -12391.949893 kJ/mol
# Density = 2.063834 g / cm^3
# Si number density = 20.685417 Si / 1000 Ang^3
#
#
#
# Elastic Constant Matrix: (Units=GPa)
#
#
# Indices 1 2 3 4 5 6 
#
# 1 145.4205 18.0490 44.2470 0.0000 0.0000 0.0000
# 2 18.0490 48.0145 26.9559 0.0000 0.0000 0.0000
# 3 44.2470 26.9559 70.7091 0.0000 0.0000 0.0000
# 4 0.0000 0.0000 0.0000 18.4511 0.0000 0.0000
# 5 0.0000 0.0000 0.0000 0.0000 33.5841 0.0000
# 6 0.0000 0.0000 0.0000 0.0000 0.0000 32.2880
#
#
#
# Elastic Compliance Matrix: (Units=1/GPa)
#
#
# Indices 1 2 3 4 5 6 
#
# 1 0.008497 -0.000266 -0.005215 0.000000 0.000000 0.000000
# 2 -0.000266 0.026507 -0.009939 0.000000 0.000000 0.000000
# 3 -0.005215 -0.009939 0.021195 0.000000 0.000000 0.000000
# 4 0.000000 0.000000 0.000000 0.054197 0.000000 0.000000
# 5 0.000000 0.000000 0.000000 0.000000 0.029776 0.000000
# 6 0.000000 0.000000 0.000000 0.000000 0.000000 0.030971
#
#
# Mechanical properties :
#
#
# Convention : Reuss Voigt Hill
#
# Bulk Modulus (GPa) = 39.43486 49.18310 44.30898
# Shear Modulus (GPa) = 23.76033 28.52414 26.14224
#
# Velocity S-wave (km/s) = 3.39285 3.71745 3.55885
# Velocity P-wave (km/s) = 5.86976 6.50033 6.19307
#
# Compressibility (1/GPa) = 0.02535828
#
# Stress axis : x y z
#
# Youngs Moduli (GPa) = 117.69551 37.72642 47.18130
#
# Poissons Ratio (x) = 0.01003 0.24607
# Poissons Ratio (y) = 0.03129 0.46891
# Poissons Ratio (z) = 0.61383 0.37495
#
# Static dielectric constant tensor:
#      x y z
#    x 2.640810 0.000000 0.000000 
#    y 0.000000 3.787350 0.000000 
#    z 0.000000 0.000000 3.426640 
# 
# 
# High freq. dielectric constant tensor:
#      x y z
#    x 1.819660 0.000000 0.000000 
#    y 0.000000 1.810320 0.000000 
#    z 0.000000 0.000000 1.776680 
# 
# From -- ./inp_files/12462.got.cif
#   From: 2010.03.12/outbox.cif.g09.slc.cpg/sg65_7_cif.got.tgz:12462.got - 2010.04.10 20:52:16.
