data_PCOD8269966
_publ_section_title
;
Structure prediction by ZEFSAII (Michael W. Deem and Ramdas Pophale) SiO2 
 PCOD8269966
Probable space group: C M M M
;
_chemical_formula_sum "Si O2"
_cell_formula_units_Z 64
_cell_length_a 18.576174
_cell_length_b 9.300104
_cell_length_c 20.910659
_cell_angle_alpha 90.000000
_cell_angle_beta 90.000000
_cell_angle_gamma 90.000000
_cell_volume 3612.532770
_symmetry_space_group_name_H-M "C M M M"
_symmetry_group_IT_number 65
_symmetry_cell_setting 'orthorhombic'
loop_
_space_group_symop_operation_xyz
x,y,z
-x,-y,z
x,-y,-z
-x,y,-z
-x,-y,-z
x,y,-z
-x,y,z
x,-y,z
1/2+x,1/2+y,z
1/2-x,1/2-y,z
1/2+x,1/2-y,-z
1/2-x,1/2+y,-z
1/2-x,1/2-y,-z
1/2+x,1/2+y,-z
1/2-x,1/2+y,z
1/2+x,1/2-y,z
loop_
_atom_site_type_symbol
_atom_site_label
_atom_site_fract_x
_atom_site_fract_y
_atom_site_fract_z
Si Si1 0.583193 0.166389 0.377583
Si Si2 0.419202 0.172173 0.137216
Si Si3 0.914353 0.162412 0.500000
Si Si4 0.585375 0.157307 0.000000
Si Si5 0.675524 0.169463 0.745442
O O1 0.500000 0.202363 0.363894
O O2 0.614416 0.257813 0.436768
O O3 0.626975 0.210242 0.315014
O O4 0.593153 0.000000 0.395170
O O5 0.500000 0.226796 0.153190
O O6 0.393095 0.234480 0.067332
O O7 0.365066 0.227738 0.191435
O O8 0.419826 0.000000 0.134572
O O9 0.000000 0.168048 0.500000
O O10 0.884965 0.000000 0.500000
O O11 0.500000 0.139963 0.000000
O O12 0.621745 0.000000 0.000000
O O13 0.750000 0.250000 0.738706
O O14 0.689239 0.000000 0.749498
#
# Coordination Sequence:
#
# PCOD8269966 Si02
#       5
#    16  16   8   8  16
#     4   9  17  31  51  71  90 117 154 191 225 265
#     4   8  13  24  44  68  91 117 153 194 231 267
#     4   9  17  29  48  75 100 117 139 181 234 279
#     4   7  10  18  37  66  93 113 142 191 238 266
#     4  10  20  32  46  66  94 125 155 189 228 270
#
# _framework density 17.716101999999999
#
# number of rings (size 3 to 8) (size 9 to 14) (size 15 to 20)
#    0.000    3.250    0.000    2.625    0.000    5.500 
#    0.000    1.250    0.000    2.250    0.000    0.000 
#    0.000    3.000    0.000    0.000    0.000    0.000 
#
# Total GULP energy -396531.660489 kJ/mol
# GULP energy per Si atom -12391.614390 kJ/mol
# Density = 1.767578 g / cm^3
# Si number density = 17.716102 Si / 1000 Ang^3
#
#
#
# Elastic Constant Matrix: (Units=GPa)
#
#
# Indices 1 2 3 4 5 6 
#
# 1 82.1284 33.4143 72.6719 0.0000 0.0000 0.0000
# 2 33.4143 41.8542 57.2134 0.0000 0.0000 0.0000
# 3 72.6719 57.2134 197.9456 0.0000 0.0000 0.0000
# 4 0.0000 0.0000 0.0000 10.5512 0.0000 0.0000
# 5 0.0000 0.0000 0.0000 0.0000 2.6985 0.0000
# 6 0.0000 0.0000 0.0000 0.0000 0.0000 21.6001
#
#
#
# Elastic Compliance Matrix: (Units=1/GPa)
#
#
# Indices 1 2 3 4 5 6 
#
# 1 0.020257 -0.009929 -0.004567 0.000000 0.000000 0.000000
# 2 -0.009929 0.044365 -0.009178 0.000000 0.000000 0.000000
# 3 -0.004567 -0.009178 0.009381 0.000000 0.000000 0.000000
# 4 0.000000 0.000000 0.000000 0.094776 0.000000 0.000000
# 5 0.000000 0.000000 0.000000 0.000000 0.370576 0.000000
# 6 0.000000 0.000000 0.000000 0.000000 0.000000 0.046296
#
#
# Mechanical properties :
#
#
# Convention : Reuss Voigt Hill
#
# Bulk Modulus (GPa) = 37.51574 72.05857 54.78716
# Shear Modulus (GPa) = 7.78956 17.54519 12.66738
#
# Velocity S-wave (km/s) = 2.09915 3.15040 2.67689
# Velocity P-wave (km/s) = 5.20550 7.34818 6.36761
#
# Compressibility (1/GPa) = 0.02665548
#
# Stress axis : x y z
#
# Youngs Moduli (GPa) = 49.36575 22.54016 106.59438
#
# Poissons Ratio (x) = 0.22380 0.48683
# Poissons Ratio (y) = 0.49016 0.97831
# Poissons Ratio (z) = 0.22546 0.20687
#
# Static dielectric constant tensor:
#      x y z
#    x 2.990020 0.000000 0.000000 
#    y 0.000000 2.889710 0.000000 
#    z 0.000000 0.000000 3.804730 
# 
# 
# High freq. dielectric constant tensor:
#      x y z
#    x 1.652390 0.000000 0.000000 
#    y 0.000000 1.636370 0.000000 
#    z 0.000000 0.000000 1.712360 
# 
# From -- ./inp_files/58837.got.cif
#   From: 2010.03.12/outbox.cif.g09.slc.cpg/sg65_30_cif.got.tgz:58837.got - 2010.04.10 20:52:16.
