data_PCOD8269578
_publ_section_title
;
Structure prediction by ZEFSAII (Michael W. Deem and Ramdas Pophale) SiO2 
 PCOD8269578
Probable space group: C M M M
;
_chemical_formula_sum "Si O2"
_cell_formula_units_Z 80
_cell_length_a 24.122398
_cell_length_b 14.451290
_cell_length_c 13.538224
_cell_angle_alpha 90.000000
_cell_angle_beta 90.000000
_cell_angle_gamma 90.000000
_cell_volume 4719.421759
_symmetry_space_group_name_H-M "C M M M"
_symmetry_group_IT_number 65
_symmetry_cell_setting 'orthorhombic'
loop_
_space_group_symop_operation_xyz
x,y,z
-x,-y,z
x,-y,-z
-x,y,-z
-x,-y,-z
x,y,-z
-x,y,z
x,-y,z
1/2+x,1/2+y,z
1/2-x,1/2-y,z
1/2+x,1/2-y,-z
1/2-x,1/2+y,-z
1/2-x,1/2-y,-z
1/2+x,1/2+y,-z
1/2-x,1/2+y,z
1/2+x,1/2-y,z
loop_
_atom_site_type_symbol
_atom_site_label
_atom_site_fract_x
_atom_site_fract_y
_atom_site_fract_z
Si Si1 0.500000 0.393956 0.307723
Si Si2 0.233173 0.000000 0.112995
Si Si3 0.112124 0.304239 0.114194
Si Si4 0.500000 0.699644 0.888930
Si Si5 0.801721 0.183690 0.228727
Si Si6 0.863956 0.500000 0.110624
Si Si7 0.116612 0.108283 0.385170
O O1 0.500000 0.500000 0.338233
O O2 0.500000 0.384101 0.188755
O O3 0.443606 0.350062 0.352844
O O4 0.214073 0.090699 0.171344
O O5 0.298415 0.000000 0.109930
O O6 0.209504 0.000000 0.000000
O O7 0.051776 0.264486 0.131278
O O8 0.157378 0.237424 0.158040
O O9 0.114479 0.406535 0.164411
O O10 0.127955 0.314003 0.000000
O O11 0.500000 0.657987 0.000000
O O12 0.750000 0.250000 0.254307
O O13 0.833421 0.159881 0.329981
O O14 0.888404 0.500000 0.000000
O O15 0.125425 0.126990 0.500000
O O16 0.119061 0.000000 0.358581
#
# Coordination Sequence:
#
# PCOD8269578 Si02
#       7
#     8   8  16   8  16   8  16
#     4  10  19  35  57  80 106 139 176 213 265 325
#     4  11  22  34  50  78 113 150 184 211 253 315
#     4  10  20  34  52  77 109 143 178 218 260 314
#     4  10  20  33  51  78 112 143 174 214 264 317
#     4  12  22  34  55  80 108 144 181 218 266 320
#     4   9  18  33  52  74 104 142 185 220 249 297
#     4  10  21  38  58  79 104 135 177 229 274 317
#
# _framework density 16.951229000000001
#
# number of rings (size 3 to 8) (size 9 to 14) (size 15 to 20)
#    0.000    1.600    5.000    0.900    0.000    3.000 
#    0.000    2.000    0.000    0.000    0.000    0.000 
#    0.000    1.600    0.000    0.000    0.000    0.000 
#
# Total GULP energy -495844.363965 kJ/mol
# GULP energy per Si atom -12396.109099 kJ/mol
# Density = 1.691265 g / cm^3
# Si number density = 16.951229 Si / 1000 Ang^3
#
#
#
# Elastic Constant Matrix: (Units=GPa)
#
#
# Indices 1 2 3 4 5 6 
#
# 1 118.9281 37.8472 45.9600 0.0000 0.0000 0.0000
# 2 37.8472 80.6415 32.4018 0.0000 0.0000 0.0000
# 3 45.9600 32.4018 80.7511 0.0000 0.0000 0.0000
# 4 0.0000 0.0000 0.0000 657.5619 0.0000 0.0000
# 5 0.0000 0.0000 0.0000 0.0000 26.9427 0.0000
# 6 0.0000 0.0000 0.0000 0.0000 0.0000 25.7161
#
#
#
# Elastic Compliance Matrix: (Units=1/GPa)
#
#
# Indices 1 2 3 4 5 6 
#
# 1 0.011468 -0.003290 -0.005207 0.000000 0.000000 0.000000
# 2 -0.003290 0.015728 -0.004438 0.000000 0.000000 0.000000
# 3 -0.005207 -0.004438 0.017128 0.000000 0.000000 0.000000
# 4 0.000000 0.000000 0.000000 0.001521 0.000000 0.000000
# 5 0.000000 0.000000 0.000000 0.000000 0.037116 0.000000
# 6 0.000000 0.000000 0.000000 0.000000 0.000000 0.038886
#
#
# Mechanical properties :
#
#
# Convention : Reuss Voigt Hill
#
# Bulk Modulus (GPa) = 54.19046 56.97096 55.58071
# Shear Modulus (GPa) = 32.49539 152.98489 92.74014
#
# Velocity S-wave (km/s) = 4.38310 9.51031 7.40464
# Velocity P-wave (km/s) = 7.59297 12.42080 10.29392
#
# Compressibility (1/GPa) = 0.01845343
#
# Stress axis : x y z
#
# Youngs Moduli (GPa) = 87.20230 63.58086 58.38348
#
# Poissons Ratio (x) = 0.20918 0.30399
# Poissons Ratio (y) = 0.28689 0.25913
# Poissons Ratio (z) = 0.45404 0.28220
#
# Static dielectric constant tensor:
#      x y z
#    x 2.454550 0.000000 0.000000 
#    y 0.000000 3.459770 0.000000 
#    z 0.000000 0.000000 3.054400 
# 
# 
# High freq. dielectric constant tensor:
#      x y z
#    x 1.667430 0.000000 0.000000 
#    y 0.000000 1.651520 0.000000 
#    z 0.000000 0.000000 1.632850 
# 
# From -- ./inp_files/30487.got.cif
#   From: 2010.03.12/outbox.cif.g09.slc.cpg/sg65_16_cif.got.tgz:30487.got - 2010.04.10 20:52:16.
