data_PCOD8269178
_publ_section_title
;
Structure prediction by ZEFSAII (Michael W. Deem and Ramdas Pophale) SiO2 
 PCOD8269178
Probable space group: C M M M
;
_chemical_formula_sum "Si O2"
_cell_formula_units_Z 96
_cell_length_a 28.638984
_cell_length_b 9.274961
_cell_length_c 20.269690
_cell_angle_alpha 90.000000
_cell_angle_beta 90.000000
_cell_angle_gamma 90.000000
_cell_volume 5384.145724
_symmetry_space_group_name_H-M "C M M M"
_symmetry_group_IT_number 65
_symmetry_cell_setting 'orthorhombic'
loop_
_space_group_symop_operation_xyz
x,y,z
-x,-y,z
x,-y,-z
-x,y,-z
-x,-y,-z
x,y,-z
-x,y,z
x,-y,z
1/2+x,1/2+y,z
1/2-x,1/2-y,z
1/2+x,1/2-y,-z
1/2-x,1/2+y,-z
1/2-x,1/2-y,-z
1/2+x,1/2+y,-z
1/2-x,1/2+y,z
1/2+x,1/2-y,z
loop_
_atom_site_type_symbol
_atom_site_label
_atom_site_fract_x
_atom_site_fract_y
_atom_site_fract_z
Si Si1 0.552970 0.668210 0.373494
Si Si2 0.145352 0.335112 0.176576
Si Si3 0.796569 0.832612 0.076405
Si Si4 0.863688 0.334222 0.426281
Si Si5 0.051879 0.663399 0.241289
Si Si6 0.701641 0.831705 0.691504
O O1 0.500000 0.698990 0.397094
O O2 0.564012 0.500000 0.372570
O O3 0.588315 0.745089 0.423212
O O4 0.561246 0.727893 0.300452
O O5 0.156152 0.500000 0.156604
O O6 0.160824 0.229778 0.118275
O O7 0.089918 0.308598 0.184506
O O8 0.170838 0.294904 0.244680
O O9 0.750000 0.750000 0.098430
O O10 0.789435 0.000000 0.092346
O O11 0.807956 0.805639 0.000000
O O12 0.842915 0.315871 0.500000
O O13 0.875652 0.500000 0.410606
O O14 0.825975 0.276792 0.373418
O O15 0.057828 0.500000 0.268488
O O16 0.000000 0.686577 0.211337
O O17 0.750000 0.750000 0.697105
O O18 0.712584 0.000000 0.686120
#
# Coordination Sequence:
#
# PCOD8269178 Si02
#       6
#    16  16  16  16  16  16
#     4  10  20  33  51  77 107 135 166 211 266 318
#     4  10  19  33  55  82 109 137 173 217 261 305
#     4  10  21  36  54  79 111 145 180 216 257 309
#     4  10  21  38  56  72  97 136 179 219 261 314
#     4   9  17  32  55  80 107 139 174 212 255 306
#     4  10  21  36  52  76 103 131 171 217 262 309
#
# _framework density 17.830127000000001
#
# number of rings (size 3 to 8) (size 9 to 14) (size 15 to 20)
#    0.000    2.167    1.667    1.500    0.000    6.333 
#    0.000    1.667    0.000    0.500    0.000    3.500 
#    0.000    0.000    0.000    0.000    0.000    0.000 
#
# Total GULP energy -595281.002528 kJ/mol
# GULP energy per Si atom -12401.687553 kJ/mol
# Density = 1.778955 g / cm^3
# Si number density = 17.830127 Si / 1000 Ang^3
#
#
#
# Elastic Constant Matrix: (Units=GPa)
#
#
# Indices 1 2 3 4 5 6 
#
# 1 115.1710 47.4247 48.1339 0.0000 0.0000 0.0000
# 2 47.4247 74.0326 39.3489 0.0000 0.0000 0.0000
# 3 48.1339 39.3489 80.3630 0.0000 0.0000 0.0000
# 4 0.0000 0.0000 0.0000 25.2170 0.0000 0.0000
# 5 0.0000 0.0000 0.0000 0.0000 26.9361 0.0000
# 6 0.0000 0.0000 0.0000 0.0000 0.0000 29.8559
#
#
#
# Elastic Compliance Matrix: (Units=1/GPa)
#
#
# Indices 1 2 3 4 5 6 
#
# 1 0.013167 -0.005736 -0.005078 0.000000 0.000000 0.000000
# 2 -0.005736 0.020758 -0.006729 0.000000 0.000000 0.000000
# 3 -0.005078 -0.006729 0.018780 0.000000 0.000000 0.000000
# 4 0.000000 0.000000 0.000000 0.039656 0.000000 0.000000
# 5 0.000000 0.000000 0.000000 0.000000 0.037125 0.000000
# 6 0.000000 0.000000 0.000000 0.000000 0.000000 0.033494
#
#
# Mechanical properties :
#
#
# Convention : Reuss Voigt Hill
#
# Bulk Modulus (GPa) = 56.75315 59.93126 58.34221
# Shear Modulus (GPa) = 24.51738 25.37907 24.94823
#
# Velocity S-wave (km/s) = 3.71219 3.77687 3.74467
# Velocity P-wave (km/s) = 7.09034 7.25982 7.17558
#
# Compressibility (1/GPa) = 0.01762017
#
# Stress axis : x y z
#
# Youngs Moduli (GPa) = 75.94885 48.17415 53.24923
#
# Poissons Ratio (x) = 0.27630 0.27040
# Poissons Ratio (y) = 0.43561 0.35829
# Poissons Ratio (z) = 0.38567 0.32414
#
# Static dielectric constant tensor:
#      x y z
#    x 3.409030 0.000000 0.000000 
#    y 0.000000 3.322140 0.000000 
#    z 0.000000 0.000000 3.124040 
# 
# 
# High freq. dielectric constant tensor:
#      x y z
#    x 1.692280 0.000000 0.000000 
#    y 0.000000 1.691050 0.000000 
#    z 0.000000 0.000000 1.671140 
# 
# From -- ./inp_files/60198.got.cif
#   From: 2010.03.12/outbox.cif.g09.slc.cpg/sg65_31_cif.got.tgz:60198.got - 2010.04.10 20:52:16.
