data_PCOD8269915
_publ_section_title
;
Structure prediction by ZEFSAII (Michael W. Deem and Ramdas Pophale) SiO2 
 PCOD8269915
Probable space group: C M M M
;
_chemical_formula_sum "Si O2"
_cell_formula_units_Z 104
_cell_length_a 28.886422
_cell_length_b 8.809832
_cell_length_c 26.316805
_cell_angle_alpha 90.000000
_cell_angle_beta 90.000000
_cell_angle_gamma 90.000000
_cell_volume 6697.219617
_symmetry_space_group_name_H-M "C M M M"
_symmetry_group_IT_number 65
_symmetry_cell_setting 'orthorhombic'
loop_
_space_group_symop_operation_xyz
x,y,z
-x,-y,z
x,-y,-z
-x,y,-z
-x,-y,-z
x,y,-z
-x,y,z
x,-y,z
1/2+x,1/2+y,z
1/2-x,1/2-y,z
1/2+x,1/2-y,-z
1/2-x,1/2+y,-z
1/2-x,1/2-y,-z
1/2+x,1/2+y,-z
1/2-x,1/2+y,z
1/2+x,1/2-y,z
loop_
_atom_site_type_symbol
_atom_site_label
_atom_site_fract_x
_atom_site_fract_y
_atom_site_fract_z
Si Si1 0.300763 0.679633 0.837666
Si Si2 0.054608 0.330809 0.500000
Si Si3 0.298472 0.322159 0.558654
Si Si4 0.638631 0.179187 0.358296
Si Si5 0.800574 0.320635 0.262735
Si Si6 0.947132 0.820821 0.604074
Si Si7 0.799973 0.822219 0.946232
O O1 0.298510 0.500000 0.828741
O O2 0.250000 0.750000 0.839438
O O3 0.325163 0.757413 0.788996
O O4 0.325437 0.720742 0.892513
O O5 0.076706 0.500000 0.500000
O O6 0.070363 0.238799 0.549492
O O7 0.000000 0.344385 0.500000
O O8 0.309288 0.285326 0.500000
O O9 0.295875 0.500000 0.569299
O O10 0.250000 0.250000 0.575630
O O11 0.338682 0.248670 0.591549
O O12 0.666815 0.230733 0.308766
O O13 0.586422 0.245338 0.353898
O O14 0.636683 0.000000 0.363317
O O15 0.795535 0.500000 0.259241
O O16 0.750000 0.250000 0.271306
O O17 0.000000 0.771926 0.615722
O O18 0.941727 0.000000 0.604855
O O19 0.750000 0.750000 0.946919
O O20 0.791759 0.000000 0.945266
O O21 0.825977 0.776635 0.000000
#
# Coordination Sequence:
#
# PCOD8269915 Si02
#       7
#    16   8  16  16  16  16  16
#     4   9  15  23  37  54  74 104 138 174 215 251
#     4   9  17  31  51  71  90 111 132 157 193 241
#     4  10  21  36  52  69  90 114 140 174 215 257
#     4  11  23  35  50  69  88 114 145 177 215 259
#     4  10  20  32  45  62  84 111 145 183 219 252
#     4  10  21  36  53  72  93 114 137 169 210 256
#     4   8  13  20  30  47  71  98 131 170 209 248
#
# _framework density 15.528833000000001
#
# number of rings (size 3 to 8) (size 9 to 14) (size 15 to 20)
#    0.000    2.385    0.000    3.923    1.077    7.077 
#    0.000    0.000    0.000    0.000    0.000    0.000 
#    0.000    0.000    0.000    0.000    0.000    0.769 
#
# Total GULP energy -644218.598069 kJ/mol
# GULP energy per Si atom -12388.819194 kJ/mol
# Density = 1.549349 g / cm^3
# Si number density = 15.528833 Si / 1000 Ang^3
#
#
#
# Elastic Constant Matrix: (Units=GPa)
#
#
# Indices 1 2 3 4 5 6 
#
# 1 61.4039 27.3070 52.2363 0.0000 0.0000 0.0000
# 2 27.3070 64.6273 43.7121 0.0000 0.0000 0.0000
# 3 52.2363 43.7121 126.4814 0.0000 0.0000 0.0000
# 4 0.0000 0.0000 0.0000 19.0335 0.0000 0.0000
# 5 0.0000 0.0000 0.0000 0.0000 4.8059 0.0000
# 6 0.0000 0.0000 0.0000 0.0000 0.0000 19.9171
#
#
#
# Elastic Compliance Matrix: (Units=1/GPa)
#
#
# Indices 1 2 3 4 5 6 
#
# 1 0.026246 -0.004905 -0.009144 0.000000 0.000000 0.000000
# 2 -0.004905 0.021110 -0.005270 0.000000 0.000000 0.000000
# 3 -0.009144 -0.005270 0.013504 0.000000 0.000000 0.000000
# 4 0.000000 0.000000 0.000000 0.052539 0.000000 0.000000
# 5 0.000000 0.000000 0.000000 0.000000 0.208075 0.000000
# 6 0.000000 0.000000 0.000000 0.000000 0.000000 0.050208
#
#
# Mechanical properties :
#
#
# Convention : Reuss Voigt Hill
#
# Bulk Modulus (GPa) = 45.00033 55.44704 50.22368
# Shear Modulus (GPa) = 11.96949 17.36846 14.66898
#
# Velocity S-wave (km/s) = 2.77933 3.34797 3.07682
# Velocity P-wave (km/s) = 6.27224 7.12240 6.71080
#
# Compressibility (1/GPa) = 0.02222206
#
# Stress axis : x y z
#
# Youngs Moduli (GPa) = 38.10117 47.37034 74.05065
#
# Poissons Ratio (x) = 0.23234 0.67715
# Poissons Ratio (y) = 0.18687 0.39026
# Poissons Ratio (z) = 0.34841 0.24965
#
# Static dielectric constant tensor:
#      x y z
#    x 2.668830 0.000000 0.000000 
#    y 0.000000 2.996800 0.000000 
#    z 0.000000 0.000000 3.787810 
# 
# 
# High freq. dielectric constant tensor:
#      x y z
#    x 1.537750 0.000000 0.000000 
#    y 0.000000 1.614180 0.000000 
#    z 0.000000 0.000000 1.601390 
# 
# From -- ./inp_files/76239.got.cif
#   From: 2010.03.12/outbox.cif.g09.slc.cpg/sg65_39_cif.got.tgz:76239.got - 2010.04.10 20:52:16.
