data_PCOD8269533
_publ_section_title
;
Structure prediction by ZEFSAII (Michael W. Deem and Ramdas Pophale) SiO2 
 PCOD8269533
Probable space group: C M M M
;
_chemical_formula_sum "Si O2"
_cell_formula_units_Z 96
_cell_length_a 13.584643
_cell_length_b 21.386688
_cell_length_c 15.092580
_cell_angle_alpha 90.000000
_cell_angle_beta 90.000000
_cell_angle_gamma 90.000000
_cell_volume 4384.855137
_symmetry_space_group_name_H-M "C M M M"
_symmetry_group_IT_number 65
_symmetry_cell_setting 'orthorhombic'
loop_
_space_group_symop_operation_xyz
x,y,z
-x,-y,z
x,-y,-z
-x,y,-z
-x,-y,-z
x,y,-z
-x,y,z
x,-y,z
1/2+x,1/2+y,z
1/2-x,1/2-y,z
1/2+x,1/2-y,-z
1/2-x,1/2+y,-z
1/2-x,1/2-y,-z
1/2+x,1/2+y,-z
1/2-x,1/2+y,z
1/2+x,1/2-y,z
loop_
_atom_site_type_symbol
_atom_site_label
_atom_site_fract_x
_atom_site_fract_y
_atom_site_fract_z
Si Si1 0.111985 0.929191 0.638525
Si Si2 0.314257 0.068697 0.905314
Si Si3 0.109041 0.905948 0.156505
Si Si4 0.613725 0.164176 0.772735
Si Si5 0.386291 0.731551 0.900718
Si Si6 0.268797 0.176312 0.401799
O O1 0.116375 0.928341 0.743744
O O2 0.175429 0.871180 0.600571
O O3 0.000000 0.918259 0.605911
O O4 0.146632 0.000000 0.608558
O O5 0.195701 0.061966 0.897912
O O6 0.367365 0.099736 0.822536
O O7 0.359208 0.000000 0.908052
O O8 0.338352 0.102310 0.000000
O O9 0.128786 0.832252 0.151961
O O10 0.000000 0.922167 0.117476
O O11 0.500000 0.179235 0.759296
O O12 0.664174 0.216392 0.837067
O O13 0.657441 0.156710 0.675211
O O14 0.500000 0.748587 0.911203
O O15 0.339094 0.729513 0.000000
O O16 0.315902 0.168383 0.500000
O O17 0.250000 0.250000 0.386540
#
# Coordination Sequence:
#
# PCOD8269533 Si02
#       6
#    16  16  16  16  16  16
#     4  10  21  40  69 101 134 175 219 264 322 397
#     4  11  24  39  58  88 125 169 219 263 310 372
#     4  10  19  34  59  92 131 167 200 252 320 386
#     4  11  24  42  64  88 120 166 217 269 319 369
#     4   9  18  33  56  88 123 162 210 256 304 370
#     4  11  25  44  68 100 134 168 210 266 336 406
#
# _framework density 21.893540999999999
#
# number of rings (size 3 to 8) (size 9 to 14) (size 15 to 20)
#    0.000    1.667    1.667    2.500    0.000    6.333 
#    0.000    5.833    0.000    0.000    0.000    2.333 
#    0.000    0.000    0.000    0.000    0.000    0.000 
#
# Total GULP energy -594672.246009 kJ/mol
# GULP energy per Si atom -12389.005125 kJ/mol
# Density = 2.184371 g / cm^3
# Si number density = 21.893541 Si / 1000 Ang^3
#
#
#
# Elastic Constant Matrix: (Units=GPa)
#
#
# Indices 1 2 3 4 5 6 
#
# 1 52.8937 36.4374 26.3477 0.0000 0.0000 0.0000
# 2 36.4374 132.6901 46.9748 0.0000 0.0000 0.0000
# 3 26.3477 46.9748 159.1613 0.0000 0.0000 0.0000
# 4 0.0000 0.0000 0.0000 -23.2842 0.0000 0.0000
# 5 0.0000 0.0000 0.0000 0.0000 -10.3653 0.0000
# 6 0.0000 0.0000 0.0000 0.0000 0.0000 26.8914
#
#
#
# Elastic Compliance Matrix: (Units=1/GPa)
#
#
# Indices 1 2 3 4 5 6 
#
# 1 0.024027 -0.005795 -0.002267 0.000000 0.000000 0.000000
# 2 -0.005795 0.009814 -0.001937 0.000000 0.000000 0.000000
# 3 -0.002267 -0.001937 0.007230 0.000000 0.000000 0.000000
# 4 0.000000 0.000000 0.000000 -0.042948 0.000000 0.000000
# 5 0.000000 0.000000 0.000000 0.000000 -0.096476 0.000000
# 6 0.000000 0.000000 0.000000 0.000000 0.000000 0.037187
#
#
# Mechanical properties :
#
#
# Convention : Reuss Voigt Hill
#
# Bulk Modulus (GPa) = 47.45655 62.69609 55.07632
# Shear Modulus (GPa) = -146.44391 14.31407 -66.06492
#
# Velocity S-wave (km/s) = -8.18745 2.55973 -5.49919
# Velocity P-wave (km/s) = 8.22532 6.11844 3.88720
#
# Compressibility (1/GPa) = 0.02107191
#
# Stress axis : x y z
#
# Youngs Moduli (GPa) = 41.61898 101.89985 138.31447
#
# Poissons Ratio (x) = 0.59056 0.31357
# Poissons Ratio (y) = 0.24120 0.26791
# Poissons Ratio (z) = 0.09435 0.19738
#
# Static dielectric constant tensor:
#      x y z
#    x 3.895680 0.000000 0.000000 
#    y 0.000000 4.080360 0.000000 
#    z 0.000000 0.000000 4.100130 
# 
# 
# High freq. dielectric constant tensor:
#      x y z
#    x 1.842070 0.000000 0.000000 
#    y 0.000000 1.870250 0.000000 
#    z 0.000000 0.000000 1.864080 
# 
# From -- ./inp_files/40328.got.cif
#   From: 2010.03.12/outbox.cif.g09.slc.cpg/sg65_21_cif.got.tgz:40328.got - 2010.04.10 20:52:16.
