data_PCOD8269184
_publ_section_title
;
Structure prediction by ZEFSAII (Michael W. Deem and Ramdas Pophale) SiO2 
 PCOD8269184
Probable space group: C M M M
;
_chemical_formula_sum "Si O2"
_cell_formula_units_Z 88
_cell_length_a 9.100877
_cell_length_b 16.279388
_cell_length_c 29.964479
_cell_angle_alpha 90.000000
_cell_angle_beta 90.000000
_cell_angle_gamma 90.000000
_cell_volume 4439.438560
_symmetry_space_group_name_H-M "C M M M"
_symmetry_group_IT_number 65
_symmetry_cell_setting 'orthorhombic'
loop_
_space_group_symop_operation_xyz
x,y,z
-x,-y,z
x,-y,-z
-x,y,-z
-x,-y,-z
x,y,-z
-x,y,z
x,-y,z
1/2+x,1/2+y,z
1/2-x,1/2-y,z
1/2+x,1/2-y,-z
1/2-x,1/2+y,-z
1/2-x,1/2-y,-z
1/2+x,1/2+y,-z
1/2-x,1/2+y,z
1/2+x,1/2-y,z
loop_
_atom_site_type_symbol
_atom_site_label
_atom_site_fract_x
_atom_site_fract_y
_atom_site_fract_z
Si Si1 0.661539 0.595705 0.451229
Si Si2 0.325760 0.500000 0.949376
Si Si3 0.827884 0.665622 0.627925
Si Si4 0.173942 0.908945 0.808954
Si Si5 0.674309 0.334264 0.899736
Si Si6 0.664306 0.402612 0.711097
O O1 0.707551 0.632477 0.500000
O O2 0.500000 0.631447 0.437277
O O3 0.645318 0.500000 0.456530
O O4 0.784206 0.609960 0.413920
O O5 0.500000 0.500000 0.946396
O O6 0.269388 0.584648 0.926418
O O7 0.268372 0.500000 0.000000
O O8 0.750000 0.750000 0.618342
O O9 0.777673 0.629218 0.674942
O O10 0.000000 0.676362 0.629874
O O11 0.223966 0.847658 0.848219
O O12 0.220520 0.874001 0.760243
O O13 0.000000 0.918272 0.809889
O O14 0.241941 0.000000 0.817062
O O15 0.500000 0.323824 0.905190
O O16 0.750000 0.250000 0.917249
O O17 0.500000 0.368185 0.701130
O O18 0.659539 0.500000 0.709984
#
# Coordination Sequence:
#
# PCOD8269184 Si02
#       6
#    16   8  16  16  16  16
#     4   9  19  38  63  86 107 134 170 213 263 321
#     4   9  18  34  57  81 109 151 197 237 280 343
#     4  12  25  38  53  75 108 145 180 220 268 319
#     4   8  14  29  54  79 103 140 185 224 266 327
#     4  10  19  33  55  82 112 146 190 238 285 340
#     4   9  18  34  57  81 106 139 179 220 267 324
#
# _framework density 19.822324999999999
#
# number of rings (size 3 to 8) (size 9 to 14) (size 15 to 20)
#    0.000    2.455    0.909    3.818    0.000    4.727 
#    0.000    4.091    0.000    1.636    0.000    0.000 
#    0.000    0.000    0.000    0.000    0.000    0.000 
#
# Total GULP energy -545240.902954 kJ/mol
# GULP energy per Si atom -12391.838704 kJ/mol
# Density = 1.977721 g / cm^3
# Si number density = 19.822325 Si / 1000 Ang^3
#
#
#
# Elastic Constant Matrix: (Units=GPa)
#
#
# Indices 1 2 3 4 5 6 
#
# 1 83.1046 30.4738 34.0448 0.0000 0.0000 0.0000
# 2 30.4738 92.6227 42.4748 0.0000 0.0000 0.0000
# 3 34.0448 42.4748 97.7587 0.0000 0.0000 0.0000
# 4 0.0000 0.0000 0.0000 1.9953 0.0000 0.0000
# 5 0.0000 0.0000 0.0000 0.0000 1.3587 0.0000
# 6 0.0000 0.0000 0.0000 0.0000 0.0000 34.3897
#
#
#
# Elastic Compliance Matrix: (Units=1/GPa)
#
#
# Indices 1 2 3 4 5 6 
#
# 1 0.014720 -0.003112 -0.003774 0.000000 0.000000 0.000000
# 2 -0.003112 0.014141 -0.005060 0.000000 0.000000 0.000000
# 3 -0.003774 -0.005060 0.013742 0.000000 0.000000 0.000000
# 4 0.000000 0.000000 0.000000 0.501170 0.000000 0.000000
# 5 0.000000 0.000000 0.000000 0.000000 0.735983 0.000000
# 6 0.000000 0.000000 0.000000 0.000000 0.000000 0.029079
#
#
# Mechanical properties :
#
#
# Convention : Reuss Voigt Hill
#
# Bulk Modulus (GPa) = 53.44680 54.16362 53.80521
# Shear Modulus (GPa) = 3.73422 18.64825 11.19124
#
# Velocity S-wave (km/s) = 1.37402 3.07053 2.37866
# Velocity P-wave (km/s) = 5.43495 6.32097 5.89463
#
# Compressibility (1/GPa) = 0.01871019
#
# Stress axis : x y z
#
# Youngs Moduli (GPa) = 67.93276 70.71637 72.76859
#
# Poissons Ratio (x) = 0.22010 0.27464
# Poissons Ratio (y) = 0.21144 0.36822
# Poissons Ratio (z) = 0.25639 0.35784
#
# Static dielectric constant tensor:
#      x y z
#    x 2.077300 0.000000 0.000000 
#    y 0.000000 3.570240 0.000000 
#    z 0.000000 0.000000 1.705630 
# 
# 
# High freq. dielectric constant tensor:
#      x y z
#    x 1.730950 0.000000 0.000000 
#    y 0.000000 1.764670 0.000000 
#    z 0.000000 0.000000 1.787840 
# 
# From -- ./inp_files/76663.got.cif
#   From: 2010.03.12/outbox.cif.g09.slc.cpg/sg65_39_cif.got.tgz:76663.got - 2010.04.10 20:52:16.
