data_PCOD8269776
_publ_section_title
;
Structure prediction by ZEFSAII (Michael W. Deem and Ramdas Pophale) SiO2 
 PCOD8269776
Probable space group: C M M M
;
_chemical_formula_sum "Si O2"
_cell_formula_units_Z 96
_cell_length_a 33.003326
_cell_length_b 18.888820
_cell_length_c 9.059848
_cell_angle_alpha 90.000000
_cell_angle_beta 90.000000
_cell_angle_gamma 90.000000
_cell_volume 5647.853835
_symmetry_space_group_name_H-M "C M M M"
_symmetry_group_IT_number 65
_symmetry_cell_setting 'orthorhombic'
loop_
_space_group_symop_operation_xyz
x,y,z
-x,-y,z
x,-y,-z
-x,y,-z
-x,-y,-z
x,y,-z
-x,y,z
x,-y,z
1/2+x,1/2+y,z
1/2-x,1/2-y,z
1/2+x,1/2-y,-z
1/2-x,1/2+y,-z
1/2-x,1/2-y,-z
1/2+x,1/2+y,-z
1/2-x,1/2+y,z
1/2+x,1/2-y,z
loop_
_atom_site_type_symbol
_atom_site_label
_atom_site_fract_x
_atom_site_fract_y
_atom_site_fract_z
Si Si1 0.669584 0.152482 0.327098
Si Si2 0.911801 0.577456 0.325625
Si Si3 0.757205 0.419123 0.826829
Si Si4 0.955216 0.284699 0.676436
Si Si5 0.173692 0.079940 0.326529
Si Si6 0.123006 0.209775 0.325552
O O1 0.679918 0.149623 0.500000
O O2 0.634273 0.097300 0.285384
O O3 0.709330 0.133415 0.236326
O O4 0.655302 0.230617 0.276828
O O5 0.916337 0.574540 0.500000
O O6 0.921894 0.500000 0.257146
O O7 0.942619 0.637087 0.264704
O O8 0.768404 0.500000 0.786080
O O9 0.714506 0.398376 0.755722
O O10 0.753639 0.407905 0.000000
O O11 0.955207 0.285068 0.500000
O O12 0.922129 0.227735 0.736622
O O13 0.000000 0.265642 0.737388
O O14 0.181620 0.088629 0.500000
O O15 0.138059 0.132760 0.271486
O O16 0.160187 0.000000 0.286800
O O17 0.119727 0.212255 0.500000
#
# Coordination Sequence:
#
# PCOD8269776 Si02
#       6
#    16  16  16  16  16  16
#     4   9  16  27  43  60  82 114 147 175 204 241
#     4   8  13  20  32  53  79 108 143 174 195 227
#     4  10  20  31  42  60  87 113 139 175 212 243
#     4   8  13  21  34  54  82 112 134 159 205 253
#     4   9  17  30  47  62  78 107 144 175 206 249
#     4   8  15  27  42  61  82 106 140 176 206 244
#
# _framework density 16.997606999999999
#
# number of rings (size 3 to 8) (size 9 to 14) (size 15 to 20)
#    0.000    3.333    0.000    3.000    0.000    2.667 
#    0.000    5.833    0.000    0.500    0.000    3.500 
#    0.000   16.667    0.000   40.833    0.000   35.000 
#
# Total GULP energy -594818.884397 kJ/mol
# GULP energy per Si atom -12392.060092 kJ/mol
# Density = 1.695892 g / cm^3
# Si number density = 16.997607 Si / 1000 Ang^3
#
#
#
# Elastic Constant Matrix: (Units=GPa)
#
#
# Indices 1 2 3 4 5 6 
#
# 1 147.2836 92.0192 26.5760 0.0000 0.0000 0.0000
# 2 92.0192 115.2478 18.3754 0.0000 0.0000 0.0000
# 3 26.5760 18.3754 22.1612 0.0000 0.0000 0.0000
# 4 0.0000 0.0000 0.0000 9.4311 0.0000 0.0000
# 5 0.0000 0.0000 0.0000 0.0000 -2.0226 0.0000
# 6 0.0000 0.0000 0.0000 0.0000 0.0000 19.2958
#
#
#
# Elastic Compliance Matrix: (Units=1/GPa)
#
#
# Indices 1 2 3 4 5 6 
#
# 1 0.015051 -0.010532 -0.009316 0.000000 0.000000 0.000000
# 2 -0.010532 0.017368 -0.001772 0.000000 0.000000 0.000000
# 3 -0.009316 -0.001772 0.057765 0.000000 0.000000 0.000000
# 4 0.000000 0.000000 0.000000 0.106032 0.000000 0.000000
# 5 0.000000 0.000000 0.000000 0.000000 -0.494406 0.000000
# 6 0.000000 0.000000 0.000000 0.000000 0.000000 0.051825
#
#
# Mechanical properties :
#
#
# Convention : Reuss Voigt Hill
#
# Bulk Modulus (GPa) = 21.30155 62.07042 41.68598
# Shear Modulus (GPa) = -26.67002 15.18898 -5.74052
#
# Velocity S-wave (km/s) = -3.96541 2.99255 -1.83972
# Velocity P-wave (km/s) = 2.89944 6.96684 4.47941
#
# Compressibility (1/GPa) = 0.04694495
#
# Stress axis : x y z
#
# Youngs Moduli (GPa) = 66.44244 57.57582 17.31145
#
# Poissons Ratio (x) = 0.60637 0.16128
# Poissons Ratio (y) = 0.69975 0.03067
# Poissons Ratio (z) = 0.61900 0.10200
#
# Static dielectric constant tensor:
#      x y z
#    x 3.363790 0.000000 0.000000 
#    y 0.000000 3.548730 0.000000 
#    z 0.000000 0.000000 2.650830 
# 
# 
# High freq. dielectric constant tensor:
#      x y z
#    x 1.650440 0.000000 0.000000 
#    y 0.000000 1.652410 0.000000 
#    z 0.000000 0.000000 1.599730 
# 
# From -- ./inp_files/16331.got.cif
#   From: 2010.03.12/outbox.cif.g09.slc.cpg/sg65_9_cif.got.tgz:16331.got - 2010.04.10 20:52:16.
