data_PCOD8269393
_publ_section_title
;
Structure prediction by ZEFSAII (Michael W. Deem and Ramdas Pophale) SiO2 
 PCOD8269393
Probable space group: C M M M
;
_chemical_formula_sum "Si O2"
_cell_formula_units_Z 104
_cell_length_a 27.244702
_cell_length_b 16.871273
_cell_length_c 11.998513
_cell_angle_alpha 90.000000
_cell_angle_beta 90.000000
_cell_angle_gamma 90.000000
_cell_volume 5515.150159
_symmetry_space_group_name_H-M "C M M M"
_symmetry_group_IT_number 65
_symmetry_cell_setting 'orthorhombic'
loop_
_space_group_symop_operation_xyz
x,y,z
-x,-y,z
x,-y,-z
-x,y,-z
-x,-y,-z
x,y,-z
-x,y,z
x,-y,z
1/2+x,1/2+y,z
1/2-x,1/2-y,z
1/2+x,1/2-y,-z
1/2-x,1/2+y,-z
1/2-x,1/2-y,-z
1/2+x,1/2+y,-z
1/2-x,1/2+y,z
1/2+x,1/2-y,z
loop_
_atom_site_type_symbol
_atom_site_label
_atom_site_fract_x
_atom_site_fract_y
_atom_site_fract_z
Si Si1 0.692508 0.632301 0.256930
Si Si2 0.441781 0.590938 0.500000
Si Si3 0.791715 0.407306 0.128418
Si Si4 0.099367 0.911650 0.124276
Si Si5 0.209572 0.861703 0.500000
Si Si6 0.055638 0.803856 0.291715
Si Si7 0.683837 0.178067 0.500000
Si Si8 0.646386 0.199748 0.728775
O O1 0.745338 0.616831 0.203390
O O2 0.651345 0.587687 0.186852
O O3 0.689526 0.599649 0.385062
O O4 0.683064 0.726229 0.255909
O O5 0.420866 0.500000 0.500000
O O6 0.500000 0.585753 0.500000
O O7 0.423674 0.641492 0.393133
O O8 0.802099 0.500000 0.139250
O O9 0.840346 0.361719 0.172899
O O10 0.782083 0.383420 0.000000
O O11 0.058240 0.857837 0.181985
O O12 0.078189 0.000000 0.122759
O O13 0.108155 0.879226 0.000000
O O14 0.267687 0.874653 0.500000
O O15 0.195912 0.770250 0.500000
O O16 0.089636 0.727538 0.270007
O O17 0.000000 0.775482 0.313238
O O18 0.653440 0.156366 0.610368
#
# Coordination Sequence:
#
# PCOD8269393 Si02
#       8
#    16   8  16  16   8  16   8  16
#     4  10  19  34  55  81 108 142 178 217 265 330
#     4   9  17  32  56  86 117 145 176 216 270 336
#     4  11  23  37  53  75 107 143 179 226 284 342
#     4  10  21  35  50  72 108 150 187 223 266 317
#     4   9  16  28  52  79 110 137 168 208 256 312
#     4  10  21  36  56  82 109 142 185 234 278 321
#     4   9  15  30  51  77 107 136 165 208 260 308
#     4  10  20  34  56  79 106 142 180 224 273 329
#
# _framework density 18.857147000000001
#
# number of rings (size 3 to 8) (size 9 to 14) (size 15 to 20)
#    0.000    2.077    1.538    2.308    0.000    8.000 
#    0.000    4.231    0.000    0.462    0.000    1.077 
#    0.000    3.077    0.000    0.000    0.000    0.000 
#
# Total GULP energy -644580.414936 kJ/mol
# GULP energy per Si atom -12395.777210 kJ/mol
# Density = 1.881423 g / cm^3
# Si number density = 18.857147 Si / 1000 Ang^3
#
#
#
# Elastic Constant Matrix: (Units=GPa)
#
#
# Indices 1 2 3 4 5 6 
#
# 1 88.6086 26.1565 33.5860 0.0000 0.0000 0.0000
# 2 26.1565 51.7028 31.8933 0.0000 0.0000 0.0000
# 3 33.5860 31.8933 151.1929 0.0000 0.0000 0.0000
# 4 0.0000 0.0000 0.0000 23.6324 0.0000 0.0000
# 5 0.0000 0.0000 0.0000 0.0000 23.2295 0.0000
# 6 0.0000 0.0000 0.0000 0.0000 0.0000 12.9634
#
#
#
# Elastic Compliance Matrix: (Units=1/GPa)
#
#
# Indices 1 2 3 4 5 6 
#
# 1 0.013687 -0.005804 -0.001816 0.000000 0.000000 0.000000
# 2 -0.005804 0.024696 -0.003920 0.000000 0.000000 0.000000
# 3 -0.001816 -0.003920 0.007844 0.000000 0.000000 0.000000
# 4 0.000000 0.000000 0.000000 0.042315 0.000000 0.000000
# 5 0.000000 0.000000 0.000000 0.000000 0.043049 0.000000
# 6 0.000000 0.000000 0.000000 0.000000 0.000000 0.077140
#
#
# Mechanical properties :
#
#
# Convention : Reuss Voigt Hill
#
# Bulk Modulus (GPa) = 43.20257 52.75286 47.97772
# Shear Modulus (GPa) = 20.87442 25.28962 23.08202
#
# Velocity S-wave (km/s) = 3.33074 3.66610 3.50243
# Velocity P-wave (km/s) = 6.14426 6.77909 6.46947
#
# Compressibility (1/GPa) = 0.02314677
#
# Stress axis : x y z
#
# Youngs Moduli (GPa) = 73.06042 40.49277 127.47890
#
# Poissons Ratio (x) = 0.23502 0.23152
# Poissons Ratio (y) = 0.42405 0.49973
# Poissons Ratio (z) = 0.13269 0.15874
#
# Static dielectric constant tensor:
#      x y z
#    x 3.219300 0.000000 0.000000 
#    y 0.000000 3.174230 0.000000 
#    z 0.000000 0.000000 3.863350 
# 
# 
# High freq. dielectric constant tensor:
#      x y z
#    x 1.711600 0.000000 0.000000 
#    y 0.000000 1.694120 0.000000 
#    z 0.000000 0.000000 1.754270 
# 
# From -- ./inp_files/32594.got.cif
#   From: 2010.03.12/outbox.cif.g09.slc.cpg/sg65_17_cif.got.tgz:32594.got - 2010.04.10 20:52:16.
