data_PCOD8269997
_publ_section_title
;
Structure prediction by ZEFSAII (Michael W. Deem and Ramdas Pophale) SiO2 
 PCOD8269997
Probable space group: C M M M
;
_chemical_formula_sum "Si O2"
_cell_formula_units_Z 80
_cell_length_a 25.431121
_cell_length_b 19.544504
_cell_length_c 9.416413
_cell_angle_alpha 90.000000
_cell_angle_beta 90.000000
_cell_angle_gamma 90.000000
_cell_volume 4680.321169
_symmetry_space_group_name_H-M "C M M M"
_symmetry_group_IT_number 65
_symmetry_cell_setting 'orthorhombic'
loop_
_space_group_symop_operation_xyz
x,y,z
-x,-y,z
x,-y,-z
-x,y,-z
-x,-y,-z
x,y,-z
-x,y,z
x,-y,z
1/2+x,1/2+y,z
1/2-x,1/2-y,z
1/2+x,1/2-y,-z
1/2-x,1/2+y,-z
1/2-x,1/2-y,-z
1/2+x,1/2+y,-z
1/2-x,1/2+y,z
1/2+x,1/2-y,z
loop_
_atom_site_type_symbol
_atom_site_label
_atom_site_fract_x
_atom_site_fract_y
_atom_site_fract_z
Si Si1 0.356229 0.576466 0.830629
Si Si2 0.857394 0.418936 0.337377
Si Si3 0.938568 0.664472 0.837348
Si Si4 0.941716 0.818735 0.831207
Si Si5 0.759694 0.418723 0.157860
O O1 0.367436 0.500000 0.771654
O O2 0.399702 0.627956 0.766227
O O3 0.298132 0.602636 0.784586
O O4 0.358589 0.575122 0.000000
O O5 0.855886 0.395529 0.500000
O O6 0.861521 0.500000 0.322402
O O7 0.908108 0.387510 0.262828
O O8 0.804356 0.390546 0.263203
O O9 0.925954 0.741826 0.787315
O O10 0.000000 0.648936 0.820918
O O11 0.920824 0.653203 0.000000
O O12 0.000000 0.836832 0.772586
O O13 0.942632 0.823606 0.000000
O O14 0.761492 0.500000 0.149603
O O15 0.769728 0.388357 0.000000
#
# Coordination Sequence:
#
# PCOD8269997 Si02
#       5
#    16  16  16  16  16
#     4   8  13  22  40  67  94 119 149 183 217 254
#     4  10  20  32  47  67  88 111 144 187 230 268
#     4   9  18  32  48  65  88 120 152 179 214 264
#     4   8  14  25  41  63  92 122 150 181 217 258
#     4   8  14  26  44  65  90 119 148 178 215 261
#
# _framework density 17.092843999999999
#
# number of rings (size 3 to 8) (size 9 to 14) (size 15 to 20)
#    0.000    3.400    0.000    3.000    0.000    2.400 
#    0.000    5.000    0.000    7.200    0.000    0.000 
#    0.000    0.000    0.000   12.200    0.000   12.400 
#
# Total GULP energy -495765.657799 kJ/mol
# GULP energy per Si atom -12394.141445 kJ/mol
# Density = 1.705394 g / cm^3
# Si number density = 17.092844 Si / 1000 Ang^3
#
#
#
# Elastic Constant Matrix: (Units=GPa)
#
#
# Indices 1 2 3 4 5 6 
#
# 1 117.6539 48.9680 53.5682 0.0000 0.0000 0.0000
# 2 48.9680 46.0911 32.1370 0.0000 0.0000 0.0000
# 3 53.5682 32.1370 67.6771 0.0000 0.0000 0.0000
# 4 0.0000 0.0000 0.0000 9.7702 0.0000 0.0000
# 5 0.0000 0.0000 0.0000 0.0000 2.6857 0.0000
# 6 0.0000 0.0000 0.0000 0.0000 0.0000 14.0961
#
#
#
# Elastic Compliance Matrix: (Units=1/GPa)
#
#
# Indices 1 2 3 4 5 6 
#
# 1 0.017454 -0.013321 -0.007490 0.000000 0.000000 0.000000
# 2 -0.013321 0.042602 -0.009686 0.000000 0.000000 0.000000
# 3 -0.007490 -0.009686 0.025304 0.000000 0.000000 0.000000
# 4 0.000000 0.000000 0.000000 0.102352 0.000000 0.000000
# 5 0.000000 0.000000 0.000000 0.000000 0.372337 0.000000
# 6 0.000000 0.000000 0.000000 0.000000 0.000000 0.070941
#
#
# Mechanical properties :
#
#
# Convention : Reuss Voigt Hill
#
# Bulk Modulus (GPa) = 41.03996 55.64094 48.34045
# Shear Modulus (GPa) = 7.14178 11.76034 9.45106
#
# Velocity S-wave (km/s) = 2.04629 2.62587 2.35399
# Velocity P-wave (km/s) = 5.44474 6.46657 5.97753
#
# Compressibility (1/GPa) = 0.02436650
#
# Stress axis : x y z
#
# Youngs Moduli (GPa) = 57.29399 23.47287 39.52000
#
# Poissons Ratio (x) = 0.31269 0.29599
# Poissons Ratio (y) = 0.76322 0.38279
# Poissons Ratio (z) = 0.42910 0.22736
#
# Static dielectric constant tensor:
#      x y z
#    x 3.532880 0.000000 0.000000 
#    y 0.000000 3.111280 0.000000 
#    z 0.000000 0.000000 2.865350 
# 
# 
# High freq. dielectric constant tensor:
#      x y z
#    x 1.672770 0.000000 0.000000 
#    y 0.000000 1.637150 0.000000 
#    z 0.000000 0.000000 1.612470 
# 
# From -- ./inp_files/9595.got.cif
#   From: 2010.03.12/outbox.cif.g09.slc.cpg/sg65_5_cif.got.tgz:9595.got - 2010.04.10 20:52:16.
