data_PCOD8270333
_publ_section_title
;
Structure prediction by ZEFSAII (Michael W. Deem and Ramdas Pophale) SiO2 
 PCOD8270333
Probable space group: C M M M
;
_chemical_formula_sum "Si O2"
_cell_formula_units_Z 80
_cell_length_a 18.803771
_cell_length_b 7.981940
_cell_length_c 27.832167
_cell_angle_alpha 90.000000
_cell_angle_beta 90.000000
_cell_angle_gamma 90.000000
_cell_volume 4177.345862
_symmetry_space_group_name_H-M "C M M M"
_symmetry_group_IT_number 65
_symmetry_cell_setting 'orthorhombic'
loop_
_space_group_symop_operation_xyz
x,y,z
-x,-y,z
x,-y,-z
-x,y,-z
-x,-y,-z
x,y,-z
-x,y,z
x,-y,z
1/2+x,1/2+y,z
1/2-x,1/2-y,z
1/2+x,1/2-y,-z
1/2-x,1/2+y,-z
1/2-x,1/2-y,-z
1/2+x,1/2+y,-z
1/2-x,1/2+y,z
1/2+x,1/2-y,z
loop_
_atom_site_type_symbol
_atom_site_label
_atom_site_fract_x
_atom_site_fract_y
_atom_site_fract_z
Si Si1 0.915301 0.812473 0.115658
Si Si2 0.830931 0.801915 0.689461
Si Si3 0.579648 0.695642 0.399016
Si Si4 0.084828 0.500000 0.945596
Si Si5 0.421102 0.697755 0.777445
Si Si6 0.581409 0.804173 0.500000
O O1 0.885736 0.669569 0.079717
O O2 0.890941 0.760659 0.169435
O O3 0.000000 0.817963 0.114336
O O4 0.886714 0.000000 0.101794
O O5 0.750000 0.750000 0.688099
O O6 0.871172 0.726219 0.642796
O O7 0.868103 0.726948 0.737372
O O8 0.836661 0.000000 0.689546
O O9 0.500000 0.775495 0.396221
O O10 0.573809 0.500000 0.390828
O O11 0.616001 0.732839 0.450951
O O12 0.000000 0.500000 0.943607
O O13 0.112977 0.500000 0.000000
O O14 0.500000 0.776046 0.770321
O O15 0.427090 0.500000 0.771560
O O16 0.500000 0.743722 0.500000
O O17 0.590725 0.000000 0.500000
#
# Coordination Sequence:
#
# PCOD8270333 Si02
#       6
#    16  16  16   8  16   8
#     4   8  14  25  41  61  87 122 162 200 238 284
#     4  10  20  33  48  69  98 126 152 194 242 289
#     4   9  17  31  52  73  92 121 162 197 229 278
#     4   9  16  24  36  60  96 130 158 193 240 294
#     4   8  14  28  50  69  87 121 164 199 232 278
#     4   9  17  29  48  73  98 119 145 195 246 281
#
# _framework density 19.150917
#
# number of rings (size 3 to 8) (size 9 to 14) (size 15 to 20)
#    0.000    3.200    0.000    2.100    0.000    4.800 
#    1.800    2.500    0.000    1.200    0.000    0.000 
#    0.000    0.800    0.400    0.000    0.000    0.000 
#
# Total GULP energy -495667.049326 kJ/mol
# GULP energy per Si atom -12391.676233 kJ/mol
# Density = 1.910733 g / cm^3
# Si number density = 19.150917 Si / 1000 Ang^3
#
#
#
# Elastic Constant Matrix: (Units=GPa)
#
#
# Indices 1 2 3 4 5 6 
#
# 1 67.5135 16.4936 59.9006 0.0000 0.0000 0.0000
# 2 16.4936 61.1480 59.2121 0.0000 0.0000 0.0000
# 3 59.9006 59.2121 199.7997 0.0000 0.0000 0.0000
# 4 0.0000 0.0000 0.0000 20.0952 0.0000 0.0000
# 5 0.0000 0.0000 0.0000 0.0000 5.8229 0.0000
# 6 0.0000 0.0000 0.0000 0.0000 0.0000 14.7798
#
#
#
# Elastic Compliance Matrix: (Units=1/GPa)
#
#
# Indices 1 2 3 4 5 6 
#
# 1 0.020194 0.000583 -0.006227 0.000000 0.000000 0.000000
# 2 0.000583 0.022953 -0.006977 0.000000 0.000000 0.000000
# 3 -0.006227 -0.006977 0.008940 0.000000 0.000000 0.000000
# 4 0.000000 0.000000 0.000000 0.049763 0.000000 0.000000
# 5 0.000000 0.000000 0.000000 0.000000 0.171736 0.000000
# 6 0.000000 0.000000 0.000000 0.000000 0.000000 0.067660
#
#
# Mechanical properties :
#
#
# Convention : Reuss Voigt Hill
#
# Bulk Modulus (GPa) = 37.25192 66.63042 51.94117
# Shear Modulus (GPa) = 13.31785 20.99657 17.15721
#
# Velocity S-wave (km/s) = 2.63993 3.31475 2.99640
# Velocity P-wave (km/s) = 5.36529 7.03689 6.25716
#
# Compressibility (1/GPa) = 0.02684426
#
# Stress axis : x y z
#
# Youngs Moduli (GPa) = 49.51874 43.56815 111.86224
#
# Poissons Ratio (x) = -0.02539 0.69657
# Poissons Ratio (y) = -0.02886 0.78045
# Poissons Ratio (z) = 0.30836 0.30397
#
# Static dielectric constant tensor:
#      x y z
#    x 5.104570 0.000000 0.000000 
#    y 0.000000 3.376640 0.000000 
#    z 0.000000 0.000000 3.940970 
# 
# 
# High freq. dielectric constant tensor:
#      x y z
#    x 1.681040 0.000000 0.000000 
#    y 0.000000 1.727660 0.000000 
#    z 0.000000 0.000000 1.759120 
# 
# From -- ./inp_files/70818.got.cif
#   From: 2010.03.12/outbox.cif.g09.slc.cpg/sg65_36_cif.got.tgz:70818.got - 2010.04.10 20:52:16.
