data_PCOD8270137
_publ_section_title
;
Structure prediction by ZEFSAII (Michael W. Deem and Ramdas Pophale) SiO2 
 PCOD8270137
Probable space group: C M M M
;
_chemical_formula_sum "Si O2"
_cell_formula_units_Z 88
_cell_length_a 19.724641
_cell_length_b 8.107191
_cell_length_c 29.512846
_cell_angle_alpha 90.000000
_cell_angle_beta 90.000000
_cell_angle_gamma 90.000000
_cell_volume 4719.441466
_symmetry_space_group_name_H-M "C M M M"
_symmetry_group_IT_number 65
_symmetry_cell_setting 'orthorhombic'
loop_
_space_group_symop_operation_xyz
x,y,z
-x,-y,z
x,-y,-z
-x,y,-z
-x,-y,-z
x,y,-z
-x,y,z
x,-y,z
1/2+x,1/2+y,z
1/2-x,1/2-y,z
1/2+x,1/2-y,-z
1/2-x,1/2+y,-z
1/2-x,1/2-y,-z
1/2+x,1/2+y,-z
1/2-x,1/2+y,z
1/2+x,1/2-y,z
loop_
_atom_site_type_symbol
_atom_site_label
_atom_site_fract_x
_atom_site_fract_y
_atom_site_fract_z
Si Si1 0.679662 0.687808 0.785651
Si Si2 0.422751 0.811599 0.857030
Si Si3 0.079086 0.687630 0.609472
Si Si4 0.080274 0.187841 0.048913
Si Si5 0.675836 0.304007 0.684876
Si Si6 0.419695 0.500000 0.449399
O O1 0.690326 0.500000 0.775111
O O2 0.750000 0.750000 0.807525
O O3 0.618840 0.710199 0.820521
O O4 0.665442 0.766185 0.736213
O O5 0.500000 0.746513 0.855566
O O6 0.392274 0.789691 0.907908
O O7 0.417881 0.000000 0.842896
O O8 0.091527 0.500000 0.590631
O O9 0.119344 0.710178 0.656001
O O10 0.104896 0.830206 0.574820
O O11 0.000000 0.713662 0.620110
O O12 0.000000 0.202578 0.047372
O O13 0.103284 0.000000 0.055628
O O14 0.108509 0.253832 0.000000
O O15 0.665804 0.500000 0.680227
O O16 0.750000 0.250000 0.667349
O O17 0.500000 0.500000 0.451660
O O18 0.388761 0.500000 0.500000
#
# Coordination Sequence:
#
# PCOD8270137 Si02
#       6
#    16  16  16  16  16   8
#     4  10  21  36  54  74 101 136 175 215 257 313
#     4  10  20  32  48  73 104 135 168 210 258 305
#     4  10  20  34  55  84 114 145 183 226 270 316
#     4   8  14  26  45  68  94 125 163 206 251 304
#     4  10  20  35  55  79 105 139 180 221 267 320
#     4   9  18  34  56  82 114 148 183 225 268 318
#
# _framework density 18.646273000000001
#
# number of rings (size 3 to 8) (size 9 to 14) (size 15 to 20)
#    0.000    2.455    0.909    2.182    0.000    4.727 
#    0.000    7.273    0.000    1.091    0.000    0.000 
#    0.000    0.000    0.000    0.000    0.000    0.000 
#
# Total GULP energy -545283.682497 kJ/mol
# GULP energy per Si atom -12392.810966 kJ/mol
# Density = 1.860383 g / cm^3
# Si number density = 18.646273 Si / 1000 Ang^3
#
#
#
# Elastic Constant Matrix: (Units=GPa)
#
#
# Indices 1 2 3 4 5 6 
#
# 1 58.7360 25.8401 49.4331 0.0000 0.0000 0.0000
# 2 25.8401 87.4754 41.7993 0.0000 0.0000 0.0000
# 3 49.4331 41.7993 122.3190 0.0000 0.0000 0.0000
# 4 0.0000 0.0000 0.0000 23.5329 0.0000 0.0000
# 5 0.0000 0.0000 0.0000 0.0000 2.8805 0.0000
# 6 0.0000 0.0000 0.0000 0.0000 0.0000 24.4573
#
#
#
# Elastic Compliance Matrix: (Units=1/GPa)
#
#
# Indices 1 2 3 4 5 6 
#
# 1 0.026550 -0.003246 -0.009621 0.000000 0.000000 0.000000
# 2 -0.003246 0.014060 -0.003493 0.000000 0.000000 0.000000
# 3 -0.009621 -0.003493 0.013257 0.000000 0.000000 0.000000
# 4 0.000000 0.000000 0.000000 0.042494 0.000000 0.000000
# 5 0.000000 0.000000 0.000000 0.000000 0.347168 0.000000
# 6 0.000000 0.000000 0.000000 0.000000 0.000000 0.040888
#
#
# Mechanical properties :
#
#
# Convention : Reuss Voigt Hill
#
# Bulk Modulus (GPa) = 47.28508 55.85281 51.56895
# Shear Modulus (GPa) = 9.53865 20.27133 14.90499
#
# Velocity S-wave (km/s) = 2.26422 3.30078 2.83035
# Velocity P-wave (km/s) = 5.67888 6.67426 6.19659
#
# Compressibility (1/GPa) = 0.02114832
#
# Stress axis : x y z
#
# Youngs Moduli (GPa) = 37.66463 71.12602 75.43238
#
# Poissons Ratio (x) = 0.23086 0.72571
# Poissons Ratio (y) = 0.12225 0.26347
# Poissons Ratio (z) = 0.36236 0.24843
#
# Static dielectric constant tensor:
#      x y z
#    x 3.052520 0.000000 0.000000 
#    y 0.000000 3.515750 0.000000 
#    z 0.000000 0.000000 4.580340 
# 
# 
# High freq. dielectric constant tensor:
#      x y z
#    x 1.683250 0.000000 0.000000 
#    y 0.000000 1.731250 0.000000 
#    z 0.000000 0.000000 1.725530 
# 
# From -- ./inp_files/77785.got.cif
#   From: 2010.03.12/outbox.cif.g09.slc.cpg/sg65_39_cif.got.tgz:77785.got - 2010.04.10 20:52:16.
