data_PCOD8270464
_publ_section_title
;
Structure prediction by ZEFSAII (Michael W. Deem and Ramdas Pophale) SiO2 
 PCOD8270464
Probable space group: C M M M
;
_chemical_formula_sum "Si O2"
_cell_formula_units_Z 72
_cell_length_a 9.144002
_cell_length_b 20.150805
_cell_length_c 22.501996
_cell_angle_alpha 90.000000
_cell_angle_beta 90.000000
_cell_angle_gamma 90.000000
_cell_volume 4146.195308
_symmetry_space_group_name_H-M "C M M M"
_symmetry_group_IT_number 65
_symmetry_cell_setting 'orthorhombic'
loop_
_space_group_symop_operation_xyz
x,y,z
-x,-y,z
x,-y,-z
-x,y,-z
-x,-y,-z
x,y,-z
-x,y,z
x,-y,z
1/2+x,1/2+y,z
1/2-x,1/2-y,z
1/2+x,1/2-y,-z
1/2-x,1/2+y,-z
1/2-x,1/2-y,-z
1/2+x,1/2+y,-z
1/2-x,1/2+y,z
1/2+x,1/2-y,z
loop_
_atom_site_type_symbol
_atom_site_label
_atom_site_fract_x
_atom_site_fract_y
_atom_site_fract_z
Si Si1 0.659537 0.578594 0.500000
Si Si2 0.824881 0.074164 0.627579
Si Si3 0.832616 0.423573 0.931101
Si Si4 0.328535 0.316404 0.281518
Si Si5 0.828663 0.182977 0.854905
O O1 0.640133 0.500000 0.500000
O O2 0.500000 0.612768 0.500000
O O3 0.738605 0.597881 0.437435
O O4 0.767646 0.123269 0.678598
O O5 0.000000 0.074142 0.624308
O O6 0.768838 0.000000 0.643092
O O7 0.796468 0.500000 0.917094
O O8 0.724512 0.378994 0.892946
O O9 0.000000 0.407563 0.914185
O O10 0.805068 0.408169 0.000000
O O11 0.500000 0.306302 0.290248
O O12 0.250000 0.250000 0.303458
O O13 0.288970 0.332228 0.213421
O O14 0.750000 0.250000 0.876764
O O15 0.000000 0.192737 0.864548
#
# Coordination Sequence:
#
# PCOD8270464 Si02
#       5
#     8  16  16  16  16
#     4   7  10  18  35  60  87 113 144 185 228 266
#     4   8  13  23  41  64  88 115 150 190 228 266
#     4   9  19  36  55  74  98 126 153 186 232 281
#     4   9  18  31  46  65  92 123 151 186 230 272
#     4  10  20  33  50  71  95 126 162 197 234 277
#
# _framework density 17.365319
#
# number of rings (size 3 to 8) (size 9 to 14) (size 15 to 20)
#    0.000    3.222    0.000    2.667    0.000    3.111 
#    0.000    3.889    0.000    0.667    0.000    0.000 
#    0.000    2.667    0.000    0.000    0.000    0.000 
#
# Total GULP energy -446157.290136 kJ/mol
# GULP energy per Si atom -12393.258059 kJ/mol
# Density = 1.732579 g / cm^3
# Si number density = 17.365319 Si / 1000 Ang^3
#
#
#
# Elastic Constant Matrix: (Units=GPa)
#
#
# Indices 1 2 3 4 5 6 
#
# 1 43.7164 40.5659 36.1556 0.0000 0.0000 0.0000
# 2 40.5659 118.4679 77.0137 0.0000 0.0000 0.0000
# 3 36.1556 77.0137 97.4872 0.0000 0.0000 0.0000
# 4 0.0000 0.0000 0.0000 16.3545 0.0000 0.0000
# 5 0.0000 0.0000 0.0000 0.0000 11.5726 0.0000
# 6 0.0000 0.0000 0.0000 0.0000 0.0000 27.8924
#
#
#
# Elastic Compliance Matrix: (Units=1/GPa)
#
#
# Indices 1 2 3 4 5 6 
#
# 1 0.035962 -0.007491 -0.007420 0.000000 0.000000 0.000000
# 2 -0.007491 0.018913 -0.012163 0.000000 0.000000 0.000000
# 3 -0.007420 -0.012163 0.022618 0.000000 0.000000 0.000000
# 4 0.000000 0.000000 0.000000 0.061145 0.000000 0.000000
# 5 0.000000 0.000000 0.000000 0.000000 0.086411 0.000000
# 6 0.000000 0.000000 0.000000 0.000000 0.000000 0.035852
#
#
# Mechanical properties :
#
#
# Convention : Reuss Voigt Hill
#
# Bulk Modulus (GPa) = 42.83333 63.01575 52.92454
# Shear Modulus (GPa) = 15.48799 18.22632 16.85715
#
# Velocity S-wave (km/s) = 2.98970 3.24324 3.11904
# Velocity P-wave (km/s) = 6.05287 7.09872 6.59656
#
# Compressibility (1/GPa) = 0.02334630
#
# Stress axis : x y z
#
# Youngs Moduli (GPa) = 27.80697 52.87396 44.21217
#
# Poissons Ratio (x) = 0.39606 0.32806
# Poissons Ratio (y) = 0.20829 0.53775
# Poissons Ratio (z) = 0.20633 0.64310
#
# Static dielectric constant tensor:
#      x y z
#    x 2.869750 0.000000 0.000000 
#    y 0.000000 3.211840 0.000000 
#    z 0.000000 0.000000 3.495470 
# 
# 
# High freq. dielectric constant tensor:
#      x y z
#    x 1.633900 0.000000 0.000000 
#    y 0.000000 1.662180 0.000000 
#    z 0.000000 0.000000 1.680070 
# 
# From -- ./inp_files/59200.got.cif
#   From: 2010.03.12/outbox.cif.g09.slc.cpg/sg65_30_cif.got.tgz:59200.got - 2010.04.10 20:52:16.
