data_PCOD8270779
_publ_section_title
;
Structure prediction by ZEFSAII (Michael W. Deem and Ramdas Pophale) SiO2 
 PCOD8270779
Probable space group: C M M M
;
_chemical_formula_sum "Si O2"
_cell_formula_units_Z 104
_cell_length_a 18.681921
_cell_length_b 9.126050
_cell_length_c 32.790556
_cell_angle_alpha 90.000000
_cell_angle_beta 90.000000
_cell_angle_gamma 90.000000
_cell_volume 5590.532233
_symmetry_space_group_name_H-M "C M M M"
_symmetry_group_IT_number 65
_symmetry_cell_setting 'orthorhombic'
loop_
_space_group_symop_operation_xyz
x,y,z
-x,-y,z
x,-y,-z
-x,y,-z
-x,-y,-z
x,y,-z
-x,y,z
x,-y,z
1/2+x,1/2+y,z
1/2-x,1/2-y,z
1/2+x,1/2-y,-z
1/2-x,1/2+y,-z
1/2-x,1/2-y,-z
1/2+x,1/2+y,-z
1/2-x,1/2+y,z
1/2+x,1/2-y,z
loop_
_atom_site_type_symbol
_atom_site_label
_atom_site_fract_x
_atom_site_fract_y
_atom_site_fract_z
Si Si1 0.677066 0.327877 0.700367
Si Si2 0.417482 0.670146 0.154976
Si Si3 0.826337 0.172852 0.076469
Si Si4 0.321636 0.670095 0.393204
Si Si5 0.084399 0.664932 0.545606
Si Si6 0.081030 0.825966 0.000000
Si Si7 0.415485 0.166217 0.763974
O O1 0.684252 0.500000 0.708354
O O2 0.750000 0.250000 0.714004
O O3 0.659071 0.292070 0.653432
O O4 0.613433 0.261787 0.726793
O O5 0.500000 0.704536 0.143669
O O6 0.408313 0.500000 0.166008
O O7 0.367517 0.716574 0.117587
O O8 0.390627 0.764402 0.193300
O O9 0.750000 0.250000 0.074807
O O10 0.813828 0.000000 0.073414
O O11 0.875874 0.229717 0.039522
O O12 0.308845 0.500000 0.399361
O O13 0.250000 0.750000 0.407414
O O14 0.385601 0.721694 0.421794
O O15 0.111370 0.704630 0.500000
O O16 0.108701 0.500000 0.556817
O O17 0.000000 0.677789 0.547355
O O18 0.000000 0.761292 0.000000
O O19 0.076108 0.000000 0.000000
O O20 0.500000 0.171666 0.760403
O O21 0.386676 0.000000 0.761510
#
# Coordination Sequence:
#
# PCOD8270779 Si02
#       7
#    16  16  16  16  16   8  16
#     4  10  21  37  56  78 106 139 175 217 264 314
#     4   9  18  34  54  74  99 135 178 218 256 302
#     4  10  20  33  52  78 106 136 170 212 261 309
#     4  10  21  36  55  79 106 138 176 217 262 312
#     4   9  19  36  56  78 106 140 176 215 261 311
#     4   9  17  32  55  79 102 133 176 218 252 297
#     4  10  21  36  55  80 108 139 176 217 262 313
#
# _framework density 18.602879999999999
#
# number of rings (size 3 to 8) (size 9 to 14) (size 15 to 20)
#    0.000    2.385    0.000    2.538    0.000    7.385 
#    0.000    5.385    0.000    1.846    0.000    0.000 
#    0.000    0.000    0.000    0.000    0.000    0.000 
#
# Total GULP energy -644915.830211 kJ/mol
# GULP energy per Si atom -12402.227504 kJ/mol
# Density = 1.856054 g / cm^3
# Si number density = 18.602880 Si / 1000 Ang^3
#
#
#
# Elastic Constant Matrix: (Units=GPa)
#
#
# Indices 1 2 3 4 5 6 
#
# 1 85.5003 40.5609 61.1516 0.0000 0.0000 0.0000
# 2 40.5609 80.5532 57.8626 0.0000 0.0000 0.0000
# 3 61.1516 57.8626 120.0490 0.0000 0.0000 0.0000
# 4 0.0000 0.0000 0.0000 26.8840 0.0000 0.0000
# 5 0.0000 0.0000 0.0000 0.0000 28.0418 0.0000
# 6 0.0000 0.0000 0.0000 0.0000 0.0000 35.5111
#
#
#
# Elastic Compliance Matrix: (Units=1/GPa)
#
#
# Indices 1 2 3 4 5 6 
#
# 1 0.019225 -0.004047 -0.007842 0.000000 0.000000 0.000000
# 2 -0.004047 0.019840 -0.007501 0.000000 0.000000 0.000000
# 3 -0.007842 -0.007501 0.015940 0.000000 0.000000 0.000000
# 4 0.000000 0.000000 0.000000 0.037197 0.000000 0.000000
# 5 0.000000 0.000000 0.000000 0.000000 0.035661 0.000000
# 6 0.000000 0.000000 0.000000 0.000000 0.000000 0.028160
#
#
# Mechanical properties :
#
#
# Convention : Reuss Voigt Hill
#
# Bulk Modulus (GPa) = 61.63682 67.25032 64.44357
# Shear Modulus (GPa) = 24.97349 26.52255 25.74802
#
# Velocity S-wave (km/s) = 3.66792 3.77997 3.72437
# Velocity P-wave (km/s) = 7.15144 7.43504 7.29462
#
# Compressibility (1/GPa) = 0.01622407
#
# Stress axis : x y z
#
# Youngs Moduli (GPa) = 52.01649 50.40256 62.73430
#
# Poissons Ratio (x) = 0.20398 0.49198
# Poissons Ratio (y) = 0.21051 0.47059
# Poissons Ratio (z) = 0.40792 0.37809
#
# Static dielectric constant tensor:
#      x y z
#    x 3.329970 0.000000 0.000000 
#    y 0.000000 3.443870 0.000000 
#    z 0.000000 0.000000 3.525580 
# 
# 
# High freq. dielectric constant tensor:
#      x y z
#    x 1.719360 0.000000 0.000000 
#    y 0.000000 1.716920 0.000000 
#    z 0.000000 0.000000 1.731470 
# 
# From -- ./inp_files/75506.got.cif
#   From: 2010.03.12/outbox.cif.g09.slc.cpg/sg65_38_cif.got.tgz:75506.got - 2010.04.10 20:52:16.
