data_PCOD8270668
_publ_section_title
;
Structure prediction by ZEFSAII (Michael W. Deem and Ramdas Pophale) SiO2 
 PCOD8270668
Probable space group: C M M M
;
_chemical_formula_sum "Si O2"
_cell_formula_units_Z 96
_cell_length_a 9.086310
_cell_length_b 19.894914
_cell_length_c 30.349904
_cell_angle_alpha 90.000000
_cell_angle_beta 90.000000
_cell_angle_gamma 90.000000
_cell_volume 5486.393301
_symmetry_space_group_name_H-M "C M M M"
_symmetry_group_IT_number 65
_symmetry_cell_setting 'orthorhombic'
loop_
_space_group_symop_operation_xyz
x,y,z
-x,-y,z
x,-y,-z
-x,y,-z
-x,-y,-z
x,y,-z
-x,y,z
x,-y,z
1/2+x,1/2+y,z
1/2-x,1/2-y,z
1/2+x,1/2-y,-z
1/2-x,1/2+y,-z
1/2-x,1/2-y,-z
1/2+x,1/2+y,-z
1/2-x,1/2+y,z
1/2+x,1/2-y,z
loop_
_atom_site_type_symbol
_atom_site_label
_atom_site_fract_x
_atom_site_fract_y
_atom_site_fract_z
Si Si1 0.172982 0.818672 0.050061
Si Si2 0.836141 0.080040 0.216636
Si Si3 0.829722 0.317771 0.448140
Si Si4 0.824600 0.925408 0.880137
Si Si5 0.828040 0.078708 0.612212
Si Si6 0.164600 0.420107 0.300292
O O1 0.250000 0.750000 0.063879
O O2 0.236174 0.876342 0.082053
O O3 0.000000 0.808980 0.056198
O O4 0.212479 0.838961 0.000000
O O5 0.774409 0.100784 0.168311
O O6 0.731529 0.109381 0.254893
O O7 0.000000 0.109308 0.224068
O O8 0.843002 0.000000 0.218995
O O9 0.810457 0.326800 0.500000
O O10 0.750000 0.250000 0.431722
O O11 0.753995 0.382192 0.426471
O O12 0.000000 0.314003 0.434305
O O13 0.000000 0.928332 0.880935
O O14 0.761021 0.000000 0.889390
O O15 0.764299 0.103600 0.658955
O O16 0.000000 0.095308 0.611123
O O17 0.797522 0.000000 0.604822
O O18 0.162231 0.500000 0.297921
O O19 0.000000 0.391440 0.306205
#
# Coordination Sequence:
#
# PCOD8270668 Si02
#       6
#    16  16  16  16  16  16
#     4   9  17  29  45  64  87 117 151 185 224 273
#     4   8  13  23  40  61  86 115 147 185 230 278
#     4  10  21  37  56  76 100 132 168 204 244 292
#     4   8  14  25  43  67  90 113 147 191 232 268
#     4  10  20  33  51  76 104 133 166 204 245 287
#     4   9  16  26  42  66  96 126 156 192 234 281
#
# _framework density 17.497834000000001
#
# number of rings (size 3 to 8) (size 9 to 14) (size 15 to 20)
#    0.000    3.000    0.000    2.500    0.000    4.667 
#    0.000    4.167    0.000    2.500    0.000    7.000 
#    0.000    0.000    0.000    0.000    0.000    0.000 
#
# Total GULP energy -595055.419935 kJ/mol
# GULP energy per Si atom -12396.987915 kJ/mol
# Density = 1.745801 g / cm^3
# Si number density = 17.497834 Si / 1000 Ang^3
#
#
#
# Elastic Constant Matrix: (Units=GPa)
#
#
# Indices 1 2 3 4 5 6 
#
# 1 97.3871 42.6192 56.4337 0.0000 0.0000 0.0000
# 2 42.6192 66.3987 57.1113 0.0000 0.0000 0.0000
# 3 56.4337 57.1113 104.6885 0.0000 0.0000 0.0000
# 4 0.0000 0.0000 0.0000 6.5456 0.0000 0.0000
# 5 0.0000 0.0000 0.0000 0.0000 23.7703 0.0000
# 6 0.0000 0.0000 0.0000 0.0000 0.0000 22.5679
#
#
#
# Elastic Compliance Matrix: (Units=1/GPa)
#
#
# Indices 1 2 3 4 5 6 
#
# 1 0.015875 -0.005330 -0.005650 0.000000 0.000000 0.000000
# 2 -0.005330 0.030164 -0.013583 0.000000 0.000000 0.000000
# 3 -0.005650 -0.013583 0.020008 0.000000 0.000000 0.000000
# 4 0.000000 0.000000 0.000000 0.152774 0.000000 0.000000
# 5 0.000000 0.000000 0.000000 0.000000 0.042069 0.000000
# 6 0.000000 0.000000 0.000000 0.000000 0.000000 0.044311
#
#
# Mechanical properties :
#
#
# Convention : Reuss Voigt Hill
#
# Bulk Modulus (GPa) = 59.09459 64.53362 61.81411
# Shear Modulus (GPa) = 13.89021 18.06411 15.97716
#
# Velocity S-wave (km/s) = 2.82055 3.21653 3.02502
# Velocity P-wave (km/s) = 6.66732 7.12430 6.89960
#
# Compressibility (1/GPa) = 0.01692202
#
# Stress axis : x y z
#
# Youngs Moduli (GPa) = 62.99303 33.15170 49.98119
#
# Poissons Ratio (x) = 0.17670 0.28239
# Poissons Ratio (y) = 0.33575 0.67887
# Poissons Ratio (z) = 0.35590 0.45029
#
# Static dielectric constant tensor:
#      x y z
#    x 3.254970 0.000000 0.000000 
#    y 0.000000 3.009950 0.000000 
#    z 0.000000 0.000000 3.495080 
# 
# 
# High freq. dielectric constant tensor:
#      x y z
#    x 1.666880 0.000000 0.000000 
#    y 0.000000 1.634640 0.000000 
#    z 0.000000 0.000000 1.687310 
# 
# From -- ./inp_files/73145.got.cif
#   From: 2010.03.12/outbox.cif.g09.slc.cpg/sg65_37_cif.got.tgz:73145.got - 2010.04.10 20:52:16.
