data_PCOD8270240
_publ_section_title
;
Structure prediction by ZEFSAII (Michael W. Deem and Ramdas Pophale) SiO2 
 PCOD8270240
Probable space group: C M M M
;
_chemical_formula_sum "Si O2"
_cell_formula_units_Z 96
_cell_length_a 14.053704
_cell_length_b 30.911592
_cell_length_c 12.201213
_cell_angle_alpha 90.000000
_cell_angle_beta 90.000000
_cell_angle_gamma 90.000000
_cell_volume 5300.479797
_symmetry_space_group_name_H-M "C M M M"
_symmetry_group_IT_number 65
_symmetry_cell_setting 'orthorhombic'
loop_
_space_group_symop_operation_xyz
x,y,z
-x,-y,z
x,-y,-z
-x,y,-z
-x,-y,-z
x,y,-z
-x,y,z
x,-y,z
1/2+x,1/2+y,z
1/2-x,1/2-y,z
1/2+x,1/2-y,-z
1/2-x,1/2+y,-z
1/2-x,1/2-y,-z
1/2+x,1/2+y,-z
1/2-x,1/2+y,z
1/2+x,1/2-y,z
loop_
_atom_site_type_symbol
_atom_site_label
_atom_site_fract_x
_atom_site_fract_y
_atom_site_fract_z
Si Si1 0.264307 0.550520 0.371078
Si Si2 0.250000 0.750000 0.216878
Si Si3 0.390831 0.290453 0.621716
Si Si4 0.112769 0.547579 0.000000
Si Si5 0.112263 0.408895 0.224598
Si Si6 0.269101 0.841942 0.125188
Si Si7 0.389989 0.378904 0.262578
O O1 0.265133 0.559514 0.500000
O O2 0.278729 0.500000 0.345091
O O3 0.162237 0.566417 0.324949
O O4 0.349600 0.576711 0.313428
O O5 0.339922 0.741213 0.293797
O O6 0.268554 0.790514 0.138570
O O7 0.349917 0.282964 0.500000
O O8 0.500000 0.277306 0.628118
O O9 0.376470 0.340982 0.648681
O O10 0.147587 0.569983 0.110818
O O11 0.157255 0.500000 0.000000
O O12 0.000000 0.546371 0.000000
O O13 0.150631 0.359912 0.210252
O O14 0.000000 0.410242 0.245029
O O15 0.167874 0.864371 0.154150
O O16 0.295008 0.852784 0.000000
O O17 0.500000 0.385909 0.230467
#
# Coordination Sequence:
#
# PCOD8270240 Si02
#       7
#    16   8  16   8  16  16  16
#     4  10  21  35  53  81 113 142 174 214 263 320
#     4  10  20  32  50  76 106 136 170 214 266 320
#     4   9  17  31  51  73  99 134 175 215 257 308
#     4   9  16  28  50  75  95 125 173 218 252 291
#     4  10  20  35  54  77 106 142 180 216 260 312
#     4  10  20  35  54  77 105 137 175 220 270 322
#     4   9  19  35  55  77 102 136 178 221 265 314
#
# _framework density 18.111567000000001
#
# number of rings (size 3 to 8) (size 9 to 14) (size 15 to 20)
#    0.000    2.417    0.833    1.500    0.000    3.667 
#    0.000    2.500    0.000    3.000    0.000    2.333 
#    0.000    0.000    0.000    0.000    0.000    0.000 
#
# Total GULP energy -595100.869297 kJ/mol
# GULP energy per Si atom -12397.934777 kJ/mol
# Density = 1.807034 g / cm^3
# Si number density = 18.111567 Si / 1000 Ang^3
#
#
#
# Elastic Constant Matrix: (Units=GPa)
#
#
# Indices 1 2 3 4 5 6 
#
# 1 95.2663 41.2250 19.1795 0.0000 0.0000 0.0000
# 2 41.2250 111.5453 33.7739 0.0000 0.0000 0.0000
# 3 19.1795 33.7739 64.8800 0.0000 0.0000 0.0000
# 4 0.0000 0.0000 0.0000 18.0772 0.0000 0.0000
# 5 0.0000 0.0000 0.0000 0.0000 24.1253 0.0000
# 6 0.0000 0.0000 0.0000 0.0000 0.0000 22.6916
#
#
#
# Elastic Compliance Matrix: (Units=1/GPa)
#
#
# Indices 1 2 3 4 5 6 
#
# 1 0.012625 -0.004197 -0.001547 0.000000 0.000000 0.000000
# 2 -0.004197 0.012038 -0.005026 0.000000 0.000000 0.000000
# 3 -0.001547 -0.005026 0.018487 0.000000 0.000000 0.000000
# 4 0.000000 0.000000 0.000000 0.055318 0.000000 0.000000
# 5 0.000000 0.000000 0.000000 0.000000 0.041450 0.000000
# 6 0.000000 0.000000 0.000000 0.000000 0.000000 0.044069
#
#
# Mechanical properties :
#
#
# Convention : Reuss Voigt Hill
#
# Bulk Modulus (GPa) = 46.27707 51.11648 48.69678
# Shear Modulus (GPa) = 23.50395 24.81303 24.15849
#
# Velocity S-wave (km/s) = 3.60631 3.70538 3.65618
# Velocity P-wave (km/s) = 6.55341 6.82575 6.69097
#
# Compressibility (1/GPa) = 0.02160897
#
# Stress axis : x y z
#
# Youngs Moduli (GPa) = 79.20958 83.07079 54.09339
#
# Poissons Ratio (x) = 0.34868 0.08369
# Poissons Ratio (y) = 0.33248 0.27185
# Poissons Ratio (z) = 0.12254 0.41748
#
# Static dielectric constant tensor:
#      x y z
#    x 3.268060 0.000000 0.000000 
#    y 0.000000 3.412240 0.000000 
#    z 0.000000 0.000000 3.305790 
# 
# 
# High freq. dielectric constant tensor:
#      x y z
#    x 1.692640 0.000000 0.000000 
#    y 0.000000 1.707290 0.000000 
#    z 0.000000 0.000000 1.699900 
# 
# From -- ./inp_files/25448.got.cif
#   From: 2010.03.12/outbox.cif.g09.slc.cpg/sg65_13_cif.got.tgz:25448.got - 2010.04.10 20:52:16.
