data_PCOD8270434
_publ_section_title
;
Structure prediction by ZEFSAII (Michael W. Deem and Ramdas Pophale) SiO2 
 PCOD8270434
Probable space group: C M M M
;
_chemical_formula_sum "Si O2"
_cell_formula_units_Z 88
_cell_length_a 17.593661
_cell_length_b 14.995313
_cell_length_c 16.810784
_cell_angle_alpha 90.000000
_cell_angle_beta 90.000000
_cell_angle_gamma 90.000000
_cell_volume 4435.062280
_symmetry_space_group_name_H-M "C M M M"
_symmetry_group_IT_number 65
_symmetry_cell_setting 'orthorhombic'
loop_
_space_group_symop_operation_xyz
x,y,z
-x,-y,z
x,-y,-z
-x,y,-z
-x,-y,-z
x,y,-z
-x,y,z
x,-y,z
1/2+x,1/2+y,z
1/2-x,1/2-y,z
1/2+x,1/2-y,-z
1/2-x,1/2+y,-z
1/2-x,1/2-y,-z
1/2+x,1/2+y,-z
1/2-x,1/2+y,z
1/2+x,1/2-y,z
loop_
_atom_site_type_symbol
_atom_site_label
_atom_site_fract_x
_atom_site_fract_y
_atom_site_fract_z
Si Si1 0.081741 0.102149 0.139825
Si Si2 0.409977 0.100719 0.500000
Si Si3 0.259555 0.350845 0.088082
Si Si4 0.809095 0.597946 0.751445
Si Si5 0.910169 0.284484 0.650117
Si Si6 0.644450 0.399459 0.313323
O O1 0.149786 0.136750 0.085831
O O2 0.099599 0.115475 0.232137
O O3 0.000000 0.149532 0.121209
O O4 0.072992 0.000000 0.119068
O O5 0.500000 0.096216 0.500000
O O6 0.381763 0.154102 0.422626
O O7 0.375925 0.000000 0.500000
O O8 0.250000 0.250000 0.111646
O O9 0.214033 0.405006 0.155135
O O10 0.227687 0.374900 0.000000
O O11 0.844004 0.500000 0.732983
O O12 0.869399 0.675229 0.729293
O O13 0.733955 0.612917 0.699146
O O14 0.885209 0.181911 0.631327
O O15 0.000000 0.289933 0.662476
O O16 0.627492 0.500000 0.347486
#
# Coordination Sequence:
#
# PCOD8270434 Si02
#       6
#    16   8  16  16  16  16
#     4   9  17  30  50  75 101 132 174 222 264 302
#     4   9  20  38  56  79 111 141 175 224 276 316
#     4  10  20  33  49  72 106 145 181 220 268 320
#     4  10  20  35  56  79 106 143 184 223 265 318
#     4  11  21  35  59  84 106 137 179 226 271 318
#     4   9  18  33  53  79 112 145 175 212 264 325
#
# _framework density 19.841885999999999
#
# number of rings (size 3 to 8) (size 9 to 14) (size 15 to 20)
#    0.000    2.273    0.000    5.455    0.000    4.000 
#    0.000    3.182    0.000    5.455    0.000    1.273 
#    0.000    0.000    0.000    0.000    0.000    0.000 
#
# Total GULP energy -545217.084973 kJ/mol
# GULP energy per Si atom -12391.297386 kJ/mol
# Density = 1.979672 g / cm^3
# Si number density = 19.841886 Si / 1000 Ang^3
#
#
#
# Elastic Constant Matrix: (Units=GPa)
#
#
# Indices 1 2 3 4 5 6 
#
# 1 80.3807 42.9954 24.3279 0.0000 0.0000 0.0000
# 2 42.9954 148.9847 39.9232 0.0000 0.0000 0.0000
# 3 24.3279 39.9232 68.4866 0.0000 0.0000 0.0000
# 4 0.0000 0.0000 0.0000 42.8037 0.0000 0.0000
# 5 0.0000 0.0000 0.0000 0.0000 18.5456 0.0000
# 6 0.0000 0.0000 0.0000 0.0000 0.0000 31.7628
#
#
#
# Elastic Compliance Matrix: (Units=1/GPa)
#
#
# Indices 1 2 3 4 5 6 
#
# 1 0.015353 -0.003519 -0.003402 0.000000 0.000000 0.000000
# 2 -0.003519 0.008761 -0.003857 0.000000 0.000000 0.000000
# 3 -0.003402 -0.003857 0.018059 0.000000 0.000000 0.000000
# 4 0.000000 0.000000 0.000000 0.023362 0.000000 0.000000
# 5 0.000000 0.000000 0.000000 0.000000 0.053921 0.000000
# 6 0.000000 0.000000 0.000000 0.000000 0.000000 0.031483
#
#
# Mechanical properties :
#
#
# Convention : Reuss Voigt Hill
#
# Bulk Modulus (GPa) = 48.50710 56.92722 52.71716
# Shear Modulus (GPa) = 27.87560 31.32945 29.60253
#
# Velocity S-wave (km/s) = 3.75225 3.97792 3.86673
# Velocity P-wave (km/s) = 6.57817 7.06054 6.82362
#
# Compressibility (1/GPa) = 0.02061554
#
# Stress axis : x y z
#
# Youngs Moduli (GPa) = 65.13462 114.13902 55.37556
#
# Poissons Ratio (x) = 0.40165 0.18841
# Poissons Ratio (y) = 0.22920 0.21360
# Poissons Ratio (z) = 0.22161 0.44026
#
# Static dielectric constant tensor:
#      x y z
#    x 3.500250 0.000000 0.000000 
#    y 0.000000 3.826240 0.000000 
#    z 0.000000 0.000000 3.353720 
# 
# 
# High freq. dielectric constant tensor:
#      x y z
#    x 1.762380 0.000000 0.000000 
#    y 0.000000 1.784430 0.000000 
#    z 0.000000 0.000000 1.743970 
# 
# From -- ./inp_files/53018.got.cif
#   From: 2010.03.12/outbox.cif.g09.slc.cpg/sg65_27_cif.got.tgz:53018.got - 2010.04.10 20:52:16.
