data_PCOD8270721
_publ_section_title
;
Structure prediction by ZEFSAII (Michael W. Deem and Ramdas Pophale) SiO2 
 PCOD8270721
Probable space group: C M M M
;
_chemical_formula_sum "Si O2"
_cell_formula_units_Z 88
_cell_length_a 19.589044
_cell_length_b 27.409436
_cell_length_c 8.946814
_cell_angle_alpha 90.000000
_cell_angle_beta 90.000000
_cell_angle_gamma 90.000000
_cell_volume 4803.764956
_symmetry_space_group_name_H-M "C M M M"
_symmetry_group_IT_number 65
_symmetry_cell_setting 'orthorhombic'
loop_
_space_group_symop_operation_xyz
x,y,z
-x,-y,z
x,-y,-z
-x,y,-z
-x,-y,-z
x,y,-z
-x,y,z
x,-y,z
1/2+x,1/2+y,z
1/2-x,1/2-y,z
1/2+x,1/2-y,-z
1/2-x,1/2+y,-z
1/2-x,1/2-y,-z
1/2+x,1/2+y,-z
1/2-x,1/2+y,z
1/2+x,1/2-y,z
loop_
_atom_site_type_symbol
_atom_site_label
_atom_site_fract_x
_atom_site_fract_y
_atom_site_fract_z
Si Si1 0.165687 0.415960 0.822669
Si Si2 0.342207 0.289723 0.674039
Si Si3 0.419657 0.000000 0.674617
Si Si4 0.184243 0.945895 0.822399
Si Si5 0.308822 0.181639 0.325528
Si Si6 0.923620 0.868767 0.176896
O O1 0.110640 0.451393 0.748792
O O2 0.240735 0.431393 0.765948
O O3 0.153787 0.360457 0.769095
O O4 0.158096 0.419622 0.000000
O O5 0.352258 0.299395 0.500000
O O6 0.347297 0.232274 0.708820
O O7 0.269662 0.312035 0.725688
O O8 0.402389 0.315721 0.764076
O O9 0.500000 0.000000 0.704132
O O10 0.402020 0.000000 0.500000
O O11 0.127354 0.909542 0.755532
O O12 0.166876 0.000000 0.763935
O O13 0.182833 0.944120 0.000000
O O14 0.313034 0.168659 0.500000
O O15 0.000000 0.880933 0.231416
O O16 0.919494 0.867926 0.000000
#
# Coordination Sequence:
#
# PCOD8270721 Si02
#       6
#    16  16   8  16  16  16
#     4  11  20  34  59  88 113 141 181 230 276 325
#     4   9  18  33  53  77 107 143 185 230 275 330
#     4  11  25  43  61  83 114 149 180 218 276 340
#     4   9  17  31  51  78 109 140 179 223 268 317
#     4   9  18  33  54  81 109 140 182 230 278 329
#     4  10  20  33  51  77 111 149 187 228 275 328
#
# _framework density 18.318964000000001
#
# number of rings (size 3 to 8) (size 9 to 14) (size 15 to 20)
#    0.000    2.273    2.727    1.909    0.000    2.182 
#    0.000    4.545    0.000    1.091    0.000    1.273 
#    0.000    0.000    0.000    0.000    0.000    0.000 
#
# Total GULP energy -545606.244570 kJ/mol
# GULP energy per Si atom -12400.141922 kJ/mol
# Density = 1.827727 g / cm^3
# Si number density = 18.318964 Si / 1000 Ang^3
#
#
#
# Elastic Constant Matrix: (Units=GPa)
#
#
# Indices 1 2 3 4 5 6 
#
# 1 113.4218 65.6627 43.0208 0.0000 0.0000 0.0000
# 2 65.6627 142.5795 42.8551 0.0000 0.0000 0.0000
# 3 43.0208 42.8551 48.6214 0.0000 0.0000 0.0000
# 4 0.0000 0.0000 0.0000 26.8336 0.0000 0.0000
# 5 0.0000 0.0000 0.0000 0.0000 23.4187 0.0000
# 6 0.0000 0.0000 0.0000 0.0000 0.0000 30.2596
#
#
#
# Elastic Compliance Matrix: (Units=1/GPa)
#
#
# Indices 1 2 3 4 5 6 
#
# 1 0.014703 -0.003892 -0.009579 0.000000 0.000000 0.000000
# 2 -0.003892 0.010572 -0.005874 0.000000 0.000000 0.000000
# 3 -0.009579 -0.005874 0.034220 0.000000 0.000000 0.000000
# 4 0.000000 0.000000 0.000000 0.037267 0.000000 0.000000
# 5 0.000000 0.000000 0.000000 0.000000 0.042701 0.000000
# 6 0.000000 0.000000 0.000000 0.000000 0.000000 0.033047
#
#
# Mechanical properties :
#
#
# Convention : Reuss Voigt Hill
#
# Bulk Modulus (GPa) = 48.06648 67.52222 57.79435
# Shear Modulus (GPa) = 22.92153 26.30798 24.61475
#
# Velocity S-wave (km/s) = 3.54113 3.79371 3.66960
# Velocity P-wave (km/s) = 6.55859 7.49192 7.04074
#
# Compressibility (1/GPa) = 0.02080452
#
# Stress axis : x y z
#
# Youngs Moduli (GPa) = 68.01228 94.59227 29.22254
#
# Poissons Ratio (x) = 0.36817 0.27992
# Poissons Ratio (y) = 0.26472 0.17166
# Poissons Ratio (z) = 0.65149 0.55564
#
# Static dielectric constant tensor:
#      x y z
#    x 3.314610 0.000000 0.000000 
#    y 0.000000 3.533350 0.000000 
#    z 0.000000 0.000000 3.112480 
# 
# 
# High freq. dielectric constant tensor:
#      x y z
#    x 1.691370 0.000000 0.000000 
#    y 0.000000 1.724340 0.000000 
#    z 0.000000 0.000000 1.690360 
# 
# From -- ./inp_files/10069.got.cif
#   From: 2010.03.12/outbox.cif.g09.slc.cpg/sg65_6_cif.got.tgz:10069.got - 2010.04.10 20:52:16.
