data_PCOD8270084
_publ_section_title
;
Structure prediction by ZEFSAII (Michael W. Deem and Ramdas Pophale) SiO2 
 PCOD8270084
Probable space group: C M M M
;
_chemical_formula_sum "Si O2"
_cell_formula_units_Z 104
_cell_length_a 24.420537
_cell_length_b 26.644515
_cell_length_c 8.416732
_cell_angle_alpha 90.000000
_cell_angle_beta 90.000000
_cell_angle_gamma 90.000000
_cell_volume 5476.543328
_symmetry_space_group_name_H-M "C M M M"
_symmetry_group_IT_number 65
_symmetry_cell_setting 'orthorhombic'
loop_
_space_group_symop_operation_xyz
x,y,z
-x,-y,z
x,-y,-z
-x,y,-z
-x,-y,-z
x,y,-z
-x,y,z
x,-y,z
1/2+x,1/2+y,z
1/2-x,1/2-y,z
1/2+x,1/2-y,-z
1/2-x,1/2+y,-z
1/2-x,1/2-y,-z
1/2+x,1/2+y,-z
1/2-x,1/2+y,z
1/2+x,1/2-y,z
loop_
_atom_site_type_symbol
_atom_site_label
_atom_site_fract_x
_atom_site_fract_y
_atom_site_fract_z
Si Si1 0.359709 0.785316 0.316254
Si Si2 0.845716 0.176754 0.814708
Si Si3 0.438940 0.129527 0.311797
Si Si4 0.842975 0.557686 0.311361
Si Si5 0.064615 0.000000 0.827793
Si Si6 0.560906 0.392861 0.808925
Si Si7 0.771628 0.641295 0.187473
O O1 0.362902 0.770616 0.500000
O O2 0.352320 0.735370 0.216006
O O3 0.413842 0.816330 0.261933
O O4 0.307937 0.820311 0.286936
O O5 0.897244 0.147839 0.737567
O O6 0.789674 0.152266 0.750167
O O7 0.846854 0.167553 0.000000
O O8 0.442493 0.126585 0.500000
O O9 0.500000 0.123678 0.237574
O O10 0.399137 0.084696 0.252082
O O11 0.837063 0.562231 0.500000
O O12 0.844507 0.500000 0.255394
O O13 0.790656 0.584712 0.230158
O O14 0.079833 0.947704 0.739877
O O15 0.000000 0.000000 0.853853
O O16 0.093971 0.000000 0.000000
O O17 0.500000 0.378671 0.748706
O O18 0.561232 0.395103 0.000000
O O19 0.777728 0.651293 0.000000
#
# Coordination Sequence:
#
# PCOD8270084 Si02
#       7
#    16  16  16  16   8  16  16
#     4  10  20  33  51  72  95 129 166 201 242 293
#     4  10  20  32  47  73 100 125 160 204 248 292
#     4   8  15  29  49  74 101 127 161 203 243 287
#     4   9  18  33  53  76 102 133 168 205 245 292
#     4   7  10  20  40  62  85 117 151 181 218 267
#     4   8  14  26  44  67  95 124 154 192 239 288
#     4  10  20  34  50  70  98 131 165 204 247 290
#
# _framework density 18.990079999999999
#
# number of rings (size 3 to 8) (size 9 to 14) (size 15 to 20)
#    0.000    3.000    0.000    3.231    0.000    4.308 
#    1.385    1.538    0.000   11.077    0.000    4.308 
#    0.000    1.846    0.000    0.000    0.000    0.000 
#
# Total GULP energy -644350.233690 kJ/mol
# GULP energy per Si atom -12391.350648 kJ/mol
# Density = 1.894686 g / cm^3
# Si number density = 18.990080 Si / 1000 Ang^3
#
#
#
# Elastic Constant Matrix: (Units=GPa)
#
#
# Indices 1 2 3 4 5 6 
#
# 1 129.1414 80.4558 3.2017 0.0000 0.0000 0.0000
# 2 80.4558 135.4674 -1.1906 0.0000 0.0000 0.0000
# 3 3.2017 -1.1906 7.1741 0.0000 0.0000 0.0000
# 4 0.0000 0.0000 0.0000 19.1168 0.0000 0.0000
# 5 0.0000 0.0000 0.0000 0.0000 14.8113 0.0000
# 6 0.0000 0.0000 0.0000 0.0000 0.0000 18.2188
#
#
#
# Elastic Compliance Matrix: (Units=1/GPa)
#
#
# Indices 1 2 3 4 5 6 
#
# 1 0.012622 -0.007557 -0.006887 0.000000 0.000000 0.000000
# 2 -0.007557 0.011917 0.005350 0.000000 0.000000 0.000000
# 3 -0.006887 0.005350 0.143352 0.000000 0.000000 0.000000
# 4 0.000000 0.000000 0.000000 0.052310 0.000000 0.000000
# 5 0.000000 0.000000 0.000000 0.000000 0.067516 0.000000
# 6 0.000000 0.000000 0.000000 0.000000 0.000000 0.054888
#
#
# Mechanical properties :
#
#
# Convention : Reuss Voigt Hill
#
# Bulk Modulus (GPa) = 6.67987 48.52408 27.60197
# Shear Modulus (GPa) = 12.17448 23.05045 17.61246
#
# Velocity S-wave (km/s) = 2.53474 3.48776 3.04872
# Velocity P-wave (km/s) = 3.47731 6.46739 5.19225
#
# Compressibility (1/GPa) = 0.14970347
#
# Stress axis : x y z
#
# Youngs Moduli (GPa) = 79.22485 83.91289 6.97583
#
# Poissons Ratio (x) = 0.63414 0.04804
# Poissons Ratio (y) = 0.59871 -0.03732
# Poissons Ratio (z) = 0.54565 -0.44897
#
# Static dielectric constant tensor:
#      x y z
#    x 3.807490 0.000000 0.000000 
#    y 0.000000 3.773650 0.000000 
#    z 0.000000 0.000000 3.013120 
# 
# 
# High freq. dielectric constant tensor:
#      x y z
#    x 1.734040 0.000000 0.000000 
#    y 0.000000 1.745550 0.000000 
#    z 0.000000 0.000000 1.694220 
# 
# From -- ./inp_files/14777.got.cif
#   From: 2010.03.12/outbox.cif.g09.slc.cpg/sg65_8_cif.got.tgz:14777.got - 2010.04.10 20:52:16.
