data_PCOD8270060
_publ_section_title
;
Structure prediction by ZEFSAII (Michael W. Deem and Ramdas Pophale) SiO2 
 PCOD8270060
Probable space group: C M M M
;
_chemical_formula_sum "Si O2"
_cell_formula_units_Z 104
_cell_length_a 23.946341
_cell_length_b 28.112304
_cell_length_c 9.159268
_cell_angle_alpha 90.000000
_cell_angle_beta 90.000000
_cell_angle_gamma 90.000000
_cell_volume 6165.898479
_symmetry_space_group_name_H-M "C M M M"
_symmetry_group_IT_number 65
_symmetry_cell_setting 'orthorhombic'
loop_
_space_group_symop_operation_xyz
x,y,z
-x,-y,z
x,-y,-z
-x,y,-z
-x,-y,-z
x,y,-z
-x,y,z
x,-y,z
1/2+x,1/2+y,z
1/2-x,1/2-y,z
1/2+x,1/2-y,-z
1/2-x,1/2+y,-z
1/2-x,1/2-y,-z
1/2+x,1/2+y,-z
1/2-x,1/2+y,z
1/2+x,1/2-y,z
loop_
_atom_site_type_symbol
_atom_site_label
_atom_site_fract_x
_atom_site_fract_y
_atom_site_fract_z
Si Si1 0.437172 0.126124 0.327188
Si Si2 0.434245 0.322754 0.831063
Si Si3 0.270739 0.554774 0.830848
Si Si4 0.872351 0.907241 0.673475
Si Si5 0.066188 0.730980 0.338195
Si Si6 0.643251 0.945457 0.831065
Si Si7 0.937554 0.000000 0.326661
O O1 0.436957 0.121533 0.500000
O O2 0.500000 0.117929 0.267206
O O3 0.414688 0.178758 0.282594
O O4 0.397061 0.086766 0.262708
O O5 0.500000 0.329867 0.804690
O O6 0.401580 0.361179 0.737625
O O7 0.413961 0.271014 0.775645
O O8 0.418366 0.327616 0.000000
O O9 0.280493 0.500000 0.786430
O O10 0.309317 0.588615 0.732317
O O11 0.207026 0.569316 0.799390
O O12 0.285596 0.562483 0.000000
O O13 0.871670 0.903348 0.500000
O O14 0.906210 0.953199 0.730333
O O15 0.090779 0.741978 0.500000
O O16 0.000000 0.730102 0.349749
O O17 0.633525 0.000000 0.785375
O O18 0.629059 0.938187 0.000000
O O19 0.939255 0.000000 0.500000
O O20 0.000000 0.000000 0.261481
#
# Coordination Sequence:
#
# PCOD8270060 Si02
#       7
#    16  16  16  16  16  16   8
#     4   9  18  32  51  77 106 133 161 197 244 292
#     4  10  20  32  47  71 100 129 164 203 245 293
#     4   9  18  34  52  68  93 128 167 209 248 287
#     4  11  20  31  49  71  96 128 166 206 248 294
#     4   8  15  30  50  70  95 128 163 198 240 291
#     4   9  19  34  51  73 101 135 169 200 239 289
#     4   9  18  30  43  65  97 127 156 195 242 291
#
# _framework density 16.866966999999999
#
# number of rings (size 3 to 8) (size 9 to 14) (size 15 to 20)
#    0.000    2.692    0.769    3.231    0.000    3.692 
#    0.000    4.615    0.000    2.769    0.000    6.462 
#    0.000    0.000    0.000    0.000    0.000    0.000 
#
# Total GULP energy -644710.774952 kJ/mol
# GULP energy per Si atom -12398.284134 kJ/mol
# Density = 1.682858 g / cm^3
# Si number density = 16.866967 Si / 1000 Ang^3
#
#
#
# Elastic Constant Matrix: (Units=GPa)
#
#
# Indices 1 2 3 4 5 6 
#
# 1 78.6797 55.5833 42.1351 0.0000 0.0000 0.0000
# 2 55.5833 114.5603 50.2094 0.0000 0.0000 0.0000
# 3 42.1351 50.2094 70.3053 0.0000 0.0000 0.0000
# 4 0.0000 0.0000 0.0000 30.0817 0.0000 0.0000
# 5 0.0000 0.0000 0.0000 0.0000 28.1517 0.0000
# 6 0.0000 0.0000 0.0000 0.0000 0.0000 6.1699
#
#
#
# Elastic Compliance Matrix: (Units=1/GPa)
#
#
# Indices 1 2 3 4 5 6 
#
# 1 0.022138 -0.007171 -0.008147 0.000000 0.000000 0.000000
# 2 -0.007171 0.015029 -0.006435 0.000000 0.000000 0.000000
# 3 -0.008147 -0.006435 0.023702 0.000000 0.000000 0.000000
# 4 0.000000 0.000000 0.000000 0.033243 0.000000 0.000000
# 5 0.000000 0.000000 0.000000 0.000000 0.035522 0.000000
# 6 0.000000 0.000000 0.000000 0.000000 0.000000 0.162077
#
#
# Mechanical properties :
#
#
# Convention : Reuss Voigt Hill
#
# Bulk Modulus (GPa) = 57.59275 62.15565 59.87420
# Shear Modulus (GPa) = 14.66257 20.58850 17.62554
#
# Velocity S-wave (km/s) = 2.95160 3.49756 3.23611
# Velocity P-wave (km/s) = 6.77018 7.29665 7.03834
#
# Compressibility (1/GPa) = 0.01736330
#
# Stress axis : x y z
#
# Youngs Moduli (GPa) = 45.17052 66.53961 42.19032
#
# Poissons Ratio (x) = 0.47713 0.34372
# Poissons Ratio (y) = 0.32390 0.27151
# Poissons Ratio (z) = 0.36800 0.42821
#
# Static dielectric constant tensor:
#      x y z
#    x 3.024370 0.000000 0.000000 
#    y 0.000000 3.316800 0.000000 
#    z 0.000000 0.000000 3.070160 
# 
# 
# High freq. dielectric constant tensor:
#      x y z
#    x 1.629390 0.000000 0.000000 
#    y 0.000000 1.650330 0.000000 
#    z 0.000000 0.000000 1.646280 
# 
# From -- ./inp_files/16756.got.cif
#   From: 2010.03.12/outbox.cif.g09.slc.cpg/sg65_9_cif.got.tgz:16756.got - 2010.04.10 20:52:16.
