data_PCOD8270656
_publ_section_title
;
Structure prediction by ZEFSAII (Michael W. Deem and Ramdas Pophale) SiO2 
 PCOD8270656
Probable space group: C M M M
;
_chemical_formula_sum "Si O2"
_cell_formula_units_Z 96
_cell_length_a 30.359013
_cell_length_b 19.756825
_cell_length_c 9.142188
_cell_angle_alpha 90.000000
_cell_angle_beta 90.000000
_cell_angle_gamma 90.000000
_cell_volume 5483.463399
_symmetry_space_group_name_H-M "C M M M"
_symmetry_group_IT_number 65
_symmetry_cell_setting 'orthorhombic'
loop_
_space_group_symop_operation_xyz
x,y,z
-x,-y,z
x,-y,-z
-x,y,-z
-x,-y,-z
x,y,-z
-x,y,z
x,-y,z
1/2+x,1/2+y,z
1/2-x,1/2-y,z
1/2+x,1/2-y,-z
1/2-x,1/2+y,-z
1/2-x,1/2-y,-z
1/2+x,1/2+y,-z
1/2-x,1/2+y,z
1/2+x,1/2-y,z
loop_
_atom_site_type_symbol
_atom_site_label
_atom_site_fract_x
_atom_site_fract_y
_atom_site_fract_z
Si Si1 0.882776 0.579903 0.331410
Si Si2 0.786826 0.919603 0.337384
Si Si3 0.448572 0.826602 0.169681
Si Si4 0.796400 0.580616 0.164068
Si Si5 0.050712 0.189903 0.670877
Si Si6 0.616171 0.424875 0.325877
O O1 0.882748 0.601976 0.500000
O O2 0.887732 0.500000 0.313460
O O3 0.923814 0.612587 0.249013
O O4 0.837483 0.606317 0.259721
O O5 0.779922 0.889257 0.500000
O O6 0.748783 0.890028 0.232708
O O7 0.835179 0.900243 0.274545
O O8 0.783327 0.000000 0.346201
O O9 0.500000 0.839774 0.194020
O O10 0.434247 0.755747 0.240781
O O11 0.435801 0.825344 0.000000
O O12 0.795067 0.500000 0.163537
O O13 0.801175 0.609062 0.000000
O O14 0.059164 0.203573 0.500000
O O15 0.079514 0.127323 0.731012
O O16 0.000000 0.171711 0.701590
O O17 0.616065 0.428404 0.500000
O O18 0.605528 0.500000 0.263198
#
# Coordination Sequence:
#
# PCOD8270656 Si02
#       6
#    16  16  16  16  16  16
#     4  10  20  33  51  75  99 122 152 192 236 280
#     4   8  13  23  40  62  91 126 160 192 229 276
#     4  10  21  36  52  69  93 127 162 194 233 283
#     4   9  16  26  42  66  96 126 155 188 228 276
#     4   9  17  30  49  71  95 126 164 202 239 283
#     4   8  14  25  44  72 101 127 159 201 244 281
#
# _framework density 17.507183000000001
#
# number of rings (size 3 to 8) (size 9 to 14) (size 15 to 20)
#    0.000    3.000    0.000    2.500    0.000    4.667 
#    0.000    4.167    0.000    2.500    0.000    9.333 
#    0.000    0.000    0.000    0.000    0.000    0.000 
#
# Total GULP energy -595078.334754 kJ/mol
# GULP energy per Si atom -12397.465307 kJ/mol
# Density = 1.746734 g / cm^3
# Si number density = 17.507183 Si / 1000 Ang^3
#
#
#
# Elastic Constant Matrix: (Units=GPa)
#
#
# Indices 1 2 3 4 5 6 
#
# 1 110.1768 49.9917 57.8551 0.0000 0.0000 0.0000
# 2 49.9917 49.4771 37.8356 0.0000 0.0000 0.0000
# 3 57.8551 37.8356 100.8316 0.0000 0.0000 0.0000
# 4 0.0000 0.0000 0.0000 14.8577 0.0000 0.0000
# 5 0.0000 0.0000 0.0000 0.0000 21.5038 0.0000
# 6 0.0000 0.0000 0.0000 0.0000 0.0000 6.2284
#
#
#
# Elastic Compliance Matrix: (Units=1/GPa)
#
#
# Indices 1 2 3 4 5 6 
#
# 1 0.018414 -0.014761 -0.005026 0.000000 0.000000 0.000000
# 2 -0.014761 0.040178 -0.006607 0.000000 0.000000 0.000000
# 3 -0.005026 -0.006607 0.015281 0.000000 0.000000 0.000000
# 4 0.000000 0.000000 0.000000 0.067305 0.000000 0.000000
# 5 0.000000 0.000000 0.000000 0.000000 0.046503 0.000000
# 6 0.000000 0.000000 0.000000 0.000000 0.000000 0.160554
#
#
# Mechanical properties :
#
#
# Convention : Reuss Voigt Hill
#
# Bulk Modulus (GPa) = 47.42948 61.31670 54.37309
# Shear Modulus (GPa) = 12.25334 16.17152 14.21243
#
# Velocity S-wave (km/s) = 2.64844 3.04255 2.85231
# Velocity P-wave (km/s) = 6.04173 6.88786 6.47863
#
# Compressibility (1/GPa) = 0.02108393
#
# Stress axis : x y z
#
# Youngs Moduli (GPa) = 54.30781 24.88897 65.44276
#
# Poissons Ratio (x) = 0.36740 0.32894
# Poissons Ratio (y) = 0.80166 0.43235
# Poissons Ratio (z) = 0.27297 0.16443
#
# Static dielectric constant tensor:
#      x y z
#    x 3.479900 0.000000 0.000000 
#    y 0.000000 2.986160 0.000000 
#    z 0.000000 0.000000 3.271000 
# 
# 
# High freq. dielectric constant tensor:
#      x y z
#    x 1.687650 0.000000 0.000000 
#    y 0.000000 1.634540 0.000000 
#    z 0.000000 0.000000 1.666220 
# 
# From -- ./inp_files/16319.got.cif
#   From: 2010.03.12/outbox.cif.g09.slc.cpg/sg65_9_cif.got.tgz:16319.got - 2010.04.10 20:52:16.
