data_PCOD8270076
_publ_section_title
;
Structure prediction by ZEFSAII (Michael W. Deem and Ramdas Pophale) SiO2 
 PCOD8270076
Probable space group: C M M M
;
_chemical_formula_sum "Si O2"
_cell_formula_units_Z 88
_cell_length_a 19.045014
_cell_length_b 30.460167
_cell_length_c 7.915256
_cell_angle_alpha 90.000000
_cell_angle_beta 90.000000
_cell_angle_gamma 90.000000
_cell_volume 4591.753249
_symmetry_space_group_name_H-M "C M M M"
_symmetry_group_IT_number 65
_symmetry_cell_setting 'orthorhombic'
loop_
_space_group_symop_operation_xyz
x,y,z
-x,-y,z
x,-y,-z
-x,y,-z
-x,-y,-z
x,y,-z
-x,y,z
x,-y,z
1/2+x,1/2+y,z
1/2-x,1/2-y,z
1/2+x,1/2-y,-z
1/2-x,1/2+y,-z
1/2-x,1/2-y,-z
1/2+x,1/2+y,-z
1/2-x,1/2+y,z
1/2+x,1/2-y,z
loop_
_atom_site_type_symbol
_atom_site_label
_atom_site_fract_x
_atom_site_fract_y
_atom_site_fract_z
Si Si1 0.421031 0.947946 0.000000
Si Si2 0.577438 0.747601 0.803107
Si Si3 0.174891 0.449332 0.309381
Si Si4 0.787170 0.292964 0.801484
Si Si5 0.779489 0.881358 0.194576
Si Si6 0.921504 0.848338 0.693705
O O1 0.381285 0.931797 0.829429
O O2 0.500000 0.928045 0.000000
O O3 0.425523 0.000000 0.000000
O O4 0.500000 0.763328 0.748380
O O5 0.630127 0.787438 0.758667
O O6 0.598981 0.702864 0.709445
O O7 0.581740 0.736069 0.000000
O O8 0.144707 0.443263 0.500000
O O9 0.192692 0.500000 0.273734
O O10 0.248003 0.423009 0.292648
O O11 0.750000 0.250000 0.723276
O O12 0.756886 0.337847 0.723491
O O13 0.771746 0.294708 0.000000
O O14 0.863834 0.878469 0.213322
O O15 0.759563 0.886865 0.000000
O O16 0.920991 0.862072 0.500000
O O17 0.000000 0.856229 0.770542
#
# Coordination Sequence:
#
# PCOD8270076 Si02
#       6
#     8  16  16  16  16  16
#     4   9  18  36  62  90 116 145 187 233 279 335
#     4   9  16  29  48  67  93 136 182 222 269 325
#     4  10  21  38  60  87 118 150 186 231 283 334
#     4   9  16  28  46  72 104 133 175 226 270 323
#     4  11  20  33  56  79 107 144 186 232 278 331
#     4  10  20  32  47  72 105 139 181 232 282 331
#
# _framework density 19.164791999999998
#
# number of rings (size 3 to 8) (size 9 to 14) (size 15 to 20)
#    0.000    2.273    2.727    1.091    0.000    1.455 
#    0.000    5.455    0.000    0.545    0.000    3.818 
#    0.000    0.000    0.000    0.000    0.000    0.000 
#
# Total GULP energy -545389.023091 kJ/mol
# GULP energy per Si atom -12395.205070 kJ/mol
# Density = 1.912117 g / cm^3
# Si number density = 19.164792 Si / 1000 Ang^3
#
#
#
# Elastic Constant Matrix: (Units=GPa)
#
#
# Indices 1 2 3 4 5 6 
#
# 1 134.6898 49.3399 32.9212 0.0000 0.0000 0.0000
# 2 49.3399 70.2122 25.5072 0.0000 0.0000 0.0000
# 3 32.9212 25.5072 73.6167 0.0000 0.0000 0.0000
# 4 0.0000 0.0000 0.0000 15.5835 0.0000 0.0000
# 5 0.0000 0.0000 0.0000 0.0000 19.9279 0.0000
# 6 0.0000 0.0000 0.0000 0.0000 0.0000 26.9614
#
#
#
# Elastic Compliance Matrix: (Units=1/GPa)
#
#
# Indices 1 2 3 4 5 6 
#
# 1 0.010360 -0.006403 -0.002414 0.000000 0.000000 0.000000
# 2 -0.006403 0.020251 -0.004153 0.000000 0.000000 0.000000
# 3 -0.002414 -0.004153 0.016103 0.000000 0.000000 0.000000
# 4 0.000000 0.000000 0.000000 0.064170 0.000000 0.000000
# 5 0.000000 0.000000 0.000000 0.000000 0.050181 0.000000
# 6 0.000000 0.000000 0.000000 0.000000 0.000000 0.037090
#
#
# Mechanical properties :
#
#
# Convention : Reuss Voigt Hill
#
# Bulk Modulus (GPa) = 48.14137 54.89503 51.51820
# Shear Modulus (GPa) = 21.64305 23.87794 22.76049
#
# Velocity S-wave (km/s) = 3.36417 3.53360 3.44993
# Velocity P-wave (km/s) = 6.34543 6.73456 6.54289
#
# Compressibility (1/GPa) = 0.02077215
#
# Stress axis : x y z
#
# Youngs Moduli (GPa) = 96.52251 49.38009 62.10169
#
# Poissons Ratio (x) = 0.31619 0.14994
# Poissons Ratio (y) = 0.61806 0.25792
# Poissons Ratio (z) = 0.23305 0.20508
#
# Static dielectric constant tensor:
#      x y z
#    x 3.764620 0.000000 0.000000 
#    y 0.000000 3.244210 0.000000 
#    z 0.000000 0.000000 3.393180 
# 
# 
# High freq. dielectric constant tensor:
#      x y z
#    x 1.750780 0.000000 0.000000 
#    y 0.000000 1.703870 0.000000 
#    z 0.000000 0.000000 1.734830 
# 
# From -- ./inp_files/10076.got.cif
#   From: 2010.03.12/outbox.cif.g09.slc.cpg/sg65_6_cif.got.tgz:10076.got - 2010.04.10 20:52:16.
