data_PCOD8270710
_publ_section_title
;
Structure prediction by ZEFSAII (Michael W. Deem and Ramdas Pophale) SiO2 
 PCOD8270710
Probable space group: C M M M
;
_chemical_formula_sum "Si O2"
_cell_formula_units_Z 96
_cell_length_a 8.826736
_cell_length_b 19.036587
_cell_length_c 30.360287
_cell_angle_alpha 90.000000
_cell_angle_beta 90.000000
_cell_angle_gamma 90.000000
_cell_volume 5101.467193
_symmetry_space_group_name_H-M "C M M M"
_symmetry_group_IT_number 65
_symmetry_cell_setting 'orthorhombic'
loop_
_space_group_symop_operation_xyz
x,y,z
-x,-y,z
x,-y,-z
-x,y,-z
-x,-y,-z
x,y,-z
-x,y,z
x,-y,z
1/2+x,1/2+y,z
1/2-x,1/2-y,z
1/2+x,1/2-y,-z
1/2-x,1/2+y,-z
1/2-x,1/2-y,-z
1/2+x,1/2+y,-z
1/2-x,1/2+y,z
1/2+x,1/2-y,z
loop_
_atom_site_type_symbol
_atom_site_label
_atom_site_fract_x
_atom_site_fract_y
_atom_site_fract_z
Si Si1 0.172611 0.416878 0.364725
Si Si2 0.176455 0.419391 0.880654
Si Si3 0.322298 0.678008 0.050292
Si Si4 0.679120 0.675819 0.293015
Si Si5 0.821044 0.323627 0.200789
Si Si6 0.170240 0.916588 0.451735
O O1 0.194352 0.500000 0.361198
O O2 0.281270 0.382491 0.328857
O O3 0.219667 0.388919 0.413258
O O4 0.000000 0.394427 0.356054
O O5 0.224163 0.500000 0.875617
O O6 0.267131 0.387593 0.921441
O O7 0.221055 0.381329 0.835420
O O8 0.000000 0.410500 0.890836
O O9 0.500000 0.685879 0.054839
O O10 0.250000 0.750000 0.068471
O O11 0.271789 0.664602 0.000000
O O12 0.500000 0.683735 0.288595
O O13 0.750000 0.750000 0.307549
O O14 0.748140 0.651146 0.246517
O O15 0.750000 0.250000 0.185396
O O16 0.000000 0.314709 0.207053
O O17 0.225935 0.889585 0.500000
O O18 0.000000 0.889218 0.442607
O O19 0.170750 0.000000 0.451862
#
# Coordination Sequence:
#
# PCOD8270710 Si02
#       6
#    16  16  16  16  16  16
#     4  10  20  33  51  77 108 140 175 217 264 313
#     4  10  22  38  56  81 113 147 179 216 266 318
#     4  10  21  37  58  83 110 143 184 227 268 313
#     4  11  22  37  57  79 105 138 177 218 264 318
#     4  10  20  36  57  79 104 136 177 220 262 312
#     4   8  14  26  45  70 101 136 174 216 260 307
#
# _framework density 18.818114999999999
#
# number of rings (size 3 to 8) (size 9 to 14) (size 15 to 20)
#    0.000    2.167    0.000    5.000    0.000    6.333 
#    0.000    5.000    0.000    0.500    0.000    0.000 
#    0.000    0.000    0.000    0.000    0.000    0.000 
#
# Total GULP energy -595264.958895 kJ/mol
# GULP energy per Si atom -12401.353310 kJ/mol
# Density = 1.877528 g / cm^3
# Si number density = 18.818115 Si / 1000 Ang^3
#
#
#
# Elastic Constant Matrix: (Units=GPa)
#
#
# Indices 1 2 3 4 5 6 
#
# 1 99.6276 42.5604 59.3083 0.0000 0.0000 0.0000
# 2 42.5604 86.7335 67.6906 0.0000 0.0000 0.0000
# 3 59.3083 67.6906 127.2718 0.0000 0.0000 0.0000
# 4 0.0000 0.0000 0.0000 17.2368 0.0000 0.0000
# 5 0.0000 0.0000 0.0000 0.0000 36.5367 0.0000
# 6 0.0000 0.0000 0.0000 0.0000 0.0000 28.2525
#
#
#
# Elastic Compliance Matrix: (Units=1/GPa)
#
#
# Indices 1 2 3 4 5 6 
#
# 1 0.014368 -0.003120 -0.005036 0.000000 0.000000 0.000000
# 2 -0.003120 0.020389 -0.009390 0.000000 0.000000 0.000000
# 3 -0.005036 -0.009390 0.015198 0.000000 0.000000 0.000000
# 4 0.000000 0.000000 0.000000 0.058015 0.000000 0.000000
# 5 0.000000 0.000000 0.000000 0.000000 0.027370 0.000000
# 6 0.000000 0.000000 0.000000 0.000000 0.000000 0.035395
#
#
# Mechanical properties :
#
#
# Convention : Reuss Voigt Hill
#
# Bulk Modulus (GPa) = 67.28195 72.52795 69.90495
# Shear Modulus (GPa) = 23.72108 26.01010 24.86559
#
# Velocity S-wave (km/s) = 3.55427 3.72181 3.63900
# Velocity P-wave (km/s) = 7.25777 7.55608 7.40843
#
# Compressibility (1/GPa) = 0.01486283
#
# Stress axis : x y z
#
# Youngs Moduli (GPa) = 69.59776 49.04573 65.79712
#
# Poissons Ratio (x) = 0.15303 0.33136
# Poissons Ratio (y) = 0.21716 0.61784
# Poissons Ratio (z) = 0.35050 0.46055
#
# Static dielectric constant tensor:
#      x y z
#    x 3.517890 0.000000 0.000000 
#    y 0.000000 3.226250 0.000000 
#    z 0.000000 0.000000 3.678510 
# 
# 
# High freq. dielectric constant tensor:
#      x y z
#    x 1.738720 0.000000 0.000000 
#    y 0.000000 1.705100 0.000000 
#    z 0.000000 0.000000 1.744550 
# 
# From -- ./inp_files/73199.got.cif
#   From: 2010.03.12/outbox.cif.g09.slc.cpg/sg65_37_cif.got.tgz:73199.got - 2010.04.10 20:52:16.
