data_PCOD8270828
_publ_section_title
;
Structure prediction by ZEFSAII (Michael W. Deem and Ramdas Pophale) SiO2 
 PCOD8270828
Probable space group: C M M M
;
_chemical_formula_sum "Si O2"
_cell_formula_units_Z 80
_cell_length_a 9.269891
_cell_length_b 28.793973
_cell_length_c 15.807651
_cell_angle_alpha 90.000000
_cell_angle_beta 90.000000
_cell_angle_gamma 90.000000
_cell_volume 4219.330642
_symmetry_space_group_name_H-M "C M M M"
_symmetry_group_IT_number 65
_symmetry_cell_setting 'orthorhombic'
loop_
_space_group_symop_operation_xyz
x,y,z
-x,-y,z
x,-y,-z
-x,y,-z
-x,-y,-z
x,y,-z
-x,y,z
x,-y,z
1/2+x,1/2+y,z
1/2-x,1/2-y,z
1/2+x,1/2-y,-z
1/2-x,1/2+y,-z
1/2-x,1/2-y,-z
1/2+x,1/2+y,-z
1/2-x,1/2+y,z
1/2+x,1/2-y,z
loop_
_atom_site_type_symbol
_atom_site_label
_atom_site_fract_x
_atom_site_fract_y
_atom_site_fract_z
Si Si1 0.832300 0.947738 0.156254
Si Si2 0.665375 0.948604 0.671741
Si Si3 0.665042 0.864368 0.906255
Si Si4 0.671478 0.201500 0.753908
Si Si5 0.669724 0.145318 0.591980
O O1 0.767198 0.941687 0.248786
O O2 0.756884 0.911579 0.093852
O O3 0.000000 0.935980 0.161256
O O4 0.806133 0.000000 0.122127
O O5 0.500000 0.941771 0.701893
O O6 0.707421 0.909137 0.604364
O O7 0.686990 0.000000 0.631419
O O8 0.500000 0.877660 0.887376
O O9 0.719719 0.828513 0.835232
O O10 0.681937 0.842021 0.000000
O O11 0.500000 0.208781 0.751989
O O12 0.750000 0.250000 0.761840
O O13 0.730812 0.176424 0.668729
O O14 0.734313 0.160325 0.500000
O O15 0.500000 0.152305 0.590420
#
# Coordination Sequence:
#
# PCOD8270828 Si02
#       5
#    16  16  16  16  16
#     4  10  20  33  52  80 114 148 180 216 261 312
#     4   9  16  29  52  79 108 144 183 218 258 312
#     4  10  21  38  59  81 106 139 180 222 265 317
#     4  10  21  38  57  79 106 138 176 222 273 323
#     4   9  17  31  53  81 111 140 174 219 266 313
#
# _framework density 18.960353999999999
#
# number of rings (size 3 to 8) (size 9 to 14) (size 15 to 20)
#    0.000    2.400    2.000    0.600    0.000    4.000 
#    0.000    4.000    0.000    1.800    0.000    2.800 
#    0.000    0.000    0.000    0.000    0.000    0.000 
#
# Total GULP energy -495817.955009 kJ/mol
# GULP energy per Si atom -12395.448875 kJ/mol
# Density = 1.891720 g / cm^3
# Si number density = 18.960354 Si / 1000 Ang^3
#
#
#
# Elastic Constant Matrix: (Units=GPa)
#
#
# Indices 1 2 3 4 5 6 
#
# 1 50.3679 44.8979 32.1125 0.0000 0.0000 0.0000
# 2 44.8979 134.8505 74.6932 0.0000 0.0000 0.0000
# 3 32.1125 74.6932 146.3299 0.0000 0.0000 0.0000
# 4 0.0000 0.0000 0.0000 15.2769 0.0000 0.0000
# 5 0.0000 0.0000 0.0000 0.0000 6.2132 0.0000
# 6 0.0000 0.0000 0.0000 0.0000 0.0000 31.6646
#
#
#
# Elastic Compliance Matrix: (Units=1/GPa)
#
#
# Indices 1 2 3 4 5 6 
#
# 1 0.028637 -0.008440 -0.001976 0.000000 0.000000 0.000000
# 2 -0.008440 0.012826 -0.004695 0.000000 0.000000 0.000000
# 3 -0.001976 -0.004695 0.009664 0.000000 0.000000 0.000000
# 4 0.000000 0.000000 0.000000 0.065458 0.000000 0.000000
# 5 0.000000 0.000000 0.000000 0.000000 0.160947 0.000000
# 6 0.000000 0.000000 0.000000 0.000000 0.000000 0.031581
#
#
# Mechanical properties :
#
#
# Convention : Reuss Voigt Hill
#
# Bulk Modulus (GPa) = 47.83521 70.55061 59.19291
# Shear Modulus (GPa) = 14.43818 22.62061 18.52939
#
# Velocity S-wave (km/s) = 2.76251 3.45780 3.12952
# Velocity P-wave (km/s) = 5.95476 7.29604 6.65925
#
# Compressibility (1/GPa) = 0.02090510
#
# Stress axis : x y z
#
# Youngs Moduli (GPa) = 34.91941 77.96597 103.47619
#
# Poissons Ratio (x) = 0.65803 0.20451
# Poissons Ratio (y) = 0.29472 0.48580
# Poissons Ratio (z) = 0.06902 0.36604
#
# Static dielectric constant tensor:
#      x y z
#    x 3.238650 0.000000 0.000000 
#    y 0.000000 3.554170 0.000000 
#    z 0.000000 0.000000 3.659180 
# 
# 
# High freq. dielectric constant tensor:
#      x y z
#    x 1.707160 0.000000 0.000000 
#    y 0.000000 1.736500 0.000000 
#    z 0.000000 0.000000 1.736270 
# 
# From -- ./inp_files/49883.got.cif
#   From: 2010.03.12/outbox.cif.g09.slc.cpg/sg65_25_cif.got.tgz:49883.got - 2010.04.10 20:52:16.
