data_PCOD8270318
_publ_section_title
;
Structure prediction by ZEFSAII (Michael W. Deem and Ramdas Pophale) SiO2 
 PCOD8270318
Probable space group: C M M M
;
_chemical_formula_sum "Si O2"
_cell_formula_units_Z 88
_cell_length_a 8.899037
_cell_length_b 30.697644
_cell_length_c 18.050880
_cell_angle_alpha 90.000000
_cell_angle_beta 90.000000
_cell_angle_gamma 90.000000
_cell_volume 4931.129827
_symmetry_space_group_name_H-M "C M M M"
_symmetry_group_IT_number 65
_symmetry_cell_setting 'orthorhombic'
loop_
_space_group_symop_operation_xyz
x,y,z
-x,-y,z
x,-y,-z
-x,y,-z
-x,-y,-z
x,y,-z
-x,y,z
x,-y,z
1/2+x,1/2+y,z
1/2-x,1/2-y,z
1/2+x,1/2-y,-z
1/2-x,1/2+y,-z
1/2-x,1/2-y,-z
1/2+x,1/2+y,-z
1/2-x,1/2+y,z
1/2+x,1/2-y,z
loop_
_atom_site_type_symbol
_atom_site_label
_atom_site_fract_x
_atom_site_fract_y
_atom_site_fract_z
Si Si1 0.827657 0.676104 0.916170
Si Si2 0.671996 0.086466 0.155795
Si Si3 0.321623 0.000000 0.919703
Si Si4 0.176199 0.883264 0.297795
Si Si5 0.178226 0.205870 0.231747
Si Si6 0.678879 0.548838 0.583520
O O1 0.813653 0.624302 0.905171
O O2 0.729242 0.700008 0.853756
O O3 0.000000 0.691116 0.905967
O O4 0.772044 0.687374 0.000000
O O5 0.500000 0.082970 0.184007
O O6 0.734937 0.042586 0.121315
O O7 0.783630 0.092167 0.223398
O O8 0.500000 0.000000 0.925829
O O9 0.246785 0.000000 0.000000
O O10 0.235389 0.833331 0.286354
O O11 0.246270 0.911839 0.365528
O O12 0.000000 0.881448 0.308776
O O13 0.250000 0.250000 0.263998
O O14 0.000000 0.209144 0.232493
O O15 0.734810 0.557815 0.500000
O O16 0.500000 0.549778 0.587058
O O17 0.732945 0.500000 0.608619
#
# Coordination Sequence:
#
# PCOD8270318 Si02
#       6
#    16  16   8  16  16  16
#     4   9  17  30  47  65  87 117 154 196 240 281
#     4   9  17  28  43  64  89 121 158 192 227 271
#     4   9  16  26  41  61  86 119 160 198 225 259
#     4   9  18  31  48  71  95 120 151 190 231 270
#     4  10  20  33  48  67  91 119 154 193 236 282
#     4   8  14  26  47  75 102 126 152 182 219 266
#
# _framework density 17.845808000000002
#
# number of rings (size 3 to 8) (size 9 to 14) (size 15 to 20)
#    0.000    3.000    0.000    1.636    1.273    3.636 
#    0.000    0.000    0.000    3.273    0.000    1.273 
#    0.000    0.000    0.000    0.000    0.000    0.545 
#
# Total GULP energy -545139.148517 kJ/mol
# GULP energy per Si atom -12389.526103 kJ/mol
# Density = 1.780519 g / cm^3
# Si number density = 17.845808 Si / 1000 Ang^3
#
#
#
# Elastic Constant Matrix: (Units=GPa)
#
#
# Indices 1 2 3 4 5 6 
#
# 1 16.3827 24.2355 12.0817 0.0000 0.0000 0.0000
# 2 24.2355 154.6012 68.7708 0.0000 0.0000 0.0000
# 3 12.0817 68.7708 97.4229 0.0000 0.0000 0.0000
# 4 0.0000 0.0000 0.0000 21.5797 0.0000 0.0000
# 5 0.0000 0.0000 0.0000 0.0000 12.6184 0.0000
# 6 0.0000 0.0000 0.0000 0.0000 0.0000 17.7061
#
#
#
# Elastic Compliance Matrix: (Units=1/GPa)
#
#
# Indices 1 2 3 4 5 6 
#
# 1 0.079629 -0.011793 -0.001550 0.000000 0.000000 0.000000
# 2 -0.011793 0.011176 -0.006426 0.000000 0.000000 0.000000
# 3 -0.001550 -0.006426 0.014993 0.000000 0.000000 0.000000
# 4 0.000000 0.000000 0.000000 0.046340 0.000000 0.000000
# 5 0.000000 0.000000 0.000000 0.000000 0.079249 0.000000
# 6 0.000000 0.000000 0.000000 0.000000 0.000000 0.056478
#
#
# Mechanical properties :
#
#
# Convention : Reuss Voigt Hill
#
# Bulk Modulus (GPa) = 15.09242 53.17587 34.13414
# Shear Modulus (GPa) = 14.30654 21.26876 17.78765
#
# Velocity S-wave (km/s) = 2.83446 3.45600 3.16055
# Velocity P-wave (km/s) = 4.38038 6.76663 5.69978
#
# Compressibility (1/GPa) = 0.06625842
#
# Stress axis : x y z
#
# Youngs Moduli (GPa) = 12.55820 89.48075 66.69733
#
# Poissons Ratio (x) = 1.05527 0.10339
# Poissons Ratio (y) = 0.14810 0.42862
# Poissons Ratio (z) = 0.01947 0.57503
#
# Static dielectric constant tensor:
#      x y z
#    x 2.949460 0.000000 0.000000 
#    y 0.000000 3.696940 0.000000 
#    z 0.000000 0.000000 3.339870 
# 
# 
# High freq. dielectric constant tensor:
#      x y z
#    x 1.655720 0.000000 0.000000 
#    y 0.000000 1.703250 0.000000 
#    z 0.000000 0.000000 1.669070 
# 
# From -- ./inp_files/50439.got.cif
#   From: 2010.03.12/outbox.cif.g09.slc.cpg/sg65_26_cif.got.tgz:50439.got - 2010.04.10 20:52:16.
