data_PCOD8271385
_publ_section_title
;
Structure prediction by ZEFSAII (Michael W. Deem and Ramdas Pophale) SiO2 
 PCOD8271385
Probable space group: C M M M
;
_chemical_formula_sum "Si O2"
_cell_formula_units_Z 72
_cell_length_a 8.967735
_cell_length_b 17.859200
_cell_length_c 23.483085
_cell_angle_alpha 90.000000
_cell_angle_beta 90.000000
_cell_angle_gamma 90.000000
_cell_volume 3760.970415
_symmetry_space_group_name_H-M "C M M M"
_symmetry_group_IT_number 65
_symmetry_cell_setting 'orthorhombic'
loop_
_space_group_symop_operation_xyz
x,y,z
-x,-y,z
x,-y,-z
-x,y,-z
-x,-y,-z
x,y,-z
-x,y,z
x,-y,z
1/2+x,1/2+y,z
1/2-x,1/2-y,z
1/2+x,1/2-y,-z
1/2-x,1/2+y,-z
1/2-x,1/2-y,-z
1/2+x,1/2+y,-z
1/2-x,1/2+y,z
1/2+x,1/2-y,z
loop_
_atom_site_type_symbol
_atom_site_label
_atom_site_fract_x
_atom_site_fract_y
_atom_site_fract_z
Si Si1 0.667564 0.588987 0.937429
Si Si2 0.671055 0.089316 0.376844
Si Si3 0.675588 0.669784 0.724959
Si Si4 0.824220 0.418557 0.500000
Si Si5 0.831272 0.588992 0.826824
O O1 0.500000 0.618205 0.925870
O O2 0.668201 0.500000 0.936390
O O3 0.776300 0.619750 0.888227
O O4 0.722409 0.616776 0.000000
O O5 0.500000 0.110604 0.362260
O O6 0.780262 0.127787 0.332656
O O7 0.717864 0.121318 0.439995
O O8 0.690562 0.000000 0.374796
O O9 0.500000 0.679616 0.726676
O O10 0.750000 0.750000 0.727689
O O11 0.725887 0.621024 0.778402
O O12 0.746653 0.500000 0.500000
O O13 0.000000 0.430589 0.500000
O O14 0.821037 0.500000 0.824016
O O15 0.000000 0.616730 0.817339
#
# Coordination Sequence:
#
# PCOD8271385 Si02
#       5
#    16  16  16   8  16
#     4   8  14  26  46  74 107 139 171 210 255 301
#     4   9  17  33  58  85 111 138 171 210 254 307
#     4  12  25  39  54  73 102 139 179 221 266 313
#     4   7  12  26  52  83 110 137 167 203 250 303
#     4  10  20  34  54  80 108 138 174 215 259 310
#
# _framework density 19.143995
#
# number of rings (size 3 to 8) (size 9 to 14) (size 15 to 20)
#    0.000    2.556    0.000    5.333    0.000    4.889 
#    0.000    3.333    0.000    2.667    0.000    0.000 
#    0.000    0.000    0.000    0.000    0.000    0.000 
#
# Total GULP energy -446133.376223 kJ/mol
# GULP energy per Si atom -12392.593784 kJ/mol
# Density = 1.910042 g / cm^3
# Si number density = 19.143995 Si / 1000 Ang^3
#
#
#
# Elastic Constant Matrix: (Units=GPa)
#
#
# Indices 1 2 3 4 5 6 
#
# 1 130.1645 27.9178 70.4979 0.0000 0.0000 0.0000
# 2 27.9178 22.1720 24.8570 0.0000 0.0000 0.0000
# 3 70.4979 24.8570 170.0085 0.0000 0.0000 0.0000
# 4 0.0000 0.0000 0.0000 -7.5114 0.0000 0.0000
# 5 0.0000 0.0000 0.0000 0.0000 25.7583 0.0000
# 6 0.0000 0.0000 0.0000 0.0000 0.0000 29.1201
#
#
#
# Elastic Compliance Matrix: (Units=1/GPa)
#
#
# Indices 1 2 3 4 5 6 
#
# 1 0.011876 -0.011282 -0.003275 0.000000 0.000000 0.000000
# 2 -0.011282 0.064662 -0.004776 0.000000 0.000000 0.000000
# 3 -0.003275 -0.004776 0.007938 0.000000 0.000000 0.000000
# 4 0.000000 0.000000 0.000000 -0.133131 0.000000 0.000000
# 5 0.000000 0.000000 0.000000 0.000000 0.038822 0.000000
# 6 0.000000 0.000000 0.000000 0.000000 0.000000 0.034340
#
#
# Mechanical properties :
#
#
# Convention : Reuss Voigt Hill
#
# Bulk Modulus (GPa) = 21.82915 63.21005 42.51960
# Shear Modulus (GPa) = 63.73899 22.74489 43.24194
#
# Velocity S-wave (km/s) = 5.77640 3.45061 4.75781
# Velocity P-wave (km/s) = 7.47773 6.99754 7.24161
#
# Compressibility (1/GPa) = 0.04581031
#
# Stress axis : x y z
#
# Youngs Moduli (GPa) = 84.20169 15.46505 125.96870
#
# Poissons Ratio (x) = 0.17448 0.41257
# Poissons Ratio (y) = 0.94997 0.60161
# Poissons Ratio (z) = 0.27578 0.07386
#
# Static dielectric constant tensor:
#      x y z
#    x 3.484750 0.000000 0.000000 
#    y 0.000000 3.092750 0.000000 
#    z 0.000000 0.000000 4.148280 
# 
# 
# High freq. dielectric constant tensor:
#      x y z
#    x 1.733170 0.000000 0.000000 
#    y 0.000000 1.696400 0.000000 
#    z 0.000000 0.000000 1.772430 
# 
# From -- ./inp_files/67222.got.cif
#   From: 2010.03.12/outbox.cif.g09.slc.cpg/sg65_34_cif.got.tgz:67222.got - 2010.04.10 20:52:16.
