data_PCOD8271575
_publ_section_title
;
Structure prediction by ZEFSAII (Michael W. Deem and Ramdas Pophale) SiO2 
 PCOD8271575
Probable space group: C M M M
;
_chemical_formula_sum "Si O2"
_cell_formula_units_Z 120
_cell_length_a 19.297812
_cell_length_b 21.550247
_cell_length_c 14.727842
_cell_angle_alpha 90.000000
_cell_angle_beta 90.000000
_cell_angle_gamma 90.000000
_cell_volume 6124.906168
_symmetry_space_group_name_H-M "C M M M"
_symmetry_group_IT_number 65
_symmetry_cell_setting 'orthorhombic'
loop_
_space_group_symop_operation_xyz
x,y,z
-x,-y,z
x,-y,-z
-x,y,-z
-x,-y,-z
x,y,-z
-x,y,z
x,-y,z
1/2+x,1/2+y,z
1/2-x,1/2-y,z
1/2+x,1/2-y,-z
1/2-x,1/2+y,-z
1/2-x,1/2-y,-z
1/2+x,1/2+y,-z
1/2-x,1/2+y,z
1/2+x,1/2-y,z
loop_
_atom_site_type_symbol
_atom_site_label
_atom_site_fract_x
_atom_site_fract_y
_atom_site_fract_z
Si Si1 0.079559 0.166844 0.395406
Si Si2 0.626428 0.343806 0.103776
Si Si3 0.333372 0.747315 0.740946
Si Si4 0.243401 0.430788 0.099342
Si Si5 0.815794 0.385327 0.273745
Si Si6 0.193623 0.927665 0.395365
Si Si7 0.426372 0.070965 0.597057
Si Si8 0.000000 0.071147 0.892086
O O1 0.079360 0.187643 0.500000
O O2 0.127606 0.216025 0.343279
O O3 0.115675 0.099185 0.384640
O O4 0.000000 0.163634 0.358711
O O5 0.637676 0.283452 0.166333
O O6 0.695618 0.382565 0.110615
O O7 0.566137 0.389028 0.141333
O O8 0.611389 0.322249 0.000000
O O9 0.250000 0.750000 0.734554
O O10 0.352581 0.819203 0.737668
O O11 0.273730 0.500000 0.111522
O O12 0.186940 0.416110 0.174882
O O13 0.208693 0.423575 0.000000
O O14 0.741662 0.387603 0.326358
O O15 0.867262 0.426502 0.329887
O O16 0.219070 0.919883 0.500000
O O17 0.193690 0.000000 0.367099
O O18 0.404037 0.101710 0.500000
O O19 0.500000 0.101023 0.629102
O O20 0.439504 0.000000 0.578810
O O21 0.000000 0.000000 0.852896
O O22 0.000000 0.066316 0.000000
#
# Coordination Sequence:
#
# PCOD8271575 Si02
#       8
#    16  16  16  16  16  16  16   8
#     4  10  23  42  62  85 118 159 200 247 300 357
#     4  10  21  38  61  89 122 158 197 242 295 352
#     4  12  24  40  57  83 117 162 208 246 287 343
#     4  10  20  34  56  86 118 151 192 242 290 346
#     4  12  22  36  58  85 118 158 199 245 295 352
#     4  10  20  35  60  92 121 152 194 245 304 370
#     4   9  19  37  61  89 117 144 184 244 312 369
#     4   9  18  36  64  96 127 159 194 241 307 365
#
# _framework density 19.592136
#
# number of rings (size 3 to 8) (size 9 to 14) (size 15 to 20)
#    0.000    1.667    2.667    2.400    0.933    5.600 
#    0.000    3.333    0.000    0.400    0.000    1.867 
#    0.000    0.000    0.000    0.000    0.000    0.000 
#
# Total GULP energy -743450.685694 kJ/mol
# GULP energy per Si atom -12390.844762 kJ/mol
# Density = 1.954754 g / cm^3
# Si number density = 19.592136 Si / 1000 Ang^3
#
#
#
# Elastic Constant Matrix: (Units=GPa)
#
#
# Indices 1 2 3 4 5 6 
#
# 1 112.4134 30.4460 56.3773 0.0000 0.0000 0.0000
# 2 30.4460 106.7194 44.3606 0.0000 0.0000 0.0000
# 3 56.3773 44.3606 116.0630 0.0000 0.0000 0.0000
# 4 0.0000 0.0000 0.0000 21.0564 0.0000 0.0000
# 5 0.0000 0.0000 0.0000 0.0000 135.0622 0.0000
# 6 0.0000 0.0000 0.0000 0.0000 0.0000 27.4466
#
#
#
# Elastic Compliance Matrix: (Units=1/GPa)
#
#
# Indices 1 2 3 4 5 6 
#
# 1 0.011884 -0.001178 -0.005322 0.000000 0.000000 0.000000
# 2 -0.001178 0.011257 -0.003730 0.000000 0.000000 0.000000
# 3 -0.005322 -0.003730 0.012627 0.000000 0.000000 0.000000
# 4 0.000000 0.000000 0.000000 0.047492 0.000000 0.000000
# 5 0.000000 0.000000 0.000000 0.000000 0.007404 0.000000
# 6 0.000000 0.000000 0.000000 0.000000 0.000000 0.036434
#
#
# Mechanical properties :
#
#
# Convention : Reuss Voigt Hill
#
# Bulk Modulus (GPa) = 65.33081 66.39595 65.86338
# Shear Modulus (GPa) = 32.75209 50.31384 41.53297
#
# Velocity S-wave (km/s) = 4.09307 5.07310 4.60921
# Velocity P-wave (km/s) = 7.46696 8.26304 7.87507
#
# Compressibility (1/GPa) = 0.01530671
#
# Stress axis : x y z
#
# Youngs Moduli (GPa) = 84.14623 88.83318 79.19452
#
# Poissons Ratio (x) = 0.10465 0.42151
# Poissons Ratio (y) = 0.09913 0.29542
# Poissons Ratio (z) = 0.44786 0.33138
#
# Static dielectric constant tensor:
#      x y z
#    x 3.561170 0.000000 0.000000 
#    y 0.000000 3.689090 0.000000 
#    z 0.000000 0.000000 3.770730 
# 
# 
# High freq. dielectric constant tensor:
#      x y z
#    x 1.752310 0.000000 0.000000 
#    y 0.000000 1.756950 0.000000 
#    z 0.000000 0.000000 1.768360 
# 
# From -- ./inp_files/44699.got.cif
#   From: 2010.03.12/outbox.cif.g09.slc.cpg/sg65_23_cif.got.tgz:44699.got - 2010.04.10 20:52:16.
