data_PCOD8271414
_publ_section_title
;
Structure prediction by ZEFSAII (Michael W. Deem and Ramdas Pophale) SiO2 
 PCOD8271414
Probable space group: C M M M
;
_chemical_formula_sum "Si O2"
_cell_formula_units_Z 48
_cell_length_a 14.100963
_cell_length_b 22.817487
_cell_length_c 7.865111
_cell_angle_alpha 90.000000
_cell_angle_beta 90.000000
_cell_angle_gamma 90.000000
_cell_volume 2530.587981
_symmetry_space_group_name_H-M "C M M M"
_symmetry_group_IT_number 65
_symmetry_cell_setting 'orthorhombic'
loop_
_space_group_symop_operation_xyz
x,y,z
-x,-y,z
x,-y,-z
-x,y,-z
-x,-y,-z
x,y,-z
-x,y,z
x,-y,z
1/2+x,1/2+y,z
1/2-x,1/2-y,z
1/2+x,1/2-y,-z
1/2-x,1/2+y,-z
1/2-x,1/2-y,-z
1/2+x,1/2+y,-z
1/2-x,1/2+y,z
1/2+x,1/2-y,z
loop_
_atom_site_type_symbol
_atom_site_label
_atom_site_fract_x
_atom_site_fract_y
_atom_site_fract_z
Si Si1 0.390885 0.161585 0.311332
Si Si2 0.260685 0.065389 0.188876
Si Si3 0.111763 0.739450 0.000000
Si Si4 0.612647 0.372374 0.000000
O O1 0.380950 0.189589 0.500000
O O2 0.500000 0.145423 0.272919
O O3 0.329776 0.102162 0.309360
O O4 0.351548 0.206684 0.169774
O O5 0.248531 0.000000 0.264927
O O6 0.307299 0.062900 0.000000
O O7 0.156442 0.096107 0.168682
O O8 0.150354 0.805452 0.000000
O O9 0.000000 0.742374 0.000000
O O10 0.500000 0.378506 0.000000
#
# Coordination Sequence:
#
# PCOD8271414 Si02
#       4
#    16  16   8   8
#     4  10  20  34  54  80 111 144 173 209 263 321
#     4   9  19  33  52  78 104 137 178 218 256 308
#     4   9  17  33  54  77 107 138 176 220 259 313
#     4   9  18  34  57  78 102 141 179 220 274 313
#
# _framework density 18.967924
#
# number of rings (size 3 to 8) (size 9 to 14) (size 15 to 20)
#    1.000    1.667    1.667    0.000    0.000    5.333 
#    0.000    6.667    0.000    3.000    0.000    2.333 
#    0.000    0.000    0.000    0.000    0.000    0.000 
#
# Total GULP energy -297360.014497 kJ/mol
# GULP energy per Si atom -12390.000604 kJ/mol
# Density = 1.892475 g / cm^3
# Si number density = 18.967924 Si / 1000 Ang^3
#
#
#
# Elastic Constant Matrix: (Units=GPa)
#
#
# Indices 1 2 3 4 5 6 
#
# 1 86.9704 45.6783 27.8436 0.0000 0.0000 0.0000
# 2 45.6783 151.5397 38.9634 0.0000 0.0000 0.0000
# 3 27.8436 38.9634 92.5889 0.0000 0.0000 0.0000
# 4 0.0000 0.0000 0.0000 7.8913 0.0000 0.0000
# 5 0.0000 0.0000 0.0000 0.0000 17.0099 0.0000
# 6 0.0000 0.0000 0.0000 0.0000 0.0000 27.5994
#
#
#
# Elastic Compliance Matrix: (Units=1/GPa)
#
#
# Indices 1 2 3 4 5 6 
#
# 1 0.014273 -0.003587 -0.002783 0.000000 0.000000 0.000000
# 2 -0.003587 0.008301 -0.002415 0.000000 0.000000 0.000000
# 3 -0.002783 -0.002415 0.012653 0.000000 0.000000 0.000000
# 4 0.000000 0.000000 0.000000 0.126722 0.000000 0.000000
# 5 0.000000 0.000000 0.000000 0.000000 0.058789 0.000000
# 6 0.000000 0.000000 0.000000 0.000000 0.000000 0.036233
#
#
# Mechanical properties :
#
#
# Convention : Reuss Voigt Hill
#
# Bulk Modulus (GPa) = 56.62860 61.78552 59.20706
# Shear Modulus (GPa) = 17.83004 25.07437 21.45221
#
# Velocity S-wave (km/s) = 3.06928 3.63979 3.36664
# Velocity P-wave (km/s) = 6.51770 7.09285 6.81135
#
# Compressibility (1/GPa) = 0.01765892
#
# Stress axis : x y z
#
# Youngs Moduli (GPa) = 70.06289 120.46878 79.03016
#
# Poissons Ratio (x) = 0.43209 0.21993
# Poissons Ratio (y) = 0.25130 0.19083
# Poissons Ratio (z) = 0.19497 0.29088
#
# Static dielectric constant tensor:
#      x y z
#    x 3.198090 0.000000 0.000000 
#    y 0.000000 3.583940 0.000000 
#    z 0.000000 0.000000 3.259060 
# 
# 
# High freq. dielectric constant tensor:
#      x y z
#    x 1.725230 0.000000 0.000000 
#    y 0.000000 1.736920 0.000000 
#    z 0.000000 0.000000 1.710530 
# 
# From -- ./inp_files/6418.got.cif
#   From: 2010.03.12/outbox.cif.g09.slc.cpg/sg65_4_cif.got.tgz:6418.got - 2010.04.10 20:52:16.
