data_PCOD8271104
_publ_section_title
;
Structure prediction by ZEFSAII (Michael W. Deem and Ramdas Pophale) SiO2 
 PCOD8271104
Probable space group: C M M M
;
_chemical_formula_sum "Si O2"
_cell_formula_units_Z 88
_cell_length_a 24.267017
_cell_length_b 22.673401
_cell_length_c 8.891111
_cell_angle_alpha 90.000000
_cell_angle_beta 90.000000
_cell_angle_gamma 90.000000
_cell_volume 4892.029819
_symmetry_space_group_name_H-M "C M M M"
_symmetry_group_IT_number 65
_symmetry_cell_setting 'orthorhombic'
loop_
_space_group_symop_operation_xyz
x,y,z
-x,-y,z
x,-y,-z
-x,y,-z
-x,-y,-z
x,y,-z
-x,y,z
x,-y,z
1/2+x,1/2+y,z
1/2-x,1/2-y,z
1/2+x,1/2-y,-z
1/2-x,1/2+y,-z
1/2-x,1/2-y,-z
1/2+x,1/2+y,-z
1/2-x,1/2+y,z
1/2+x,1/2-y,z
loop_
_atom_site_type_symbol
_atom_site_label
_atom_site_fract_x
_atom_site_fract_y
_atom_site_fract_z
Si Si1 0.265088 0.432132 0.676676
Si Si2 0.152370 0.567161 0.174975
Si Si3 0.436312 0.716857 0.324777
Si Si4 0.438182 0.500000 0.821069
Si Si5 0.937198 0.338229 0.826177
Si Si6 0.128687 0.887257 0.178172
O O1 0.269293 0.423253 0.500000
O O2 0.275026 0.500000 0.724429
O O3 0.205241 0.411242 0.731805
O O4 0.310109 0.391171 0.755877
O O5 0.136856 0.500000 0.216156
O O6 0.100689 0.607065 0.221917
O O7 0.166703 0.573566 0.000000
O O8 0.423820 0.709307 0.500000
O O9 0.500000 0.703755 0.286637
O O10 0.420516 0.782661 0.275081
O O11 0.398885 0.672756 0.231045
O O12 0.500000 0.500000 0.755138
O O13 0.407149 0.442163 0.760196
O O14 0.439520 0.500000 0.000000
O O15 0.000000 0.357482 0.795380
O O16 0.928525 0.320927 0.000000
O O17 0.132187 0.887928 0.000000
#
# Coordination Sequence:
#
# PCOD8271104 Si02
#       6
#    16  16  16   8  16  16
#     4  10  20  34  52  75 107 143 178 216 262 315
#     4   9  18  33  55  82 110 138 172 214 261 314
#     4  10  21  36  53  75 106 143 179 216 262 315
#     4   9  18  30  47  75 105 131 166 215 264 307
#     4   9  18  34  56  81 108 139 174 213 260 314
#     4  11  20  33  54  77 104 138 179 223 265 312
#
# _framework density 17.988441999999999
#
# number of rings (size 3 to 8) (size 9 to 14) (size 15 to 20)
#    0.000    2.273    0.909    2.182    0.000    3.636 
#    0.000    2.727    0.000    7.636    0.000    5.091 
#    0.000    0.000    0.000    0.000    0.000    0.000 
#
# Total GULP energy -545770.377319 kJ/mol
# GULP energy per Si atom -12403.872212 kJ/mol
# Density = 1.794750 g / cm^3
# Si number density = 17.988442 Si / 1000 Ang^3
#
#
#
# Elastic Constant Matrix: (Units=GPa)
#
#
# Indices 1 2 3 4 5 6 
#
# 1 128.4139 76.5517 47.1356 0.0000 0.0000 0.0000
# 2 76.5517 97.5333 36.2604 0.0000 0.0000 0.0000
# 3 47.1356 36.2604 64.3018 0.0000 0.0000 0.0000
# 4 0.0000 0.0000 0.0000 23.4470 0.0000 0.0000
# 5 0.0000 0.0000 0.0000 0.0000 25.3791 0.0000
# 6 0.0000 0.0000 0.0000 0.0000 0.0000 28.7799
#
#
#
# Elastic Compliance Matrix: (Units=1/GPa)
#
#
# Indices 1 2 3 4 5 6 
#
# 1 0.016269 -0.010546 -0.005978 0.000000 0.000000 0.000000
# 2 -0.010546 0.019809 -0.003440 0.000000 0.000000 0.000000
# 3 -0.005978 -0.003440 0.021874 0.000000 0.000000 0.000000
# 4 0.000000 0.000000 0.000000 0.042649 0.000000 0.000000
# 5 0.000000 0.000000 0.000000 0.000000 0.039402 0.000000
# 6 0.000000 0.000000 0.000000 0.000000 0.000000 0.034746
#
#
# Mechanical properties :
#
#
# Convention : Reuss Voigt Hill
#
# Bulk Modulus (GPa) = 55.48540 67.79382 61.63961
# Shear Modulus (GPa) = 22.65652 24.20798 23.43225
#
# Velocity S-wave (km/s) = 3.55280 3.67243 3.61311
# Velocity P-wave (km/s) = 6.90955 7.46670 7.19352
#
# Compressibility (1/GPa) = 0.01802276
#
# Stress axis : x y z
#
# Youngs Moduli (GPa) = 61.46732 50.48124 45.71677
#
# Poissons Ratio (x) = 0.53239 0.27332
# Poissons Ratio (y) = 0.64826 0.15726
# Poissons Ratio (z) = 0.36748 0.17364
#
# Static dielectric constant tensor:
#      x y z
#    x 3.377020 0.000000 0.000000 
#    y 0.000000 3.259670 0.000000 
#    z 0.000000 0.000000 3.228870 
# 
# 
# High freq. dielectric constant tensor:
#      x y z
#    x 1.699190 0.000000 0.000000 
#    y 0.000000 1.686360 0.000000 
#    z 0.000000 0.000000 1.693050 
# 
# From -- ./inp_files/11699.got.cif
#   From: 2010.03.12/outbox.cif.g09.slc.cpg/sg65_6_cif.got.tgz:11699.got - 2010.04.10 20:52:16.
