data_PCOD8271387
_publ_section_title
;
Structure prediction by ZEFSAII (Michael W. Deem and Ramdas Pophale) SiO2 
 PCOD8271387
Probable space group: C M M M
;
_chemical_formula_sum "Si O2"
_cell_formula_units_Z 104
_cell_length_a 19.764985
_cell_length_b 9.034824
_cell_length_c 31.939270
_cell_angle_alpha 90.000000
_cell_angle_beta 90.000000
_cell_angle_gamma 90.000000
_cell_volume 5703.496399
_symmetry_space_group_name_H-M "C M M M"
_symmetry_group_IT_number 65
_symmetry_cell_setting 'orthorhombic'
loop_
_space_group_symop_operation_xyz
x,y,z
-x,-y,z
x,-y,-z
-x,y,-z
-x,-y,-z
x,y,-z
-x,y,z
x,-y,z
1/2+x,1/2+y,z
1/2-x,1/2-y,z
1/2+x,1/2-y,-z
1/2-x,1/2+y,-z
1/2-x,1/2-y,-z
1/2+x,1/2+y,-z
1/2-x,1/2+y,z
1/2+x,1/2-y,z
loop_
_atom_site_type_symbol
_atom_site_label
_atom_site_fract_x
_atom_site_fract_y
_atom_site_fract_z
Si Si1 0.419736 0.667172 0.500000
Si Si2 0.180720 0.174093 0.644663
Si Si3 0.579592 0.827082 0.416169
Si Si4 0.818043 0.173141 0.047890
Si Si5 0.921378 0.330483 0.894310
Si Si6 0.817606 0.171436 0.258262
Si Si7 0.421518 0.830478 0.798753
O O1 0.390369 0.500000 0.500000
O O2 0.500000 0.663202 0.500000
O O3 0.393977 0.754650 0.540732
O O4 0.250000 0.250000 0.628970
O O5 0.117285 0.246896 0.621647
O O6 0.168991 0.208250 0.693354
O O7 0.184209 0.000000 0.635081
O O8 0.500000 0.800556 0.409792
O O9 0.597353 0.000000 0.416965
O O10 0.750000 0.250000 0.064573
O O11 0.881055 0.222830 0.075427
O O12 0.807822 0.000000 0.052781
O O13 0.832467 0.219241 0.000000
O O14 0.905067 0.500000 0.905780
O O15 0.900412 0.297915 0.846517
O O16 0.000000 0.296730 0.900951
O O17 0.750000 0.250000 0.241859
O O18 0.881358 0.224477 0.231984
O O19 0.806843 0.000000 0.250571
O O20 0.500000 0.795535 0.792222
O O21 0.405622 0.000000 0.787304
#
# Coordination Sequence:
#
# PCOD8271387 Si02
#       7
#     8  16  16  16  16  16  16
#     4   9  17  31  52  77 106 139 174 215 261 305
#     4  10  21  37  55  76 105 139 175 216 262 311
#     4  10  20  34  54  80 108 139 176 215 257 309
#     4  10  21  36  54  77 105 137 174 216 260 306
#     4   9  19  36  56  78 105 138 174 211 256 310
#     4  10  21  36  55  78 104 137 176 216 259 310
#     4   9  19  36  56  78 106 138 172 213 259 307
#
# _framework density 18.234428999999999
#
# number of rings (size 3 to 8) (size 9 to 14) (size 15 to 20)
#    0.000    2.385    0.000    3.000    0.000    7.385 
#    0.000    6.538    0.000    0.000    0.000    0.000 
#    0.000    0.000    0.000    0.000    0.000    0.000 
#
# Total GULP energy -644972.398305 kJ/mol
# GULP energy per Si atom -12403.315352 kJ/mol
# Density = 1.819293 g / cm^3
# Si number density = 18.234429 Si / 1000 Ang^3
#
#
#
# Elastic Constant Matrix: (Units=GPa)
#
#
# Indices 1 2 3 4 5 6 
#
# 1 79.0311 53.7235 56.2698 0.0000 0.0000 0.0000
# 2 53.7235 109.1347 58.8576 0.0000 0.0000 0.0000
# 3 56.2698 58.8576 85.6680 0.0000 0.0000 0.0000
# 4 0.0000 0.0000 0.0000 36.7806 0.0000 0.0000
# 5 0.0000 0.0000 0.0000 0.0000 6.9118 0.0000
# 6 0.0000 0.0000 0.0000 0.0000 0.0000 37.8907
#
#
#
# Elastic Compliance Matrix: (Units=1/GPa)
#
#
# Indices 1 2 3 4 5 6 
#
# 1 0.025795 -0.005656 -0.013057 0.000000 0.000000 0.000000
# 2 -0.005656 0.015797 -0.007138 0.000000 0.000000 0.000000
# 3 -0.013057 -0.007138 0.025153 0.000000 0.000000 0.000000
# 4 0.000000 0.000000 0.000000 0.027188 0.000000 0.000000
# 5 0.000000 0.000000 0.000000 0.000000 0.144680 0.000000
# 6 0.000000 0.000000 0.000000 0.000000 0.000000 0.026392
#
#
# Mechanical properties :
#
#
# Convention : Reuss Voigt Hill
#
# Bulk Modulus (GPa) = 66.47670 67.94840 67.21255
# Shear Modulus (GPa) = 15.54143 23.31549 19.42846
#
# Velocity S-wave (km/s) = 2.92261 3.57970 3.26771
# Velocity P-wave (km/s) = 6.92276 7.37770 7.15385
#
# Compressibility (1/GPa) = 0.01504286
#
# Stress axis : x y z
#
# Youngs Moduli (GPa) = 38.76793 63.30338 39.75633
#
# Poissons Ratio (x) = 0.35805 0.51909
# Poissons Ratio (y) = 0.21928 0.28378
# Poissons Ratio (z) = 0.50618 0.45186
#
# Static dielectric constant tensor:
#      x y z
#    x 3.234430 0.000000 0.000000 
#    y 0.000000 3.428920 0.000000 
#    z 0.000000 0.000000 3.364490 
# 
# 
# High freq. dielectric constant tensor:
#      x y z
#    x 1.699730 0.000000 0.000000 
#    y 0.000000 1.717980 0.000000 
#    z 0.000000 0.000000 1.707530 
# 
# From -- ./inp_files/75475.got.cif
#   From: 2010.03.12/outbox.cif.g09.slc.cpg/sg65_38_cif.got.tgz:75475.got - 2010.04.10 20:52:16.
