data_PCOD8271889
_publ_section_title
;
Structure prediction by ZEFSAII (Michael W. Deem and Ramdas Pophale) SiO2 
 PCOD8271889
Probable space group: C M M M
;
_chemical_formula_sum "Si O2"
_cell_formula_units_Z 104
_cell_length_a 28.595409
_cell_length_b 19.320666
_cell_length_c 8.791111
_cell_angle_alpha 90.000000
_cell_angle_beta 90.000000
_cell_angle_gamma 90.000000
_cell_volume 4856.933633
_symmetry_space_group_name_H-M "C M M M"
_symmetry_group_IT_number 65
_symmetry_cell_setting 'orthorhombic'
loop_
_space_group_symop_operation_xyz
x,y,z
-x,-y,z
x,-y,-z
-x,y,-z
-x,-y,-z
x,y,-z
-x,y,z
x,-y,z
1/2+x,1/2+y,z
1/2-x,1/2-y,z
1/2+x,1/2-y,-z
1/2-x,1/2+y,-z
1/2-x,1/2-y,-z
1/2+x,1/2+y,-z
1/2-x,1/2+y,z
1/2+x,1/2-y,z
loop_
_atom_site_type_symbol
_atom_site_label
_atom_site_fract_x
_atom_site_fract_y
_atom_site_fract_z
Si Si1 0.606628 0.367375 0.823110
Si Si2 0.275236 0.181326 0.329229
Si Si3 0.051545 0.000000 0.180653
Si Si4 0.051471 0.751668 0.328186
Si Si5 0.052066 0.608951 0.823003
Si Si6 0.692373 0.578758 0.669891
Si Si7 0.648589 0.076630 0.320029
O O1 0.578273 0.432946 0.760540
O O2 0.591576 0.303654 0.720930
O O3 0.660802 0.381364 0.792316
O O4 0.597565 0.352341 0.000000
O O5 0.287986 0.205874 0.500000
O O6 0.250000 0.250000 0.250040
O O7 0.241599 0.115970 0.329323
O O8 0.321848 0.144194 0.253618
O O9 0.000000 0.000000 0.251453
O O10 0.050088 0.000000 0.000000
O O11 0.061766 0.725686 0.500000
O O12 0.053159 0.689946 0.209637
O O13 0.000000 0.786906 0.319322
O O14 0.094619 0.574706 0.732664
O O15 0.000000 0.580160 0.775732
O O16 0.060447 0.595277 0.000000
O O17 0.670397 0.581865 0.500000
O O18 0.699525 0.500000 0.723085
O O19 0.650082 0.084709 0.500000
O O20 0.669169 0.000000 0.274798
#
# Coordination Sequence:
#
# PCOD8271889 Si02
#       7
#    16  16   8  16  16  16  16
#     4  11  21  34  53  79 113 153 197 244 299 358
#     4   9  19  36  60  89 117 154 202 251 303 360
#     4   9  18  32  49  71 105 151 199 241 286 345
#     4  10  21  37  57  82 113 151 196 247 301 356
#     4  10  22  40  62  90 124 161 200 244 301 366
#     4  10  20  35  56  82 115 152 194 245 300 356
#     4  10  21  38  62  92 126 163 205 253 306 362
#
# _framework density 21.412686999999998
#
# number of rings (size 3 to 8) (size 9 to 14) (size 15 to 20)
#    0.000    2.077    0.769    2.308    2.154    4.923 
#    0.000    2.308    0.000    4.615    0.000    0.000 
#    0.000    0.000    0.000    0.000    0.000    0.000 
#
# Total GULP energy -644199.745918 kJ/mol
# GULP energy per Si atom -12388.456652 kJ/mol
# Density = 2.136395 g / cm^3
# Si number density = 21.412687 Si / 1000 Ang^3
#
#
#
# Elastic Constant Matrix: (Units=GPa)
#
#
# Indices 1 2 3 4 5 6 
#
# 1 102.1173 40.6656 14.9404 0.0000 0.0000 0.0000
# 2 40.6656 109.8515 15.0691 0.0000 0.0000 0.0000
# 3 14.9404 15.0691 28.7407 0.0000 0.0000 0.0000
# 4 0.0000 0.0000 0.0000 18.8255 0.0000 0.0000
# 5 0.0000 0.0000 0.0000 0.0000 18.4942 0.0000
# 6 0.0000 0.0000 0.0000 0.0000 0.0000 34.0070
#
#
#
# Elastic Compliance Matrix: (Units=1/GPa)
#
#
# Indices 1 2 3 4 5 6 
#
# 1 0.011936 -0.003844 -0.004189 0.000000 0.000000 0.000000
# 2 -0.003844 0.011047 -0.003794 0.000000 0.000000 0.000000
# 3 -0.004189 -0.003794 0.038961 0.000000 0.000000 0.000000
# 4 0.000000 0.000000 0.000000 0.053120 0.000000 0.000000
# 5 0.000000 0.000000 0.000000 0.000000 0.054071 0.000000
# 6 0.000000 0.000000 0.000000 0.000000 0.000000 0.029406
#
#
# Mechanical properties :
#
#
# Convention : Reuss Voigt Hill
#
# Bulk Modulus (GPa) = 26.11683 42.45108 34.28396
# Shear Modulus (GPa) = 21.28046 25.60095 23.44071
#
# Velocity S-wave (km/s) = 3.15592 3.46149 3.31223
# Velocity P-wave (km/s) = 5.05006 5.98700 5.53838
#
# Compressibility (1/GPa) = 0.03828949
#
# Stress axis : x y z
#
# Youngs Moduli (GPa) = 83.77754 90.52565 25.66689
#
# Poissons Ratio (x) = 0.34798 0.10753
# Poissons Ratio (y) = 0.32204 0.09737
# Poissons Ratio (z) = 0.35098 0.34342
#
# Static dielectric constant tensor:
#      x y z
#    x 4.052310 0.000000 0.000000 
#    y 0.000000 4.072210 0.000000 
#    z 0.000000 0.000000 3.497230 
# 
# 
# High freq. dielectric constant tensor:
#      x y z
#    x 1.847720 0.000000 0.000000 
#    y 0.000000 1.847880 0.000000 
#    z 0.000000 0.000000 1.798190 
# 
# From -- ./inp_files/16507.got.cif
#   From: 2010.03.12/outbox.cif.g09.slc.cpg/sg65_9_cif.got.tgz:16507.got - 2010.04.10 20:52:16.
