data_PCOD8271631
_publ_section_title
;
Structure prediction by ZEFSAII (Michael W. Deem and Ramdas Pophale) SiO2 
 PCOD8271631
Probable space group: C M M M
;
_chemical_formula_sum "Si O2"
_cell_formula_units_Z 96
_cell_length_a 24.642095
_cell_length_b 8.910492
_cell_length_c 21.788848
_cell_angle_alpha 90.000000
_cell_angle_beta 90.000000
_cell_angle_gamma 90.000000
_cell_volume 4784.246870
_symmetry_space_group_name_H-M "C M M M"
_symmetry_group_IT_number 65
_symmetry_cell_setting 'orthorhombic'
loop_
_space_group_symop_operation_xyz
x,y,z
-x,-y,z
x,-y,-z
-x,y,-z
-x,-y,-z
x,y,-z
-x,y,z
x,-y,z
1/2+x,1/2+y,z
1/2-x,1/2-y,z
1/2+x,1/2-y,-z
1/2-x,1/2+y,-z
1/2-x,1/2-y,-z
1/2+x,1/2+y,-z
1/2-x,1/2+y,z
1/2+x,1/2-y,z
loop_
_atom_site_type_symbol
_atom_site_label
_atom_site_fract_x
_atom_site_fract_y
_atom_site_fract_z
Si Si1 0.000000 0.179276 0.299424
Si Si2 0.090939 0.828287 0.067692
Si Si3 0.803574 0.674696 0.242243
Si Si4 0.500000 0.321646 0.158493
Si Si5 0.195817 0.323780 0.896802
Si Si6 0.806001 0.826988 0.427599
Si Si7 0.890146 0.677777 0.658830
O O1 0.000000 0.237446 0.228504
O O2 0.948093 0.242562 0.335234
O O3 0.000000 0.000000 0.302030
O O4 0.052092 0.761642 0.120851
O O5 0.145141 0.731124 0.064299
O O6 0.105752 0.000000 0.082952
O O7 0.063417 0.817048 0.000000
O O8 0.792865 0.500000 0.245022
O O9 0.750000 0.750000 0.271182
O O10 0.812969 0.731257 0.173174
O O11 0.856389 0.720505 0.280475
O O12 0.500000 0.500000 0.156308
O O13 0.201575 0.500000 0.902451
O O14 0.250000 0.250000 0.924250
O O15 0.812599 0.812297 0.500000
O O16 0.750000 0.750000 0.405596
O O17 0.857767 0.742174 0.399320
O O18 0.805012 0.000000 0.406403
O O19 0.898173 0.500000 0.651033
#
# Coordination Sequence:
#
# PCOD8271631 Si02
#       7
#     8  16  16   8  16  16  16
#     4  11  23  38  58  83 112 148 189 231 280 337
#     4  10  20  35  56  80 105 136 177 224 273 327
#     4   9  19  33  52  79 108 140 177 223 277 330
#     4   9  19  37  60  83 107 140 181 226 276 331
#     4  10  20  35  53  75 106 141 178 220 271 331
#     4  10  21  38  61  90 123 157 193 233 276 322
#     4  11  22  37  57  83 116 151 190 234 281 333
#
# _framework density 20.065853000000001
#
# number of rings (size 3 to 8) (size 9 to 14) (size 15 to 20)
#    0.000    2.000    0.000    3.500    0.000    6.000 
#    0.000    1.667    0.000    3.500    0.000    0.000 
#    0.000    0.000    0.000    0.000    0.000    0.000 
#
# Total GULP energy -595277.945605 kJ/mol
# GULP energy per Si atom -12401.623867 kJ/mol
# Density = 2.002018 g / cm^3
# Si number density = 20.065853 Si / 1000 Ang^3
#
#
#
# Elastic Constant Matrix: (Units=GPa)
#
#
# Indices 1 2 3 4 5 6 
#
# 1 158.0632 54.2122 43.9515 0.0000 0.0000 0.0000
# 2 54.2122 84.5414 32.6546 0.0000 0.0000 0.0000
# 3 43.9515 32.6546 69.6457 0.0000 0.0000 0.0000
# 4 0.0000 0.0000 0.0000 23.7462 0.0000 0.0000
# 5 0.0000 0.0000 0.0000 0.0000 26.2291 0.0000
# 6 0.0000 0.0000 0.0000 0.0000 0.0000 36.1854
#
#
#
# Elastic Compliance Matrix: (Units=1/GPa)
#
#
# Indices 1 2 3 4 5 6 
#
# 1 0.008771 -0.004257 -0.003539 0.000000 0.000000 0.000000
# 2 -0.004257 0.016511 -0.005055 0.000000 0.000000 0.000000
# 3 -0.003539 -0.005055 0.018962 0.000000 0.000000 0.000000
# 4 0.000000 0.000000 0.000000 0.042112 0.000000 0.000000
# 5 0.000000 0.000000 0.000000 0.000000 0.038126 0.000000
# 6 0.000000 0.000000 0.000000 0.000000 0.000000 0.027635
#
#
# Mechanical properties :
#
#
# Convention : Reuss Voigt Hill
#
# Bulk Modulus (GPa) = 53.93309 63.76518 58.84914
# Shear Modulus (GPa) = 27.17407 29.32762 28.25085
#
# Velocity S-wave (km/s) = 3.68400 3.82719 3.75628
# Velocity P-wave (km/s) = 6.71060 7.16776 6.94295
#
# Compressibility (1/GPa) = 0.01854149
#
# Stress axis : x y z
#
# Youngs Moduli (GPa) = 114.01474 60.56572 52.73794
#
# Poissons Ratio (x) = 0.25785 0.18663
# Poissons Ratio (y) = 0.48540 0.26658
# Poissons Ratio (z) = 0.40348 0.30614
#
# Static dielectric constant tensor:
#      x y z
#    x 3.645900 0.000000 0.000000 
#    y 0.000000 3.520630 0.000000 
#    z 0.000000 0.000000 3.702450 
# 
# 
# High freq. dielectric constant tensor:
#      x y z
#    x 1.784470 0.000000 0.000000 
#    y 0.000000 1.777270 0.000000 
#    z 0.000000 0.000000 1.782120 
# 
# From -- ./inp_files/71471.got.cif
#   From: 2010.03.12/outbox.cif.g09.slc.cpg/sg65_36_cif.got.tgz:71471.got - 2010.04.10 20:52:16.
