data_PCOD8271292
_publ_section_title
;
Structure prediction by ZEFSAII (Michael W. Deem and Ramdas Pophale) SiO2 
 PCOD8271292
Probable space group: C M M M
;
_chemical_formula_sum "Si O2"
_cell_formula_units_Z 104
_cell_length_a 24.431735
_cell_length_b 17.790512
_cell_length_c 13.592832
_cell_angle_alpha 90.000000
_cell_angle_beta 90.000000
_cell_angle_gamma 90.000000
_cell_volume 5908.166223
_symmetry_space_group_name_H-M "C M M M"
_symmetry_group_IT_number 65
_symmetry_cell_setting 'orthorhombic'
loop_
_space_group_symop_operation_xyz
x,y,z
-x,-y,z
x,-y,-z
-x,y,-z
-x,-y,-z
x,y,-z
-x,y,z
x,-y,z
1/2+x,1/2+y,z
1/2-x,1/2-y,z
1/2+x,1/2-y,-z
1/2-x,1/2+y,-z
1/2-x,1/2-y,-z
1/2+x,1/2+y,-z
1/2-x,1/2+y,z
1/2+x,1/2-y,z
loop_
_atom_site_type_symbol
_atom_site_label
_atom_site_fract_x
_atom_site_fract_y
_atom_site_fract_z
Si Si1 0.063226 0.915379 0.386534
Si Si2 0.500000 0.125472 0.108583
Si Si3 0.500000 0.303216 0.108548
Si Si4 0.899210 0.800328 0.238502
Si Si5 0.804968 0.412510 0.111102
Si Si6 0.098094 0.371476 0.756001
Si Si7 0.064956 0.500000 0.384378
Si Si8 0.292955 0.316300 0.889674
O O1 0.079268 0.910729 0.500000
O O2 0.101400 0.855515 0.331519
O O3 0.000000 0.893494 0.370813
O O4 0.074062 0.000000 0.347417
O O5 0.500000 0.214268 0.099307
O O6 0.553660 0.098093 0.166050
O O7 0.500000 0.088597 0.000000
O O8 0.445814 0.330263 0.164700
O O9 0.500000 0.339879 0.000000
O O10 0.912194 0.715212 0.274703
O O11 0.840899 0.806783 0.187533
O O12 0.812949 0.500000 0.122736
O O13 0.843141 0.372820 0.191409
O O14 0.741464 0.392282 0.131331
O O15 0.820775 0.385414 0.000000
O O16 0.093314 0.425293 0.661052
O O17 0.077696 0.500000 0.500000
O O18 0.000000 0.500000 0.364218
O O19 0.250000 0.250000 0.876233
O O20 0.317816 0.316282 0.000000
#
# Coordination Sequence:
#
# PCOD8271292 Si02
#       8
#    16   8   8  16  16  16   8  16
#     4   9  19  37  60  85 111 138 177 232 292 345
#     4   9  18  29  46  76 111 141 173 220 274 321
#     4   9  18  30  47  81 119 146 172 213 270 329
#     4  11  20  33  59  86 111 145 184 229 277 330
#     4  10  20  34  54  80 111 148 191 233 266 312
#     4  11  20  34  53  79 109 143 189 229 273 331
#     4  11  24  40  54  74 112 154 188 231 286 341
#     4  10  20  34  53  81 115 152 186 217 265 325
#
# _framework density 17.602754000000001
#
# number of rings (size 3 to 8) (size 9 to 14) (size 15 to 20)
#    0.000    1.923    3.846    1.385    0.000    2.462 
#    0.000    1.923    0.000    3.231    0.000    0.000 
#    0.000    0.000    0.000    0.000    0.000    0.000 
#
# Total GULP energy -644756.186452 kJ/mol
# GULP energy per Si atom -12399.157432 kJ/mol
# Density = 1.756269 g / cm^3
# Si number density = 17.602754 Si / 1000 Ang^3
#
#
#
# Elastic Constant Matrix: (Units=GPa)
#
#
# Indices 1 2 3 4 5 6 
#
# 1 78.6985 27.8849 42.0353 0.0000 0.0000 0.0000
# 2 27.8849 85.6195 51.6168 0.0000 0.0000 0.0000
# 3 42.0353 51.6168 101.9422 0.0000 0.0000 0.0000
# 4 0.0000 0.0000 0.0000 28.3376 0.0000 0.0000
# 5 0.0000 0.0000 0.0000 0.0000 24.4665 0.0000
# 6 0.0000 0.0000 0.0000 0.0000 0.0000 23.7860
#
#
#
# Elastic Compliance Matrix: (Units=1/GPa)
#
#
# Indices 1 2 3 4 5 6 
#
# 1 0.016493 -0.001830 -0.005874 0.000000 0.000000 0.000000
# 2 -0.001830 0.017014 -0.007860 0.000000 0.000000 0.000000
# 3 -0.005874 -0.007860 0.016211 0.000000 0.000000 0.000000
# 4 0.000000 0.000000 0.000000 0.035289 0.000000 0.000000
# 5 0.000000 0.000000 0.000000 0.000000 0.040872 0.000000
# 6 0.000000 0.000000 0.000000 0.000000 0.000000 0.042042
#
#
# Mechanical properties :
#
#
# Convention : Reuss Voigt Hill
#
# Bulk Modulus (GPa) = 53.79342 56.59268 55.19305
# Shear Modulus (GPa) = 24.36096 24.96622 24.66359
#
# Velocity S-wave (km/s) = 3.72416 3.77014 3.74722
# Velocity P-wave (km/s) = 7.00846 7.15343 7.08131
#
# Compressibility (1/GPa) = 0.01858963
#
# Stress axis : x y z
#
# Youngs Moduli (GPa) = 60.63298 58.77411 61.68472
#
# Poissons Ratio (x) = 0.10757 0.36233
# Poissons Ratio (y) = 0.11097 0.48486
# Poissons Ratio (z) = 0.35616 0.46198
#
# Static dielectric constant tensor:
#      x y z
#    x 3.316330 0.000000 0.000000 
#    y 0.000000 3.301680 0.000000 
#    z 0.000000 0.000000 3.181700 
# 
# 
# High freq. dielectric constant tensor:
#      x y z
#    x 1.669550 0.000000 0.000000 
#    y 0.000000 1.680450 0.000000 
#    z 0.000000 0.000000 1.663700 
# 
# From -- ./inp_files/32592.got.cif
#   From: 2010.03.12/outbox.cif.g09.slc.cpg/sg65_17_cif.got.tgz:32592.got - 2010.04.10 20:52:16.
