data_PCOD8271094
_publ_section_title
;
Structure prediction by ZEFSAII (Michael W. Deem and Ramdas Pophale) SiO2 
 PCOD8271094
Probable space group: C M M M
;
_chemical_formula_sum "Si O2"
_cell_formula_units_Z 104
_cell_length_a 21.790465
_cell_length_b 26.935795
_cell_length_c 9.194162
_cell_angle_alpha 90.000000
_cell_angle_beta 90.000000
_cell_angle_gamma 90.000000
_cell_volume 5396.453607
_symmetry_space_group_name_H-M "C M M M"
_symmetry_group_IT_number 65
_symmetry_cell_setting 'orthorhombic'
loop_
_space_group_symop_operation_xyz
x,y,z
-x,-y,z
x,-y,-z
-x,y,-z
-x,-y,-z
x,y,-z
-x,y,z
x,-y,z
1/2+x,1/2+y,z
1/2-x,1/2-y,z
1/2+x,1/2-y,-z
1/2-x,1/2+y,-z
1/2-x,1/2-y,-z
1/2+x,1/2+y,-z
1/2-x,1/2+y,z
1/2+x,1/2-y,z
loop_
_atom_site_type_symbol
_atom_site_label
_atom_site_fract_x
_atom_site_fract_y
_atom_site_fract_z
Si Si1 0.283043 0.105684 0.668027
Si Si2 0.500000 0.940577 0.338417
Si Si3 0.428703 0.737128 0.827277
Si Si4 0.429496 0.637036 0.336572
Si Si5 0.387168 0.058313 0.160165
Si Si6 0.189524 0.719274 0.329466
Si Si7 0.659042 0.554924 0.670997
O O1 0.296602 0.094394 0.500000
O O2 0.324086 0.069816 0.763527
O O3 0.293997 0.162734 0.705520
O O4 0.215609 0.089608 0.715354
O O5 0.500000 0.918456 0.500000
O O6 0.558550 0.918407 0.255947
O O7 0.500000 0.000000 0.342142
O O8 0.500000 0.752582 0.784857
O O9 0.415487 0.681643 0.772765
O O10 0.374787 0.770008 0.753977
O O11 0.420833 0.739648 0.000000
O O12 0.404605 0.650399 0.500000
O O13 0.500000 0.624541 0.344642
O O14 0.399265 0.586553 0.275853
O O15 0.396267 0.000000 0.148093
O O16 0.389546 0.082437 0.000000
O O17 0.178061 0.729053 0.500000
O O18 0.250000 0.750000 0.276782
O O19 0.657298 0.546934 0.500000
O O20 0.660577 0.500000 0.745034
#
# Coordination Sequence:
#
# PCOD8271094 Si02
#       7
#    16   8  16  16  16  16  16
#     4  10  20  34  53  77 103 138 181 223 270 323
#     4   9  17  31  53  77  99 129 171 213 253 303
#     4  10  21  37  57  82 112 147 187 230 280 338
#     4   9  17  31  54  82 111 145 183 223 270 324
#     4  10  20  34  52  75 105 139 174 214 261 311
#     4  10  21  38  60  84 109 140 183 233 282 335
#     4   9  17  30  51  80 112 144 181 227 274 320
#
# _framework density 19.271916000000001
#
# number of rings (size 3 to 8) (size 9 to 14) (size 15 to 20)
#    0.000    2.385    0.000    2.538    0.000    7.077 
#    1.385    3.846    0.000    1.385    0.000    2.154 
#    0.000    0.000    0.000    0.000    0.000    0.000 
#
# Total GULP energy -644462.059704 kJ/mol
# GULP energy per Si atom -12393.501148 kJ/mol
# Density = 1.922805 g / cm^3
# Si number density = 19.271916 Si / 1000 Ang^3
#
#
#
# Elastic Constant Matrix: (Units=GPa)
#
#
# Indices 1 2 3 4 5 6 
#
# 1 83.3368 36.9376 37.5969 0.0000 0.0000 0.0000
# 2 36.9376 80.2823 23.8252 0.0000 0.0000 0.0000
# 3 37.5969 23.8252 73.3182 0.0000 0.0000 0.0000
# 4 0.0000 0.0000 0.0000 15.2824 0.0000 0.0000
# 5 0.0000 0.0000 0.0000 0.0000 -45.0258 0.0000
# 6 0.0000 0.0000 0.0000 0.0000 0.0000 -6.1461
#
#
#
# Elastic Compliance Matrix: (Units=1/GPa)
#
#
# Indices 1 2 3 4 5 6 
#
# 1 0.017975 -0.006125 -0.007227 0.000000 0.000000 0.000000
# 2 -0.006125 0.015873 -0.002017 0.000000 0.000000 0.000000
# 3 -0.007227 -0.002017 0.018000 0.000000 0.000000 0.000000
# 4 0.000000 0.000000 0.000000 0.065435 0.000000 0.000000
# 5 0.000000 0.000000 0.000000 0.000000 -0.022209 0.000000
# 6 0.000000 0.000000 0.000000 0.000000 0.000000 -0.162706
#
#
# Mechanical properties :
#
#
# Convention : Reuss Voigt Hill
#
# Bulk Modulus (GPa) = 47.37144 48.18408 47.77776
# Shear Modulus (GPa) = -167.46436 2.06061 -82.70188
#
# Velocity S-wave (km/s) = -9.33189 1.03516 -6.55792
# Velocity P-wave (km/s) = 9.56443 5.14638 5.70057
#
# Compressibility (1/GPa) = 0.02110977
#
# Stress axis : x y z
#
# Youngs Moduli (GPa) = 55.63326 63.00048 55.55418
#
# Poissons Ratio (x) = 0.38591 0.40148
# Poissons Ratio (y) = 0.34078 0.11205
# Poissons Ratio (z) = 0.40205 0.12707
#
# Static dielectric constant tensor:
#      x y z
#    x 3.870380 0.000000 0.000000 
#    y 0.000000 3.468090 0.000000 
#    z 0.000000 0.000000 3.461830 
# 
# 
# High freq. dielectric constant tensor:
#      x y z
#    x 1.764230 0.000000 0.000000 
#    y 0.000000 1.738370 0.000000 
#    z 0.000000 0.000000 1.728810 
# 
# From -- ./inp_files/12387.got.cif
#   From: 2010.03.12/outbox.cif.g09.slc.cpg/sg65_7_cif.got.tgz:12387.got - 2010.04.10 20:52:16.
