data_PCOD8271916
_publ_section_title
;
Structure prediction by ZEFSAII (Michael W. Deem and Ramdas Pophale) SiO2 
 PCOD8271916
Probable space group: C M M M
;
_chemical_formula_sum "Si O2"
_cell_formula_units_Z 104
_cell_length_a 26.988511
_cell_length_b 19.939561
_cell_length_c 9.118656
_cell_angle_alpha 90.000000
_cell_angle_beta 90.000000
_cell_angle_gamma 90.000000
_cell_volume 4907.104981
_symmetry_space_group_name_H-M "C M M M"
_symmetry_group_IT_number 65
_symmetry_cell_setting 'orthorhombic'
loop_
_space_group_symop_operation_xyz
x,y,z
-x,-y,z
x,-y,-z
-x,y,-z
-x,-y,-z
x,y,-z
-x,y,z
x,-y,z
1/2+x,1/2+y,z
1/2-x,1/2-y,z
1/2+x,1/2-y,-z
1/2-x,1/2+y,-z
1/2-x,1/2-y,-z
1/2+x,1/2+y,-z
1/2-x,1/2+y,z
1/2+x,1/2-y,z
loop_
_atom_site_type_symbol
_atom_site_label
_atom_site_fract_x
_atom_site_fract_y
_atom_site_fract_z
Si Si1 0.762796 0.825180 0.826819
Si Si2 0.803964 0.575652 0.335162
Si Si3 0.000000 0.575582 0.841073
Si Si4 0.444174 0.751903 0.167585
Si Si5 0.055282 0.887515 0.672020
Si Si6 0.651380 0.574593 0.170116
Si Si7 0.089183 0.370490 0.333792
O O1 0.750000 0.750000 0.763703
O O2 0.718328 0.872466 0.778992
O O3 0.813272 0.863847 0.771672
O O4 0.764690 0.821024 0.000000
O O5 0.784187 0.590056 0.500000
O O6 0.790814 0.500000 0.287939
O O7 0.862427 0.584512 0.329617
O O8 0.047692 0.586893 0.743494
O O9 0.000000 0.500000 0.887472
O O10 0.000000 0.615325 0.000000
O O11 0.500000 0.783329 0.178458
O O12 0.442211 0.685075 0.258797
O O13 0.404620 0.801757 0.241095
O O14 0.428947 0.737207 0.000000
O O15 0.065248 0.883041 0.500000
O O16 0.099263 0.929842 0.744310
O O17 0.000000 0.918428 0.701775
O O18 0.676038 0.500000 0.191966
O O19 0.639890 0.587127 0.000000
O O20 0.074254 0.352151 0.500000
#
# Coordination Sequence:
#
# PCOD8271916 Si02
#       7
#    16  16   8  16  16  16  16
#     4  10  23  43  67  97 127 160 206 262 319 376
#     4  10  23  42  62  88 123 162 205 254 313 379
#     4  11  23  37  53  79 115 157 210 261 308 371
#     4  10  20  35  56  83 119 161 205 254 308 367
#     4  10  22  39  61  92 130 168 210 257 312 377
#     4  10  22  41  65  94 130 171 213 259 318 385
#     4  11  22  36  57  84 117 158 205 257 316 376
#
# _framework density 21.193757999999999
#
# number of rings (size 3 to 8) (size 9 to 14) (size 15 to 20)
#    0.000    1.769    0.769    2.538    2.154    6.462 
#    0.000    1.538    0.000    0.000    0.000    0.000 
#    0.000    0.000    0.000    0.000    0.000    0.000 
#
# Total GULP energy -644401.950954 kJ/mol
# GULP energy per Si atom -12392.345211 kJ/mol
# Density = 2.114552 g / cm^3
# Si number density = 21.193758 Si / 1000 Ang^3
#
#
#
# Elastic Constant Matrix: (Units=GPa)
#
#
# Indices 1 2 3 4 5 6 
#
# 1 97.3735 46.7963 52.0894 0.0000 0.0000 0.0000
# 2 46.7963 126.8289 30.5540 0.0000 0.0000 0.0000
# 3 52.0894 30.5540 53.9928 0.0000 0.0000 0.0000
# 4 0.0000 0.0000 0.0000 23.9881 0.0000 0.0000
# 5 0.0000 0.0000 0.0000 0.0000 35.3092 0.0000
# 6 0.0000 0.0000 0.0000 0.0000 0.0000 33.0642
#
#
#
# Elastic Compliance Matrix: (Units=1/GPa)
#
#
# Indices 1 2 3 4 5 6 
#
# 1 0.022532 -0.003563 -0.019721 0.000000 0.000000 0.000000
# 2 -0.003563 0.009692 -0.002048 0.000000 0.000000 0.000000
# 3 -0.019721 -0.002048 0.038706 0.000000 0.000000 0.000000
# 4 0.000000 0.000000 0.000000 0.041687 0.000000 0.000000
# 5 0.000000 0.000000 0.000000 0.000000 0.028321 0.000000
# 6 0.000000 0.000000 0.000000 0.000000 0.000000 0.030244
#
#
# Mechanical properties :
#
#
# Convention : Reuss Voigt Hill
#
# Bulk Modulus (GPa) = 49.34251 59.67496 54.50874
# Shear Modulus (GPa) = 21.87209 28.38935 25.13072
#
# Velocity S-wave (km/s) = 3.21597 3.66391 3.44722
# Velocity P-wave (km/s) = 6.09279 6.79095 6.45132
#
# Compressibility (1/GPa) = 0.02026650
#
# Stress axis : x y z
#
# Youngs Moduli (GPa) = 44.38202 103.17282 25.83583
#
# Poissons Ratio (x) = 0.36756 0.50952
# Poissons Ratio (y) = 0.15811 0.05291
# Poissons Ratio (z) = 0.87527 0.21129
#
# Static dielectric constant tensor:
#      x y z
#    x 3.839290 0.000000 0.000000 
#    y 0.000000 3.989550 0.000000 
#    z 0.000000 0.000000 3.858510 
# 
# 
# High freq. dielectric constant tensor:
#      x y z
#    x 1.821490 0.000000 0.000000 
#    y 0.000000 1.842950 0.000000 
#    z 0.000000 0.000000 1.831810 
# 
# From -- ./inp_files/16456.got.cif
#   From: 2010.03.12/outbox.cif.g09.slc.cpg/sg65_9_cif.got.tgz:16456.got - 2010.04.10 20:52:16.
