data_PCOD8271806
_publ_section_title
;
Structure prediction by ZEFSAII (Michael W. Deem and Ramdas Pophale) SiO2 
 PCOD8271806
Probable space group: C M M M
;
_chemical_formula_sum "Si O2"
_cell_formula_units_Z 88
_cell_length_a 14.421154
_cell_length_b 18.467143
_cell_length_c 17.910675
_cell_angle_alpha 90.000000
_cell_angle_beta 90.000000
_cell_angle_gamma 90.000000
_cell_volume 4769.926425
_symmetry_space_group_name_H-M "C M M M"
_symmetry_group_IT_number 65
_symmetry_cell_setting 'orthorhombic'
loop_
_space_group_symop_operation_xyz
x,y,z
-x,-y,z
x,-y,-z
-x,y,-z
-x,-y,-z
x,y,-z
-x,y,z
x,-y,z
1/2+x,1/2+y,z
1/2-x,1/2-y,z
1/2+x,1/2-y,-z
1/2-x,1/2+y,-z
1/2-x,1/2-y,-z
1/2+x,1/2+y,-z
1/2-x,1/2+y,z
1/2+x,1/2-y,z
loop_
_atom_site_type_symbol
_atom_site_label
_atom_site_fract_x
_atom_site_fract_y
_atom_site_fract_z
Si Si1 0.608971 0.084363 0.298613
Si Si2 0.728171 0.829946 0.584125
Si Si3 0.899477 0.086050 0.802218
Si Si4 0.605126 0.086523 0.000000
Si Si5 0.705777 0.913953 0.853389
Si Si6 0.604078 0.584057 0.367759
O O1 0.500000 0.098163 0.296627
O O2 0.652203 0.131032 0.364921
O O3 0.651040 0.111600 0.220152
O O4 0.632607 0.000000 0.312187
O O5 0.688146 0.826241 0.500000
O O6 0.750000 0.750000 0.615226
O O7 0.824540 0.873224 0.581178
O O8 0.812661 0.114656 0.851087
O O9 0.884161 0.111182 0.717281
O O10 0.000000 0.115257 0.831868
O O11 0.901799 0.000000 0.803794
O O12 0.656706 0.118044 0.926916
O O13 0.500000 0.115114 0.000000
O O14 0.606740 0.000000 0.000000
O O15 0.703889 0.000000 0.857233
O O16 0.500000 0.599457 0.396295
O O17 0.628228 0.500000 0.373785
#
# Coordination Sequence:
#
# PCOD8271806 Si02
#       6
#    16  16  16   8  16  16
#     4  10  20  35  56  78 101 136 180 220 258 307
#     4  11  24  38  51  72 105 140 170 209 264 319
#     4   8  13  23  43  69  94 121 157 204 254 298
#     4   9  16  24  37  65 104 139 168 204 256 311
#     4   9  15  26  45  70 102 135 166 207 258 310
#     4   9  17  32  55  78  97 123 166 218 262 301
#
# _framework density 18.448922
#
# number of rings (size 3 to 8) (size 9 to 14) (size 15 to 20)
#    0.000    2.636    1.818    2.182    0.000    5.091 
#    0.000    4.091    0.000    2.727    0.000    0.636 
#    0.000    0.000    0.000    0.000    0.000    0.000 
#
# Total GULP energy -545385.632700 kJ/mol
# GULP energy per Si atom -12395.128016 kJ/mol
# Density = 1.840693 g / cm^3
# Si number density = 18.448922 Si / 1000 Ang^3
#
#
#
# Elastic Constant Matrix: (Units=GPa)
#
#
# Indices 1 2 3 4 5 6 
#
# 1 150.1392 35.0756 67.4663 0.0000 0.0000 0.0000
# 2 35.0756 42.1243 27.2831 0.0000 0.0000 0.0000
# 3 67.4663 27.2831 111.4338 0.0000 0.0000 0.0000
# 4 0.0000 0.0000 0.0000 5.9992 0.0000 0.0000
# 5 0.0000 0.0000 0.0000 0.0000 27.3756 0.0000
# 6 0.0000 0.0000 0.0000 0.0000 0.0000 10.3165
#
#
#
# Elastic Compliance Matrix: (Units=1/GPa)
#
#
# Indices 1 2 3 4 5 6 
#
# 1 0.010043 -0.005258 -0.004793 0.000000 0.000000 0.000000
# 2 -0.005258 0.030966 -0.004398 0.000000 0.000000 0.000000
# 3 -0.004793 -0.004398 0.012953 0.000000 0.000000 0.000000
# 4 0.000000 0.000000 0.000000 0.166688 0.000000 0.000000
# 5 0.000000 0.000000 0.000000 0.000000 0.036529 0.000000
# 6 0.000000 0.000000 0.000000 0.000000 0.000000 0.096932
#
#
# Mechanical properties :
#
#
# Convention : Reuss Voigt Hill
#
# Bulk Modulus (GPa) = 39.89923 62.59413 51.24668
# Shear Modulus (GPa) = 12.77589 20.32976 16.55282
#
# Velocity S-wave (km/s) = 2.63440 3.32316 2.99862
# Velocity P-wave (km/s) = 5.56122 6.98044 6.31085
#
# Compressibility (1/GPa) = 0.02506314
#
# Stress axis : x y z
#
# Youngs Moduli (GPa) = 99.57657 32.29342 77.20489
#
# Poissons Ratio (x) = 0.16980 0.37003
# Poissons Ratio (y) = 0.52356 0.33957
# Poissons Ratio (z) = 0.47725 0.14204
#
# Static dielectric constant tensor:
#      x y z
#    x 3.768310 0.000000 0.000000 
#    y 0.000000 2.858730 0.000000 
#    z 0.000000 0.000000 3.376010 
# 
# 
# High freq. dielectric constant tensor:
#      x y z
#    x 1.735670 0.000000 0.000000 
#    y 0.000000 1.654340 0.000000 
#    z 0.000000 0.000000 1.704230 
# 
# From -- ./inp_files/53020.got.cif
#   From: 2010.03.12/outbox.cif.g09.slc.cpg/sg65_27_cif.got.tgz:53020.got - 2010.04.10 20:52:16.
