data_PCOD8271371
_publ_section_title
;
Structure prediction by ZEFSAII (Michael W. Deem and Ramdas Pophale) SiO2 
 PCOD8271371
Probable space group: C M M M
;
_chemical_formula_sum "Si O2"
_cell_formula_units_Z 112
_cell_length_a 26.528850
_cell_length_b 14.510114
_cell_length_c 15.663698
_cell_angle_alpha 90.000000
_cell_angle_beta 90.000000
_cell_angle_gamma 90.000000
_cell_volume 6029.531243
_symmetry_space_group_name_H-M "C M M M"
_symmetry_group_IT_number 65
_symmetry_cell_setting 'orthorhombic'
loop_
_space_group_symop_operation_xyz
x,y,z
-x,-y,z
x,-y,-z
-x,y,-z
-x,-y,-z
x,y,-z
-x,y,z
x,-y,z
1/2+x,1/2+y,z
1/2-x,1/2-y,z
1/2+x,1/2-y,-z
1/2-x,1/2+y,-z
1/2-x,1/2-y,-z
1/2+x,1/2+y,-z
1/2-x,1/2+y,z
1/2+x,1/2-y,z
loop_
_atom_site_type_symbol
_atom_site_label
_atom_site_fract_x
_atom_site_fract_y
_atom_site_fract_z
Si Si1 0.844165 0.897445 0.171503
Si Si2 0.725800 0.603971 0.594017
Si Si3 0.945783 0.890814 0.094901
Si Si4 0.853990 0.215186 0.672221
Si Si5 0.441915 0.605344 0.400571
Si Si6 0.188345 0.603580 0.730227
Si Si7 0.242824 0.357231 0.095336
O O1 0.896183 0.849122 0.139343
O O2 0.826224 0.837653 0.250643
O O3 0.798510 0.901422 0.104040
O O4 0.856650 0.000000 0.202364
O O5 0.751282 0.611589 0.500000
O O6 0.703686 0.500000 0.606184
O O7 0.681632 0.681721 0.594474
O O8 0.765117 0.624844 0.668592
O O9 0.000000 0.865638 0.139578
O O10 0.939381 0.000000 0.090749
O O11 0.946879 0.849932 0.000000
O O12 0.910519 0.178920 0.655265
O O13 0.854181 0.323389 0.698426
O O14 0.431253 0.622189 0.500000
O O15 0.500000 0.623676 0.378910
O O16 0.427665 0.500000 0.375967
O O17 0.167454 0.500000 0.715414
O O18 0.204478 0.610740 0.830116
O O19 0.250000 0.250000 0.103249
O O20 0.222416 0.384352 0.000000
#
# Coordination Sequence:
#
# PCOD8271371 Si02
#       7
#    16  16  16  16  16  16  16
#     4  11  20  30  48  75 104 137 174 218 269 330
#     4  10  20  34  54  79 109 144 177 215 268 325
#     4   8  15  28  44  65  97 133 164 195 241 309
#     4  12  21  33  52  78 107 141 180 227 266 317
#     4   9  19  36  58  86 118 149 181 217 265 333
#     4  11  23  39  53  73 106 143 190 237 279 327
#     4  11  21  36  55  75 103 144 191 239 289 340
#
# _framework density 18.575240999999998
#
# number of rings (size 3 to 8) (size 9 to 14) (size 15 to 20)
#    0.000    1.714    2.857    3.857    0.000    5.143 
#    0.000    1.429    0.000    0.429    0.000    1.000 
#    0.000    0.000    0.000    2.857    0.000    0.143 
#
# Total GULP energy -693755.106055 kJ/mol
# GULP energy per Si atom -12388.484037 kJ/mol
# Density = 1.853296 g / cm^3
# Si number density = 18.575241 Si / 1000 Ang^3
#
#
#
# Elastic Constant Matrix: (Units=GPa)
#
#
# Indices 1 2 3 4 5 6 
#
# 1 83.7423 43.9472 29.3539 0.0000 0.0000 0.0000
# 2 43.9472 109.8600 30.9431 0.0000 0.0000 0.0000
# 3 29.3539 30.9431 93.4029 0.0000 0.0000 0.0000
# 4 0.0000 0.0000 0.0000 18.8552 0.0000 0.0000
# 5 0.0000 0.0000 0.0000 0.0000 23.9646 0.0000
# 6 0.0000 0.0000 0.0000 0.0000 0.0000 25.1098
#
#
#
# Elastic Compliance Matrix: (Units=1/GPa)
#
#
# Indices 1 2 3 4 5 6 
#
# 1 0.015934 -0.005474 -0.003194 0.000000 0.000000 0.000000
# 2 -0.005474 0.011920 -0.002229 0.000000 0.000000 0.000000
# 3 -0.003194 -0.002229 0.012448 0.000000 0.000000 0.000000
# 4 0.000000 0.000000 0.000000 0.053036 0.000000 0.000000
# 5 0.000000 0.000000 0.000000 0.000000 0.041728 0.000000
# 6 0.000000 0.000000 0.000000 0.000000 0.000000 0.039825
#
#
# Mechanical properties :
#
#
# Convention : Reuss Voigt Hill
#
# Bulk Modulus (GPa) = 54.02908 55.05485 54.54197
# Shear Modulus (GPa) = 24.64820 25.77001 25.20910
#
# Velocity S-wave (km/s) = 3.64667 3.72873 3.68793
# Velocity P-wave (km/s) = 6.84695 6.94558 6.89644
#
# Compressibility (1/GPa) = 0.01850855
#
# Stress axis : x y z
#
# Youngs Moduli (GPa) = 62.75935 83.89203 80.33191
#
# Poissons Ratio (x) = 0.45926 0.25658
# Poissons Ratio (y) = 0.34357 0.17902
# Poissons Ratio (z) = 0.20045 0.18695
#
# Static dielectric constant tensor:
#      x y z
#    x 3.305340 0.000000 0.000000 
#    y 0.000000 3.280520 0.000000 
#    z 0.000000 0.000000 3.651250 
# 
# 
# High freq. dielectric constant tensor:
#      x y z
#    x 1.690410 0.000000 0.000000 
#    y 0.000000 1.688220 0.000000 
#    z 0.000000 0.000000 1.733490 
# 
# From -- ./inp_files/47081.got.cif
#   From: 2010.03.12/outbox.cif.g09.slc.cpg/sg65_24_cif.got.tgz:47081.got - 2010.04.10 20:52:16.
