data_PCOD8271300
_publ_section_title
;
Structure prediction by ZEFSAII (Michael W. Deem and Ramdas Pophale) SiO2 
 PCOD8271300
Probable space group: C M M M
;
_chemical_formula_sum "Si O2"
_cell_formula_units_Z 104
_cell_length_a 26.540543
_cell_length_b 23.519950
_cell_length_c 9.192264
_cell_angle_alpha 90.000000
_cell_angle_beta 90.000000
_cell_angle_gamma 90.000000
_cell_volume 5738.107587
_symmetry_space_group_name_H-M "C M M M"
_symmetry_group_IT_number 65
_symmetry_cell_setting 'orthorhombic'
loop_
_space_group_symop_operation_xyz
x,y,z
-x,-y,z
x,-y,-z
-x,y,-z
-x,-y,-z
x,y,-z
-x,y,z
x,-y,z
1/2+x,1/2+y,z
1/2-x,1/2-y,z
1/2+x,1/2-y,-z
1/2-x,1/2+y,-z
1/2-x,1/2-y,-z
1/2+x,1/2+y,-z
1/2-x,1/2+y,z
1/2+x,1/2-y,z
loop_
_atom_site_type_symbol
_atom_site_label
_atom_site_fract_x
_atom_site_fract_y
_atom_site_fract_z
Si Si1 0.786793 0.851808 0.670467
Si Si2 0.875403 0.934932 0.670220
Si Si3 0.392083 0.067387 0.666705
Si Si4 0.500000 0.066973 0.334313
Si Si5 0.145990 0.233198 0.167159
Si Si6 0.557115 0.347424 0.169537
Si Si7 0.681754 0.143263 0.168797
O O1 0.777545 0.845378 0.500000
O O2 0.821650 0.906278 0.707275
O O3 0.813185 0.795143 0.728443
O O4 0.734086 0.857700 0.748627
O O5 0.886637 0.931143 0.500000
O O6 0.920596 0.902324 0.749814
O O7 0.873690 0.000000 0.724381
O O8 0.384318 0.088221 0.500000
O O9 0.446738 0.088966 0.730995
O O10 0.349715 0.090751 0.771927
O O11 0.388771 0.000000 0.671469
O O12 0.500000 0.086039 0.500000
O O13 0.500000 0.000000 0.321690
O O14 0.090244 0.209004 0.203947
O O15 0.148819 0.300172 0.197845
O O16 0.160220 0.219396 0.000000
O O17 0.500000 0.336021 0.223206
O O18 0.558220 0.361713 0.000000
O O19 0.693166 0.134704 0.000000
#
# Coordination Sequence:
#
# PCOD8271300 Si02
#       7
#    16  16  16   8  16  16  16
#     4  10  20  34  54  76  99 134 176 217 257 304
#     4   9  19  35  53  75 104 136 170 209 257 310
#     4   9  18  34  55  76 100 132 169 209 253 302
#     4   7  12  28  53  73  91 123 163 199 240 289
#     4   9  19  36  53  72 101 137 172 211 259 308
#     4   9  18  34  55  76 101 136 175 212 251 300
#     4  11  22  34  50  77 107 136 170 211 259 312
#
# _framework density 18.124442999999999
#
# number of rings (size 3 to 8) (size 9 to 14) (size 15 to 20)
#    0.000    2.692    0.000    2.308    0.000    5.538 
#    1.385    3.462    0.000    1.385    0.000    0.000 
#    0.000    0.000    0.000    0.000    0.000    0.000 
#
# Total GULP energy -644554.863359 kJ/mol
# GULP energy per Si atom -12395.285834 kJ/mol
# Density = 1.808319 g / cm^3
# Si number density = 18.124443 Si / 1000 Ang^3
#
#
#
# Elastic Constant Matrix: (Units=GPa)
#
#
# Indices 1 2 3 4 5 6 
#
# 1 150.9564 55.3549 61.9099 0.0000 0.0000 0.0000
# 2 55.3549 69.4654 33.9922 0.0000 0.0000 0.0000
# 3 61.9099 33.9922 68.6248 0.0000 0.0000 0.0000
# 4 0.0000 0.0000 0.0000 28.0367 0.0000 0.0000
# 5 0.0000 0.0000 0.0000 0.0000 20.2650 0.0000
# 6 0.0000 0.0000 0.0000 0.0000 0.0000 11.7468
#
#
#
# Elastic Compliance Matrix: (Units=1/GPa)
#
#
# Indices 1 2 3 4 5 6 
#
# 1 0.011973 -0.005617 -0.008019 0.000000 0.000000 0.000000
# 2 -0.005617 0.021636 -0.005650 0.000000 0.000000 0.000000
# 3 -0.008019 -0.005650 0.024605 0.000000 0.000000 0.000000
# 4 0.000000 0.000000 0.000000 0.035667 0.000000 0.000000
# 5 0.000000 0.000000 0.000000 0.000000 0.049346 0.000000
# 6 0.000000 0.000000 0.000000 0.000000 0.000000 0.085130
#
#
# Mechanical properties :
#
#
# Convention : Reuss Voigt Hill
#
# Bulk Modulus (GPa) = 50.91027 65.72894 58.31961
# Shear Modulus (GPa) = 18.28309 21.19568 19.73939
#
# Velocity S-wave (km/s) = 3.17953 3.42344 3.30374
# Velocity P-wave (km/s) = 6.45209 7.20907 6.84106
#
# Compressibility (1/GPa) = 0.01964240
#
# Stress axis : x y z
#
# Youngs Moduli (GPa) = 83.52234 46.21873 40.64192
#
# Poissons Ratio (x) = 0.25960 0.32591
# Poissons Ratio (y) = 0.46912 0.22963
# Poissons Ratio (z) = 0.66978 0.26114
#
# Static dielectric constant tensor:
#      x y z
#    x 3.671640 0.000000 0.000000 
#    y 0.000000 3.275720 0.000000 
#    z 0.000000 0.000000 3.313650 
# 
# 
# High freq. dielectric constant tensor:
#      x y z
#    x 1.713480 0.000000 0.000000 
#    y 0.000000 1.689030 0.000000 
#    z 0.000000 0.000000 1.694850 
# 
# From -- ./inp_files/16734.got.cif
#   From: 2010.03.12/outbox.cif.g09.slc.cpg/sg65_9_cif.got.tgz:16734.got - 2010.04.10 20:52:16.
