data_PCOD8271055
_publ_section_title
;
Structure prediction by ZEFSAII (Michael W. Deem and Ramdas Pophale) SiO2 
 PCOD8271055
Probable space group: C M M M
;
_chemical_formula_sum "Si O2"
_cell_formula_units_Z 120
_cell_length_a 17.403003
_cell_length_b 17.310165
_cell_length_c 22.764065
_cell_angle_alpha 90.000000
_cell_angle_beta 90.000000
_cell_angle_gamma 90.000000
_cell_volume 6857.648481
_symmetry_space_group_name_H-M "C M M M"
_symmetry_group_IT_number 65
_symmetry_cell_setting 'orthorhombic'
loop_
_space_group_symop_operation_xyz
x,y,z
-x,-y,z
x,-y,-z
-x,y,-z
-x,-y,-z
x,y,-z
-x,y,z
x,-y,z
1/2+x,1/2+y,z
1/2-x,1/2-y,z
1/2+x,1/2-y,-z
1/2-x,1/2+y,-z
1/2-x,1/2-y,-z
1/2+x,1/2+y,-z
1/2-x,1/2+y,z
1/2+x,1/2-y,z
loop_
_atom_site_type_symbol
_atom_site_label
_atom_site_fract_x
_atom_site_fract_y
_atom_site_fract_z
Si Si1 0.314185 0.188268 0.149875
Si Si2 0.838975 0.362141 0.630557
Si Si3 0.908060 0.408032 0.754179
Si Si4 0.587521 0.000000 0.565968
Si Si5 0.787281 0.087847 0.066590
Si Si6 0.912240 0.225146 0.432961
Si Si7 0.806291 0.910815 0.433171
Si Si8 0.087124 0.791939 0.933317
O O1 0.250000 0.250000 0.174981
O O2 0.364417 0.142816 0.197476
O O3 0.272910 0.125132 0.110378
O O4 0.375069 0.230281 0.109063
O O5 0.863830 0.379974 0.696442
O O6 0.882091 0.421696 0.590491
O O7 0.862140 0.276216 0.611515
O O8 0.749266 0.375314 0.616825
O O9 0.895816 0.500000 0.763914
O O10 0.000000 0.389826 0.752166
O O11 0.500000 0.000000 0.580200
O O12 0.612482 0.000000 0.500000
O O13 0.870596 0.126319 0.072741
O O14 0.797960 0.000000 0.085184
O O15 0.756132 0.096775 0.000000
O O16 0.901990 0.254827 0.500000
O O17 0.885432 0.136388 0.427701
O O18 0.000000 0.229623 0.412881
O O19 0.773232 0.901696 0.500000
O O20 0.823089 0.000000 0.418859
O O21 0.000000 0.805278 0.913670
O O22 0.092883 0.760626 0.000000
#
# Coordination Sequence:
#
# PCOD8271055 Si02
#       8
#    16  16  16   8  16  16  16  16
#     4  10  20  34  52  74 100 135 176 214 253 298
#     4  12  21  35  53  76 104 131 169 212 259 311
#     4  11  23  38  54  73 101 135 172 214 258 305
#     4  11  20  30  50  76 103 131 156 196 257 320
#     4   9  17  30  50  76 105 135 168 209 255 303
#     4  10  21  35  53  78 106 135 167 205 249 301
#     4  10  20  35  55  78 104 135 168 204 249 302
#     4   9  17  30  50  76 105 135 168 209 257 306
#
# _framework density 17.498709999999999
#
# number of rings (size 3 to 8) (size 9 to 14) (size 15 to 20)
#    0.000    1.800    1.333    4.000    0.000    5.333 
#    0.000    2.667    0.000    0.000    0.000    5.600 
#    0.000    6.400    0.000    0.000    0.000    0.000 
#
# Total GULP energy -743625.757473 kJ/mol
# GULP energy per Si atom -12393.762625 kJ/mol
# Density = 1.745888 g / cm^3
# Si number density = 17.498710 Si / 1000 Ang^3
#
#
#
# Elastic Constant Matrix: (Units=GPa)
#
#
# Indices 1 2 3 4 5 6 
#
# 1 55.4565 49.0691 36.9583 0.0000 0.0000 0.0000
# 2 49.0691 125.2879 54.3539 0.0000 0.0000 0.0000
# 3 36.9583 54.3539 91.4294 0.0000 0.0000 0.0000
# 4 0.0000 0.0000 0.0000 45.5088 0.0000 0.0000
# 5 0.0000 0.0000 0.0000 0.0000 16.1379 0.0000
# 6 0.0000 0.0000 0.0000 0.0000 0.0000 33.0767
#
#
#
# Elastic Compliance Matrix: (Units=1/GPa)
#
#
# Indices 1 2 3 4 5 6 
#
# 1 0.030657 -0.008935 -0.007081 0.000000 0.000000 0.000000
# 2 -0.008935 0.013360 -0.004330 0.000000 0.000000 0.000000
# 3 -0.007081 -0.004330 0.016374 0.000000 0.000000 0.000000
# 4 0.000000 0.000000 0.000000 0.021974 0.000000 0.000000
# 5 0.000000 0.000000 0.000000 0.000000 0.061966 0.000000
# 6 0.000000 0.000000 0.000000 0.000000 0.000000 0.030233
#
#
# Mechanical properties :
#
#
# Convention : Reuss Voigt Hill
#
# Bulk Modulus (GPa) = 50.76537 61.43737 56.10137
# Shear Modulus (GPa) = 22.54070 27.73086 25.13578
#
# Velocity S-wave (km/s) = 3.59295 3.98519 3.79415
# Velocity P-wave (km/s) = 6.80341 7.50743 7.16407
#
# Compressibility (1/GPa) = 0.01969847
#
# Stress axis : x y z
#
# Youngs Moduli (GPa) = 32.61928 74.85208 61.07255
#
# Poissons Ratio (x) = 0.66880 0.43243
# Poissons Ratio (y) = 0.29145 0.26447
# Poissons Ratio (z) = 0.23096 0.32414
#
# Static dielectric constant tensor:
#      x y z
#    x 3.424830 0.000000 0.000000 
#    y 0.000000 3.363840 0.000000 
#    z 0.000000 0.000000 3.380440 
# 
# 
# High freq. dielectric constant tensor:
#      x y z
#    x 1.681140 0.000000 0.000000 
#    y 0.000000 1.686570 0.000000 
#    z 0.000000 0.000000 1.660520 
# 
# From -- ./inp_files/64011.got.cif
#   From: 2010.03.12/outbox.cif.g09.slc.cpg/sg65_33_cif.got.tgz:64011.got - 2010.04.10 20:52:16.
