data_PCOD8271961
_publ_section_title
;
Structure prediction by ZEFSAII (Michael W. Deem and Ramdas Pophale) SiO2 
 PCOD8271961
Probable space group: C M M M
;
_chemical_formula_sum "Si O2"
_cell_formula_units_Z 104
_cell_length_a 8.858336
_cell_length_b 27.592574
_cell_length_c 21.404724
_cell_angle_alpha 90.000000
_cell_angle_beta 90.000000
_cell_angle_gamma 90.000000
_cell_volume 5231.834501
_symmetry_space_group_name_H-M "C M M M"
_symmetry_group_IT_number 65
_symmetry_cell_setting 'orthorhombic'
loop_
_space_group_symop_operation_xyz
x,y,z
-x,-y,z
x,-y,-z
-x,y,-z
-x,-y,-z
x,y,-z
-x,y,z
x,-y,z
1/2+x,1/2+y,z
1/2-x,1/2-y,z
1/2+x,1/2-y,-z
1/2-x,1/2+y,-z
1/2-x,1/2-y,-z
1/2+x,1/2+y,-z
1/2-x,1/2+y,z
1/2+x,1/2-y,z
loop_
_atom_site_type_symbol
_atom_site_label
_atom_site_fract_x
_atom_site_fract_y
_atom_site_fract_z
Si Si1 0.169808 0.442863 0.500000
Si Si2 0.177483 0.699565 0.183417
Si Si3 0.673131 0.554430 0.143656
Si Si4 0.827384 0.699395 0.572353
Si Si5 0.323976 0.648310 0.929411
Si Si6 0.176423 0.396666 0.744950
Si Si7 0.821805 0.893847 0.383227
O O1 0.165406 0.500000 0.500000
O O2 0.253841 0.426276 0.437889
O O3 0.000000 0.421079 0.500000
O O4 0.250000 0.750000 0.206070
O O5 0.235166 0.685446 0.114593
O O6 0.222857 0.657450 0.232451
O O7 0.000000 0.706298 0.180078
O O8 0.500000 0.560370 0.165725
O O9 0.704338 0.500000 0.118886
O O10 0.709768 0.592366 0.088574
O O11 0.781318 0.564747 0.202088
O O12 0.816051 0.684617 0.500000
O O13 0.750000 0.750000 0.585688
O O14 0.736298 0.660920 0.612396
O O15 0.000000 0.701477 0.594934
O O16 0.500000 0.660071 0.922703
O O17 0.267421 0.656191 0.000000
O O18 0.268185 0.412961 0.683799
O O19 0.000000 0.399805 0.730201
O O20 0.000000 0.895746 0.388850
#
# Coordination Sequence:
#
# PCOD8271961 Si02
#       7
#     8  16  16  16  16  16  16
#     4  11  25  45  66  87 114 149 189 235 287 343
#     4  10  21  37  58  82 111 150 192 236 281 328
#     4   9  18  34  56  82 112 145 185 234 285 337
#     4  10  20  35  57  83 115 149 183 222 269 327
#     4   9  18  33  54  82 116 152 189 230 278 333
#     4  10  22  39  58  81 111 147 190 235 282 338
#     4  12  24  39  62  88 117 150 187 233 288 344
#
# _framework density 19.878305000000001
#
# number of rings (size 3 to 8) (size 9 to 14) (size 15 to 20)
#    0.000    1.923    0.769    3.000    0.000    5.538 
#    0.000    3.077    0.000    0.000    0.000    4.308 
#    0.000    0.000    0.000    0.000    0.000    0.000 
#
# Total GULP energy -644972.296895 kJ/mol
# GULP energy per Si atom -12403.313402 kJ/mol
# Density = 1.983306 g / cm^3
# Si number density = 19.878305 Si / 1000 Ang^3
#
#
#
# Elastic Constant Matrix: (Units=GPa)
#
#
# Indices 1 2 3 4 5 6 
#
# 1 115.1118 23.4500 39.4922 0.0000 0.0000 0.0000
# 2 23.4500 62.2413 7.5607 0.0000 0.0000 0.0000
# 3 39.4922 7.5607 95.5348 0.0000 0.0000 0.0000
# 4 0.0000 0.0000 0.0000 13.9915 0.0000 0.0000
# 5 0.0000 0.0000 0.0000 0.0000 31.0420 0.0000
# 6 0.0000 0.0000 0.0000 0.0000 0.0000 26.8195
#
#
#
# Elastic Compliance Matrix: (Units=1/GPa)
#
#
# Indices 1 2 3 4 5 6 
#
# 1 0.010860 -0.003581 -0.004206 0.000000 0.000000 0.000000
# 2 -0.003581 0.017403 0.000103 0.000000 0.000000 0.000000
# 3 -0.004206 0.000103 0.012198 0.000000 0.000000 0.000000
# 4 0.000000 0.000000 0.000000 0.071472 0.000000 0.000000
# 5 0.000000 0.000000 0.000000 0.000000 0.032214 0.000000
# 6 0.000000 0.000000 0.000000 0.000000 0.000000 0.037286
#
#
# Mechanical properties :
#
#
# Convention : Reuss Voigt Hill
#
# Bulk Modulus (GPa) = 39.85102 45.98818 42.91960
# Shear Modulus (GPa) = 24.37073 27.86296 26.11685
#
# Velocity S-wave (km/s) = 3.50522 3.74796 3.62862
# Velocity P-wave (km/s) = 6.03930 6.47415 6.26050
#
# Compressibility (1/GPa) = 0.02509346
#
# Stress axis : x y z
#
# Youngs Moduli (GPa) = 92.08523 57.46137 81.98188
#
# Poissons Ratio (x) = 0.20574 0.34479
# Poissons Ratio (y) = 0.32971 -0.00843
# Poissons Ratio (z) = 0.38729 -0.00591
#
# Static dielectric constant tensor:
#      x y z
#    x 3.657080 0.000000 0.000000 
#    y 0.000000 3.609630 0.000000 
#    z 0.000000 0.000000 3.561020 
# 
# 
# High freq. dielectric constant tensor:
#      x y z
#    x 1.780560 0.000000 0.000000 
#    y 0.000000 1.776850 0.000000 
#    z 0.000000 0.000000 1.769320 
# 
# From -- ./inp_files/60445.got.cif
#   From: 2010.03.12/outbox.cif.g09.slc.cpg/sg65_31_cif.got.tgz:60445.got - 2010.04.10 20:52:16.
