data_PCOD8271802
_publ_section_title
;
Structure prediction by ZEFSAII (Michael W. Deem and Ramdas Pophale) SiO2 
 PCOD8271802
Probable space group: C M M M
;
_chemical_formula_sum "Si O2"
_cell_formula_units_Z 80
_cell_length_a 8.032671
_cell_length_b 19.803283
_cell_length_c 27.101003
_cell_angle_alpha 90.000000
_cell_angle_beta 90.000000
_cell_angle_gamma 90.000000
_cell_volume 4311.044817
_symmetry_space_group_name_H-M "C M M M"
_symmetry_group_IT_number 65
_symmetry_cell_setting 'orthorhombic'
loop_
_space_group_symop_operation_xyz
x,y,z
-x,-y,z
x,-y,-z
-x,y,-z
-x,-y,-z
x,y,-z
-x,y,z
x,-y,z
1/2+x,1/2+y,z
1/2-x,1/2-y,z
1/2+x,1/2-y,-z
1/2-x,1/2+y,-z
1/2-x,1/2-y,-z
1/2+x,1/2+y,-z
1/2-x,1/2+y,z
1/2+x,1/2-y,z
loop_
_atom_site_type_symbol
_atom_site_label
_atom_site_fract_x
_atom_site_fract_y
_atom_site_fract_z
Si Si1 0.306082 0.075411 0.500000
Si Si2 0.186399 0.080439 0.117819
Si Si3 0.304454 0.676808 0.417672
Si Si4 0.000000 0.580514 0.055915
Si Si5 0.803524 0.074465 0.227742
Si Si6 0.803116 0.822820 0.692689
O O1 0.500000 0.066237 0.500000
O O2 0.256090 0.115969 0.548628
O O3 0.223901 0.000000 0.500000
O O4 0.330820 0.108449 0.081640
O O5 0.234769 0.103793 0.173207
O O6 0.000000 0.107224 0.102944
O O7 0.181328 0.000000 0.116549
O O8 0.500000 0.675153 0.416550
O O9 0.250000 0.750000 0.438667
O O10 0.230667 0.665789 0.362549
O O11 0.000000 0.500000 0.058208
O O12 0.000000 0.607016 0.000000
O O13 0.725042 0.122648 0.269643
O O14 0.000000 0.069422 0.234587
O O15 0.723944 0.000000 0.234155
O O16 0.750000 0.750000 0.712693
O O17 0.000000 0.828906 0.691871
#
# Coordination Sequence:
#
# PCOD8271802 Si02
#       6
#     8  16  16   8  16  16
#     4  11  24  39  54  73 101 131 160 207 256 293
#     4   8  14  25  40  58  85 122 160 198 242 292
#     4  10  20  35  56  77  99 130 167 202 245 301
#     4   9  16  24  36  58  90 124 160 201 242 292
#     4   8  14  27  47  67  90 126 163 193 234 289
#     4   9  18  32  50  73 100 127 155 198 245 287
#
# _framework density 18.556985999999998
#
# number of rings (size 3 to 8) (size 9 to 14) (size 15 to 20)
#    0.000    3.000    0.000    2.400    0.000    2.800 
#    1.800    4.000    0.000    0.000    0.000    0.000 
#    0.000    0.800    0.400    0.000    0.000    0.000 
#
# Total GULP energy -495713.305278 kJ/mol
# GULP energy per Si atom -12392.832632 kJ/mol
# Density = 1.851475 g / cm^3
# Si number density = 18.556986 Si / 1000 Ang^3
#
#
#
# Elastic Constant Matrix: (Units=GPa)
#
#
# Indices 1 2 3 4 5 6 
#
# 1 68.5205 26.1683 47.6506 0.0000 0.0000 0.0000
# 2 26.1683 98.1560 71.1442 0.0000 0.0000 0.0000
# 3 47.6506 71.1442 142.2399 0.0000 0.0000 0.0000
# 4 0.0000 0.0000 0.0000 8.7740 0.0000 0.0000
# 5 0.0000 0.0000 0.0000 0.0000 18.3104 0.0000
# 6 0.0000 0.0000 0.0000 0.0000 0.0000 15.5397
#
#
#
# Elastic Compliance Matrix: (Units=1/GPa)
#
#
# Indices 1 2 3 4 5 6 
#
# 1 0.019058 -0.000711 -0.006029 0.000000 0.000000 0.000000
# 2 -0.000711 0.016008 -0.007769 0.000000 0.000000 0.000000
# 3 -0.006029 -0.007769 0.012936 0.000000 0.000000 0.000000
# 4 0.000000 0.000000 0.000000 0.113973 0.000000 0.000000
# 5 0.000000 0.000000 0.000000 0.000000 0.054614 0.000000
# 6 0.000000 0.000000 0.000000 0.000000 0.000000 0.064351
#
#
# Mechanical properties :
#
#
# Convention : Reuss Voigt Hill
#
# Bulk Modulus (GPa) = 52.67323 66.53808 59.60565
# Shear Modulus (GPa) = 15.80849 19.45504 17.63177
#
# Velocity S-wave (km/s) = 2.92188 3.24140 3.08578
# Velocity P-wave (km/s) = 6.31105 7.06703 6.69971
#
# Compressibility (1/GPa) = 0.01898498
#
# Stress axis : x y z
#
# Youngs Moduli (GPa) = 52.47032 62.46808 77.30561
#
# Poissons Ratio (x) = 0.04443 0.46607
# Poissons Ratio (y) = 0.03732 0.60055
# Poissons Ratio (z) = 0.31634 0.48529
#
# Static dielectric constant tensor:
#      x y z
#    x 3.404520 0.000000 0.000000 
#    y 0.000000 3.215960 0.000000 
#    z 0.000000 0.000000 3.378480 
# 
# 
# High freq. dielectric constant tensor:
#      x y z
#    x 1.713080 0.000000 0.000000 
#    y 0.000000 1.677850 0.000000 
#    z 0.000000 0.000000 1.722790 
# 
# From -- ./inp_files/72891.got.cif
#   From: 2010.03.12/outbox.cif.g09.slc.cpg/sg65_37_cif.got.tgz:72891.got - 2010.04.10 20:52:16.
