data_PCOD8271428
_publ_section_title
;
Structure prediction by ZEFSAII (Michael W. Deem and Ramdas Pophale) SiO2 
 PCOD8271428
Probable space group: C M M M
;
_chemical_formula_sum "Si O2"
_cell_formula_units_Z 88
_cell_length_a 18.844429
_cell_length_b 9.046705
_cell_length_c 28.567218
_cell_angle_alpha 90.000000
_cell_angle_beta 90.000000
_cell_angle_gamma 90.000000
_cell_volume 4870.139041
_symmetry_space_group_name_H-M "C M M M"
_symmetry_group_IT_number 65
_symmetry_cell_setting 'orthorhombic'
loop_
_space_group_symop_operation_xyz
x,y,z
-x,-y,z
x,-y,-z
-x,y,-z
-x,-y,-z
x,y,-z
-x,y,z
x,-y,z
1/2+x,1/2+y,z
1/2-x,1/2-y,z
1/2+x,1/2-y,-z
1/2-x,1/2+y,-z
1/2-x,1/2-y,-z
1/2+x,1/2+y,-z
1/2-x,1/2+y,z
1/2+x,1/2-y,z
loop_
_atom_site_type_symbol
_atom_site_label
_atom_site_fract_x
_atom_site_fract_y
_atom_site_fract_z
Si Si1 0.915843 0.164656 0.828482
Si Si2 0.172711 0.823201 0.000000
Si Si3 0.918107 0.828040 0.273553
Si Si4 0.823255 0.326420 0.552394
Si Si5 0.419495 0.174158 0.636208
Si Si6 0.083381 0.328118 0.079636
O O1 0.885037 0.214239 0.777528
O O2 0.893305 0.282025 0.867967
O O3 0.000000 0.156971 0.824110
O O4 0.887736 0.000000 0.841556
O O5 0.250000 0.750000 0.000000
O O6 0.129089 0.771348 0.954926
O O7 0.179958 0.000000 0.000000
O O8 0.882461 0.740460 0.316829
O O9 0.000000 0.782073 0.272755
O O10 0.907441 0.000000 0.282843
O O11 0.849205 0.284158 0.500000
O O12 0.811727 0.500000 0.556920
O O13 0.750000 0.250000 0.564794
O O14 0.880336 0.268258 0.589741
O O15 0.500000 0.230559 0.631454
O O16 0.415134 0.000000 0.640433
O O17 0.101095 0.500000 0.071867
O O18 0.000000 0.297114 0.070980
#
# Coordination Sequence:
#
# PCOD8271428 Si02
#       6
#    16   8  16  16  16  16
#     4   8  14  26  45  70  99 130 163 197 237 285
#     4  12  25  40  57  75 101 137 173 208 251 302
#     4   8  14  25  42  66  97 129 158 191 233 281
#     4   9  18  32  48  65  87 118 155 193 234 281
#     4   9  17  28  44  68  95 121 151 190 236 284
#     4  10  20  34  54  81 109 134 166 209 250 289
#
# _framework density 18.069299000000001
#
# number of rings (size 3 to 8) (size 9 to 14) (size 15 to 20)
#    0.000    2.909    0.000    2.727    0.000    4.000 
#    0.000    5.455    0.000    1.091    0.000    7.636 
#    0.000    0.000    0.000    0.000    0.000    0.000 
#
# Total GULP energy -545294.651332 kJ/mol
# GULP energy per Si atom -12393.060258 kJ/mol
# Density = 1.802817 g / cm^3
# Si number density = 18.069299 Si / 1000 Ang^3
#
#
#
# Elastic Constant Matrix: (Units=GPa)
#
#
# Indices 1 2 3 4 5 6 
#
# 1 53.5181 34.9899 58.4392 0.0000 0.0000 0.0000
# 2 34.9899 69.7900 59.1089 0.0000 0.0000 0.0000
# 3 58.4392 59.1089 169.4363 0.0000 0.0000 0.0000
# 4 0.0000 0.0000 0.0000 35.0812 0.0000 0.0000
# 5 0.0000 0.0000 0.0000 0.0000 0.3862 0.0000
# 6 0.0000 0.0000 0.0000 0.0000 0.0000 20.7835
#
#
#
# Elastic Compliance Matrix: (Units=1/GPa)
#
#
# Indices 1 2 3 4 5 6 
#
# 1 0.034453 -0.010232 -0.008313 0.000000 0.000000 0.000000
# 2 -0.010232 0.023377 -0.004626 0.000000 0.000000 0.000000
# 3 -0.008313 -0.004626 0.010383 0.000000 0.000000 0.000000
# 4 0.000000 0.000000 0.000000 0.028505 0.000000 0.000000
# 5 0.000000 0.000000 0.000000 0.000000 2.589270 0.000000
# 6 0.000000 0.000000 0.000000 0.000000 0.000000 0.048115
#
#
# Mechanical properties :
#
#
# Convention : Reuss Voigt Hill
#
# Bulk Modulus (GPa) = 45.72582 66.42448 56.07515
# Shear Modulus (GPa) = 1.79357 20.59728 11.19543
#
# Velocity S-wave (km/s) = 0.99738 3.37991 2.49184
# Velocity P-wave (km/s) = 5.16596 7.21613 6.27533
#
# Compressibility (1/GPa) = 0.02186948
#
# Stress axis : x y z
#
# Youngs Moduli (GPa) = 29.02519 42.77760 96.31107
#
# Poissons Ratio (x) = 0.43771 0.80066
# Poissons Ratio (y) = 0.29699 0.44553
# Poissons Ratio (z) = 0.24130 0.19789
#
# Static dielectric constant tensor:
#      x y z
#    x 5.958230 0.000000 0.000000 
#    y 0.000000 3.283110 0.000000 
#    z 0.000000 0.000000 3.975760 
# 
# 
# High freq. dielectric constant tensor:
#      x y z
#    x 1.646390 0.000000 0.000000 
#    y 0.000000 1.695380 0.000000 
#    z 0.000000 0.000000 1.723550 
# 
# From -- ./inp_files/77885.got.cif
#   From: 2010.03.12/outbox.cif.g09.slc.cpg/sg65_39_cif.got.tgz:77885.got - 2010.04.10 20:52:16.
