data_PCOD8271098
_publ_section_title
;
Structure prediction by ZEFSAII (Michael W. Deem and Ramdas Pophale) SiO2 
 PCOD8271098
Probable space group: C M M M
;
_chemical_formula_sum "Si O2"
_cell_formula_units_Z 80
_cell_length_a 11.445521
_cell_length_b 27.578423
_cell_length_c 15.357340
_cell_angle_alpha 90.000000
_cell_angle_beta 90.000000
_cell_angle_gamma 90.000000
_cell_volume 4847.535457
_symmetry_space_group_name_H-M "C M M M"
_symmetry_group_IT_number 65
_symmetry_cell_setting 'orthorhombic'
loop_
_space_group_symop_operation_xyz
x,y,z
-x,-y,z
x,-y,-z
-x,y,-z
-x,-y,-z
x,y,-z
-x,y,z
x,-y,z
1/2+x,1/2+y,z
1/2-x,1/2-y,z
1/2+x,1/2-y,-z
1/2-x,1/2+y,-z
1/2-x,1/2-y,-z
1/2+x,1/2+y,-z
1/2-x,1/2+y,z
1/2+x,1/2-y,z
loop_
_atom_site_type_symbol
_atom_site_label
_atom_site_fract_x
_atom_site_fract_y
_atom_site_fract_z
Si Si1 0.500000 0.638641 0.899551
Si Si2 0.863824 0.390665 0.167056
Si Si3 0.247696 0.056146 0.676880
Si Si4 0.133130 0.557307 0.500000
Si Si5 0.500000 0.555745 0.753569
Si Si6 0.263162 0.695151 0.898817
Si Si7 0.360326 0.054468 0.000000
O O1 0.500000 0.591747 0.836539
O O2 0.390354 0.673178 0.880138
O O3 0.500000 0.620548 0.000000
O O4 0.817117 0.412028 0.255274
O O5 0.830987 0.334506 0.157425
O O6 0.807618 0.419399 0.085054
O O7 0.000000 0.397648 0.166535
O O8 0.291685 0.074711 0.583053
O O9 0.110101 0.065133 0.690426
O O10 0.280361 0.000000 0.690892
O O11 0.123882 0.500000 0.500000
O O12 0.000000 0.578763 0.500000
O O13 0.500000 0.500000 0.788265
O O14 0.250000 0.750000 0.865535
O O15 0.229237 0.692038 0.000000
O O16 0.500000 0.056567 0.000000
O O17 0.313229 0.000000 0.000000
#
# Coordination Sequence:
#
# PCOD8271098 Si02
#       7
#     8  16  16   8   8  16   8
#     4  10  20  37  53  73 106 146 187 223 260 310
#     4  11  20  31  49  73 101 133 172 213 258 313
#     4  10  20  34  52  75 106 140 175 217 259 311
#     4   9  18  33  53  77 104 136 174 215 268 321
#     4  10  20  34  52  76 109 147 184 217 255 311
#     4  10  21  35  52  72  99 136 178 225 269 308
#     4   9  18  30  43  65  99 137 167 200 247 304
#
# _framework density 16.503232000000001
#
# number of rings (size 3 to 8) (size 9 to 14) (size 15 to 20)
#    0.000    2.000    3.000    1.200    1.400    2.600 
#    0.000    2.000    0.000    0.000    0.000    0.700 
#    0.000    0.000    0.000    0.000    0.000    0.000 
#
# Total GULP energy -495961.844484 kJ/mol
# GULP energy per Si atom -12399.046112 kJ/mol
# Density = 1.646567 g / cm^3
# Si number density = 16.503232 Si / 1000 Ang^3
#
#
#
# Elastic Constant Matrix: (Units=GPa)
#
#
# Indices 1 2 3 4 5 6 
#
# 1 88.6443 40.0864 51.8470 0.0000 0.0000 0.0000
# 2 40.0864 106.1053 62.4045 0.0000 0.0000 0.0000
# 3 51.8470 62.4045 127.9763 0.0000 0.0000 0.0000
# 4 0.0000 0.0000 0.0000 9.3192 0.0000 0.0000
# 5 0.0000 0.0000 0.0000 0.0000 26.0536 0.0000
# 6 0.0000 0.0000 0.0000 0.0000 0.0000 20.9931
#
#
#
# Elastic Compliance Matrix: (Units=1/GPa)
#
#
# Indices 1 2 3 4 5 6 
#
# 1 0.015446 -0.003022 -0.004784 0.000000 0.000000 0.000000
# 2 -0.003022 0.013805 -0.005508 0.000000 0.000000 0.000000
# 3 -0.004784 -0.005508 0.012438 0.000000 0.000000 0.000000
# 4 0.000000 0.000000 0.000000 0.107306 0.000000 0.000000
# 5 0.000000 0.000000 0.000000 0.000000 0.038382 0.000000
# 6 0.000000 0.000000 0.000000 0.000000 0.000000 0.047635
#
#
# Mechanical properties :
#
#
# Convention : Reuss Voigt Hill
#
# Bulk Modulus (GPa) = 66.39208 70.15576 68.27392
# Shear Modulus (GPa) = 18.75049 22.49902 20.62475
#
# Velocity S-wave (km/s) = 3.37437 3.69631 3.53900
# Velocity P-wave (km/s) = 7.44976 7.79869 7.62622
#
# Compressibility (1/GPa) = 0.01506204
#
# Stress axis : x y z
#
# Youngs Moduli (GPa) = 64.74328 72.43494 80.39996
#
# Poissons Ratio (x) = 0.21887 0.38464
# Poissons Ratio (y) = 0.19563 0.44282
# Poissons Ratio (z) = 0.30973 0.39895
#
# Static dielectric constant tensor:
#      x y z
#    x 3.237390 0.000000 0.000000 
#    y 0.000000 3.062750 0.000000 
#    z 0.000000 0.000000 3.118600 
# 
# 
# High freq. dielectric constant tensor:
#      x y z
#    x 1.646740 0.000000 0.000000 
#    y 0.000000 1.617110 0.000000 
#    z 0.000000 0.000000 1.617470 
# 
# From -- ./inp_files/38600.got.cif
#   From: 2010.03.12/outbox.cif.g09.slc.cpg/sg65_20_cif.got.tgz:38600.got - 2010.04.10 20:52:16.
