data_PCOD8271971
_publ_section_title
;
Structure prediction by ZEFSAII (Michael W. Deem and Ramdas Pophale) SiO2 
 PCOD8271971
Probable space group: C M M M
;
_chemical_formula_sum "Si O2"
_cell_formula_units_Z 80
_cell_length_a 9.016166
_cell_length_b 17.814939
_cell_length_c 25.920136
_cell_angle_alpha 90.000000
_cell_angle_beta 90.000000
_cell_angle_gamma 90.000000
_cell_volume 4163.355679
_symmetry_space_group_name_H-M "C M M M"
_symmetry_group_IT_number 65
_symmetry_cell_setting 'orthorhombic'
loop_
_space_group_symop_operation_xyz
x,y,z
-x,-y,z
x,-y,-z
-x,y,-z
-x,-y,-z
x,y,-z
-x,y,z
x,-y,z
1/2+x,1/2+y,z
1/2-x,1/2-y,z
1/2+x,1/2-y,-z
1/2-x,1/2+y,-z
1/2-x,1/2-y,-z
1/2+x,1/2+y,-z
1/2-x,1/2+y,z
1/2+x,1/2-y,z
loop_
_atom_site_type_symbol
_atom_site_label
_atom_site_fract_x
_atom_site_fract_y
_atom_site_fract_z
Si Si1 0.667218 0.410400 0.500000
Si Si2 0.673278 0.585893 0.297105
Si Si3 0.332918 0.910597 0.600725
Si Si4 0.331853 0.089072 0.101834
Si Si5 0.831869 0.089452 0.000000
Si Si6 0.824323 0.170010 0.806306
O O1 0.671374 0.500000 0.500000
O O2 0.500000 0.380267 0.500000
O O3 0.748056 0.378424 0.550834
O O4 0.500000 0.591274 0.308495
O O5 0.720031 0.500000 0.285840
O O6 0.756544 0.618813 0.347055
O O7 0.721405 0.635794 0.248701
O O8 0.500000 0.880213 0.599170
O O9 0.327655 0.000000 0.599744
O O10 0.500000 0.120250 0.104583
O O11 0.236947 0.115061 0.150316
O O12 0.332500 0.000000 0.101478
O O13 0.254190 0.120305 0.050110
O O14 0.000000 0.120530 0.000000
O O15 0.832863 0.000000 0.000000
O O16 0.750000 0.250000 0.812856
O O17 0.000000 0.176683 0.812169
#
# Coordination Sequence:
#
# PCOD8271971 Si02
#       6
#     8  16  16  16   8  16
#     4   9  15  23  37  59  92 131 164 197 244 301
#     4   9  18  33  52  73  98 131 171 212 255 306
#     4   9  16  25  40  65  96 127 161 204 252 300
#     4  10  20  35  57  84 112 141 175 215 258 306
#     4   9  17  31  54  83 112 141 174 211 253 303
#     4  11  23  38  55  76 105 140 178 219 264 313
#
# _framework density 19.215268999999999
#
# number of rings (size 3 to 8) (size 9 to 14) (size 15 to 20)
#    0.000    2.400    0.000    3.000    0.000    8.400 
#    0.000    2.500    0.000    0.000    0.000    0.700 
#    0.000    0.000    0.000    0.000    0.000    0.000 
#
# Total GULP energy -496060.319792 kJ/mol
# GULP energy per Si atom -12401.507995 kJ/mol
# Density = 1.917153 g / cm^3
# Si number density = 19.215269 Si / 1000 Ang^3
#
#
#
# Elastic Constant Matrix: (Units=GPa)
#
#
# Indices 1 2 3 4 5 6 
#
# 1 129.2606 17.1316 86.4239 0.0000 0.0000 0.0000
# 2 17.1316 16.4989 13.2087 0.0000 0.0000 0.0000
# 3 86.4239 13.2087 171.9992 0.0000 0.0000 0.0000
# 4 0.0000 0.0000 0.0000 -0.7643 0.0000 0.0000
# 5 0.0000 0.0000 0.0000 0.0000 38.8498 0.0000
# 6 0.0000 0.0000 0.0000 0.0000 0.0000 19.1509
#
#
#
# Elastic Compliance Matrix: (Units=1/GPa)
#
#
# Indices 1 2 3 4 5 6 
#
# 1 0.012703 -0.008609 -0.005722 0.000000 0.000000 0.000000
# 2 -0.008609 0.070415 -0.001082 0.000000 0.000000 0.000000
# 3 -0.005722 -0.001082 0.008772 0.000000 0.000000 0.000000
# 4 0.000000 0.000000 0.000000 -1.308335 0.000000 0.000000
# 5 0.000000 0.000000 0.000000 0.000000 0.025740 0.000000
# 6 0.000000 0.000000 0.000000 0.000000 0.000000 0.052217
#
#
# Mechanical properties :
#
#
# Convention : Reuss Voigt Hill
#
# Bulk Modulus (GPa) = 16.37599 61.25411 38.81505
# Shear Modulus (GPa) = -4.59851 24.84691 10.12420
#
# Velocity S-wave (km/s) = -1.54866 3.59985 2.29788
# Velocity P-wave (km/s) = 2.31151 7.01609 5.22344
#
# Compressibility (1/GPa) = 0.06106503
#
# Stress axis : x y z
#
# Youngs Moduli (GPa) = 78.72280 14.20145 113.99971
#
# Poissons Ratio (x) = 0.12226 0.65226
# Poissons Ratio (y) = 0.67775 0.12331
# Poissons Ratio (z) = 0.45042 0.01536
#
# Static dielectric constant tensor:
#      x y z
#    x 3.721030 0.000000 0.000000 
#    y 0.000000 2.972230 0.000000 
#    z 0.000000 0.000000 3.731870 
# 
# 
# High freq. dielectric constant tensor:
#      x y z
#    x 1.761960 0.000000 0.000000 
#    y 0.000000 1.691250 0.000000 
#    z 0.000000 0.000000 1.766790 
# 
# From -- ./inp_files/67272.got.cif
#   From: 2010.03.12/outbox.cif.g09.slc.cpg/sg65_34_cif.got.tgz:67272.got - 2010.04.10 20:52:16.
