data_PCOD8271730
_publ_section_title
;
Structure prediction by ZEFSAII (Michael W. Deem and Ramdas Pophale) SiO2 
 PCOD8271730
Probable space group: C M M M
;
_chemical_formula_sum "Si O2"
_cell_formula_units_Z 88
_cell_length_a 18.477957
_cell_length_b 8.823308
_cell_length_c 28.739372
_cell_angle_alpha 90.000000
_cell_angle_beta 90.000000
_cell_angle_gamma 90.000000
_cell_volume 4685.572538
_symmetry_space_group_name_H-M "C M M M"
_symmetry_group_IT_number 65
_symmetry_cell_setting 'orthorhombic'
loop_
_space_group_symop_operation_xyz
x,y,z
-x,-y,z
x,-y,-z
-x,y,-z
-x,-y,-z
x,y,-z
-x,y,z
x,-y,z
1/2+x,1/2+y,z
1/2-x,1/2-y,z
1/2+x,1/2-y,-z
1/2-x,1/2+y,-z
1/2-x,1/2-y,-z
1/2+x,1/2+y,-z
1/2-x,1/2+y,z
1/2+x,1/2-y,z
loop_
_atom_site_type_symbol
_atom_site_label
_atom_site_fract_x
_atom_site_fract_y
_atom_site_fract_z
Si Si1 0.083201 0.178165 0.089285
Si Si2 0.828457 0.177459 0.449580
Si Si3 0.413958 0.170621 0.816917
Si Si4 0.585707 0.326751 0.723534
Si Si5 0.171557 0.820434 0.000000
Si Si6 0.829137 0.321184 0.641732
O O1 0.115426 0.258415 0.135146
O O2 0.128729 0.236695 0.045375
O O3 0.000000 0.223546 0.080470
O O4 0.090853 0.000000 0.096728
O O5 0.867677 0.204304 0.500000
O O6 0.750000 0.250000 0.452613
O O7 0.867626 0.257918 0.405779
O O8 0.821805 0.000000 0.439034
O O9 0.500000 0.174306 0.817776
O O10 0.385656 0.269049 0.773491
O O11 0.384459 0.000000 0.811948
O O12 0.500000 0.309384 0.719921
O O13 0.610330 0.500000 0.717018
O O14 0.620388 0.222506 0.684378
O O15 0.250000 0.750000 0.000000
O O16 0.177234 0.000000 0.000000
O O17 0.821960 0.500000 0.638645
O O18 0.750000 0.250000 0.648433
#
# Coordination Sequence:
#
# PCOD8271730 Si02
#       6
#    16  16  16  16   8  16
#     4   9  17  32  54  76  97 126 167 209 246 287
#     4   9  16  27  45  69  97 129 167 210 254 300
#     4   9  17  30  50  77 104 128 161 207 254 297
#     4  10  20  35  55  77 103 136 172 209 253 306
#     4  10  21  35  51  73 103 136 166 200 244 296
#     4  11  21  33  51  75 105 136 169 211 256 304
#
# _framework density 18.781056
#
# number of rings (size 3 to 8) (size 9 to 14) (size 15 to 20)
#    0.000    2.364    0.000    4.636    0.000    6.182 
#    0.000    0.909    0.000    5.455    0.000    3.818 
#    0.000    0.000    0.000    0.000    0.000    0.000 
#
# Total GULP energy -545443.152390 kJ/mol
# GULP energy per Si atom -12396.435282 kJ/mol
# Density = 1.873831 g / cm^3
# Si number density = 18.781056 Si / 1000 Ang^3
#
#
#
# Elastic Constant Matrix: (Units=GPa)
#
#
# Indices 1 2 3 4 5 6 
#
# 1 39.2170 27.4666 42.6161 0.0000 0.0000 0.0000
# 2 27.4666 120.8425 69.0476 0.0000 0.0000 0.0000
# 3 42.6161 69.0476 188.4003 0.0000 0.0000 0.0000
# 4 0.0000 0.0000 0.0000 33.9370 0.0000 0.0000
# 5 0.0000 0.0000 0.0000 0.0000 87.6522 0.0000
# 6 0.0000 0.0000 0.0000 0.0000 0.0000 22.7202
#
#
#
# Elastic Compliance Matrix: (Units=1/GPa)
#
#
# Indices 1 2 3 4 5 6 
#
# 1 0.035577 -0.004412 -0.006431 0.000000 0.000000 0.000000
# 2 -0.004412 0.011014 -0.003039 0.000000 0.000000 0.000000
# 3 -0.006431 -0.003039 0.007876 0.000000 0.000000 0.000000
# 4 0.000000 0.000000 0.000000 0.029466 0.000000 0.000000
# 5 0.000000 0.000000 0.000000 0.000000 0.011409 0.000000
# 6 0.000000 0.000000 0.000000 0.000000 0.000000 0.044014
#
#
# Mechanical properties :
#
#
# Convention : Reuss Voigt Hill
#
# Bulk Modulus (GPa) = 37.44620 69.63559 53.54089
# Shear Modulus (GPa) = 28.40576 42.81718 35.61147
#
# Velocity S-wave (km/s) = 3.89327 4.77991 4.35919
# Velocity P-wave (km/s) = 6.33968 8.22323 7.34211
#
# Compressibility (1/GPa) = 0.02670498
#
# Stress axis : x y z
#
# Youngs Moduli (GPa) = 28.10790 90.79082 126.96667
#
# Poissons Ratio (x) = 0.40058 0.81646
# Poissons Ratio (y) = 0.12402 0.38581
# Poissons Ratio (z) = 0.18075 0.27588
#
# Static dielectric constant tensor:
#      x y z
#    x 2.878670 0.000000 0.000000 
#    y 0.000000 3.568440 0.000000 
#    z 0.000000 0.000000 4.115860 
# 
# 
# High freq. dielectric constant tensor:
#      x y z
#    x 1.671510 0.000000 0.000000 
#    y 0.000000 1.739810 0.000000 
#    z 0.000000 0.000000 1.756760 
# 
# From -- ./inp_files/77815.got.cif
#   From: 2010.03.12/outbox.cif.g09.slc.cpg/sg65_39_cif.got.tgz:77815.got - 2010.04.10 20:52:16.
