data_PCOD8271090
_publ_section_title
;
Structure prediction by ZEFSAII (Michael W. Deem and Ramdas Pophale) SiO2 
 PCOD8271090
Probable space group: C M M M
;
_chemical_formula_sum "Si O2"
_cell_formula_units_Z 80
_cell_length_a 18.311174
_cell_length_b 25.675556
_cell_length_c 9.005815
_cell_angle_alpha 90.000000
_cell_angle_beta 90.000000
_cell_angle_gamma 90.000000
_cell_volume 4234.080081
_symmetry_space_group_name_H-M "C M M M"
_symmetry_group_IT_number 65
_symmetry_cell_setting 'orthorhombic'
loop_
_space_group_symop_operation_xyz
x,y,z
-x,-y,z
x,-y,-z
-x,y,-z
-x,-y,-z
x,y,-z
-x,y,z
x,-y,z
1/2+x,1/2+y,z
1/2-x,1/2-y,z
1/2+x,1/2-y,-z
1/2-x,1/2+y,-z
1/2-x,1/2-y,-z
1/2+x,1/2+y,-z
1/2-x,1/2+y,z
1/2+x,1/2-y,z
loop_
_atom_site_type_symbol
_atom_site_label
_atom_site_fract_x
_atom_site_fract_y
_atom_site_fract_z
Si Si1 0.918376 0.557883 0.176281
Si Si2 0.914958 0.755384 0.829849
Si Si3 0.081770 0.942383 0.323582
Si Si4 0.328990 0.655158 0.324252
Si Si5 0.175418 0.653010 0.173273
O O1 0.892216 0.500000 0.224592
O O2 0.861883 0.600559 0.238680
O O3 0.000000 0.568441 0.238721
O O4 0.921258 0.562462 0.000000
O O5 0.881724 0.798312 0.722231
O O6 0.879285 0.699995 0.794620
O O7 0.000000 0.750023 0.795405
O O8 0.900269 0.771718 0.000000
O O9 0.080297 0.940370 0.500000
O O10 0.137450 0.899070 0.261797
O O11 0.000000 0.930739 0.263520
O O12 0.107061 0.000000 0.269942
O O13 0.322815 0.654399 0.500000
O O14 0.249790 0.664205 0.257632
O O15 0.193124 0.647452 0.000000
#
# Coordination Sequence:
#
# PCOD8271090 Si02
#       5
#    16  16  16  16  16
#     4   8  14  27  50  78 103 129 168 216 257 293
#     4  10  21  37  56  75  97 130 171 211 251 298
#     4   8  15  30  51  72  95 127 167 206 243 288
#     4  11  22  34  51  77 106 134 166 206 251 299
#     4  10  20  34  52  75 104 136 168 204 250 303
#
# _framework density 18.894304999999999
#
# number of rings (size 3 to 8) (size 9 to 14) (size 15 to 20)
#    0.000    2.600    0.000    3.600    0.000    7.600 
#    0.000    0.000    0.000    3.600    0.000    8.400 
#    0.000    0.000    0.000    0.000    0.000    0.000 
#
# Total GULP energy -495931.146583 kJ/mol
# GULP energy per Si atom -12398.278665 kJ/mol
# Density = 1.885130 g / cm^3
# Si number density = 18.894305 Si / 1000 Ang^3
#
#
#
# Elastic Constant Matrix: (Units=GPa)
#
#
# Indices 1 2 3 4 5 6 
#
# 1 133.8331 73.1424 36.5163 0.0000 0.0000 0.0000
# 2 73.1424 139.0700 38.8986 0.0000 0.0000 0.0000
# 3 36.5163 38.8986 36.8102 0.0000 0.0000 0.0000
# 4 0.0000 0.0000 0.0000 20.9104 0.0000 0.0000
# 5 0.0000 0.0000 0.0000 0.0000 7.8350 0.0000
# 6 0.0000 0.0000 0.0000 0.0000 0.0000 19.0049
#
#
#
# Elastic Compliance Matrix: (Units=1/GPa)
#
#
# Indices 1 2 3 4 5 6 
#
# 1 0.011707 -0.004129 -0.007250 0.000000 0.000000 0.000000
# 2 -0.004129 0.011664 -0.008230 0.000000 0.000000 0.000000
# 3 -0.007250 -0.008230 0.043055 0.000000 0.000000 0.000000
# 4 0.000000 0.000000 0.000000 0.047823 0.000000 0.000000
# 5 0.000000 0.000000 0.000000 0.000000 0.127633 0.000000
# 6 0.000000 0.000000 0.000000 0.000000 0.000000 0.052618
#
#
# Mechanical properties :
#
#
# Convention : Reuss Voigt Hill
#
# Bulk Modulus (GPa) = 36.75336 67.42533 52.08935
# Shear Modulus (GPa) = 14.58631 20.29378 17.44005
#
# Velocity S-wave (km/s) = 2.78149 3.28085 3.04144
# Velocity P-wave (km/s) = 5.45985 7.07920 6.32159
#
# Compressibility (1/GPa) = 0.02720839
#
# Stress axis : x y z
#
# Youngs Moduli (GPa) = 85.42014 85.73195 23.22616
#
# Poissons Ratio (x) = 0.35401 0.16839
# Poissons Ratio (y) = 0.35272 0.19114
# Poissons Ratio (z) = 0.61928 0.70555
#
# Static dielectric constant tensor:
#      x y z
#    x 3.557950 0.000000 0.000000 
#    y 0.000000 3.848110 0.000000 
#    z 0.000000 0.000000 3.024870 
# 
# 
# High freq. dielectric constant tensor:
#      x y z
#    x 1.740270 0.000000 0.000000 
#    y 0.000000 1.752540 0.000000 
#    z 0.000000 0.000000 1.686260 
# 
# From -- ./inp_files/9617.got.cif
#   From: 2010.03.12/outbox.cif.g09.slc.cpg/sg65_5_cif.got.tgz:9617.got - 2010.04.10 20:52:16.
