data_PCOD8271612
_publ_section_title
;
Structure prediction by ZEFSAII (Michael W. Deem and Ramdas Pophale) SiO2 
 PCOD8271612
Probable space group: C M M M
;
_chemical_formula_sum "Si O2"
_cell_formula_units_Z 104
_cell_length_a 8.123187
_cell_length_b 27.658925
_cell_length_c 28.269128
_cell_angle_alpha 90.000000
_cell_angle_beta 90.000000
_cell_angle_gamma 90.000000
_cell_volume 6351.468667
_symmetry_space_group_name_H-M "C M M M"
_symmetry_group_IT_number 65
_symmetry_cell_setting 'orthorhombic'
loop_
_space_group_symop_operation_xyz
x,y,z
-x,-y,z
x,-y,-z
-x,y,-z
-x,-y,-z
x,y,-z
-x,y,z
x,-y,z
1/2+x,1/2+y,z
1/2-x,1/2-y,z
1/2+x,1/2-y,-z
1/2-x,1/2+y,-z
1/2-x,1/2-y,-z
1/2+x,1/2+y,-z
1/2-x,1/2+y,z
1/2+x,1/2-y,z
loop_
_atom_site_type_symbol
_atom_site_label
_atom_site_fract_x
_atom_site_fract_y
_atom_site_fract_z
Si Si1 0.804922 0.395622 0.805693
Si Si2 0.500000 0.057634 0.446178
Si Si3 0.183622 0.057404 0.389300
Si Si4 0.694005 0.054241 0.100062
Si Si5 0.306286 0.944164 0.711492
Si Si6 0.810338 0.302935 0.856470
Si Si7 0.190493 0.147422 0.052779
O O1 0.755674 0.434377 0.845848
O O2 0.734663 0.412671 0.755143
O O3 0.730156 0.343374 0.821553
O O4 0.000000 0.393208 0.801528
O O5 0.500000 0.075728 0.500000
O O6 0.332109 0.078207 0.421907
O O7 0.500000 0.000000 0.442712
O O8 0.213435 0.073999 0.335392
O O9 0.000000 0.075432 0.405372
O O10 0.190359 0.000000 0.392161
O O11 0.500000 0.060747 0.093329
O O12 0.782476 0.091112 0.064739
O O13 0.751280 0.000000 0.087692
O O14 0.500000 0.936622 0.703606
O O15 0.267646 0.000000 0.722324
O O16 0.750000 0.250000 0.843437
O O17 0.780881 0.316692 0.911093
O O18 0.000000 0.304022 0.846331
O O19 0.000000 0.159886 0.055754
O O20 0.258450 0.157420 0.000000
#
# Coordination Sequence:
#
# PCOD8271612 Si02
#       7
#    16   8  16  16  16  16  16
#     4   8  15  27  45  67  86 110 144 175 207 258
#     4   9  16  26  38  52  74 110 156 198 235 269
#     4   9  16  25  36  54  80 109 147 193 233 267
#     4   9  17  30  47  67  91 117 145 175 210 255
#     4   9  14  23  41  61  84 114 144 178 219 259
#     4  10  20  35  53  70  88 110 138 175 217 264
#     4  10  21  35  49  66  87 111 141 176 216 260
#
# _framework density 16.374165000000001
#
# number of rings (size 3 to 8) (size 9 to 14) (size 15 to 20)
#    0.000    2.846    0.769    2.308    0.000    4.308 
#    0.000    6.923    0.000    3.692    0.000    0.000 
#    0.000    0.000    0.000    0.000    0.000    0.769 
#
# Total GULP energy -644431.469832 kJ/mol
# GULP energy per Si atom -12392.912881 kJ/mol
# Density = 1.633690 g / cm^3
# Si number density = 16.374165 Si / 1000 Ang^3
#
#
#
# Elastic Constant Matrix: (Units=GPa)
#
#
# Indices 1 2 3 4 5 6 
#
# 1 58.8889 13.4010 38.4038 0.0000 0.0000 0.0000
# 2 13.4010 63.4427 25.4678 0.0000 0.0000 0.0000
# 3 38.4038 25.4678 106.2536 0.0000 0.0000 0.0000
# 4 0.0000 0.0000 0.0000 11.5615 0.0000 0.0000
# 5 0.0000 0.0000 0.0000 0.0000 13.7827 0.0000
# 6 0.0000 0.0000 0.0000 0.0000 0.0000 17.5408
#
#
#
# Elastic Compliance Matrix: (Units=1/GPa)
#
#
# Indices 1 2 3 4 5 6 
#
# 1 0.022371 -0.001637 -0.007693 0.000000 0.000000 0.000000
# 2 -0.001637 0.017560 -0.003617 0.000000 0.000000 0.000000
# 3 -0.007693 -0.003617 0.013059 0.000000 0.000000 0.000000
# 4 0.000000 0.000000 0.000000 0.086494 0.000000 0.000000
# 5 0.000000 0.000000 0.000000 0.000000 0.072555 0.000000
# 6 0.000000 0.000000 0.000000 0.000000 0.000000 0.057010
#
#
# Mechanical properties :
#
#
# Convention : Reuss Voigt Hill
#
# Bulk Modulus (GPa) = 36.90744 42.57006 39.73875
# Shear Modulus (GPa) = 16.44870 18.66449 17.55659
#
# Velocity S-wave (km/s) = 3.17290 3.37987 3.27802
# Velocity P-wave (km/s) = 6.00101 6.42542 6.21684
#
# Compressibility (1/GPa) = 0.02709481
#
# Stress axis : x y z
#
# Youngs Moduli (GPa) = 44.70135 56.94715 76.57527
#
# Poissons Ratio (x) = 0.09323 0.58911
# Poissons Ratio (y) = 0.07318 0.27699
# Poissons Ratio (z) = 0.34389 0.20599
#
# Static dielectric constant tensor:
#      x y z
#    x 3.084680 0.000000 0.000000 
#    y 0.000000 2.573560 0.000000 
#    z 0.000000 0.000000 3.163060 
# 
# 
# High freq. dielectric constant tensor:
#      x y z
#    x 1.627660 0.000000 0.000000 
#    y 0.000000 1.583550 0.000000 
#    z 0.000000 0.000000 1.619170 
# 
# From -- ./inp_files/74046.got.cif
#   From: 2010.03.12/outbox.cif.g09.slc.cpg/sg65_38_cif.got.tgz:74046.got - 2010.04.10 20:52:16.
