data_PCOD8271558
_publ_section_title
;
Structure prediction by ZEFSAII (Michael W. Deem and Ramdas Pophale) SiO2 
 PCOD8271558
Probable space group: C M M M
;
_chemical_formula_sum "Si O2"
_cell_formula_units_Z 88
_cell_length_a 17.346970
_cell_length_b 18.245304
_cell_length_c 14.174068
_cell_angle_alpha 90.000000
_cell_angle_beta 90.000000
_cell_angle_gamma 90.000000
_cell_volume 4486.103027
_symmetry_space_group_name_H-M "C M M M"
_symmetry_group_IT_number 65
_symmetry_cell_setting 'orthorhombic'
loop_
_space_group_symop_operation_xyz
x,y,z
-x,-y,z
x,-y,-z
-x,y,-z
-x,-y,-z
x,y,-z
-x,y,z
x,-y,z
1/2+x,1/2+y,z
1/2-x,1/2-y,z
1/2+x,1/2-y,-z
1/2-x,1/2+y,-z
1/2-x,1/2-y,-z
1/2+x,1/2+y,-z
1/2-x,1/2+y,z
1/2+x,1/2-y,z
loop_
_atom_site_type_symbol
_atom_site_label
_atom_site_fract_x
_atom_site_fract_y
_atom_site_fract_z
Si Si1 0.705508 0.676163 0.891822
Si Si2 0.591319 0.500000 0.391039
Si Si3 0.588194 0.919343 0.705152
Si Si4 0.591846 0.220651 0.604436
Si Si5 0.648266 0.914146 0.899255
Si Si6 0.091621 0.857190 0.727329
O O1 0.750000 0.750000 0.859087
O O2 0.764775 0.609903 0.879965
O O3 0.632806 0.652972 0.828020
O O4 0.676548 0.684801 0.000000
O O5 0.500000 0.500000 0.398446
O O6 0.623764 0.500000 0.500000
O O7 0.618715 0.571224 0.331616
O O8 0.500000 0.927517 0.676971
O O9 0.627173 0.856967 0.640544
O O10 0.593361 0.890763 0.813262
O O11 0.628106 0.000000 0.691641
O O12 0.623469 0.234135 0.500000
O O13 0.500000 0.216362 0.606798
O O14 0.619811 0.287669 0.667307
O O15 0.648102 0.000000 0.908084
O O16 0.618893 0.880267 0.000000
O O17 0.000000 0.858948 0.744882
#
# Coordination Sequence:
#
# PCOD8271558 Si02
#       6
#    16   8  16  16  16  16
#     4  10  21  36  54  77 106 142 181 215 262 330
#     4   9  18  34  57  85 113 141 181 232 282 332
#     4   9  17  29  48  76 104 132 173 223 267 306
#     4   9  17  30  49  73 101 132 168 211 261 320
#     4   9  18  32  50  71  97 135 174 205 252 317
#     4  10  20  34  56  84 108 138 181 229 278 318
#
# _framework density 19.616133999999999
#
# number of rings (size 3 to 8) (size 9 to 14) (size 15 to 20)
#    0.000    2.636    0.000    1.636    1.273    3.273 
#    0.000    3.636    0.000   18.000    0.000    0.000 
#    0.000    0.000    0.000    0.000    0.000    0.000 
#
# Total GULP energy -545142.127963 kJ/mol
# GULP energy per Si atom -12389.593817 kJ/mol
# Density = 1.957149 g / cm^3
# Si number density = 19.616134 Si / 1000 Ang^3
#
#
#
# Elastic Constant Matrix: (Units=GPa)
#
#
# Indices 1 2 3 4 5 6 
#
# 1 24.3877 17.4910 23.4846 0.0000 0.0000 0.0000
# 2 17.4910 92.6193 62.6293 0.0000 0.0000 0.0000
# 3 23.4846 62.6293 114.1658 0.0000 0.0000 0.0000
# 4 0.0000 0.0000 0.0000 31.5430 0.0000 0.0000
# 5 0.0000 0.0000 0.0000 0.0000 17.8737 0.0000
# 6 0.0000 0.0000 0.0000 0.0000 0.0000 18.0144
#
#
#
# Elastic Compliance Matrix: (Units=1/GPa)
#
#
# Indices 1 2 3 4 5 6 
#
# 1 0.052104 -0.004121 -0.008457 0.000000 0.000000 0.000000
# 2 -0.004121 0.017490 -0.008747 0.000000 0.000000 0.000000
# 3 -0.008457 -0.008747 0.015297 0.000000 0.000000 0.000000
# 4 0.000000 0.000000 0.000000 0.031703 0.000000 0.000000
# 5 0.000000 0.000000 0.000000 0.000000 0.055948 0.000000
# 6 0.000000 0.000000 0.000000 0.000000 0.000000 0.055511
#
#
# Mechanical properties :
#
#
# Convention : Reuss Voigt Hill
#
# Bulk Modulus (GPa) = 23.67386 48.70917 36.19151
# Shear Modulus (GPa) = 17.55720 21.99076 19.77398
#
# Velocity S-wave (km/s) = 2.99497 3.35185 3.17842
# Velocity P-wave (km/s) = 4.90454 6.31387 5.65329
#
# Compressibility (1/GPa) = 0.04224069
#
# Stress axis : x y z
#
# Youngs Moduli (GPa) = 19.19241 57.17639 65.37091
#
# Poissons Ratio (x) = 0.23561 0.55287
# Poissons Ratio (y) = 0.07909 0.57179
# Poissons Ratio (z) = 0.16232 0.50012
#
# Static dielectric constant tensor:
#      x y z
#    x 2.737100 0.000000 0.000000 
#    y 0.000000 3.928940 0.000000 
#    z 0.000000 0.000000 4.211570 
# 
# 
# High freq. dielectric constant tensor:
#      x y z
#    x 1.709800 0.000000 0.000000 
#    y 0.000000 1.779050 0.000000 
#    z 0.000000 0.000000 1.774360 
# 
# From -- ./inp_files/28730.got.cif
#   From: 2010.03.12/outbox.cif.g09.slc.cpg/sg65_15_cif.got.tgz:28730.got - 2010.04.10 20:52:16.
