data_PCOD8271724
_publ_section_title
;
Structure prediction by ZEFSAII (Michael W. Deem and Ramdas Pophale) SiO2 
 PCOD8271724
Probable space group: C M M M
;
_chemical_formula_sum "Si O2"
_cell_formula_units_Z 88
_cell_length_a 15.188995
_cell_length_b 9.791796
_cell_length_c 32.007695
_cell_angle_alpha 90.000000
_cell_angle_beta 90.000000
_cell_angle_gamma 90.000000
_cell_volume 4760.425754
_symmetry_space_group_name_H-M "C M M M"
_symmetry_group_IT_number 65
_symmetry_cell_setting 'orthorhombic'
loop_
_space_group_symop_operation_xyz
x,y,z
-x,-y,z
x,-y,-z
-x,y,-z
-x,-y,-z
x,y,-z
-x,y,z
x,-y,z
1/2+x,1/2+y,z
1/2-x,1/2-y,z
1/2+x,1/2-y,-z
1/2-x,1/2+y,-z
1/2-x,1/2-y,-z
1/2+x,1/2+y,-z
1/2-x,1/2+y,z
1/2+x,1/2-y,z
loop_
_atom_site_type_symbol
_atom_site_label
_atom_site_fract_x
_atom_site_fract_y
_atom_site_fract_z
Si Si1 0.500000 0.838039 0.239391
Si Si2 0.500000 0.837551 0.854697
Si Si3 0.395292 0.653466 0.546168
Si Si4 0.831286 0.340095 0.290180
Si Si5 0.102271 0.655831 0.381257
Si Si6 0.662339 0.840852 0.090973
Si Si7 0.169927 0.348302 0.000000
O O1 0.500000 0.779765 0.192374
O O2 0.414015 0.786361 0.263646
O O3 0.500000 0.000000 0.239328
O O4 0.411703 0.784608 0.877473
O O5 0.500000 0.000000 0.855829
O O6 0.361185 0.697148 0.500000
O O7 0.500000 0.662158 0.546501
O O8 0.364149 0.500000 0.556488
O O9 0.356445 0.753137 0.581550
O O10 0.812817 0.500000 0.282166
O O11 0.750000 0.250000 0.274522
O O12 0.846985 0.310619 0.338875
O O13 0.115193 0.500000 0.394856
O O14 0.000000 0.688827 0.373495
O O15 0.750000 0.750000 0.096616
O O16 0.685690 0.000000 0.099918
O O17 0.619224 0.825359 0.044044
O O18 0.250000 0.250000 0.000000
O O19 0.209528 0.500000 0.000000
#
# Coordination Sequence:
#
# PCOD8271724 Si02
#       7
#     8   8  16  16  16  16   8
#     4   9  18  36  56  73 101 135 164 201 255 312
#     4   9  18  31  51  76  98 129 171 208 249 306
#     4   8  14  24  39  64  98 131 160 192 235 284
#     4  10  20  35  55  77 100 129 164 204 251 301
#     4   9  16  28  47  69  94 126 162 198 237 285
#     4   9  17  30  48  72 101 134 172 210 251 297
#     4   8  14  25  43  67  98 132 166 209 251 289
#
# _framework density 18.485742999999999
#
# number of rings (size 3 to 8) (size 9 to 14) (size 15 to 20)
#    0.000    3.091    0.909    0.545    0.000    2.182 
#    0.000    4.545    0.000    1.636    0.000    6.364 
#    0.000    0.000    0.000    0.000    0.000    0.000 
#
# Total GULP energy -545248.673573 kJ/mol
# GULP energy per Si atom -12392.015308 kJ/mol
# Density = 1.844367 g / cm^3
# Si number density = 18.485743 Si / 1000 Ang^3
#
#
#
# Elastic Constant Matrix: (Units=GPa)
#
#
# Indices 1 2 3 4 5 6 
#
# 1 100.4723 44.1079 63.1164 0.0000 0.0000 0.0000
# 2 44.1079 59.9427 53.1288 0.0000 0.0000 0.0000
# 3 63.1164 53.1288 140.0775 0.0000 0.0000 0.0000
# 4 0.0000 0.0000 0.0000 17.2788 0.0000 0.0000
# 5 0.0000 0.0000 0.0000 0.0000 6.7597 0.0000
# 6 0.0000 0.0000 0.0000 0.0000 0.0000 23.2001
#
#
#
# Elastic Compliance Matrix: (Units=1/GPa)
#
#
# Indices 1 2 3 4 5 6 
#
# 1 0.016179 -0.008200 -0.004180 0.000000 0.000000 0.000000
# 2 -0.008200 0.029287 -0.007413 0.000000 0.000000 0.000000
# 3 -0.004180 -0.007413 0.011834 0.000000 0.000000 0.000000
# 4 0.000000 0.000000 0.000000 0.057874 0.000000 0.000000
# 5 0.000000 0.000000 0.000000 0.000000 0.147936 0.000000
# 6 0.000000 0.000000 0.000000 0.000000 0.000000 0.043103
#
#
# Mechanical properties :
#
#
# Convention : Reuss Voigt Hill
#
# Bulk Modulus (GPa) = 56.45415 69.02207 62.73811
# Shear Modulus (GPa) = 14.21654 18.79036 16.50345
#
# Velocity S-wave (km/s) = 2.77619 3.19168 2.99116
# Velocity P-wave (km/s) = 6.39390 7.14154 6.77803
#
# Compressibility (1/GPa) = 0.01771349
#
# Stress axis : x y z
#
# Youngs Moduli (GPa) = 61.81025 34.14470 84.50377
#
# Poissons Ratio (x) = 0.28000 0.35319
# Poissons Ratio (y) = 0.50686 0.62644
# Poissons Ratio (z) = 0.25834 0.25312
#
# Static dielectric constant tensor:
#      x y z
#    x 3.605900 0.000000 0.000000 
#    y 0.000000 3.240660 0.000000 
#    z 0.000000 0.000000 3.920710 
# 
# 
# High freq. dielectric constant tensor:
#      x y z
#    x 1.693270 0.000000 0.000000 
#    y 0.000000 1.692820 0.000000 
#    z 0.000000 0.000000 1.727400 
# 
# From -- ./inp_files/74784.got.cif
#   From: 2010.03.12/outbox.cif.g09.slc.cpg/sg65_38_cif.got.tgz:74784.got - 2010.04.10 20:52:16.
