data_PCOD8272050
_publ_section_title
;
Structure prediction by ZEFSAII (Michael W. Deem and Ramdas Pophale) SiO2 
 PCOD8272050
Probable space group: C M M M
;
_chemical_formula_sum "Si O2"
_cell_formula_units_Z 64
_cell_length_a 33.109056
_cell_length_b 10.704890
_cell_length_c 8.763556
_cell_angle_alpha 90.000000
_cell_angle_beta 90.000000
_cell_angle_gamma 90.000000
_cell_volume 3106.056659
_symmetry_space_group_name_H-M "C M M M"
_symmetry_group_IT_number 65
_symmetry_cell_setting 'orthorhombic'
loop_
_space_group_symop_operation_xyz
x,y,z
-x,-y,z
x,-y,-z
-x,y,-z
-x,-y,-z
x,y,-z
-x,y,z
x,-y,z
1/2+x,1/2+y,z
1/2-x,1/2-y,z
1/2+x,1/2-y,-z
1/2-x,1/2+y,-z
1/2-x,1/2-y,-z
1/2+x,1/2+y,-z
1/2-x,1/2+y,z
1/2+x,1/2-y,z
loop_
_atom_site_type_symbol
_atom_site_label
_atom_site_fract_x
_atom_site_fract_y
_atom_site_fract_z
Si Si1 0.500000 0.358533 0.334170
Si Si2 0.576236 0.249314 0.180433
Si Si3 0.160463 0.235072 0.681327
Si Si4 0.786991 0.000000 0.319113
Si Si5 0.952928 0.500000 0.679287
Si Si6 0.696220 0.000000 0.681395
O O1 0.500000 0.500000 0.379024
O O2 0.500000 0.284333 0.500000
O O3 0.539469 0.333420 0.235926
O O4 0.618134 0.302946 0.243184
O O5 0.570231 0.113687 0.248061
O O6 0.576856 0.246320 0.000000
O O7 0.155730 0.234156 0.500000
O O8 0.174352 0.372951 0.739066
O O9 0.191355 0.127404 0.736706
O O10 0.741684 0.000000 0.252555
O O11 0.785743 0.000000 0.500000
O O12 0.946374 0.500000 0.500000
O O13 0.000000 0.500000 0.725250
O O14 0.697261 0.000000 0.500000
#
# Coordination Sequence:
#
# PCOD8272050 Si02
#       6
#     8  16  16   8   8   8
#     4  11  25  44  65  86 115 159 211 259 304 357
#     4  12  25  40  61  90 126 161 200 248 304 366
#     4  10  20  35  58  87 120 159 203 253 305 363
#     4   9  18  33  58  90 118 151 201 260 309 355
#     4  11  22  39  64  88 114 153 202 251 298 353
#     4   9  17  33  59  89 118 150 199 259 311 354
#
# _framework density 20.604904000000001
#
# number of rings (size 3 to 8) (size 9 to 14) (size 15 to 20)
#    0.000    1.500    1.250    4.500    1.750    5.500 
#    0.000    0.000    0.000    4.500    0.000    0.000 
#    0.000    0.000    0.000    0.000    0.000    0.000 
#
# Total GULP energy -396774.366183 kJ/mol
# GULP energy per Si atom -12399.198943 kJ/mol
# Density = 2.055801 g / cm^3
# Si number density = 20.604904 Si / 1000 Ang^3
#
#
#
# Elastic Constant Matrix: (Units=GPa)
#
#
# Indices 1 2 3 4 5 6 
#
# 1 163.0551 42.0645 37.1020 0.0000 0.0000 0.0000
# 2 42.0645 117.1722 21.9781 0.0000 0.0000 0.0000
# 3 37.1020 21.9781 73.0917 0.0000 0.0000 0.0000
# 4 0.0000 0.0000 0.0000 3.2541 0.0000 0.0000
# 5 0.0000 0.0000 0.0000 0.0000 -26.3821 0.0000
# 6 0.0000 0.0000 0.0000 0.0000 0.0000 -15.7322
#
#
#
# Elastic Compliance Matrix: (Units=1/GPa)
#
#
# Indices 1 2 3 4 5 6 
#
# 1 0.007376 -0.002062 -0.003124 0.000000 0.000000 0.000000
# 2 -0.002062 0.009621 -0.001846 0.000000 0.000000 0.000000
# 3 -0.003124 -0.001846 0.015822 0.000000 0.000000 0.000000
# 4 0.000000 0.000000 0.000000 0.307301 0.000000 0.000000
# 5 0.000000 0.000000 0.000000 0.000000 -0.037905 0.000000
# 6 0.000000 0.000000 0.000000 0.000000 0.000000 -0.063564
#
#
# Mechanical properties :
#
#
# Convention : Reuss Voigt Hill
#
# Bulk Modulus (GPa) = 53.32002 61.73424 57.52713
# Shear Modulus (GPa) = 19.30743 9.03960 14.17352
#
# Velocity S-wave (km/s) = 3.06442 2.09682 2.62557
# Velocity P-wave (km/s) = 6.20116 5.99067 6.09683
#
# Compressibility (1/GPa) = 0.01875468
#
# Stress axis : x y z
#
# Youngs Moduli (GPa) = 135.58130 103.93956 63.20162
#
# Poissons Ratio (x) = 0.21431 0.19744
# Poissons Ratio (y) = 0.27955 0.11669
# Poissons Ratio (z) = 0.42355 0.19191
#
# Static dielectric constant tensor:
#      x y z
#    x 4.205870 0.000000 0.000000 
#    y 0.000000 3.900570 0.000000 
#    z 0.000000 0.000000 3.402620 
# 
# 
# High freq. dielectric constant tensor:
#      x y z
#    x 1.821740 0.000000 0.000000 
#    y 0.000000 1.817640 0.000000 
#    z 0.000000 0.000000 1.774540 
# 
# From -- ./inp_files/17858.got.cif
#   From: 2010.03.12/outbox.cif.g09.slc.cpg/sg65_9_cif.got.tgz:17858.got - 2010.04.10 20:52:16.
