data_PCOD8272027
_publ_section_title
;
Structure prediction by ZEFSAII (Michael W. Deem and Ramdas Pophale) SiO2 
 PCOD8272027
Probable space group: C M M M
;
_chemical_formula_sum "Si O2"
_cell_formula_units_Z 88
_cell_length_a 8.727069
_cell_length_b 18.670005
_cell_length_c 28.202553
_cell_angle_alpha 90.000000
_cell_angle_beta 90.000000
_cell_angle_gamma 90.000000
_cell_volume 4595.166668
_symmetry_space_group_name_H-M "C M M M"
_symmetry_group_IT_number 65
_symmetry_cell_setting 'orthorhombic'
loop_
_space_group_symop_operation_xyz
x,y,z
-x,-y,z
x,-y,-z
-x,y,-z
-x,-y,-z
x,y,-z
-x,y,z
x,-y,z
1/2+x,1/2+y,z
1/2-x,1/2-y,z
1/2+x,1/2-y,-z
1/2-x,1/2+y,-z
1/2-x,1/2-y,-z
1/2+x,1/2+y,-z
1/2-x,1/2+y,z
1/2+x,1/2-y,z
loop_
_atom_site_type_symbol
_atom_site_label
_atom_site_fract_x
_atom_site_fract_y
_atom_site_fract_z
Si Si1 0.680368 0.675775 0.446156
Si Si2 0.179406 0.915855 0.000000
Si Si3 0.818549 0.329615 0.085715
Si Si4 0.322139 0.916808 0.632693
Si Si5 0.322059 0.671799 0.284359
Si Si6 0.677448 0.673065 0.820205
O O1 0.734834 0.661221 0.500000
O O2 0.500000 0.681704 0.442610
O O3 0.750000 0.750000 0.426887
O O4 0.737901 0.611207 0.414030
O O5 0.255584 0.881768 0.954064
O O6 0.000000 0.898831 0.000000
O O7 0.213182 0.000000 0.000000
O O8 0.750000 0.250000 0.079723
O O9 0.766923 0.364813 0.136290
O O10 0.000000 0.325041 0.082215
O O11 0.500000 0.899719 0.627501
O O12 0.260292 0.881185 0.680132
O O13 0.286599 0.000000 0.636645
O O14 0.500000 0.678506 0.297633
O O15 0.250000 0.750000 0.288523
O O16 0.301945 0.636880 0.231544
O O17 0.500000 0.679092 0.834451
O O18 0.750000 0.750000 0.814261
#
# Coordination Sequence:
#
# PCOD8272027 Si02
#       6
#    16   8  16  16  16  16
#     4  10  21  38  61  86 111 141 179 224 272 324
#     4  11  24  41  58  77 107 145 184 227 274 325
#     4  11  21  35  58  85 113 143 180 225 271 323
#     4  11  24  39  55  78 111 149 186 226 272 322
#     4  10  20  35  58  84 111 144 182 226 271 321
#     4   9  17  31  53  82 111 140 178 223 272 320
#
# _framework density 19.150556999999999
#
# number of rings (size 3 to 8) (size 9 to 14) (size 15 to 20)
#    0.000    1.727    0.000    6.000    0.000    5.818 
#    0.000    2.727    0.000    1.091    0.000    0.000 
#    0.000    0.000    0.000    0.000    0.000    0.000 
#
# Total GULP energy -545534.323589 kJ/mol
# GULP energy per Si atom -12398.507354 kJ/mol
# Density = 1.910697 g / cm^3
# Si number density = 19.150557 Si / 1000 Ang^3
#
#
#
# Elastic Constant Matrix: (Units=GPa)
#
#
# Indices 1 2 3 4 5 6 
#
# 1 118.1023 58.0450 53.9497 0.0000 0.0000 0.0000
# 2 58.0450 76.5227 61.9485 0.0000 0.0000 0.0000
# 3 53.9497 61.9485 142.5549 0.0000 0.0000 0.0000
# 4 0.0000 0.0000 0.0000 -1.4894 0.0000 0.0000
# 5 0.0000 0.0000 0.0000 0.0000 44.3320 0.0000
# 6 0.0000 0.0000 0.0000 0.0000 0.0000 27.6779
#
#
#
# Elastic Compliance Matrix: (Units=1/GPa)
#
#
# Indices 1 2 3 4 5 6 
#
# 1 0.013596 -0.009484 -0.001024 0.000000 0.000000 0.000000
# 2 -0.009484 0.026776 -0.008046 0.000000 0.000000 0.000000
# 3 -0.001024 -0.008046 0.010899 0.000000 0.000000 0.000000
# 4 0.000000 0.000000 0.000000 -0.671402 0.000000 0.000000
# 5 0.000000 0.000000 0.000000 0.000000 0.022557 0.000000
# 6 0.000000 0.000000 0.000000 0.000000 0.000000 0.036130
#
#
# Mechanical properties :
#
#
# Convention : Reuss Voigt Hill
#
# Bulk Modulus (GPa) = 70.61187 76.11849 73.36518
# Shear Modulus (GPa) = -9.62255 24.98654 7.68200
#
# Velocity S-wave (km/s) = -2.24401 3.61604 2.00501
# Velocity P-wave (km/s) = 5.49890 7.56756 6.61460
#
# Compressibility (1/GPa) = 0.01416193
#
# Stress axis : x y z
#
# Youngs Moduli (GPa) = 73.54902 37.34667 91.75099
#
# Poissons Ratio (x) = 0.35421 0.09396
# Poissons Ratio (y) = 0.69756 0.73827
# Poissons Ratio (z) = 0.07532 0.30051
#
# Static dielectric constant tensor:
#      x y z
#    x 3.730340 0.000000 0.000000 
#    y 0.000000 3.205450 0.000000 
#    z 0.000000 0.000000 4.236960 
# 
# 
# High freq. dielectric constant tensor:
#      x y z
#    x 1.766120 0.000000 0.000000 
#    y 0.000000 1.710130 0.000000 
#    z 0.000000 0.000000 1.770300 
# 
# From -- ./inp_files/76543.got.cif
#   From: 2010.03.12/outbox.cif.g09.slc.cpg/sg65_39_cif.got.tgz:76543.got - 2010.04.10 20:52:16.
