data_PCOD8272189
_publ_section_title
;
Structure prediction by ZEFSAII (Michael W. Deem and Ramdas Pophale) SiO2 
 PCOD8272189
Probable space group: C M M M
;
_chemical_formula_sum "Si O2"
_cell_formula_units_Z 104
_cell_length_a 8.753531
_cell_length_b 27.912519
_cell_length_c 21.529012
_cell_angle_alpha 90.000000
_cell_angle_beta 90.000000
_cell_angle_gamma 90.000000
_cell_volume 5260.250250
_symmetry_space_group_name_H-M "C M M M"
_symmetry_group_IT_number 65
_symmetry_cell_setting 'orthorhombic'
loop_
_space_group_symop_operation_xyz
x,y,z
-x,-y,z
x,-y,-z
-x,y,-z
-x,-y,-z
x,y,-z
-x,y,z
x,-y,z
1/2+x,1/2+y,z
1/2-x,1/2-y,z
1/2+x,1/2-y,-z
1/2-x,1/2+y,-z
1/2-x,1/2-y,-z
1/2+x,1/2+y,-z
1/2-x,1/2+y,z
1/2+x,1/2-y,z
loop_
_atom_site_type_symbol
_atom_site_label
_atom_site_fract_x
_atom_site_fract_y
_atom_site_fract_z
Si Si1 0.322704 0.445649 0.643832
Si Si2 0.171591 0.556397 0.000000
Si Si3 0.821451 0.202731 0.069603
Si Si4 0.820641 0.391164 0.752701
Si Si5 0.318213 0.698293 0.311547
Si Si6 0.319978 0.601969 0.880629
Si Si7 0.179536 0.855655 0.567933
O O1 0.500000 0.439167 0.662536
O O2 0.286343 0.500000 0.623472
O O3 0.220577 0.431509 0.702521
O O4 0.281012 0.410358 0.586966
O O5 0.261206 0.572097 0.938799
O O6 0.164550 0.500000 0.000000
O O7 0.000000 0.577956 0.000000
O O8 0.750000 0.250000 0.100932
O O9 0.776640 0.157499 0.110580
O O10 0.000000 0.209734 0.066441
O O11 0.755042 0.195321 0.000000
O O12 0.737607 0.340630 0.738571
O O13 0.764252 0.413448 0.817779
O O14 0.000000 0.382155 0.753882
O O15 0.500000 0.700722 0.308375
O O16 0.250000 0.750000 0.295776
O O17 0.258985 0.681329 0.379917
O O18 0.500000 0.593475 0.874576
O O19 0.253946 0.845188 0.500000
O O20 0.000000 0.849104 0.563038
#
# Coordination Sequence:
#
# PCOD8272189 Si02
#       7
#    16   8  16  16  16  16  16
#     4   9  18  34  56  81 110 146 187 231 283 341
#     4  11  25  43  62  87 116 145 184 233 284 341
#     4   9  18  33  53  80 108 137 170 206 253 313
#     4  11  23  38  57  82 111 146 189 237 287 336
#     4  10  20  36  57  82 114 153 194 235 280 333
#     4  11  22  40  62  84 113 147 186 230 280 339
#     4   8  15  29  51  82 117 149 185 231 280 333
#
# _framework density 19.770921999999999
#
# number of rings (size 3 to 8) (size 9 to 14) (size 15 to 20)
#    0.000    2.231    0.769    3.462    0.000    4.000 
#    0.000    3.077    0.000   11.077    0.000    4.308 
#    0.000    0.000    0.000    0.000    0.000    0.000 
#
# Total GULP energy -644730.059512 kJ/mol
# GULP energy per Si atom -12398.654991 kJ/mol
# Density = 1.972592 g / cm^3
# Si number density = 19.770922 Si / 1000 Ang^3
#
#
#
# Elastic Constant Matrix: (Units=GPa)
#
#
# Indices 1 2 3 4 5 6 
#
# 1 76.4333 23.5953 25.2646 0.0000 0.0000 0.0000
# 2 23.5953 71.1476 6.8560 0.0000 0.0000 0.0000
# 3 25.2646 6.8560 106.1937 0.0000 0.0000 0.0000
# 4 0.0000 0.0000 0.0000 8.2220 0.0000 0.0000
# 5 0.0000 0.0000 0.0000 0.0000 18.9271 0.0000
# 6 0.0000 0.0000 0.0000 0.0000 0.0000 29.0505
#
#
#
# Elastic Compliance Matrix: (Units=1/GPa)
#
#
# Indices 1 2 3 4 5 6 
#
# 1 0.015723 -0.004884 -0.003425 0.000000 0.000000 0.000000
# 2 -0.004884 0.015661 0.000151 0.000000 0.000000 0.000000
# 3 -0.003425 0.000151 0.010222 0.000000 0.000000 0.000000
# 4 0.000000 0.000000 0.000000 0.121625 0.000000 0.000000
# 5 0.000000 0.000000 0.000000 0.000000 0.052834 0.000000
# 6 0.000000 0.000000 0.000000 0.000000 0.000000 0.034423
#
#
# Mechanical properties :
#
#
# Convention : Reuss Voigt Hill
#
# Bulk Modulus (GPa) = 39.54402 40.57848 40.06125
# Shear Modulus (GPa) = 18.16629 24.44384 21.30506
#
# Velocity S-wave (km/s) = 3.03452 3.52000 3.28624
# Velocity P-wave (km/s) = 5.68527 6.09010 5.89117
#
# Compressibility (1/GPa) = 0.02528827
#
# Stress axis : x y z
#
# Youngs Moduli (GPa) = 63.59949 63.85451 97.82865
#
# Poissons Ratio (x) = 0.31189 0.33510
# Poissons Ratio (y) = 0.31065 -0.01477
# Poissons Ratio (z) = 0.21786 -0.00964
#
# Static dielectric constant tensor:
#      x y z
#    x 3.459450 0.000000 0.000000 
#    y 0.000000 3.674320 0.000000 
#    z 0.000000 0.000000 3.778940 
# 
# 
# High freq. dielectric constant tensor:
#      x y z
#    x 1.756350 0.000000 0.000000 
#    y 0.000000 1.769440 0.000000 
#    z 0.000000 0.000000 1.769990 
# 
# From -- ./inp_files/60782.got.cif
#   From: 2010.03.12/outbox.cif.g09.slc.cpg/sg65_31_cif.got.tgz:60782.got - 2010.04.10 20:52:16.
