data_PCOD8272437
_publ_section_title
;
Structure prediction by ZEFSAII (Michael W. Deem and Ramdas Pophale) SiO2 
 PCOD8272437
Probable space group: C M M M
;
_chemical_formula_sum "Si O2"
_cell_formula_units_Z 88
_cell_length_a 8.071368
_cell_length_b 21.295498
_cell_length_c 26.322594
_cell_angle_alpha 90.000000
_cell_angle_beta 90.000000
_cell_angle_gamma 90.000000
_cell_volume 4524.427512
_symmetry_space_group_name_H-M "C M M M"
_symmetry_group_IT_number 65
_symmetry_cell_setting 'orthorhombic'
loop_
_space_group_symop_operation_xyz
x,y,z
-x,-y,z
x,-y,-z
-x,y,-z
-x,-y,-z
x,y,-z
-x,y,z
x,-y,z
1/2+x,1/2+y,z
1/2-x,1/2-y,z
1/2+x,1/2-y,-z
1/2-x,1/2+y,-z
1/2-x,1/2-y,-z
1/2+x,1/2+y,-z
1/2-x,1/2+y,z
1/2+x,1/2-y,z
loop_
_atom_site_type_symbol
_atom_site_label
_atom_site_fract_x
_atom_site_fract_y
_atom_site_fract_z
Si Si1 0.317668 0.574029 0.882403
Si Si2 0.000000 0.425074 0.942071
Si Si3 0.688607 0.679592 0.702853
Si Si4 0.803959 0.180718 0.500000
Si Si5 0.805648 0.000000 0.441294
Si Si6 0.310342 0.874626 0.602665
Si Si7 0.309813 0.070912 0.773958
O O1 0.500000 0.600056 0.899324
O O2 0.314287 0.500000 0.890140
O O3 0.166914 0.602879 0.915690
O O4 0.295224 0.590477 0.823168
O O5 0.000000 0.500000 0.937782
O O6 0.000000 0.402238 0.000000
O O7 0.500000 0.675855 0.719999
O O8 0.750000 0.750000 0.715659
O O9 0.704451 0.665125 0.643079
O O10 0.786211 0.623923 0.731294
O O11 0.750000 0.250000 0.500000
O O12 0.714944 0.153485 0.548059
O O13 0.000000 0.167052 0.500000
O O14 0.748280 0.054814 0.404193
O O15 0.731536 0.000000 0.500000
O O16 0.000000 0.000000 0.448084
O O17 0.500000 0.871165 0.620230
O O18 0.500000 0.069832 0.790809
O O19 0.259572 0.000000 0.754897
#
# Coordination Sequence:
#
# PCOD8272437 Si02
#       7
#    16   8  16   8   8  16  16
#     4   9  16  28  47  73 108 153 201 247 298 355
#     4   9  16  26  42  70 112 158 200 247 300 354
#     4  12  26  44  63  87 121 156 195 248 302 358
#     4  12  24  41  62  85 110 144 186 228 278 352
#     4  11  23  41  65  91 118 148 186 234 280 339
#     4  12  25  42  63  87 116 149 186 232 291 349
#     4  10  20  37  61  87 117 156 201 248 301 361
#
# _framework density 19.449973
#
# number of rings (size 3 to 8) (size 9 to 14) (size 15 to 20)
#    0.000    1.273    1.818    5.455    1.273    1.818 
#    0.000    1.818    0.000    0.000    0.000    0.000 
#    0.000    0.727    0.364    0.000    0.000    0.000 
#
# Total GULP energy -545323.735514 kJ/mol
# GULP energy per Si atom -12393.721262 kJ/mol
# Density = 1.940570 g / cm^3
# Si number density = 19.449973 Si / 1000 Ang^3
#
#
#
# Elastic Constant Matrix: (Units=GPa)
#
#
# Indices 1 2 3 4 5 6 
#
# 1 121.4527 20.7670 34.8832 0.0000 0.0000 0.0000
# 2 20.7670 107.7849 34.5189 0.0000 0.0000 0.0000
# 3 34.8832 34.5189 93.8074 0.0000 0.0000 0.0000
# 4 0.0000 0.0000 0.0000 20.4903 0.0000 0.0000
# 5 0.0000 0.0000 0.0000 0.0000 24.5296 0.0000
# 6 0.0000 0.0000 0.0000 0.0000 0.0000 24.6682
#
#
#
# Elastic Compliance Matrix: (Units=1/GPa)
#
#
# Indices 1 2 3 4 5 6 
#
# 1 0.009275 -0.000774 -0.003164 0.000000 0.000000 0.000000
# 2 -0.000774 0.010582 -0.003606 0.000000 0.000000 0.000000
# 3 -0.003164 -0.003606 0.013164 0.000000 0.000000 0.000000
# 4 0.000000 0.000000 0.000000 0.048804 0.000000 0.000000
# 5 0.000000 0.000000 0.000000 0.000000 0.040767 0.000000
# 6 0.000000 0.000000 0.000000 0.000000 0.000000 0.040538
#
#
# Mechanical properties :
#
#
# Convention : Reuss Voigt Hill
#
# Bulk Modulus (GPa) = 55.76548 55.93147 55.84848
# Shear Modulus (GPa) = 27.14523 29.46266 28.30395
#
# Velocity S-wave (km/s) = 3.73988 3.89626 3.81887
# Velocity P-wave (km/s) = 6.88349 7.00429 6.94415
#
# Compressibility (1/GPa) = 0.01793224
#
# Stress axis : x y z
#
# Youngs Moduli (GPa) = 107.81954 94.50292 75.96611
#
# Poissons Ratio (x) = 0.07311 0.24037
# Poissons Ratio (y) = 0.08341 0.27394
# Poissons Ratio (z) = 0.34117 0.34079
#
# Static dielectric constant tensor:
#      x y z
#    x 4.035850 0.000000 0.000000 
#    y 0.000000 3.581300 0.000000 
#    z 0.000000 0.000000 3.416520 
# 
# 
# High freq. dielectric constant tensor:
#      x y z
#    x 1.777000 0.000000 0.000000 
#    y 0.000000 1.726670 0.000000 
#    z 0.000000 0.000000 1.746560 
# 
# From -- ./inp_files/67633.got.cif
#   From: 2010.03.12/outbox.cif.g09.slc.cpg/sg65_34_cif.got.tgz:67633.got - 2010.04.10 20:52:16.
