data_PCOD8272184
_publ_section_title
;
Structure prediction by ZEFSAII (Michael W. Deem and Ramdas Pophale) SiO2 
 PCOD8272184
Probable space group: C M M M
;
_chemical_formula_sum "Si O2"
_cell_formula_units_Z 80
_cell_length_a 22.942061
_cell_length_b 17.783169
_cell_length_c 9.961312
_cell_angle_alpha 90.000000
_cell_angle_beta 90.000000
_cell_angle_gamma 90.000000
_cell_volume 4064.041451
_symmetry_space_group_name_H-M "C M M M"
_symmetry_group_IT_number 65
_symmetry_cell_setting 'orthorhombic'
loop_
_space_group_symop_operation_xyz
x,y,z
-x,-y,z
x,-y,-z
-x,y,-z
-x,-y,-z
x,y,-z
-x,y,z
x,-y,z
1/2+x,1/2+y,z
1/2-x,1/2-y,z
1/2+x,1/2-y,-z
1/2-x,1/2+y,-z
1/2-x,1/2-y,-z
1/2+x,1/2+y,-z
1/2-x,1/2+y,z
1/2+x,1/2-y,z
loop_
_atom_site_type_symbol
_atom_site_label
_atom_site_fract_x
_atom_site_fract_y
_atom_site_fract_z
Si Si1 0.935935 0.910785 0.000000
Si Si2 0.235827 0.412600 0.842522
Si Si3 0.935986 0.500000 0.342206
Si Si4 0.636446 0.144543 0.339212
Si Si5 0.564729 0.284899 0.649164
Si Si6 0.134111 0.913196 0.745681
O O1 0.901615 0.882261 0.127739
O O2 0.000000 0.875513 0.000000
O O3 0.937292 0.000000 0.000000
O O4 0.218342 0.500000 0.830569
O O5 0.194723 0.360962 0.750544
O O6 0.298684 0.399911 0.775993
O O7 0.235404 0.388409 0.000000
O O8 0.942884 0.500000 0.500000
O O9 0.902008 0.426348 0.296397
O O10 0.000000 0.500000 0.274695
O O11 0.651287 0.146108 0.500000
O O12 0.601938 0.217518 0.284316
O O13 0.552601 0.256525 0.500000
O O14 0.500000 0.297964 0.716128
O O15 0.605597 0.359431 0.634475
O O16 0.121669 0.000000 0.708602
#
# Coordination Sequence:
#
# PCOD8272184 Si02
#       6
#     8  16   8  16  16  16
#     4   9  16  30  54  79 102 135 187 240 275 321
#     4  10  20  37  60  85 120 155 191 239 291 346
#     4   9  16  30  57  87 109 141 193 242 282 337
#     4  10  20  36  59  86 114 151 196 239 287 348
#     4  10  22  39  57  82 117 150 187 243 299 341
#     4  10  20  36  57  82 110 150 194 231 280 346
#
# _framework density 19.684839
#
# number of rings (size 3 to 8) (size 9 to 14) (size 15 to 20)
#    0.000    2.200    2.000    1.200    0.000    5.600 
#    1.800    6.000    0.000    2.400    0.000    0.000 
#    0.000    0.000    0.000    0.000    0.000    0.000 
#
# Total GULP energy -495585.578029 kJ/mol
# GULP energy per Si atom -12389.639451 kJ/mol
# Density = 1.964004 g / cm^3
# Si number density = 19.684839 Si / 1000 Ang^3
#
#
#
# Elastic Constant Matrix: (Units=GPa)
#
#
# Indices 1 2 3 4 5 6 
#
# 1 153.7386 71.5861 34.0044 0.0000 0.0000 0.0000
# 2 71.5861 120.9468 21.9968 0.0000 0.0000 0.0000
# 3 34.0044 21.9968 47.9355 0.0000 0.0000 0.0000
# 4 0.0000 0.0000 0.0000 59.0455 0.0000 0.0000
# 5 0.0000 0.0000 0.0000 0.0000 46.0897 0.0000
# 6 0.0000 0.0000 0.0000 0.0000 0.0000 35.0592
#
#
#
# Elastic Compliance Matrix: (Units=1/GPa)
#
#
# Indices 1 2 3 4 5 6 
#
# 1 0.009867 -0.004983 -0.004713 0.000000 0.000000 0.000000
# 2 -0.004983 0.011537 -0.001759 0.000000 0.000000 0.000000
# 3 -0.004713 -0.001759 0.025012 0.000000 0.000000 0.000000
# 4 0.000000 0.000000 0.000000 0.016936 0.000000 0.000000
# 5 0.000000 0.000000 0.000000 0.000000 0.021697 0.000000
# 6 0.000000 0.000000 0.000000 0.000000 0.000000 0.028523
#
#
# Mechanical properties :
#
#
# Convention : Reuss Voigt Hill
#
# Bulk Modulus (GPa) = 42.54280 64.19949 53.37115
# Shear Modulus (GPa) = 34.64543 41.04113 37.84328
#
# Velocity S-wave (km/s) = 4.19979 4.57104 4.38934
# Velocity P-wave (km/s) = 6.72135 7.78098 7.27050
#
# Compressibility (1/GPa) = 0.02350574
#
# Stress axis : x y z
#
# Youngs Moduli (GPa) = 101.34500 86.67397 39.98078
#
# Poissons Ratio (x) = 0.43190 0.18843
# Poissons Ratio (y) = 0.50501 0.07034
# Poissons Ratio (z) = 0.47764 0.15250
#
# Static dielectric constant tensor:
#      x y z
#    x 3.860830 0.000000 0.000000 
#    y 0.000000 3.432090 0.000000 
#    z 0.000000 0.000000 4.376220 
# 
# 
# High freq. dielectric constant tensor:
#      x y z
#    x 1.784240 0.000000 0.000000 
#    y 0.000000 1.758190 0.000000 
#    z 0.000000 0.000000 1.739420 
# 
# From -- ./inp_files/28584.got.cif
#   From: 2010.03.12/outbox.cif.g09.slc.cpg/sg65_15_cif.got.tgz:28584.got - 2010.04.10 20:52:16.
