data_PCOD8272486
_publ_section_title
;
Structure prediction by ZEFSAII (Michael W. Deem and Ramdas Pophale) SiO2 
 PCOD8272486
Probable space group: C M M M
;
_chemical_formula_sum "Si O2"
_cell_formula_units_Z 72
_cell_length_a 10.475559
_cell_length_b 25.250527
_cell_length_c 14.411663
_cell_angle_alpha 90.000000
_cell_angle_beta 90.000000
_cell_angle_gamma 90.000000
_cell_volume 3812.077769
_symmetry_space_group_name_H-M "C M M M"
_symmetry_group_IT_number 65
_symmetry_cell_setting 'orthorhombic'
loop_
_space_group_symop_operation_xyz
x,y,z
-x,-y,z
x,-y,-z
-x,y,-z
-x,-y,-z
x,y,-z
-x,y,z
x,-y,z
1/2+x,1/2+y,z
1/2-x,1/2-y,z
1/2+x,1/2-y,-z
1/2-x,1/2+y,-z
1/2-x,1/2-y,-z
1/2+x,1/2+y,-z
1/2-x,1/2+y,z
1/2+x,1/2-y,z
loop_
_atom_site_type_symbol
_atom_site_label
_atom_site_fract_x
_atom_site_fract_y
_atom_site_fract_z
Si Si1 0.500000 0.093304 0.888178
Si Si2 0.000000 0.437657 0.397655
Si Si3 0.793419 0.439295 0.748901
Si Si4 0.000000 0.287563 0.893150
Si Si5 0.146478 0.797747 0.500000
Si Si6 0.750000 0.250000 0.193872
Si Si7 0.855149 0.157307 0.303193
O O1 0.627070 0.066479 0.844919
O O2 0.500000 0.153561 0.850851
O O3 0.500000 0.085896 0.000000
O O4 0.876832 0.420790 0.339323
O O5 0.000000 0.500000 0.408618
O O6 0.000000 0.410690 0.500000
O O7 0.747207 0.500000 0.741326
O O8 0.671740 0.400869 0.739871
O O9 0.875631 0.254113 0.867955
O O10 0.000000 0.297540 0.000000
O O11 0.250000 0.750000 0.500000
O O12 0.166298 0.837006 0.413188
O O13 0.000000 0.774492 0.500000
O O14 0.758077 0.198270 0.256852
O O15 0.000000 0.171739 0.276926
#
# Coordination Sequence:
#
# PCOD8272486 Si02
#       7
#     8   8  16   8   8   8  16
#     4  10  20  37  63  92 118 150 198 249 300 358
#     4   8  16  32  53  80 111 142 181 234 288 344
#     4  10  21  37  58  85 116 154 198 241 296 355
#     4  11  23  38  61  94 122 153 195 243 305 365
#     4  10  22  40  59  87 120 158 199 248 298 359
#     4  12  21  39  64  86 118 160 192 243 299 358
#     4  11  23  39  59  85 119 155 200 244 296 358
#
# _framework density 18.887336999999999
#
# number of rings (size 3 to 8) (size 9 to 14) (size 15 to 20)
#    0.000    1.667    4.444    1.333    1.556    1.333 
#    4.000    0.000    0.000    2.000    0.000    1.556 
#    0.000    0.000    0.000    0.000    0.000    0.000 
#
# Total GULP energy -446254.208843 kJ/mol
# GULP energy per Si atom -12395.950246 kJ/mol
# Density = 1.884435 g / cm^3
# Si number density = 18.887337 Si / 1000 Ang^3
#
#
#
# Elastic Constant Matrix: (Units=GPa)
#
#
# Indices 1 2 3 4 5 6 
#
# 1 89.7782 34.6648 24.8888 0.0000 0.0000 0.0000
# 2 34.6648 109.1617 26.8554 0.0000 0.0000 0.0000
# 3 24.8888 26.8554 88.4318 0.0000 0.0000 0.0000
# 4 0.0000 0.0000 0.0000 25.1826 0.0000 0.0000
# 5 0.0000 0.0000 0.0000 0.0000 7.8184 0.0000
# 6 0.0000 0.0000 0.0000 0.0000 0.0000 26.5628
#
#
#
# Elastic Compliance Matrix: (Units=1/GPa)
#
#
# Indices 1 2 3 4 5 6 
#
# 1 0.013245 -0.003555 -0.002648 0.000000 0.000000 0.000000
# 2 -0.003555 0.010854 -0.002296 0.000000 0.000000 0.000000
# 3 -0.002648 -0.002296 0.012751 0.000000 0.000000 0.000000
# 4 0.000000 0.000000 0.000000 0.039710 0.000000 0.000000
# 5 0.000000 0.000000 0.000000 0.000000 0.127904 0.000000
# 6 0.000000 0.000000 0.000000 0.000000 0.000000 0.037647
#
#
# Mechanical properties :
#
#
# Convention : Reuss Voigt Hill
#
# Bulk Modulus (GPa) = 50.37093 51.13216 50.75155
# Shear Modulus (GPa) = 18.81636 25.31025 22.06331
#
# Velocity S-wave (km/s) = 3.15975 3.66466 3.42153
# Velocity P-wave (km/s) = 6.32765 6.71098 6.52213
#
# Compressibility (1/GPa) = 0.01985272
#
# Stress axis : x y z
#
# Youngs Moduli (GPa) = 75.49897 92.12935 78.42677
#
# Poissons Ratio (x) = 0.32748 0.20770
# Poissons Ratio (y) = 0.26836 0.18006
# Poissons Ratio (z) = 0.19995 0.21152
#
# Static dielectric constant tensor:
#      x y z
#    x 3.357910 0.000000 0.000000 
#    y 0.000000 3.346540 0.000000 
#    z 0.000000 0.000000 3.552820 
# 
# 
# High freq. dielectric constant tensor:
#      x y z
#    x 1.723090 0.000000 0.000000 
#    y 0.000000 1.728800 0.000000 
#    z 0.000000 0.000000 1.735680 
# 
# From -- ./inp_files/36751.got.cif
#   From: 2010.03.12/outbox.cif.g09.slc.cpg/sg65_19_cif.got.tgz:36751.got - 2010.04.10 20:52:16.
