data_PCOD8272152
_publ_section_title
;
Structure prediction by ZEFSAII (Michael W. Deem and Ramdas Pophale) SiO2 
 PCOD8272152
Probable space group: C M M M
;
_chemical_formula_sum "Si O2"
_cell_formula_units_Z 88
_cell_length_a 18.104775
_cell_length_b 10.222834
_cell_length_c 25.497044
_cell_angle_alpha 90.000000
_cell_angle_beta 90.000000
_cell_angle_gamma 90.000000
_cell_volume 4719.046688
_symmetry_space_group_name_H-M "C M M M"
_symmetry_group_IT_number 65
_symmetry_cell_setting 'orthorhombic'
loop_
_space_group_symop_operation_xyz
x,y,z
-x,-y,z
x,-y,-z
-x,y,-z
-x,-y,-z
x,y,-z
-x,y,z
x,-y,z
1/2+x,1/2+y,z
1/2-x,1/2-y,z
1/2+x,1/2-y,-z
1/2-x,1/2+y,-z
1/2-x,1/2-y,-z
1/2+x,1/2+y,-z
1/2-x,1/2+y,z
1/2+x,1/2-y,z
loop_
_atom_site_type_symbol
_atom_site_label
_atom_site_fract_x
_atom_site_fract_y
_atom_site_fract_z
Si Si1 0.679178 0.842496 0.248851
Si Si2 0.163160 0.741626 0.939537
Si Si3 0.081300 0.653247 0.652866
Si Si4 0.081895 0.000000 0.061945
Si Si5 0.081126 0.646229 0.153837
Si Si6 0.815488 0.650373 0.559786
O O1 0.750000 0.750000 0.249232
O O2 0.633313 0.800626 0.299973
O O3 0.632222 0.791707 0.198755
O O4 0.697683 0.000000 0.247241
O O5 0.250000 0.750000 0.930753
O O6 0.128033 0.876319 0.919320
O O7 0.124447 0.637565 0.901826
O O8 0.144651 0.707777 0.000000
O O9 0.071170 0.500000 0.657275
O O10 0.116959 0.690906 0.597066
O O11 0.000000 0.719594 0.656732
O O12 0.000000 0.000000 0.086930
O O13 0.075897 0.000000 0.000000
O O14 0.066270 0.500000 0.172265
O O15 0.000000 0.715729 0.148791
O O16 0.842514 0.666236 0.500000
O O17 0.789865 0.500000 0.570619
O O18 0.750000 0.750000 0.572578
#
# Coordination Sequence:
#
# PCOD8272152 Si02
#       6
#    16  16  16   8  16  16
#     4  10  20  36  57  78 102 133 171 213 257 308
#     4  10  21  35  54  78 105 134 169 210 252 304
#     4   9  17  30  51  77 103 135 174 214 259 308
#     4   9  18  34  54  74 101 137 171 203 249 309
#     4  10  21  36  54  76 102 131 165 207 255 306
#     4   9  17  29  47  73 104 137 175 218 260 304
#
# _framework density 18.647834
#
# number of rings (size 3 to 8) (size 9 to 14) (size 15 to 20)
#    0.000    2.455    0.000    2.182    1.273    4.000 
#    1.636    2.727    0.000    3.273    0.000    2.545 
#    0.000    0.000    0.000    0.000    0.000    0.000 
#
# Total GULP energy -545263.370494 kJ/mol
# GULP energy per Si atom -12392.349329 kJ/mol
# Density = 1.860539 g / cm^3
# Si number density = 18.647834 Si / 1000 Ang^3
#
#
#
# Elastic Constant Matrix: (Units=GPa)
#
#
# Indices 1 2 3 4 5 6 
#
# 1 175.0043 44.2894 85.7213 0.0000 0.0000 0.0000
# 2 44.2894 51.3514 24.9937 0.0000 0.0000 0.0000
# 3 85.7213 24.9937 128.4473 0.0000 0.0000 0.0000
# 4 0.0000 0.0000 0.0000 20.9066 0.0000 0.0000
# 5 0.0000 0.0000 0.0000 0.0000 17.3248 0.0000
# 6 0.0000 0.0000 0.0000 0.0000 0.0000 27.8902
#
#
#
# Elastic Compliance Matrix: (Units=1/GPa)
#
#
# Indices 1 2 3 4 5 6 
#
# 1 0.009862 -0.005857 -0.005442 0.000000 0.000000 0.000000
# 2 -0.005857 0.024989 -0.000954 0.000000 0.000000 0.000000
# 3 -0.005442 -0.000954 0.011603 0.000000 0.000000 0.000000
# 4 0.000000 0.000000 0.000000 0.047832 0.000000 0.000000
# 5 0.000000 0.000000 0.000000 0.000000 0.057721 0.000000
# 6 0.000000 0.000000 0.000000 0.000000 0.000000 0.035855
#
#
# Mechanical properties :
#
#
# Convention : Reuss Voigt Hill
#
# Bulk Modulus (GPa) = 45.56077 73.86799 59.71438
# Shear Modulus (GPa) = 22.76008 26.54423 24.65215
#
# Velocity S-wave (km/s) = 3.49739 3.77695 3.63986
# Velocity P-wave (km/s) = 6.38703 7.66281 7.05382
#
# Compressibility (1/GPa) = 0.02194871
#
# Stress axis : x y z
#
# Youngs Moduli (GPa) = 101.39942 40.01691 86.18767
#
# Poissons Ratio (x) = 0.23438 0.46902
# Poissons Ratio (y) = 0.59390 0.08220
# Poissons Ratio (z) = 0.55180 0.03816
#
# Static dielectric constant tensor:
#      x y z
#    x 3.679140 0.000000 0.000000 
#    y 0.000000 3.613790 0.000000 
#    z 0.000000 0.000000 3.493610 
# 
# 
# High freq. dielectric constant tensor:
#      x y z
#    x 1.733620 0.000000 0.000000 
#    y 0.000000 1.689870 0.000000 
#    z 0.000000 0.000000 1.730350 
# 
# From -- ./inp_files/69801.got.cif
#   From: 2010.03.12/outbox.cif.g09.slc.cpg/sg65_35_cif.got.tgz:69801.got - 2010.04.10 20:52:16.
