data_PCOD8272967
_publ_section_title
;
Structure prediction by ZEFSAII (Michael W. Deem and Ramdas Pophale) SiO2 
 PCOD8272967
Probable space group: C M M M
;
_chemical_formula_sum "Si O2"
_cell_formula_units_Z 96
_cell_length_a 20.121401
_cell_length_b 28.633336
_cell_length_c 9.228367
_cell_angle_alpha 90.000000
_cell_angle_beta 90.000000
_cell_angle_gamma 90.000000
_cell_volume 5316.857532
_symmetry_space_group_name_H-M "C M M M"
_symmetry_group_IT_number 65
_symmetry_cell_setting 'orthorhombic'
loop_
_space_group_symop_operation_xyz
x,y,z
-x,-y,z
x,-y,-z
-x,y,-z
-x,-y,-z
x,y,-z
-x,y,z
x,-y,z
1/2+x,1/2+y,z
1/2-x,1/2-y,z
1/2+x,1/2-y,-z
1/2-x,1/2+y,-z
1/2-x,1/2-y,-z
1/2+x,1/2+y,-z
1/2-x,1/2+y,z
1/2+x,1/2-y,z
loop_
_atom_site_type_symbol
_atom_site_label
_atom_site_fract_x
_atom_site_fract_y
_atom_site_fract_z
Si Si1 0.423807 0.632884 0.330451
Si Si2 0.699669 0.807941 0.170339
Si Si3 0.320926 0.446456 0.330434
Si Si4 0.153022 0.788510 0.171434
Si Si5 0.927742 0.554286 0.341922
Si Si6 0.190677 0.588655 0.170194
O O1 0.415345 0.641795 0.500000
O O2 0.500000 0.622015 0.289464
O O3 0.380405 0.587986 0.280919
O O4 0.401978 0.680320 0.250479
O O5 0.774612 0.803703 0.229698
O O6 0.648915 0.766541 0.218928
O O7 0.674423 0.858370 0.219444
O O8 0.706579 0.803095 0.000000
O O9 0.306344 0.441177 0.500000
O O10 0.340743 0.500000 0.292796
O O11 0.254495 0.432707 0.247102
O O12 0.143212 0.795607 0.000000
O O13 0.904626 0.574361 0.500000
O O14 0.936853 0.500000 0.358810
O O15 0.875118 0.561903 0.215345
O O16 0.000000 0.576058 0.299911
O O17 0.203046 0.584267 0.000000
#
# Coordination Sequence:
#
# PCOD8272967 Si02
#       6
#    16  16  16  16  16  16
#     4  10  21  36  53  76 107 139 176 225 271 309
#     4   8  16  30  52  78 103 130 164 207 252 303
#     4  10  21  36  53  74 103 141 182 219 261 318
#     4   9  16  33  56  75  98 133 172 206 248 309
#     4   9  19  36  54  71  98 139 179 209 246 306
#     4  11  20  32  53  82 109 133 166 218 268 304
#
# _framework density 18.055778
#
# number of rings (size 3 to 8) (size 9 to 14) (size 15 to 20)
#    0.000    2.500    1.667    2.500    0.000    3.667 
#    0.000    6.667    0.000    5.000    0.000    2.333 
#    0.000    0.000    0.000    0.000    0.000    0.000 
#
# Total GULP energy -594769.538539 kJ/mol
# GULP energy per Si atom -12391.032053 kJ/mol
# Density = 1.801468 g / cm^3
# Si number density = 18.055778 Si / 1000 Ang^3
#
#
#
# Elastic Constant Matrix: (Units=GPa)
#
#
# Indices 1 2 3 4 5 6 
#
# 1 117.0935 52.6596 35.7505 0.0000 0.0000 0.0000
# 2 52.6596 105.5226 34.3461 0.0000 0.0000 0.0000
# 3 35.7505 34.3461 39.2887 0.0000 0.0000 0.0000
# 4 0.0000 0.0000 0.0000 25.0636 0.0000 0.0000
# 5 0.0000 0.0000 0.0000 0.0000 11.2787 0.0000
# 6 0.0000 0.0000 0.0000 0.0000 0.0000 25.4703
#
#
#
# Elastic Compliance Matrix: (Units=1/GPa)
#
#
# Indices 1 2 3 4 5 6 
#
# 1 0.012740 -0.003612 -0.008435 0.000000 0.000000 0.000000
# 2 -0.003612 0.014270 -0.009188 0.000000 0.000000 0.000000
# 3 -0.008435 -0.009188 0.041160 0.000000 0.000000 0.000000
# 4 0.000000 0.000000 0.000000 0.039898 0.000000 0.000000
# 5 0.000000 0.000000 0.000000 0.000000 0.088663 0.000000
# 6 0.000000 0.000000 0.000000 0.000000 0.000000 0.039261
#
#
# Mechanical properties :
#
#
# Convention : Reuss Voigt Hill
#
# Bulk Modulus (GPa) = 38.91064 56.37968 47.64516
# Shear Modulus (GPa) = 17.41992 21.63911 19.52951
#
# Velocity S-wave (km/s) = 3.10947 3.46563 3.29237
# Velocity P-wave (km/s) = 5.87271 6.87802 6.39515
#
# Compressibility (1/GPa) = 0.02569991
#
# Stress axis : x y z
#
# Youngs Moduli (GPa) = 78.49291 70.07838 24.29572
#
# Poissons Ratio (x) = 0.25315 0.20493
# Poissons Ratio (y) = 0.28354 0.22322
# Poissons Ratio (z) = 0.66207 0.64385
#
# Static dielectric constant tensor:
#      x y z
#    x 3.286600 0.000000 0.000000 
#    y 0.000000 3.739580 0.000000 
#    z 0.000000 0.000000 3.155100 
# 
# 
# High freq. dielectric constant tensor:
#      x y z
#    x 1.687810 0.000000 0.000000 
#    y 0.000000 1.706210 0.000000 
#    z 0.000000 0.000000 1.680660 
# 
# From -- ./inp_files/12273.got.cif
#   From: 2010.03.12/outbox.cif.g09.slc.cpg/sg65_7_cif.got.tgz:12273.got - 2010.04.10 20:52:16.
