data_PCOD8272342
_publ_section_title
;
Structure prediction by ZEFSAII (Michael W. Deem and Ramdas Pophale) SiO2 
 PCOD8272342
Probable space group: C M M M
;
_chemical_formula_sum "Si O2"
_cell_formula_units_Z 80
_cell_length_a 16.858279
_cell_length_b 27.157210
_cell_length_c 8.531114
_cell_angle_alpha 90.000000
_cell_angle_beta 90.000000
_cell_angle_gamma 90.000000
_cell_volume 3905.747226
_symmetry_space_group_name_H-M "C M M M"
_symmetry_group_IT_number 65
_symmetry_cell_setting 'orthorhombic'
loop_
_space_group_symop_operation_xyz
x,y,z
-x,-y,z
x,-y,-z
-x,y,-z
-x,-y,-z
x,y,-z
-x,y,z
x,-y,z
1/2+x,1/2+y,z
1/2-x,1/2-y,z
1/2+x,1/2-y,-z
1/2-x,1/2+y,-z
1/2-x,1/2-y,-z
1/2+x,1/2+y,-z
1/2-x,1/2+y,z
1/2+x,1/2-y,z
loop_
_atom_site_type_symbol
_atom_site_label
_atom_site_fract_x
_atom_site_fract_y
_atom_site_fract_z
Si Si1 0.320665 0.096676 0.683891
Si Si2 0.090205 0.688401 0.817577
Si Si3 0.910690 0.500000 0.686201
Si Si4 0.408364 0.708810 0.682315
Si Si5 0.000000 0.055386 0.813756
Si Si6 0.154416 0.887233 0.183746
O O1 0.334398 0.104054 0.500000
O O2 0.353744 0.143424 0.775348
O O3 0.228294 0.090601 0.722165
O O4 0.365643 0.048389 0.747676
O O5 0.120242 0.736265 0.723697
O O6 0.000000 0.675188 0.769215
O O7 0.096786 0.700366 0.000000
O O8 0.911399 0.500000 0.500000
O O9 0.000000 0.500000 0.753645
O O10 0.394816 0.698733 0.500000
O O11 0.500000 0.702591 0.731592
O O12 0.356059 0.670536 0.780763
O O13 0.077755 0.083549 0.752265
O O14 0.000000 0.000000 0.746672
O O15 0.000000 0.055267 0.000000
O O16 0.168058 0.895180 0.000000
#
# Coordination Sequence:
#
# PCOD8272342 Si02
#       6
#    16  16   8  16   8  16
#     4  11  23  39  60  89 122 156 199 247 299 353
#     4  10  21  38  61  89 121 156 199 246 298 358
#     4   9  20  40  65  88 117 158 198 240 294 357
#     4  10  20  36  60  88 120 158 200 245 297 357
#     4   9  20  38  61  87 117 161 205 244 295 356
#     4  11  22  38  61  88 122 159 201 247 298 352
#
# _framework density 20.482637
#
# number of rings (size 3 to 8) (size 9 to 14) (size 15 to 20)
#    0.000    1.800    1.000    3.000    1.400    3.600 
#    0.000    5.500    0.000    6.000    0.000    0.000 
#    0.000    0.000    0.000    0.000    0.000    0.000 
#
# Total GULP energy -496237.487278 kJ/mol
# GULP energy per Si atom -12405.937182 kJ/mol
# Density = 2.043602 g / cm^3
# Si number density = 20.482637 Si / 1000 Ang^3
#
#
#
# Elastic Constant Matrix: (Units=GPa)
#
#
# Indices 1 2 3 4 5 6 
#
# 1 127.4258 64.4798 9.4963 0.0000 0.0000 0.0000
# 2 64.4798 138.2359 10.4876 0.0000 0.0000 0.0000
# 3 9.4963 10.4876 42.8179 0.0000 0.0000 0.0000
# 4 0.0000 0.0000 0.0000 23.2227 0.0000 0.0000
# 5 0.0000 0.0000 0.0000 0.0000 31.4466 0.0000
# 6 0.0000 0.0000 0.0000 0.0000 0.0000 32.9485
#
#
#
# Elastic Compliance Matrix: (Units=1/GPa)
#
#
# Indices 1 2 3 4 5 6 
#
# 1 0.010326 -0.004731 -0.001131 0.000000 0.000000 0.000000
# 2 -0.004731 0.009538 -0.001287 0.000000 0.000000 0.000000
# 3 -0.001131 -0.001287 0.023921 0.000000 0.000000 0.000000
# 4 0.000000 0.000000 0.000000 0.043061 0.000000 0.000000
# 5 0.000000 0.000000 0.000000 0.000000 0.031800 0.000000
# 6 0.000000 0.000000 0.000000 0.000000 0.000000 0.030350
#
#
# Mechanical properties :
#
#
# Convention : Reuss Voigt Hill
#
# Bulk Modulus (GPa) = 33.91352 53.04523 43.47938
# Shear Modulus (GPa) = 28.88109 32.45795 30.66952
#
# Velocity S-wave (km/s) = 3.75911 3.98509 3.87375
# Velocity P-wave (km/s) = 5.95267 6.86502 6.42506
#
# Compressibility (1/GPa) = 0.02948676
#
# Stress axis : x y z
#
# Youngs Moduli (GPa) = 96.84477 104.84114 41.80445
#
# Poissons Ratio (x) = 0.49596 0.04730
# Poissons Ratio (y) = 0.45814 0.05381
# Poissons Ratio (z) = 0.10957 0.13494
#
# Static dielectric constant tensor:
#      x y z
#    x 3.764690 0.000000 0.000000 
#    y 0.000000 3.795110 0.000000 
#    z 0.000000 0.000000 3.454700 
# 
# 
# High freq. dielectric constant tensor:
#      x y z
#    x 1.801610 0.000000 0.000000 
#    y 0.000000 1.809610 0.000000 
#    z 0.000000 0.000000 1.787620 
# 
# From -- ./inp_files/9720.got.cif
#   From: 2010.03.12/outbox.cif.g09.slc.cpg/sg65_5_cif.got.tgz:9720.got - 2010.04.10 20:52:16.
