data_PCOD8272662
_publ_section_title
;
Structure prediction by ZEFSAII (Michael W. Deem and Ramdas Pophale) SiO2 
 PCOD8272662
Probable space group: C M M M
;
_chemical_formula_sum "Si O2"
_cell_formula_units_Z 96
_cell_length_a 31.325412
_cell_length_b 18.872395
_cell_length_c 9.278337
_cell_angle_alpha 90.000000
_cell_angle_beta 90.000000
_cell_angle_gamma 90.000000
_cell_volume 5485.218751
_symmetry_space_group_name_H-M "C M M M"
_symmetry_group_IT_number 65
_symmetry_cell_setting 'orthorhombic'
loop_
_space_group_symop_operation_xyz
x,y,z
-x,-y,z
x,-y,-z
-x,y,-z
-x,-y,-z
x,y,-z
-x,y,z
x,-y,z
1/2+x,1/2+y,z
1/2-x,1/2-y,z
1/2+x,1/2-y,-z
1/2-x,1/2+y,-z
1/2-x,1/2-y,-z
1/2+x,1/2+y,-z
1/2-x,1/2+y,z
1/2+x,1/2-y,z
loop_
_atom_site_type_symbol
_atom_site_label
_atom_site_fract_x
_atom_site_fract_y
_atom_site_fract_z
Si Si1 0.045489 0.677402 0.662915
Si Si2 0.872340 0.170002 0.666160
Si Si3 0.363038 0.163050 0.662828
Si Si4 0.792480 0.418080 0.831802
Si Si5 0.791758 0.082012 0.332334
Si Si6 0.453164 0.319458 0.832345
O O1 0.049086 0.709758 0.500000
O O2 0.088649 0.631532 0.687598
O O3 0.044543 0.739261 0.778542
O O4 0.000000 0.634620 0.676861
O O5 0.879435 0.151819 0.500000
O O6 0.864252 0.253028 0.692360
O O7 0.831638 0.127200 0.725548
O O8 0.914554 0.141596 0.749081
O O9 0.347300 0.147147 0.500000
O O10 0.332313 0.126521 0.775894
O O11 0.801215 0.500000 0.796151
O O12 0.749704 0.391695 0.753718
O O13 0.787010 0.404241 0.000000
O O14 0.782995 0.096524 0.500000
O O15 0.801445 0.000000 0.301217
O O16 0.500000 0.355278 0.804802
O O17 0.441975 0.319449 0.000000
#
# Coordination Sequence:
#
# PCOD8272662 Si02
#       6
#    16  16  16  16  16  16
#     4   8  14  26  44  66  93 123 153 186 226 270
#     4   9  18  31  48  72  97 120 150 190 233 272
#     4   9  17  29  47  71  96 121 150 187 229 270
#     4  10  21  35  49  66  90 121 156 191 228 274
#     4   9  18  34  54  71  89 118 155 191 229 276
#     4   9  16  25  40  65  95 125 156 187 221 266
#
# _framework density 17.501581999999999
#
# number of rings (size 3 to 8) (size 9 to 14) (size 15 to 20)
#    0.000    3.000    0.000    2.000    0.000    6.000 
#    0.000    3.333    0.000    1.000    0.000    7.000 
#    0.000    0.000    0.000    0.000    0.000    0.000 
#
# Total GULP energy -594748.508874 kJ/mol
# GULP energy per Si atom -12390.593935 kJ/mol
# Density = 1.746175 g / cm^3
# Si number density = 17.501582 Si / 1000 Ang^3
#
#
#
# Elastic Constant Matrix: (Units=GPa)
#
#
# Indices 1 2 3 4 5 6 
#
# 1 190.0287 45.9492 72.3680 0.0000 0.0000 0.0000
# 2 45.9492 30.1184 23.9107 0.0000 0.0000 0.0000
# 3 72.3680 23.9107 73.5632 0.0000 0.0000 0.0000
# 4 0.0000 0.0000 0.0000 16.7393 0.0000 0.0000
# 5 0.0000 0.0000 0.0000 0.0000 29.3981 0.0000
# 6 0.0000 0.0000 0.0000 0.0000 0.0000 0.1218
#
#
#
# Elastic Compliance Matrix: (Units=1/GPa)
#
#
# Indices 1 2 3 4 5 6 
#
# 1 0.010381 -0.010418 -0.006826 0.000000 0.000000 0.000000
# 2 -0.010418 0.055206 -0.007695 0.000000 0.000000 0.000000
# 3 -0.006826 -0.007695 0.022810 0.000000 0.000000 0.000000
# 4 0.000000 0.000000 0.000000 0.059740 0.000000 0.000000
# 5 0.000000 0.000000 0.000000 0.000000 0.034016 0.000000
# 6 0.000000 0.000000 0.000000 0.000000 0.000000 8.211479
#
#
# Mechanical properties :
#
#
# Convention : Reuss Voigt Hill
#
# Bulk Modulus (GPa) = 25.96163 64.24066 45.10114
# Shear Modulus (GPa) = 0.59127 19.35067 9.97097
#
# Velocity S-wave (km/s) = 0.58187 3.32874 2.38947
# Velocity P-wave (km/s) = 3.91376 7.18048 5.78260
#
# Compressibility (1/GPa) = 0.03851839
#
# Stress axis : x y z
#
# Youngs Moduli (GPa) = 96.32884 18.11409 43.84056
#
# Poissons Ratio (x) = 0.18872 0.29926
# Poissons Ratio (y) = 1.00360 0.33734
# Poissons Ratio (z) = 0.65755 0.13938
#
# Static dielectric constant tensor:
#      x y z
#    x 3.799240 0.000000 0.000000 
#    y 0.000000 2.791550 0.000000 
#    z 0.000000 0.000000 3.225290 
# 
# 
# High freq. dielectric constant tensor:
#      x y z
#    x 1.703860 0.000000 0.000000 
#    y 0.000000 1.615530 0.000000 
#    z 0.000000 0.000000 1.676640 
# 
# From -- ./inp_files/14571.got.cif
#   From: 2010.03.12/outbox.cif.g09.slc.cpg/sg65_8_cif.got.tgz:14571.got - 2010.04.10 20:52:16.
