data_PCOD8272126
_publ_section_title
;
Structure prediction by ZEFSAII (Michael W. Deem and Ramdas Pophale) SiO2 
 PCOD8272126
Probable space group: C M M M
;
_chemical_formula_sum "Si O2"
_cell_formula_units_Z 56
_cell_length_a 9.756906
_cell_length_b 39.607809
_cell_length_c 7.757209
_cell_angle_alpha 90.000000
_cell_angle_beta 90.000000
_cell_angle_gamma 90.000000
_cell_volume 2997.770853
_symmetry_space_group_name_H-M "C M M M"
_symmetry_group_IT_number 65
_symmetry_cell_setting 'orthorhombic'
loop_
_space_group_symop_operation_xyz
x,y,z
-x,-y,z
x,-y,-z
-x,y,-z
-x,-y,-z
x,y,-z
-x,y,z
x,-y,z
1/2+x,1/2+y,z
1/2-x,1/2-y,z
1/2+x,1/2-y,-z
1/2-x,1/2+y,-z
1/2-x,1/2-y,-z
1/2+x,1/2+y,-z
1/2-x,1/2+y,z
1/2+x,1/2-y,z
loop_
_atom_site_type_symbol
_atom_site_label
_atom_site_fract_x
_atom_site_fract_y
_atom_site_fract_z
Si Si1 0.338154 0.831238 0.191581
Si Si2 0.663894 0.783859 0.500000
Si Si3 0.153532 0.962585 0.704986
Si Si4 0.345253 0.096207 0.295119
O O1 0.500000 0.833911 0.210305
O O2 0.286151 0.804362 0.331426
O O3 0.279751 0.868682 0.227984
O O4 0.293551 0.819291 0.000000
O O5 0.500000 0.776942 0.500000
O O6 0.750000 0.750000 0.500000
O O7 0.156605 0.961246 0.500000
O O8 0.255794 0.934529 0.781683
O O9 0.000000 0.954933 0.771352
O O10 0.199441 0.000000 0.767270
O O11 0.342637 0.096829 0.500000
O O12 0.500000 0.091328 0.226845
#
# Coordination Sequence:
#
# PCOD8272126 Si02
#       4
#    16   8  16  16
#     4   9  17  31  52  75 100 131 163 197 241 290
#     4  10  20  36  56  78 103 130 161 195 236 289
#     4   8  14  24  38  60  92 128 162 196 241 293
#     4   9  15  25  44  68  91 118 159 205 241 278
#
# _framework density 18.680548999999999
#
# number of rings (size 3 to 8) (size 9 to 14) (size 15 to 20)
#    0.000    3.143    1.429    0.857    0.000    1.143 
#    0.000    4.286    0.000    3.429    0.000    6.000 
#    0.000    0.000    0.000    0.000    0.000    0.000 
#
# Total GULP energy -347020.019295 kJ/mol
# GULP energy per Si atom -12393.572118 kJ/mol
# Density = 1.863803 g / cm^3
# Si number density = 18.680549 Si / 1000 Ang^3
#
#
#
# Elastic Constant Matrix: (Units=GPa)
#
#
# Indices 1 2 3 4 5 6 
#
# 1 62.8770 71.2398 24.7300 0.0000 0.0000 0.0000
# 2 71.2398 187.9545 60.3035 0.0000 0.0000 0.0000
# 3 24.7300 60.3035 81.7416 0.0000 0.0000 0.0000
# 4 0.0000 0.0000 0.0000 3.6870 0.0000 0.0000
# 5 0.0000 0.0000 0.0000 0.0000 4.1896 0.0000
# 6 0.0000 0.0000 0.0000 0.0000 0.0000 36.3415
#
#
#
# Elastic Compliance Matrix: (Units=1/GPa)
#
#
# Indices 1 2 3 4 5 6 
#
# 1 0.027918 -0.010313 -0.000838 0.000000 0.000000 0.000000
# 2 -0.010313 0.010780 -0.004833 0.000000 0.000000 0.000000
# 3 -0.000838 -0.004833 0.016052 0.000000 0.000000 0.000000
# 4 0.000000 0.000000 0.000000 0.271221 0.000000 0.000000
# 5 0.000000 0.000000 0.000000 0.000000 0.238685 0.000000
# 6 0.000000 0.000000 0.000000 0.000000 0.000000 0.027517
#
#
# Mechanical properties :
#
#
# Convention : Reuss Voigt Hill
#
# Bulk Modulus (GPa) = 43.89205 71.67997 57.78601
# Shear Modulus (GPa) = 7.91471 20.59695 14.25583
#
# Velocity S-wave (km/s) = 2.06060 3.32413 2.76549
# Velocity P-wave (km/s) = 5.40449 7.29300 6.41858
#
# Compressibility (1/GPa) = 0.02278317
#
# Stress axis : x y z
#
# Youngs Moduli (GPa) = 35.81893 92.76653 62.29592
#
# Poissons Ratio (x) = 0.95668 0.05222
# Poissons Ratio (y) = 0.36939 0.30105
# Poissons Ratio (z) = 0.03002 0.44830
#
# Static dielectric constant tensor:
#      x y z
#    x 3.271410 0.000000 0.000000 
#    y 0.000000 3.610330 0.000000 
#    z 0.000000 0.000000 3.314470 
# 
# 
# High freq. dielectric constant tensor:
#      x y z
#    x 1.683120 0.000000 0.000000 
#    y 0.000000 1.729560 0.000000 
#    z 0.000000 0.000000 1.712800 
# 
# From -- ./inp_files/4431.got.cif
#   From: 2010.03.12/outbox.cif.g09.slc.cpg/sg65_3_cif.got.tgz:4431.got - 2010.04.10 20:52:16.
