data_PCOD8272288
_publ_section_title
;
Structure prediction by ZEFSAII (Michael W. Deem and Ramdas Pophale) SiO2 
 PCOD8272288
Probable space group: C M M M
;
_chemical_formula_sum "Si O2"
_cell_formula_units_Z 112
_cell_length_a 15.700070
_cell_length_b 15.200887
_cell_length_c 22.965874
_cell_angle_alpha 90.000000
_cell_angle_beta 90.000000
_cell_angle_gamma 90.000000
_cell_volume 5480.920429
_symmetry_space_group_name_H-M "C M M M"
_symmetry_group_IT_number 65
_symmetry_cell_setting 'orthorhombic'
loop_
_space_group_symop_operation_xyz
x,y,z
-x,-y,z
x,-y,-z
-x,y,-z
-x,-y,-z
x,y,-z
-x,y,z
x,-y,z
1/2+x,1/2+y,z
1/2-x,1/2-y,z
1/2+x,1/2-y,-z
1/2-x,1/2+y,-z
1/2-x,1/2-y,-z
1/2+x,1/2+y,-z
1/2-x,1/2+y,z
1/2+x,1/2-y,z
loop_
_atom_site_type_symbol
_atom_site_label
_atom_site_fract_x
_atom_site_fract_y
_atom_site_fract_z
Si Si1 0.403709 0.857939 0.345109
Si Si2 0.400786 0.403332 0.064044
Si Si3 0.597655 0.402597 0.248469
Si Si4 0.256474 0.899678 0.434839
Si Si5 0.843420 0.769653 0.159897
Si Si6 0.405758 0.341024 0.628490
Si Si7 0.400800 0.903831 0.781681
O O1 0.500000 0.895707 0.356417
O O2 0.339874 0.888172 0.395569
O O3 0.408504 0.753907 0.342773
O O4 0.363350 0.887738 0.283250
O O5 0.500000 0.413800 0.057627
O O6 0.364676 0.500000 0.084722
O O7 0.386626 0.323331 0.108198
O O8 0.362112 0.380481 0.000000
O O9 0.500000 0.376919 0.233983
O O10 0.618414 0.500000 0.224192
O O11 0.657309 0.330727 0.217535
O O12 0.612848 0.405984 0.317719
O O13 0.281264 0.869321 0.500000
O O14 0.172177 0.845190 0.416649
O O15 0.227166 0.000000 0.433576
O O16 0.750000 0.750000 0.138424
O O17 0.883336 0.673929 0.172540
O O18 0.500000 0.361817 0.600450
O O19 0.500000 0.907538 0.772099
O O20 0.367438 0.000000 0.804374
#
# Coordination Sequence:
#
# PCOD8272288 Si02
#       7
#    16  16  16  16  16  16  16
#     4  10  21  39  62  84 111 149 199 254 305 356
#     4   9  19  39  67  93 119 158 206 253 297 342
#     4  10  20  36  59  85 115 152 194 246 299 350
#     4  11  25  41  58  82 114 153 195 244 303 370
#     4  12  24  34  55  90 127 160 193 238 297 356
#     4  10  21  38  61  86 114 148 191 244 306 372
#     4  10  21  38  58  80 113 158 203 246 290 344
#
# _framework density 20.434524
#
# number of rings (size 3 to 8) (size 9 to 14) (size 15 to 20)
#    0.000    1.714    1.429    3.429    2.000    6.000 
#    0.000    2.857    0.000    0.429    0.000    2.000 
#    0.000    0.000    0.000    0.000    0.000    0.000 
#
# Total GULP energy -693942.338472 kJ/mol
# GULP energy per Si atom -12391.827473 kJ/mol
# Density = 2.038801 g / cm^3
# Si number density = 20.434524 Si / 1000 Ang^3
#
#
#
# Elastic Constant Matrix: (Units=GPa)
#
#
# Indices 1 2 3 4 5 6 
#
# 1 75.4063 24.4498 36.1455 0.0000 0.0000 0.0000
# 2 24.4498 137.0879 57.8825 0.0000 0.0000 0.0000
# 3 36.1455 57.8825 116.7292 0.0000 0.0000 0.0000
# 4 0.0000 0.0000 0.0000 16.0710 0.0000 0.0000
# 5 0.0000 0.0000 0.0000 0.0000 19.8040 0.0000
# 6 0.0000 0.0000 0.0000 0.0000 0.0000 17.1201
#
#
#
# Elastic Compliance Matrix: (Units=1/GPa)
#
#
# Indices 1 2 3 4 5 6 
#
# 1 0.015669 -0.000943 -0.004384 0.000000 0.000000 0.000000
# 2 -0.000943 0.009283 -0.004311 0.000000 0.000000 0.000000
# 3 -0.004384 -0.004311 0.012062 0.000000 0.000000 0.000000
# 4 0.000000 0.000000 0.000000 0.062224 0.000000 0.000000
# 5 0.000000 0.000000 0.000000 0.000000 0.050495 0.000000
# 6 0.000000 0.000000 0.000000 0.000000 0.000000 0.058411
#
#
# Mechanical properties :
#
#
# Convention : Reuss Voigt Hill
#
# Bulk Modulus (GPa) = 56.37976 62.90880 59.64428
# Shear Modulus (GPa) = 21.42859 24.64874 23.03867
#
# Velocity S-wave (km/s) = 3.24179 3.47685 3.36138
# Velocity P-wave (km/s) = 6.45466 6.85349 6.65706
#
# Compressibility (1/GPa) = 0.01773686
#
# Stress axis : x y z
#
# Youngs Moduli (GPa) = 63.82079 107.72240 82.90428
#
# Poissons Ratio (x) = 0.10163 0.36346
# Poissons Ratio (y) = 0.06021 0.35741
# Poissons Ratio (z) = 0.27979 0.46440
#
# Static dielectric constant tensor:
#      x y z
#    x 3.603570 0.000000 0.000000 
#    y 0.000000 3.673700 0.000000 
#    z 0.000000 0.000000 3.563340 
# 
# 
# High freq. dielectric constant tensor:
#      x y z
#    x 1.784330 0.000000 0.000000 
#    y 0.000000 1.814940 0.000000 
#    z 0.000000 0.000000 1.775420 
# 
# From -- ./inp_files/70026.got.cif
#   From: 2010.03.12/outbox.cif.g09.slc.cpg/sg65_36_cif.got.tgz:70026.got - 2010.04.10 20:52:16.
