data_PCOD8272070
_publ_section_title
;
Structure prediction by ZEFSAII (Michael W. Deem and Ramdas Pophale) SiO2 
 PCOD8272070
Probable space group: C M M M
;
_chemical_formula_sum "Si O2"
_cell_formula_units_Z 80
_cell_length_a 22.720858
_cell_length_b 20.397633
_cell_length_c 9.086250
_cell_angle_alpha 90.000000
_cell_angle_beta 90.000000
_cell_angle_gamma 90.000000
_cell_volume 4211.038217
_symmetry_space_group_name_H-M "C M M M"
_symmetry_group_IT_number 65
_symmetry_cell_setting 'orthorhombic'
loop_
_space_group_symop_operation_xyz
x,y,z
-x,-y,z
x,-y,-z
-x,y,-z
-x,-y,-z
x,y,-z
-x,y,z
x,-y,z
1/2+x,1/2+y,z
1/2-x,1/2-y,z
1/2+x,1/2-y,-z
1/2-x,1/2+y,-z
1/2-x,1/2-y,-z
1/2+x,1/2+y,-z
1/2-x,1/2+y,z
1/2+x,1/2-y,z
loop_
_atom_site_type_symbol
_atom_site_label
_atom_site_fract_x
_atom_site_fract_y
_atom_site_fract_z
Si Si1 0.431309 0.257389 0.172244
Si Si2 0.876417 0.119585 0.673108
Si Si3 0.746298 0.075294 0.327474
Si Si4 0.931302 0.000000 0.162762
Si Si5 0.635665 0.875116 0.172903
Si Si6 0.565164 0.000000 0.175129
O O1 0.500000 0.254054 0.216070
O O2 0.397215 0.311145 0.265669
O O3 0.400374 0.189441 0.214959
O O4 0.424495 0.273177 0.000000
O O5 0.887551 0.116786 0.500000
O O6 0.808582 0.107359 0.712337
O O7 0.914686 0.063980 0.747791
O O8 0.734613 0.076164 0.500000
O O9 0.698953 0.122128 0.249941
O O10 0.744015 0.000000 0.268900
O O11 0.000000 0.000000 0.141780
O O12 0.901608 0.000000 0.000000
O O13 0.598328 0.936099 0.233788
O O14 0.646187 0.880054 0.000000
O O15 0.500000 0.000000 0.242746
O O16 0.562060 0.000000 0.000000
#
# Coordination Sequence:
#
# PCOD8272070 Si02
#       6
#    16  16  16   8  16   8
#     4  10  22  40  59  85 123 158 190 239 299 349
#     4  11  23  40  61  85 115 156 201 240 286 348
#     4  10  21  39  59  82 117 153 189 240 297 345
#     4  11  23  38  59  88 118 149 190 243 300 349
#     4  10  20  35  59  88 115 150 196 241 287 345
#     4   9  16  29  53  84 112 143 188 237 284 337
#
# _framework density 18.997689999999999
#
# number of rings (size 3 to 8) (size 9 to 14) (size 15 to 20)
#    0.000    1.800    2.000    2.100    0.000    9.200 
#    0.000    4.000    0.000    2.400    0.000    0.000 
#    0.000    0.000    0.000    0.000    0.000    0.000 
#
# Total GULP energy -496099.826572 kJ/mol
# GULP energy per Si atom -12402.495664 kJ/mol
# Density = 1.895445 g / cm^3
# Si number density = 18.997690 Si / 1000 Ang^3
#
#
#
# Elastic Constant Matrix: (Units=GPa)
#
#
# Indices 1 2 3 4 5 6 
#
# 1 143.5838 71.3745 54.7381 0.0000 0.0000 0.0000
# 2 71.3745 139.8667 51.3335 0.0000 0.0000 0.0000
# 3 54.7381 51.3335 56.7689 0.0000 0.0000 0.0000
# 4 0.0000 0.0000 0.0000 10.8579 0.0000 0.0000
# 5 0.0000 0.0000 0.0000 0.0000 -21.8496 0.0000
# 6 0.0000 0.0000 0.0000 0.0000 0.0000 35.7963
#
#
#
# Elastic Compliance Matrix: (Units=1/GPa)
#
#
# Indices 1 2 3 4 5 6 
#
# 1 0.011671 -0.002732 -0.008783 0.000000 0.000000 0.000000
# 2 -0.002732 0.011341 -0.007620 0.000000 0.000000 0.000000
# 3 -0.008783 -0.007620 0.032975 0.000000 0.000000 0.000000
# 4 0.000000 0.000000 0.000000 0.092099 0.000000 0.000000
# 5 0.000000 0.000000 0.000000 0.000000 -0.045767 0.000000
# 6 0.000000 0.000000 0.000000 0.000000 0.000000 0.027936
#
#
# Mechanical properties :
#
#
# Convention : Reuss Voigt Hill
#
# Bulk Modulus (GPa) = 56.44785 77.23462 66.84124
# Shear Modulus (GPa) = 28.66478 15.81246 22.23862
#
# Velocity S-wave (km/s) = 3.88861 2.88815 3.42511
# Velocity P-wave (km/s) = 7.06677 7.20173 7.13457
#
# Compressibility (1/GPa) = 0.01771547
#
# Stress axis : x y z
#
# Youngs Moduli (GPa) = 85.68209 88.17736 30.32633
#
# Poissons Ratio (x) = 0.24093 0.26635
# Poissons Ratio (y) = 0.23411 0.23110
# Poissons Ratio (z) = 0.75253 0.67194
#
# Static dielectric constant tensor:
#      x y z
#    x 3.613130 0.000000 0.000000 
#    y 0.000000 3.788210 0.000000 
#    z 0.000000 0.000000 3.378150 
# 
# 
# High freq. dielectric constant tensor:
#      x y z
#    x 1.752780 0.000000 0.000000 
#    y 0.000000 1.746290 0.000000 
#    z 0.000000 0.000000 1.726000 
# 
# From -- ./inp_files/13840.got.cif
#   From: 2010.03.12/outbox.cif.g09.slc.cpg/sg65_7_cif.got.tgz:13840.got - 2010.04.10 20:52:16.
