data_PCOD8272808
_publ_section_title
;
Structure prediction by ZEFSAII (Michael W. Deem and Ramdas Pophale) SiO2 
 PCOD8272808
Probable space group: C M M M
;
_chemical_formula_sum "Si O2"
_cell_formula_units_Z 72
_cell_length_a 9.652903
_cell_length_b 19.552000
_cell_length_c 19.921650
_cell_angle_alpha 90.000000
_cell_angle_beta 90.000000
_cell_angle_gamma 90.000000
_cell_volume 3759.883915
_symmetry_space_group_name_H-M "C M M M"
_symmetry_group_IT_number 65
_symmetry_cell_setting 'orthorhombic'
loop_
_space_group_symop_operation_xyz
x,y,z
-x,-y,z
x,-y,-z
-x,y,-z
-x,-y,-z
x,y,-z
-x,y,z
x,-y,z
1/2+x,1/2+y,z
1/2-x,1/2-y,z
1/2+x,1/2-y,-z
1/2-x,1/2+y,-z
1/2-x,1/2-y,-z
1/2+x,1/2+y,-z
1/2-x,1/2+y,z
1/2+x,1/2-y,z
loop_
_atom_site_type_symbol
_atom_site_label
_atom_site_fract_x
_atom_site_fract_y
_atom_site_fract_z
Si Si1 0.336967 0.423755 0.686322
Si Si2 0.157367 0.188174 0.789299
Si Si3 0.846424 0.500000 0.079156
Si Si4 0.656635 0.623450 0.924420
Si Si5 0.661256 0.316061 0.577068
O O1 0.500000 0.433315 0.683798
O O2 0.268246 0.500000 0.686942
O O3 0.294225 0.382234 0.753634
O O4 0.288262 0.380539 0.621357
O O5 0.250000 0.250000 0.762454
O O6 0.171257 0.183807 0.870263
O O7 0.000000 0.204572 0.768291
O O8 0.761958 0.433774 0.101482
O O9 0.000000 0.500000 0.111901
O O10 0.859139 0.500000 0.000000
O O11 0.500000 0.593743 0.923034
O O12 0.692224 0.649728 0.000000
O O13 0.688198 0.336084 0.500000
O O14 0.500000 0.299155 0.590352
O O15 0.750000 0.250000 0.597974
#
# Coordination Sequence:
#
# PCOD8272808 Si02
#       5
#    16  16   8  16  16
#     4   9  18  32  51  75 101 131 169 210 249 293
#     4  10  21  35  53  73  98 133 169 209 256 304
#     4   9  17  29  47  73 101 127 156 199 254 300
#     4   9  18  32  50  72  97 129 169 207 248 304
#     4   9  17  30  51  78 105 134 166 202 245 293
#
# _framework density 19.149528
#
# number of rings (size 3 to 8) (size 9 to 14) (size 15 to 20)
#    0.000    2.778    0.000    1.000    1.556    3.111 
#    0.000    2.222    0.000    2.000    0.000    3.111 
#    0.000    0.000    0.000    0.000    0.000    0.000 
#
# Total GULP energy -446171.609542 kJ/mol
# GULP energy per Si atom -12393.655821 kJ/mol
# Density = 1.910594 g / cm^3
# Si number density = 19.149528 Si / 1000 Ang^3
#
#
#
# Elastic Constant Matrix: (Units=GPa)
#
#
# Indices 1 2 3 4 5 6 
#
# 1 68.1994 48.2706 22.0792 0.0000 0.0000 0.0000
# 2 48.2706 147.6678 61.6079 0.0000 0.0000 0.0000
# 3 22.0792 61.6079 110.9699 0.0000 0.0000 0.0000
# 4 0.0000 0.0000 0.0000 22.8860 0.0000 0.0000
# 5 0.0000 0.0000 0.0000 0.0000 13.7420 0.0000
# 6 0.0000 0.0000 0.0000 0.0000 0.0000 35.5426
#
#
#
# Elastic Compliance Matrix: (Units=1/GPa)
#
#
# Indices 1 2 3 4 5 6 
#
# 1 0.019093 -0.006060 -0.000434 0.000000 0.000000 0.000000
# 2 -0.006060 0.010737 -0.004755 0.000000 0.000000 0.000000
# 3 -0.000434 -0.004755 0.011738 0.000000 0.000000 0.000000
# 4 0.000000 0.000000 0.000000 0.043695 0.000000 0.000000
# 5 0.000000 0.000000 0.000000 0.000000 0.072770 0.000000
# 6 0.000000 0.000000 0.000000 0.000000 0.000000 0.028135
#
#
# Mechanical properties :
#
#
# Convention : Reuss Voigt Hill
#
# Bulk Modulus (GPa) = 52.44302 65.63917 59.04110
# Shear Modulus (GPa) = 23.25346 27.42607 25.33977
#
# Velocity S-wave (km/s) = 3.48848 3.78856 3.64161
# Velocity P-wave (km/s) = 6.60844 7.31363 6.96996
#
# Compressibility (1/GPa) = 0.01906831
#
# Stress axis : x y z
#
# Youngs Moduli (GPa) = 52.37623 93.13869 85.19486
#
# Poissons Ratio (x) = 0.56441 0.03702
# Poissons Ratio (y) = 0.31739 0.40511
# Poissons Ratio (z) = 0.02276 0.44288
#
# Static dielectric constant tensor:
#      x y z
#    x 3.464730 0.000000 0.000000 
#    y 0.000000 3.453940 0.000000 
#    z 0.000000 0.000000 3.546700 
# 
# 
# High freq. dielectric constant tensor:
#      x y z
#    x 1.715580 0.000000 0.000000 
#    y 0.000000 1.728750 0.000000 
#    z 0.000000 0.000000 1.751910 
# 
# From -- ./inp_files/59293.got.cif
#   From: 2010.03.12/outbox.cif.g09.slc.cpg/sg65_30_cif.got.tgz:59293.got - 2010.04.10 20:52:16.
