data_PCOD8272016
_publ_section_title
;
Structure prediction by ZEFSAII (Michael W. Deem and Ramdas Pophale) SiO2 
 PCOD8272016
Probable space group: C M M M
;
_chemical_formula_sum "Si O2"
_cell_formula_units_Z 112
_cell_length_a 14.228134
_cell_length_b 25.138415
_cell_length_c 14.947561
_cell_angle_alpha 90.000000
_cell_angle_beta 90.000000
_cell_angle_gamma 90.000000
_cell_volume 5346.335057
_symmetry_space_group_name_H-M "C M M M"
_symmetry_group_IT_number 65
_symmetry_cell_setting 'orthorhombic'
loop_
_space_group_symop_operation_xyz
x,y,z
-x,-y,z
x,-y,-z
-x,y,-z
-x,-y,-z
x,y,-z
-x,y,z
x,-y,z
1/2+x,1/2+y,z
1/2-x,1/2-y,z
1/2+x,1/2-y,-z
1/2-x,1/2+y,-z
1/2-x,1/2-y,-z
1/2+x,1/2+y,-z
1/2-x,1/2+y,z
1/2+x,1/2-y,z
loop_
_atom_site_type_symbol
_atom_site_label
_atom_site_fract_x
_atom_site_fract_y
_atom_site_fract_z
Si Si1 0.102747 0.350693 0.655093
Si Si2 0.104742 0.440403 0.199207
Si Si3 0.642188 0.739123 0.722074
Si Si4 0.330422 0.706983 0.095789
Si Si5 0.808343 0.855136 0.600563
Si Si6 0.782100 0.911872 0.899637
Si Si7 0.893614 0.060558 0.728712
O O1 0.125749 0.396805 0.725419
O O2 0.087773 0.292714 0.698953
O O3 0.194683 0.347211 0.592297
O O4 0.000000 0.362888 0.608541
O O5 0.115851 0.500000 0.240375
O O6 0.177467 0.433331 0.118654
O O7 0.000000 0.432398 0.160340
O O8 0.750000 0.750000 0.741789
O O9 0.602116 0.717393 0.817815
O O10 0.636827 0.695340 0.643177
O O11 0.250000 0.750000 0.087184
O O12 0.278920 0.651168 0.111864
O O13 0.386666 0.705886 0.000000
O O14 0.846809 0.862285 0.500000
O O15 0.830104 0.906560 0.659731
O O16 0.855614 0.936437 0.829698
O O17 0.811496 0.929225 0.000000
O O18 0.000000 0.082281 0.727131
O O19 0.889290 0.000000 0.695862
#
# Coordination Sequence:
#
# PCOD8272016 Si02
#       7
#    16  16  16  16  16  16  16
#     4  10  21  37  61  93 128 167 208 250 303 367
#     4  10  20  35  57  87 125 168 211 249 289 350
#     4   9  17  34  57  85 122 162 199 248 298 352
#     4   9  16  29  55  88 121 162 204 242 292 354
#     4  11  23  41  66  93 122 160 205 257 317 376
#     4  11  21  37  63  93 126 164 205 250 305 366
#     4  11  25  45  66  89 121 158 202 259 315 371
#
# _framework density 20.948931000000002
#
# number of rings (size 3 to 8) (size 9 to 14) (size 15 to 20)
#    0.000    1.857    2.857    2.143    0.000    5.714 
#    0.000    2.143    0.000    1.286    0.000    7.000 
#    0.000    0.000    0.000    0.000    0.000    0.000 
#
# Total GULP energy -693829.630438 kJ/mol
# GULP energy per Si atom -12389.814829 kJ/mol
# Density = 2.090125 g / cm^3
# Si number density = 20.948931 Si / 1000 Ang^3
#
#
#
# Elastic Constant Matrix: (Units=GPa)
#
#
# Indices 1 2 3 4 5 6 
#
# 1 91.1569 21.9972 26.8237 0.0000 0.0000 0.0000
# 2 21.9972 126.1064 42.1289 0.0000 0.0000 0.0000
# 3 26.8237 42.1289 142.6533 0.0000 0.0000 0.0000
# 4 0.0000 0.0000 0.0000 35.0039 0.0000 0.0000
# 5 0.0000 0.0000 0.0000 0.0000 1.2732 0.0000
# 6 0.0000 0.0000 0.0000 0.0000 0.0000 25.9275
#
#
#
# Elastic Compliance Matrix: (Units=1/GPa)
#
#
# Indices 1 2 3 4 5 6 
#
# 1 0.011853 -0.001468 -0.001795 0.000000 0.000000 0.000000
# 2 -0.001468 0.008980 -0.002376 0.000000 0.000000 0.000000
# 3 -0.001795 -0.002376 0.008049 0.000000 0.000000 0.000000
# 4 0.000000 0.000000 0.000000 0.028568 0.000000 0.000000
# 5 0.000000 0.000000 0.000000 0.000000 0.785398 0.000000
# 6 0.000000 0.000000 0.000000 0.000000 0.000000 0.038569
#
#
# Mechanical properties :
#
#
# Convention : Reuss Voigt Hill
#
# Bulk Modulus (GPa) = 56.80656 60.20182 58.50419
# Shear Modulus (GPa) = 5.56444 30.37204 17.96824
#
# Velocity S-wave (km/s) = 1.63155 3.81177 2.93186
# Velocity P-wave (km/s) = 5.54300 6.94065 6.28082
#
# Compressibility (1/GPa) = 0.01760360
#
# Stress axis : x y z
#
# Youngs Moduli (GPa) = 84.37009 111.36398 124.23559
#
# Poissons Ratio (x) = 0.16345 0.22303
# Poissons Ratio (y) = 0.12383 0.29517
# Poissons Ratio (z) = 0.15146 0.26459
#
# Static dielectric constant tensor:
#      x y z
#    x 3.723970 0.000000 0.000000 
#    y 0.000000 3.976750 0.000000 
#    z 0.000000 0.000000 3.829540 
# 
# 
# High freq. dielectric constant tensor:
#      x y z
#    x 1.807110 0.000000 0.000000 
#    y 0.000000 1.834830 0.000000 
#    z 0.000000 0.000000 1.803230 
# 
# From -- ./inp_files/41081.got.cif
#   From: 2010.03.12/outbox.cif.g09.slc.cpg/sg65_21_cif.got.tgz:41081.got - 2010.04.10 20:52:16.
