data_PCOD8272598
_publ_section_title
;
Structure prediction by ZEFSAII (Michael W. Deem and Ramdas Pophale) SiO2 
 PCOD8272598
Probable space group: C M M M
;
_chemical_formula_sum "Si O2"
_cell_formula_units_Z 112
_cell_length_a 19.462942
_cell_length_b 25.768414
_cell_length_c 13.117452
_cell_angle_alpha 90.000000
_cell_angle_beta 90.000000
_cell_angle_gamma 90.000000
_cell_volume 6578.784514
_symmetry_space_group_name_H-M "C M M M"
_symmetry_group_IT_number 65
_symmetry_cell_setting 'orthorhombic'
loop_
_space_group_symop_operation_xyz
x,y,z
-x,-y,z
x,-y,-z
-x,y,-z
-x,-y,-z
x,y,-z
-x,y,z
x,-y,z
1/2+x,1/2+y,z
1/2-x,1/2-y,z
1/2+x,1/2-y,-z
1/2-x,1/2+y,-z
1/2-x,1/2-y,-z
1/2+x,1/2+y,-z
1/2-x,1/2+y,z
1/2+x,1/2-y,z
loop_
_atom_site_type_symbol
_atom_site_label
_atom_site_fract_x
_atom_site_fract_y
_atom_site_fract_z
Si Si1 0.293370 0.060700 0.117554
Si Si2 0.821259 0.117826 0.246274
Si Si3 0.578865 0.870468 0.116263
Si Si4 0.317963 0.282654 0.614011
Si Si5 0.076585 0.825411 0.114240
Si Si6 0.077435 0.273527 0.251668
Si Si7 0.424528 0.438889 0.613921
O O1 0.245733 0.091656 0.197333
O O2 0.371422 0.080389 0.133333
O O3 0.290948 0.000000 0.144514
O O4 0.269995 0.070118 0.000000
O O5 0.804043 0.168451 0.313009
O O6 0.871207 0.131931 0.154288
O O7 0.861976 0.077640 0.315779
O O8 0.500000 0.887618 0.136976
O O9 0.602261 0.825880 0.195399
O O10 0.586000 0.849635 0.000000
O O11 0.338206 0.301533 0.500000
O O12 0.250000 0.250000 0.610540
O O13 0.376441 0.243056 0.652852
O O14 0.082872 0.771126 0.169274
O O15 0.000000 0.848511 0.124733
O O16 0.097233 0.813229 0.000000
O O17 0.000000 0.280375 0.292211
O O18 0.410682 0.417863 0.500000
O O19 0.500000 0.417669 0.650351
O O20 0.426944 0.500000 0.613885
#
# Coordination Sequence:
#
# PCOD8272598 Si02
#       7
#    16  16  16  16  16  16  16
#     4  10  21  34  48  70  98 126 160 204 250 293
#     4  11  19  31  49  67  91 127 161 191 231 282
#     4   9  17  31  52  74  96 125 160 197 240 292
#     4  10  21  34  47  67  96 126 155 190 231 276
#     4   9  17  28  43  66  95 124 154 186 219 262
#     4   9  17  30  49  72  96 123 155 191 230 276
#     4   9  18  32  49  69  91 115 150 197 240 275
#
# _framework density 17.024421
#
# number of rings (size 3 to 8) (size 9 to 14) (size 15 to 20)
#    0.000    2.429    0.000    3.429    0.000    2.857 
#    0.000    1.429    0.000    6.857    0.000    6.000 
#    0.000    0.000    0.000   18.143    0.000    0.714 
#
# Total GULP energy -694095.156470 kJ/mol
# GULP energy per Si atom -12394.556366 kJ/mol
# Density = 1.698567 g / cm^3
# Si number density = 17.024421 Si / 1000 Ang^3
#
#
#
# Elastic Constant Matrix: (Units=GPa)
#
#
# Indices 1 2 3 4 5 6 
#
# 1 97.5531 43.3461 55.5439 0.0000 0.0000 0.0000
# 2 43.3461 70.7694 33.3238 0.0000 0.0000 0.0000
# 3 55.5439 33.3238 89.0491 0.0000 0.0000 0.0000
# 4 0.0000 0.0000 0.0000 25.7224 0.0000 0.0000
# 5 0.0000 0.0000 0.0000 0.0000 37.6305 0.0000
# 6 0.0000 0.0000 0.0000 0.0000 0.0000 30.1526
#
#
#
# Elastic Compliance Matrix: (Units=1/GPa)
#
#
# Indices 1 2 3 4 5 6 
#
# 1 0.018458 -0.007143 -0.008840 0.000000 0.000000 0.000000
# 2 -0.007143 0.019917 -0.002998 0.000000 0.000000 0.000000
# 3 -0.008840 -0.002998 0.017866 0.000000 0.000000 0.000000
# 4 0.000000 0.000000 0.000000 0.038877 0.000000 0.000000
# 5 0.000000 0.000000 0.000000 0.000000 0.026574 0.000000
# 6 0.000000 0.000000 0.000000 0.000000 0.000000 0.033165
#
#
# Mechanical properties :
#
#
# Convention : Reuss Voigt Hill
#
# Bulk Modulus (GPa) = 54.70828 57.97770 56.34299
# Shear Modulus (GPa) = 25.13691 27.04495 26.09093
#
# Velocity S-wave (km/s) = 3.84672 3.99005 3.91904
# Velocity P-wave (km/s) = 7.20657 7.44022 7.32432
#
# Compressibility (1/GPa) = 0.01827877
#
# Stress axis : x y z
#
# Youngs Moduli (GPa) = 54.17739 50.20816 55.97351
#
# Poissons Ratio (x) = 0.35863 0.49481
# Poissons Ratio (y) = 0.38698 0.16781
# Poissons Ratio (z) = 0.47893 0.15053
#
# Static dielectric constant tensor:
#      x y z
#    x 3.408370 0.000000 0.000000 
#    y 0.000000 3.077110 0.000000 
#    z 0.000000 0.000000 3.310510 
# 
# 
# High freq. dielectric constant tensor:
#      x y z
#    x 1.660590 0.000000 0.000000 
#    y 0.000000 1.647960 0.000000 
#    z 0.000000 0.000000 1.654060 
# 
# From -- ./inp_files/29361.got.cif
#   From: 2010.03.12/outbox.cif.g09.slc.cpg/sg65_15_cif.got.tgz:29361.got - 2010.04.10 20:52:16.
