data_PCOD8272329
_publ_section_title
;
Structure prediction by ZEFSAII (Michael W. Deem and Ramdas Pophale) SiO2 
 PCOD8272329
Probable space group: C M M M
;
_chemical_formula_sum "Si O2"
_cell_formula_units_Z 80
_cell_length_a 9.121475
_cell_length_b 23.735767
_cell_length_c 20.012166
_cell_angle_alpha 90.000000
_cell_angle_beta 90.000000
_cell_angle_gamma 90.000000
_cell_volume 4332.738108
_symmetry_space_group_name_H-M "C M M M"
_symmetry_group_IT_number 65
_symmetry_cell_setting 'orthorhombic'
loop_
_space_group_symop_operation_xyz
x,y,z
-x,-y,z
x,-y,-z
-x,y,-z
-x,-y,-z
x,y,-z
-x,y,z
x,-y,z
1/2+x,1/2+y,z
1/2-x,1/2-y,z
1/2+x,1/2-y,-z
1/2-x,1/2+y,-z
1/2-x,1/2-y,-z
1/2+x,1/2+y,-z
1/2-x,1/2+y,z
1/2+x,1/2-y,z
loop_
_atom_site_type_symbol
_atom_site_label
_atom_site_fract_x
_atom_site_fract_y
_atom_site_fract_z
Si Si1 0.326187 0.500000 0.626627
Si Si2 0.168387 0.391827 0.576008
Si Si3 0.830697 0.620366 0.820046
Si Si4 0.829208 0.193210 0.922608
Si Si5 0.328829 0.190997 0.690801
Si Si6 0.331813 0.000000 0.765796
O O1 0.500000 0.500000 0.625237
O O2 0.268676 0.445705 0.587725
O O3 0.273207 0.500000 0.702550
O O4 0.185942 0.371150 0.500000
O O5 0.220300 0.340900 0.623394
O O6 0.000000 0.408185 0.592531
O O7 0.732753 0.640548 0.881752
O O8 0.781947 0.652406 0.753011
O O9 0.800008 0.554255 0.811126
O O10 0.000000 0.632217 0.836691
O O11 0.750000 0.250000 0.897954
O O12 0.000000 0.200555 0.908202
O O13 0.795994 0.181477 0.000000
O O14 0.500000 0.203083 0.690805
O O15 0.250000 0.250000 0.695905
O O16 0.500000 0.000000 0.740027
#
# Coordination Sequence:
#
# PCOD8272329 Si02
#       6
#     8  16  16  16  16   8
#     4  12  23  35  56  86 115 141 178 236 291 330
#     4  10  21  39  60  78 105 150 193 228 276 340
#     4  10  20  36  60  85 111 145 187 235 277 325
#     4  10  21  37  58  85 118 153 189 229 273 326
#     4  10  21  36  55  81 110 143 185 230 278 332
#     4  10  20  39  62  83 112 149 188 227 272 332
#
# _framework density 18.464074
#
# number of rings (size 3 to 8) (size 9 to 14) (size 15 to 20)
#    0.000    1.800    2.000    2.400    0.000    7.200 
#    0.000    0.500    0.000    3.000    0.000    0.000 
#    0.000    0.000    0.000    0.000    0.000    0.000 
#
# Total GULP energy -496207.828374 kJ/mol
# GULP energy per Si atom -12405.195709 kJ/mol
# Density = 1.842205 g / cm^3
# Si number density = 18.464074 Si / 1000 Ang^3
#
#
#
# Elastic Constant Matrix: (Units=GPa)
#
#
# Indices 1 2 3 4 5 6 
#
# 1 81.9201 56.3675 50.2087 0.0000 0.0000 0.0000
# 2 56.3675 152.8514 63.4476 0.0000 0.0000 0.0000
# 3 50.2087 63.4476 103.7519 0.0000 0.0000 0.0000
# 4 0.0000 0.0000 0.0000 35.2554 0.0000 0.0000
# 5 0.0000 0.0000 0.0000 0.0000 27.4545 0.0000
# 6 0.0000 0.0000 0.0000 0.0000 0.0000 21.2854
#
#
#
# Elastic Compliance Matrix: (Units=1/GPa)
#
#
# Indices 1 2 3 4 5 6 
#
# 1 0.019287 -0.004340 -0.006680 0.000000 0.000000 0.000000
# 2 -0.004340 0.009745 -0.003859 0.000000 0.000000 0.000000
# 3 -0.006680 -0.003859 0.015231 0.000000 0.000000 0.000000
# 4 0.000000 0.000000 0.000000 0.028364 0.000000 0.000000
# 5 0.000000 0.000000 0.000000 0.000000 0.036424 0.000000
# 6 0.000000 0.000000 0.000000 0.000000 0.000000 0.046980
#
#
# Mechanical properties :
#
#
# Convention : Reuss Voigt Hill
#
# Bulk Modulus (GPa) = 68.93930 75.39677 72.16804
# Shear Modulus (GPa) = 26.22975 28.03238 27.13106
#
# Velocity S-wave (km/s) = 3.77315 3.90065 3.83743
# Velocity P-wave (km/s) = 7.51001 7.82366 7.66844
#
# Compressibility (1/GPa) = 0.01450551
#
# Stress axis : x y z
#
# Youngs Moduli (GPa) = 51.84795 102.62156 65.65691
#
# Poissons Ratio (x) = 0.44537 0.43857
# Poissons Ratio (y) = 0.22502 0.25336
# Poissons Ratio (z) = 0.34633 0.39600
#
# Static dielectric constant tensor:
#      x y z
#    x 3.329220 0.000000 0.000000 
#    y 0.000000 3.395350 0.000000 
#    z 0.000000 0.000000 3.419150 
# 
# 
# High freq. dielectric constant tensor:
#      x y z
#    x 1.710820 0.000000 0.000000 
#    y 0.000000 1.717890 0.000000 
#    z 0.000000 0.000000 1.719500 
# 
# From -- ./inp_files/57314.got.cif
#   From: 2010.03.12/outbox.cif.g09.slc.cpg/sg65_29_cif.got.tgz:57314.got - 2010.04.10 20:52:16.
