data_PCOD8272664
_publ_section_title
;
Structure prediction by ZEFSAII (Michael W. Deem and Ramdas Pophale) SiO2 
 PCOD8272664
Probable space group: C M M M
;
_chemical_formula_sum "Si O2"
_cell_formula_units_Z 72
_cell_length_a 10.072247
_cell_length_b 17.634124
_cell_length_c 23.026290
_cell_angle_alpha 90.000000
_cell_angle_beta 90.000000
_cell_angle_gamma 90.000000
_cell_volume 4089.820314
_symmetry_space_group_name_H-M "C M M M"
_symmetry_group_IT_number 65
_symmetry_cell_setting 'orthorhombic'
loop_
_space_group_symop_operation_xyz
x,y,z
-x,-y,z
x,-y,-z
-x,y,-z
-x,-y,-z
x,y,-z
-x,y,z
x,-y,z
1/2+x,1/2+y,z
1/2-x,1/2-y,z
1/2+x,1/2-y,-z
1/2-x,1/2+y,-z
1/2-x,1/2-y,-z
1/2+x,1/2+y,-z
1/2-x,1/2+y,z
1/2+x,1/2-y,z
loop_
_atom_site_type_symbol
_atom_site_label
_atom_site_fract_x
_atom_site_fract_y
_atom_site_fract_z
Si Si1 0.148608 0.590277 0.158650
Si Si2 0.651265 0.411525 0.384406
Si Si3 0.648708 0.090124 0.712022
Si Si4 0.148594 0.909735 0.935292
Si Si5 0.347072 0.320329 0.500000
O O1 0.155835 0.500000 0.157276
O O2 0.186304 0.619272 0.223340
O O3 0.250297 0.625743 0.111798
O O4 0.000000 0.617065 0.142456
O O5 0.500000 0.397024 0.364840
O O6 0.678435 0.500000 0.394453
O O7 0.746294 0.377184 0.334317
O O8 0.685162 0.370515 0.444106
O O9 0.500000 0.117420 0.695363
O O10 0.654559 0.000000 0.711723
O O11 0.000000 0.881674 0.920276
O O12 0.153481 0.000000 0.932968
O O13 0.189295 0.882336 0.000000
O O14 0.500000 0.292962 0.500000
O O15 0.250000 0.250000 0.500000
#
# Coordination Sequence:
#
# PCOD8272664 Si02
#       5
#    16  16  16  16   8
#     4   8  13  20  29  42  62  88 118 155 198 240
#     4   9  17  30  48  67  86 110 141 176 212 250
#     4   8  14  24  37  55  78 100 126 165 209 249
#     4   8  13  19  25  35  54  82 118 159 198 235
#     4  10  21  35  49  67  91 116 142 172 208 252
#
# _framework density 17.604685
#
# number of rings (size 3 to 8) (size 9 to 14) (size 15 to 20)
#    0.000    3.556    0.000    2.333    0.000    3.556 
#    0.000    6.667    0.000    3.333    0.000    0.000 
#    0.000    0.000    0.000    0.000    0.000    1.111 
#
# Total GULP energy -446141.733232 kJ/mol
# GULP energy per Si atom -12392.825923 kJ/mol
# Density = 1.756462 g / cm^3
# Si number density = 17.604685 Si / 1000 Ang^3
#
#
#
# Elastic Constant Matrix: (Units=GPa)
#
#
# Indices 1 2 3 4 5 6 
#
# 1 142.7197 24.6774 124.8574 0.0000 0.0000 0.0000
# 2 24.6774 17.2078 22.0561 0.0000 0.0000 0.0000
# 3 124.8574 22.0561 176.8678 0.0000 0.0000 0.0000
# 4 0.0000 0.0000 0.0000 -0.8562 0.0000 0.0000
# 5 0.0000 0.0000 0.0000 0.0000 42.7623 0.0000
# 6 0.0000 0.0000 0.0000 0.0000 0.0000 12.6736
#
#
#
# Elastic Compliance Matrix: (Units=1/GPa)
#
#
# Indices 1 2 3 4 5 6 
#
# 1 0.020474 -0.012898 -0.012845 0.000000 0.000000 0.000000
# 2 -0.012898 0.077294 -0.000534 0.000000 0.000000 0.000000
# 3 -0.012845 -0.000534 0.014788 0.000000 0.000000 0.000000
# 4 0.000000 0.000000 0.000000 -1.167883 0.000000 0.000000
# 5 0.000000 0.000000 0.000000 0.000000 0.023385 0.000000
# 6 0.000000 0.000000 0.000000 0.000000 0.000000 0.078904
#
#
# Mechanical properties :
#
#
# Convention : Reuss Voigt Hill
#
# Bulk Modulus (GPa) = 16.66584 75.55302 46.10943
# Shear Modulus (GPa) = -5.67870 21.92955 8.12543
#
# Velocity S-wave (km/s) = -1.79797 3.53323 2.15070
# Velocity P-wave (km/s) = 2.27531 7.72363 5.69349
#
# Compressibility (1/GPa) = 0.06000297
#
# Stress axis : x y z
#
# Youngs Moduli (GPa) = 48.84135 12.93767 67.62025
#
# Poissons Ratio (x) = 0.16687 0.86860
# Poissons Ratio (y) = 0.62994 0.03610
# Poissons Ratio (z) = 0.62738 0.00691
#
# Static dielectric constant tensor:
#      x y z
#    x 3.559450 0.000000 0.000000 
#    y 0.000000 2.539610 0.000000 
#    z 0.000000 0.000000 3.653120 
# 
# 
# High freq. dielectric constant tensor:
#      x y z
#    x 1.686960 0.000000 0.000000 
#    y 0.000000 1.602410 0.000000 
#    z 0.000000 0.000000 1.693090 
# 
# From -- ./inp_files/63449.got.cif
#   From: 2010.03.12/outbox.cif.g09.slc.cpg/sg65_32_cif.got.tgz:63449.got - 2010.04.10 20:52:16.
