data_PCOD8272711
_publ_section_title
;
Structure prediction by ZEFSAII (Michael W. Deem and Ramdas Pophale) SiO2 
 PCOD8272711
Probable space group: C M M M
;
_chemical_formula_sum "Si O2"
_cell_formula_units_Z 72
_cell_length_a 20.407864
_cell_length_b 19.737319
_cell_length_c 9.275423
_cell_angle_alpha 90.000000
_cell_angle_beta 90.000000
_cell_angle_gamma 90.000000
_cell_volume 3736.108123
_symmetry_space_group_name_H-M "C M M M"
_symmetry_group_IT_number 65
_symmetry_cell_setting 'orthorhombic'
loop_
_space_group_symop_operation_xyz
x,y,z
-x,-y,z
x,-y,-z
-x,y,-z
-x,-y,-z
x,y,-z
-x,y,z
x,-y,z
1/2+x,1/2+y,z
1/2-x,1/2-y,z
1/2+x,1/2-y,-z
1/2-x,1/2+y,-z
1/2-x,1/2-y,-z
1/2+x,1/2+y,-z
1/2-x,1/2+y,z
1/2+x,1/2-y,z
loop_
_atom_site_type_symbol
_atom_site_label
_atom_site_fract_x
_atom_site_fract_y
_atom_site_fract_z
Si Si1 0.612343 0.500000 0.327652
Si Si2 0.676354 0.252260 0.829518
Si Si3 0.757152 0.000000 0.837922
Si Si4 0.925883 0.134022 0.167821
Si Si5 0.644651 0.896096 0.164599
Si Si6 0.574985 0.000000 0.654250
O O1 0.605009 0.500000 0.500000
O O2 0.688090 0.500000 0.283415
O O3 0.578190 0.433710 0.262137
O O4 0.750000 0.250000 0.763091
O O5 0.628545 0.312245 0.773021
O O6 0.644930 0.181128 0.784307
O O7 0.681980 0.259228 0.000000
O O8 0.715022 0.931996 0.815004
O O9 0.787234 0.000000 0.000000
O O10 0.000000 0.163455 0.184790
O O11 0.911856 0.117075 0.000000
O O12 0.590922 0.932382 0.259733
O O13 0.622312 0.902647 0.000000
O O14 0.500000 0.000000 0.622068
O O15 0.612589 0.000000 0.500000
#
# Coordination Sequence:
#
# PCOD8272711 Si02
#       6
#     8  16   8  16  16   8
#     4  12  24  36  54  78 105 141 182 222 264 313
#     4   9  17  32  56  84 110 135 169 218 273 324
#     4   9  17  32  55  82 110 140 174 215 266 317
#     4  10  21  37  57  80 106 139 178 220 270 325
#     4   9  18  33  56  83 107 135 175 223 269 314
#     4  10  21  35  50  72 107 150 186 217 263 319
#
# _framework density 19.271391999999999
#
# number of rings (size 3 to 8) (size 9 to 14) (size 15 to 20)
#    0.000    2.333    0.000    3.667    0.000    8.889 
#    0.000    3.333    0.000    2.667    0.000    0.000 
#    0.000    0.000    0.000    0.000    0.000    0.000 
#
# Total GULP energy -446210.868801 kJ/mol
# GULP energy per Si atom -12394.746356 kJ/mol
# Density = 1.922753 g / cm^3
# Si number density = 19.271392 Si / 1000 Ang^3
#
#
#
# Elastic Constant Matrix: (Units=GPa)
#
#
# Indices 1 2 3 4 5 6 
#
# 1 110.1709 59.1855 38.4792 0.0000 0.0000 0.0000
# 2 59.1855 151.2876 50.4352 0.0000 0.0000 0.0000
# 3 38.4792 50.4352 82.3213 0.0000 0.0000 0.0000
# 4 0.0000 0.0000 0.0000 -49.6215 0.0000 0.0000
# 5 0.0000 0.0000 0.0000 0.0000 15.0813 0.0000
# 6 0.0000 0.0000 0.0000 0.0000 0.0000 8.6429
#
#
#
# Elastic Compliance Matrix: (Units=1/GPa)
#
#
# Indices 1 2 3 4 5 6 
#
# 1 0.012247 -0.003623 -0.003505 0.000000 0.000000 0.000000
# 2 -0.003623 0.009378 -0.004052 0.000000 0.000000 0.000000
# 3 -0.003505 -0.004052 0.016269 0.000000 0.000000 0.000000
# 4 0.000000 0.000000 0.000000 -0.020153 0.000000 0.000000
# 5 0.000000 0.000000 0.000000 0.000000 0.066307 0.000000
# 6 0.000000 0.000000 0.000000 0.000000 0.000000 0.115702
#
#
# Mechanical properties :
#
#
# Convention : Reuss Voigt Hill
#
# Bulk Modulus (GPa) = 64.37649 71.10884 67.74266
# Shear Modulus (GPa) = 21.99839 7.86586 14.93212
#
# Velocity S-wave (km/s) = 3.38228 2.02249 2.78660
# Velocity P-wave (km/s) = 6.98075 6.51404 6.75143
#
# Compressibility (1/GPa) = 0.01553362
#
# Stress axis : x y z
#
# Youngs Moduli (GPa) = 81.65100 106.63152 61.46804
#
# Poissons Ratio (x) = 0.38630 0.21546
# Poissons Ratio (y) = 0.29580 0.24908
# Poissons Ratio (z) = 0.28620 0.43210
#
# Static dielectric constant tensor:
#      x y z
#    x 3.551260 0.000000 0.000000 
#    y 0.000000 4.267980 0.000000 
#    z 0.000000 0.000000 3.252060 
# 
# 
# High freq. dielectric constant tensor:
#      x y z
#    x 1.752420 0.000000 0.000000 
#    y 0.000000 1.757130 0.000000 
#    z 0.000000 0.000000 1.713140 
# 
# From -- ./inp_files/11308.got.cif
#   From: 2010.03.12/outbox.cif.g09.slc.cpg/sg65_6_cif.got.tgz:11308.got - 2010.04.10 20:52:16.
