data_PCOD8272200
_publ_section_title
;
Structure prediction by ZEFSAII (Michael W. Deem and Ramdas Pophale) SiO2 
 PCOD8272200
Probable space group: C M M M
;
_chemical_formula_sum "Si O2"
_cell_formula_units_Z 120
_cell_length_a 29.719419
_cell_length_b 8.067961
_cell_length_c 27.433857
_cell_angle_alpha 90.000000
_cell_angle_beta 90.000000
_cell_angle_gamma 90.000000
_cell_volume 6577.956174
_symmetry_space_group_name_H-M "C M M M"
_symmetry_group_IT_number 65
_symmetry_cell_setting 'orthorhombic'
loop_
_space_group_symop_operation_xyz
x,y,z
-x,-y,z
x,-y,-z
-x,y,-z
-x,-y,-z
x,y,-z
-x,y,z
x,-y,z
1/2+x,1/2+y,z
1/2-x,1/2-y,z
1/2+x,1/2-y,-z
1/2-x,1/2+y,-z
1/2-x,1/2-y,-z
1/2+x,1/2+y,-z
1/2-x,1/2+y,z
1/2+x,1/2-y,z
loop_
_atom_site_type_symbol
_atom_site_label
_atom_site_fract_x
_atom_site_fract_y
_atom_site_fract_z
Si Si1 0.050765 0.804318 0.090938
Si Si2 0.297109 0.689702 0.863716
Si Si3 0.052848 0.500000 0.446121
Si Si4 0.549513 0.697187 0.799823
Si Si5 0.447287 0.693421 0.621211
Si Si6 0.639890 0.189840 0.053584
Si Si7 0.110051 0.196151 0.285386
Si Si8 0.201501 0.804179 0.244635
O O1 0.061501 0.743447 0.145829
O O2 0.086119 0.713359 0.056166
O O3 0.000000 0.753692 0.075963
O O4 0.057011 0.000000 0.085897
O O5 0.292595 0.500000 0.852192
O O6 0.250000 0.750000 0.886599
O O7 0.336479 0.713551 0.902639
O O8 0.305890 0.771879 0.810225
O O9 0.075137 0.500000 0.500000
O O10 0.066726 0.326553 0.420102
O O11 0.000000 0.500000 0.451177
O O12 0.500000 0.760756 0.785225
O O13 0.550381 0.500000 0.798970
O O14 0.584300 0.773224 0.761218
O O15 0.500000 0.712167 0.635655
O O16 0.438195 0.500000 0.605448
O O17 0.415364 0.750117 0.665655
O O18 0.653108 0.000000 0.059298
O O19 0.655564 0.253754 0.000000
O O20 0.161782 0.260649 0.280940
O O21 0.108106 0.000000 0.282059
O O22 0.250000 0.750000 0.265663
O O23 0.198775 0.000000 0.243283
#
# Coordination Sequence:
#
# PCOD8272200 Si02
#       8
#    16  16   8  16  16  16  16  16
#     4   9  18  33  53  74  94 120 157 198 236 286
#     4  10  20  36  58  78  97 122 153 191 238 294
#     4   9  18  32  48  68 102 144 182 224 261 293
#     4   8  13  23  43  70  94 118 152 188 230 286
#     4   9  17  29  47  72 102 139 179 216 257 304
#     4  11  24  38  51  69  93 121 154 195 243 294
#     4   9  15  25  44  69  98 131 160 196 237 288
#     4   9  18  32  49  71  98 127 159 193 233 289
#
# _framework density 18.242747999999999
#
# number of rings (size 3 to 8) (size 9 to 14) (size 15 to 20)
#    0.000    2.733    0.000    2.800    0.000    6.400 
#    1.200    2.667    1.467    0.000    0.000    0.000 
#    0.000    0.533    0.267    0.000    0.000    0.000 
#
# Total GULP energy -743404.289607 kJ/mol
# GULP energy per Si atom -12390.071493 kJ/mol
# Density = 1.820123 g / cm^3
# Si number density = 18.242748 Si / 1000 Ang^3
#
#
#
# Elastic Constant Matrix: (Units=GPa)
#
#
# Indices 1 2 3 4 5 6 
#
# 1 105.6781 16.6454 51.1676 0.0000 0.0000 0.0000
# 2 16.6454 42.7268 27.8643 0.0000 0.0000 0.0000
# 3 51.1676 27.8643 89.1845 0.0000 0.0000 0.0000
# 4 0.0000 0.0000 0.0000 16.6286 0.0000 0.0000
# 5 0.0000 0.0000 0.0000 0.0000 18.7558 0.0000
# 6 0.0000 0.0000 0.0000 0.0000 0.0000 21.6853
#
#
#
# Elastic Compliance Matrix: (Units=1/GPa)
#
#
# Indices 1 2 3 4 5 6 
#
# 1 0.013105 -0.000254 -0.007439 0.000000 0.000000 0.000000
# 2 -0.000254 0.029398 -0.009039 0.000000 0.000000 0.000000
# 3 -0.007439 -0.009039 0.018305 0.000000 0.000000 0.000000
# 4 0.000000 0.000000 0.000000 0.060137 0.000000 0.000000
# 5 0.000000 0.000000 0.000000 0.000000 0.053317 0.000000
# 6 0.000000 0.000000 0.000000 0.000000 0.000000 0.046114
#
#
# Mechanical properties :
#
#
# Convention : Reuss Voigt Hill
#
# Bulk Modulus (GPa) = 36.57219 47.66043 42.11631
# Shear Modulus (GPa) = 19.01461 20.87474 19.94468
#
# Velocity S-wave (km/s) = 3.23199 3.38639 3.31009
# Velocity P-wave (km/s) = 5.83255 6.43992 6.14375
#
# Compressibility (1/GPa) = 0.02734318
#
# Stress axis : x y z
#
# Youngs Moduli (GPa) = 76.30907 34.01538 54.62987
#
# Poissons Ratio (x) = 0.00863 0.40640
# Poissons Ratio (y) = 0.01937 0.49382
# Poissons Ratio (z) = 0.56768 0.30748
#
# Static dielectric constant tensor:
#      x y z
#    x 3.624370 0.000000 0.000000 
#    y 0.000000 3.123350 0.000000 
#    z 0.000000 0.000000 3.374350 
# 
# 
# High freq. dielectric constant tensor:
#      x y z
#    x 1.700000 0.000000 0.000000 
#    y 0.000000 1.688400 0.000000 
#    z 0.000000 0.000000 1.676100 
# 
# From -- ./inp_files/76145.got.cif
#   From: 2010.03.12/outbox.cif.g09.slc.cpg/sg65_39_cif.got.tgz:76145.got - 2010.04.10 20:52:16.
