data_PCOD8272068
_publ_section_title
;
Structure prediction by ZEFSAII (Michael W. Deem and Ramdas Pophale) SiO2 
 PCOD8272068
Probable space group: C M M M
;
_chemical_formula_sum "Si O2"
_cell_formula_units_Z 104
_cell_length_a 29.486926
_cell_length_b 8.793771
_cell_length_c 20.049198
_cell_angle_alpha 90.000000
_cell_angle_beta 90.000000
_cell_angle_gamma 90.000000
_cell_volume 5198.782599
_symmetry_space_group_name_H-M "C M M M"
_symmetry_group_IT_number 65
_symmetry_cell_setting 'orthorhombic'
loop_
_space_group_symop_operation_xyz
x,y,z
-x,-y,z
x,-y,-z
-x,y,-z
-x,-y,-z
x,y,-z
-x,y,z
x,-y,z
1/2+x,1/2+y,z
1/2-x,1/2-y,z
1/2+x,1/2-y,-z
1/2-x,1/2+y,-z
1/2-x,1/2-y,-z
1/2+x,1/2+y,-z
1/2-x,1/2+y,z
1/2+x,1/2-y,z
loop_
_atom_site_type_symbol
_atom_site_label
_atom_site_fract_x
_atom_site_fract_y
_atom_site_fract_z
Si Si1 0.118146 0.821281 0.703860
Si Si2 0.052863 0.679244 0.808279
Si Si3 0.000000 0.168347 0.578331
Si Si4 0.293654 0.168418 0.748921
Si Si5 0.407857 0.179666 0.575404
Si Si6 0.110650 0.824534 0.075822
Si Si7 0.793960 0.332082 0.903953
O O1 0.074932 0.753684 0.742655
O O2 0.163229 0.777013 0.742756
O O3 0.125614 0.753600 0.629227
O O4 0.112425 0.000000 0.699338
O O5 0.059970 0.500000 0.802771
O O6 0.076853 0.734578 0.875827
O O7 0.000000 0.724432 0.810602
O O8 0.043220 0.264277 0.600488
O O9 0.000000 0.148701 0.500000
O O10 0.000000 0.000000 0.611713
O O11 0.250000 0.250000 0.715273
O O12 0.285000 0.148383 0.826303
O O13 0.301050 0.000000 0.716746
O O14 0.396499 0.235669 0.500000
O O15 0.405808 0.000000 0.578817
O O16 0.161630 0.764716 0.080445
O O17 0.110530 0.000000 0.098007
O O18 0.092982 0.805220 0.000000
O O19 0.799527 0.500000 0.935768
O O20 0.750000 0.250000 0.936057
#
# Coordination Sequence:
#
# PCOD8272068 Si02
#       7
#    16  16   8  16  16  16  16
#     4  12  24  38  62  91 123 159 198 247 300 354
#     4  11  25  44  64  87 117 155 202 252 300 353
#     4   9  17  31  51  77 111 149 192 239 288 347
#     4  10  20  36  60  90 122 155 196 242 295 355
#     4  10  21  37  57  82 117 160 202 246 297 355
#     4  11  24  41  62  88 120 157 198 246 300 358
#     4  10  20  35  59  87 120 157 193 240 295 355
#
# _framework density 20.004683
#
# number of rings (size 3 to 8) (size 9 to 14) (size 15 to 20)
#    0.000    1.462    1.538    3.923    1.077    6.154 
#    0.000    1.538    0.000    0.462    0.000    0.000 
#    0.000    0.000    0.000    0.000    0.000    0.000 
#
# Total GULP energy -644738.714206 kJ/mol
# GULP energy per Si atom -12398.821427 kJ/mol
# Density = 1.995915 g / cm^3
# Si number density = 20.004683 Si / 1000 Ang^3
#
#
#
# Elastic Constant Matrix: (Units=GPa)
#
#
# Indices 1 2 3 4 5 6 
#
# 1 112.0086 46.4510 33.5397 0.0000 0.0000 0.0000
# 2 46.4510 132.1679 44.7517 0.0000 0.0000 0.0000
# 3 33.5397 44.7517 91.1409 0.0000 0.0000 0.0000
# 4 0.0000 0.0000 0.0000 15.2456 0.0000 0.0000
# 5 0.0000 0.0000 0.0000 0.0000 181.3085 0.0000
# 6 0.0000 0.0000 0.0000 0.0000 0.0000 35.6394
#
#
#
# Elastic Compliance Matrix: (Units=1/GPa)
#
#
# Indices 1 2 3 4 5 6 
#
# 1 0.010928 -0.002973 -0.002562 0.000000 0.000000 0.000000
# 2 -0.002973 0.009884 -0.003759 0.000000 0.000000 0.000000
# 3 -0.002562 -0.003759 0.013760 0.000000 0.000000 0.000000
# 4 0.000000 0.000000 0.000000 0.065593 0.000000 0.000000
# 5 0.000000 0.000000 0.000000 0.000000 0.005515 0.000000
# 6 0.000000 0.000000 0.000000 0.000000 0.000000 0.028059
#
#
# Mechanical properties :
#
#
# Convention : Reuss Voigt Hill
#
# Bulk Modulus (GPa) = 62.56033 64.97804 63.76918
# Shear Modulus (GPa) = 31.71478 60.47703 46.09590
#
# Velocity S-wave (km/s) = 3.98599 5.50428 4.80547
# Velocity P-wave (km/s) = 7.24740 8.54096 7.92063
#
# Compressibility (1/GPa) = 0.01598457
#
# Stress axis : x y z
#
# Youngs Moduli (GPa) = 91.50818 101.17445 72.67243
#
# Poissons Ratio (x) = 0.30083 0.18615
# Poissons Ratio (y) = 0.27209 0.27317
# Poissons Ratio (z) = 0.23440 0.38031
#
# Static dielectric constant tensor:
#      x y z
#    x 3.288100 0.000000 0.000000 
#    y 0.000000 3.935670 0.000000 
#    z 0.000000 0.000000 3.668980 
# 
# 
# High freq. dielectric constant tensor:
#      x y z
#    x 1.769270 0.000000 0.000000 
#    y 0.000000 1.800670 0.000000 
#    z 0.000000 0.000000 1.773710 
# 
# From -- ./inp_files/66427.got.cif
#   From: 2010.03.12/outbox.cif.g09.slc.cpg/sg65_34_cif.got.tgz:66427.got - 2010.04.10 20:52:16.
