data_PCOD8273525
_publ_section_title
;
Structure prediction by ZEFSAII (Michael W. Deem and Ramdas Pophale) SiO2 
 PCOD8273525
Probable space group: C M M M
;
_chemical_formula_sum "Si O2"
_cell_formula_units_Z 64
_cell_length_a 8.914410
_cell_length_b 15.724028
_cell_length_c 21.934946
_cell_angle_alpha 90.000000
_cell_angle_beta 90.000000
_cell_angle_gamma 90.000000
_cell_volume 3074.630866
_symmetry_space_group_name_H-M "C M M M"
_symmetry_group_IT_number 65
_symmetry_cell_setting 'orthorhombic'
loop_
_space_group_symop_operation_xyz
x,y,z
-x,-y,z
x,-y,-z
-x,y,-z
-x,-y,-z
x,y,-z
-x,y,z
x,-y,z
1/2+x,1/2+y,z
1/2-x,1/2-y,z
1/2+x,1/2-y,-z
1/2-x,1/2+y,-z
1/2-x,1/2-y,-z
1/2+x,1/2+y,-z
1/2-x,1/2+y,z
1/2+x,1/2-y,z
loop_
_atom_site_type_symbol
_atom_site_label
_atom_site_fract_x
_atom_site_fract_y
_atom_site_fract_z
Si Si1 0.835008 0.098864 0.617738
Si Si2 0.328466 0.500000 0.072126
Si Si3 0.677305 0.838219 0.132468
Si Si4 0.326770 0.901672 0.736177
Si Si5 0.823324 0.659279 0.500000
O O1 0.764726 0.138368 0.679301
O O2 0.728280 0.110741 0.560190
O O3 0.000000 0.139550 0.606007
O O4 0.851337 0.000000 0.629404
O O5 0.500000 0.500000 0.095633
O O6 0.245838 0.415825 0.095108
O O7 0.321504 0.500000 0.000000
O O8 0.500000 0.836489 0.120878
O O9 0.750000 0.750000 0.109653
O O10 0.715911 0.849370 0.203742
O O11 0.500000 0.892373 0.719313
O O12 0.285952 0.000000 0.748507
O O13 0.750000 0.750000 0.500000
O O14 0.000000 0.665973 0.500000
#
# Coordination Sequence:
#
# PCOD8273525 Si02
#       5
#    16   8  16  16   8
#     4  10  21  37  59  87 117 153 197 246 301 365
#     4  11  25  45  69  97 131 172 217 266 319 379
#     4  11  23  41  66  98 133 173 216 266 320 379
#     4   9  18  36  60  87 121 161 205 253 308 368
#     4  12  25  40  57  77 109 153 197 252 311 366
#
# _framework density 20.815508999999999
#
# number of rings (size 3 to 8) (size 9 to 14) (size 15 to 20)
#    0.000    1.625    1.250    3.375    0.000    7.500 
#    0.000    2.500    0.000    0.000    0.000    0.000 
#    0.000    0.000    0.000    0.000    0.000    0.000 
#
# Total GULP energy -396845.940758 kJ/mol
# GULP energy per Si atom -12401.435649 kJ/mol
# Density = 2.076813 g / cm^3
# Si number density = 20.815509 Si / 1000 Ang^3
#
#
#
# Elastic Constant Matrix: (Units=GPa)
#
#
# Indices 1 2 3 4 5 6 
#
# 1 160.2752 54.1069 66.6371 0.0000 0.0000 0.0000
# 2 54.1069 104.3002 42.5232 0.0000 0.0000 0.0000
# 3 66.6371 42.5232 103.7897 0.0000 0.0000 0.0000
# 4 0.0000 0.0000 0.0000 -1.4167 0.0000 0.0000
# 5 0.0000 0.0000 0.0000 0.0000 37.4495 0.0000
# 6 0.0000 0.0000 0.0000 0.0000 0.0000 32.5314
#
#
#
# Elastic Compliance Matrix: (Units=1/GPa)
#
#
# Indices 1 2 3 4 5 6 
#
# 1 0.009156 -0.002825 -0.004721 0.000000 0.000000 0.000000
# 2 -0.002825 0.012382 -0.003259 0.000000 0.000000 0.000000
# 3 -0.004721 -0.003259 0.014001 0.000000 0.000000 0.000000
# 4 0.000000 0.000000 0.000000 -0.705851 0.000000 0.000000
# 5 0.000000 0.000000 0.000000 0.000000 0.026703 0.000000
# 6 0.000000 0.000000 0.000000 0.000000 0.000000 0.030739
#
#
# Mechanical properties :
#
#
# Convention : Reuss Voigt Hill
#
# Bulk Modulus (GPa) = 71.79423 77.21105 74.50264
# Shear Modulus (GPa) = -8.52346 27.38604 9.43129
#
# Velocity S-wave (km/s) = -2.02575 3.63113 2.13090
# Velocity P-wave (km/s) = 5.39389 7.39958 6.47487
#
# Compressibility (1/GPa) = 0.01392870
#
# Stress axis : x y z
#
# Youngs Moduli (GPa) = 109.22111 80.76269 71.42224
#
# Poissons Ratio (x) = 0.22815 0.33718
# Poissons Ratio (y) = 0.30854 0.23278
# Poissons Ratio (z) = 0.51563 0.26323
#
# Static dielectric constant tensor:
#      x y z
#    x 3.942290 0.000000 0.000000 
#    y 0.000000 3.626720 0.000000 
#    z 0.000000 0.000000 3.678700 
# 
# 
# High freq. dielectric constant tensor:
#      x y z
#    x 1.826820 0.000000 0.000000 
#    y 0.000000 1.807080 0.000000 
#    z 0.000000 0.000000 1.819610 
# 
# From -- ./inp_files/66749.got.cif
#   From: 2010.03.12/outbox.cif.g09.slc.cpg/sg65_34_cif.got.tgz:66749.got - 2010.04.10 20:52:16.
