data_PCOD8273958
_publ_section_title
;
Structure prediction by ZEFSAII (Michael W. Deem and Ramdas Pophale) SiO2 
 PCOD8273958
Probable space group: C M M M
;
_chemical_formula_sum "Si O2"
_cell_formula_units_Z 88
_cell_length_a 25.291144
_cell_length_b 10.356372
_cell_length_c 18.262412
_cell_angle_alpha 90.000000
_cell_angle_beta 90.000000
_cell_angle_gamma 90.000000
_cell_volume 4783.373051
_symmetry_space_group_name_H-M "C M M M"
_symmetry_group_IT_number 65
_symmetry_cell_setting 'orthorhombic'
loop_
_space_group_symop_operation_xyz
x,y,z
-x,-y,z
x,-y,-z
-x,y,-z
-x,-y,-z
x,y,-z
-x,y,z
x,-y,z
1/2+x,1/2+y,z
1/2-x,1/2-y,z
1/2+x,1/2-y,-z
1/2-x,1/2+y,-z
1/2-x,1/2-y,-z
1/2+x,1/2+y,-z
1/2-x,1/2+y,z
1/2+x,1/2-y,z
loop_
_atom_site_type_symbol
_atom_site_label
_atom_site_fract_x
_atom_site_fract_y
_atom_site_fract_z
Si Si1 0.940595 0.500000 0.414176
Si Si2 0.000000 0.857281 0.324271
Si Si3 0.102780 0.152823 0.918033
Si Si4 0.794083 0.146587 0.342430
Si Si5 0.598694 0.728481 0.413885
Si Si6 0.204928 0.149141 0.172607
Si Si7 0.000000 0.845163 0.835669
O O1 0.949492 0.500000 0.500000
O O2 0.905939 0.622119 0.390110
O O3 0.000000 0.500000 0.378307
O O4 0.051484 0.841737 0.373202
O O5 0.000000 0.781838 0.246448
O O6 0.000000 0.000000 0.293990
O O7 0.154340 0.193701 0.872989
O O8 0.051507 0.209562 0.877266
O O9 0.098794 0.000000 0.921651
O O10 0.106122 0.210652 0.000000
O O11 0.750000 0.250000 0.367112
O O12 0.845635 0.170565 0.390660
O O13 0.809161 0.165006 0.257886
O O14 0.773691 0.000000 0.356933
O O15 0.591207 0.707984 0.500000
O O16 0.250000 0.250000 0.149472
O O17 0.221507 0.000000 0.155651
O O18 0.000000 0.000000 0.837936
#
# Coordination Sequence:
#
# PCOD8273958 Si02
#       7
#     8   8  16  16  16  16   8
#     4   9  18  36  56  76 102 134 168 213 277 327
#     4  11  21  32  51  77 105 139 172 216 276 322
#     4   9  16  27  47  75 105 136 169 208 255 306
#     4  10  22  38  56  78 106 144 182 222 271 320
#     4  11  22  36  55  77 105 135 175 226 271 322
#     4   9  18  34  53  75 106 137 172 216 259 307
#     4   9  17  29  46  71 105 137 169 208 255 313
#
# _framework density 18.39706
#
# number of rings (size 3 to 8) (size 9 to 14) (size 15 to 20)
#    0.000    2.273    0.909    2.182    1.273    6.545 
#    0.000    0.000    0.000    0.000    0.000    0.000 
#    0.000    1.455    0.000    0.000    0.000    0.000 
#
# Total GULP energy -545415.898820 kJ/mol
# GULP energy per Si atom -12395.815882 kJ/mol
# Density = 1.835519 g / cm^3
# Si number density = 18.397060 Si / 1000 Ang^3
#
#
#
# Elastic Constant Matrix: (Units=GPa)
#
#
# Indices 1 2 3 4 5 6 
#
# 1 125.2455 40.8428 52.6545 0.0000 0.0000 0.0000
# 2 40.8428 77.6570 23.1392 0.0000 0.0000 0.0000
# 3 52.6545 23.1392 92.4721 0.0000 0.0000 0.0000
# 4 0.0000 0.0000 0.0000 12.8999 0.0000 0.0000
# 5 0.0000 0.0000 0.0000 0.0000 42.2327 0.0000
# 6 0.0000 0.0000 0.0000 0.0000 0.0000 22.7867
#
#
#
# Elastic Compliance Matrix: (Units=1/GPa)
#
#
# Indices 1 2 3 4 5 6 
#
# 1 0.011819 -0.004550 -0.005591 0.000000 0.000000 0.000000
# 2 -0.004550 0.015666 -0.001329 0.000000 0.000000 0.000000
# 3 -0.005591 -0.001329 0.014330 0.000000 0.000000 0.000000
# 4 0.000000 0.000000 0.000000 0.077520 0.000000 0.000000
# 5 0.000000 0.000000 0.000000 0.000000 0.023678 0.000000
# 6 0.000000 0.000000 0.000000 0.000000 0.000000 0.043885
#
#
# Mechanical properties :
#
#
# Convention : Reuss Voigt Hill
#
# Bulk Modulus (GPa) = 52.98183 58.73862 55.86023
# Shear Modulus (GPa) = 23.13410 27.49972 25.31691
#
# Velocity S-wave (km/s) = 3.54996 3.87044 3.71366
# Velocity P-wave (km/s) = 6.75755 7.20912 6.98698
#
# Compressibility (1/GPa) = 0.01887439
#
# Stress axis : x y z
#
# Youngs Moduli (GPa) = 84.61231 63.83161 69.78190
#
# Poissons Ratio (x) = 0.29043 0.39016
# Poissons Ratio (y) = 0.38498 0.09277
# Poissons Ratio (z) = 0.47308 0.08486
#
# Static dielectric constant tensor:
#      x y z
#    x 3.320910 0.000000 0.000000 
#    y 0.000000 3.494660 0.000000 
#    z 0.000000 0.000000 3.431390 
# 
# 
# High freq. dielectric constant tensor:
#      x y z
#    x 1.717050 0.000000 0.000000 
#    y 0.000000 1.684790 0.000000 
#    z 0.000000 0.000000 1.714840 
# 
# From -- ./inp_files/55685.got.cif
#   From: 2010.03.12/outbox.cif.g09.slc.cpg/sg65_28_cif.got.tgz:55685.got - 2010.04.10 20:52:16.
