data_PCOD8273932
_publ_section_title
;
Structure prediction by ZEFSAII (Michael W. Deem and Ramdas Pophale) SiO2 
 PCOD8273932
Probable space group: C M M M
;
_chemical_formula_sum "Si O2"
_cell_formula_units_Z 64
_cell_length_a 8.592413
_cell_length_b 21.371314
_cell_length_c 17.387148
_cell_angle_alpha 90.000000
_cell_angle_beta 90.000000
_cell_angle_gamma 90.000000
_cell_volume 3192.822091
_symmetry_space_group_name_H-M "C M M M"
_symmetry_group_IT_number 65
_symmetry_cell_setting 'orthorhombic'
loop_
_space_group_symop_operation_xyz
x,y,z
-x,-y,z
x,-y,-z
-x,y,-z
-x,-y,-z
x,y,-z
-x,y,z
x,-y,z
1/2+x,1/2+y,z
1/2-x,1/2-y,z
1/2+x,1/2-y,-z
1/2-x,1/2+y,-z
1/2-x,1/2-y,-z
1/2+x,1/2+y,-z
1/2-x,1/2+y,z
1/2+x,1/2-y,z
loop_
_atom_site_type_symbol
_atom_site_label
_atom_site_fract_x
_atom_site_fract_y
_atom_site_fract_z
Si Si1 0.684255 0.500000 0.409941
Si Si2 0.317537 0.816452 0.500000
Si Si3 0.315250 0.681705 0.194890
Si Si4 0.314965 0.122113 0.654074
Si Si5 0.184799 0.069754 0.086820
O O1 0.500000 0.500000 0.413404
O O2 0.748463 0.500000 0.500000
O O3 0.747016 0.446483 0.353784
O O4 0.500000 0.815746 0.500000
O O5 0.250000 0.750000 0.500000
O O6 0.253604 0.849325 0.424941
O O7 0.500000 0.685438 0.191155
O O8 0.250000 0.750000 0.170930
O O9 0.260968 0.663599 0.279634
O O10 0.249423 0.626511 0.139041
O O11 0.500000 0.121761 0.664501
O O12 0.000000 0.071277 0.089191
O O13 0.240764 0.000000 0.114848
O O14 0.244431 0.081024 0.000000
#
# Coordination Sequence:
#
# PCOD8273932 Si02
#       5
#     8   8  16  16  16
#     4  11  23  39  61  89 116 151 198 247 299 358
#     4  10  22  37  56  77 105 148 196 240 291 348
#     4  11  23  38  59  89 123 158 202 250 302 363
#     4  11  23  40  59  83 117 157 198 246 300 353
#     4   8  16  34  60  88 118 154 198 247 298 356
#
# _framework density 20.044962999999999
#
# number of rings (size 3 to 8) (size 9 to 14) (size 15 to 20)
#    0.000    1.875    1.250    3.375    1.750    5.000 
#    0.000    0.000    0.000    2.250    0.000    7.000 
#    0.000    0.000    0.000    0.000    0.000    0.000 
#
# Total GULP energy -396511.770256 kJ/mol
# GULP energy per Si atom -12390.992820 kJ/mol
# Density = 1.999934 g / cm^3
# Si number density = 20.044963 Si / 1000 Ang^3
#
#
#
# Elastic Constant Matrix: (Units=GPa)
#
#
# Indices 1 2 3 4 5 6 
#
# 1 41.5823 34.1934 26.0184 0.0000 0.0000 0.0000
# 2 34.1934 191.7662 76.7030 0.0000 0.0000 0.0000
# 3 26.0184 76.7030 117.6958 0.0000 0.0000 0.0000
# 4 0.0000 0.0000 0.0000 29.2505 0.0000 0.0000
# 5 0.0000 0.0000 0.0000 0.0000 1.1931 0.0000
# 6 0.0000 0.0000 0.0000 0.0000 0.0000 35.9680
#
#
#
# Elastic Compliance Matrix: (Units=1/GPa)
#
#
# Indices 1 2 3 4 5 6 
#
# 1 0.029643 -0.003604 -0.004204 0.000000 0.000000 0.000000
# 2 -0.003604 0.007491 -0.004086 0.000000 0.000000 0.000000
# 3 -0.004204 -0.004086 0.012088 0.000000 0.000000 0.000000
# 4 0.000000 0.000000 0.000000 0.034188 0.000000 0.000000
# 5 0.000000 0.000000 0.000000 0.000000 0.838146 0.000000
# 6 0.000000 0.000000 0.000000 0.000000 0.000000 0.027803
#
#
# Mechanical properties :
#
#
# Convention : Reuss Voigt Hill
#
# Bulk Modulus (GPa) = 39.31540 69.43044 54.37292
# Shear Modulus (GPa) = 5.09359 27.55760 16.32560
#
# Velocity S-wave (km/s) = 1.59581 3.71184 2.85695
# Velocity P-wave (km/s) = 4.80121 7.28580 6.16987
#
# Compressibility (1/GPa) = 0.02543532
#
# Stress axis : x y z
#
# Youngs Moduli (GPa) = 33.73490 133.48608 82.72360
#
# Poissons Ratio (x) = 0.48107 0.34779
# Poissons Ratio (y) = 0.12158 0.33797
# Poissons Ratio (z) = 0.14183 0.54536
#
# Static dielectric constant tensor:
#      x y z
#    x 3.133640 0.000000 0.000000 
#    y 0.000000 4.117950 0.000000 
#    z 0.000000 0.000000 3.934330 
# 
# 
# High freq. dielectric constant tensor:
#      x y z
#    x 1.759310 0.000000 0.000000 
#    y 0.000000 1.805040 0.000000 
#    z 0.000000 0.000000 1.783620 
# 
# From -- ./inp_files/36069.got.cif
#   From: 2010.03.12/outbox.cif.g09.slc.cpg/sg65_19_cif.got.tgz:36069.got - 2010.04.10 20:52:16.
