data_PCOD8273176
_publ_section_title
;
Structure prediction by ZEFSAII (Michael W. Deem and Ramdas Pophale) SiO2 
 PCOD8273176
Probable space group: C M M M
;
_chemical_formula_sum "Si O2"
_cell_formula_units_Z 104
_cell_length_a 21.570156
_cell_length_b 8.884947
_cell_length_c 27.036557
_cell_angle_alpha 90.000000
_cell_angle_beta 90.000000
_cell_angle_gamma 90.000000
_cell_volume 5181.547845
_symmetry_space_group_name_H-M "C M M M"
_symmetry_group_IT_number 65
_symmetry_cell_setting 'orthorhombic'
loop_
_space_group_symop_operation_xyz
x,y,z
-x,-y,z
x,-y,-z
-x,y,-z
-x,-y,-z
x,y,-z
-x,y,z
x,-y,z
1/2+x,1/2+y,z
1/2-x,1/2-y,z
1/2+x,1/2-y,-z
1/2-x,1/2+y,-z
1/2-x,1/2-y,-z
1/2+x,1/2+y,-z
1/2-x,1/2+y,z
1/2+x,1/2-y,z
loop_
_atom_site_type_symbol
_atom_site_label
_atom_site_fract_x
_atom_site_fract_y
_atom_site_fract_z
Si Si1 0.382338 0.169716 0.283401
Si Si2 0.184814 0.676575 0.379767
Si Si3 0.500000 0.321866 0.854868
Si Si4 0.127063 0.178372 0.096302
Si Si5 0.318078 0.820864 0.000000
Si Si6 0.930977 0.321330 0.555997
Si Si7 0.000000 0.175415 0.256227
Si Si8 0.809710 0.327750 0.814501
O O1 0.329116 0.216973 0.322304
O O2 0.441359 0.276006 0.288683
O O3 0.361583 0.183750 0.226966
O O4 0.403170 0.000000 0.295812
O O5 0.192363 0.500000 0.388673
O O6 0.250000 0.750000 0.395894
O O7 0.126006 0.741717 0.410888
O O8 0.500000 0.500000 0.850275
O O9 0.559518 0.267570 0.885643
O O10 0.500000 0.251856 0.799319
O O11 0.175285 0.227043 0.138025
O O12 0.131116 0.000000 0.087257
O O13 0.142878 0.266566 0.046785
O O14 0.250000 0.750000 0.000000
O O15 0.311675 0.000000 0.000000
O O16 0.919791 0.265738 0.500000
O O17 0.930065 0.500000 0.558501
O O18 0.000000 0.265864 0.573864
O O19 0.000000 0.000000 0.249932
O O20 0.798014 0.500000 0.830379
O O21 0.750000 0.250000 0.790383
#
# Coordination Sequence:
#
# PCOD8273176 Si02
#       8
#    16  16   8  16   8  16   8  16
#     4  10  22  37  55  82 116 154 193 237 290 346
#     4  10  21  36  56  83 118 157 198 249 303 356
#     4   9  20  38  62  89 116 145 182 223 273 330
#     4  11  22  41  64  87 115 149 186 229 278 335
#     4  12  26  45  64  89 117 148 188 230 279 332
#     4   8  15  30  54  83 112 149 201 253 299 355
#     4  11  21  37  60  88 116 153 195 239 288 343
#     4  11  22  36  55  81 111 149 190 233 282 337
#
# _framework density 20.071223
#
# number of rings (size 3 to 8) (size 9 to 14) (size 15 to 20)
#    0.000    1.846    1.538    3.231    1.077    1.846 
#    0.000    3.077    0.000    0.000    0.000    1.077 
#    0.000    0.000    0.000    0.000    0.000    0.000 
#
# Total GULP energy -644669.593432 kJ/mol
# GULP energy per Si atom -12397.492181 kJ/mol
# Density = 2.002554 g / cm^3
# Si number density = 20.071223 Si / 1000 Ang^3
#
#
#
# Elastic Constant Matrix: (Units=GPa)
#
#
# Indices 1 2 3 4 5 6 
#
# 1 150.7342 45.6032 47.1288 0.0000 0.0000 0.0000
# 2 45.6032 72.4418 28.2861 0.0000 0.0000 0.0000
# 3 47.1288 28.2861 96.9856 0.0000 0.0000 0.0000
# 4 0.0000 0.0000 0.0000 14.3583 0.0000 0.0000
# 5 0.0000 0.0000 0.0000 0.0000 30.3918 0.0000
# 6 0.0000 0.0000 0.0000 0.0000 0.0000 32.9590
#
#
#
# Elastic Compliance Matrix: (Units=1/GPa)
#
#
# Indices 1 2 3 4 5 6 
#
# 1 0.008927 -0.004430 -0.003046 0.000000 0.000000 0.000000
# 2 -0.004430 0.017777 -0.003032 0.000000 0.000000 0.000000
# 3 -0.003046 -0.003032 0.012675 0.000000 0.000000 0.000000
# 4 0.000000 0.000000 0.000000 0.069646 0.000000 0.000000
# 5 0.000000 0.000000 0.000000 0.000000 0.032904 0.000000
# 6 0.000000 0.000000 0.000000 0.000000 0.000000 0.030341
#
#
# Mechanical properties :
#
#
# Convention : Reuss Voigt Hill
#
# Bulk Modulus (GPa) = 54.45714 62.46641 58.46177
# Shear Modulus (GPa) = 25.07443 28.81806 26.94624
#
# Velocity S-wave (km/s) = 3.53834 3.79329 3.66803
# Velocity P-wave (km/s) = 6.62450 7.09756 6.86511
#
# Compressibility (1/GPa) = 0.01836307
#
# Stress axis : x y z
#
# Youngs Moduli (GPa) = 112.02176 56.25259 78.89489
#
# Poissons Ratio (x) = 0.24922 0.24029
# Poissons Ratio (y) = 0.49629 0.23920
# Poissons Ratio (z) = 0.34119 0.17055
#
# Static dielectric constant tensor:
#      x y z
#    x 3.883800 0.000000 0.000000 
#    y 0.000000 3.391850 0.000000 
#    z 0.000000 0.000000 3.729120 
# 
# 
# High freq. dielectric constant tensor:
#      x y z
#    x 1.795710 0.000000 0.000000 
#    y 0.000000 1.756870 0.000000 
#    z 0.000000 0.000000 1.784180 
# 
# From -- ./inp_files/73400.got.cif
#   From: 2010.03.12/outbox.cif.g09.slc.cpg/sg65_37_cif.got.tgz:73400.got - 2010.04.10 20:52:16.
