data_PCOD8273758
_publ_section_title
;
Structure prediction by ZEFSAII (Michael W. Deem and Ramdas Pophale) SiO2 
 PCOD8273758
Probable space group: C M M M
;
_chemical_formula_sum "Si O2"
_cell_formula_units_Z 88
_cell_length_a 9.062343
_cell_length_b 26.261211
_cell_length_c 18.967680
_cell_angle_alpha 90.000000
_cell_angle_beta 90.000000
_cell_angle_gamma 90.000000
_cell_volume 4514.082156
_symmetry_space_group_name_H-M "C M M M"
_symmetry_group_IT_number 65
_symmetry_cell_setting 'orthorhombic'
loop_
_space_group_symop_operation_xyz
x,y,z
-x,-y,z
x,-y,-z
-x,y,-z
-x,-y,-z
x,y,-z
-x,y,z
x,-y,z
1/2+x,1/2+y,z
1/2-x,1/2-y,z
1/2+x,1/2-y,-z
1/2-x,1/2+y,-z
1/2-x,1/2-y,-z
1/2+x,1/2+y,-z
1/2-x,1/2+y,z
1/2+x,1/2-y,z
loop_
_atom_site_type_symbol
_atom_site_label
_atom_site_fract_x
_atom_site_fract_y
_atom_site_fract_z
Si Si1 0.335689 0.556646 0.292182
Si Si2 0.675530 0.598607 0.854192
Si Si3 0.675304 0.907098 0.422207
Si Si4 0.331792 0.000000 0.916675
Si Si5 0.660198 0.204277 0.417430
Si Si6 0.171847 0.697569 0.082957
O O1 0.500000 0.569377 0.318719
O O2 0.327200 0.500000 0.259716
O O3 0.289792 0.594635 0.229522
O O4 0.231069 0.557024 0.360322
O O5 0.500000 0.598490 0.868774
O O6 0.747762 0.550839 0.893205
O O7 0.747369 0.650989 0.879148
O O8 0.729464 0.925611 0.500000
O O9 0.500000 0.905673 0.422474
O O10 0.737806 0.850378 0.406045
O O11 0.500000 0.000000 0.886768
O O12 0.335869 0.000000 0.000000
O O13 0.642933 0.214869 0.500000
O O14 0.500000 0.204277 0.381158
O O15 0.750000 0.250000 0.380926
O O16 0.250000 0.750000 0.106658
O O17 0.000000 0.699323 0.104767
O O18 0.189919 0.689262 0.000000
#
# Coordination Sequence:
#
# PCOD8273758 Si02
#       6
#    16  16  16   8  16  16
#     4  10  22  40  57  77 108 145 187 235 290 348
#     4  11  22  39  60  84 118 158 198 242 293 350
#     4   9  19  35  54  79 108 139 182 234 286 345
#     4  11  23  37  57  89 122 151 190 239 287 342
#     4   8  14  26  45  70 100 129 160 205 260 318
#     4  10  21  38  61  91 125 160 200 244 290 344
#
# _framework density 19.49455
#
# number of rings (size 3 to 8) (size 9 to 14) (size 15 to 20)
#    0.000    2.273    0.909    3.000    0.000    7.273 
#    0.000    4.545    0.000    2.182    0.000    0.000 
#    0.000    0.000    0.000    0.000    0.000    0.000 
#
# Total GULP energy -545358.272201 kJ/mol
# GULP energy per Si atom -12394.506186 kJ/mol
# Density = 1.945018 g / cm^3
# Si number density = 19.494550 Si / 1000 Ang^3
#
#
#
# Elastic Constant Matrix: (Units=GPa)
#
#
# Indices 1 2 3 4 5 6 
#
# 1 107.8218 61.3337 49.5147 0.0000 0.0000 0.0000
# 2 61.3337 130.4861 52.4962 0.0000 0.0000 0.0000
# 3 49.5147 52.4962 88.6401 0.0000 0.0000 0.0000
# 4 0.0000 0.0000 0.0000 24.9687 0.0000 0.0000
# 5 0.0000 0.0000 0.0000 0.0000 26.9276 0.0000
# 6 0.0000 0.0000 0.0000 0.0000 0.0000 36.8975
#
#
#
# Elastic Compliance Matrix: (Units=1/GPa)
#
#
# Indices 1 2 3 4 5 6 
#
# 1 0.014315 -0.004610 -0.005266 0.000000 0.000000 0.000000
# 2 -0.004610 0.011545 -0.004262 0.000000 0.000000 0.000000
# 3 -0.005266 -0.004262 0.016748 0.000000 0.000000 0.000000
# 4 0.000000 0.000000 0.000000 0.040050 0.000000 0.000000
# 5 0.000000 0.000000 0.000000 0.000000 0.037137 0.000000
# 6 0.000000 0.000000 0.000000 0.000000 0.000000 0.027102
#
#
# Mechanical properties :
#
#
# Convention : Reuss Voigt Hill
#
# Bulk Modulus (GPa) = 69.77969 72.62634 71.20302
# Shear Modulus (GPa) = 27.78514 28.66565 28.22540
#
# Velocity S-wave (km/s) = 3.77938 3.83880 3.80920
# Velocity P-wave (km/s) = 7.41061 7.54878 7.48001
#
# Compressibility (1/GPa) = 0.01433082
#
# Stress axis : x y z
#
# Youngs Moduli (GPa) = 69.85458 86.61449 59.70940
#
# Poissons Ratio (x) = 0.39930 0.31445
# Poissons Ratio (y) = 0.32204 0.25451
# Poissons Ratio (z) = 0.36788 0.36919
#
# Static dielectric constant tensor:
#      x y z
#    x 3.883550 0.000000 0.000000 
#    y 0.000000 3.708850 0.000000 
#    z 0.000000 0.000000 3.334810 
# 
# 
# High freq. dielectric constant tensor:
#      x y z
#    x 1.760770 0.000000 0.000000 
#    y 0.000000 1.766980 0.000000 
#    z 0.000000 0.000000 1.737090 
# 
# From -- ./inp_files/60148.got.cif
#   From: 2010.03.12/outbox.cif.g09.slc.cpg/sg65_31_cif.got.tgz:60148.got - 2010.04.10 20:52:16.
