data_PCOD8273129
_publ_section_title
;
Structure prediction by ZEFSAII (Michael W. Deem and Ramdas Pophale) SiO2 
 PCOD8273129
Probable space group: C M M M
;
_chemical_formula_sum "Si O2"
_cell_formula_units_Z 80
_cell_length_a 9.738006
_cell_length_b 30.773880
_cell_length_c 14.247027
_cell_angle_alpha 90.000000
_cell_angle_beta 90.000000
_cell_angle_gamma 90.000000
_cell_volume 4269.495313
_symmetry_space_group_name_H-M "C M M M"
_symmetry_group_IT_number 65
_symmetry_cell_setting 'orthorhombic'
loop_
_space_group_symop_operation_xyz
x,y,z
-x,-y,z
x,-y,-z
-x,y,-z
-x,-y,-z
x,y,-z
-x,y,z
x,-y,z
1/2+x,1/2+y,z
1/2-x,1/2-y,z
1/2+x,1/2-y,-z
1/2-x,1/2+y,-z
1/2-x,1/2-y,-z
1/2+x,1/2+y,-z
1/2-x,1/2+y,z
1/2+x,1/2-y,z
loop_
_atom_site_type_symbol
_atom_site_label
_atom_site_fract_x
_atom_site_fract_y
_atom_site_fract_z
Si Si1 0.156772 0.409845 0.395969
Si Si2 0.157399 0.789156 0.204818
Si Si3 0.658536 0.950884 0.794925
Si Si4 0.155752 0.828453 0.604028
Si Si5 0.658212 0.621211 0.109865
O O1 0.192153 0.428609 0.500000
O O2 0.184494 0.446015 0.316995
O O3 0.248263 0.368605 0.371435
O O4 0.000000 0.393834 0.392615
O O5 0.250000 0.750000 0.165407
O O6 0.177719 0.791579 0.317611
O O7 0.206639 0.834250 0.158835
O O8 0.000000 0.779372 0.177564
O O9 0.500000 0.941039 0.819125
O O10 0.751733 0.918731 0.854552
O O11 0.697626 0.000000 0.822675
O O12 0.188491 0.809447 0.500000
O O13 0.000000 0.845882 0.609165
O O14 0.500000 0.611440 0.134963
O O15 0.680866 0.626830 0.000000
#
# Coordination Sequence:
#
# PCOD8273129 Si02
#       5
#    16  16  16  16  16
#     4   9  17  30  51  79 110 145 182 218 260 314
#     4  10  21  36  55  81 110 141 178 221 269 324
#     4  10  21  36  56  84 115 145 180 223 271 323
#     4   9  17  31  52  77 107 143 180 219 264 314
#     4  10  22  41  61  80 106 141 182 229 279 328
#
# _framework density 18.737577999999999
#
# number of rings (size 3 to 8) (size 9 to 14) (size 15 to 20)
#    0.000    2.400    2.000    0.000    0.000    4.000 
#    0.000    4.000    0.000    0.000    0.000    4.200 
#    0.000    0.000    0.000    0.000    0.000    0.000 
#
# Total GULP energy -495905.832828 kJ/mol
# GULP energy per Si atom -12397.645821 kJ/mol
# Density = 1.869493 g / cm^3
# Si number density = 18.737578 Si / 1000 Ang^3
#
#
#
# Elastic Constant Matrix: (Units=GPa)
#
#
# Indices 1 2 3 4 5 6 
#
# 1 73.7724 64.9942 36.4848 0.0000 0.0000 0.0000
# 2 64.9942 121.1572 45.5123 0.0000 0.0000 0.0000
# 3 36.4848 45.5123 83.2444 0.0000 0.0000 0.0000
# 4 0.0000 0.0000 0.0000 12.4338 0.0000 0.0000
# 5 0.0000 0.0000 0.0000 0.0000 25.5654 0.0000
# 6 0.0000 0.0000 0.0000 0.0000 0.0000 33.4516
#
#
#
# Elastic Compliance Matrix: (Units=1/GPa)
#
#
# Indices 1 2 3 4 5 6 
#
# 1 0.027245 -0.012748 -0.004971 0.000000 0.000000 0.000000
# 2 -0.012748 0.016352 -0.003353 0.000000 0.000000 0.000000
# 3 -0.004971 -0.003353 0.016025 0.000000 0.000000 0.000000
# 4 0.000000 0.000000 0.000000 0.080426 0.000000 0.000000
# 5 0.000000 0.000000 0.000000 0.000000 0.039115 0.000000
# 6 0.000000 0.000000 0.000000 0.000000 0.000000 0.029894
#
#
# Mechanical properties :
#
#
# Convention : Reuss Voigt Hill
#
# Bulk Modulus (GPa) = 57.21712 63.57296 60.39504
# Shear Modulus (GPa) = 19.45326 23.03567 21.24446
#
# Velocity S-wave (km/s) = 3.22560 3.51006 3.37083
# Velocity P-wave (km/s) = 6.66896 7.10134 6.88854
#
# Compressibility (1/GPa) = 0.01747729
#
# Stress axis : x y z
#
# Youngs Moduli (GPa) = 36.70419 61.15549 62.40336
#
# Poissons Ratio (x) = 0.77960 0.31023
# Poissons Ratio (y) = 0.46790 0.20923
# Poissons Ratio (z) = 0.18247 0.20504
#
# Static dielectric constant tensor:
#      x y z
#    x 3.456850 0.000000 0.000000 
#    y 0.000000 3.173110 0.000000 
#    z 0.000000 0.000000 3.627130 
# 
# 
# High freq. dielectric constant tensor:
#      x y z
#    x 1.726180 0.000000 0.000000 
#    y 0.000000 1.704660 0.000000 
#    z 0.000000 0.000000 1.737850 
# 
# From -- ./inp_files/38283.got.cif
#   From: 2010.03.12/outbox.cif.g09.slc.cpg/sg65_20_cif.got.tgz:38283.got - 2010.04.10 20:52:16.
