data_PCOD8273414
_publ_section_title
;
Structure prediction by ZEFSAII (Michael W. Deem and Ramdas Pophale) SiO2 
 PCOD8273414
Probable space group: C M M M
;
_chemical_formula_sum "Si O2"
_cell_formula_units_Z 104
_cell_length_a 9.145194
_cell_length_b 20.577023
_cell_length_c 30.256747
_cell_angle_alpha 90.000000
_cell_angle_beta 90.000000
_cell_angle_gamma 90.000000
_cell_volume 5693.740891
_symmetry_space_group_name_H-M "C M M M"
_symmetry_group_IT_number 65
_symmetry_cell_setting 'orthorhombic'
loop_
_space_group_symop_operation_xyz
x,y,z
-x,-y,z
x,-y,-z
-x,y,-z
-x,-y,-z
x,y,-z
-x,y,z
x,-y,z
1/2+x,1/2+y,z
1/2-x,1/2-y,z
1/2+x,1/2-y,-z
1/2-x,1/2+y,-z
1/2-x,1/2-y,-z
1/2+x,1/2+y,-z
1/2-x,1/2+y,z
1/2+x,1/2-y,z
loop_
_atom_site_type_symbol
_atom_site_label
_atom_site_fract_x
_atom_site_fract_y
_atom_site_fract_z
Si Si1 0.169602 0.425920 0.804414
Si Si2 0.336800 0.000000 0.948091
Si Si3 0.672467 0.187784 0.128804
Si Si4 0.335851 0.077640 0.367507
Si Si5 0.336233 0.577159 0.282886
Si Si6 0.671829 0.370838 0.051356
Si Si7 0.164359 0.922737 0.451377
O O1 0.213458 0.500000 0.817854
O O2 0.208425 0.377570 0.844186
O O3 0.256392 0.400763 0.761724
O O4 0.000000 0.422609 0.791955
O O5 0.244883 0.938065 0.933251
O O6 0.500000 0.000000 0.925780
O O7 0.357811 0.000000 0.000000
O O8 0.500000 0.199397 0.123952
O O9 0.750000 0.250000 0.152078
O O10 0.747847 0.183452 0.080497
O O11 0.500000 0.104082 0.364141
O O12 0.247008 0.105411 0.325628
O O13 0.266892 0.105717 0.412837
O O14 0.332634 0.000000 0.367559
O O15 0.500000 0.605430 0.282645
O O16 0.337737 0.500000 0.285584
O O17 0.500000 0.373581 0.061545
O O18 0.701518 0.355650 0.000000
O O19 0.220606 0.900172 0.500000
O O20 0.000000 0.897187 0.443504
O O21 0.165032 0.000000 0.449157
#
# Coordination Sequence:
#
# PCOD8273414 Si02
#       7
#    16   8  16  16  16  16  16
#     4   9  19  36  56  77 100 128 164 207 254 303
#     4   9  17  31  53  81 111 141 173 209 251 297
#     4  11  24  40  59  81 109 142 174 211 256 309
#     4   9  15  21  31  48  72 103 139 184 235 285
#     4   9  16  26  42  64  87 112 146 191 242 293
#     4  10  21  37  57  82 111 141 175 215 255 297
#     4   8  13  20  28  39  60  94 137 184 232 282
#
# _framework density 18.265673
#
# number of rings (size 3 to 8) (size 9 to 14) (size 15 to 20)
#    0.000    2.692    0.000    2.538    1.077    7.385 
#    0.000    1.538    0.000    0.000    0.000    0.000 
#    0.000    0.000    0.000    0.000    0.000    0.769 
#
# Total GULP energy -644611.379553 kJ/mol
# GULP energy per Si atom -12396.372684 kJ/mol
# Density = 1.822410 g / cm^3
# Si number density = 18.265673 Si / 1000 Ang^3
#
#
#
# Elastic Constant Matrix: (Units=GPa)
#
#
# Indices 1 2 3 4 5 6 
#
# 1 135.8418 34.8202 78.6157 0.0000 0.0000 0.0000
# 2 34.8202 52.3796 35.3428 0.0000 0.0000 0.0000
# 3 78.6157 35.3428 124.3373 0.0000 0.0000 0.0000
# 4 0.0000 0.0000 0.0000 3.0611 0.0000 0.0000
# 5 0.0000 0.0000 0.0000 0.0000 35.9161 0.0000
# 6 0.0000 0.0000 0.0000 0.0000 0.0000 19.6721
#
#
#
# Elastic Compliance Matrix: (Units=1/GPa)
#
#
# Indices 1 2 3 4 5 6 
#
# 1 0.012127 -0.003573 -0.006652 0.000000 0.000000 0.000000
# 2 -0.003573 0.024675 -0.004754 0.000000 0.000000 0.000000
# 3 -0.006652 -0.004754 0.013600 0.000000 0.000000 0.000000
# 4 0.000000 0.000000 0.000000 0.326681 0.000000 0.000000
# 5 0.000000 0.000000 0.000000 0.000000 0.027843 0.000000
# 6 0.000000 0.000000 0.000000 0.000000 0.000000 0.050833
#
#
# Mechanical properties :
#
#
# Convention : Reuss Voigt Hill
#
# Bulk Modulus (GPa) = 48.91789 67.79067 58.35428
# Shear Modulus (GPa) = 10.15160 22.64852 16.40006
#
# Velocity S-wave (km/s) = 2.36004 3.52511 2.99969
# Velocity P-wave (km/s) = 5.85371 7.33231 6.63433
#
# Compressibility (1/GPa) = 0.02044242
#
# Stress axis : x y z
#
# Youngs Moduli (GPa) = 82.45932 40.52702 73.52916
#
# Poissons Ratio (x) = 0.14482 0.48912
# Poissons Ratio (y) = 0.29465 0.34959
# Poissons Ratio (z) = 0.54852 0.19269
#
# Static dielectric constant tensor:
#      x y z
#    x 3.541590 0.000000 0.000000 
#    y 0.000000 2.895180 0.000000 
#    z 0.000000 0.000000 3.503330 
# 
# 
# High freq. dielectric constant tensor:
#      x y z
#    x 1.719920 0.000000 0.000000 
#    y 0.000000 1.639840 0.000000 
#    z 0.000000 0.000000 1.713070 
# 
# From -- ./inp_files/76910.got.cif
#   From: 2010.03.12/outbox.cif.g09.slc.cpg/sg65_39_cif.got.tgz:76910.got - 2010.04.10 20:52:16.
