data_PCOD8273095
_publ_section_title
;
Structure prediction by ZEFSAII (Michael W. Deem and Ramdas Pophale) SiO2 
 PCOD8273095
Probable space group: C M M M
;
_chemical_formula_sum "Si O2"
_cell_formula_units_Z 88
_cell_length_a 20.331371
_cell_length_b 10.206685
_cell_length_c 21.712238
_cell_angle_alpha 90.000000
_cell_angle_beta 90.000000
_cell_angle_gamma 90.000000
_cell_volume 4505.634597
_symmetry_space_group_name_H-M "C M M M"
_symmetry_group_IT_number 65
_symmetry_cell_setting 'orthorhombic'
loop_
_space_group_symop_operation_xyz
x,y,z
-x,-y,z
x,-y,-z
-x,y,-z
-x,-y,-z
x,y,-z
-x,y,z
x,-y,z
1/2+x,1/2+y,z
1/2-x,1/2-y,z
1/2+x,1/2-y,-z
1/2-x,1/2+y,-z
1/2-x,1/2-y,-z
1/2+x,1/2+y,-z
1/2-x,1/2+y,z
1/2+x,1/2-y,z
loop_
_atom_site_type_symbol
_atom_site_label
_atom_site_fract_x
_atom_site_fract_y
_atom_site_fract_z
Si Si1 0.750000 0.750000 0.327874
Si Si2 0.424191 0.849672 0.161560
Si Si3 0.376932 0.649092 0.264267
Si Si4 0.426186 0.645157 0.603842
Si Si5 0.329283 0.140636 0.566803
Si Si6 0.806184 0.649807 0.928389
O O1 0.697856 0.680587 0.283526
O O2 0.719631 0.855627 0.375070
O O3 0.500000 0.823346 0.141679
O O4 0.403158 0.751079 0.214771
O O5 0.375897 0.822837 0.104227
O O6 0.416267 0.000000 0.184702
O O7 0.380120 0.500000 0.238570
O O8 0.423649 0.667165 0.322906
O O9 0.500000 0.662712 0.580827
O O10 0.399708 0.500000 0.588230
O O11 0.382811 0.746563 0.567231
O O12 0.292664 0.150825 0.500000
O O13 0.365232 0.000000 0.571559
O O14 0.782539 0.500000 0.916312
O O15 0.750000 0.750000 0.903570
O O16 0.818922 0.675713 0.000000
#
# Coordination Sequence:
#
# PCOD8273095 Si02
#       6
#     8  16  16  16  16  16
#     4  10  21  38  56  78 105 142 182 224 278 344
#     4  10  22  38  57  85 119 154 192 236 286 338
#     4  10  21  36  56  80 108 143 185 232 279 333
#     4   9  19  36  55  75 103 141 181 219 268 332
#     4  10  21  36  55  79 105 134 173 224 278 331
#     4   9  19  37  60  86 117 155 197 239 282 331
#
# _framework density 19.531101
#
# number of rings (size 3 to 8) (size 9 to 14) (size 15 to 20)
#    0.000    2.364    0.000    1.364    1.273    7.636 
#    0.000    3.636    0.000    0.000    0.000    3.818 
#    0.000    0.000    0.000    0.000    0.000    0.000 
#
# Total GULP energy -545296.044714 kJ/mol
# GULP energy per Si atom -12393.091925 kJ/mol
# Density = 1.948665 g / cm^3
# Si number density = 19.531101 Si / 1000 Ang^3
#
#
#
# Elastic Constant Matrix: (Units=GPa)
#
#
# Indices 1 2 3 4 5 6 
#
# 1 123.4694 70.5021 45.6726 0.0000 0.0000 0.0000
# 2 70.5021 145.1873 56.1637 0.0000 0.0000 0.0000
# 3 45.6726 56.1637 70.6646 0.0000 0.0000 0.0000
# 4 0.0000 0.0000 0.0000 28.3901 0.0000 0.0000
# 5 0.0000 0.0000 0.0000 0.0000 896.7403 0.0000
# 6 0.0000 0.0000 0.0000 0.0000 0.0000 20.7879
#
#
#
# Elastic Compliance Matrix: (Units=1/GPa)
#
#
# Indices 1 2 3 4 5 6 
#
# 1 0.012148 -0.004132 -0.004567 0.000000 0.000000 0.000000
# 2 -0.004132 0.011351 -0.006351 0.000000 0.000000 0.000000
# 3 -0.004567 -0.006351 0.022151 0.000000 0.000000 0.000000
# 4 0.000000 0.000000 0.000000 0.035224 0.000000 0.000000
# 5 0.000000 0.000000 0.000000 0.000000 0.001115 0.000000
# 6 0.000000 0.000000 0.000000 0.000000 0.000000 0.048105
#
#
# Mechanical properties :
#
#
# Convention : Reuss Voigt Hill
#
# Bulk Modulus (GPa) = 64.31244 75.99977 70.15611
# Shear Modulus (GPa) = 30.23372 200.31587 115.27479
#
# Velocity S-wave (km/s) = 3.93870 10.13830 7.69086
# Velocity P-wave (km/s) = 7.32695 13.26814 10.71746
#
# Compressibility (1/GPa) = 0.01554909
#
# Stress axis : x y z
#
# Youngs Moduli (GPa) = 82.31612 88.09788 45.14451
#
# Poissons Ratio (x) = 0.36404 0.20620
# Poissons Ratio (y) = 0.34015 0.28671
# Poissons Ratio (z) = 0.37598 0.55950
#
# Static dielectric constant tensor:
#      x y z
#    x 3.623720 0.000000 0.000000 
#    y 0.000000 3.787460 0.000000 
#    z 0.000000 0.000000 3.426810 
# 
# 
# High freq. dielectric constant tensor:
#      x y z
#    x 1.755440 0.000000 0.000000 
#    y 0.000000 1.773390 0.000000 
#    z 0.000000 0.000000 1.750460 
# 
# From -- ./inp_files/70978.got.cif
#   From: 2010.03.12/outbox.cif.g09.slc.cpg/sg65_36_cif.got.tgz:70978.got - 2010.04.10 20:52:16.
