data_PCOD8273177
_publ_section_title
;
Structure prediction by ZEFSAII (Michael W. Deem and Ramdas Pophale) SiO2 
 PCOD8273177
Probable space group: C M M M
;
_chemical_formula_sum "Si O2"
_cell_formula_units_Z 88
_cell_length_a 17.824775
_cell_length_b 27.046668
_cell_length_c 9.252216
_cell_angle_alpha 90.000000
_cell_angle_beta 90.000000
_cell_angle_gamma 90.000000
_cell_volume 4460.500473
_symmetry_space_group_name_H-M "C M M M"
_symmetry_group_IT_number 65
_symmetry_cell_setting 'orthorhombic'
loop_
_space_group_symop_operation_xyz
x,y,z
-x,-y,z
x,-y,-z
-x,y,-z
-x,-y,-z
x,y,-z
-x,y,z
x,-y,z
1/2+x,1/2+y,z
1/2-x,1/2-y,z
1/2+x,1/2-y,-z
1/2-x,1/2+y,-z
1/2-x,1/2-y,-z
1/2+x,1/2+y,-z
1/2-x,1/2+y,z
1/2+x,1/2-y,z
loop_
_atom_site_type_symbol
_atom_site_label
_atom_site_fract_x
_atom_site_fract_y
_atom_site_fract_z
Si Si1 0.087813 0.299095 0.342701
Si Si2 0.783052 0.555298 0.159844
Si Si3 0.415754 0.091484 0.330973
Si Si4 0.173844 0.224752 0.170204
Si Si5 0.360944 0.613305 0.827076
Si Si6 0.000000 0.059113 0.326958
O O1 0.121899 0.284187 0.500000
O O2 0.115550 0.353532 0.296921
O O3 0.106790 0.259636 0.220906
O O4 0.000000 0.303026 0.359019
O O5 0.752004 0.500000 0.153763
O O6 0.857952 0.555032 0.255008
O O7 0.715504 0.587385 0.223787
O O8 0.803783 0.574929 0.000000
O O9 0.415740 0.080535 0.500000
O O10 0.500000 0.083152 0.269657
O O11 0.250000 0.250000 0.234398
O O12 0.152379 0.169906 0.224081
O O13 0.179126 0.224277 0.000000
O O14 0.428295 0.586779 0.741840
O O15 0.375360 0.609027 0.000000
O O16 0.000000 0.066598 0.500000
O O17 0.000000 0.000000 0.289643
#
# Coordination Sequence:
#
# PCOD8273177 Si02
#       6
#    16  16  16  16  16   8
#     4   9  19  35  54  77 108 145 182 219 264 322
#     4  10  21  37  58  83 110 144 189 239 291 345
#     4   9  19  36  56  80 113 153 193 231 277 339
#     4  10  21  36  56  84 115 146 185 231 277 335
#     4  10  22  40  62  86 116 154 195 239 296 360
#     4  11  25  43  63  89 119 153 201 259 310 357
#
# _framework density 19.728729000000001
#
# number of rings (size 3 to 8) (size 9 to 14) (size 15 to 20)
#    0.000    2.273    0.000    3.000    1.273    6.909 
#    0.000    3.636    0.000    0.000    0.000    0.000 
#    0.000    0.000    0.000    0.000    0.000    0.000 
#
# Total GULP energy -545331.857689 kJ/mol
# GULP energy per Si atom -12393.905857 kJ/mol
# Density = 1.968383 g / cm^3
# Si number density = 19.728729 Si / 1000 Ang^3
#
#
#
# Elastic Constant Matrix: (Units=GPa)
#
#
# Indices 1 2 3 4 5 6 
#
# 1 102.8621 46.2718 41.6230 0.0000 0.0000 0.0000
# 2 46.2718 102.8886 30.5872 0.0000 0.0000 0.0000
# 3 41.6230 30.5872 37.7150 0.0000 0.0000 0.0000
# 4 0.0000 0.0000 0.0000 14.5841 0.0000 0.0000
# 5 0.0000 0.0000 0.0000 0.0000 21.9864 0.0000
# 6 0.0000 0.0000 0.0000 0.0000 0.0000 33.9808
#
#
#
# Elastic Compliance Matrix: (Units=1/GPa)
#
#
# Indices 1 2 3 4 5 6 
#
# 1 0.018208 -0.002918 -0.017728 0.000000 0.000000 0.000000
# 2 -0.002918 0.013275 -0.007545 0.000000 0.000000 0.000000
# 3 -0.017728 -0.007545 0.052199 0.000000 0.000000 0.000000
# 4 0.000000 0.000000 0.000000 0.068568 0.000000 0.000000
# 5 0.000000 0.000000 0.000000 0.000000 0.045483 0.000000
# 6 0.000000 0.000000 0.000000 0.000000 0.000000 0.029428
#
#
# Mechanical properties :
#
#
# Convention : Reuss Voigt Hill
#
# Bulk Modulus (GPa) = 36.63197 53.38109 45.00653
# Shear Modulus (GPa) = 17.08566 22.44251 19.76408
#
# Velocity S-wave (km/s) = 2.94603 3.37642 3.16854
# Velocity P-wave (km/s) = 5.49366 6.50512 6.02067
#
# Compressibility (1/GPa) = 0.02729856
#
# Stress axis : x y z
#
# Youngs Moduli (GPa) = 54.92035 75.33062 19.15758
#
# Poissons Ratio (x) = 0.21985 0.33962
# Poissons Ratio (y) = 0.16028 0.14455
# Poissons Ratio (z) = 0.97363 0.56838
#
# Static dielectric constant tensor:
#      x y z
#    x 3.580190 0.000000 0.000000 
#    y 0.000000 3.888120 0.000000 
#    z 0.000000 0.000000 3.443450 
# 
# 
# High freq. dielectric constant tensor:
#      x y z
#    x 1.770020 0.000000 0.000000 
#    y 0.000000 1.780680 0.000000 
#    z 0.000000 0.000000 1.754760 
# 
# From -- ./inp_files/10117.got.cif
#   From: 2010.03.12/outbox.cif.g09.slc.cpg/sg65_6_cif.got.tgz:10117.got - 2010.04.10 20:52:16.
