data_PCOD8273976
_publ_section_title
;
Structure prediction by ZEFSAII (Michael W. Deem and Ramdas Pophale) SiO2 
 PCOD8273976
Probable space group: C M M M
;
_chemical_formula_sum "Si O2"
_cell_formula_units_Z 64
_cell_length_a 18.135189
_cell_length_b 11.949456
_cell_length_c 14.121605
_cell_angle_alpha 90.000000
_cell_angle_beta 90.000000
_cell_angle_gamma 90.000000
_cell_volume 3060.231492
_symmetry_space_group_name_H-M "C M M M"
_symmetry_group_IT_number 65
_symmetry_cell_setting 'orthorhombic'
loop_
_space_group_symop_operation_xyz
x,y,z
-x,-y,z
x,-y,-z
-x,y,-z
-x,-y,-z
x,y,-z
-x,y,z
x,-y,z
1/2+x,1/2+y,z
1/2-x,1/2-y,z
1/2+x,1/2-y,-z
1/2-x,1/2+y,-z
1/2-x,1/2-y,-z
1/2+x,1/2+y,-z
1/2-x,1/2+y,z
1/2+x,1/2-y,z
loop_
_atom_site_type_symbol
_atom_site_label
_atom_site_fract_x
_atom_site_fract_y
_atom_site_fract_z
Si Si1 0.913220 0.874078 0.740761
Si Si2 0.892293 0.500000 0.101777
Si Si3 0.582888 0.000000 0.311128
Si Si4 0.169572 0.261223 0.894371
Si Si5 0.333985 0.217218 0.389188
O O1 0.890129 0.801709 0.831271
O O2 0.881999 0.822835 0.643659
O O3 0.000000 0.871207 0.734238
O O4 0.883275 0.000000 0.751627
O O5 0.938106 0.500000 0.199189
O O6 0.841387 0.392550 0.102448
O O7 0.937632 0.500000 0.000000
O O8 0.633272 0.892864 0.337393
O O9 0.500000 0.000000 0.359565
O O10 0.250000 0.250000 0.847930
O O11 0.166180 0.208895 0.000000
O O12 0.343044 0.197245 0.500000
O O13 0.250000 0.250000 0.362414
#
# Coordination Sequence:
#
# PCOD8273976 Si02
#       5
#    16   8   8  16  16
#     4  11  25  42  64  94 127 169 215 263 327 398
#     4  10  22  38  63 100 132 169 218 263 325 394
#     4  12  25  43  72 105 137 176 221 280 343 398
#     4  10  22  39  63  93 128 170 217 269 324 389
#     4  11  26  45  69  98 129 170 221 275 335 399
#
# _framework density 20.913451999999999
#
# number of rings (size 3 to 8) (size 9 to 14) (size 15 to 20)
#    0.000    1.250    2.500    1.875    3.500    4.250 
#    0.000    5.000    0.000    0.000    0.000    0.000 
#    0.000    0.000    0.000    0.000    0.000    0.000 
#
# Total GULP energy -396522.119467 kJ/mol
# GULP energy per Si atom -12391.316233 kJ/mol
# Density = 2.086585 g / cm^3
# Si number density = 20.913452 Si / 1000 Ang^3
#
#
#
# Elastic Constant Matrix: (Units=GPa)
#
#
# Indices 1 2 3 4 5 6 
#
# 1 116.9797 66.1996 33.9981 0.0000 0.0000 0.0000
# 2 66.1996 161.0482 42.7970 0.0000 0.0000 0.0000
# 3 33.9981 42.7970 130.5570 0.0000 0.0000 0.0000
# 4 0.0000 0.0000 0.0000 -33.8666 0.0000 0.0000
# 5 0.0000 0.0000 0.0000 0.0000 96.2956 0.0000
# 6 0.0000 0.0000 0.0000 0.0000 0.0000 20.8261
#
#
#
# Elastic Compliance Matrix: (Units=1/GPa)
#
#
# Indices 1 2 3 4 5 6 
#
# 1 0.011427 -0.004279 -0.001573 0.000000 0.000000 0.000000
# 2 -0.004279 0.008404 -0.001641 0.000000 0.000000 0.000000
# 3 -0.001573 -0.001641 0.008607 0.000000 0.000000 0.000000
# 4 0.000000 0.000000 0.000000 -0.029528 0.000000 0.000000
# 5 0.000000 0.000000 0.000000 0.000000 0.010385 0.000000
# 6 0.000000 0.000000 0.000000 0.000000 0.000000 0.048017
#
#
# Mechanical properties :
#
#
# Convention : Reuss Voigt Hill
#
# Bulk Modulus (GPa) = 74.33397 77.17492 75.75444
# Shear Modulus (GPa) = 65.11917 34.35703 49.73810
#
# Velocity S-wave (km/s) = 5.58615 4.05757 4.88205
# Velocity P-wave (km/s) = 8.78792 7.67685 8.25111
#
# Compressibility (1/GPa) = 0.01345280
#
# Stress axis : x y z
#
# Youngs Moduli (GPa) = 87.50961 118.98676 116.18570
#
# Poissons Ratio (x) = 0.50917 0.18276
# Poissons Ratio (y) = 0.37447 0.19061
# Poissons Ratio (z) = 0.13765 0.19521
#
# Static dielectric constant tensor:
#      x y z
#    x 3.710320 0.000000 0.000000 
#    y 0.000000 3.978870 0.000000 
#    z 0.000000 0.000000 4.087920 
# 
# 
# High freq. dielectric constant tensor:
#      x y z
#    x 1.822220 0.000000 0.000000 
#    y 0.000000 1.828210 0.000000 
#    z 0.000000 0.000000 1.831970 
# 
# From -- ./inp_files/41914.got.cif
#   From: 2010.03.12/outbox.cif.g09.slc.cpg/sg65_21_cif.got.tgz:41914.got - 2010.04.10 20:52:16.
