data_PCOD8273126
_publ_section_title
;
Structure prediction by ZEFSAII (Michael W. Deem and Ramdas Pophale) SiO2 
 PCOD8273126
Probable space group: C M M M
;
_chemical_formula_sum "Si O2"
_cell_formula_units_Z 64
_cell_length_a 7.706148
_cell_length_b 18.740551
_cell_length_c 21.695075
_cell_angle_alpha 90.000000
_cell_angle_beta 90.000000
_cell_angle_gamma 90.000000
_cell_volume 3133.147617
_symmetry_space_group_name_H-M "C M M M"
_symmetry_group_IT_number 65
_symmetry_cell_setting 'orthorhombic'
loop_
_space_group_symop_operation_xyz
x,y,z
-x,-y,z
x,-y,-z
-x,y,-z
-x,-y,-z
x,y,-z
-x,y,z
x,-y,z
1/2+x,1/2+y,z
1/2-x,1/2-y,z
1/2+x,1/2-y,-z
1/2-x,1/2+y,-z
1/2-x,1/2-y,-z
1/2+x,1/2+y,-z
1/2-x,1/2+y,z
1/2+x,1/2-y,z
loop_
_atom_site_type_symbol
_atom_site_label
_atom_site_fract_x
_atom_site_fract_y
_atom_site_fract_z
Si Si1 0.295503 0.832265 0.000000
Si Si2 0.801769 0.421618 0.112597
Si Si3 0.704449 0.329834 0.636397
Si Si4 0.500000 0.082490 0.427535
Si Si5 0.701128 0.671328 0.221984
O O1 0.250000 0.750000 0.000000
O O2 0.214623 0.870779 0.060695
O O3 0.500000 0.839355 0.000000
O O4 0.711630 0.500000 0.113251
O O5 0.794371 0.386911 0.180115
O O6 0.000000 0.432035 0.094513
O O7 0.500000 0.345796 0.625561
O O8 0.750000 0.250000 0.614560
O O9 0.822451 0.383726 0.598032
O O10 0.759580 0.339142 0.707567
O O11 0.500000 0.093957 0.500000
O O12 0.500000 0.000000 0.408808
O O13 0.500000 0.658713 0.214362
O O14 0.750000 0.750000 0.198572
#
# Coordination Sequence:
#
# PCOD8273126 Si02
#       5
#     8  16  16   8  16
#     4  10  21  37  55  77 107 144 195 244 294 352
#     4  10  21  36  55  80 112 152 192 237 295 356
#     4  10  21  41  67  96 128 166 216 267 314 371
#     4  11  26  44  64  96 135 172 212 260 318 382
#     4  10  21  36  59  87 117 150 193 245 294 352
#
# _framework density 20.426742999999998
#
# number of rings (size 3 to 8) (size 9 to 14) (size 15 to 20)
#    0.000    1.875    1.250    1.875    3.500    7.500 
#    0.000    3.750    0.000    2.250    0.000    0.000 
#    0.000    0.000    0.000    0.000    0.000    0.000 
#
# Total GULP energy -396776.845151 kJ/mol
# GULP energy per Si atom -12399.276411 kJ/mol
# Density = 2.038025 g / cm^3
# Si number density = 20.426743 Si / 1000 Ang^3
#
#
#
# Elastic Constant Matrix: (Units=GPa)
#
#
# Indices 1 2 3 4 5 6 
#
# 1 76.2145 43.6992 34.8401 0.0000 0.0000 0.0000
# 2 43.6992 196.1246 90.8155 0.0000 0.0000 0.0000
# 3 34.8401 90.8155 103.9886 0.0000 0.0000 0.0000
# 4 0.0000 0.0000 0.0000 36.0944 0.0000 0.0000
# 5 0.0000 0.0000 0.0000 0.0000 18.6206 0.0000
# 6 0.0000 0.0000 0.0000 0.0000 0.0000 26.6730
#
#
#
# Elastic Compliance Matrix: (Units=1/GPa)
#
#
# Indices 1 2 3 4 5 6 
#
# 1 0.015865 -0.001803 -0.003741 0.000000 0.000000 0.000000
# 2 -0.001803 0.008765 -0.007051 0.000000 0.000000 0.000000
# 3 -0.003741 -0.007051 0.017028 0.000000 0.000000 0.000000
# 4 0.000000 0.000000 0.000000 0.027705 0.000000 0.000000
# 5 0.000000 0.000000 0.000000 0.000000 0.053704 0.000000
# 6 0.000000 0.000000 0.000000 0.000000 0.000000 0.037491
#
#
# Mechanical properties :
#
#
# Convention : Reuss Voigt Hill
#
# Bulk Modulus (GPa) = 60.72268 79.44858 70.08563
# Shear Modulus (GPa) = 26.14560 30.07580 28.11070
#
# Velocity S-wave (km/s) = 3.58155 3.84131 3.71370
# Velocity P-wave (km/s) = 6.84798 7.65853 7.26457
#
# Compressibility (1/GPa) = 0.01646831
#
# Stress axis : x y z
#
# Youngs Moduli (GPa) = 63.03371 114.08410 58.72771
#
# Poissons Ratio (x) = 0.20564 0.21970
# Poissons Ratio (y) = 0.11362 0.41410
# Poissons Ratio (z) = 0.23581 0.80442
#
# Static dielectric constant tensor:
#      x y z
#    x 3.577680 0.000000 0.000000 
#    y 0.000000 4.219740 0.000000 
#    z 0.000000 0.000000 3.773870 
# 
# 
# High freq. dielectric constant tensor:
#      x y z
#    x 1.795060 0.000000 0.000000 
#    y 0.000000 1.803170 0.000000 
#    z 0.000000 0.000000 1.798160 
# 
# From -- ./inp_files/58811.got.cif
#   From: 2010.03.12/outbox.cif.g09.slc.cpg/sg65_30_cif.got.tgz:58811.got - 2010.04.10 20:52:16.
