data_PCOD8273641
_publ_section_title
;
Structure prediction by ZEFSAII (Michael W. Deem and Ramdas Pophale) SiO2 
 PCOD8273641
Probable space group: C M M M
;
_chemical_formula_sum "Si O2"
_cell_formula_units_Z 72
_cell_length_a 18.586417
_cell_length_b 7.981347
_cell_length_c 24.506079
_cell_angle_alpha 90.000000
_cell_angle_beta 90.000000
_cell_angle_gamma 90.000000
_cell_volume 3635.345554
_symmetry_space_group_name_H-M "C M M M"
_symmetry_group_IT_number 65
_symmetry_cell_setting 'orthorhombic'
loop_
_space_group_symop_operation_xyz
x,y,z
-x,-y,z
x,-y,-z
-x,y,-z
-x,-y,-z
x,y,-z
-x,y,z
x,-y,z
1/2+x,1/2+y,z
1/2-x,1/2-y,z
1/2+x,1/2-y,-z
1/2-x,1/2+y,-z
1/2-x,1/2-y,-z
1/2+x,1/2+y,-z
1/2-x,1/2+y,z
1/2+x,1/2-y,z
loop_
_atom_site_type_symbol
_atom_site_label
_atom_site_fract_x
_atom_site_fract_y
_atom_site_fract_z
Si Si1 0.580887 0.307332 0.659420
Si Si2 0.414914 0.500000 0.060755
Si Si3 0.828696 0.696985 0.562026
Si Si4 0.084551 0.695380 0.136486
Si Si5 0.669210 0.189928 0.759619
O O1 0.500000 0.234927 0.660829
O O2 0.581546 0.500000 0.676150
O O3 0.611592 0.285908 0.598688
O O4 0.629802 0.210001 0.702131
O O5 0.500000 0.500000 0.057656
O O6 0.390307 0.674126 0.089637
O O7 0.381311 0.500000 0.000000
O O8 0.840099 0.758966 0.500000
O O9 0.837872 0.500000 0.567191
O O10 0.750000 0.750000 0.582967
O O11 0.103529 0.500000 0.121278
O O12 0.124403 0.768514 0.190380
O O13 0.000000 0.710073 0.148100
O O14 0.750000 0.250000 0.754622
O O15 0.672838 0.000000 0.775483
#
# Coordination Sequence:
#
# PCOD8273641 Si02
#       5
#    16   8  16  16  16
#     4  11  24  39  57  82 113 148 186 233 286 341
#     4   9  18  32  56  88 118 152 190 236 288 337
#     4  10  21  38  60  83 110 147 188 233 282 336
#     4   9  19  35  56  84 116 152 192 238 289 342
#     4  11  23  38  58  84 112 149 188 234 286 342
#
# _framework density 19.805544000000001
#
# number of rings (size 3 to 8) (size 9 to 14) (size 15 to 20)
#    0.000    1.889    0.000    3.333    3.111    4.889 
#    0.000    4.444    0.000    0.667    0.000    0.000 
#    0.000    0.000    0.000    0.000    0.000    0.000 
#
# Total GULP energy -446317.777869 kJ/mol
# GULP energy per Si atom -12397.716052 kJ/mol
# Density = 1.976047 g / cm^3
# Si number density = 19.805544 Si / 1000 Ang^3
#
#
#
# Elastic Constant Matrix: (Units=GPa)
#
#
# Indices 1 2 3 4 5 6 
#
# 1 120.6873 28.5388 64.3251 0.0000 0.0000 0.0000
# 2 28.5388 71.1868 36.4002 0.0000 0.0000 0.0000
# 3 64.3251 36.4002 134.1137 0.0000 0.0000 0.0000
# 4 0.0000 0.0000 0.0000 33.2863 0.0000 0.0000
# 5 0.0000 0.0000 0.0000 0.0000 22.1867 0.0000
# 6 0.0000 0.0000 0.0000 0.0000 0.0000 17.8317
#
#
#
# Elastic Compliance Matrix: (Units=1/GPa)
#
#
# Indices 1 2 3 4 5 6 
#
# 1 0.011385 -0.002058 -0.004902 0.000000 0.000000 0.000000
# 2 -0.002058 0.016683 -0.003541 0.000000 0.000000 0.000000
# 3 -0.004902 -0.003541 0.010769 0.000000 0.000000 0.000000
# 4 0.000000 0.000000 0.000000 0.030042 0.000000 0.000000
# 5 0.000000 0.000000 0.000000 0.000000 0.045072 0.000000
# 6 0.000000 0.000000 0.000000 0.000000 0.000000 0.056080
#
#
# Mechanical properties :
#
#
# Convention : Reuss Voigt Hill
#
# Bulk Modulus (GPa) = 56.06916 64.94622 60.50769
# Shear Modulus (GPa) = 25.38346 27.77585 26.57965
#
# Velocity S-wave (km/s) = 3.58388 3.74896 3.66735
# Velocity P-wave (km/s) = 6.74513 7.18351 6.96777
#
# Compressibility (1/GPa) = 0.01783512
#
# Stress axis : x y z
#
# Youngs Moduli (GPa) = 87.83240 59.94069 92.86130
#
# Poissons Ratio (x) = 0.12334 0.45523
# Poissons Ratio (y) = 0.18073 0.32883
# Poissons Ratio (z) = 0.43058 0.21226
#
# Static dielectric constant tensor:
#      x y z
#    x 3.468730 0.000000 0.000000 
#    y 0.000000 3.737170 0.000000 
#    z 0.000000 0.000000 3.686020 
# 
# 
# High freq. dielectric constant tensor:
#      x y z
#    x 1.760060 0.000000 0.000000 
#    y 0.000000 1.781620 0.000000 
#    z 0.000000 0.000000 1.772290 
# 
# From -- ./inp_files/64310.got.cif
#   From: 2010.03.12/outbox.cif.g09.slc.cpg/sg65_33_cif.got.tgz:64310.got - 2010.04.10 20:52:16.
