data_PCOD8273221
_publ_section_title
;
Structure prediction by ZEFSAII (Michael W. Deem and Ramdas Pophale) SiO2 
 PCOD8273221
Probable space group: C M M M
;
_chemical_formula_sum "Si O2"
_cell_formula_units_Z 72
_cell_length_a 17.458795
_cell_length_b 22.560279
_cell_length_c 8.675401
_cell_angle_alpha 90.000000
_cell_angle_beta 90.000000
_cell_angle_gamma 90.000000
_cell_volume 3417.026052
_symmetry_space_group_name_H-M "C M M M"
_symmetry_group_IT_number 65
_symmetry_cell_setting 'orthorhombic'
loop_
_space_group_symop_operation_xyz
x,y,z
-x,-y,z
x,-y,-z
-x,y,-z
-x,-y,-z
x,y,-z
-x,y,z
x,-y,z
1/2+x,1/2+y,z
1/2-x,1/2-y,z
1/2+x,1/2-y,-z
1/2-x,1/2+y,-z
1/2-x,1/2-y,-z
1/2+x,1/2+y,-z
1/2-x,1/2+y,z
1/2+x,1/2-y,z
loop_
_atom_site_type_symbol
_atom_site_label
_atom_site_fract_x
_atom_site_fract_y
_atom_site_fract_z
Si Si1 0.585113 0.266074 0.179611
Si Si2 0.645149 0.622314 0.682247
Si Si3 0.584976 0.935422 0.683204
Si Si4 0.411572 0.500000 0.182663
Si Si5 0.810803 0.667514 0.317137
O O1 0.500000 0.238263 0.210167
O O2 0.582575 0.331098 0.257428
O O3 0.654771 0.228011 0.249924
O O4 0.600686 0.273590 0.000000
O O5 0.640881 0.614497 0.500000
O O6 0.632087 0.557946 0.755421
O O7 0.725371 0.651947 0.735659
O O8 0.583925 0.930927 0.500000
O O9 0.500000 0.925859 0.749249
O O10 0.638788 0.885536 0.753526
O O11 0.616182 0.000000 0.733473
O O12 0.500000 0.500000 0.239651
O O13 0.407490 0.500000 0.000000
O O14 0.815866 0.672982 0.500000
#
# Coordination Sequence:
#
# PCOD8273221 Si02
#       5
#    16  16  16   8  16
#     4  11  24  41  61  86 120 163 207 251 304 367
#     4  11  24  40  63  94 124 156 201 256 310 362
#     4   8  14  26  48  78 111 149 191 235 286 343
#     4  11  25  45  67  91 122 163 208 249 299 364
#     4  10  21  36  59  89 122 156 198 250 304 360
#
# _framework density 21.070955000000001
#
# number of rings (size 3 to 8) (size 9 to 14) (size 15 to 20)
#    0.000    1.889    0.000    4.333    1.556   10.667 
#    0.000    0.000    0.000    0.000    0.000    3.111 
#    0.000    0.000    0.000    0.000    0.000    0.000 
#
# Total GULP energy -446272.562742 kJ/mol
# GULP energy per Si atom -12396.460076 kJ/mol
# Density = 2.102300 g / cm^3
# Si number density = 21.070955 Si / 1000 Ang^3
#
#
#
# Elastic Constant Matrix: (Units=GPa)
#
#
# Indices 1 2 3 4 5 6 
#
# 1 107.1918 56.9902 40.9376 0.0000 0.0000 0.0000
# 2 56.9902 154.9441 37.7422 0.0000 0.0000 0.0000
# 3 40.9376 37.7422 63.2236 0.0000 0.0000 0.0000
# 4 0.0000 0.0000 0.0000 21.5480 0.0000 0.0000
# 5 0.0000 0.0000 0.0000 0.0000 24.5206 0.0000
# 6 0.0000 0.0000 0.0000 0.0000 0.0000 -2.0574
#
#
#
# Elastic Compliance Matrix: (Units=1/GPa)
#
#
# Indices 1 2 3 4 5 6 
#
# 1 0.013759 -0.003382 -0.006890 0.000000 0.000000 0.000000
# 2 -0.003382 0.008384 -0.002815 0.000000 0.000000 0.000000
# 3 -0.006890 -0.002815 0.021958 0.000000 0.000000 0.000000
# 4 0.000000 0.000000 0.000000 0.046408 0.000000 0.000000
# 5 0.000000 0.000000 0.000000 0.000000 0.040782 0.000000
# 6 0.000000 0.000000 0.000000 0.000000 0.000000 -0.486040
#
#
# Mechanical properties :
#
#
# Convention : Reuss Voigt Hill
#
# Bulk Modulus (GPa) = 55.78118 66.29995 61.04057
# Shear Modulus (GPa) = -15.49904 21.44818 2.97457
#
# Velocity S-wave (km/s) = -2.71507 3.19392 1.18944
# Velocity P-wave (km/s) = 4.08677 6.71825 5.56042
#
# Compressibility (1/GPa) = 0.01792719
#
# Stress axis : x y z
#
# Youngs Moduli (GPa) = 72.68202 119.28031 45.54111
#
# Poissons Ratio (x) = 0.40345 0.31376
# Poissons Ratio (y) = 0.24584 0.12818
# Poissons Ratio (z) = 0.50075 0.33573
#
# Static dielectric constant tensor:
#      x y z
#    x 4.069430 0.000000 0.000000 
#    y 0.000000 4.031520 0.000000 
#    z 0.000000 0.000000 3.439520 
# 
# 
# High freq. dielectric constant tensor:
#      x y z
#    x 1.835360 0.000000 0.000000 
#    y 0.000000 1.841970 0.000000 
#    z 0.000000 0.000000 1.796900 
# 
# From -- ./inp_files/9268.got.cif
#   From: 2010.03.12/outbox.cif.g09.slc.cpg/sg65_5_cif.got.tgz:9268.got - 2010.04.10 20:52:16.
