data_PCOD8273714
_publ_section_title
;
Structure prediction by ZEFSAII (Michael W. Deem and Ramdas Pophale) SiO2 
 PCOD8273714
Probable space group: C M M M
;
_chemical_formula_sum "Si O2"
_cell_formula_units_Z 64
_cell_length_a 17.622914
_cell_length_b 20.362268
_cell_length_c 9.065947
_cell_angle_alpha 90.000000
_cell_angle_beta 90.000000
_cell_angle_gamma 90.000000
_cell_volume 3253.247066
_symmetry_space_group_name_H-M "C M M M"
_symmetry_group_IT_number 65
_symmetry_cell_setting 'orthorhombic'
loop_
_space_group_symop_operation_xyz
x,y,z
-x,-y,z
x,-y,-z
-x,y,-z
-x,-y,-z
x,y,-z
-x,y,z
x,-y,z
1/2+x,1/2+y,z
1/2-x,1/2-y,z
1/2+x,1/2-y,-z
1/2-x,1/2+y,-z
1/2-x,1/2-y,-z
1/2+x,1/2+y,-z
1/2-x,1/2+y,z
1/2+x,1/2-y,z
loop_
_atom_site_type_symbol
_atom_site_label
_atom_site_fract_x
_atom_site_fract_y
_atom_site_fract_z
Si Si1 0.666069 0.922122 0.173076
Si Si2 0.500000 0.071610 0.174134
Si Si3 0.720506 0.677045 0.331482
Si Si4 0.910185 0.000000 0.335708
Si Si5 0.086356 0.870552 0.826390
O O1 0.580812 0.895483 0.218617
O O2 0.724460 0.877731 0.262850
O O3 0.675116 0.000000 0.210748
O O4 0.680758 0.910907 0.000000
O O5 0.500000 0.000000 0.248008
O O6 0.500000 0.063373 0.000000
O O7 0.705377 0.656813 0.500000
O O8 0.750000 0.750000 0.318599
O O9 0.641409 0.683623 0.242006
O O10 0.882418 0.937590 0.244672
O O11 0.874834 0.000000 0.500000
O O12 0.000000 0.000000 0.344604
O O13 0.000000 0.854593 0.781003
O O14 0.094983 0.875720 0.000000
#
# Coordination Sequence:
#
# PCOD8273714 Si02
#       5
#    16   8  16   8  16
#     4   9  18  35  62  91 117 148 188 239 295 348
#     4   7  12  28  55  87 117 143 178 227 288 351
#     4  11  25  42  57  80 118 161 199 238 292 352
#     4   9  17  31  55  87 119 150 183 226 283 343
#     4  10  21  38  61  87 114 148 194 244 291 343
#
# _framework density 19.672651999999999
#
# number of rings (size 3 to 8) (size 9 to 14) (size 15 to 20)
#    0.000    2.500    0.000    3.375    1.750    5.500 
#    2.250    0.625    0.000    2.250    0.000    0.000 
#    0.000    0.000    0.000    0.000    0.000    0.000 
#
# Total GULP energy -396474.187993 kJ/mol
# GULP energy per Si atom -12389.818375 kJ/mol
# Density = 1.962788 g / cm^3
# Si number density = 19.672652 Si / 1000 Ang^3
#
#
#
# Elastic Constant Matrix: (Units=GPa)
#
#
# Indices 1 2 3 4 5 6 
#
# 1 134.6830 43.4791 66.1797 0.0000 0.0000 0.0000
# 2 43.4791 59.2434 41.6956 0.0000 0.0000 0.0000
# 3 66.1797 41.6956 107.7724 0.0000 0.0000 0.0000
# 4 0.0000 0.0000 0.0000 19.6880 0.0000 0.0000
# 5 0.0000 0.0000 0.0000 0.0000 24.2377 0.0000
# 6 0.0000 0.0000 0.0000 0.0000 0.0000 15.2679
#
#
#
# Elastic Compliance Matrix: (Units=1/GPa)
#
#
# Indices 1 2 3 4 5 6 
#
# 1 0.011543 -0.004786 -0.005237 0.000000 0.000000 0.000000
# 2 -0.004786 0.025180 -0.006803 0.000000 0.000000 0.000000
# 3 -0.005237 -0.006803 0.015126 0.000000 0.000000 0.000000
# 4 0.000000 0.000000 0.000000 0.050792 0.000000 0.000000
# 5 0.000000 0.000000 0.000000 0.000000 0.041258 0.000000
# 6 0.000000 0.000000 0.000000 0.000000 0.000000 0.065497
#
#
# Mechanical properties :
#
#
# Convention : Reuss Voigt Hill
#
# Bulk Modulus (GPa) = 54.94970 67.15639 61.05304
# Shear Modulus (GPa) = 20.07121 21.86169 20.96645
#
# Velocity S-wave (km/s) = 3.19762 3.33719 3.26815
# Velocity P-wave (km/s) = 6.45179 7.00430 6.73372
#
# Compressibility (1/GPa) = 0.01819846
#
# Stress axis : x y z
#
# Youngs Moduli (GPa) = 86.63271 39.71440 66.10992
#
# Poissons Ratio (x) = 0.19007 0.34619
# Poissons Ratio (y) = 0.41462 0.44973
# Poissons Ratio (z) = 0.45366 0.27017
#
# Static dielectric constant tensor:
#      x y z
#    x 3.916830 0.000000 0.000000 
#    y 0.000000 3.780530 0.000000 
#    z 0.000000 0.000000 3.561820 
# 
# 
# High freq. dielectric constant tensor:
#      x y z
#    x 1.784220 0.000000 0.000000 
#    y 0.000000 1.740430 0.000000 
#    z 0.000000 0.000000 1.759070 
# 
# From -- ./inp_files/9157.got.cif
#   From: 2010.03.12/outbox.cif.g09.slc.cpg/sg65_5_cif.got.tgz:9157.got - 2010.04.10 20:52:16.
