data_PCOD8273012
_publ_section_title
;
Structure prediction by ZEFSAII (Michael W. Deem and Ramdas Pophale) SiO2 
 PCOD8273012
Probable space group: C M M M
;
_chemical_formula_sum "Si O2"
_cell_formula_units_Z 104
_cell_length_a 28.610274
_cell_length_b 8.827368
_cell_length_c 22.843097
_cell_angle_alpha 90.000000
_cell_angle_beta 90.000000
_cell_angle_gamma 90.000000
_cell_volume 5769.102206
_symmetry_space_group_name_H-M "C M M M"
_symmetry_group_IT_number 65
_symmetry_cell_setting 'orthorhombic'
loop_
_space_group_symop_operation_xyz
x,y,z
-x,-y,z
x,-y,-z
-x,y,-z
-x,-y,-z
x,y,-z
-x,y,z
x,-y,z
1/2+x,1/2+y,z
1/2-x,1/2-y,z
1/2+x,1/2-y,-z
1/2-x,1/2+y,-z
1/2-x,1/2-y,-z
1/2+x,1/2+y,-z
1/2-x,1/2+y,z
1/2+x,1/2-y,z
loop_
_atom_site_type_symbol
_atom_site_label
_atom_site_fract_x
_atom_site_fract_y
_atom_site_fract_z
Si Si1 0.449230 0.820322 0.780359
Si Si2 0.800739 0.819993 0.500000
Si Si3 0.947752 0.322651 0.648486
Si Si4 0.857546 0.178176 0.611732
Si Si5 0.146476 0.319709 0.832476
Si Si6 0.200927 0.823361 0.932234
Si Si7 0.300044 0.319925 0.274972
O O1 0.500000 0.763159 0.804436
O O2 0.441939 0.759024 0.714548
O O3 0.406764 0.763774 0.820982
O O4 0.449618 0.000000 0.777766
O O5 0.750000 0.750000 0.500000
O O6 0.827884 0.759566 0.442836
O O7 0.796304 0.000000 0.500000
O O8 0.938093 0.500000 0.647124
O O9 0.909948 0.242752 0.607215
O O10 0.000000 0.285652 0.625414
O O11 0.833630 0.230919 0.672131
O O12 0.860837 0.000000 0.608083
O O13 0.150918 0.500000 0.830383
O O14 0.159950 0.257526 0.896142
O O15 0.181008 0.248569 0.785102
O O16 0.250000 0.750000 0.914007
O O17 0.203062 0.000000 0.917097
O O18 0.189758 0.793866 0.000000
O O19 0.296185 0.500000 0.269346
O O20 0.250000 0.250000 0.288874
#
# Coordination Sequence:
#
# PCOD8273012 Si02
#       7
#    16   8  16  16  16  16  16
#     4   8  15  29  50  77 106 135 168 208 255 305
#     4  10  22  40  57  76 101 137 182 223 265 314
#     4   9  17  32  55  80 106 136 172 213 258 312
#     4  10  21  36  54  76 104 136 173 219 265 315
#     4  11  20  32  54  80 106 136 170 213 261 309
#     4  10  21  37  55  75 104 141 179 218 257 303
#     4  11  22  34  49  73 104 135 169 212 261 313
#
# _framework density 18.027069000000001
#
# number of rings (size 3 to 8) (size 9 to 14) (size 15 to 20)
#    0.000    2.154    1.538    3.231    0.000    2.462 
#    0.000    0.385    0.000    4.615    0.000    3.231 
#    0.000    0.000    0.000    0.000    0.000    0.000 
#
# Total GULP energy -644792.675149 kJ/mol
# GULP energy per Si atom -12399.859137 kJ/mol
# Density = 1.798604 g / cm^3
# Si number density = 18.027069 Si / 1000 Ang^3
#
#
#
# Elastic Constant Matrix: (Units=GPa)
#
#
# Indices 1 2 3 4 5 6 
#
# 1 157.2920 40.3990 59.2744 0.0000 0.0000 0.0000
# 2 40.3990 51.6403 30.6190 0.0000 0.0000 0.0000
# 3 59.2744 30.6190 87.2898 0.0000 0.0000 0.0000
# 4 0.0000 0.0000 0.0000 19.1813 0.0000 0.0000
# 5 0.0000 0.0000 0.0000 0.0000 35.7854 0.0000
# 6 0.0000 0.0000 0.0000 0.0000 0.0000 27.7008
#
#
#
# Elastic Compliance Matrix: (Units=1/GPa)
#
#
# Indices 1 2 3 4 5 6 
#
# 1 0.009290 -0.004454 -0.004746 0.000000 0.000000 0.000000
# 2 -0.004454 0.026585 -0.006301 0.000000 0.000000 0.000000
# 3 -0.004746 -0.006301 0.016889 0.000000 0.000000 0.000000
# 4 0.000000 0.000000 0.000000 0.052134 0.000000 0.000000
# 5 0.000000 0.000000 0.000000 0.000000 0.027944 0.000000
# 6 0.000000 0.000000 0.000000 0.000000 0.000000 0.036100
#
#
# Mechanical properties :
#
#
# Convention : Reuss Voigt Hill
#
# Bulk Modulus (GPa) = 45.95064 61.86743 53.90903
# Shear Modulus (GPa) = 24.13143 27.59548 25.86345
#
# Velocity S-wave (km/s) = 3.66269 3.91676 3.79185
# Velocity P-wave (km/s) = 6.59031 7.40597 7.01001
#
# Compressibility (1/GPa) = 0.02176248
#
# Stress axis : x y z
#
# Youngs Moduli (GPa) = 107.64203 37.61530 59.20907
#
# Poissons Ratio (x) = 0.16752 0.28102
# Poissons Ratio (y) = 0.47939 0.37308
# Poissons Ratio (z) = 0.51090 0.23702
#
# Static dielectric constant tensor:
#      x y z
#    x 3.593770 0.000000 0.000000 
#    y 0.000000 3.177940 0.000000 
#    z 0.000000 0.000000 3.297420 
# 
# 
# High freq. dielectric constant tensor:
#      x y z
#    x 1.709270 0.000000 0.000000 
#    y 0.000000 1.687750 0.000000 
#    z 0.000000 0.000000 1.681500 
# 
# From -- ./inp_files/60413.got.cif
#   From: 2010.03.12/outbox.cif.g09.slc.cpg/sg65_31_cif.got.tgz:60413.got - 2010.04.10 20:52:16.
