data_PCOD8273532
_publ_section_title
;
Structure prediction by ZEFSAII (Michael W. Deem and Ramdas Pophale) SiO2 
 PCOD8273532
Probable space group: C M M M
;
_chemical_formula_sum "Si O2"
_cell_formula_units_Z 96
_cell_length_a 16.114659
_cell_length_b 15.921901
_cell_length_c 17.425106
_cell_angle_alpha 90.000000
_cell_angle_beta 90.000000
_cell_angle_gamma 90.000000
_cell_volume 4470.864088
_symmetry_space_group_name_H-M "C M M M"
_symmetry_group_IT_number 65
_symmetry_cell_setting 'orthorhombic'
loop_
_space_group_symop_operation_xyz
x,y,z
-x,-y,z
x,-y,-z
-x,y,-z
-x,-y,-z
x,y,-z
-x,y,z
x,-y,z
1/2+x,1/2+y,z
1/2-x,1/2-y,z
1/2+x,1/2-y,-z
1/2-x,1/2+y,-z
1/2-x,1/2-y,-z
1/2+x,1/2+y,-z
1/2-x,1/2+y,z
1/2+x,1/2-y,z
loop_
_atom_site_type_symbol
_atom_site_label
_atom_site_fract_x
_atom_site_fract_y
_atom_site_fract_z
Si Si1 0.596652 0.094339 0.588912
Si Si2 0.409614 0.196958 0.158927
Si Si3 0.232148 0.594122 0.913822
Si Si4 0.843406 0.251731 0.684499
Si Si5 0.089067 0.132251 0.912249
Si Si6 0.097884 0.094911 0.587506
O O1 0.619367 0.101394 0.500000
O O2 0.500000 0.111572 0.602476
O O3 0.647494 0.165591 0.632255
O O4 0.619569 0.000000 0.618368
O O5 0.500000 0.150766 0.155999
O O6 0.332896 0.136064 0.143639
O O7 0.402170 0.241152 0.241715
O O8 0.407847 0.267521 0.093630
O O9 0.201514 0.500000 0.920541
O O10 0.325203 0.596644 0.876108
O O11 0.232022 0.634859 0.000000
O O12 0.750000 0.250000 0.714439
O O13 0.860948 0.165241 0.640336
O O14 0.000000 0.100133 0.875548
O O15 0.088643 0.103962 0.000000
O O16 0.127235 0.109623 0.500000
O O17 0.000000 0.105573 0.593085
O O18 0.123566 0.000000 0.613417
#
# Coordination Sequence:
#
# PCOD8273532 Si02
#       6
#    16  16  16  16  16  16
#     4   9  19  37  59  81 109 150 198 243 288 347
#     4  11  23  39  58  79 109 152 198 243 292 345
#     4  10  21  37  59  88 120 151 187 238 294 347
#     4  12  24  36  55  84 118 153 190 240 300 359
#     4   9  18  35  60  86 113 150 192 230 275 339
#     4   9  19  38  63  87 112 146 188 234 287 351
#
# _framework density 21.472359000000001
#
# number of rings (size 3 to 8) (size 9 to 14) (size 15 to 20)
#    0.000    2.000    0.000    5.000    0.000    7.000 
#    0.000    6.667    0.000    1.000    0.000    0.000 
#    0.000    0.000    0.000    0.000    0.000    0.000 
#
# Total GULP energy -594769.414661 kJ/mol
# GULP energy per Si atom -12391.029472 kJ/mol
# Density = 2.142349 g / cm^3
# Si number density = 21.472359 Si / 1000 Ang^3
#
#
#
# Elastic Constant Matrix: (Units=GPa)
#
#
# Indices 1 2 3 4 5 6 
#
# 1 147.7269 47.2700 39.2702 0.0000 0.0000 0.0000
# 2 47.2700 110.6784 34.2628 0.0000 0.0000 0.0000
# 3 39.2702 34.2628 59.5651 0.0000 0.0000 0.0000
# 4 0.0000 0.0000 0.0000 18.6895 0.0000 0.0000
# 5 0.0000 0.0000 0.0000 0.0000 29.1329 0.0000
# 6 0.0000 0.0000 0.0000 0.0000 0.0000 7.1374
#
#
#
# Elastic Compliance Matrix: (Units=1/GPa)
#
#
# Indices 1 2 3 4 5 6 
#
# 1 0.008685 -0.002356 -0.004370 0.000000 0.000000 0.000000
# 2 -0.002356 0.011632 -0.005137 0.000000 0.000000 0.000000
# 3 -0.004370 -0.005137 0.022625 0.000000 0.000000 0.000000
# 4 0.000000 0.000000 0.000000 0.053506 0.000000 0.000000
# 5 0.000000 0.000000 0.000000 0.000000 0.034325 0.000000
# 6 0.000000 0.000000 0.000000 0.000000 0.000000 0.140106
#
#
# Mechanical properties :
#
#
# Convention : Reuss Voigt Hill
#
# Bulk Modulus (GPa) = 52.04698 62.17513 57.11106
# Shear Modulus (GPa) = 16.61060 24.13646 20.37353
#
# Velocity S-wave (km/s) = 2.78435 3.35635 3.08364
# Velocity P-wave (km/s) = 5.88460 6.63618 6.27166
#
# Compressibility (1/GPa) = 0.01921341
#
# Stress axis : x y z
#
# Youngs Moduli (GPa) = 115.14055 85.97009 44.19919
#
# Poissons Ratio (x) = 0.20258 0.19317
# Poissons Ratio (y) = 0.27131 0.22707
# Poissons Ratio (z) = 0.50322 0.44166
#
# Static dielectric constant tensor:
#      x y z
#    x 4.064280 0.000000 0.000000 
#    y 0.000000 3.903600 0.000000 
#    z 0.000000 0.000000 3.671860 
# 
# 
# High freq. dielectric constant tensor:
#      x y z
#    x 1.854340 0.000000 0.000000 
#    y 0.000000 1.836480 0.000000 
#    z 0.000000 0.000000 1.819790 
# 
# From -- ./inp_files/62616.got.cif
#   From: 2010.03.12/outbox.cif.g09.slc.cpg/sg65_32_cif.got.tgz:62616.got - 2010.04.10 20:52:16.
