data_PCOD8273688
_publ_section_title
;
Structure prediction by ZEFSAII (Michael W. Deem and Ramdas Pophale) SiO2 
 PCOD8273688
Probable space group: C M M M
;
_chemical_formula_sum "Si O2"
_cell_formula_units_Z 88
_cell_length_a 19.131385
_cell_length_b 8.648183
_cell_length_c 27.799746
_cell_angle_alpha 90.000000
_cell_angle_beta 90.000000
_cell_angle_gamma 90.000000
_cell_volume 4599.515750
_symmetry_space_group_name_H-M "C M M M"
_symmetry_group_IT_number 65
_symmetry_cell_setting 'orthorhombic'
loop_
_space_group_symop_operation_xyz
x,y,z
-x,-y,z
x,-y,-z
-x,y,-z
-x,-y,-z
x,y,-z
-x,y,z
x,-y,z
1/2+x,1/2+y,z
1/2-x,1/2-y,z
1/2+x,1/2-y,-z
1/2-x,1/2+y,-z
1/2-x,1/2-y,-z
1/2+x,1/2+y,-z
1/2-x,1/2+y,z
1/2+x,1/2-y,z
loop_
_atom_site_type_symbol
_atom_site_label
_atom_site_fract_x
_atom_site_fract_y
_atom_site_fract_z
Si Si1 0.080380 0.818119 0.916440
Si Si2 0.676495 0.180278 0.368333
Si Si3 0.081819 0.322914 0.815028
Si Si4 0.672725 0.818108 0.000000
Si Si5 0.825391 0.182862 0.733008
Si Si6 0.581649 0.323586 0.445298
O O1 0.103015 0.766155 0.863416
O O2 0.130890 0.733613 0.953153
O O3 0.000000 0.770454 0.926942
O O4 0.090560 0.000000 0.921845
O O5 0.750000 0.250000 0.385334
O O6 0.650317 0.261127 0.319536
O O7 0.621098 0.206894 0.410367
O O8 0.685384 0.000000 0.358080
O O9 0.106235 0.500000 0.819501
O O10 0.118556 0.240991 0.770824
O O11 0.000000 0.310408 0.805350
O O12 0.750000 0.750000 0.000000
O O13 0.679554 0.000000 0.000000
O O14 0.750000 0.250000 0.746566
O O15 0.821683 0.000000 0.733854
O O16 0.603052 0.285168 0.500000
O O17 0.500000 0.297024 0.437896
O O18 0.601935 0.500000 0.432888
#
# Coordination Sequence:
#
# PCOD8273688 Si02
#       6
#    16  16  16   8  16  16
#     4  10  21  39  62  87 116 150 188 230 279 334
#     4  11  22  37  57  81 111 146 186 230 276 329
#     4  10  21  38  60  87 117 148 187 232 276 327
#     4  12  25  40  59  85 117 151 191 236 283 332
#     4  11  22  38  59  82 112 148 187 230 279 333
#     4   9  19  37  59  82 110 144 182 226 277 331
#
# _framework density 19.132449000000001
#
# number of rings (size 3 to 8) (size 9 to 14) (size 15 to 20)
#    0.000    1.636    0.000    7.091    0.000    5.818 
#    0.000    4.545    0.000    0.000    0.000    0.000 
#    0.000    0.000    0.000    0.000    0.000    0.000 
#
# Total GULP energy -545804.339729 kJ/mol
# GULP energy per Si atom -12404.644085 kJ/mol
# Density = 1.908890 g / cm^3
# Si number density = 19.132449 Si / 1000 Ang^3
#
#
#
# Elastic Constant Matrix: (Units=GPa)
#
#
# Indices 1 2 3 4 5 6 
#
# 1 80.6539 54.2394 72.4141 0.0000 0.0000 0.0000
# 2 54.2394 113.9036 38.9526 0.0000 0.0000 0.0000
# 3 72.4141 38.9526 118.1421 0.0000 0.0000 0.0000
# 4 0.0000 0.0000 0.0000 38.2971 0.0000 0.0000
# 5 0.0000 0.0000 0.0000 0.0000 110.2417 0.0000
# 6 0.0000 0.0000 0.0000 0.0000 0.0000 32.6820
#
#
#
# Elastic Compliance Matrix: (Units=1/GPa)
#
#
# Indices 1 2 3 4 5 6 
#
# 1 0.036838 -0.011068 -0.018931 0.000000 0.000000 0.000000
# 2 -0.011068 0.013220 0.002425 0.000000 0.000000 0.000000
# 3 -0.018931 0.002425 0.019268 0.000000 0.000000 0.000000
# 4 0.000000 0.000000 0.000000 0.026112 0.000000 0.000000
# 5 0.000000 0.000000 0.000000 0.000000 0.009071 0.000000
# 6 0.000000 0.000000 0.000000 0.000000 0.000000 0.030598
#
#
# Mechanical properties :
#
#
# Convention : Reuss Voigt Hill
#
# Bulk Modulus (GPa) = 70.52152 71.54576 71.03364
# Shear Modulus (GPa) = 25.64350 46.05038 35.84694
#
# Velocity S-wave (km/s) = 3.66500 4.91137 4.33323
# Velocity P-wave (km/s) = 7.40603 8.34495 7.88947
#
# Compressibility (1/GPa) = 0.01418007
#
# Stress axis : x y z
#
# Youngs Moduli (GPa) = 27.14553 75.64013 51.89934
#
# Poissons Ratio (x) = 0.83720 0.98248
# Poissons Ratio (y) = 0.30045 -0.12587
# Poissons Ratio (z) = 0.51388 -0.18344
#
# Static dielectric constant tensor:
#      x y z
#    x 3.420470 0.000000 0.000000 
#    y 0.000000 3.675650 0.000000 
#    z 0.000000 0.000000 3.565800 
# 
# 
# High freq. dielectric constant tensor:
#      x y z
#    x 1.740740 0.000000 0.000000 
#    y 0.000000 1.759860 0.000000 
#    z 0.000000 0.000000 1.754910 
# 
# From -- ./inp_files/70941.got.cif
#   From: 2010.03.12/outbox.cif.g09.slc.cpg/sg65_36_cif.got.tgz:70941.got - 2010.04.10 20:52:16.
