data_PCOD8273581
_publ_section_title
;
Structure prediction by ZEFSAII (Michael W. Deem and Ramdas Pophale) SiO2 
 PCOD8273581
Probable space group: C M M M
;
_chemical_formula_sum "Si O2"
_cell_formula_units_Z 80
_cell_length_a 18.651035
_cell_length_b 14.991694
_cell_length_c 14.221061
_cell_angle_alpha 90.000000
_cell_angle_beta 90.000000
_cell_angle_gamma 90.000000
_cell_volume 3976.359534
_symmetry_space_group_name_H-M "C M M M"
_symmetry_group_IT_number 65
_symmetry_cell_setting 'orthorhombic'
loop_
_space_group_symop_operation_xyz
x,y,z
-x,-y,z
x,-y,-z
-x,y,-z
-x,-y,-z
x,y,-z
-x,y,z
x,-y,z
1/2+x,1/2+y,z
1/2-x,1/2-y,z
1/2+x,1/2-y,-z
1/2-x,1/2+y,-z
1/2-x,1/2-y,-z
1/2+x,1/2+y,-z
1/2-x,1/2+y,z
1/2+x,1/2-y,z
loop_
_atom_site_type_symbol
_atom_site_label
_atom_site_fract_x
_atom_site_fract_y
_atom_site_fract_z
Si Si1 0.420017 0.266569 0.204421
Si Si2 0.296992 0.396513 0.789948
Si Si3 0.349731 0.898287 0.890272
Si Si4 0.273750 0.103602 0.602392
Si Si5 0.921403 0.687220 0.604172
O O1 0.500000 0.292484 0.170202
O O2 0.364477 0.341677 0.169900
O O3 0.401540 0.168788 0.164604
O O4 0.416606 0.264775 0.317989
O O5 0.318724 0.500000 0.783094
O O6 0.232597 0.381538 0.862405
O O7 0.273086 0.356062 0.687764
O O8 0.371699 0.000000 0.864578
O O9 0.358019 0.879770 0.000000
O O10 0.251831 0.145082 0.500000
O O11 0.358297 0.116270 0.621983
O O12 0.258723 0.000000 0.601219
O O13 0.913261 0.730397 0.500000
O O14 0.000000 0.640011 0.612895
#
# Coordination Sequence:
#
# PCOD8273581 Si02
#       5
#    16  16  16  16  16
#     4  11  23  37  57  85 116 153 192 230 278 334
#     4  10  21  38  58  83 115 150 193 238 277 324
#     4  10  22  41  64  88 113 143 181 229 287 346
#     4   9  17  30  51  80 112 149 193 235 276 325
#     4   9  18  31  48  77 117 154 186 224 277 339
#
# _framework density 20.118905000000002
#
# number of rings (size 3 to 8) (size 9 to 14) (size 15 to 20)
#    0.000    2.200    2.000    0.600    0.000    4.000 
#    0.000    7.000    0.000    0.000    0.000    9.800 
#    0.000    0.000    0.000    0.000    0.000    0.000 
#
# Total GULP energy -495720.452320 kJ/mol
# GULP energy per Si atom -12393.011308 kJ/mol
# Density = 2.007311 g / cm^3
# Si number density = 20.118905 Si / 1000 Ang^3
#
#
#
# Elastic Constant Matrix: (Units=GPa)
#
#
# Indices 1 2 3 4 5 6 
#
# 1 118.2216 45.4085 17.8797 0.0000 0.0000 0.0000
# 2 45.4085 60.1805 19.2284 0.0000 0.0000 0.0000
# 3 17.8797 19.2284 62.9742 0.0000 0.0000 0.0000
# 4 0.0000 0.0000 0.0000 11.7232 0.0000 0.0000
# 5 0.0000 0.0000 0.0000 0.0000 12.1638 0.0000
# 6 0.0000 0.0000 0.0000 0.0000 0.0000 23.6499
#
#
#
# Elastic Compliance Matrix: (Units=1/GPa)
#
#
# Indices 1 2 3 4 5 6 
#
# 1 0.011939 -0.008782 -0.000708 0.000000 0.000000 0.000000
# 2 -0.008782 0.024873 -0.005101 0.000000 0.000000 0.000000
# 3 -0.000708 -0.005101 0.017638 0.000000 0.000000 0.000000
# 4 0.000000 0.000000 0.000000 0.085301 0.000000 0.000000
# 5 0.000000 0.000000 0.000000 0.000000 0.082211 0.000000
# 6 0.000000 0.000000 0.000000 0.000000 0.000000 0.042284
#
#
# Mechanical properties :
#
#
# Convention : Reuss Voigt Hill
#
# Bulk Modulus (GPa) = 39.57726 45.15661 42.36694
# Shear Modulus (GPa) = 16.56447 20.09803 18.33125
#
# Velocity S-wave (km/s) = 2.87248 3.16407 3.02179
# Velocity P-wave (km/s) = 5.54220 5.98682 5.76879
#
# Compressibility (1/GPa) = 0.02526703
#
# Stress axis : x y z
#
# Youngs Moduli (GPa) = 83.75917 40.20417 56.69512
#
# Poissons Ratio (x) = 0.35308 0.04015
# Poissons Ratio (y) = 0.73558 0.28922
# Poissons Ratio (z) = 0.05932 0.20509
#
# Static dielectric constant tensor:
#      x y z
#    x 3.625960 0.000000 0.000000 
#    y 0.000000 3.270040 0.000000 
#    z 0.000000 0.000000 3.992130 
# 
# 
# High freq. dielectric constant tensor:
#      x y z
#    x 1.780860 0.000000 0.000000 
#    y 0.000000 1.751640 0.000000 
#    z 0.000000 0.000000 1.793900 
# 
# From -- ./inp_files/42349.got.cif
#   From: 2010.03.12/outbox.cif.g09.slc.cpg/sg65_22_cif.got.tgz:42349.got - 2010.04.10 20:52:16.
