data_PCOD8273466
_publ_section_title
;
Structure prediction by ZEFSAII (Michael W. Deem and Ramdas Pophale) SiO2 
 PCOD8273466
Probable space group: C M M M
;
_chemical_formula_sum "Si O2"
_cell_formula_units_Z 88
_cell_length_a 23.683978
_cell_length_b 8.515838
_cell_length_c 22.759720
_cell_angle_alpha 90.000000
_cell_angle_beta 90.000000
_cell_angle_gamma 90.000000
_cell_volume 4590.383343
_symmetry_space_group_name_H-M "C M M M"
_symmetry_group_IT_number 65
_symmetry_cell_setting 'orthorhombic'
loop_
_space_group_symop_operation_xyz
x,y,z
-x,-y,z
x,-y,-z
-x,y,-z
-x,-y,-z
x,y,-z
-x,y,z
x,-y,z
1/2+x,1/2+y,z
1/2-x,1/2-y,z
1/2+x,1/2-y,-z
1/2-x,1/2+y,-z
1/2-x,1/2-y,-z
1/2+x,1/2+y,-z
1/2-x,1/2+y,z
1/2+x,1/2-y,z
loop_
_atom_site_type_symbol
_atom_site_label
_atom_site_fract_x
_atom_site_fract_y
_atom_site_fract_z
Si Si1 0.687659 0.814580 0.714941
Si Si2 0.391077 0.315704 0.381014
Si Si3 0.500000 0.318878 0.798613
Si Si4 0.885914 0.685966 0.828070
Si Si5 0.689738 0.814840 0.065172
Si Si6 0.434841 0.185045 0.500000
Si Si7 0.000000 0.318546 0.322964
O O1 0.750000 0.750000 0.726166
O O2 0.663553 0.748497 0.653427
O O3 0.647868 0.762878 0.769283
O O4 0.690316 0.000000 0.710153
O O5 0.384880 0.500000 0.388299
O O6 0.398156 0.240346 0.444852
O O7 0.445722 0.272302 0.344341
O O8 0.500000 0.500000 0.777644
O O9 0.443929 0.281327 0.835026
O O10 0.500000 0.191662 0.746532
O O11 0.896653 0.500000 0.827931
O O12 0.853419 0.744357 0.885842
O O13 0.750000 0.750000 0.083597
O O14 0.693435 0.000000 0.065847
O O15 0.671853 0.754479 0.000000
O O16 0.500000 0.252177 0.500000
O O17 0.438827 0.000000 0.500000
O O18 0.000000 0.500000 0.344095
#
# Coordination Sequence:
#
# PCOD8273466 Si02
#       7
#    16  16   8  16  16   8   8
#     4  11  23  39  60  85 117 155 196 241 293 348
#     4  12  24  39  61  90 121 153 196 243 289 344
#     4  12  24  36  56  86 116 151 193 240 292 350
#     4  10  21  37  58  83 117 156 192 238 294 350
#     4   9  18  34  57  85 115 152 197 242 289 342
#     4  11  23  39  62  89 121 158 194 237 293 347
#     4  12  22  37  59  85 119 156 190 235 295 350
#
# _framework density 19.170511000000001
#
# number of rings (size 3 to 8) (size 9 to 14) (size 15 to 20)
#    0.000    1.182    2.727    4.636    0.000    1.818 
#    0.000    0.909    0.000    2.727    0.000    0.000 
#    0.000    0.000    0.000    0.000    0.000    0.000 
#
# Total GULP energy -545619.601873 kJ/mol
# GULP energy per Si atom -12400.445497 kJ/mol
# Density = 1.912688 g / cm^3
# Si number density = 19.170511 Si / 1000 Ang^3
#
#
#
# Elastic Constant Matrix: (Units=GPa)
#
#
# Indices 1 2 3 4 5 6 
#
# 1 137.9947 40.9674 71.2510 0.0000 0.0000 0.0000
# 2 40.9674 74.6469 36.3493 0.0000 0.0000 0.0000
# 3 71.2510 36.3493 138.0259 0.0000 0.0000 0.0000
# 4 0.0000 0.0000 0.0000 19.7637 0.0000 0.0000
# 5 0.0000 0.0000 0.0000 0.0000 51.2072 0.0000
# 6 0.0000 0.0000 0.0000 0.0000 0.0000 22.2393
#
#
#
# Elastic Compliance Matrix: (Units=1/GPa)
#
#
# Indices 1 2 3 4 5 6 
#
# 1 0.010679 -0.003644 -0.004553 0.000000 0.000000 0.000000
# 2 -0.003644 0.016610 -0.002493 0.000000 0.000000 0.000000
# 3 -0.004553 -0.002493 0.010252 0.000000 0.000000 0.000000
# 4 0.000000 0.000000 0.000000 0.050598 0.000000 0.000000
# 5 0.000000 0.000000 0.000000 0.000000 0.019529 0.000000
# 6 0.000000 0.000000 0.000000 0.000000 0.000000 0.044965
#
#
# Mechanical properties :
#
#
# Convention : Reuss Voigt Hill
#
# Bulk Modulus (GPa) = 61.87748 71.97809 66.92779
# Shear Modulus (GPa) = 27.87046 32.11536 29.99291
#
# Velocity S-wave (km/s) = 3.81704 4.09742 3.95971
# Velocity P-wave (km/s) = 7.19540 7.74680 7.47619
#
# Compressibility (1/GPa) = 0.01616097
#
# Stress axis : x y z
#
# Youngs Moduli (GPa) = 93.63813 60.20346 97.54090
#
# Poissons Ratio (x) = 0.21937 0.44413
# Poissons Ratio (y) = 0.34120 0.24320
# Poissons Ratio (z) = 0.42636 0.15011
#
# Static dielectric constant tensor:
#      x y z
#    x 3.915640 0.000000 0.000000 
#    y 0.000000 3.466450 0.000000 
#    z 0.000000 0.000000 3.823650 
# 
# 
# High freq. dielectric constant tensor:
#      x y z
#    x 1.742460 0.000000 0.000000 
#    y 0.000000 1.749550 0.000000 
#    z 0.000000 0.000000 1.749660 
# 
# From -- ./inp_files/71070.got.cif
#   From: 2010.03.12/outbox.cif.g09.slc.cpg/sg65_36_cif.got.tgz:71070.got - 2010.04.10 20:52:16.
