data_PCOD8274916
_publ_section_title
;
Structure prediction by ZEFSAII (Michael W. Deem and Ramdas Pophale) SiO2 
 PCOD8274916
Probable space group: C M M M
;
_chemical_formula_sum "Si O2"
_cell_formula_units_Z 88
_cell_length_a 9.514347
_cell_length_b 19.641477
_cell_length_c 28.143827
_cell_angle_alpha 90.000000
_cell_angle_beta 90.000000
_cell_angle_gamma 90.000000
_cell_volume 5259.400967
_symmetry_space_group_name_H-M "C M M M"
_symmetry_group_IT_number 65
_symmetry_cell_setting 'orthorhombic'
loop_
_space_group_symop_operation_xyz
x,y,z
-x,-y,z
x,-y,-z
-x,y,-z
-x,-y,-z
x,y,-z
-x,y,z
x,-y,z
1/2+x,1/2+y,z
1/2-x,1/2-y,z
1/2+x,1/2-y,-z
1/2-x,1/2+y,-z
1/2-x,1/2-y,-z
1/2+x,1/2+y,-z
1/2-x,1/2+y,z
1/2+x,1/2-y,z
loop_
_atom_site_type_symbol
_atom_site_label
_atom_site_fract_x
_atom_site_fract_y
_atom_site_fract_z
Si Si1 0.157575 0.580937 0.413800
Si Si2 0.662465 0.078301 0.132990
Si Si3 0.337344 0.814810 0.054066
Si Si4 0.841476 0.918904 0.222422
Si Si5 0.157806 0.419003 0.691615
Si Si6 0.158216 0.081379 0.500000
O O1 0.158502 0.500000 0.415810
O O2 0.204944 0.605229 0.361117
O O3 0.263897 0.610397 0.453164
O O4 0.000000 0.607177 0.424862
O O5 0.500000 0.087427 0.147615
O O6 0.701623 0.120534 0.086147
O O7 0.756755 0.106008 0.176226
O O8 0.696688 0.000000 0.121300
O O9 0.500000 0.795480 0.058753
O O10 0.250000 0.750000 0.071914
O O11 0.297549 0.833984 0.000000
O O12 0.765236 0.889000 0.269402
O O13 0.000000 0.890178 0.220486
O O14 0.841686 0.000000 0.224258
O O15 0.158761 0.500000 0.693925
O O16 0.000000 0.392840 0.702628
O O17 0.000000 0.109608 0.500000
O O18 0.159713 0.000000 0.500000
#
# Coordination Sequence:
#
# PCOD8274916 Si02
#       6
#    16  16  16  16  16   8
#     4   8  13  20  28  36  48  71 104 141 182 229
#     4   9  17  29  45  64  86 112 141 173 208 247
#     4   9  18  32  49  68  89 114 143 174 209 248
#     4   9  16  24  35  53  76  99 123 156 199 243
#     4   8  13  21  32  44  59  83 115 149 188 236
#     4   9  15  19  23  33  49  69  97 139 188 231
#
# _framework density 16.731943000000001
#
# number of rings (size 3 to 8) (size 9 to 14) (size 15 to 20)
#    0.000    3.364    0.000    1.909    0.000    5.091 
#    0.000    5.455    0.000    0.000    0.000    5.091 
#    0.000    0.000    0.000    0.000    0.000    0.000 
#
# Total GULP energy -545371.511172 kJ/mol
# GULP energy per Si atom -12394.807072 kJ/mol
# Density = 1.669386 g / cm^3
# Si number density = 16.731943 Si / 1000 Ang^3
#
#
#
# Elastic Constant Matrix: (Units=GPa)
#
#
# Indices 1 2 3 4 5 6 
#
# 1 114.0636 26.9215 87.3844 0.0000 0.0000 0.0000
# 2 26.9215 27.5312 36.7866 0.0000 0.0000 0.0000
# 3 87.3844 36.7866 148.0297 0.0000 0.0000 0.0000
# 4 0.0000 0.0000 0.0000 1.2549 0.0000 0.0000
# 5 0.0000 0.0000 0.0000 0.0000 24.5997 0.0000
# 6 0.0000 0.0000 0.0000 0.0000 0.0000 11.4586
#
#
#
# Elastic Compliance Matrix: (Units=1/GPa)
#
#
# Indices 1 2 3 4 5 6 
#
# 1 0.016392 -0.004640 -0.008523 0.000000 0.000000 0.000000
# 2 -0.004640 0.055693 -0.011101 0.000000 0.000000 0.000000
# 3 -0.008523 -0.011101 0.014545 0.000000 0.000000 0.000000
# 4 0.000000 0.000000 0.000000 0.796888 0.000000 0.000000
# 5 0.000000 0.000000 0.000000 0.000000 0.040651 0.000000
# 6 0.000000 0.000000 0.000000 0.000000 0.000000 0.087270
#
#
# Mechanical properties :
#
#
# Convention : Reuss Voigt Hill
#
# Bulk Modulus (GPa) = 26.24587 65.75662 46.00124
# Shear Modulus (GPa) = 4.66127 16.69812 10.67970
#
# Velocity S-wave (km/s) = 1.67090 3.16251 2.52916
# Velocity P-wave (km/s) = 4.40938 7.26090 6.00680
#
# Compressibility (1/GPa) = 0.03810124
#
# Stress axis : x y z
#
# Youngs Moduli (GPa) = 61.00547 17.95569 68.74981
#
# Poissons Ratio (x) = 0.08332 0.58598
# Poissons Ratio (y) = 0.28308 0.76318
# Poissons Ratio (z) = 0.51997 0.19932
#
# Static dielectric constant tensor:
#      x y z
#    x 3.327330 0.000000 0.000000 
#    y 0.000000 2.444610 0.000000 
#    z 0.000000 0.000000 3.438670 
# 
# 
# High freq. dielectric constant tensor:
#      x y z
#    x 1.648930 0.000000 0.000000 
#    y 0.000000 1.559400 0.000000 
#    z 0.000000 0.000000 1.660120 
# 
# From -- ./inp_files/73100.got.cif
#   From: 2010.03.12/outbox.cif.g09.slc.cpg/sg65_37_cif.got.tgz:73100.got - 2010.04.10 20:52:16.
