data_PCOD8274017
_publ_section_title
;
Structure prediction by ZEFSAII (Michael W. Deem and Ramdas Pophale) SiO2 
 PCOD8274017
Probable space group: C M M M
;
_chemical_formula_sum "Si O2"
_cell_formula_units_Z 104
_cell_length_a 23.450803
_cell_length_b 8.954958
_cell_length_c 28.224190
_cell_angle_alpha 90.000000
_cell_angle_beta 90.000000
_cell_angle_gamma 90.000000
_cell_volume 5927.106880
_symmetry_space_group_name_H-M "C M M M"
_symmetry_group_IT_number 65
_symmetry_cell_setting 'orthorhombic'
loop_
_space_group_symop_operation_xyz
x,y,z
-x,-y,z
x,-y,-z
-x,y,-z
-x,-y,-z
x,y,-z
-x,y,z
x,-y,z
1/2+x,1/2+y,z
1/2-x,1/2-y,z
1/2+x,1/2-y,-z
1/2-x,1/2+y,-z
1/2-x,1/2-y,-z
1/2+x,1/2+y,-z
1/2-x,1/2+y,z
1/2+x,1/2-y,z
loop_
_atom_site_type_symbol
_atom_site_label
_atom_site_fract_x
_atom_site_fract_y
_atom_site_fract_z
Si Si1 0.613043 0.670161 0.551616
Si Si2 0.000000 0.323752 0.572318
Si Si3 0.500000 0.676359 0.672853
Si Si4 0.931969 0.332161 0.000000
Si Si5 0.067874 0.832430 0.092565
Si Si6 0.108787 0.325857 0.285965
Si Si7 0.435048 0.170414 0.814288
Si Si8 0.810947 0.821678 0.641242
O O1 0.644521 0.682493 0.500000
O O2 0.594651 0.500000 0.561776
O O3 0.556823 0.769763 0.546326
O O4 0.652553 0.724708 0.594896
O O5 0.000000 0.500000 0.573939
O O6 0.000000 0.255802 0.623505
O O7 0.500000 0.500000 0.666559
O O8 0.444542 0.727726 0.699749
O O9 0.907305 0.253610 0.952963
O O10 0.909356 0.500000 0.000000
O O11 0.000000 0.324573 0.000000
O O12 0.090014 0.763078 0.141743
O O13 0.000000 0.824324 0.091990
O O14 0.090662 0.000000 0.089547
O O15 0.102481 0.500000 0.300658
O O16 0.109637 0.309653 0.228992
O O17 0.163668 0.253455 0.311155
O O18 0.500000 0.220658 0.800255
O O19 0.437129 0.000000 0.830806
O O20 0.750000 0.750000 0.632635
O O21 0.807068 0.000000 0.647515
#
# Coordination Sequence:
#
# PCOD8274017 Si02
#       8
#    16   8   8   8  16  16  16  16
#     4  10  22  40  60  82 110 141 170 206 254 304
#     4  12  23  35  56  85 114 140 171 207 247 298
#     4  12  22  33  53  80 108 138 169 204 255 312
#     4   9  15  23  35  49  73 117 166 209 250 293
#     4   9  16  24  35  55  83 118 162 209 249 291
#     4  11  21  36  56  79 105 134 169 214 259 308
#     4   9  17  29  44  66  96 128 161 201 252 304
#     4  11  24  41  60  80 103 136 174 213 255 306
#
# _framework density 17.546503000000001
#
# number of rings (size 3 to 8) (size 9 to 14) (size 15 to 20)
#    0.000    1.769    2.308    3.231    0.000    6.154 
#    0.000    0.000    0.000    0.000    0.000    0.000 
#    0.000    0.000    0.000    0.692    0.000    9.308 
#
# Total GULP energy -644585.627881 kJ/mol
# GULP energy per Si atom -12395.877459 kJ/mol
# Density = 1.750657 g / cm^3
# Si number density = 17.546503 Si / 1000 Ang^3
#
#
#
# Elastic Constant Matrix: (Units=GPa)
#
#
# Indices 1 2 3 4 5 6 
#
# 1 70.2991 36.9569 35.0526 0.0000 0.0000 0.0000
# 2 36.9569 139.7574 71.0270 0.0000 0.0000 0.0000
# 3 35.0526 71.0270 141.8086 0.0000 0.0000 0.0000
# 4 0.0000 0.0000 0.0000 29.5123 0.0000 0.0000
# 5 0.0000 0.0000 0.0000 0.0000 7.2192 0.0000
# 6 0.0000 0.0000 0.0000 0.0000 0.0000 22.6008
#
#
#
# Elastic Compliance Matrix: (Units=1/GPa)
#
#
# Indices 1 2 3 4 5 6 
#
# 1 0.017235 -0.003209 -0.002653 0.000000 0.000000 0.000000
# 2 -0.003209 0.010196 -0.004314 0.000000 0.000000 0.000000
# 3 -0.002653 -0.004314 0.009868 0.000000 0.000000 0.000000
# 4 0.000000 0.000000 0.000000 0.033884 0.000000 0.000000
# 5 0.000000 0.000000 0.000000 0.000000 0.138520 0.000000
# 6 0.000000 0.000000 0.000000 0.000000 0.000000 0.044246
#
#
# Mechanical properties :
#
#
# Convention : Reuss Voigt Hill
#
# Bulk Modulus (GPa) = 59.00522 70.88202 64.94362
# Shear Modulus (GPa) = 17.86034 25.78835 21.82434
#
# Velocity S-wave (km/s) = 3.19389 3.83784 3.53058
# Velocity P-wave (km/s) = 6.87766 7.75391 7.32889
#
# Compressibility (1/GPa) = 0.01694765
#
# Stress axis : x y z
#
# Youngs Moduli (GPa) = 58.02211 98.07592 101.33767
#
# Poissons Ratio (x) = 0.31476 0.26882
# Poissons Ratio (y) = 0.18621 0.43713
# Poissons Ratio (z) = 0.15391 0.42306
#
# Static dielectric constant tensor:
#      x y z
#    x 2.578750 0.000000 0.000000 
#    y 0.000000 3.433000 0.000000 
#    z 0.000000 0.000000 3.487050 
# 
# 
# High freq. dielectric constant tensor:
#      x y z
#    x 1.613240 0.000000 0.000000 
#    y 0.000000 1.692330 0.000000 
#    z 0.000000 0.000000 1.694230 
# 
# From -- ./inp_files/75825.got.cif
#   From: 2010.03.12/outbox.cif.g09.slc.cpg/sg65_38_cif.got.tgz:75825.got - 2010.04.10 20:52:16.
