data_PCOD8274352
_publ_section_title
;
Structure prediction by ZEFSAII (Michael W. Deem and Ramdas Pophale) SiO2 
 PCOD8274352
Probable space group: C M M M
;
_chemical_formula_sum "Si O2"
_cell_formula_units_Z 88
_cell_length_a 17.251526
_cell_length_b 14.500111
_cell_length_c 17.528882
_cell_angle_alpha 90.000000
_cell_angle_beta 90.000000
_cell_angle_gamma 90.000000
_cell_volume 4384.833038
_symmetry_space_group_name_H-M "C M M M"
_symmetry_group_IT_number 65
_symmetry_cell_setting 'orthorhombic'
loop_
_space_group_symop_operation_xyz
x,y,z
-x,-y,z
x,-y,-z
-x,y,-z
-x,-y,-z
x,y,-z
-x,y,z
x,-y,z
1/2+x,1/2+y,z
1/2-x,1/2-y,z
1/2+x,1/2-y,-z
1/2-x,1/2+y,-z
1/2-x,1/2-y,-z
1/2+x,1/2+y,-z
1/2-x,1/2+y,z
1/2+x,1/2-y,z
loop_
_atom_site_type_symbol
_atom_site_label
_atom_site_fract_x
_atom_site_fract_y
_atom_site_fract_z
Si Si1 0.915998 0.106387 0.142149
Si Si2 0.592214 0.896469 0.500000
Si Si3 0.243553 0.109438 0.084177
Si Si4 0.819071 0.605248 0.764217
Si Si5 0.908425 0.283860 0.645338
Si Si6 0.651263 0.398075 0.305450
O O1 0.843061 0.151479 0.097057
O O2 0.902875 0.115856 0.232202
O O3 0.000000 0.152568 0.121845
O O4 0.920246 0.000000 0.118732
O O5 0.500000 0.899120 0.500000
O O6 0.623118 0.844988 0.424725
O O7 0.626261 0.000000 0.500000
O O8 0.303183 0.143503 0.149565
O O9 0.237414 0.000000 0.093579
O O10 0.273232 0.138922 0.000000
O O11 0.849782 0.500000 0.765872
O O12 0.882874 0.670130 0.725379
O O13 0.740541 0.612534 0.716546
O O14 0.872196 0.181719 0.635124
O O15 0.000000 0.277066 0.643812
O O16 0.637053 0.500000 0.341109
#
# Coordination Sequence:
#
# PCOD8274352 Si02
#       6
#    16   8  16  16  16  16
#     4   8  13  22  39  65  97 134 176 219 258 297
#     4   9  20  38  56  79 111 139 169 216 268 312
#     4   8  14  25  43  69 101 137 175 216 264 314
#     4   9  18  33  53  77 106 141 180 219 260 312
#     4  11  21  34  57  82 103 135 177 219 265 314
#     4   9  18  33  52  76 108 141 173 212 259 314
#
# _framework density 20.069178999999998
#
# number of rings (size 3 to 8) (size 9 to 14) (size 15 to 20)
#    0.000    3.000    0.000    3.818    0.000    2.545 
#    0.000    4.091    0.000   13.091    0.000    2.545 
#    0.000    0.000    0.000    0.000    0.000    0.000 
#
# Total GULP energy -545253.060992 kJ/mol
# GULP energy per Si atom -12392.115023 kJ/mol
# Density = 2.002350 g / cm^3
# Si number density = 20.069179 Si / 1000 Ang^3
#
#
#
# Elastic Constant Matrix: (Units=GPa)
#
#
# Indices 1 2 3 4 5 6 
#
# 1 12.2879 19.0787 12.7390 0.0000 0.0000 0.0000
# 2 19.0787 117.8349 47.2612 0.0000 0.0000 0.0000
# 3 12.7390 47.2612 98.0388 0.0000 0.0000 0.0000
# 4 0.0000 0.0000 0.0000 11.7605 0.0000 0.0000
# 5 0.0000 0.0000 0.0000 0.0000 22.5739 0.0000
# 6 0.0000 0.0000 0.0000 0.0000 0.0000 23.6064
#
#
#
# Elastic Compliance Matrix: (Units=1/GPa)
#
#
# Indices 1 2 3 4 5 6 
#
# 1 0.112718 -0.015342 -0.007250 0.000000 0.000000 0.000000
# 2 -0.015342 0.012609 -0.004085 0.000000 0.000000 0.000000
# 3 -0.007250 -0.004085 0.013111 0.000000 0.000000 0.000000
# 4 0.000000 0.000000 0.000000 0.085031 0.000000 0.000000
# 5 0.000000 0.000000 0.000000 0.000000 0.044299 0.000000
# 6 0.000000 0.000000 0.000000 0.000000 0.000000 0.042361
#
#
# Mechanical properties :
#
#
# Convention : Reuss Voigt Hill
#
# Bulk Modulus (GPa) = 11.75318 42.92439 27.33878
# Shear Modulus (GPa) = 12.76014 21.52700 17.14357
#
# Velocity S-wave (km/s) = 2.52426 3.27867 2.92588
# Velocity P-wave (km/s) = 3.79010 5.98060 5.00662
#
# Compressibility (1/GPa) = 0.08508334
#
# Stress axis : x y z
#
# Youngs Moduli (GPa) = 8.87169 79.30945 76.27017
#
# Poissons Ratio (x) = 1.21678 0.55299
# Poissons Ratio (y) = 0.13611 0.31154
# Poissons Ratio (z) = 0.06432 0.32396
#
# Static dielectric constant tensor:
#      x y z
#    x 3.516140 0.000000 0.000000 
#    y 0.000000 3.623640 0.000000 
#    z 0.000000 0.000000 3.589470 
# 
# 
# High freq. dielectric constant tensor:
#      x y z
#    x 1.764170 0.000000 0.000000 
#    y 0.000000 1.771790 0.000000 
#    z 0.000000 0.000000 1.757960 
# 
# From -- ./inp_files/54302.got.cif
#   From: 2010.03.12/outbox.cif.g09.slc.cpg/sg65_28_cif.got.tgz:54302.got - 2010.04.10 20:52:16.
