data_PCOD8274623
_publ_section_title
;
Structure prediction by ZEFSAII (Michael W. Deem and Ramdas Pophale) SiO2 
 PCOD8274623
Probable space group: C M M M
;
_chemical_formula_sum "Si O2"
_cell_formula_units_Z 96
_cell_length_a 11.727730
_cell_length_b 17.336878
_cell_length_c 25.039965
_cell_angle_alpha 90.000000
_cell_angle_beta 90.000000
_cell_angle_gamma 90.000000
_cell_volume 5091.181378
_symmetry_space_group_name_H-M "C M M M"
_symmetry_group_IT_number 65
_symmetry_cell_setting 'orthorhombic'
loop_
_space_group_symop_operation_xyz
x,y,z
-x,-y,z
x,-y,-z
-x,y,-z
-x,-y,-z
x,y,-z
-x,y,z
x,-y,z
1/2+x,1/2+y,z
1/2-x,1/2-y,z
1/2+x,1/2-y,-z
1/2-x,1/2+y,-z
1/2-x,1/2-y,-z
1/2+x,1/2+y,-z
1/2-x,1/2+y,z
1/2+x,1/2-y,z
loop_
_atom_site_type_symbol
_atom_site_label
_atom_site_fract_x
_atom_site_fract_y
_atom_site_fract_z
Si Si1 0.000000 0.587583 0.166898
Si Si2 0.872928 0.090765 0.748013
Si Si3 0.238220 0.660842 0.845170
Si Si4 0.774281 0.339739 0.339267
Si Si5 0.500000 0.088166 0.292934
Si Si6 0.366342 0.587786 0.060513
Si Si7 0.869072 0.590058 0.439590
O O1 0.891181 0.634424 0.145885
O O2 0.000000 0.500000 0.143943
O O3 0.000000 0.584109 0.230042
O O4 0.791066 0.115246 0.795749
O O5 0.829591 0.118506 0.690354
O O6 0.000000 0.124073 0.757550
O O7 0.874941 0.000000 0.746988
O O8 0.250000 0.750000 0.830804
O O9 0.303547 0.645626 0.900130
O O10 0.750000 0.250000 0.335111
O O11 0.890507 0.364213 0.310738
O O12 0.781937 0.364565 0.401292
O O13 0.500000 0.000000 0.316414
O O14 0.500000 0.599650 0.067749
O O15 0.332961 0.500000 0.074863
O O16 0.329549 0.607102 0.000000
O O17 0.848744 0.618843 0.500000
O O18 0.842863 0.500000 0.435200
O O19 0.000000 0.606573 0.422230
#
# Coordination Sequence:
#
# PCOD8274623 Si02
#       7
#     8  16  16  16   8  16  16
#     4  11  24  40  61  89 123 164 204 239 297 372
#     4  11  24  40  60  85 118 159 201 242 290 359
#     4  12  25  37  61  89 126 157 193 253 306 351
#     4  12  24  35  60  88 124 154 193 251 305 347
#     4  11  22  40  63  83 115 166 208 237 287 366
#     4   9  19  39  66  88 112 155 205 244 287 356
#     4   9  18  35  61  88 113 150 203 250 289 350
#
# _framework density 18.856134999999998
#
# number of rings (size 3 to 8) (size 9 to 14) (size 15 to 20)
#    0.000    1.333    2.500    5.000    3.500    2.000 
#    0.000    0.417    0.000    2.000    0.000    2.333 
#    0.000    0.000    0.000    0.000    0.000    0.000 
#
# Total GULP energy -595304.525494 kJ/mol
# GULP energy per Si atom -12402.177614 kJ/mol
# Density = 1.881322 g / cm^3
# Si number density = 18.856135 Si / 1000 Ang^3
#
#
#
# Elastic Constant Matrix: (Units=GPa)
#
#
# Indices 1 2 3 4 5 6 
#
# 1 93.6889 48.1981 37.6620 0.0000 0.0000 0.0000
# 2 48.1981 97.3348 30.6160 0.0000 0.0000 0.0000
# 3 37.6620 30.6160 99.8849 0.0000 0.0000 0.0000
# 4 0.0000 0.0000 0.0000 -97.1535 0.0000 0.0000
# 5 0.0000 0.0000 0.0000 0.0000 29.8614 0.0000
# 6 0.0000 0.0000 0.0000 0.0000 0.0000 17.7543
#
#
#
# Elastic Compliance Matrix: (Units=1/GPa)
#
#
# Indices 1 2 3 4 5 6 
#
# 1 0.015573 -0.006490 -0.003883 0.000000 0.000000 0.000000
# 2 -0.006490 0.014075 -0.001867 0.000000 0.000000 0.000000
# 3 -0.003883 -0.001867 0.012048 0.000000 0.000000 0.000000
# 4 0.000000 0.000000 0.000000 -0.010293 0.000000 0.000000
# 5 0.000000 0.000000 0.000000 0.000000 0.033488 0.000000
# 6 0.000000 0.000000 0.000000 0.000000 0.000000 0.056324
#
#
# Mechanical properties :
#
#
# Convention : Reuss Voigt Hill
#
# Bulk Modulus (GPa) = 58.08481 58.20675 58.14578
# Shear Modulus (GPa) = 33.01774 1.72130 17.36952
#
# Velocity S-wave (km/s) = 4.18908 0.95647 3.03835
# Velocity P-wave (km/s) = 7.36674 5.67060 6.57360
#
# Compressibility (1/GPa) = 0.01721621
#
# Stress axis : x y z
#
# Youngs Moduli (GPa) = 64.21231 71.04836 83.00326
#
# Poissons Ratio (x) = 0.46113 0.32227
# Poissons Ratio (y) = 0.41676 0.15496
# Poissons Ratio (z) = 0.24931 0.13264
#
# Static dielectric constant tensor:
#      x y z
#    x 3.643850 0.000000 0.000000 
#    y 0.000000 3.372610 0.000000 
#    z 0.000000 0.000000 3.597380 
# 
# 
# High freq. dielectric constant tensor:
#      x y z
#    x 1.727880 0.000000 0.000000 
#    y 0.000000 1.730170 0.000000 
#    z 0.000000 0.000000 1.739370 
# 
# From -- ./inp_files/69057.got.cif
#   From: 2010.03.12/outbox.cif.g09.slc.cpg/sg65_35_cif.got.tgz:69057.got - 2010.04.10 20:52:16.
