data_PCOD8274396
_publ_section_title
;
Structure prediction by ZEFSAII (Michael W. Deem and Ramdas Pophale) SiO2 
 PCOD8274396
Probable space group: C M M M
;
_chemical_formula_sum "Si O2"
_cell_formula_units_Z 56
_cell_length_a 12.734647
_cell_length_b 30.730192
_cell_length_c 7.786784
_cell_angle_alpha 90.000000
_cell_angle_beta 90.000000
_cell_angle_gamma 90.000000
_cell_volume 3047.265624
_symmetry_space_group_name_H-M "C M M M"
_symmetry_group_IT_number 65
_symmetry_cell_setting 'orthorhombic'
loop_
_space_group_symop_operation_xyz
x,y,z
-x,-y,z
x,-y,-z
-x,y,-z
-x,-y,-z
x,y,-z
-x,y,z
x,-y,z
1/2+x,1/2+y,z
1/2-x,1/2-y,z
1/2+x,1/2-y,-z
1/2-x,1/2+y,-z
1/2-x,1/2-y,-z
1/2+x,1/2+y,-z
1/2-x,1/2+y,z
1/2+x,1/2-y,z
loop_
_atom_site_type_symbol
_atom_site_label
_atom_site_fract_x
_atom_site_fract_y
_atom_site_fract_z
Si Si1 0.317145 0.390668 0.805706
Si Si2 0.000000 0.731313 0.798151
Si Si3 0.623127 0.449251 0.500000
Si Si4 0.884092 0.652791 0.305617
Si Si5 0.500000 0.327620 0.202281
O O1 0.324306 0.430568 0.673447
O O2 0.200154 0.370927 0.813744
O O3 0.396628 0.353534 0.738383
O O4 0.345869 0.406168 0.000000
O O5 0.104035 0.704362 0.739051
O O6 0.000000 0.779402 0.713358
O O7 0.000000 0.735405 0.000000
O O8 0.646975 0.500000 0.500000
O O9 0.500000 0.438892 0.500000
O O10 0.845090 0.647566 0.500000
O O11 0.000000 0.631036 0.278592
O O12 0.500000 0.322455 0.000000
#
# Coordination Sequence:
#
# PCOD8274396 Si02
#       5
#    16   8   8  16   8
#     4  11  21  38  61  85 116 153 190 234 287 340
#     4   9  17  33  51  79 116 156 200 235 276 325
#     4  11  24  42  63  90 118 144 180 231 291 355
#     4   9  19  35  52  81 115 155 199 235 276 330
#     4   9  20  34  52  81 117 153 195 240 279 328
#
# _framework density 18.377132
#
# number of rings (size 3 to 8) (size 9 to 14) (size 15 to 20)
#    0.857    1.286    2.857    0.857    0.000    1.714 
#    5.143    7.143    0.000    1.714    0.000    2.000 
#    0.000    0.000    0.000    0.000    0.000    0.000 
#
# Total GULP energy -346996.343880 kJ/mol
# GULP energy per Si atom -12392.726567 kJ/mol
# Density = 1.833530 g / cm^3
# Si number density = 18.377132 Si / 1000 Ang^3
#
#
#
# Elastic Constant Matrix: (Units=GPa)
#
#
# Indices 1 2 3 4 5 6 
#
# 1 97.1101 47.4520 28.7179 0.0000 0.0000 0.0000
# 2 47.4520 114.4853 43.7064 0.0000 0.0000 0.0000
# 3 28.7179 43.7064 90.0648 0.0000 0.0000 0.0000
# 4 0.0000 0.0000 0.0000 25.5455 0.0000 0.0000
# 5 0.0000 0.0000 0.0000 0.0000 25.3104 0.0000
# 6 0.0000 0.0000 0.0000 0.0000 0.0000 13.4015
#
#
#
# Elastic Compliance Matrix: (Units=1/GPa)
#
#
# Indices 1 2 3 4 5 6 
#
# 1 0.013173 -0.004733 -0.001903 0.000000 0.000000 0.000000
# 2 -0.004733 0.012422 -0.004519 0.000000 0.000000 0.000000
# 3 -0.001903 -0.004519 0.013903 0.000000 0.000000 0.000000
# 4 0.000000 0.000000 0.000000 0.039146 0.000000 0.000000
# 5 0.000000 0.000000 0.000000 0.000000 0.039509 0.000000
# 6 0.000000 0.000000 0.000000 0.000000 0.000000 0.074618
#
#
# Mechanical properties :
#
#
# Convention : Reuss Voigt Hill
#
# Bulk Modulus (GPa) = 58.18385 60.15695 59.17040
# Shear Modulus (GPa) = 22.64371 24.97043 23.80707
#
# Velocity S-wave (km/s) = 3.51403 3.69016 3.60317
# Velocity P-wave (km/s) = 6.94221 7.13877 7.04118
#
# Compressibility (1/GPa) = 0.01718690
#
# Stress axis : x y z
#
# Youngs Moduli (GPa) = 75.91026 80.50390 71.92776
#
# Poissons Ratio (x) = 0.38106 0.13691
# Poissons Ratio (y) = 0.35932 0.32502
# Poissons Ratio (z) = 0.14449 0.36377
#
# Static dielectric constant tensor:
#      x y z
#    x 3.267470 0.000000 0.000000 
#    y 0.000000 3.262630 0.000000 
#    z 0.000000 0.000000 3.302210 
# 
# 
# High freq. dielectric constant tensor:
#      x y z
#    x 1.704040 0.000000 0.000000 
#    y 0.000000 1.681570 0.000000 
#    z 0.000000 0.000000 1.720890 
# 
# From -- ./inp_files/4509.got.cif
#   From: 2010.03.12/outbox.cif.g09.slc.cpg/sg65_3_cif.got.tgz:4509.got - 2010.04.10 20:52:16.
