data_PCOD8274036
_publ_section_title
;
Structure prediction by ZEFSAII (Michael W. Deem and Ramdas Pophale) SiO2 
 PCOD8274036
Probable space group: C M M M
;
_chemical_formula_sum "Si O2"
_cell_formula_units_Z 88
_cell_length_a 24.217085
_cell_length_b 15.110594
_cell_length_c 10.765563
_cell_angle_alpha 90.000000
_cell_angle_beta 90.000000
_cell_angle_gamma 90.000000
_cell_volume 3939.491337
_symmetry_space_group_name_H-M "C M M M"
_symmetry_group_IT_number 65
_symmetry_cell_setting 'orthorhombic'
loop_
_space_group_symop_operation_xyz
x,y,z
-x,-y,z
x,-y,-z
-x,y,-z
-x,-y,-z
x,y,-z
-x,y,z
x,-y,z
1/2+x,1/2+y,z
1/2-x,1/2-y,z
1/2+x,1/2-y,-z
1/2-x,1/2+y,-z
1/2-x,1/2-y,-z
1/2+x,1/2+y,-z
1/2-x,1/2+y,z
1/2+x,1/2-y,z
loop_
_atom_site_type_symbol
_atom_site_label
_atom_site_fract_x
_atom_site_fract_y
_atom_site_fract_z
Si Si1 0.671156 0.596167 0.230569
Si Si2 0.939022 0.143458 0.641813
Si Si3 0.219422 0.600424 0.359341
Si Si4 0.438149 0.177069 0.763833
Si Si5 0.934439 0.500000 0.636224
Si Si6 0.670930 0.783980 0.865581
O O1 0.678799 0.500000 0.162789
O O2 0.608315 0.597822 0.278122
O O3 0.714230 0.601212 0.344939
O O4 0.684538 0.679184 0.141675
O O5 0.929237 0.118178 0.500000
O O6 0.936999 0.249758 0.655465
O O7 0.000000 0.109886 0.685321
O O8 0.205795 0.633836 0.500000
O O9 0.196455 0.500000 0.340722
O O10 0.194575 0.664518 0.253413
O O11 0.500000 0.165510 0.819320
O O12 0.395542 0.204971 0.871017
O O13 0.414150 0.086691 0.707171
O O14 0.907363 0.500000 0.500000
O O15 0.000000 0.500000 0.625693
O O16 0.694059 0.817151 0.000000
#
# Coordination Sequence:
#
# PCOD8274036 Si02
#       6
#    16  16  16  16   8  16
#     4  10  22  40  62  88 121 161 207 256 306 364
#     4   9  17  31  54  86 124 162 199 245 303 363
#     4  10  23  43  66  93 125 163 204 249 307 373
#     4   9  19  35  54  81 119 162 204 249 302 364
#     4   9  16  28  51  83 117 155 201 249 296 355
#     4  11  25  42  63  92 124 161 208 260 310 364
#
# _framework density 22.337910999999998
#
# number of rings (size 3 to 8) (size 9 to 14) (size 15 to 20)
#    0.000    2.273    0.000    1.636    1.273   11.273 
#    0.000    2.727    0.000    1.636    0.000    5.091 
#    0.000    0.000    0.000    0.000    0.000    0.000 
#
# Total GULP energy -545131.213589 kJ/mol
# GULP energy per Si atom -12389.345763 kJ/mol
# Density = 2.228707 g / cm^3
# Si number density = 22.337911 Si / 1000 Ang^3
#
#
#
# Elastic Constant Matrix: (Units=GPa)
#
#
# Indices 1 2 3 4 5 6 
#
# 1 85.4681 26.8087 40.1192 0.0000 0.0000 0.0000
# 2 26.8087 147.1404 53.5123 0.0000 0.0000 0.0000
# 3 40.1192 53.5123 135.2544 0.0000 0.0000 0.0000
# 4 0.0000 0.0000 0.0000 12.5931 0.0000 0.0000
# 5 0.0000 0.0000 0.0000 0.0000 7.8376 0.0000
# 6 0.0000 0.0000 0.0000 0.0000 0.0000 33.0031
#
#
#
# Elastic Compliance Matrix: (Units=1/GPa)
#
#
# Indices 1 2 3 4 5 6 
#
# 1 0.013771 -0.001195 -0.003612 0.000000 0.000000 0.000000
# 2 -0.001195 0.008042 -0.002827 0.000000 0.000000 0.000000
# 3 -0.003612 -0.002827 0.009583 0.000000 0.000000 0.000000
# 4 0.000000 0.000000 0.000000 0.079409 0.000000 0.000000
# 5 0.000000 0.000000 0.000000 0.000000 0.127590 0.000000
# 6 0.000000 0.000000 0.000000 0.000000 0.000000 0.030300
#
#
# Mechanical properties :
#
#
# Convention : Reuss Voigt Hill
#
# Bulk Modulus (GPa) = 62.00619 67.63815 64.82217
# Shear Modulus (GPa) = 17.28073 27.18160 22.23117
#
# Velocity S-wave (km/s) = 2.78439 3.49210 3.15814
# Velocity P-wave (km/s) = 6.17703 6.82678 6.51002
#
# Compressibility (1/GPa) = 0.01612742
#
# Stress axis : x y z
#
# Youngs Moduli (GPa) = 72.61849 124.34306 104.34765
#
# Poissons Ratio (x) = 0.14865 0.37687
# Poissons Ratio (y) = 0.08681 0.29502
# Poissons Ratio (z) = 0.26227 0.35155
#
# Static dielectric constant tensor:
#      x y z
#    x 4.335510 0.000000 0.000000 
#    y 0.000000 4.182650 0.000000 
#    z 0.000000 0.000000 3.513910 
# 
# 
# High freq. dielectric constant tensor:
#      x y z
#    x 1.903850 0.000000 0.000000 
#    y 0.000000 1.884760 0.000000 
#    z 0.000000 0.000000 1.832990 
# 
# From -- ./inp_files/30547.got.cif
#   From: 2010.03.12/outbox.cif.g09.slc.cpg/sg65_16_cif.got.tgz:30547.got - 2010.04.10 20:52:16.
