data_PCOD8274690
_publ_section_title
;
Structure prediction by ZEFSAII (Michael W. Deem and Ramdas Pophale) SiO2 
 PCOD8274690
Probable space group: C M M M
;
_chemical_formula_sum "Si O2"
_cell_formula_units_Z 64
_cell_length_a 10.955975
_cell_length_b 17.396372
_cell_length_c 16.934691
_cell_angle_alpha 90.000000
_cell_angle_beta 90.000000
_cell_angle_gamma 90.000000
_cell_volume 3227.654167
_symmetry_space_group_name_H-M "C M M M"
_symmetry_group_IT_number 65
_symmetry_cell_setting 'orthorhombic'
loop_
_space_group_symop_operation_xyz
x,y,z
-x,-y,z
x,-y,-z
-x,y,-z
-x,-y,-z
x,y,-z
-x,y,z
x,-y,z
1/2+x,1/2+y,z
1/2-x,1/2-y,z
1/2+x,1/2-y,-z
1/2-x,1/2+y,-z
1/2-x,1/2-y,-z
1/2+x,1/2+y,-z
1/2-x,1/2+y,z
1/2+x,1/2-y,z
loop_
_atom_site_type_symbol
_atom_site_label
_atom_site_fract_x
_atom_site_fract_y
_atom_site_fract_z
Si Si1 0.000000 0.591418 0.410828
Si Si2 0.736367 0.092027 0.684027
Si Si3 0.247765 0.159728 0.854061
Si Si4 0.500000 0.416229 0.670013
Si Si5 0.860934 0.416052 0.000000
Si Si6 0.500000 0.584947 0.856655
O O1 0.123438 0.622099 0.368807
O O2 0.000000 0.500000 0.408733
O O3 0.000000 0.622783 0.500000
O O4 0.712404 0.120426 0.772331
O O5 0.868484 0.124195 0.649256
O O6 0.743413 0.000000 0.685508
O O7 0.250000 0.250000 0.841008
O O8 0.338345 0.134243 0.922287
O O9 0.115984 0.132952 0.884586
O O10 0.500000 0.500000 0.629008
O O11 0.500000 0.424642 0.763401
O O12 0.792128 0.500000 0.000000
O O13 0.000000 0.436300 0.000000
O O14 0.500000 0.500000 0.895538
#
# Coordination Sequence:
#
# PCOD8274690 Si02
#       6
#     8  16  16   8   8   8
#     4   9  18  31  52  84 115 146 189 241 291 349
#     4   9  17  32  55  78 110 150 192 238 295 361
#     4  11  23  37  58  86 116 149 198 254 299 343
#     4   7  12  26  47  73  98 133 182 229 272 332
#     4  11  25  41  57  79 119 159 197 239 293 361
#     4   9  18  36  59  78 106 147 198 240 289 360
#
# _framework density 19.828644000000001
#
# number of rings (size 3 to 8) (size 9 to 14) (size 15 to 20)
#    0.000    2.500    0.000    4.125    3.500    0.500 
#    0.000    1.875    0.000    4.500    0.000    0.000 
#    0.000    0.000    0.000    0.000    0.000    0.250 
#
# Total GULP energy -396451.392113 kJ/mol
# GULP energy per Si atom -12389.106004 kJ/mol
# Density = 1.978351 g / cm^3
# Si number density = 19.828644 Si / 1000 Ang^3
#
#
#
# Elastic Constant Matrix: (Units=GPa)
#
#
# Indices 1 2 3 4 5 6 
#
# 1 171.2884 27.6099 65.7706 0.0000 0.0000 0.0000
# 2 27.6099 60.9886 11.8258 0.0000 0.0000 0.0000
# 3 65.7706 11.8258 107.8354 0.0000 0.0000 0.0000
# 4 0.0000 0.0000 0.0000 7.8069 0.0000 0.0000
# 5 0.0000 0.0000 0.0000 0.0000 19.2646 0.0000
# 6 0.0000 0.0000 0.0000 0.0000 0.0000 14.9757
#
#
#
# Elastic Compliance Matrix: (Units=1/GPa)
#
#
# Indices 1 2 3 4 5 6 
#
# 1 0.008051 -0.002751 -0.004609 0.000000 0.000000 0.000000
# 2 -0.002751 0.017693 -0.000262 0.000000 0.000000 0.000000
# 3 -0.004609 -0.000262 0.012113 0.000000 0.000000 0.000000
# 4 0.000000 0.000000 0.000000 0.128092 0.000000 0.000000
# 5 0.000000 0.000000 0.000000 0.000000 0.051909 0.000000
# 6 0.000000 0.000000 0.000000 0.000000 0.000000 0.066775
#
#
# Mechanical properties :
#
#
# Convention : Reuss Voigt Hill
#
# Bulk Modulus (GPa) = 44.22322 61.16945 52.69634
# Shear Modulus (GPa) = 16.26466 24.06985 20.16725
#
# Velocity S-wave (km/s) = 2.86713 3.48788 3.19262
# Velocity P-wave (km/s) = 5.77163 6.86559 6.34224
#
# Compressibility (1/GPa) = 0.02261255
#
# Stress axis : x y z
#
# Youngs Moduli (GPa) = 124.20398 56.52003 82.55464
#
# Poissons Ratio (x) = 0.15550 0.38049
# Poissons Ratio (y) = 0.34171 0.02165
# Poissons Ratio (z) = 0.57244 0.01482
#
# Static dielectric constant tensor:
#      x y z
#    x 4.320910 0.000000 0.000000 
#    y 0.000000 3.269430 0.000000 
#    z 0.000000 0.000000 3.336680 
# 
# 
# High freq. dielectric constant tensor:
#      x y z
#    x 1.794290 0.000000 0.000000 
#    y 0.000000 1.740080 0.000000 
#    z 0.000000 0.000000 1.745020 
# 
# From -- ./inp_files/37846.got.cif
#   From: 2010.03.12/outbox.cif.g09.slc.cpg/sg65_19_cif.got.tgz:37846.got - 2010.04.10 20:52:16.
