data_PCOD8274068
_publ_section_title
;
Structure prediction by ZEFSAII (Michael W. Deem and Ramdas Pophale) SiO2 
 PCOD8274068
Probable space group: C M M M
;
_chemical_formula_sum "Si O2"
_cell_formula_units_Z 56
_cell_length_a 10.308239
_cell_length_b 18.397858
_cell_length_c 14.137202
_cell_angle_alpha 90.000000
_cell_angle_beta 90.000000
_cell_angle_gamma 90.000000
_cell_volume 2681.113536
_symmetry_space_group_name_H-M "C M M M"
_symmetry_group_IT_number 65
_symmetry_cell_setting 'orthorhombic'
loop_
_space_group_symop_operation_xyz
x,y,z
-x,-y,z
x,-y,-z
-x,y,-z
-x,-y,-z
x,y,-z
-x,y,z
x,-y,z
1/2+x,1/2+y,z
1/2-x,1/2-y,z
1/2+x,1/2-y,-z
1/2-x,1/2+y,-z
1/2-x,1/2-y,-z
1/2+x,1/2+y,-z
1/2-x,1/2+y,z
1/2+x,1/2-y,z
loop_
_atom_site_type_symbol
_atom_site_label
_atom_site_fract_x
_atom_site_fract_y
_atom_site_fract_z
Si Si1 0.737401 0.585430 0.268355
Si Si2 0.642938 0.192348 0.392499
Si Si3 0.500000 0.585570 0.396634
Si Si4 0.349492 0.313934 0.109756
O O1 0.762870 0.500000 0.259859
O O2 0.859258 0.625109 0.317757
O O3 0.625418 0.609715 0.340195
O O4 0.697765 0.614477 0.165158
O O5 0.670726 0.165286 0.500000
O O6 0.500000 0.228527 0.386803
O O7 0.750000 0.250000 0.358755
O O8 0.500000 0.500000 0.408092
O O9 0.500000 0.623348 0.500000
O O10 0.500000 0.293153 0.133445
O O11 0.250000 0.250000 0.138292
O O12 0.335603 0.333331 0.000000
#
# Coordination Sequence:
#
# PCOD8274068 Si02
#       4
#    16  16   8  16
#     4  11  22  36  59  90 122 160 200 247 307 366
#     4  10  23  41  61  87 121 163 209 255 302 358
#     4   9  18  32  51  81 119 157 193 232 284 350
#     4  10  22  41  64  89 118 156 205 258 311 369
#
# _framework density 20.886844
#
# number of rings (size 3 to 8) (size 9 to 14) (size 15 to 20)
#    0.000    1.857    1.429    1.714    2.000    6.286 
#    0.000    2.857    0.000    0.000    0.000    6.000 
#    0.000    0.000    0.000    0.000    0.000    0.000 
#
# Total GULP energy -347095.998137 kJ/mol
# GULP energy per Si atom -12396.285648 kJ/mol
# Density = 2.083930 g / cm^3
# Si number density = 20.886844 Si / 1000 Ang^3
#
#
#
# Elastic Constant Matrix: (Units=GPa)
#
#
# Indices 1 2 3 4 5 6 
#
# 1 118.9472 57.8352 36.4662 0.0000 0.0000 0.0000
# 2 57.8352 127.6429 59.0531 0.0000 0.0000 0.0000
# 3 36.4662 59.0531 105.9167 0.0000 0.0000 0.0000
# 4 0.0000 0.0000 0.0000 38.1487 0.0000 0.0000
# 5 0.0000 0.0000 0.0000 0.0000 30.1354 0.0000
# 6 0.0000 0.0000 0.0000 0.0000 0.0000 27.3841
#
#
#
# Elastic Compliance Matrix: (Units=1/GPa)
#
#
# Indices 1 2 3 4 5 6 
#
# 1 0.010924 -0.004325 -0.001349 0.000000 0.000000 0.000000
# 2 -0.004325 0.012270 -0.005352 0.000000 0.000000 0.000000
# 3 -0.001349 -0.005352 0.012890 0.000000 0.000000 0.000000
# 4 0.000000 0.000000 0.000000 0.026213 0.000000 0.000000
# 5 0.000000 0.000000 0.000000 0.000000 0.033184 0.000000
# 6 0.000000 0.000000 0.000000 0.000000 0.000000 0.036518
#
#
# Mechanical properties :
#
#
# Convention : Reuss Voigt Hill
#
# Bulk Modulus (GPa) = 71.27317 73.24619 72.25968
# Shear Modulus (GPa) = 31.50025 32.41044 31.95535
#
# Velocity S-wave (km/s) = 3.88769 3.94346 3.91567
# Velocity P-wave (km/s) = 7.37223 7.47520 7.42389
#
# Compressibility (1/GPa) = 0.01403053
#
# Stress axis : x y z
#
# Youngs Moduli (GPa) = 91.54254 81.49808 77.57972
#
# Poissons Ratio (x) = 0.35250 0.10469
# Poissons Ratio (y) = 0.39595 0.41521
# Poissons Ratio (z) = 0.12353 0.43618
#
# Static dielectric constant tensor:
#      x y z
#    x 3.942290 0.000000 0.000000 
#    y 0.000000 3.470360 0.000000 
#    z 0.000000 0.000000 3.877420 
# 
# 
# High freq. dielectric constant tensor:
#      x y z
#    x 1.821270 0.000000 0.000000 
#    y 0.000000 1.801980 0.000000 
#    z 0.000000 0.000000 1.827400 
# 
# From -- ./inp_files/35440.got.cif
#   From: 2010.03.12/outbox.cif.g09.slc.cpg/sg65_18_cif.got.tgz:35440.got - 2010.04.10 20:52:16.
