data_PCOD8274544
_publ_section_title
;
Structure prediction by ZEFSAII (Michael W. Deem and Ramdas Pophale) SiO2 
 PCOD8274544
Probable space group: C M M M
;
_chemical_formula_sum "Si O2"
_cell_formula_units_Z 96
_cell_length_a 8.906228
_cell_length_b 19.513261
_cell_length_c 30.720836
_cell_angle_alpha 90.000000
_cell_angle_beta 90.000000
_cell_angle_gamma 90.000000
_cell_volume 5338.960310
_symmetry_space_group_name_H-M "C M M M"
_symmetry_group_IT_number 65
_symmetry_cell_setting 'orthorhombic'
loop_
_space_group_symop_operation_xyz
x,y,z
-x,-y,z
x,-y,-z
-x,y,-z
-x,-y,-z
x,y,-z
-x,y,z
x,-y,z
1/2+x,1/2+y,z
1/2-x,1/2-y,z
1/2+x,1/2-y,-z
1/2-x,1/2+y,-z
1/2-x,1/2-y,-z
1/2+x,1/2+y,-z
1/2-x,1/2+y,z
1/2+x,1/2-y,z
loop_
_atom_site_type_symbol
_atom_site_label
_atom_site_fract_x
_atom_site_fract_y
_atom_site_fract_z
Si Si1 0.321458 0.178045 0.293905
Si Si2 0.171190 0.420498 0.550221
Si Si3 0.832011 0.581398 0.953012
Si Si4 0.665244 0.418728 0.870129
Si Si5 0.822206 0.178548 0.385152
Si Si6 0.175431 0.919995 0.226227
O O1 0.500000 0.185246 0.298060
O O2 0.250000 0.250000 0.279090
O O3 0.251750 0.154969 0.339867
O O4 0.280397 0.120922 0.258914
O O5 0.202401 0.403432 0.500000
O O6 0.200103 0.500000 0.559657
O O7 0.288068 0.378010 0.578701
O O8 0.000000 0.401018 0.562351
O O9 0.830627 0.500000 0.948567
O O10 0.752848 0.614671 0.910872
O O11 0.000000 0.609607 0.952520
O O12 0.757586 0.601849 0.000000
O O13 0.500000 0.387349 0.872803
O O14 0.659120 0.500000 0.874928
O O15 0.732551 0.400757 0.822612
O O16 0.750000 0.250000 0.400558
O O17 0.000000 0.186890 0.379232
O O18 0.000000 0.900873 0.231975
O O19 0.199255 0.000000 0.235471
#
# Coordination Sequence:
#
# PCOD8274544 Si02
#       6
#    16  16  16  16  16  16
#     4  11  22  37  56  76 101 132 168 209 253 301
#     4   9  19  37  59  82 110 142 174 210 251 294
#     4   8  13  20  30  47  75 112 151 190 233 281
#     4   8  14  24  38  57  83 116 152 192 237 284
#     4  11  22  37  57  79 105 136 171 211 253 298
#     4   9  18  33  51  72 100 131 164 204 250 298
#
# _framework density 17.981027999999998
#
# number of rings (size 3 to 8) (size 9 to 14) (size 15 to 20)
#    0.000    2.667    0.000    6.000    0.000    3.000 
#    0.000    4.167    0.000    0.000    0.000    0.000 
#    0.000    0.667    0.000    2.167    0.000    4.833 
#
# Total GULP energy -594891.586684 kJ/mol
# GULP energy per Si atom -12393.574723 kJ/mol
# Density = 1.794010 g / cm^3
# Si number density = 17.981028 Si / 1000 Ang^3
#
#
#
# Elastic Constant Matrix: (Units=GPa)
#
#
# Indices 1 2 3 4 5 6 
#
# 1 118.8171 38.7457 65.1128 0.0000 0.0000 0.0000
# 2 38.7457 48.7777 57.0776 0.0000 0.0000 0.0000
# 3 65.1128 57.0776 130.6328 0.0000 0.0000 0.0000
# 4 0.0000 0.0000 0.0000 -6.4917 0.0000 0.0000
# 5 0.0000 0.0000 0.0000 0.0000 34.3061 0.0000
# 6 0.0000 0.0000 0.0000 0.0000 0.0000 22.0157
#
#
#
# Elastic Compliance Matrix: (Units=1/GPa)
#
#
# Indices 1 2 3 4 5 6 
#
# 1 0.012208 -0.005272 -0.003781 0.000000 0.000000 0.000000
# 2 -0.005272 0.044226 -0.016696 0.000000 0.000000 0.000000
# 3 -0.003781 -0.016696 0.016835 0.000000 0.000000 0.000000
# 4 0.000000 0.000000 0.000000 -0.154042 0.000000 0.000000
# 5 0.000000 0.000000 0.000000 0.000000 0.029149 0.000000
# 6 0.000000 0.000000 0.000000 0.000000 0.000000 0.045422
#
#
# Mechanical properties :
#
#
# Convention : Reuss Voigt Hill
#
# Bulk Modulus (GPa) = 45.93563 68.89999 57.41781
# Shear Modulus (GPa) = 95.14382 19.11878 57.13130
#
# Velocity S-wave (km/s) = 7.28205 3.26433 5.64288
# Velocity P-wave (km/s) = 9.81359 7.25321 8.62890
#
# Compressibility (1/GPa) = 0.02176960
#
# Stress axis : x y z
#
# Youngs Moduli (GPa) = 81.91543 22.61131 59.40168
#
# Poissons Ratio (x) = 0.11922 0.22461
# Poissons Ratio (y) = 0.43189 0.99174
# Poissons Ratio (z) = 0.30973 0.37751
#
# Static dielectric constant tensor:
#      x y z
#    x 3.389490 0.000000 0.000000 
#    y 0.000000 2.895680 0.000000 
#    z 0.000000 0.000000 3.579950 
# 
# 
# High freq. dielectric constant tensor:
#      x y z
#    x 1.693660 0.000000 0.000000 
#    y 0.000000 1.649630 0.000000 
#    z 0.000000 0.000000 1.713190 
# 
# From -- ./inp_files/73180.got.cif
#   From: 2010.03.12/outbox.cif.g09.slc.cpg/sg65_37_cif.got.tgz:73180.got - 2010.04.10 20:52:16.
