data_PCOD8274774
_publ_section_title
;
Structure prediction by ZEFSAII (Michael W. Deem and Ramdas Pophale) SiO2 
 PCOD8274774
Probable space group: C M M M
;
_chemical_formula_sum "Si O2"
_cell_formula_units_Z 80
_cell_length_a 14.685681
_cell_length_b 17.572713
_cell_length_c 15.223124
_cell_angle_alpha 90.000000
_cell_angle_beta 90.000000
_cell_angle_gamma 90.000000
_cell_volume 3928.589860
_symmetry_space_group_name_H-M "C M M M"
_symmetry_group_IT_number 65
_symmetry_cell_setting 'orthorhombic'
loop_
_space_group_symop_operation_xyz
x,y,z
-x,-y,z
x,-y,-z
-x,y,-z
-x,-y,-z
x,y,-z
-x,y,z
x,-y,z
1/2+x,1/2+y,z
1/2-x,1/2-y,z
1/2+x,1/2-y,-z
1/2-x,1/2+y,-z
1/2-x,1/2-y,-z
1/2+x,1/2+y,-z
1/2-x,1/2+y,z
1/2+x,1/2-y,z
loop_
_atom_site_type_symbol
_atom_site_label
_atom_site_fract_x
_atom_site_fract_y
_atom_site_fract_z
Si Si1 0.395603 0.581912 0.352188
Si Si2 0.604113 0.194505 0.776185
Si Si3 0.107871 0.242184 0.596202
Si Si4 0.714623 0.912162 0.902840
Si Si5 0.100609 0.136353 0.841311
O O1 0.500000 0.578740 0.381954
O O2 0.349814 0.500000 0.378839
O O3 0.350051 0.656356 0.397514
O O4 0.388201 0.589923 0.248005
O O5 0.500000 0.165495 0.775623
O O6 0.642655 0.203974 0.675663
O O7 0.665246 0.133801 0.826174
O O8 0.612879 0.274137 0.825335
O O9 0.133517 0.276122 0.500000
O O10 0.000000 0.234784 0.609732
O O11 0.821843 0.892441 0.906953
O O12 0.699202 0.000000 0.881212
O O13 0.675142 0.892726 0.000000
O O14 0.000000 0.121288 0.881733
#
# Coordination Sequence:
#
# PCOD8274774 Si02
#       5
#    16  16  16  16  16
#     4   8  13  22  40  69 105 143 176 207 254 315
#     4   9  19  36  57  80 108 145 184 222 267 317
#     4   8  14  26  47  76 106 137 178 224 267 314
#     4  11  24  38  54  79 108 141 182 226 275 330
#     4   9  18  34  56  80 107 141 180 221 266 319
#
# _framework density 20.363541999999999
#
# number of rings (size 3 to 8) (size 9 to 14) (size 15 to 20)
#    0.000    3.000    0.000    3.600    0.000    4.400 
#    0.000    6.000    0.000   10.200    0.000    2.800 
#    0.000    0.000    0.000    0.000    0.000    0.200 
#
# Total GULP energy -495541.950468 kJ/mol
# GULP energy per Si atom -12388.548762 kJ/mol
# Density = 2.031719 g / cm^3
# Si number density = 20.363542 Si / 1000 Ang^3
#
#
#
# Elastic Constant Matrix: (Units=GPa)
#
#
# Indices 1 2 3 4 5 6 
#
# 1 61.3851 40.8420 38.6046 0.0000 0.0000 0.0000
# 2 40.8420 101.5741 77.3829 0.0000 0.0000 0.0000
# 3 38.6046 77.3829 130.2091 0.0000 0.0000 0.0000
# 4 0.0000 0.0000 0.0000 22.2050 0.0000 0.0000
# 5 0.0000 0.0000 0.0000 0.0000 14.2624 0.0000
# 6 0.0000 0.0000 0.0000 0.0000 0.0000 22.1301
#
#
#
# Elastic Compliance Matrix: (Units=1/GPa)
#
#
# Indices 1 2 3 4 5 6 
#
# 1 0.022637 -0.007289 -0.002379 0.000000 0.000000 0.000000
# 2 -0.007289 0.020338 -0.009925 0.000000 0.000000 0.000000
# 3 -0.002379 -0.009925 0.014284 0.000000 0.000000 0.000000
# 4 0.000000 0.000000 0.000000 0.045035 0.000000 0.000000
# 5 0.000000 0.000000 0.000000 0.000000 0.070115 0.000000
# 6 0.000000 0.000000 0.000000 0.000000 0.000000 0.045187
#
#
# Mechanical properties :
#
#
# Convention : Reuss Voigt Hill
#
# Bulk Modulus (GPa) = 55.33975 67.42526 61.38251
# Shear Modulus (GPa) = 19.02537 20.80874 19.91706
#
# Velocity S-wave (km/s) = 3.05993 3.20013 3.13081
# Velocity P-wave (km/s) = 6.30231 6.84376 6.57861
#
# Compressibility (1/GPa) = 0.01807019
#
# Stress axis : x y z
#
# Youngs Moduli (GPa) = 44.17567 49.17015 70.00832
#
# Poissons Ratio (x) = 0.35842 0.16657
# Poissons Ratio (y) = 0.32201 0.69486
# Poissons Ratio (z) = 0.10511 0.48803
#
# Static dielectric constant tensor:
#      x y z
#    x 3.431110 0.000000 0.000000 
#    y 0.000000 3.636950 0.000000 
#    z 0.000000 0.000000 3.629730 
# 
# 
# High freq. dielectric constant tensor:
#      x y z
#    x 1.760790 0.000000 0.000000 
#    y 0.000000 1.784410 0.000000 
#    z 0.000000 0.000000 1.790000 
# 
# From -- ./inp_files/52869.got.cif
#   From: 2010.03.12/outbox.cif.g09.slc.cpg/sg65_27_cif.got.tgz:52869.got - 2010.04.10 20:52:16.
