data_PCOD8274302
_publ_section_title
;
Structure prediction by ZEFSAII (Michael W. Deem and Ramdas Pophale) SiO2 
 PCOD8274302
Probable space group: C M M M
;
_chemical_formula_sum "Si O2"
_cell_formula_units_Z 88
_cell_length_a 28.408764
_cell_length_b 8.902067
_cell_length_c 23.756767
_cell_angle_alpha 90.000000
_cell_angle_beta 90.000000
_cell_angle_gamma 90.000000
_cell_volume 6008.008464
_symmetry_space_group_name_H-M "C M M M"
_symmetry_group_IT_number 65
_symmetry_cell_setting 'orthorhombic'
loop_
_space_group_symop_operation_xyz
x,y,z
-x,-y,z
x,-y,-z
-x,y,-z
-x,-y,-z
x,y,-z
-x,y,z
x,-y,z
1/2+x,1/2+y,z
1/2-x,1/2-y,z
1/2+x,1/2-y,-z
1/2-x,1/2+y,-z
1/2-x,1/2-y,-z
1/2+x,1/2+y,-z
1/2-x,1/2+y,z
1/2+x,1/2-y,z
loop_
_atom_site_type_symbol
_atom_site_label
_atom_site_fract_x
_atom_site_fract_y
_atom_site_fract_z
Si Si1 0.199069 0.323972 0.667426
Si Si2 0.446840 0.673187 0.065799
Si Si3 0.198831 0.821478 0.000000
Si Si4 0.700093 0.174538 0.790725
Si Si5 0.800939 0.175214 0.561045
Si Si6 0.143229 0.676315 0.101267
O O1 0.202440 0.500000 0.656772
O O2 0.250000 0.250000 0.667845
O O3 0.177438 0.287027 0.729162
O O4 0.170812 0.249765 0.614212
O O5 0.500000 0.714845 0.083568
O O6 0.436174 0.500000 0.079675
O O7 0.411657 0.779133 0.100495
O O8 0.439370 0.703577 0.000000
O O9 0.250000 0.750000 0.000000
O O10 0.171125 0.770074 0.945008
O O11 0.203203 0.000000 0.000000
O O12 0.750000 0.250000 0.802144
O O13 0.662808 0.223921 0.837764
O O14 0.710985 0.000000 0.794543
O O15 0.826117 0.202845 0.500000
O O16 0.750000 0.250000 0.558343
O O17 0.795292 0.000000 0.572822
O O18 0.149176 0.500000 0.089219
#
# Coordination Sequence:
#
# PCOD8274302 Si02
#       6
#    16  16   8  16  16  16
#     4   9  15  24  36  49  68  95 127 162 197 231
#     4   9  18  33  51  69  88 107 128 160 203 248
#     4  12  24  36  47  62  85 110 138 171 207 243
#     4   9  19  31  42  58  80 106 137 171 202 237
#     4   9  15  21  30  46  67  90 120 160 200 233
#     4  11  21  33  48  67  86 106 135 168 206 249
#
# _framework density 14.647116
#
# number of rings (size 3 to 8) (size 9 to 14) (size 15 to 20)
#    0.000    2.364    0.909    4.636    0.000    5.091 
#    0.000    0.909    0.000    0.000    0.000    0.000 
#    0.000    0.000    0.000    0.000    0.000    0.909 
#
# Total GULP energy -545159.569038 kJ/mol
# GULP energy per Si atom -12389.990205 kJ/mol
# Density = 1.461378 g / cm^3
# Si number density = 14.647116 Si / 1000 Ang^3
#
#
#
# Elastic Constant Matrix: (Units=GPa)
#
#
# Indices 1 2 3 4 5 6 
#
# 1 62.9654 29.2105 42.5382 0.0000 0.0000 0.0000
# 2 29.2105 82.1741 57.3722 0.0000 0.0000 0.0000
# 3 42.5382 57.3722 144.4546 0.0000 0.0000 0.0000
# 4 0.0000 0.0000 0.0000 21.6444 0.0000 0.0000
# 5 0.0000 0.0000 0.0000 0.0000 2.2755 0.0000
# 6 0.0000 0.0000 0.0000 0.0000 0.0000 18.9685
#
#
#
# Elastic Compliance Matrix: (Units=1/GPa)
#
#
# Indices 1 2 3 4 5 6 
#
# 1 0.020883 -0.004331 -0.004430 0.000000 0.000000 0.000000
# 2 -0.004331 0.017737 -0.005769 0.000000 0.000000 0.000000
# 3 -0.004430 -0.005769 0.010518 0.000000 0.000000 0.000000
# 4 0.000000 0.000000 0.000000 0.046201 0.000000 0.000000
# 5 0.000000 0.000000 0.000000 0.000000 0.439469 0.000000
# 6 0.000000 0.000000 0.000000 0.000000 0.000000 0.052719
#
#
# Mechanical properties :
#
#
# Convention : Reuss Voigt Hill
#
# Bulk Modulus (GPa) = 49.80228 60.87062 55.33645
# Shear Modulus (GPa) = 8.02209 19.27588 13.64898
#
# Velocity S-wave (km/s) = 2.34282 3.63163 3.05594
# Velocity P-wave (km/s) = 6.43379 7.69632 7.09320
#
# Compressibility (1/GPa) = 0.02007940
#
# Stress axis : x y z
#
# Youngs Moduli (GPa) = 47.88495 56.38072 95.07294
#
# Poissons Ratio (x) = 0.24417 0.42113
# Poissons Ratio (y) = 0.20738 0.54848
# Poissons Ratio (z) = 0.21211 0.32526
#
# Static dielectric constant tensor:
#      x y z
#    x 2.538050 0.000000 0.000000 
#    y 0.000000 2.966150 0.000000 
#    z 0.000000 0.000000 4.064890 
# 
# 
# High freq. dielectric constant tensor:
#      x y z
#    x 1.495910 0.000000 0.000000 
#    y 0.000000 1.575800 0.000000 
#    z 0.000000 0.000000 1.572270 
# 
# From -- ./inp_files/68403.got.cif
#   From: 2010.03.12/outbox.cif.g09.slc.cpg/sg65_35_cif.got.tgz:68403.got - 2010.04.10 20:52:16.
