data_PCOD8274244
_publ_section_title
;
Structure prediction by ZEFSAII (Michael W. Deem and Ramdas Pophale) SiO2 
 PCOD8274244
Probable space group: C M M M
;
_chemical_formula_sum "Si O2"
_cell_formula_units_Z 96
_cell_length_a 16.685451
_cell_length_b 19.938382
_cell_length_c 15.518215
_cell_angle_alpha 90.000000
_cell_angle_beta 90.000000
_cell_angle_gamma 90.000000
_cell_volume 5162.613669
_symmetry_space_group_name_H-M "C M M M"
_symmetry_group_IT_number 65
_symmetry_cell_setting 'orthorhombic'
loop_
_space_group_symop_operation_xyz
x,y,z
-x,-y,z
x,-y,-z
-x,y,-z
-x,-y,-z
x,y,-z
-x,y,z
x,-y,z
1/2+x,1/2+y,z
1/2-x,1/2-y,z
1/2+x,1/2-y,-z
1/2-x,1/2+y,-z
1/2-x,1/2-y,-z
1/2+x,1/2+y,-z
1/2-x,1/2+y,z
1/2+x,1/2-y,z
loop_
_atom_site_type_symbol
_atom_site_label
_atom_site_fract_x
_atom_site_fract_y
_atom_site_fract_z
Si Si1 0.225733 0.925193 0.125621
Si Si2 0.092753 0.244860 0.260772
Si Si3 0.409930 0.500000 0.398658
Si Si4 0.813483 0.111855 0.308013
Si Si5 0.824729 0.702662 0.096548
Si Si6 0.812043 0.310427 0.403825
Si Si7 0.410669 0.421354 0.000000
O O1 0.215530 0.931084 0.227353
O O2 0.297183 0.874810 0.101120
O O3 0.246785 0.000000 0.090712
O O4 0.141564 0.899613 0.083439
O O5 0.144914 0.178198 0.270771
O O6 0.109556 0.281580 0.169453
O O7 0.114301 0.294120 0.340168
O O8 0.000000 0.226226 0.265758
O O9 0.500000 0.500000 0.365569
O O10 0.402587 0.500000 0.500000
O O11 0.372858 0.568548 0.364854
O O12 0.735948 0.126266 0.366499
O O13 0.750000 0.750000 0.117401
O O14 0.858787 0.716837 0.000000
O O15 0.845144 0.326089 0.500000
O O16 0.750000 0.250000 0.408096
O O17 0.424722 0.500000 0.000000
O O18 0.500000 0.387077 0.000000
#
# Coordination Sequence:
#
# PCOD8274244 Si02
#       7
#    16  16   8  16  16  16   8
#     4  11  20  35  58  83 111 151 192 238 283 345
#     4  11  22  36  56  83 117 151 193 246 295 343
#     4  11  24  38  54  85 126 160 191 229 280 346
#     4  11  20  37  56  81 114 155 194 226 280 342
#     4  11  21  38  59  81 114 154 196 243 288 345
#     4   9  18  34  57  79 104 141 189 238 283 341
#     4   9  20  34  49  80 121 151 185 228 277 339
#
# _framework density 18.595233
#
# number of rings (size 3 to 8) (size 9 to 14) (size 15 to 20)
#    0.000    1.500    5.000    1.500    0.000    2.667 
#    0.000    0.000    0.000    0.500    0.000    1.167 
#    0.000    3.333    0.000    0.000    0.000    0.000 
#
# Total GULP energy -595079.200518 kJ/mol
# GULP energy per Si atom -12397.483344 kJ/mol
# Density = 1.855291 g / cm^3
# Si number density = 18.595233 Si / 1000 Ang^3
#
#
#
# Elastic Constant Matrix: (Units=GPa)
#
#
# Indices 1 2 3 4 5 6 
#
# 1 38.9581 18.1660 23.9392 0.0000 0.0000 0.0000
# 2 18.1660 76.8250 14.6723 0.0000 0.0000 0.0000
# 3 23.9392 14.6723 94.2138 0.0000 0.0000 0.0000
# 4 0.0000 0.0000 0.0000 23.4902 0.0000 0.0000
# 5 0.0000 0.0000 0.0000 0.0000 21.5641 0.0000
# 6 0.0000 0.0000 0.0000 0.0000 0.0000 11.8326
#
#
#
# Elastic Compliance Matrix: (Units=1/GPa)
#
#
# Indices 1 2 3 4 5 6 
#
# 1 0.033246 -0.006439 -0.007445 0.000000 0.000000 0.000000
# 2 -0.006439 0.014663 -0.000647 0.000000 0.000000 0.000000
# 3 -0.007445 -0.000647 0.012607 0.000000 0.000000 0.000000
# 4 0.000000 0.000000 0.000000 0.042571 0.000000 0.000000
# 5 0.000000 0.000000 0.000000 0.000000 0.046373 0.000000
# 6 0.000000 0.000000 0.000000 0.000000 0.000000 0.084512
#
#
# Mechanical properties :
#
#
# Convention : Reuss Voigt Hill
#
# Bulk Modulus (GPa) = 31.79405 35.95022 33.87213
# Shear Modulus (GPa) = 18.28023 21.59200 19.93611
#
# Velocity S-wave (km/s) = 3.13878 3.41127 3.27786
# Velocity P-wave (km/s) = 5.50191 5.90684 5.70796
#
# Compressibility (1/GPa) = 0.03145243
#
# Stress axis : x y z
#
# Youngs Moduli (GPa) = 30.07883 68.19937 79.32330
#
# Poissons Ratio (x) = 0.43917 0.59054
# Poissons Ratio (y) = 0.19369 0.05134
# Poissons Ratio (z) = 0.22393 0.04414
#
# Static dielectric constant tensor:
#      x y z
#    x 3.162480 0.000000 0.000000 
#    y 0.000000 3.314580 0.000000 
#    z 0.000000 0.000000 3.757200 
# 
# 
# High freq. dielectric constant tensor:
#      x y z
#    x 1.681820 0.000000 0.000000 
#    y 0.000000 1.711830 0.000000 
#    z 0.000000 0.000000 1.745990 
# 
# From -- ./inp_files/40419.got.cif
#   From: 2010.03.12/outbox.cif.g09.slc.cpg/sg65_21_cif.got.tgz:40419.got - 2010.04.10 20:52:16.
