data_PCOD8274967
_publ_section_title
;
Structure prediction by ZEFSAII (Michael W. Deem and Ramdas Pophale) SiO2 
 PCOD8274967
Probable space group: C M M M
;
_chemical_formula_sum "Si O2"
_cell_formula_units_Z 96
_cell_length_a 27.034295
_cell_length_b 32.183345
_cell_length_c 9.165376
_cell_angle_alpha 90.000000
_cell_angle_beta 90.000000
_cell_angle_gamma 90.000000
_cell_volume 7974.372443
_symmetry_space_group_name_H-M "C M M M"
_symmetry_group_IT_number 65
_symmetry_cell_setting 'orthorhombic'
loop_
_space_group_symop_operation_xyz
x,y,z
-x,-y,z
x,-y,-z
-x,y,-z
-x,-y,-z
x,y,-z
-x,y,z
x,-y,z
1/2+x,1/2+y,z
1/2-x,1/2-y,z
1/2+x,1/2-y,-z
1/2-x,1/2+y,-z
1/2-x,1/2-y,-z
1/2+x,1/2+y,-z
1/2-x,1/2+y,z
1/2+x,1/2-y,z
loop_
_atom_site_type_symbol
_atom_site_label
_atom_site_fract_x
_atom_site_fract_y
_atom_site_fract_z
Si Si1 0.382657 0.377042 0.829328
Si Si2 0.281386 0.208013 0.834924
Si Si3 0.556760 0.704944 0.830705
Si Si4 0.944756 0.953873 0.826864
Si Si5 0.799639 0.834582 0.664871
Si Si6 0.362210 0.749236 0.664672
O O1 0.421467 0.340423 0.797343
O O2 0.406774 0.419442 0.767075
O O3 0.331560 0.370230 0.743548
O O4 0.369998 0.379681 0.000000
O O5 0.250000 0.250000 0.834389
O O6 0.251567 0.171788 0.751515
O O7 0.333490 0.214999 0.753386
O O8 0.291832 0.193489 0.000000
O O9 0.500000 0.705041 0.781138
O O10 0.585193 0.740301 0.739905
O O11 0.562862 0.715978 0.000000
O O12 0.000000 0.945618 0.764962
O O13 0.926787 0.000000 0.779690
O O14 0.946918 0.950237 0.000000
O O15 0.787659 0.848438 0.500000
O O16 0.829908 0.792145 0.666595
O O17 0.371038 0.764763 0.500000
#
# Coordination Sequence:
#
# PCOD8274967 Si02
#       6
#    16  16  16  16  16  16
#     4   9  15  23  35  49  63  79 101 129 161 196
#     4   9  15  23  35  48  61  77  97 120 146 179
#     4   9  16  24  33  45  61  81 105 132 160 189
#     4   8  13  21  34  51  66  79 100 132 166 197
#     4   9  16  24  33  46  63  80  97 119 150 187
#     4   9  16  24  33  45  61  80 100 122 150 184
#
# _framework density 12.038565
#
# number of rings (size 3 to 8) (size 9 to 14) (size 15 to 20)
#    0.000    3.167    0.000    2.500    0.000    8.333 
#    0.000    0.000    0.000    2.000    0.000    1.167 
#    0.000    0.000    0.000    0.000    0.000    0.000 
#
# Total GULP energy -595019.662465 kJ/mol
# GULP energy per Si atom -12396.242968 kJ/mol
# Density = 1.201116 g / cm^3
# Si number density = 12.038565 Si / 1000 Ang^3
#
#
#
# Elastic Constant Matrix: (Units=GPa)
#
#
# Indices 1 2 3 4 5 6 
#
# 1 71.2494 45.4615 43.6207 0.0000 0.0000 0.0000
# 2 45.4615 49.6132 30.8398 0.0000 0.0000 0.0000
# 3 43.6207 30.8398 76.1118 0.0000 0.0000 0.0000
# 4 0.0000 0.0000 0.0000 6.5664 0.0000 0.0000
# 5 0.0000 0.0000 0.0000 0.0000 13.2210 0.0000
# 6 0.0000 0.0000 0.0000 0.0000 0.0000 22.0006
#
#
#
# Elastic Compliance Matrix: (Units=1/GPa)
#
#
# Indices 1 2 3 4 5 6 
#
# 1 0.039296 -0.029418 -0.010601 0.000000 0.000000 0.000000
# 2 -0.029418 0.048965 -0.002980 0.000000 0.000000 0.000000
# 3 -0.010601 -0.002980 0.020422 0.000000 0.000000 0.000000
# 4 0.000000 0.000000 0.000000 0.152291 0.000000 0.000000
# 5 0.000000 0.000000 0.000000 0.000000 0.075637 0.000000
# 6 0.000000 0.000000 0.000000 0.000000 0.000000 0.045453
#
#
# Mechanical properties :
#
#
# Convention : Reuss Voigt Hill
#
# Bulk Modulus (GPa) = 44.08435 48.53537 46.30986
# Shear Modulus (GPa) = 10.51252 13.49444 12.00348
#
# Velocity S-wave (km/s) = 2.95826 3.35167 3.16109
# Velocity P-wave (km/s) = 6.95465 7.44193 7.20241
#
# Compressibility (1/GPa) = 0.02268379
#
# Stress axis : x y z
#
# Youngs Moduli (GPa) = 25.44791 20.42288 48.96728
#
# Poissons Ratio (x) = 0.60080 0.51911
# Poissons Ratio (y) = 0.74862 0.14594
# Poissons Ratio (z) = 0.26978 0.06087
#
# Static dielectric constant tensor:
#      x y z
#    x 2.471700 0.000000 0.000000 
#    y 0.000000 2.263780 0.000000 
#    z 0.000000 0.000000 2.520830 
# 
# 
# High freq. dielectric constant tensor:
#      x y z
#    x 1.440800 0.000000 0.000000 
#    y 0.000000 1.404870 0.000000 
#    z 0.000000 0.000000 1.457690 
# 
# From -- ./inp_files/16677.got.cif
#   From: 2010.03.12/outbox.cif.g09.slc.cpg/sg65_9_cif.got.tgz:16677.got - 2010.04.10 20:52:16.
