data_PCOD8274162
_publ_section_title
;
Structure prediction by ZEFSAII (Michael W. Deem and Ramdas Pophale) SiO2 
 PCOD8274162
Probable space group: C M M M
;
_chemical_formula_sum "Si O2"
_cell_formula_units_Z 64
_cell_length_a 17.976688
_cell_length_b 19.852193
_cell_length_c 12.931502
_cell_angle_alpha 90.000000
_cell_angle_beta 90.000000
_cell_angle_gamma 90.000000
_cell_volume 4614.951497
_symmetry_space_group_name_H-M "C M M M"
_symmetry_group_IT_number 65
_symmetry_cell_setting 'orthorhombic'
loop_
_space_group_symop_operation_xyz
x,y,z
-x,-y,z
x,-y,-z
-x,y,-z
-x,-y,-z
x,y,-z
-x,y,z
x,-y,z
1/2+x,1/2+y,z
1/2-x,1/2-y,z
1/2+x,1/2-y,-z
1/2-x,1/2+y,-z
1/2-x,1/2-y,-z
1/2+x,1/2+y,-z
1/2-x,1/2+y,z
1/2+x,1/2-y,z
loop_
_atom_site_type_symbol
_atom_site_label
_atom_site_fract_x
_atom_site_fract_y
_atom_site_fract_z
Si Si1 0.782225 0.182094 0.115450
Si Si2 0.916023 0.784051 0.000000
Si Si3 0.414964 0.876411 0.000000
Si Si4 0.178175 0.421485 0.805160
Si Si5 0.917074 0.579906 0.614654
O O1 0.750000 0.250000 0.167965
O O2 0.756681 0.117745 0.181845
O O3 0.745302 0.175559 0.000000
O O4 0.872217 0.187407 0.102022
O O5 0.911851 0.704036 0.000000
O O6 0.000000 0.811512 0.000000
O O7 0.377291 0.906945 0.101378
O O8 0.500000 0.901099 0.000000
O O9 0.197500 0.500000 0.798738
O O10 0.140223 0.393351 0.700432
O O11 0.890596 0.602777 0.500000
O O12 0.920375 0.500000 0.621100
O O13 0.000000 0.608572 0.636698
#
# Coordination Sequence:
#
# PCOD8274162 Si02
#       5
#    16   8   8  16  16
#     4   9  15  29  40  55  81 113 135 163 192 241
#     4   9  16  28  43  55  77 117 149 160 185 242
#     4  11  18  24  36  62  89 108 131 157 196 246
#     4  11  18  25  40  61  85 109 130 166 210 236
#     4   8  15  27  39  54  82 117 143 158 183 237
#
# _framework density 13.867967999999999
#
# number of rings (size 3 to 8) (size 9 to 14) (size 15 to 20)
#    0.750    1.750    3.750    1.875    0.000    2.000 
#    0.000    0.000    0.000    2.250    0.000    0.000 
#    0.000    1.000    0.000    6.250    0.000    0.000 
#
# Total GULP energy -396438.928163 kJ/mol
# GULP energy per Si atom -12388.716505 kJ/mol
# Density = 1.383640 g / cm^3
# Si number density = 13.867968 Si / 1000 Ang^3
#
#
#
# Elastic Constant Matrix: (Units=GPa)
#
#
# Indices 1 2 3 4 5 6 
#
# 1 101.4449 35.8058 31.6112 0.0000 0.0000 0.0000
# 2 35.8058 57.8448 24.6906 0.0000 0.0000 0.0000
# 3 31.6112 24.6906 72.2730 0.0000 0.0000 0.0000
# 4 0.0000 0.0000 0.0000 -1.4777 0.0000 0.0000
# 5 0.0000 0.0000 0.0000 0.0000 17.4068 0.0000
# 6 0.0000 0.0000 0.0000 0.0000 0.0000 21.9334
#
#
#
# Elastic Compliance Matrix: (Units=1/GPa)
#
#
# Indices 1 2 3 4 5 6 
#
# 1 0.013340 -0.006751 -0.003528 0.000000 0.000000 0.000000
# 2 -0.006751 0.023656 -0.005129 0.000000 0.000000 0.000000
# 3 -0.003528 -0.005129 0.017132 0.000000 0.000000 0.000000
# 4 0.000000 0.000000 0.000000 -0.676727 0.000000 0.000000
# 5 0.000000 0.000000 0.000000 0.000000 0.057449 0.000000
# 6 0.000000 0.000000 0.000000 0.000000 0.000000 0.045592
#
#
# Mechanical properties :
#
#
# Convention : Reuss Voigt Hill
#
# Bulk Modulus (GPa) = 42.89805 46.19754 44.54779
# Shear Modulus (GPa) = -10.39562 16.86952 3.23695
#
# Velocity S-wave (km/s) = -2.74088 3.49153 1.52944
# Velocity P-wave (km/s) = 4.58081 7.04550 5.94234
#
# Compressibility (1/GPa) = 0.02331109
#
# Stress axis : x y z
#
# Youngs Moduli (GPa) = 74.96280 42.27294 58.37129
#
# Poissons Ratio (x) = 0.28540 0.20595
# Poissons Ratio (y) = 0.50610 0.29936
# Poissons Ratio (z) = 0.26449 0.21680
#
# Static dielectric constant tensor:
#      x y z
#    x 2.772920 0.000000 0.000000 
#    y 0.000000 2.529670 0.000000 
#    z 0.000000 0.000000 2.744130 
# 
# 
# High freq. dielectric constant tensor:
#      x y z
#    x 1.516790 0.000000 0.000000 
#    y 0.000000 1.504160 0.000000 
#    z 0.000000 0.000000 1.505350 
# 
# From -- ./inp_files/28837.got.cif
#   From: 2010.03.12/outbox.cif.g09.slc.cpg/sg65_15_cif.got.tgz:28837.got - 2010.04.10 20:52:16.
