data_PCOD8274133
_publ_section_title
;
Structure prediction by ZEFSAII (Michael W. Deem and Ramdas Pophale) SiO2 
 PCOD8274133
Probable space group: C M M M
;
_chemical_formula_sum "Si O2"
_cell_formula_units_Z 64
_cell_length_a 15.604574
_cell_length_b 7.822871
_cell_length_c 25.385149
_cell_angle_alpha 90.000000
_cell_angle_beta 90.000000
_cell_angle_gamma 90.000000
_cell_volume 3098.830363
_symmetry_space_group_name_H-M "C M M M"
_symmetry_group_IT_number 65
_symmetry_cell_setting 'orthorhombic'
loop_
_space_group_symop_operation_xyz
x,y,z
-x,-y,z
x,-y,-z
-x,y,-z
-x,-y,-z
x,y,-z
-x,y,z
x,-y,z
1/2+x,1/2+y,z
1/2-x,1/2-y,z
1/2+x,1/2-y,-z
1/2-x,1/2+y,-z
1/2-x,1/2-y,-z
1/2+x,1/2+y,-z
1/2-x,1/2+y,z
1/2+x,1/2-y,z
loop_
_atom_site_type_symbol
_atom_site_label
_atom_site_fract_x
_atom_site_fract_y
_atom_site_fract_z
Si Si1 0.399714 0.000000 0.561312
Si Si2 0.500000 0.196067 0.173995
Si Si3 0.157345 0.697741 0.888365
Si Si4 0.000000 0.197290 0.708982
Si Si5 0.656603 0.298623 0.366189
Si Si6 0.595189 0.699823 0.000000
O O1 0.358840 0.825133 0.583975
O O2 0.500000 0.000000 0.573441
O O3 0.378882 0.000000 0.500000
O O4 0.416090 0.286143 0.147962
O O5 0.500000 0.202546 0.236716
O O6 0.500000 0.000000 0.156892
O O7 0.148175 0.500000 0.880899
O O8 0.250000 0.750000 0.867000
O O9 0.148218 0.744706 0.949300
O O10 0.914785 0.247467 0.677021
O O11 0.000000 0.000000 0.723069
O O12 0.650911 0.500000 0.382400
O O13 0.750000 0.250000 0.342747
O O14 0.585205 0.500000 0.000000
O O15 0.500000 0.784382 0.000000
#
# Coordination Sequence:
#
# PCOD8274133 Si02
#       6
#     8   8  16   8  16   8
#     4  11  24  42  68  99 133 179 217 264 330 376
#     4  10  24  41  63  88 118 163 203 259 318 365
#     4  11  23  41  61  89 123 158 202 250 308 374
#     4  10  24  42  65  92 124 163 216 265 317 373
#     4  11  23  42  66  97 132 175 220 267 321 386
#     4  11  22  37  62  90 116 162 200 243 307 371
#
# _framework density 20.652954999999999
#
# number of rings (size 3 to 8) (size 9 to 14) (size 15 to 20)
#    0.000    1.250    3.750    1.500    1.750    4.500 
#    0.000    6.250    0.000    0.000    0.000    0.000 
#    0.000    0.000    0.000    0.000    0.000    0.000 
#
# Total GULP energy -396752.480436 kJ/mol
# GULP energy per Si atom -12398.515014 kJ/mol
# Density = 2.060595 g / cm^3
# Si number density = 20.652955 Si / 1000 Ang^3
#
#
#
# Elastic Constant Matrix: (Units=GPa)
#
#
# Indices 1 2 3 4 5 6 
#
# 1 202.2679 41.4774 81.3349 0.0000 0.0000 0.0000
# 2 41.4774 88.1550 38.1788 0.0000 0.0000 0.0000
# 3 81.3349 38.1788 126.3138 0.0000 0.0000 0.0000
# 4 0.0000 0.0000 0.0000 21.9114 0.0000 0.0000
# 5 0.0000 0.0000 0.0000 0.0000 16.5266 0.0000
# 6 0.0000 0.0000 0.0000 0.0000 0.0000 27.6076
#
#
#
# Elastic Compliance Matrix: (Units=1/GPa)
#
#
# Indices 1 2 3 4 5 6 
#
# 1 0.006841 -0.001509 -0.003949 0.000000 0.000000 0.000000
# 2 -0.001509 0.013385 -0.003074 0.000000 0.000000 0.000000
# 3 -0.003949 -0.003074 0.011389 0.000000 0.000000 0.000000
# 4 0.000000 0.000000 0.000000 0.045638 0.000000 0.000000
# 5 0.000000 0.000000 0.000000 0.000000 0.060508 0.000000
# 6 0.000000 0.000000 0.000000 0.000000 0.000000 0.036222
#
#
# Mechanical properties :
#
#
# Convention : Reuss Voigt Hill
#
# Bulk Modulus (GPa) = 68.72347 82.07986 75.40167
# Shear Modulus (GPa) = 25.52345 30.25883 27.89114
#
# Velocity S-wave (km/s) = 3.51924 3.83183 3.67886
# Velocity P-wave (km/s) = 7.06124 7.70752 7.39145
#
# Compressibility (1/GPa) = 0.01455107
#
# Stress axis : x y z
#
# Youngs Moduli (GPa) = 146.17041 74.71140 87.80423
#
# Poissons Ratio (x) = 0.11270 0.34676
# Poissons Ratio (y) = 0.22050 0.26993
# Poissons Ratio (z) = 0.57726 0.22968
#
# Static dielectric constant tensor:
#      x y z
#    x 3.920290 0.000000 0.000000 
#    y 0.000000 3.748080 0.000000 
#    z 0.000000 0.000000 3.403470 
# 
# 
# High freq. dielectric constant tensor:
#      x y z
#    x 1.833120 0.000000 0.000000 
#    y 0.000000 1.811710 0.000000 
#    z 0.000000 0.000000 1.788040 
# 
# From -- ./inp_files/69608.got.cif
#   From: 2010.03.12/outbox.cif.g09.slc.cpg/sg65_35_cif.got.tgz:69608.got - 2010.04.10 20:52:16.
