data_PCOD8274541
_publ_section_title
;
Structure prediction by ZEFSAII (Michael W. Deem and Ramdas Pophale) SiO2 
 PCOD8274541
Probable space group: C M M M
;
_chemical_formula_sum "Si O2"
_cell_formula_units_Z 72
_cell_length_a 15.367325
_cell_length_b 8.530423
_cell_length_c 28.150179
_cell_angle_alpha 90.000000
_cell_angle_beta 90.000000
_cell_angle_gamma 90.000000
_cell_volume 3690.200846
_symmetry_space_group_name_H-M "C M M M"
_symmetry_group_IT_number 65
_symmetry_cell_setting 'orthorhombic'
loop_
_space_group_symop_operation_xyz
x,y,z
-x,-y,z
x,-y,-z
-x,y,-z
-x,-y,-z
x,y,-z
-x,y,z
x,-y,z
1/2+x,1/2+y,z
1/2-x,1/2-y,z
1/2+x,1/2-y,-z
1/2-x,1/2+y,-z
1/2-x,1/2-y,-z
1/2+x,1/2+y,-z
1/2-x,1/2+y,z
1/2+x,1/2-y,z
loop_
_atom_site_type_symbol
_atom_site_label
_atom_site_fract_x
_atom_site_fract_y
_atom_site_fract_z
Si Si1 0.500000 0.313940 0.276699
Si Si2 0.500000 0.179973 0.056113
Si Si3 0.341107 0.314287 0.553695
Si Si4 0.500000 0.686384 0.615099
Si Si5 0.343985 0.185732 0.784043
Si Si6 0.843311 0.814629 0.113180
O O1 0.500000 0.500000 0.272074
O O2 0.500000 0.255346 0.330905
O O3 0.586178 0.245957 0.253198
O O4 0.414231 0.265772 0.074760
O O5 0.500000 0.000000 0.072981
O O6 0.500000 0.194624 0.000000
O O7 0.358443 0.254329 0.500000
O O8 0.339541 0.500000 0.554960
O O9 0.250000 0.250000 0.573171
O O10 0.415489 0.246641 0.588102
O O11 0.500000 0.500000 0.612839
O O12 0.250000 0.250000 0.768707
O O13 0.370683 0.245449 0.836047
O O14 0.341634 0.000000 0.784494
O O15 0.750000 0.750000 0.096453
O O16 0.838015 0.000000 0.117540
#
# Coordination Sequence:
#
# PCOD8274541 Si02
#       6
#     8   8  16   8  16  16
#     4  11  22  37  55  80 114 149 186 227 278 334
#     4  11  24  41  60  85 119 157 194 233 279 331
#     4   9  17  32  54  78 103 135 177 222 268 319
#     4   9  19  34  53  76 105 143 180 217 265 326
#     4  11  22  39  61  85 112 145 188 233 280 331
#     4  11  22  39  63  89 116 148 189 235 283 333
#
# _framework density 19.511133000000001
#
# number of rings (size 3 to 8) (size 9 to 14) (size 15 to 20)
#    0.000    1.667    0.000    7.000    0.000    3.556 
#    0.000    5.000    0.000    2.667    0.000    0.000 
#    0.000    0.000    0.000    0.000    0.000    0.000 
#
# Total GULP energy -446537.877822 kJ/mol
# GULP energy per Si atom -12403.829940 kJ/mol
# Density = 1.946673 g / cm^3
# Si number density = 19.511133 Si / 1000 Ang^3
#
#
#
# Elastic Constant Matrix: (Units=GPa)
#
#
# Indices 1 2 3 4 5 6 
#
# 1 167.7812 50.4571 94.3686 0.0000 0.0000 0.0000
# 2 50.4571 125.4993 46.5551 0.0000 0.0000 0.0000
# 3 94.3686 46.5551 117.9111 0.0000 0.0000 0.0000
# 4 0.0000 0.0000 0.0000 22.0741 0.0000 0.0000
# 5 0.0000 0.0000 0.0000 0.0000 40.3722 0.0000
# 6 0.0000 0.0000 0.0000 0.0000 0.0000 36.7449
#
#
#
# Elastic Compliance Matrix: (Units=1/GPa)
#
#
# Indices 1 2 3 4 5 6 
#
# 1 0.011034 -0.001359 -0.008294 0.000000 0.000000 0.000000
# 2 -0.001359 0.009503 -0.002664 0.000000 0.000000 0.000000
# 3 -0.008294 -0.002664 0.016171 0.000000 0.000000 0.000000
# 4 0.000000 0.000000 0.000000 0.045302 0.000000 0.000000
# 5 0.000000 0.000000 0.000000 0.000000 0.024769 0.000000
# 6 0.000000 0.000000 0.000000 0.000000 0.000000 0.027215
#
#
# Mechanical properties :
#
#
# Convention : Reuss Voigt Hill
#
# Bulk Modulus (GPa) = 82.83229 88.21702 85.52465
# Shear Modulus (GPa) = 30.74014 34.49231 32.61622
#
# Velocity S-wave (km/s) = 3.97359 4.20911 4.09304
# Velocity P-wave (km/s) = 7.97487 8.30265 8.14041
#
# Compressibility (1/GPa) = 0.01207259
#
# Stress axis : x y z
#
# Youngs Moduli (GPa) = 90.62853 105.22995 61.83915
#
# Poissons Ratio (x) = 0.14305 0.51291
# Poissons Ratio (y) = 0.12320 0.16474
# Poissons Ratio (z) = 0.75169 0.28034
#
# Static dielectric constant tensor:
#      x y z
#    x 3.760480 0.000000 0.000000 
#    y 0.000000 3.565750 0.000000 
#    z 0.000000 0.000000 3.614600 
# 
# 
# High freq. dielectric constant tensor:
#      x y z
#    x 1.776960 0.000000 0.000000 
#    y 0.000000 1.761610 0.000000 
#    z 0.000000 0.000000 1.755560 
# 
# From -- ./inp_files/74636.got.cif
#   From: 2010.03.12/outbox.cif.g09.slc.cpg/sg65_38_cif.got.tgz:74636.got - 2010.04.10 20:52:16.
