data_PCOD8274357
_publ_section_title
;
Structure prediction by ZEFSAII (Michael W. Deem and Ramdas Pophale) SiO2 
 PCOD8274357
Probable space group: C M M M
;
_chemical_formula_sum "Si O2"
_cell_formula_units_Z 96
_cell_length_a 8.710287
_cell_length_b 23.981477
_cell_length_c 25.477954
_cell_angle_alpha 90.000000
_cell_angle_beta 90.000000
_cell_angle_gamma 90.000000
_cell_volume 5321.976367
_symmetry_space_group_name_H-M "C M M M"
_symmetry_group_IT_number 65
_symmetry_cell_setting 'orthorhombic'
loop_
_space_group_symop_operation_xyz
x,y,z
-x,-y,z
x,-y,-z
-x,y,-z
-x,-y,-z
x,y,-z
-x,y,z
x,-y,z
1/2+x,1/2+y,z
1/2-x,1/2-y,z
1/2+x,1/2-y,-z
1/2-x,1/2+y,-z
1/2-x,1/2-y,-z
1/2+x,1/2+y,-z
1/2-x,1/2+y,z
1/2+x,1/2-y,z
loop_
_atom_site_type_symbol
_atom_site_label
_atom_site_fract_x
_atom_site_fract_y
_atom_site_fract_z
Si Si1 0.817774 0.936816 0.557539
Si Si2 0.825758 0.000000 0.164984
Si Si3 0.682792 0.610931 0.336894
Si Si4 0.819534 0.308056 0.058461
Si Si5 0.818027 0.810858 0.247221
Si Si6 0.818754 0.383132 0.845995
Si Si7 0.327356 0.500000 0.711615
O O1 0.752643 0.919282 0.500000
O O2 0.761198 0.892470 0.602082
O O3 0.000000 0.936180 0.555526
O O4 0.763543 0.000000 0.571467
O O5 0.735407 0.053958 0.145518
O O6 0.825732 0.000000 0.226852
O O7 0.000000 0.000000 0.143292
O O8 0.500000 0.609801 0.333426
O O9 0.738541 0.665326 0.304326
O O10 0.754261 0.556005 0.309111
O O11 0.750000 0.250000 0.077586
O O12 0.767645 0.354201 0.099920
O O13 0.000000 0.301015 0.058108
O O14 0.759677 0.324171 0.000000
O O15 0.750000 0.750000 0.238165
O O16 0.764192 0.853397 0.202563
O O17 0.000000 0.806602 0.244395
O O18 0.000000 0.380381 0.836271
O O19 0.500000 0.500000 0.688983
#
# Coordination Sequence:
#
# PCOD8274357 Si02
#       7
#    16   8  16  16  16  16   8
#     4   8  12  18  33  61  94 123 154 199 252 301
#     4  11  21  35  54  77 107 144 175 204 249 305
#     4   9  15  25  43  65  94 129 164 202 252 307
#     4   9  19  36  57  79 103 134 172 213 258 303
#     4  11  22  35  51  72 100 136 173 212 258 307
#     4  11  22  36  55  80 108 135 168 212 256 305
#     4   9  14  25  44  68  93 126 165 198 239 296
#
# _framework density 18.038411
#
# number of rings (size 3 to 8) (size 9 to 14) (size 15 to 20)
#    0.000    2.333    2.500    2.250    0.000    2.667 
#    0.000    0.417    0.000    3.000    0.000    0.000 
#    0.000    2.000    0.000    9.167    0.000    9.000 
#
# Total GULP energy -594780.013994 kJ/mol
# GULP energy per Si atom -12391.250292 kJ/mol
# Density = 1.799735 g / cm^3
# Si number density = 18.038411 Si / 1000 Ang^3
#
#
#
# Elastic Constant Matrix: (Units=GPa)
#
#
# Indices 1 2 3 4 5 6 
#
# 1 37.0081 26.2802 28.3122 0.0000 0.0000 0.0000
# 2 26.2802 127.0449 65.9400 0.0000 0.0000 0.0000
# 3 28.3122 65.9400 118.5006 0.0000 0.0000 0.0000
# 4 0.0000 0.0000 0.0000 108.2433 0.0000 0.0000
# 5 0.0000 0.0000 0.0000 0.0000 13.4236 0.0000
# 6 0.0000 0.0000 0.0000 0.0000 0.0000 21.3489
#
#
#
# Elastic Compliance Matrix: (Units=1/GPa)
#
#
# Indices 1 2 3 4 5 6 
#
# 1 0.034462 -0.004015 -0.006000 0.000000 0.000000 0.000000
# 2 -0.004015 0.011535 -0.005460 0.000000 0.000000 0.000000
# 3 -0.006000 -0.005460 0.012910 0.000000 0.000000 0.000000
# 4 0.000000 0.000000 0.000000 0.009238 0.000000 0.000000
# 5 0.000000 0.000000 0.000000 0.000000 0.074496 0.000000
# 6 0.000000 0.000000 0.000000 0.000000 0.000000 0.046841
#
#
# Mechanical properties :
#
#
# Convention : Reuss Voigt Hill
#
# Bulk Modulus (GPa) = 35.76601 58.17982 46.97292
# Shear Modulus (GPa) = 21.76270 39.40457 30.58363
#
# Velocity S-wave (km/s) = 3.47719 4.67891 4.12208
# Velocity P-wave (km/s) = 5.99932 7.84302 6.98229
#
# Compressibility (1/GPa) = 0.02795950
#
# Stress axis : x y z
#
# Youngs Moduli (GPa) = 29.01749 86.68909 77.45747
#
# Poissons Ratio (x) = 0.34803 0.46472
# Poissons Ratio (y) = 0.11650 0.42290
# Poissons Ratio (z) = 0.17409 0.47330
#
# Static dielectric constant tensor:
#      x y z
#    x 3.016720 0.000000 0.000000 
#    y 0.000000 3.407100 0.000000 
#    z 0.000000 0.000000 3.824390 
# 
# 
# High freq. dielectric constant tensor:
#      x y z
#    x 1.661510 0.000000 0.000000 
#    y 0.000000 1.685530 0.000000 
#    z 0.000000 0.000000 1.708510 
# 
# From -- ./inp_files/73528.got.cif
#   From: 2010.03.12/outbox.cif.g09.slc.cpg/sg65_37_cif.got.tgz:73528.got - 2010.04.10 20:52:16.
