data_PCOD8274037
_publ_section_title
;
Structure prediction by ZEFSAII (Michael W. Deem and Ramdas Pophale) SiO2 
 PCOD8274037
Probable space group: C M M M
;
_chemical_formula_sum "Si O2"
_cell_formula_units_Z 64
_cell_length_a 23.972775
_cell_length_b 17.811057
_cell_length_c 7.495768
_cell_angle_alpha 90.000000
_cell_angle_beta 90.000000
_cell_angle_gamma 90.000000
_cell_volume 3200.546483
_symmetry_space_group_name_H-M "C M M M"
_symmetry_group_IT_number 65
_symmetry_cell_setting 'orthorhombic'
loop_
_space_group_symop_operation_xyz
x,y,z
-x,-y,z
x,-y,-z
-x,y,-z
-x,-y,-z
x,y,-z
-x,y,z
x,-y,z
1/2+x,1/2+y,z
1/2-x,1/2-y,z
1/2+x,1/2-y,-z
1/2-x,1/2+y,-z
1/2-x,1/2-y,-z
1/2+x,1/2+y,-z
1/2-x,1/2+y,z
1/2+x,1/2-y,z
loop_
_atom_site_type_symbol
_atom_site_label
_atom_site_fract_x
_atom_site_fract_y
_atom_site_fract_z
Si Si1 0.314865 0.087460 0.500000
Si Si2 0.612381 0.837316 0.790282
Si Si3 0.684090 0.413014 0.500000
Si Si4 0.500000 0.916018 0.788733
Si Si5 0.885886 0.163653 0.200428
Si Si6 0.000000 0.086239 0.710872
O O1 0.337973 0.124894 0.680000
O O2 0.249322 0.101704 0.500000
O O3 0.329963 0.000000 0.500000
O O4 0.554658 0.872980 0.721170
O O5 0.609311 0.750000 0.743000
O O6 0.622746 0.852228 0.000000
O O7 0.668189 0.500000 0.500000
O O8 0.658446 0.377116 0.323906
O O9 0.500000 0.000000 0.709051
O O10 0.500000 0.918107 0.000000
O O11 0.946277 0.126520 0.210321
O O12 0.863008 0.156557 0.000000
O O13 0.000000 0.093306 0.500000
O O14 0.000000 0.000000 0.772751
#
# Coordination Sequence:
#
# PCOD8274037 Si02
#       6
#     8  16   8   8  16   8
#     4  11  25  42  63  88 117 159 205 251 306 361
#     4  10  22  40  62  91 124 157 199 249 300 360
#     4  11  25  44  61  86 121 155 205 261 300 353
#     4   9  17  33  59  88 121 156 189 235 294 354
#     4  11  23  40  64  91 122 162 202 246 304 362
#     4  11  22  37  61  93 128 162 197 245 302 358
#
# _framework density 19.996585
#
# number of rings (size 3 to 8) (size 9 to 14) (size 15 to 20)
#    0.000    1.500    1.250    3.375    0.000    9.500 
#    0.000    6.250    0.000    0.000    0.000    0.000 
#    0.000    0.000    0.000    0.000    0.000    0.000 
#
# Total GULP energy -396957.187685 kJ/mol
# GULP energy per Si atom -12404.912115 kJ/mol
# Density = 1.995107 g / cm^3
# Si number density = 19.996585 Si / 1000 Ang^3
#
#
#
# Elastic Constant Matrix: (Units=GPa)
#
#
# Indices 1 2 3 4 5 6 
#
# 1 120.1796 96.6048 60.4932 0.0000 0.0000 0.0000
# 2 96.6048 191.5012 70.3829 0.0000 0.0000 0.0000
# 3 60.4932 70.3829 104.2922 0.0000 0.0000 0.0000
# 4 0.0000 0.0000 0.0000 5.5271 0.0000 0.0000
# 5 0.0000 0.0000 0.0000 0.0000 467.4251 0.0000
# 6 0.0000 0.0000 0.0000 0.0000 0.0000 -148.7077
#
#
#
# Elastic Compliance Matrix: (Units=1/GPa)
#
#
# Indices 1 2 3 4 5 6 
#
# 1 0.015752 -0.006102 -0.005019 0.000000 0.000000 0.000000
# 2 -0.006102 0.009308 -0.002742 0.000000 0.000000 0.000000
# 3 -0.005019 -0.002742 0.014350 0.000000 0.000000 0.000000
# 4 0.000000 0.000000 0.000000 0.180927 0.000000 0.000000
# 5 0.000000 0.000000 0.000000 0.000000 0.002139 0.000000
# 6 0.000000 0.000000 0.000000 0.000000 0.000000 -0.006725
#
#
# Mechanical properties :
#
#
# Convention : Reuss Voigt Hill
#
# Bulk Modulus (GPa) = 85.58510 96.77053 91.17781
# Shear Modulus (GPa) = 20.21246 77.41504 48.81375
#
# Velocity S-wave (km/s) = 3.18275 6.22882 4.94611
# Velocity P-wave (km/s) = 7.50995 10.01147 8.84954
#
# Compressibility (1/GPa) = 0.01168428
#
# Stress axis : x y z
#
# Youngs Moduli (GPa) = 63.48462 107.43660 69.68495
#
# Poissons Ratio (x) = 0.65553 0.34974
# Poissons Ratio (y) = 0.38736 0.19110
# Poissons Ratio (z) = 0.31862 0.29463
#
# Static dielectric constant tensor:
#      x y z
#    x 3.609580 0.000000 0.000000 
#    y 0.000000 3.912540 0.000000 
#    z 0.000000 0.000000 3.665640 
# 
# 
# High freq. dielectric constant tensor:
#      x y z
#    x 1.777260 0.000000 0.000000 
#    y 0.000000 1.800930 0.000000 
#    z 0.000000 0.000000 1.789920 
# 
# From -- ./inp_files/13437.got.cif
#   From: 2010.03.12/outbox.cif.g09.slc.cpg/sg65_7_cif.got.tgz:13437.got - 2010.04.10 20:52:16.
