data_PCOD8274784
_publ_section_title
;
Structure prediction by ZEFSAII (Michael W. Deem and Ramdas Pophale) SiO2 
 PCOD8274784
Probable space group: C M M M
;
_chemical_formula_sum "Si O2"
_cell_formula_units_Z 64
_cell_length_a 17.946058
_cell_length_b 7.704992
_cell_length_c 23.923898
_cell_angle_alpha 90.000000
_cell_angle_beta 90.000000
_cell_angle_gamma 90.000000
_cell_volume 3308.058654
_symmetry_space_group_name_H-M "C M M M"
_symmetry_group_IT_number 65
_symmetry_cell_setting 'orthorhombic'
loop_
_space_group_symop_operation_xyz
x,y,z
-x,-y,z
x,-y,-z
-x,y,-z
-x,-y,-z
x,y,-z
-x,y,z
x,-y,z
1/2+x,1/2+y,z
1/2-x,1/2-y,z
1/2+x,1/2-y,-z
1/2-x,1/2+y,-z
1/2-x,1/2-y,-z
1/2+x,1/2+y,-z
1/2-x,1/2+y,z
1/2+x,1/2-y,z
loop_
_atom_site_type_symbol
_atom_site_label
_atom_site_fract_x
_atom_site_fract_y
_atom_site_fract_z
Si Si1 0.911721 0.500000 0.764950
Si Si2 0.834944 0.195143 0.830466
Si Si3 0.584999 0.796383 0.063126
Si Si4 0.588632 0.692605 0.437459
Si Si5 0.411055 0.000000 0.638485
O O1 0.884463 0.325282 0.794375
O O2 0.881259 0.500000 0.701634
O O3 0.000000 0.500000 0.767372
O O4 0.750000 0.250000 0.826915
O O5 0.861002 0.196092 0.894871
O O6 0.844429 0.000000 0.806887
O O7 0.500000 0.737280 0.073287
O O8 0.592494 0.000000 0.074436
O O9 0.609299 0.750138 0.000000
O O10 0.616544 0.739624 0.500000
O O11 0.500000 0.698075 0.436758
O O12 0.616544 0.500000 0.420545
O O13 0.620967 0.830447 0.393233
O O14 0.500000 0.000000 0.637487
#
# Coordination Sequence:
#
# PCOD8274784 Si02
#       5
#     8  16  16  16   8
#     4  11  24  41  59  87 120 152 201 253 291 347
#     4  12  24  41  63  84 114 158 198 243 297 351
#     4   9  18  35  60  89 121 151 183 233 293 353
#     4   8  13  22  39  66 103 145 184 223 276 341
#     4   9  17  28  45  69 106 148 185 231 284 336
#
# _framework density 19.346696000000001
#
# number of rings (size 3 to 8) (size 9 to 14) (size 15 to 20)
#    0.000    2.250    2.500    2.625    0.000    5.500 
#    0.000    3.750    0.000    0.000    0.000    0.000 
#    0.000    4.000    0.000    0.000    0.000    0.000 
#
# Total GULP energy -396742.094889 kJ/mol
# GULP energy per Si atom -12398.190465 kJ/mol
# Density = 1.930266 g / cm^3
# Si number density = 19.346696 Si / 1000 Ang^3
#
#
#
# Elastic Constant Matrix: (Units=GPa)
#
#
# Indices 1 2 3 4 5 6 
#
# 1 55.3611 33.3149 33.0610 0.0000 0.0000 0.0000
# 2 33.3149 158.8622 80.3017 0.0000 0.0000 0.0000
# 3 33.0610 80.3017 139.3770 0.0000 0.0000 0.0000
# 4 0.0000 0.0000 0.0000 -1.9962 0.0000 0.0000
# 5 0.0000 0.0000 0.0000 0.0000 0.9384 0.0000
# 6 0.0000 0.0000 0.0000 0.0000 0.0000 16.2250
#
#
#
# Elastic Compliance Matrix: (Units=1/GPa)
#
#
# Indices 1 2 3 4 5 6 
#
# 1 0.021877 -0.002772 -0.003592 0.000000 0.000000 0.000000
# 2 -0.002772 0.009232 -0.004662 0.000000 0.000000 0.000000
# 3 -0.003592 -0.004662 0.010713 0.000000 0.000000 0.000000
# 4 0.000000 0.000000 0.000000 -0.500946 0.000000 0.000000
# 5 0.000000 0.000000 0.000000 0.000000 1.065591 0.000000
# 6 0.000000 0.000000 0.000000 0.000000 0.000000 0.061633
#
#
# Mechanical properties :
#
#
# Convention : Reuss Voigt Hill
#
# Bulk Modulus (GPa) = 50.58173 71.88396 61.23284
# Shear Modulus (GPa) = 7.17626 16.82828 12.00227
#
# Velocity S-wave (km/s) = 1.92804 2.95248 2.49344
# Velocity P-wave (km/s) = 5.58195 6.98994 6.32524
#
# Compressibility (1/GPa) = 0.01976998
#
# Stress axis : x y z
#
# Youngs Moduli (GPa) = 45.71106 108.31307 93.34680
#
# Poissons Ratio (x) = 0.30024 0.33532
# Poissons Ratio (y) = 0.12671 0.43516
# Poissons Ratio (z) = 0.16420 0.50493
#
# Static dielectric constant tensor:
#      x y z
#    x 3.108480 0.000000 0.000000 
#    y 0.000000 3.831580 0.000000 
#    z 0.000000 0.000000 3.732480 
# 
# 
# High freq. dielectric constant tensor:
#      x y z
#    x 1.706660 0.000000 0.000000 
#    y 0.000000 1.764000 0.000000 
#    z 0.000000 0.000000 1.752880 
# 
# From -- ./inp_files/69530.got.cif
#   From: 2010.03.12/outbox.cif.g09.slc.cpg/sg65_35_cif.got.tgz:69530.got - 2010.04.10 20:52:16.
