data_PCOD8274956
_publ_section_title
;
Structure prediction by ZEFSAII (Michael W. Deem and Ramdas Pophale) SiO2 
 PCOD8274956
Probable space group: C M M M
;
_chemical_formula_sum "Si O2"
_cell_formula_units_Z 80
_cell_length_a 29.266304
_cell_length_b 22.243891
_cell_length_c 9.916914
_cell_angle_alpha 90.000000
_cell_angle_beta 90.000000
_cell_angle_gamma 90.000000
_cell_volume 6455.876068
_symmetry_space_group_name_H-M "C M M M"
_symmetry_group_IT_number 65
_symmetry_cell_setting 'orthorhombic'
loop_
_space_group_symop_operation_xyz
x,y,z
-x,-y,z
x,-y,-z
-x,y,-z
-x,-y,-z
x,y,-z
-x,y,z
x,-y,z
1/2+x,1/2+y,z
1/2-x,1/2-y,z
1/2+x,1/2-y,-z
1/2-x,1/2+y,-z
1/2-x,1/2-y,-z
1/2+x,1/2+y,-z
1/2-x,1/2+y,z
1/2+x,1/2-y,z
loop_
_atom_site_type_symbol
_atom_site_label
_atom_site_fract_x
_atom_site_fract_y
_atom_site_fract_z
Si Si1 0.365920 0.354748 0.156471
Si Si2 0.050795 0.932978 0.840089
Si Si3 0.767821 0.655154 0.650989
Si Si4 0.775677 0.069205 0.845547
Si Si5 0.323153 0.733049 0.651300
O O1 0.411645 0.386283 0.214202
O O2 0.324856 0.401282 0.179616
O O3 0.359183 0.293661 0.241851
O O4 0.370267 0.336571 0.000000
O O5 0.000000 0.911451 0.796598
O O6 0.060183 0.000000 0.782261
O O7 0.054796 0.935938 0.000000
O O8 0.774452 0.629364 0.500000
O O9 0.763683 0.600221 0.755427
O O10 0.722465 0.694371 0.657760
O O11 0.810724 0.697983 0.689725
O O12 0.779606 0.000000 0.803370
O O13 0.760530 0.076738 0.000000
O O14 0.343759 0.730342 0.500000
#
# Coordination Sequence:
#
# PCOD8274956 Si02
#       5
#    16  16  16  16  16
#     4   9  15  22  34  50  64  80 107 139 166 194
#     4   8  13  21  33  48  65  85 109 137 167 196
#     4   8  14  24  35  45  59  81 107 131 156 191
#     4   9  16  23  31  46  67  86 104 132 167 194
#     4   8  14  24  35  46  61  80 102 131 165 194
#
# _framework density 12.391811000000001
#
# number of rings (size 3 to 8) (size 9 to 14) (size 15 to 20)
#    0.000    3.600    0.000    2.400    0.000    3.600 
#    0.000    4.000    0.000    2.400    0.000    1.400 
#    0.000    0.000    0.000    0.000    0.000    1.000 
#
# Total GULP energy -495670.630666 kJ/mol
# GULP energy per Si atom -12391.765767 kJ/mol
# Density = 1.236361 g / cm^3
# Si number density = 12.391811 Si / 1000 Ang^3
#
#
#
# Elastic Constant Matrix: (Units=GPa)
#
#
# Indices 1 2 3 4 5 6 
#
# 1 56.4933 38.9823 33.3481 0.0000 0.0000 0.0000
# 2 38.9823 61.0360 42.7867 0.0000 0.0000 0.0000
# 3 33.3481 42.7867 56.3960 0.0000 0.0000 0.0000
# 4 0.0000 0.0000 0.0000 18.5011 0.0000 0.0000
# 5 0.0000 0.0000 0.0000 0.0000 8.1639 0.0000
# 6 0.0000 0.0000 0.0000 0.0000 0.0000 22.7194
#
#
#
# Elastic Compliance Matrix: (Units=1/GPa)
#
#
# Indices 1 2 3 4 5 6 
#
# 1 0.033087 -0.015842 -0.007546 0.000000 0.000000 0.000000
# 2 -0.015842 0.042582 -0.022938 0.000000 0.000000 0.000000
# 3 -0.007546 -0.022938 0.039596 0.000000 0.000000 0.000000
# 4 0.000000 0.000000 0.000000 0.054051 0.000000 0.000000
# 5 0.000000 0.000000 0.000000 0.000000 0.122490 0.000000
# 6 0.000000 0.000000 0.000000 0.000000 0.000000 0.044015
#
#
# Mechanical properties :
#
#
# Convention : Reuss Voigt Hill
#
# Bulk Modulus (GPa) = 44.22260 44.90659 44.56459
# Shear Modulus (GPa) = 11.46758 13.79744 12.63251
#
# Velocity S-wave (km/s) = 3.04537 3.34043 3.19631
# Velocity P-wave (km/s) = 6.93759 7.15511 7.04719
#
# Compressibility (1/GPa) = 0.02261287
#
# Stress axis : x y z
#
# Youngs Moduli (GPa) = 30.22299 23.48424 25.25481
#
# Poissons Ratio (x) = 0.37205 0.19057
# Poissons Ratio (y) = 0.47881 0.57930
# Poissons Ratio (z) = 0.22806 0.53868
#
# Static dielectric constant tensor:
#      x y z
#    x 2.431560 0.000000 0.000000 
#    y 0.000000 2.607480 0.000000 
#    z 0.000000 0.000000 2.545420 
# 
# 
# High freq. dielectric constant tensor:
#      x y z
#    x 1.430680 0.000000 0.000000 
#    y 0.000000 1.454330 0.000000 
#    z 0.000000 0.000000 1.461310 
# 
# From -- ./inp_files/12523.got.cif
#   From: 2010.03.12/outbox.cif.g09.slc.cpg/sg65_7_cif.got.tgz:12523.got - 2010.04.10 20:52:16.
