data_PCOD8274237
_publ_section_title
;
Structure prediction by ZEFSAII (Michael W. Deem and Ramdas Pophale) SiO2 
 PCOD8274237
Probable space group: C M M M
;
_chemical_formula_sum "Si O2"
_cell_formula_units_Z 80
_cell_length_a 27.401281
_cell_length_b 14.239745
_cell_length_c 11.862190
_cell_angle_alpha 90.000000
_cell_angle_beta 90.000000
_cell_angle_gamma 90.000000
_cell_volume 4628.475344
_symmetry_space_group_name_H-M "C M M M"
_symmetry_group_IT_number 65
_symmetry_cell_setting 'orthorhombic'
loop_
_space_group_symop_operation_xyz
x,y,z
-x,-y,z
x,-y,-z
-x,y,-z
-x,-y,-z
x,y,-z
-x,y,z
x,-y,z
1/2+x,1/2+y,z
1/2-x,1/2-y,z
1/2+x,1/2-y,-z
1/2-x,1/2+y,-z
1/2-x,1/2-y,-z
1/2+x,1/2+y,-z
1/2-x,1/2+y,z
1/2+x,1/2-y,z
loop_
_atom_site_type_symbol
_atom_site_label
_atom_site_fract_x
_atom_site_fract_y
_atom_site_fract_z
Si Si1 0.731090 0.645779 0.124906
Si Si2 0.360429 0.301438 0.263430
Si Si3 0.153281 0.104801 0.500000
Si Si4 0.943852 0.892311 0.130297
Si Si5 0.761678 0.641278 0.500000
Si Si6 0.682518 0.101097 0.273530
O O1 0.750000 0.750000 0.115093
O O2 0.682538 0.641067 0.201064
O O3 0.774655 0.588636 0.181759
O O4 0.719468 0.605203 0.000000
O O5 0.363226 0.334580 0.392340
O O6 0.411695 0.323176 0.205399
O O7 0.353131 0.188908 0.251223
O O8 0.210986 0.086642 0.500000
O O9 0.129178 0.000000 0.500000
O O10 0.000000 0.870750 0.158058
O O11 0.931391 0.000000 0.159783
O O12 0.932667 0.872086 0.000000
O O13 0.750000 0.750000 0.500000
O O14 0.792881 0.614905 0.606844
O O15 0.654201 0.000000 0.272037
#
# Coordination Sequence:
#
# PCOD8274237 Si02
#       6
#    16  16   8  16   8  16
#     4   9  18  31  45  65  96 132 169 209 250 292
#     4  11  20  34  52  74 103 135 171 211 255 305
#     4  12  22  31  49  76 103 135 174 213 254 300
#     4   9  19  37  60  82 101 126 165 213 267 324
#     4  12  18  35  49  68 104 146 184 217 246 287
#     4  11  21  32  48  71 104 143 178 210 246 295
#
# _framework density 17.284310000000001
#
# number of rings (size 3 to 8) (size 9 to 14) (size 15 to 20)
#    0.000    1.600    4.000    3.300    0.000    2.000 
#    0.000    0.500    0.000    2.400    0.000    1.400 
#    0.000    3.200    0.000    0.000    0.000    0.000 
#
# Total GULP energy -495837.608829 kJ/mol
# GULP energy per Si atom -12395.940221 kJ/mol
# Density = 1.724497 g / cm^3
# Si number density = 17.284310 Si / 1000 Ang^3
#
#
#
# Elastic Constant Matrix: (Units=GPa)
#
#
# Indices 1 2 3 4 5 6 
#
# 1 84.5281 46.9189 47.6692 0.0000 0.0000 0.0000
# 2 46.9189 133.5712 43.0329 0.0000 0.0000 0.0000
# 3 47.6692 43.0329 126.3510 0.0000 0.0000 0.0000
# 4 0.0000 0.0000 0.0000 13.6378 0.0000 0.0000
# 5 0.0000 0.0000 0.0000 0.0000 34.8718 0.0000
# 6 0.0000 0.0000 0.0000 0.0000 0.0000 22.7458
#
#
#
# Elastic Compliance Matrix: (Units=1/GPa)
#
#
# Indices 1 2 3 4 5 6 
#
# 1 0.017057 -0.004401 -0.004936 0.000000 0.000000 0.000000
# 2 -0.004401 0.009545 -0.001590 0.000000 0.000000 0.000000
# 3 -0.004936 -0.001590 0.010318 0.000000 0.000000 0.000000
# 4 0.000000 0.000000 0.000000 0.073326 0.000000 0.000000
# 5 0.000000 0.000000 0.000000 0.000000 0.028677 0.000000
# 6 0.000000 0.000000 0.000000 0.000000 0.000000 0.043964
#
#
# Mechanical properties :
#
#
# Convention : Reuss Voigt Hill
#
# Bulk Modulus (GPa) = 66.37977 68.85472 67.61724
# Shear Modulus (GPa) = 23.83627 28.03969 25.93798
#
# Velocity S-wave (km/s) = 3.71761 4.03210 3.87805
# Velocity P-wave (km/s) = 7.54424 7.84858 7.69791
#
# Compressibility (1/GPa) = 0.01506483
#
# Stress axis : x y z
#
# Youngs Moduli (GPa) = 58.62635 104.76651 96.91380
#
# Poissons Ratio (x) = 0.46111 0.47839
# Poissons Ratio (y) = 0.25803 0.15413
# Poissons Ratio (z) = 0.28940 0.16662
#
# Static dielectric constant tensor:
#      x y z
#    x 2.881890 0.000000 0.000000 
#    y 0.000000 3.355720 0.000000 
#    z 0.000000 0.000000 3.516150 
# 
# 
# High freq. dielectric constant tensor:
#      x y z
#    x 1.618890 0.000000 0.000000 
#    y 0.000000 1.671650 0.000000 
#    z 0.000000 0.000000 1.684070 
# 
# From -- ./inp_files/30422.got.cif
#   From: 2010.03.12/outbox.cif.g09.slc.cpg/sg65_16_cif.got.tgz:30422.got - 2010.04.10 20:52:16.
