data_PCOD8274358
_publ_section_title
;
Structure prediction by ZEFSAII (Michael W. Deem and Ramdas Pophale) SiO2 
 PCOD8274358
Probable space group: C M M M
;
_chemical_formula_sum "Si O2"
_cell_formula_units_Z 96
_cell_length_a 26.714617
_cell_length_b 9.663278
_cell_length_c 22.355320
_cell_angle_alpha 90.000000
_cell_angle_beta 90.000000
_cell_angle_gamma 90.000000
_cell_volume 5771.043088
_symmetry_space_group_name_H-M "C M M M"
_symmetry_group_IT_number 65
_symmetry_cell_setting 'orthorhombic'
loop_
_space_group_symop_operation_xyz
x,y,z
-x,-y,z
x,-y,-z
-x,y,-z
-x,-y,-z
x,y,-z
-x,y,z
x,-y,z
1/2+x,1/2+y,z
1/2-x,1/2-y,z
1/2+x,1/2-y,-z
1/2-x,1/2+y,-z
1/2-x,1/2-y,-z
1/2+x,1/2+y,-z
1/2-x,1/2+y,z
1/2+x,1/2-y,z
loop_
_atom_site_type_symbol
_atom_site_label
_atom_site_fract_x
_atom_site_fract_y
_atom_site_fract_z
Si Si1 0.200006 0.666746 0.738987
Si Si2 0.299392 0.500000 0.072285
Si Si3 0.814861 0.500000 0.069275
Si Si4 0.444366 0.663822 0.433932
Si Si5 0.115926 0.838667 0.679606
Si Si6 0.349064 0.245901 0.862231
Si Si7 0.555805 0.659445 0.797344
O O1 0.205245 0.500000 0.730325
O O2 0.250000 0.750000 0.723779
O O3 0.160065 0.731620 0.693317
O O4 0.184800 0.702551 0.806323
O O5 0.241881 0.500000 0.094207
O O6 0.326232 0.626660 0.103106
O O7 0.305336 0.500000 0.000000
O O8 0.847994 0.372222 0.089030
O O9 0.808845 0.500000 0.000000
O O10 0.425307 0.709867 0.500000
O O11 0.500000 0.725199 0.422507
O O12 0.447919 0.500000 0.430188
O O13 0.405913 0.714561 0.383518
O O14 0.072600 0.822778 0.728895
O O15 0.134351 0.000000 0.678028
O O16 0.406298 0.265204 0.842236
O O17 0.500000 0.722574 0.804421
O O18 0.555715 0.500000 0.815540
#
# Coordination Sequence:
#
# PCOD8274358 Si02
#       7
#    16   8   8  16  16  16  16
#     4  11  22  34  52  74 102 134 167 209 257 306
#     4  11  22  36  55  79 103 133 167 204 248 304
#     4  11  22  36  53  75 105 133 161 202 256 308
#     4   8  13  23  44  76 110 140 171 210 254 300
#     4   9  17  29  49  77 105 133 170 210 254 299
#     4  11  21  35  54  78 102 131 166 206 253 305
#     4   9  17  31  52  74  98 130 169 211 248 289
#
# _framework density 16.634774
#
# number of rings (size 3 to 8) (size 9 to 14) (size 15 to 20)
#    0.000    2.167    1.667    3.500    2.333    3.333 
#    0.000    0.417    0.000    5.500    0.000    1.167 
#    0.000    0.000    0.000    0.000    0.000    0.000 
#
# Total GULP energy -594855.708978 kJ/mol
# GULP energy per Si atom -12392.827270 kJ/mol
# Density = 1.659691 g / cm^3
# Si number density = 16.634774 Si / 1000 Ang^3
#
#
#
# Elastic Constant Matrix: (Units=GPa)
#
#
# Indices 1 2 3 4 5 6 
#
# 1 124.3297 57.2409 56.0332 0.0000 0.0000 0.0000
# 2 57.2409 108.2132 42.5836 0.0000 0.0000 0.0000
# 3 56.0332 42.5836 79.3983 0.0000 0.0000 0.0000
# 4 0.0000 0.0000 0.0000 19.9763 0.0000 0.0000
# 5 0.0000 0.0000 0.0000 0.0000 24.7048 0.0000
# 6 0.0000 0.0000 0.0000 0.0000 0.0000 -16.9123
#
#
#
# Elastic Compliance Matrix: (Units=1/GPa)
#
#
# Indices 1 2 3 4 5 6 
#
# 1 0.013136 -0.004183 -0.007027 0.000000 0.000000 0.000000
# 2 -0.004183 0.013045 -0.004044 0.000000 0.000000 0.000000
# 3 -0.007027 -0.004044 0.019723 0.000000 0.000000 0.000000
# 4 0.000000 0.000000 0.000000 0.050059 0.000000 0.000000
# 5 0.000000 0.000000 0.000000 0.000000 0.040478 0.000000
# 6 0.000000 0.000000 0.000000 0.000000 0.000000 -0.059129
#
#
# Mechanical properties :
#
#
# Convention : Reuss Voigt Hill
#
# Bulk Modulus (GPa) = 64.95483 69.29516 67.12500
# Shear Modulus (GPa) = 44.26618 15.95932 30.11275
#
# Velocity S-wave (km/s) = 5.16415 3.10077 4.25929
# Velocity P-wave (km/s) = 8.64235 7.38694 8.03919
#
# Compressibility (1/GPa) = 0.01539531
#
# Stress axis : x y z
#
# Youngs Moduli (GPa) = 76.12714 76.65557 50.70295
#
# Poissons Ratio (x) = 0.32068 0.35627
# Poissons Ratio (y) = 0.31846 0.20506
# Poissons Ratio (z) = 0.53492 0.31002
#
# Static dielectric constant tensor:
#      x y z
#    x 3.208740 0.000000 0.000000 
#    y 0.000000 2.898960 0.000000 
#    z 0.000000 0.000000 3.250300 
# 
# 
# High freq. dielectric constant tensor:
#      x y z
#    x 1.635510 0.000000 0.000000 
#    y 0.000000 1.625390 0.000000 
#    z 0.000000 0.000000 1.638160 
# 
# From -- ./inp_files/71748.got.cif
#   From: 2010.03.12/outbox.cif.g09.slc.cpg/sg65_36_cif.got.tgz:71748.got - 2010.04.10 20:52:16.
