data_PCOD8275765
_publ_section_title
;
Structure prediction by ZEFSAII (Michael W. Deem and Ramdas Pophale) SiO2 
 PCOD8275765
Probable space group: C C C M
;
_chemical_formula_sum "Si O2"
_cell_formula_units_Z 96
_cell_length_a 25.392125
_cell_length_b 9.332420
_cell_length_c 22.717334
_cell_angle_alpha 90.000000
_cell_angle_beta 90.000000
_cell_angle_gamma 90.000000
_cell_volume 5383.326074
_symmetry_space_group_name_H-M "C C C M"
_symmetry_group_IT_number 66
_symmetry_cell_setting 'orthorhombic'
loop_
_space_group_symop_operation_xyz
x,y,z
-x,-y,z
x,-y,1/2-z
-x,y,1/2-z
-x,-y,-z
x,y,-z
-x,y,1/2+z
x,-y,1/2+z
1/2+x,1/2+y,z
1/2-x,1/2-y,z
1/2+x,1/2-y,1/2-z
1/2-x,1/2+y,1/2-z
1/2-x,1/2-y,-z
1/2+x,1/2+y,-z
1/2-x,1/2+y,1/2+z
1/2+x,1/2-y,1/2+z
loop_
_atom_site_type_symbol
_atom_site_label
_atom_site_fract_x
_atom_site_fract_y
_atom_site_fract_z
Si Si1 0.441365 0.167922 0.741260
Si Si2 0.522278 0.298633 0.933880
Si Si3 0.615434 0.509258 0.932561
Si Si4 0.081371 0.736105 0.364388
Si Si5 0.900839 0.596397 0.381708
Si Si6 0.190279 0.752588 0.069289
O O1 0.500000 0.229337 0.750000
O O2 0.409660 0.246998 0.793823
O O3 0.415656 0.188565 0.677309
O O4 0.442181 0.000000 0.750000
O O5 0.557197 0.441453 0.921803
O O6 0.477272 0.279429 0.885165
O O7 0.561667 0.162494 0.931940
O O8 0.498054 0.305023 0.000000
O O9 0.622040 0.653868 0.894289
O O10 0.662078 0.401979 0.913961
O O11 0.622226 0.553181 0.000000
O O12 0.091158 0.572439 0.381936
O O13 0.839957 0.624909 0.397161
O O14 0.250000 0.750000 0.092256
O O15 0.187541 0.723834 0.000000
#
# Coordination Sequence:
#
# PCOD8275765 Si02
#       6
#    16  16  16  16  16  16
#     4   9  17  31  48  70 104 143 174 201 250 302
#     4  10  19  30  45  70 107 145 169 198 253 317
#     4   9  19  33  49  74 108 138 166 210 270 317
#     4  11  19  29  50  74 105 137 172 212 254 307
#     4  10  19  32  52  75 100 134 180 219 246 303
#     4   9  19  38  59  74  96 135 176 216 269 323
#
# _framework density 17.832840999999998
#
# number of rings (size 3 to 8) (size 9 to 14) (size 15 to 20)
#    0.000    2.333    1.667    3.000    0.000    4.667 
#    0.000    4.167    0.000    9.000    0.000    0.000 
#    0.000    0.000    0.000    0.000    0.000    0.000 
#
# Total GULP energy -594835.983721 kJ/mol
# GULP energy per Si atom -12392.416328 kJ/mol
# Density = 1.779225 g / cm^3
# Si number density = 17.832841 Si / 1000 Ang^3
#
#
#
# Elastic Constant Matrix: (Units=GPa)
#
#
# Indices 1 2 3 4 5 6 
#
# 1 88.0192 18.8232 28.2256 0.0000 0.0000 0.0000
# 2 18.8232 92.4914 43.5239 0.0000 0.0000 0.0000
# 3 28.2256 43.5239 77.5360 0.0000 0.0000 0.0000
# 4 0.0000 0.0000 0.0000 26.2798 0.0000 0.0000
# 5 0.0000 0.0000 0.0000 0.0000 16.1497 0.0000
# 6 0.0000 0.0000 0.0000 0.0000 0.0000 13.4566
#
#
#
# Elastic Compliance Matrix: (Units=1/GPa)
#
#
# Indices 1 2 3 4 5 6 
#
# 1 0.012884 -0.000564 -0.004374 0.000000 0.000000 0.000000
# 2 -0.000564 0.014718 -0.008056 0.000000 0.000000 0.000000
# 3 -0.004374 -0.008056 0.019012 0.000000 0.000000 0.000000
# 4 0.000000 0.000000 0.000000 0.038052 0.000000 0.000000
# 5 0.000000 0.000000 0.000000 0.000000 0.061921 0.000000
# 6 0.000000 0.000000 0.000000 0.000000 0.000000 0.074313
#
#
# Mechanical properties :
#
#
# Convention : Reuss Voigt Hill
#
# Bulk Modulus (GPa) = 48.48313 48.79910 48.64111
# Shear Modulus (GPa) = 19.70348 22.34216 21.02282
#
# Velocity S-wave (km/s) = 3.32761 3.54342 3.43721
# Velocity P-wave (km/s) = 6.48155 6.64570 6.56414
#
# Compressibility (1/GPa) = 0.02062573
#
# Stress axis : x y z
#
# Youngs Moduli (GPa) = 77.61383 67.94568 52.59923
#
# Poissons Ratio (x) = 0.03832 0.23005
# Poissons Ratio (y) = 0.04377 0.42375
# Poissons Ratio (z) = 0.33946 0.54739
#
# Static dielectric constant tensor:
#      x y z
#    x 3.130950 0.000000 0.000000 
#    y 0.000000 3.253160 0.000000 
#    z 0.000000 0.000000 3.534310 
# 
# 
# High freq. dielectric constant tensor:
#      x y z
#    x 1.652590 0.000000 0.000000 
#    y 0.000000 1.684750 0.000000 
#    z 0.000000 0.000000 1.690530 
# 
# From -- ./inp_files/55766.got.cif
#   From: 2010.03.12/outbox.cif.g09.slc.cpg/sg66_28_cif.got.tgz:55766.got - 2010.04.10 21:57:39.
