data_PCOD8275828
_publ_section_title
;
Structure prediction by ZEFSAII (Michael W. Deem and Ramdas Pophale) SiO2 
 PCOD8275828
Probable space group: C C C M
;
_chemical_formula_sum "Si O2"
_cell_formula_units_Z 80
_cell_length_a 18.107508
_cell_length_b 27.551500
_cell_length_c 8.740870
_cell_angle_alpha 90.000000
_cell_angle_beta 90.000000
_cell_angle_gamma 90.000000
_cell_volume 4360.723952
_symmetry_space_group_name_H-M "C C C M"
_symmetry_group_IT_number 66
_symmetry_cell_setting 'orthorhombic'
loop_
_space_group_symop_operation_xyz
x,y,z
-x,-y,z
x,-y,1/2-z
-x,y,1/2-z
-x,-y,-z
x,y,-z
-x,y,1/2+z
x,-y,1/2+z
1/2+x,1/2+y,z
1/2-x,1/2-y,z
1/2+x,1/2-y,1/2-z
1/2-x,1/2+y,1/2-z
1/2-x,1/2-y,-z
1/2+x,1/2+y,-z
1/2-x,1/2+y,1/2+z
1/2+x,1/2-y,1/2+z
loop_
_atom_site_type_symbol
_atom_site_label
_atom_site_fract_x
_atom_site_fract_y
_atom_site_fract_z
Si Si1 0.423365 0.911842 0.679352
Si Si2 0.577811 0.709300 0.819549
Si Si3 0.213292 0.143438 0.819223
Si Si4 0.724803 0.050212 0.181006
Si Si5 0.361486 0.190551 0.178127
O O1 0.500000 0.930267 0.750000
O O2 0.421128 0.922910 0.500000
O O3 0.357701 0.940985 0.758209
O O4 0.415258 0.854481 0.713474
O O5 0.500000 0.693854 0.750000
O O6 0.635918 0.667627 0.775174
O O7 0.605205 0.760620 0.746507
O O8 0.569124 0.713796 0.000000
O O9 0.218942 0.091967 0.735068
O O10 0.279401 0.178494 0.759664
O O11 0.222203 0.134533 0.000000
O O12 0.754871 0.000000 0.250000
O O13 0.723538 0.047582 0.000000
O O14 0.354134 0.200948 0.000000
#
# Coordination Sequence:
#
# PCOD8275828 Si02
#       5
#    16  16  16  16  16
#     4  10  19  32  50  75 108 142 176 211 249 293
#     4  10  19  31  50  76 107 140 172 208 250 298
#     4   9  18  34  54  75 101 135 174 212 252 299
#     4  11  22  37  56  76  98 127 167 213 262 311
#     4   8  15  29  50  74 102 139 178 210 242 288
#
# _framework density 18.345576999999999
#
# number of rings (size 3 to 8) (size 9 to 14) (size 15 to 20)
#    0.000    2.400    0.000    4.800    0.000    3.600 
#    0.000    6.000    0.000    6.600    0.000    4.200 
#    0.000    0.000    0.000    0.000    0.000    0.000 
#
# Total GULP energy -495994.043543 kJ/mol
# GULP energy per Si atom -12399.851089 kJ/mol
# Density = 1.830382 g / cm^3
# Si number density = 18.345577 Si / 1000 Ang^3
#
#
#
# Elastic Constant Matrix: (Units=GPa)
#
#
# Indices 1 2 3 4 5 6 
#
# 1 104.8983 50.0819 30.2943 0.0000 0.0000 0.0000
# 2 50.0819 114.9612 41.2397 0.0000 0.0000 0.0000
# 3 30.2943 41.2397 72.3193 0.0000 0.0000 0.0000
# 4 0.0000 0.0000 0.0000 23.8770 0.0000 0.0000
# 5 0.0000 0.0000 0.0000 0.0000 27.9318 0.0000
# 6 0.0000 0.0000 0.0000 0.0000 0.0000 13.2168
#
#
#
# Elastic Compliance Matrix: (Units=1/GPa)
#
#
# Indices 1 2 3 4 5 6 
#
# 1 0.012432 -0.004460 -0.002664 0.000000 0.000000 0.000000
# 2 -0.004460 0.012536 -0.005280 0.000000 0.000000 0.000000
# 3 -0.002664 -0.005280 0.017955 0.000000 0.000000 0.000000
# 4 0.000000 0.000000 0.000000 0.041881 0.000000 0.000000
# 5 0.000000 0.000000 0.000000 0.000000 0.035802 0.000000
# 6 0.000000 0.000000 0.000000 0.000000 0.000000 0.075661
#
#
# Mechanical properties :
#
#
# Convention : Reuss Voigt Hill
#
# Bulk Modulus (GPa) = 55.20852 59.49005 57.34929
# Shear Modulus (GPa) = 22.01547 24.37597 23.19572
#
# Velocity S-wave (km/s) = 3.46792 3.64910 3.55967
# Velocity P-wave (km/s) = 6.79664 7.08890 6.94430
#
# Compressibility (1/GPa) = 0.01811315
#
# Stress axis : x y z
#
# Youngs Moduli (GPa) = 80.43835 79.77221 55.69608
#
# Poissons Ratio (x) = 0.35579 0.14839
# Poissons Ratio (y) = 0.35876 0.29408
# Poissons Ratio (z) = 0.21431 0.42121
#
# Static dielectric constant tensor:
#      x y z
#    x 3.285890 0.000000 0.000000 
#    y 0.000000 3.476770 0.000000 
#    z 0.000000 0.000000 3.153230 
# 
# 
# High freq. dielectric constant tensor:
#      x y z
#    x 1.697790 0.000000 0.000000 
#    y 0.000000 1.710690 0.000000 
#    z 0.000000 0.000000 1.693120 
# 
# From -- ./inp_files/6668.got.cif
#   From: 2010.03.12/outbox.cif.g09.slc.cpg/sg66_4_cif.got.tgz:6668.got - 2010.04.10 21:57:39.
