data_PCOD8275001
_publ_section_title
;
Structure prediction by ZEFSAII (Michael W. Deem and Ramdas Pophale) SiO2 
 PCOD8275001
Probable space group: C M M M
;
_chemical_formula_sum "Si O2"
_cell_formula_units_Z 96
_cell_length_a 19.507333
_cell_length_b 9.334679
_cell_length_c 31.148870
_cell_angle_alpha 90.000000
_cell_angle_beta 90.000000
_cell_angle_gamma 90.000000
_cell_volume 5672.043879
_symmetry_space_group_name_H-M "C M M M"
_symmetry_group_IT_number 65
_symmetry_cell_setting 'orthorhombic'
loop_
_space_group_symop_operation_xyz
x,y,z
-x,-y,z
x,-y,-z
-x,y,-z
-x,-y,-z
x,y,-z
-x,y,z
x,-y,z
1/2+x,1/2+y,z
1/2-x,1/2-y,z
1/2+x,1/2-y,-z
1/2-x,1/2+y,-z
1/2-x,1/2-y,-z
1/2+x,1/2+y,-z
1/2-x,1/2+y,z
1/2+x,1/2-y,z
loop_
_atom_site_type_symbol
_atom_site_label
_atom_site_fract_x
_atom_site_fract_y
_atom_site_fract_z
Si Si1 0.178786 0.167787 0.638432
Si Si2 0.819483 0.834806 0.545303
Si Si3 0.183008 0.166666 0.951369
Si Si4 0.418509 0.161950 0.796487
Si Si5 0.921052 0.166262 0.121484
Si Si6 0.079133 0.832558 0.286248
O O1 0.250000 0.250000 0.645602
O O2 0.144908 0.202262 0.591096
O O3 0.122936 0.218581 0.672898
O O4 0.194307 0.000000 0.643660
O O5 0.860977 0.801752 0.500000
O O6 0.750000 0.750000 0.543548
O O7 0.799307 0.000000 0.546143
O O8 0.250000 0.250000 0.935576
O O9 0.119756 0.209778 0.921228
O O10 0.199994 0.000000 0.947908
O O11 0.163163 0.210036 0.000000
O O12 0.500000 0.164664 0.796900
O O13 0.391244 0.242117 0.838895
O O14 0.392182 0.245336 0.754498
O O15 0.389986 0.000000 0.795868
O O16 0.000000 0.203200 0.112278
O O17 0.911638 0.000000 0.133267
O O18 0.000000 0.795748 0.295871
O O19 0.088341 0.000000 0.276360
#
# Coordination Sequence:
#
# PCOD8275001 Si02
#       6
#    16  16  16  16  16  16
#     4   9  17  28  43  64  88 113 142 179 220 258
#     4   8  13  22  37  57  81 108 138 172 210 253
#     4   9  18  32  49  69  94 124 154 182 215 258
#     4   9  17  29  46  68  91 114 144 183 223 261
#     4   9  17  30  49  71  93 117 147 184 223 260
#     4   9  17  30  47  64  85 116 150 179 212 261
#
# _framework density 16.925115000000002
#
# number of rings (size 3 to 8) (size 9 to 14) (size 15 to 20)
#    0.000    3.167    0.000    0.500    0.000    3.667 
#    0.000    2.500    0.000    0.500    0.000    8.167 
#    0.000    0.000    0.000   31.167    0.000   17.000 
#
# Total GULP energy -594714.334784 kJ/mol
# GULP energy per Si atom -12389.881975 kJ/mol
# Density = 1.688659 g / cm^3
# Si number density = 16.925115 Si / 1000 Ang^3
#
#
#
# Elastic Constant Matrix: (Units=GPa)
#
#
# Indices 1 2 3 4 5 6 
#
# 1 59.3897 30.6159 66.2967 0.0000 0.0000 0.0000
# 2 30.6159 54.7883 58.8935 0.0000 0.0000 0.0000
# 3 66.2967 58.8935 172.9491 0.0000 0.0000 0.0000
# 4 0.0000 0.0000 0.0000 21.3376 0.0000 0.0000
# 5 0.0000 0.0000 0.0000 0.0000 23.1780 0.0000
# 6 0.0000 0.0000 0.0000 0.0000 0.0000 18.9624
#
#
#
# Elastic Compliance Matrix: (Units=1/GPa)
#
#
# Indices 1 2 3 4 5 6 
#
# 1 0.031138 -0.007208 -0.009482 0.000000 0.000000 0.000000
# 2 -0.007208 0.030459 -0.007609 0.000000 0.000000 0.000000
# 3 -0.009482 -0.007609 0.012008 0.000000 0.000000 0.000000
# 4 0.000000 0.000000 0.000000 0.046866 0.000000 0.000000
# 5 0.000000 0.000000 0.000000 0.000000 0.043144 0.000000
# 6 0.000000 0.000000 0.000000 0.000000 0.000000 0.052736
#
#
# Mechanical properties :
#
#
# Convention : Reuss Voigt Hill
#
# Bulk Modulus (GPa) = 39.98792 66.52658 53.25725
# Shear Modulus (GPa) = 18.29596 21.45032 19.87314
#
# Velocity S-wave (km/s) = 3.29142 3.56387 3.43035
# Velocity P-wave (km/s) = 6.17432 7.50511 6.87200
#
# Compressibility (1/GPa) = 0.02500755
#
# Stress axis : x y z
#
# Youngs Moduli (GPa) = 32.11499 32.83090 83.27958
#
# Poissons Ratio (x) = 0.23664 0.78963
# Poissons Ratio (y) = 0.23148 0.63368
# Poissons Ratio (z) = 0.30450 0.24981
#
# Static dielectric constant tensor:
#      x y z
#    x 2.734820 0.000000 0.000000 
#    y 0.000000 3.160830 0.000000 
#    z 0.000000 0.000000 3.728780 
# 
# 
# High freq. dielectric constant tensor:
#      x y z
#    x 1.601970 0.000000 0.000000 
#    y 0.000000 1.652150 0.000000 
#    z 0.000000 0.000000 1.675590 
# 
# From -- ./inp_files/71412.got.cif
#   From: 2010.03.12/outbox.cif.g09.slc.cpg/sg65_36_cif.got.tgz:71412.got - 2010.04.10 20:52:16.
