data_PCOD8275115
_publ_section_title
;
Structure prediction by ZEFSAII (Michael W. Deem and Ramdas Pophale) SiO2 
 PCOD8275115
Probable space group: C M M M
;
_chemical_formula_sum "Si O2"
_cell_formula_units_Z 104
_cell_length_a 9.140088
_cell_length_b 30.365084
_cell_length_c 28.216914
_cell_angle_alpha 90.000000
_cell_angle_beta 90.000000
_cell_angle_gamma 90.000000
_cell_volume 7831.309329
_symmetry_space_group_name_H-M "C M M M"
_symmetry_group_IT_number 65
_symmetry_cell_setting 'orthorhombic'
loop_
_space_group_symop_operation_xyz
x,y,z
-x,-y,z
x,-y,-z
-x,y,-z
-x,-y,-z
x,y,-z
-x,y,z
x,-y,z
1/2+x,1/2+y,z
1/2-x,1/2-y,z
1/2+x,1/2-y,-z
1/2-x,1/2+y,-z
1/2-x,1/2-y,-z
1/2+x,1/2+y,-z
1/2-x,1/2+y,z
1/2+x,1/2-y,z
loop_
_atom_site_type_symbol
_atom_site_label
_atom_site_fract_x
_atom_site_fract_y
_atom_site_fract_z
Si Si1 0.165640 0.052486 0.092294
Si Si2 0.329811 0.050315 0.369307
Si Si3 0.334933 0.447588 0.723777
Si Si4 0.665688 0.947506 0.000000
Si Si5 0.664888 0.707721 0.443566
Si Si6 0.665547 0.947476 0.184603
Si Si7 0.829689 0.621280 0.554048
O O1 0.250477 0.070472 0.046244
O O2 0.248281 0.070398 0.138772
O O3 0.000000 0.070642 0.091959
O O4 0.164595 0.000000 0.092199
O O5 0.500000 0.054302 0.356561
O O6 0.240739 0.068792 0.324457
O O7 0.287460 0.078817 0.415102
O O8 0.287186 0.000000 0.381037
O O9 0.500000 0.429339 0.725814
O O10 0.333441 0.500000 0.725377
O O11 0.245749 0.428887 0.768657
O O12 0.500000 0.929374 0.000000
O O13 0.664635 0.000000 0.000000
O O14 0.667656 0.709267 0.500000
O O15 0.500000 0.708573 0.423999
O O16 0.750000 0.750000 0.422809
O O17 0.742559 0.663233 0.425880
O O18 0.500000 0.929429 0.183415
O O19 0.665447 0.000000 0.184847
O O20 0.785423 0.610412 0.500000
O O21 0.000000 0.632853 0.557844
#
# Coordination Sequence:
#
# PCOD8275115 Si02
#       7
#    16  16  16   8  16  16  16
#     4   9  15  21  28  38  52  69  89 114 146 185
#     4   9  17  28  40  53  70  93 119 145 173 205
#     4   9  16  25  36  48  61  78 102 133 167 200
#     4   9  15  21  27  35  49  69  91 113 141 181
#     4   9  16  26  41  59  77  95 114 137 166 200
#     4   9  15  22  32  44  56  70  91 121 156 193
#     4   9  17  28  41  57  76  96 118 143 170 203
#
# _framework density 13.280027
#
# number of rings (size 3 to 8) (size 9 to 14) (size 15 to 20)
#    0.000    3.000    0.000    2.077    0.000    9.231 
#    0.000    1.538    0.000    0.000    0.000    4.308 
#    0.000    0.000    0.000    0.000    0.000    0.000 
#
# Total GULP energy -644698.961665 kJ/mol
# GULP energy per Si atom -12398.056955 kJ/mol
# Density = 1.324980 g / cm^3
# Si number density = 13.280027 Si / 1000 Ang^3
#
#
#
# Elastic Constant Matrix: (Units=GPa)
#
#
# Indices 1 2 3 4 5 6 
#
# 1 110.7458 29.3542 58.7060 0.0000 0.0000 0.0000
# 2 29.3542 39.5458 30.8060 0.0000 0.0000 0.0000
# 3 58.7060 30.8060 99.5180 0.0000 0.0000 0.0000
# 4 0.0000 0.0000 0.0000 0.4896 0.0000 0.0000
# 5 0.0000 0.0000 0.0000 0.0000 22.5172 0.0000
# 6 0.0000 0.0000 0.0000 0.0000 0.0000 11.9952
#
#
#
# Elastic Compliance Matrix: (Units=1/GPa)
#
#
# Indices 1 2 3 4 5 6 
#
# 1 0.013899 -0.005179 -0.006596 0.000000 0.000000 0.000000
# 2 -0.005179 0.035252 -0.007857 0.000000 0.000000 0.000000
# 3 -0.006596 -0.007857 0.016372 0.000000 0.000000 0.000000
# 4 0.000000 0.000000 0.000000 2.042342 0.000000 0.000000
# 5 0.000000 0.000000 0.000000 0.000000 0.044411 0.000000
# 6 0.000000 0.000000 0.000000 0.000000 0.000000 0.083367
#
#
# Mechanical properties :
#
#
# Convention : Reuss Voigt Hill
#
# Bulk Modulus (GPa) = 38.08285 54.17135 46.12710
# Shear Modulus (GPa) = 2.18947 15.72996 8.95971
#
# Velocity S-wave (km/s) = 1.28541 3.44536 2.60027
# Velocity P-wave (km/s) = 5.56256 7.53044 6.62003
#
# Compressibility (1/GPa) = 0.02625854
#
# Stress axis : x y z
#
# Youngs Moduli (GPa) = 71.94872 28.36708 61.08122
#
# Poissons Ratio (x) = 0.14690 0.40288
# Poissons Ratio (y) = 0.37260 0.47994
# Poissons Ratio (z) = 0.47456 0.22289
#
# Static dielectric constant tensor:
#      x y z
#    x 2.864860 0.000000 0.000000 
#    y 0.000000 2.172460 0.000000 
#    z 0.000000 0.000000 2.683730 
# 
# 
# High freq. dielectric constant tensor:
#      x y z
#    x 1.524030 0.000000 0.000000 
#    y 0.000000 1.428380 0.000000 
#    z 0.000000 0.000000 1.499120 
# 
# From -- ./inp_files/77035.got.cif
#   From: 2010.03.12/outbox.cif.g09.slc.cpg/sg65_39_cif.got.tgz:77035.got - 2010.04.10 20:52:16.
