data_PCOD8275230
_publ_section_title
;
Structure prediction by ZEFSAII (Michael W. Deem and Ramdas Pophale) SiO2 
 PCOD8275230
Probable space group: C C C M
;
_chemical_formula_sum "Si O2"
_cell_formula_units_Z 84
_cell_length_a 21.708643
_cell_length_b 12.400923
_cell_length_c 20.434519
_cell_angle_alpha 90.000000
_cell_angle_beta 90.000000
_cell_angle_gamma 90.000000
_cell_volume 5501.119853
_symmetry_space_group_name_H-M "C C C M"
_symmetry_group_IT_number 66
_symmetry_cell_setting 'orthorhombic'
loop_
_space_group_symop_operation_xyz
x,y,z
-x,-y,z
x,-y,1/2-z
-x,y,1/2-z
-x,-y,-z
x,y,-z
-x,y,1/2+z
x,-y,1/2+z
1/2+x,1/2+y,z
1/2-x,1/2-y,z
1/2+x,1/2-y,1/2-z
1/2-x,1/2+y,1/2-z
1/2-x,1/2-y,-z
1/2+x,1/2+y,-z
1/2-x,1/2+y,1/2+z
1/2+x,1/2-y,1/2+z
loop_
_atom_site_type_symbol
_atom_site_label
_atom_site_fract_x
_atom_site_fract_y
_atom_site_fract_z
Si Si1 0.756432 0.582514 0.077223
Si Si2 0.545986 0.376702 0.367655
Si Si3 0.849330 0.244249 0.422477
Si Si4 0.079451 0.902456 0.924579
Si Si5 0.000000 0.000000 0.750000
Si Si6 0.284453 0.355220 0.578149
O O1 0.821076 0.638862 0.096922
O O2 0.698849 0.653472 0.101076
O O3 0.751598 0.461039 0.105174
O O4 0.751871 0.579927 0.000000
O O5 0.589175 0.272691 0.378688
O O6 0.475987 0.343824 0.386066
O O7 0.572939 0.468666 0.416011
O O8 0.544608 0.424244 0.293971
O O9 0.863867 0.238136 0.500000
O O10 0.144866 0.859641 0.897049
O O11 0.073597 0.872648 0.000000
O O12 0.283481 0.354248 0.500000
O O13 0.250000 0.250000 0.606680
#
# Coordination Sequence:
#
# PCOD8275230 Si02
#       6
#    16  16  16  16   4  16
#     4   8  14  22  34  61  90 111 135 157 194 247
#     4  10  16  26  40  57  80 107 129 178 212 245
#     4   9  14  22  40  62  86 108 130 168 207 245
#     4   9  15  22  37  61  81 102 135 165 201 247
#     4   8  20  28  34  60  80 110 136 166 218 260
#     4   9  15  23  35  55  88 120 138 157 190 246
#
# _framework density 15.269619
#
# number of rings (size 3 to 8) (size 9 to 14) (size 15 to 20)
#    0.000    3.238    1.905    3.429    0.000    0.000 
#    0.000    0.000    0.000    1.143   19.810    6.667 
#    0.000    6.095    0.000    0.000    0.000    0.000 
#
# Total GULP energy -520346.390962 kJ/mol
# GULP energy per Si atom -12389.199785 kJ/mol
# Density = 1.523486 g / cm^3
# Si number density = 15.269619 Si / 1000 Ang^3
#
#
#
# Elastic Constant Matrix: (Units=GPa)
#
#
# Indices 1 2 3 4 5 6 
#
# 1 128.5860 65.0128 28.6118 0.0000 0.0000 0.0000
# 2 65.0128 97.6091 16.5016 0.0000 0.0000 0.0000
# 3 28.6118 16.5016 44.2260 0.0000 0.0000 0.0000
# 4 0.0000 0.0000 0.0000 9.0604 0.0000 0.0000
# 5 0.0000 0.0000 0.0000 0.0000 5.6983 0.0000
# 6 0.0000 0.0000 0.0000 0.0000 0.0000 27.7055
#
#
#
# Elastic Compliance Matrix: (Units=1/GPa)
#
#
# Indices 1 2 3 4 5 6 
#
# 1 0.012855 -0.007638 -0.005467 0.000000 0.000000 0.000000
# 2 -0.007638 0.015473 -0.000832 0.000000 0.000000 0.000000
# 3 -0.005467 -0.000832 0.026458 0.000000 0.000000 0.000000
# 4 0.000000 0.000000 0.000000 0.110371 0.000000 0.000000
# 5 0.000000 0.000000 0.000000 0.000000 0.175491 0.000000
# 6 0.000000 0.000000 0.000000 0.000000 0.000000 0.036094
#
#
# Mechanical properties :
#
#
# Convention : Reuss Voigt Hill
#
# Bulk Modulus (GPa) = 37.15666 54.51927 45.83797
# Shear Modulus (GPa) = 12.08939 19.17918 15.63429
#
# Velocity S-wave (km/s) = 2.81682 3.54790 3.20329
# Velocity P-wave (km/s) = 5.91319 7.25020 6.61556
#
# Compressibility (1/GPa) = 0.02691308
#
# Stress axis : x y z
#
# Youngs Moduli (GPa) = 77.79083 64.62940 37.79561
#
# Poissons Ratio (x) = 0.49363 0.20661
# Poissons Ratio (y) = 0.59416 0.03144
# Poissons Ratio (z) = 0.42525 0.05376
#
# Static dielectric constant tensor:
#      x y z
#    x 3.100020 0.000000 0.000000 
#    y 0.000000 3.077310 0.000000 
#    z 0.000000 0.000000 2.464520 
# 
# 
# High freq. dielectric constant tensor:
#      x y z
#    x 1.588870 0.000000 0.000000 
#    y 0.000000 1.555460 0.000000 
#    z 0.000000 0.000000 1.531380 
# 
# From -- ./inp_files/52497.got.cif
#   From: 2010.03.12/outbox.cif.g09.slc.cpg/sg66_27_cif.got.tgz:52497.got - 2010.04.10 21:57:39.
