data_PCOD8275925
_publ_section_title
;
Structure prediction by ZEFSAII (Michael W. Deem and Ramdas Pophale) SiO2 
 PCOD8275925
Probable space group: C C C M
;
_chemical_formula_sum "Si O2"
_cell_formula_units_Z 64
_cell_length_a 24.289618
_cell_length_b 9.244413
_cell_length_c 14.909729
_cell_angle_alpha 90.000000
_cell_angle_beta 90.000000
_cell_angle_gamma 90.000000
_cell_volume 3347.879161
_symmetry_space_group_name_H-M "C C C M"
_symmetry_group_IT_number 66
_symmetry_cell_setting 'orthorhombic'
loop_
_space_group_symop_operation_xyz
x,y,z
-x,-y,z
x,-y,1/2-z
-x,y,1/2-z
-x,-y,-z
x,y,-z
-x,y,1/2+z
x,-y,1/2+z
1/2+x,1/2+y,z
1/2-x,1/2-y,z
1/2+x,1/2-y,1/2-z
1/2-x,1/2+y,1/2-z
1/2-x,1/2-y,-z
1/2+x,1/2+y,-z
1/2-x,1/2+y,1/2+z
1/2+x,1/2-y,1/2+z
loop_
_atom_site_type_symbol
_atom_site_label
_atom_site_fract_x
_atom_site_fract_y
_atom_site_fract_z
Si Si1 0.557150 0.079127 0.000000
Si Si2 0.748247 0.410255 0.395307
Si Si3 0.655589 0.379266 0.898586
Si Si4 0.859547 0.433591 0.843913
Si Si5 0.943736 0.085216 0.000000
O O1 0.591659 0.033989 0.912836
O O2 0.500000 0.000000 0.000000
O O3 0.542315 0.246620 0.000000
O O4 0.736697 0.394545 0.500000
O O5 0.750000 0.250000 0.351262
O O6 0.697551 0.504890 0.355081
O O7 0.804607 0.489069 0.376052
O O8 0.653029 0.237826 0.835806
O O9 0.674677 0.329069 0.000000
O O10 0.594034 0.449386 0.911301
O O11 0.878891 0.500000 0.750000
O O12 0.000000 0.000000 0.000000
#
# Coordination Sequence:
#
# PCOD8275925 Si02
#       5
#     8  16  16  16   8
#     4  10  22  39  58  81 113 148 194 244 293 336
#     4  10  19  32  54  85 118 151 194 235 284 348
#     4   8  17  34  56  82 116 152 188 233 290 344
#     4  11  21  36  58  83 113 154 193 234 291 350
#     4   8  16  31  56  85 105 144 192 232 289 346
#
# _framework density 19.116579999999999
#
# number of rings (size 3 to 8) (size 9 to 14) (size 15 to 20)
#    0.750    1.750    2.500    0.750    0.000    6.500 
#    0.000    0.000    0.000    0.000    0.000    1.750 
#    0.000    0.000    0.000    0.000    0.000    0.000 
#
# Total GULP energy -396506.891263 kJ/mol
# GULP energy per Si atom -12390.840352 kJ/mol
# Density = 1.907307 g / cm^3
# Si number density = 19.116580 Si / 1000 Ang^3
#
#
#
# Elastic Constant Matrix: (Units=GPa)
#
#
# Indices 1 2 3 4 5 6 
#
# 1 188.7924 103.8269 32.2661 0.0000 0.0000 0.0000
# 2 103.8269 132.6996 50.8929 0.0000 0.0000 0.0000
# 3 32.2661 50.8929 65.5814 0.0000 0.0000 0.0000
# 4 0.0000 0.0000 0.0000 10.5559 0.0000 0.0000
# 5 0.0000 0.0000 0.0000 0.0000 -12.6375 0.0000
# 6 0.0000 0.0000 0.0000 0.0000 0.0000 44.5636
#
#
#
# Elastic Compliance Matrix: (Units=1/GPa)
#
#
# Indices 1 2 3 4 5 6 
#
# 1 0.009406 -0.007951 0.001542 0.000000 0.000000 0.000000
# 2 -0.007951 0.017450 -0.009630 0.000000 0.000000 0.000000
# 3 0.001542 -0.009630 0.021962 0.000000 0.000000 0.000000
# 4 0.000000 0.000000 0.000000 0.094734 0.000000 0.000000
# 5 0.000000 0.000000 0.000000 0.000000 -0.079130 0.000000
# 6 0.000000 0.000000 0.000000 0.000000 0.000000 0.022440
#
#
# Mechanical properties :
#
#
# Convention : Reuss Voigt Hill
#
# Bulk Modulus (GPa) = 59.73142 84.56058 72.14600
# Shear Modulus (GPa) = 40.15441 21.83557 30.99499
#
# Velocity S-wave (km/s) = 4.58810 3.38336 4.03099
# Velocity P-wave (km/s) = 7.70592 7.71965 7.71279
#
# Compressibility (1/GPa) = 0.01674161
#
# Stress axis : x y z
#
# Youngs Moduli (GPa) = 106.31734 57.30686 45.53256
#
# Poissons Ratio (x) = 0.45564 -0.07023
# Poissons Ratio (y) = 0.84531 0.43847
# Poissons Ratio (z) = -0.16398 0.55185
#
# Static dielectric constant tensor:
#      x y z
#    x 3.480570 0.000000 0.000000 
#    y 0.000000 4.328950 0.000000 
#    z 0.000000 0.000000 3.336350 
# 
# 
# High freq. dielectric constant tensor:
#      x y z
#    x 1.741140 0.000000 0.000000 
#    y 0.000000 1.747160 0.000000 
#    z 0.000000 0.000000 1.711520 
# 
# From -- ./inp_files/31925.got.cif
#   From: 2010.03.12/outbox.cif.g09.slc.cpg/sg66_16_cif.got.tgz:31925.got - 2010.04.10 21:57:39.
