data_PCOD8275141
_publ_section_title
;
Structure prediction by ZEFSAII (Michael W. Deem and Ramdas Pophale) SiO2 
 PCOD8275141
Probable space group: C M M M
;
_chemical_formula_sum "Si O2"
_cell_formula_units_Z 72
_cell_length_a 18.519742
_cell_length_b 34.973325
_cell_length_c 7.934737
_cell_angle_alpha 90.000000
_cell_angle_beta 90.000000
_cell_angle_gamma 90.000000
_cell_volume 5139.305001
_symmetry_space_group_name_H-M "C M M M"
_symmetry_group_IT_number 65
_symmetry_cell_setting 'orthorhombic'
loop_
_space_group_symop_operation_xyz
x,y,z
-x,-y,z
x,-y,-z
-x,y,-z
-x,-y,-z
x,y,-z
-x,y,z
x,-y,z
1/2+x,1/2+y,z
1/2-x,1/2-y,z
1/2+x,1/2-y,-z
1/2-x,1/2+y,-z
1/2-x,1/2-y,-z
1/2+x,1/2+y,-z
1/2-x,1/2+y,z
1/2+x,1/2-y,z
loop_
_atom_site_type_symbol
_atom_site_label
_atom_site_fract_x
_atom_site_fract_y
_atom_site_fract_z
Si Si1 0.914825 0.404268 0.305170
Si Si2 0.286641 0.288911 0.803678
Si Si3 0.919645 0.250381 0.698931
Si Si4 0.846202 0.673543 0.693396
Si Si5 0.585492 0.042634 0.000000
O O1 0.892903 0.414579 0.500000
O O2 0.875768 0.366203 0.233809
O O3 0.000000 0.397290 0.294939
O O4 0.889357 0.436963 0.174077
O O5 0.250000 0.250000 0.737682
O O6 0.370705 0.286440 0.750068
O O7 0.240862 0.323399 0.719492
O O8 0.279596 0.294626 0.000000
O O9 0.922135 0.253494 0.500000
O O10 0.886228 0.289644 0.777792
O O11 0.000000 0.244220 0.772718
O O12 0.867127 0.673280 0.500000
O O13 0.500000 0.040685 0.000000
O O14 0.618847 0.000000 0.000000
#
# Coordination Sequence:
#
# PCOD8275141 Si02
#       5
#    16  16  16  16   8
#     4   9  17  28  42  60  79 100 129 163 197 231
#     4   9  17  26  35  50  72  96 123 156 194 233
#     4   9  16  26  39  52  69  96 129 163 197 230
#     4   9  16  26  40  55  72  95 126 164 199 229
#     4   9  18  30  42  58  79 102 127 155 190 233
#
# _framework density 14.009676000000001
#
# number of rings (size 3 to 8) (size 9 to 14) (size 15 to 20)
#    0.000    3.000    0.000    1.333    1.556    6.222 
#    0.000    2.222    0.000    0.000    0.000    0.000 
#    0.000    0.000    0.000    0.000    0.000    2.222 
#
# Total GULP energy -446041.235595 kJ/mol
# GULP energy per Si atom -12390.034322 kJ/mol
# Density = 1.397779 g / cm^3
# Si number density = 14.009676 Si / 1000 Ang^3
#
#
#
# Elastic Constant Matrix: (Units=GPa)
#
#
# Indices 1 2 3 4 5 6 
#
# 1 75.7609 39.0150 14.1608 0.0000 0.0000 0.0000
# 2 39.0150 77.0578 30.9892 0.0000 0.0000 0.0000
# 3 14.1608 30.9892 47.6567 0.0000 0.0000 0.0000
# 4 0.0000 0.0000 0.0000 17.9567 0.0000 0.0000
# 5 0.0000 0.0000 0.0000 0.0000 11.4441 0.0000
# 6 0.0000 0.0000 0.0000 0.0000 0.0000 13.5244
#
#
#
# Elastic Compliance Matrix: (Units=1/GPa)
#
#
# Indices 1 2 3 4 5 6 
#
# 1 0.017876 -0.009363 0.000777 0.000000 0.000000 0.000000
# 2 -0.009363 0.022477 -0.011834 0.000000 0.000000 0.000000
# 3 0.000777 -0.011834 0.028448 0.000000 0.000000 0.000000
# 4 0.000000 0.000000 0.000000 0.055689 0.000000 0.000000
# 5 0.000000 0.000000 0.000000 0.000000 0.087381 0.000000
# 6 0.000000 0.000000 0.000000 0.000000 0.000000 0.073941
#
#
# Mechanical properties :
#
#
# Convention : Reuss Voigt Hill
#
# Bulk Modulus (GPa) = 35.76485 40.97837 38.37161
# Shear Modulus (GPa) = 14.88220 16.33906 15.61063
#
# Velocity S-wave (km/s) = 3.26280 3.41877 3.34170
# Velocity P-wave (km/s) = 6.30703 6.70056 6.50677
#
# Compressibility (1/GPa) = 0.02796041
#
# Stress axis : x y z
#
# Youngs Moduli (GPa) = 55.94082 44.49027 35.15247
#
# Poissons Ratio (x) = 0.41657 -0.02730
# Poissons Ratio (y) = 0.52378 0.41598
# Poissons Ratio (z) = -0.04345 0.52648
#
# Static dielectric constant tensor:
#      x y z
#    x 2.814580 0.000000 0.000000 
#    y 0.000000 2.685820 0.000000 
#    z 0.000000 0.000000 2.737980 
# 
# 
# High freq. dielectric constant tensor:
#      x y z
#    x 1.510600 0.000000 0.000000 
#    y 0.000000 1.490700 0.000000 
#    z 0.000000 0.000000 1.541720 
# 
# From -- ./inp_files/9451.got.cif
#   From: 2010.03.12/outbox.cif.g09.slc.cpg/sg65_5_cif.got.tgz:9451.got - 2010.04.10 20:52:16.
