data_PCOD8275471
_publ_section_title
;
Structure prediction by ZEFSAII (Michael W. Deem and Ramdas Pophale) SiO2 
 PCOD8275471
Probable space group: C C C M
;
_chemical_formula_sum "Si O2"
_cell_formula_units_Z 80
_cell_length_a 27.832178
_cell_length_b 8.290326
_cell_length_c 17.707885
_cell_angle_alpha 90.000000
_cell_angle_beta 90.000000
_cell_angle_gamma 90.000000
_cell_volume 4085.878939
_symmetry_space_group_name_H-M "C C C M"
_symmetry_group_IT_number 66
_symmetry_cell_setting 'orthorhombic'
loop_
_space_group_symop_operation_xyz
x,y,z
-x,-y,z
x,-y,1/2-z
-x,y,1/2-z
-x,-y,-z
x,y,-z
-x,y,1/2+z
x,-y,1/2+z
1/2+x,1/2+y,z
1/2-x,1/2-y,z
1/2+x,1/2-y,1/2-z
1/2-x,1/2+y,1/2-z
1/2-x,1/2-y,-z
1/2+x,1/2+y,-z
1/2-x,1/2+y,1/2+z
1/2+x,1/2-y,1/2+z
loop_
_atom_site_type_symbol
_atom_site_label
_atom_site_fract_x
_atom_site_fract_y
_atom_site_fract_z
Si Si1 0.603231 0.157375 0.794286
Si Si2 0.550846 0.453193 0.836255
Si Si3 0.168167 0.490952 0.085683
Si Si4 0.759743 0.063753 0.331058
Si Si5 0.361143 0.339556 0.849271
O O1 0.561197 0.259943 0.836368
O O2 0.639660 0.107929 0.859246
O O3 0.631421 0.272051 0.735632
O O4 0.582191 0.000000 0.750000
O O5 0.500000 0.500000 0.875934
O O6 0.547796 0.500000 0.750000
O O7 0.592877 0.556925 0.876801
O O8 0.224694 0.511016 0.105528
O O9 0.148908 0.307706 0.094076
O O10 0.160178 0.546258 0.000000
O O11 0.750000 0.250000 0.328703
O O12 0.815977 0.036241 0.349629
O O13 0.744031 0.000000 0.250000
#
# Coordination Sequence:
#
# PCOD8275471 Si02
#       5
#    16  16  16  16  16
#     4   9  17  33  54  78 106 136 169 210 262 310
#     4   9  17  32  55  81 103 126 167 218 259 299
#     4  10  20  33  49  73 104 136 173 216 258 301
#     4  10  18  29  50  74 100 135 170 206 252 308
#     4   9  18  32  53  75 101 136 170 207 253 312
#
# _framework density 19.579630999999999
#
# number of rings (size 3 to 8) (size 9 to 14) (size 15 to 20)
#    0.000    2.600    0.000    4.800    0.000    3.600 
#    0.000   18.000    0.000   17.400    0.000    0.000 
#    0.000    0.000    0.000    0.000    0.000    0.000 
#
# Total GULP energy -495697.132175 kJ/mol
# GULP energy per Si atom -12392.428304 kJ/mol
# Density = 1.953507 g / cm^3
# Si number density = 19.579631 Si / 1000 Ang^3
#
#
#
# Elastic Constant Matrix: (Units=GPa)
#
#
# Indices 1 2 3 4 5 6 
#
# 1 163.9466 65.2067 29.2816 0.0000 0.0000 0.0000
# 2 65.2067 86.0734 22.6603 0.0000 0.0000 0.0000
# 3 29.2816 22.6603 72.6346 0.0000 0.0000 0.0000
# 4 0.0000 0.0000 0.0000 10.4394 0.0000 0.0000
# 5 0.0000 0.0000 0.0000 0.0000 1.5836 0.0000
# 6 0.0000 0.0000 0.0000 0.0000 0.0000 31.4860
#
#
#
# Elastic Compliance Matrix: (Units=1/GPa)
#
#
# Indices 1 2 3 4 5 6 
#
# 1 0.008901 -0.006317 -0.001617 0.000000 0.000000 0.000000
# 2 -0.006317 0.017141 -0.002801 0.000000 0.000000 0.000000
# 3 -0.001617 -0.002801 0.015293 0.000000 0.000000 0.000000
# 4 0.000000 0.000000 0.000000 0.095791 0.000000 0.000000
# 5 0.000000 0.000000 0.000000 0.000000 0.631487 0.000000
# 6 0.000000 0.000000 0.000000 0.000000 0.000000 0.031760
#
#
# Mechanical properties :
#
#
# Convention : Reuss Voigt Hill
#
# Bulk Modulus (GPa) = 50.34170 61.88352 56.11261
# Shear Modulus (GPa) = 6.03525 22.40220 14.21873
#
# Velocity S-wave (km/s) = 1.75758 3.38621 2.69773
# Velocity P-wave (km/s) = 5.46680 6.85297 6.19876
#
# Compressibility (1/GPa) = 0.01986425
#
# Stress axis : x y z
#
# Youngs Moduli (GPa) = 112.34647 58.33894 65.38759
#
# Poissons Ratio (x) = 0.36855 0.10576
# Poissons Ratio (y) = 0.70973 0.18314
# Poissons Ratio (z) = 0.18172 0.16340
#
# Static dielectric constant tensor:
#      x y z
#    x 4.760710 0.000000 0.000000 
#    y 0.000000 3.787480 0.000000 
#    z 0.000000 0.000000 3.076530 
# 
# 
# High freq. dielectric constant tensor:
#      x y z
#    x 1.761360 0.000000 0.000000 
#    y 0.000000 1.762560 0.000000 
#    z 0.000000 0.000000 1.714360 
# 
# From -- ./inp_files/36986.got.cif
#   From: 2010.03.12/outbox.cif.g09.slc.cpg/sg66_19_cif.got.tgz:36986.got - 2010.04.10 21:57:39.
