data_PCOD8275593
_publ_section_title
;
Structure prediction by ZEFSAII (Michael W. Deem and Ramdas Pophale) SiO2 
 PCOD8275593
Probable space group: C C C M
;
_chemical_formula_sum "Si O2"
_cell_formula_units_Z 96
_cell_length_a 28.345409
_cell_length_b 10.300100
_cell_length_c 17.428161
_cell_angle_alpha 90.000000
_cell_angle_beta 90.000000
_cell_angle_gamma 90.000000
_cell_volume 5088.335423
_symmetry_space_group_name_H-M "C C C M"
_symmetry_group_IT_number 66
_symmetry_cell_setting 'orthorhombic'
loop_
_space_group_symop_operation_xyz
x,y,z
-x,-y,z
x,-y,1/2-z
-x,y,1/2-z
-x,-y,-z
x,y,-z
-x,y,1/2+z
x,-y,1/2+z
1/2+x,1/2+y,z
1/2-x,1/2-y,z
1/2+x,1/2-y,1/2-z
1/2-x,1/2+y,1/2-z
1/2-x,1/2-y,-z
1/2+x,1/2+y,-z
1/2-x,1/2+y,1/2+z
1/2+x,1/2-y,1/2+z
loop_
_atom_site_type_symbol
_atom_site_label
_atom_site_fract_x
_atom_site_fract_y
_atom_site_fract_z
Si Si1 0.090237 0.762533 0.408948
Si Si2 0.100371 0.243193 0.590976
Si Si3 0.854671 0.489498 0.408881
Si Si4 0.754592 0.602924 0.908537
Si Si5 0.344150 0.491913 0.090607
Si Si6 0.503766 0.352094 0.159412
O O1 0.087794 0.769210 0.500000
O O2 0.112822 0.628296 0.380387
O O3 0.121470 0.881043 0.375312
O O4 0.037972 0.767767 0.376025
O O5 0.091255 0.245111 0.500000
O O6 0.122831 0.376967 0.621945
O O7 0.051623 0.216033 0.633253
O O8 0.137383 0.132375 0.615013
O O9 0.852659 0.494248 0.500000
O O10 0.801725 0.466879 0.376287
O O11 0.750000 0.750000 0.878051
O O12 0.709058 0.524138 0.877918
O O13 0.756813 0.604566 0.000000
O O14 0.343449 0.474296 0.000000
O O15 0.500000 0.500000 0.128378
O O16 0.500000 0.349372 0.250000
#
# Coordination Sequence:
#
# PCOD8275593 Si02
#       6
#    16  16  16  16  16  16
#     4  10  18  32  54  78 102 134 172 209 253 306
#     4  10  20  34  51  77 108 136 170 215 262 305
#     4   9  18  30  48  77 111 138 166 210 257 300
#     4   9  14  24  44  74 109 139 168 205 248 299
#     4   9  16  26  47  75 103 136 169 202 249 303
#     4  11  23  37  54  76  99 132 176 220 264 310
#
# _framework density 18.866679999999999
#
# number of rings (size 3 to 8) (size 9 to 14) (size 15 to 20)
#    0.000    2.333    3.333    0.500    0.000    2.000 
#    0.000    7.500    0.000    0.000    0.000    7.000 
#    0.000    0.000    0.000    0.000    0.000    0.000 
#
# Total GULP energy -595138.731029 kJ/mol
# GULP energy per Si atom -12398.723563 kJ/mol
# Density = 1.882374 g / cm^3
# Si number density = 18.866680 Si / 1000 Ang^3
#
#
#
# Elastic Constant Matrix: (Units=GPa)
#
#
# Indices 1 2 3 4 5 6 
#
# 1 199.0446 97.1357 24.8623 0.0000 0.0000 0.0000
# 2 97.1357 167.7340 22.4387 0.0000 0.0000 0.0000
# 3 24.8623 22.4387 17.7713 0.0000 0.0000 0.0000
# 4 0.0000 0.0000 0.0000 11.5979 0.0000 0.0000
# 5 0.0000 0.0000 0.0000 0.0000 -2.5933 0.0000
# 6 0.0000 0.0000 0.0000 0.0000 0.0000 36.8853
#
#
#
# Elastic Compliance Matrix: (Units=1/GPa)
#
#
# Indices 1 2 3 4 5 6 
#
# 1 0.007504 -0.003539 -0.006030 0.000000 0.000000 0.000000
# 2 -0.003539 0.008843 -0.006214 0.000000 0.000000 0.000000
# 3 -0.006030 -0.006214 0.072552 0.000000 0.000000 0.000000
# 4 0.000000 0.000000 0.000000 0.086223 0.000000 0.000000
# 5 0.000000 0.000000 0.000000 0.000000 -0.385614 0.000000
# 6 0.000000 0.000000 0.000000 0.000000 0.000000 0.027111
#
#
# Mechanical properties :
#
#
# Convention : Reuss Voigt Hill
#
# Bulk Modulus (GPa) = 17.44185 74.82481 46.13333
# Shear Modulus (GPa) = -37.67763 25.18554 -6.24605
#
# Velocity S-wave (km/s) = -4.47368 3.65762 -1.82149
# Velocity P-wave (km/s) = 4.17375 7.58838 4.48125
#
# Compressibility (1/GPa) = 0.05733337
#
# Stress axis : x y z
#
# Youngs Moduli (GPa) = 133.25650 113.08915 13.78321
#
# Poissons Ratio (x) = 0.40024 0.08311
# Poissons Ratio (y) = 0.47161 0.08564
# Poissons Ratio (z) = 0.80354 0.70270
#
# Static dielectric constant tensor:
#      x y z
#    x 3.745550 0.000000 0.000000 
#    y 0.000000 3.678650 0.000000 
#    z 0.000000 0.000000 2.817430 
# 
# 
# High freq. dielectric constant tensor:
#      x y z
#    x 1.751850 0.000000 0.000000 
#    y 0.000000 1.737820 0.000000 
#    z 0.000000 0.000000 1.668440 
# 
# From -- ./inp_files/52986.got.cif
#   From: 2010.03.12/outbox.cif.g09.slc.cpg/sg66_27_cif.got.tgz:52986.got - 2010.04.10 21:57:39.
