data_PCOD8275811
_publ_section_title
;
Structure prediction by ZEFSAII (Michael W. Deem and Ramdas Pophale) SiO2 
 PCOD8275811
Probable space group: C C C M
;
_chemical_formula_sum "Si O2"
_cell_formula_units_Z 80
_cell_length_a 27.268930
_cell_length_b 20.711927
_cell_length_c 8.881626
_cell_angle_alpha 90.000000
_cell_angle_beta 90.000000
_cell_angle_gamma 90.000000
_cell_volume 5016.272089
_symmetry_space_group_name_H-M "C C C M"
_symmetry_group_IT_number 66
_symmetry_cell_setting 'orthorhombic'
loop_
_space_group_symop_operation_xyz
x,y,z
-x,-y,z
x,-y,1/2-z
-x,y,1/2-z
-x,-y,-z
x,y,-z
-x,y,1/2+z
x,-y,1/2+z
1/2+x,1/2+y,z
1/2-x,1/2-y,z
1/2+x,1/2-y,1/2-z
1/2-x,1/2+y,1/2-z
1/2-x,1/2-y,-z
1/2+x,1/2+y,-z
1/2-x,1/2+y,1/2+z
1/2+x,1/2-y,1/2+z
loop_
_atom_site_type_symbol
_atom_site_label
_atom_site_fract_x
_atom_site_fract_y
_atom_site_fract_z
Si Si1 0.850234 0.188174 0.171261
Si Si2 0.049375 0.237590 0.670827
Si Si3 0.321085 0.066892 0.322454
Si Si4 0.291811 0.433999 0.323622
Si Si5 0.371785 0.812009 0.321877
O O1 0.909836 0.179938 0.174803
O O2 0.824247 0.125201 0.240850
O O3 0.836687 0.252302 0.268208
O O4 0.831903 0.199559 0.000000
O O5 0.037786 0.258315 0.500000
O O6 0.072868 0.298889 0.760053
O O7 0.000000 0.213196 0.750000
O O8 0.329618 0.064682 0.500000
O O9 0.264422 0.079662 0.281123
O O10 0.353374 0.122351 0.250084
O O11 0.338750 0.000000 0.250000
O O12 0.310801 0.500000 0.250000
O O13 0.299667 0.441210 0.500000
O O14 0.371650 0.817654 0.500000
#
# Coordination Sequence:
#
# PCOD8275811 Si02
#       5
#    16  16  16  16  16
#     4   8  17  32  48  69  96 127 159 197 242 285
#     4   9  17  31  51  72  96 122 156 196 244 290
#     4  10  19  32  49  69  97 131 164 197 237 283
#     4   9  18  32  49  69  96 131 165 197 238 286
#     4  10  19  31  48  72  97 125 162 199 238 281
#
# _framework density 15.948097000000001
#
# number of rings (size 3 to 8) (size 9 to 14) (size 15 to 20)
#    1.200    1.600    0.000    2.400    0.000    2.400 
#    0.000    4.000    0.000    1.200    0.000    8.400 
#    0.000    0.000    0.000    0.000    0.000    0.000 
#
# Total GULP energy -495630.185517 kJ/mol
# GULP energy per Si atom -12390.754638 kJ/mol
# Density = 1.591180 g / cm^3
# Si number density = 15.948097 Si / 1000 Ang^3
#
#
#
# Elastic Constant Matrix: (Units=GPa)
#
#
# Indices 1 2 3 4 5 6 
#
# 1 35.6595 7.6376 13.0592 0.0000 0.0000 0.0000
# 2 7.6376 52.5755 16.8712 0.0000 0.0000 0.0000
# 3 13.0592 16.8712 79.3004 0.0000 0.0000 0.0000
# 4 0.0000 0.0000 0.0000 28.9191 0.0000 0.0000
# 5 0.0000 0.0000 0.0000 0.0000 20.4009 0.0000
# 6 0.0000 0.0000 0.0000 0.0000 0.0000 5.1657
#
#
#
# Elastic Compliance Matrix: (Units=1/GPa)
#
#
# Indices 1 2 3 4 5 6 
#
# 1 0.030278 -0.003004 -0.004347 0.000000 0.000000 0.000000
# 2 -0.003004 0.020712 -0.003912 0.000000 0.000000 0.000000
# 3 -0.004347 -0.003912 0.014158 0.000000 0.000000 0.000000
# 4 0.000000 0.000000 0.000000 0.034579 0.000000 0.000000
# 5 0.000000 0.000000 0.000000 0.000000 0.049017 0.000000
# 6 0.000000 0.000000 0.000000 0.000000 0.000000 0.193586
#
#
# Mechanical properties :
#
#
# Convention : Reuss Voigt Hill
#
# Bulk Modulus (GPa) = 23.46126 26.96349 25.21237
# Shear Modulus (GPa) = 13.19039 19.56163 16.37601
#
# Velocity S-wave (km/s) = 2.87902 3.50606 3.20790
# Velocity P-wave (km/s) = 5.07884 5.77353 5.43729
#
# Compressibility (1/GPa) = 0.04262346
#
# Stress axis : x y z
#
# Youngs Moduli (GPa) = 33.02687 48.28148 70.62931
#
# Poissons Ratio (x) = 0.14501 0.30704
# Poissons Ratio (y) = 0.09920 0.27629
# Poissons Ratio (z) = 0.14358 0.18887
#
# Static dielectric constant tensor:
#      x y z
#    x 2.871470 0.000000 0.000000 
#    y 0.000000 2.965760 0.000000 
#    z 0.000000 0.000000 3.073470 
# 
# 
# High freq. dielectric constant tensor:
#      x y z
#    x 1.590930 0.000000 0.000000 
#    y 0.000000 1.597060 0.000000 
#    z 0.000000 0.000000 1.622720 
# 
# From -- ./inp_files/8208.got.cif
#   From: 2010.03.12/outbox.cif.g09.slc.cpg/sg66_5_cif.got.tgz:8208.got - 2010.04.10 21:57:39.
