data_PCOD8275231
_publ_section_title
;
Structure prediction by ZEFSAII (Michael W. Deem and Ramdas Pophale) SiO2 
 PCOD8275231
Probable space group: C C C M
;
_chemical_formula_sum "Si O2"
_cell_formula_units_Z 128
_cell_length_a 19.259953
_cell_length_b 21.921192
_cell_length_c 19.012730
_cell_angle_alpha 90.000000
_cell_angle_beta 90.000000
_cell_angle_gamma 90.000000
_cell_volume 8027.196045
_symmetry_space_group_name_H-M "C C C M"
_symmetry_group_IT_number 66
_symmetry_cell_setting 'orthorhombic'
loop_
_space_group_symop_operation_xyz
x,y,z
-x,-y,z
x,-y,1/2-z
-x,y,1/2-z
-x,-y,-z
x,y,-z
-x,y,1/2+z
x,-y,1/2+z
1/2+x,1/2+y,z
1/2-x,1/2-y,z
1/2+x,1/2-y,1/2-z
1/2-x,1/2+y,1/2-z
1/2-x,1/2-y,-z
1/2+x,1/2+y,-z
1/2-x,1/2+y,1/2+z
1/2+x,1/2-y,1/2+z
loop_
_atom_site_type_symbol
_atom_site_label
_atom_site_fract_x
_atom_site_fract_y
_atom_site_fract_z
Si Si1 0.356031 0.645139 0.834325
Si Si2 0.599751 0.215263 0.160411
Si Si3 0.091848 0.143368 0.080065
Si Si4 0.041310 0.720244 0.418803
Si Si5 0.488211 0.571507 0.828188
Si Si6 0.149676 0.698136 0.308854
Si Si7 0.201315 0.165329 0.188857
Si Si8 0.770432 0.679813 0.421547
O O1 0.389042 0.712159 0.842370
O O2 0.412177 0.593278 0.854559
O O3 0.331539 0.630582 0.755226
O O4 0.289779 0.639579 0.885560
O O5 0.528120 0.200674 0.121469
O O6 0.600021 0.190367 0.240635
O O7 0.658471 0.175628 0.121469
O O8 0.052820 0.207673 0.086855
O O9 0.167282 0.141923 0.116648
O O10 0.044022 0.094191 0.116627
O O11 0.104267 0.124648 0.000000
O O12 0.038505 0.698897 0.500000
O O13 0.105299 0.687263 0.379463
O O14 0.500000 0.500000 0.825780
O O15 0.500000 0.599664 0.750000
O O16 0.183697 0.764116 0.302782
O O17 0.215754 0.652629 0.311777
O O18 0.781709 0.654356 0.500000
O O19 0.750000 0.750000 0.423060
#
# Coordination Sequence:
#
# PCOD8275231 Si02
#       8
#    16  16  16  16  16  16  16  16
#     4  10  17  29  47  60  82 113 149 191 232 275
#     4  10  16  26  44  63  86 118 148 185 222 272
#     4  10  20  32  46  62  82 116 153 191 235 269
#     4  10  19  27  39  62  91 120 150 185 223 263
#     4  11  22  34  49  66  85 114 155 202 242 276
#     4   9  17  26  42  62  82 112 150 183 222 266
#     4   9  16  29  44  60  81 108 148 190 223 270
#     4   9  17  26  40  65  88 109 142 183 226 270
#
# _framework density 15.945792000000001
#
# number of rings (size 3 to 8) (size 9 to 14) (size 15 to 20)
#    0.000    2.250    3.750    0.750    0.000    1.750 
#    0.000    2.500    0.000    0.000    0.000    0.000 
#    0.000    0.000    0.000    1.125    6.750    5.250 
#
# Total GULP energy -793299.868457 kJ/mol
# GULP energy per Si atom -12395.310445 kJ/mol
# Density = 1.590950 g / cm^3
# Si number density = 15.945792 Si / 1000 Ang^3
#
#
#
# Elastic Constant Matrix: (Units=GPa)
#
#
# Indices 1 2 3 4 5 6 
#
# 1 115.7003 26.9791 58.1201 0.0000 0.0000 0.0000
# 2 26.9791 27.1414 18.8747 0.0000 0.0000 0.0000
# 3 58.1201 18.8747 137.4307 0.0000 0.0000 0.0000
# 4 0.0000 0.0000 0.0000 10.4714 0.0000 0.0000
# 5 0.0000 0.0000 0.0000 0.0000 28.2021 0.0000
# 6 0.0000 0.0000 0.0000 0.0000 0.0000 14.0752
#
#
#
# Elastic Compliance Matrix: (Units=1/GPa)
#
#
# Indices 1 2 3 4 5 6 
#
# 1 0.013085 -0.010126 -0.004143 0.000000 0.000000 0.000000
# 2 -0.010126 0.048570 -0.002388 0.000000 0.000000 0.000000
# 3 -0.004143 -0.002388 0.009357 0.000000 0.000000 0.000000
# 4 0.000000 0.000000 0.000000 0.095498 0.000000 0.000000
# 5 0.000000 0.000000 0.000000 0.000000 0.035458 0.000000
# 6 0.000000 0.000000 0.000000 0.000000 0.000000 0.071047
#
#
# Mechanical properties :
#
#
# Convention : Reuss Voigt Hill
#
# Bulk Modulus (GPa) = 26.52696 54.24670 40.38683
# Shear Modulus (GPa) = 15.67904 22.30296 18.99100
#
# Velocity S-wave (km/s) = 3.13912 3.74394 3.45479
# Velocity P-wave (km/s) = 5.45991 7.26517 6.42625
#
# Compressibility (1/GPa) = 0.03769750
#
# Stress axis : x y z
#
# Youngs Moduli (GPa) = 76.42056 20.58864 106.87653
#
# Poissons Ratio (x) = 0.20848 0.44281
# Poissons Ratio (y) = 0.77383 0.25526
# Poissons Ratio (z) = 0.31663 0.04917
#
# Static dielectric constant tensor:
#      x y z
#    x 3.228070 0.000000 0.000000 
#    y 0.000000 2.385080 0.000000 
#    z 0.000000 0.000000 3.273890 
# 
# 
# High freq. dielectric constant tensor:
#      x y z
#    x 1.622940 0.000000 0.000000 
#    y 0.000000 1.527410 0.000000 
#    z 0.000000 0.000000 1.628630 
# 
# From -- ./inp_files/42135.got.cif
#   From: 2010.03.12/outbox.cif.g09.slc.cpg/sg66_22_cif.got.tgz:42135.got - 2010.04.10 21:57:39.
