data_PCOD8275116
_publ_section_title
;
Structure prediction by ZEFSAII (Michael W. Deem and Ramdas Pophale) SiO2 
 PCOD8275116
Probable space group: C M M M
;
_chemical_formula_sum "Si O2"
_cell_formula_units_Z 88
_cell_length_a 19.809507
_cell_length_b 9.127927
_cell_length_c 28.334632
_cell_angle_alpha 90.000000
_cell_angle_beta 90.000000
_cell_angle_gamma 90.000000
_cell_volume 5123.460616
_symmetry_space_group_name_H-M "C M M M"
_symmetry_group_IT_number 65
_symmetry_cell_setting 'orthorhombic'
loop_
_space_group_symop_operation_xyz
x,y,z
-x,-y,z
x,-y,-z
-x,y,-z
-x,-y,-z
x,y,-z
-x,y,z
x,-y,z
1/2+x,1/2+y,z
1/2-x,1/2-y,z
1/2+x,1/2-y,-z
1/2-x,1/2+y,-z
1/2-x,1/2-y,-z
1/2+x,1/2+y,-z
1/2-x,1/2+y,z
1/2+x,1/2-y,z
loop_
_atom_site_type_symbol
_atom_site_label
_atom_site_fract_x
_atom_site_fract_y
_atom_site_fract_z
Si Si1 0.080467 0.165815 0.091983
Si Si2 0.817557 0.328436 0.446558
Si Si3 0.419478 0.165753 0.816006
Si Si4 0.580347 0.334679 0.724622
Si Si5 0.919522 0.665856 0.000000
Si Si6 0.922664 0.328826 0.631600
O O1 0.107967 0.248547 0.138259
O O2 0.108085 0.250406 0.046075
O O3 0.000000 0.165020 0.091904
O O4 0.108262 0.000000 0.091706
O O5 0.835314 0.280461 0.500000
O O6 0.804436 0.500000 0.443254
O O7 0.750000 0.250000 0.428567
O O8 0.879708 0.280191 0.413769
O O9 0.500000 0.165801 0.815739
O O10 0.390989 0.246414 0.769524
O O11 0.391846 0.000000 0.817015
O O12 0.500000 0.333354 0.726170
O O13 0.608360 0.500000 0.726255
O O14 0.605621 0.257526 0.676865
O O15 0.891760 0.500000 0.000000
O O16 0.000000 0.665060 0.000000
O O17 0.915293 0.500000 0.642685
O O18 0.000000 0.287161 0.620655
#
# Coordination Sequence:
#
# PCOD8275116 Si02
#       6
#    16  16  16  16   8  16
#     4   9  15  21  28  38  53  75 106 146 192 239
#     4   9  18  32  49  68  90 117 147 178 213 254
#     4   9  15  22  32  45  62  86 116 150 191 240
#     4   9  16  25  37  54  76 100 126 159 201 247
#     4   9  15  21  27  35  49  71 103 145 192 239
#     4   9  17  29  45  65  88 113 142 177 216 256
#
# _framework density 17.175889999999999
#
# number of rings (size 3 to 8) (size 9 to 14) (size 15 to 20)
#    0.000    3.000    0.000    1.909    0.000    8.727 
#    0.000    1.818    0.000    0.000    0.000    5.091 
#    0.000    0.000    0.000    0.000    0.000    0.000 
#
# Total GULP energy -545539.548971 kJ/mol
# GULP energy per Si atom -12398.626113 kJ/mol
# Density = 1.713680 g / cm^3
# Si number density = 17.175890 Si / 1000 Ang^3
#
#
#
# Elastic Constant Matrix: (Units=GPa)
#
#
# Indices 1 2 3 4 5 6 
#
# 1 30.1429 24.9123 41.4268 0.0000 0.0000 0.0000
# 2 24.9123 130.4744 83.6474 0.0000 0.0000 0.0000
# 3 41.4268 83.6474 165.6227 0.0000 0.0000 0.0000
# 4 0.0000 0.0000 0.0000 32.9899 0.0000 0.0000
# 5 0.0000 0.0000 0.0000 0.0000 1.0949 0.0000
# 6 0.0000 0.0000 0.0000 0.0000 0.0000 11.2742
#
#
#
# Elastic Compliance Matrix: (Units=1/GPa)
#
#
# Indices 1 2 3 4 5 6 
#
# 1 0.051019 -0.002307 -0.011596 0.000000 0.000000 0.000000
# 2 -0.002307 0.011439 -0.005200 0.000000 0.000000 0.000000
# 3 -0.011596 -0.005200 0.011565 0.000000 0.000000 0.000000
# 4 0.000000 0.000000 0.000000 0.030312 0.000000 0.000000
# 5 0.000000 0.000000 0.000000 0.000000 0.913354 0.000000
# 6 0.000000 0.000000 0.000000 0.000000 0.000000 0.088698
#
#
# Mechanical properties :
#
#
# Convention : Reuss Voigt Hill
#
# Bulk Modulus (GPa) = 27.92054 69.57922 48.74988
# Shear Modulus (GPa) = 4.32327 20.82203 12.57265
#
# Velocity S-wave (km/s) = 1.58825 3.48556 2.70847
# Velocity P-wave (km/s) = 4.43332 7.53635 6.18267
#
# Compressibility (1/GPa) = 0.03581593
#
# Stress axis : x y z
#
# Youngs Moduli (GPa) = 19.60050 87.42376 86.47134
#
# Poissons Ratio (x) = 0.20170 1.00273
# Poissons Ratio (y) = 0.04522 0.44965
# Poissons Ratio (z) = 0.22729 0.45460
#
# Static dielectric constant tensor:
#      x y z
#    x 2.506280 0.000000 0.000000 
#    y 0.000000 3.372930 0.000000 
#    z 0.000000 0.000000 3.448010 
# 
# 
# High freq. dielectric constant tensor:
#      x y z
#    x 1.573750 0.000000 0.000000 
#    y 0.000000 1.675950 0.000000 
#    z 0.000000 0.000000 1.680170 
# 
# From -- ./inp_files/76526.got.cif
#   From: 2010.03.12/outbox.cif.g09.slc.cpg/sg65_39_cif.got.tgz:76526.got - 2010.04.10 20:52:16.
