data_PCOD8275951
_publ_section_title
;
Structure prediction by ZEFSAII (Michael W. Deem and Ramdas Pophale) SiO2 
 PCOD8275951
Probable space group: C C C M
;
_chemical_formula_sum "Si O2"
_cell_formula_units_Z 100
_cell_length_a 27.685222
_cell_length_b 27.846086
_cell_length_c 8.846550
_cell_angle_alpha 90.000000
_cell_angle_beta 90.000000
_cell_angle_gamma 90.000000
_cell_volume 6820.027202
_symmetry_space_group_name_H-M "C C C M"
_symmetry_group_IT_number 66
_symmetry_cell_setting 'orthorhombic'
loop_
_space_group_symop_operation_xyz
x,y,z
-x,-y,z
x,-y,1/2-z
-x,y,1/2-z
-x,-y,-z
x,y,-z
-x,y,1/2+z
x,-y,1/2+z
1/2+x,1/2+y,z
1/2-x,1/2-y,z
1/2+x,1/2-y,1/2-z
1/2-x,1/2+y,1/2-z
1/2-x,1/2-y,-z
1/2+x,1/2+y,-z
1/2-x,1/2+y,1/2+z
1/2+x,1/2-y,1/2+z
loop_
_atom_site_type_symbol
_atom_site_label
_atom_site_fract_x
_atom_site_fract_y
_atom_site_fract_z
Si Si1 0.284850 0.641505 0.820740
Si Si2 0.000000 0.000000 0.250000
Si Si3 0.643034 0.716891 0.821920
Si Si4 0.422094 0.426692 0.667150
Si Si5 0.950044 0.819769 0.321567
Si Si6 0.824602 0.049386 0.678495
Si Si7 0.206800 0.712356 0.167177
O O1 0.326861 0.674327 0.753260
O O2 0.289560 0.589482 0.747597
O O3 0.231423 0.662206 0.779878
O O4 0.292374 0.639623 0.000000
O O5 0.965492 0.034864 0.153306
O O6 0.589658 0.714413 0.754433
O O7 0.665879 0.769113 0.782325
O O8 0.642382 0.709609 0.000000
O O9 0.398808 0.422146 0.500000
O O10 0.441686 0.375393 0.722047
O O11 0.380980 0.442866 0.783236
O O12 0.950439 0.811763 0.500000
O O13 0.000000 0.802687 0.250000
O O14 0.818872 0.048096 0.500000
O O15 0.806221 0.000000 0.750000
O O16 0.250000 0.750000 0.160057
O O17 0.183720 0.707095 0.000000
#
# Coordination Sequence:
#
# PCOD8275951 Si02
#       7
#    16   4  16  16  16  16  16
#     4  10  19  33  50  67  89 114 143 179 224 270
#     4  12  22  36  52  62  78 100 154 196 238 280
#     4  11  20  30  47  69  91 114 143 179 223 271
#     4  11  23  35  48  62  80 106 141 187 234 276
#     4  11  22  35  48  63  86 114 148 186 230 275
#     4  12  24  35  49  65  86 113 146 183 227 274
#     4   8  16  30  48  68  89 113 138 172 219 268
#
# _framework density 14.662698000000001
#
# number of rings (size 3 to 8) (size 9 to 14) (size 15 to 20)
#    0.000    1.440    3.200    5.040    0.000    4.800 
#    0.000    0.000    0.000    0.000    0.000    0.000 
#    0.000    0.000    0.000    0.000    0.000    0.800 
#
# Total GULP energy -619930.474656 kJ/mol
# GULP energy per Si atom -12398.609493 kJ/mol
# Density = 1.462933 g / cm^3
# Si number density = 14.662698 Si / 1000 Ang^3
#
#
#
# Elastic Constant Matrix: (Units=GPa)
#
#
# Indices 1 2 3 4 5 6 
#
# 1 75.5068 56.0693 43.7695 0.0000 0.0000 0.0000
# 2 56.0693 80.4220 45.9412 0.0000 0.0000 0.0000
# 3 43.7695 45.9412 112.8260 0.0000 0.0000 0.0000
# 4 0.0000 0.0000 0.0000 15.0431 0.0000 0.0000
# 5 0.0000 0.0000 0.0000 0.0000 21.9179 0.0000
# 6 0.0000 0.0000 0.0000 0.0000 0.0000 28.2418
#
#
#
# Elastic Compliance Matrix: (Units=1/GPa)
#
#
# Indices 1 2 3 4 5 6 
#
# 1 0.028716 -0.017796 -0.003894 0.000000 0.000000 0.000000
# 2 -0.017796 0.027232 -0.004185 0.000000 0.000000 0.000000
# 3 -0.003894 -0.004185 0.012078 0.000000 0.000000 0.000000
# 4 0.000000 0.000000 0.000000 0.066476 0.000000 0.000000
# 5 0.000000 0.000000 0.000000 0.000000 0.045625 0.000000
# 6 0.000000 0.000000 0.000000 0.000000 0.000000 0.035409
#
#
# Mechanical properties :
#
#
# Convention : Reuss Voigt Hill
#
# Bulk Modulus (GPa) = 61.43767 62.25719 61.84743
# Shear Modulus (GPa) = 18.33456 21.23887 19.78672
#
# Velocity S-wave (km/s) = 3.53997 3.81004 3.67748
# Velocity P-wave (km/s) = 7.66160 7.86810 7.76554
#
# Compressibility (1/GPa) = 0.01627666
#
# Stress axis : x y z
#
# Youngs Moduli (GPa) = 34.82411 36.72127 82.79730
#
# Poissons Ratio (x) = 0.65349 0.32238
# Poissons Ratio (y) = 0.61973 0.34649
# Poissons Ratio (z) = 0.13559 0.15367
#
# Static dielectric constant tensor:
#      x y z
#    x 2.793070 0.000000 0.000000 
#    y 0.000000 2.947200 0.000000 
#    z 0.000000 0.000000 2.891340 
# 
# 
# High freq. dielectric constant tensor:
#      x y z
#    x 1.531140 0.000000 0.000000 
#    y 0.000000 1.535820 0.000000 
#    z 0.000000 0.000000 1.575480 
# 
# From -- ./inp_files/10869.got.cif
#   From: 2010.03.12/outbox.cif.g09.slc.cpg/sg66_6_cif.got.tgz:10869.got - 2010.04.10 21:57:39.
