data_PCOD8275491
_publ_section_title
;
Structure prediction by ZEFSAII (Michael W. Deem and Ramdas Pophale) SiO2 
 PCOD8275491
Probable space group: C C C M
;
_chemical_formula_sum "Si O2"
_cell_formula_units_Z 80
_cell_length_a 12.486623
_cell_length_b 21.367469
_cell_length_c 16.162925
_cell_angle_alpha 90.000000
_cell_angle_beta 90.000000
_cell_angle_gamma 90.000000
_cell_volume 4312.390095
_symmetry_space_group_name_H-M "C C C M"
_symmetry_group_IT_number 66
_symmetry_cell_setting 'orthorhombic'
loop_
_space_group_symop_operation_xyz
x,y,z
-x,-y,z
x,-y,1/2-z
-x,y,1/2-z
-x,-y,-z
x,y,-z
-x,y,1/2+z
x,-y,1/2+z
1/2+x,1/2+y,z
1/2-x,1/2-y,z
1/2+x,1/2-y,1/2-z
1/2-x,1/2+y,1/2-z
1/2-x,1/2-y,-z
1/2+x,1/2+y,-z
1/2-x,1/2+y,1/2+z
1/2+x,1/2-y,1/2+z
loop_
_atom_site_type_symbol
_atom_site_label
_atom_site_fract_x
_atom_site_fract_y
_atom_site_fract_z
Si Si1 0.857306 0.967504 0.338110
Si Si2 0.643553 0.718528 0.098211
Si Si3 0.069185 0.914990 0.593570
Si Si4 0.084073 0.255741 0.401972
Si Si5 0.755444 0.851310 0.401920
O O1 0.762533 0.918260 0.356021
O O2 0.969060 0.929518 0.346627
O O3 0.844218 0.000000 0.250000
O O4 0.853030 0.024507 0.404304
O O5 0.750000 0.750000 0.137958
O O6 0.634058 0.645853 0.125162
O O7 0.537806 0.754743 0.131780
O O8 0.650106 0.723917 0.000000
O O9 0.027275 0.903522 0.500000
O O10 0.084997 0.255903 0.500000
O O11 0.145533 0.192783 0.373860
O O12 0.145544 0.318075 0.371611
O O13 0.756551 0.862160 0.500000
#
# Coordination Sequence:
#
# PCOD8275491 Si02
#       5
#    16  16  16  16  16
#     4  11  20  29  45  70 103 130 164 213 259 297
#     4   9  16  27  47  74 101 127 161 209 257 301
#     4  10  18  30  48  69  97 133 169 202 255 310
#     4   8  14  25  46  75 101 127 161 204 252 303
#     4   9  15  27  48  73 101 130 164 203 252 307
#
# _framework density 18.551196999999998
#
# number of rings (size 3 to 8) (size 9 to 14) (size 15 to 20)
#    0.000    2.600    2.000    4.800    0.000    0.000 
#    0.000    0.000    4.400    1.200    0.000    9.800 
#    0.000    0.000    0.000    0.000    0.000    0.000 
#
# Total GULP energy -495600.935630 kJ/mol
# GULP energy per Si atom -12390.023391 kJ/mol
# Density = 1.850897 g / cm^3
# Si number density = 18.551197 Si / 1000 Ang^3
#
#
#
# Elastic Constant Matrix: (Units=GPa)
#
#
# Indices 1 2 3 4 5 6 
#
# 1 135.1943 86.8236 16.0564 0.0000 0.0000 0.0000
# 2 86.8236 167.0880 30.2434 0.0000 0.0000 0.0000
# 3 16.0564 30.2434 41.4904 0.0000 0.0000 0.0000
# 4 0.0000 0.0000 0.0000 18.7570 0.0000 0.0000
# 5 0.0000 0.0000 0.0000 0.0000 8.8624 0.0000
# 6 0.0000 0.0000 0.0000 0.0000 0.0000 38.5525
#
#
#
# Elastic Compliance Matrix: (Units=1/GPa)
#
#
# Indices 1 2 3 4 5 6 
#
# 1 0.011102 -0.005750 -0.000105 0.000000 0.000000 0.000000
# 2 -0.005750 0.009872 -0.004971 0.000000 0.000000 0.000000
# 3 -0.000105 -0.004971 0.027766 0.000000 0.000000 0.000000
# 4 0.000000 0.000000 0.000000 0.053313 0.000000 0.000000
# 5 0.000000 0.000000 0.000000 0.000000 0.112836 0.000000
# 6 0.000000 0.000000 0.000000 0.000000 0.000000 0.025939
#
#
# Mechanical properties :
#
#
# Convention : Reuss Voigt Hill
#
# Bulk Modulus (GPa) = 36.91624 67.77995 52.34809
# Shear Modulus (GPa) = 18.41552 27.27767 22.84660
#
# Velocity S-wave (km/s) = 3.15411 3.83874 3.51314
# Velocity P-wave (km/s) = 5.76259 7.50093 6.68847
#
# Compressibility (1/GPa) = 0.02708835
#
# Stress axis : x y z
#
# Youngs Moduli (GPa) = 90.07516 101.29233 36.01498
#
# Poissons Ratio (x) = 0.58241 0.00379
# Poissons Ratio (y) = 0.51791 0.17904
# Poissons Ratio (z) = 0.00947 0.50354
#
# Static dielectric constant tensor:
#      x y z
#    x 3.611570 0.000000 0.000000 
#    y 0.000000 3.811180 0.000000 
#    z 0.000000 0.000000 3.029540 
# 
# 
# High freq. dielectric constant tensor:
#      x y z
#    x 1.683270 0.000000 0.000000 
#    y 0.000000 1.727210 0.000000 
#    z 0.000000 0.000000 1.684440 
# 
# From -- ./inp_files/26370.got.cif
#   From: 2010.03.12/outbox.cif.g09.slc.cpg/sg66_14_cif.got.tgz:26370.got - 2010.04.10 21:57:39.
