data_PCOD8275678
_publ_section_title
;
Structure prediction by ZEFSAII (Michael W. Deem and Ramdas Pophale) SiO2 
 PCOD8275678
Probable space group: C C C M
;
_chemical_formula_sum "Si O2"
_cell_formula_units_Z 64
_cell_length_a 16.116355
_cell_length_b 12.201260
_cell_length_c 17.709861
_cell_angle_alpha 90.000000
_cell_angle_beta 90.000000
_cell_angle_gamma 90.000000
_cell_volume 3482.464191
_symmetry_space_group_name_H-M "C C C M"
_symmetry_group_IT_number 66
_symmetry_cell_setting 'orthorhombic'
loop_
_space_group_symop_operation_xyz
x,y,z
-x,-y,z
x,-y,1/2-z
-x,y,1/2-z
-x,-y,-z
x,y,-z
-x,y,1/2+z
x,-y,1/2+z
1/2+x,1/2+y,z
1/2-x,1/2-y,z
1/2+x,1/2-y,1/2-z
1/2-x,1/2+y,1/2-z
1/2-x,1/2-y,-z
1/2+x,1/2+y,-z
1/2-x,1/2+y,1/2+z
1/2+x,1/2-y,1/2+z
loop_
_atom_site_type_symbol
_atom_site_label
_atom_site_fract_x
_atom_site_fract_y
_atom_site_fract_z
Si Si1 0.747725 0.903222 0.649796
Si Si2 0.878682 0.752909 0.586296
Si Si3 0.479701 0.378939 0.837282
Si Si4 0.289584 0.638530 0.321729
O O1 0.814031 0.854037 0.590841
O O2 0.657286 0.850742 0.634032
O O3 0.783113 0.869685 0.731536
O O4 0.742493 0.034345 0.641394
O O5 0.889485 0.716924 0.500000
O O6 0.968070 0.787413 0.618314
O O7 0.500000 0.500000 0.868549
O O8 0.500000 0.370338 0.750000
O O9 0.383388 0.357578 0.849916
O O10 0.250000 0.750000 0.352445
#
# Coordination Sequence:
#
# PCOD8275678 Si02
#       4
#    16  16  16  16
#     4  10  18  35  54  85 114 147 189 231 282 336
#     4  11  21  35  57  84 117 152 189 233 283 343
#     4  11  18  34  56  85 115 143 190 245 280 323
#     4  11  19  33  59  85 115 143 188 239 287 324
#
# _framework density 18.377790999999998
#
# number of rings (size 3 to 8) (size 9 to 14) (size 15 to 20)
#    0.000    1.250    7.500    3.000    0.000    0.500 
#    0.000    1.250    0.000   12.750    0.000    0.000 
#    0.000    0.000    0.000    0.000    0.000    0.000 
#
# Total GULP energy -396781.692780 kJ/mol
# GULP energy per Si atom -12399.427899 kJ/mol
# Density = 1.833596 g / cm^3
# Si number density = 18.377791 Si / 1000 Ang^3
#
#
#
# Elastic Constant Matrix: (Units=GPa)
#
#
# Indices 1 2 3 4 5 6 
#
# 1 142.0752 84.4086 39.4131 0.0000 0.0000 0.0000
# 2 84.4086 163.8717 27.1560 0.0000 0.0000 0.0000
# 3 39.4131 27.1560 58.1250 0.0000 0.0000 0.0000
# 4 0.0000 0.0000 0.0000 12.5456 0.0000 0.0000
# 5 0.0000 0.0000 0.0000 0.0000 13.5325 0.0000
# 6 0.0000 0.0000 0.0000 0.0000 0.0000 34.9106
#
#
#
# Elastic Compliance Matrix: (Units=1/GPa)
#
#
# Indices 1 2 3 4 5 6 
#
# 1 0.011555 -0.005044 -0.005479 0.000000 0.000000 0.000000
# 2 -0.005044 0.008816 -0.000699 0.000000 0.000000 0.000000
# 3 -0.005479 -0.000699 0.021246 0.000000 0.000000 0.000000
# 4 0.000000 0.000000 0.000000 0.079709 0.000000 0.000000
# 5 0.000000 0.000000 0.000000 0.000000 0.073896 0.000000
# 6 0.000000 0.000000 0.000000 0.000000 0.000000 0.028645
#
#
# Mechanical properties :
#
#
# Convention : Reuss Voigt Hill
#
# Bulk Modulus (GPa) = 52.15336 74.00302 63.07819
# Shear Modulus (GPa) = 19.78624 26.40404 23.09514
#
# Velocity S-wave (km/s) = 3.28478 3.79454 3.54882
# Velocity P-wave (km/s) = 6.54419 7.71707 7.15470
#
# Compressibility (1/GPa) = 0.01917422
#
# Stress axis : x y z
#
# Youngs Moduli (GPa) = 86.54218 113.42713 47.06840
#
# Poissons Ratio (x) = 0.57213 0.25787
# Poissons Ratio (y) = 0.43652 0.03289
# Poissons Ratio (z) = 0.47413 0.07926
#
# Static dielectric constant tensor:
#      x y z
#    x 3.409980 0.000000 0.000000 
#    y 0.000000 3.579770 0.000000 
#    z 0.000000 0.000000 3.136920 
# 
# 
# High freq. dielectric constant tensor:
#      x y z
#    x 1.704800 0.000000 0.000000 
#    y 0.000000 1.707270 0.000000 
#    z 0.000000 0.000000 1.686300 
# 
# From -- ./inp_files/29592.got.cif
#   From: 2010.03.12/outbox.cif.g09.slc.cpg/sg66_15_cif.got.tgz:29592.got - 2010.04.10 21:57:39.
