data_PCOD8275159
_publ_section_title
;
Structure prediction by ZEFSAII (Michael W. Deem and Ramdas Pophale) SiO2 
 PCOD8275159
Probable space group: C M M M
;
_chemical_formula_sum "Si O2"
_cell_formula_units_Z 72
_cell_length_a 13.994399
_cell_length_b 28.995456
_cell_length_c 9.240997
_cell_angle_alpha 90.000000
_cell_angle_beta 90.000000
_cell_angle_gamma 90.000000
_cell_volume 3749.756136
_symmetry_space_group_name_H-M "C M M M"
_symmetry_group_IT_number 65
_symmetry_cell_setting 'orthorhombic'
loop_
_space_group_symop_operation_xyz
x,y,z
-x,-y,z
x,-y,-z
-x,y,-z
-x,-y,-z
x,y,-z
-x,y,z
x,-y,z
1/2+x,1/2+y,z
1/2-x,1/2-y,z
1/2+x,1/2-y,-z
1/2-x,1/2+y,-z
1/2-x,1/2-y,-z
1/2+x,1/2+y,-z
1/2-x,1/2+y,z
1/2+x,1/2-y,z
loop_
_atom_site_type_symbol
_atom_site_label
_atom_site_fract_x
_atom_site_fract_y
_atom_site_fract_z
Si Si1 0.613662 0.227457 0.663146
Si Si2 0.205579 0.091571 0.168998
Si Si3 0.386734 0.315416 0.165539
Si Si4 0.890648 0.000000 0.172830
Si Si5 0.606797 0.137338 0.168169
O O1 0.653055 0.225490 0.500000
O O2 0.500000 0.229791 0.666264
O O3 0.655602 0.273042 0.740762
O O4 0.646465 0.181802 0.747701
O O5 0.153610 0.136925 0.232145
O O6 0.319893 0.095246 0.198695
O O7 0.162976 0.044933 0.238767
O O8 0.182810 0.089757 0.000000
O O9 0.500000 0.317225 0.175950
O O10 0.352937 0.308660 0.000000
O O11 0.000000 0.000000 0.225786
O O12 0.884909 0.000000 0.000000
O O13 0.500000 0.122617 0.218640
O O14 0.606652 0.150778 0.000000
#
# Coordination Sequence:
#
# PCOD8275159 Si02
#       5
#    16  16  16   8  16
#     4   9  17  29  45  66  93 124 156 190 227 266
#     4   9  17  28  44  67  92 119 153 189 227 273
#     4   9  16  27  44  66  92 121 152 187 228 273
#     4   9  16  28  47  71  98 121 143 183 236 278
#     4   9  17  30  46  64  91 126 157 185 221 266
#
# _framework density 19.201248
#
# number of rings (size 3 to 8) (size 9 to 14) (size 15 to 20)
#    0.000    3.000    0.000    1.333    0.000    6.222 
#    0.000    6.111    0.000    3.333    0.000    3.111 
#    0.000   10.667    0.000    0.000    0.000    0.000 
#
# Total GULP energy -446258.797286 kJ/mol
# GULP energy per Si atom -12396.077702 kJ/mol
# Density = 1.915755 g / cm^3
# Si number density = 19.201248 Si / 1000 Ang^3
#
#
#
# Elastic Constant Matrix: (Units=GPa)
#
#
# Indices 1 2 3 4 5 6 
#
# 1 81.9512 73.9242 20.1529 0.0000 0.0000 0.0000
# 2 73.9242 155.1681 39.0972 0.0000 0.0000 0.0000
# 3 20.1529 39.0972 53.4157 0.0000 0.0000 0.0000
# 4 0.0000 0.0000 0.0000 3.3638 0.0000 0.0000
# 5 0.0000 0.0000 0.0000 0.0000 7.8173 0.0000
# 6 0.0000 0.0000 0.0000 0.0000 0.0000 35.0467
#
#
#
# Elastic Compliance Matrix: (Units=1/GPa)
#
#
# Indices 1 2 3 4 5 6 
#
# 1 0.021423 -0.010017 -0.000751 0.000000 0.000000 0.000000
# 2 -0.010017 0.012586 -0.005433 0.000000 0.000000 0.000000
# 3 -0.000751 -0.005433 0.022981 0.000000 0.000000 0.000000
# 4 0.000000 0.000000 0.000000 0.297287 0.000000 0.000000
# 5 0.000000 0.000000 0.000000 0.000000 0.127921 0.000000
# 6 0.000000 0.000000 0.000000 0.000000 0.000000 0.028533
#
#
# Mechanical properties :
#
#
# Convention : Reuss Voigt Hill
#
# Bulk Modulus (GPa) = 40.66941 61.87594 51.27268
# Shear Modulus (GPa) = 9.06903 19.73628 14.40265
#
# Velocity S-wave (km/s) = 2.17564 3.20951 2.74175
# Velocity P-wave (km/s) = 5.24765 6.78451 6.06495
#
# Compressibility (1/GPa) = 0.02458850
#
# Stress axis : x y z
#
# Youngs Moduli (GPa) = 46.67925 79.45514 43.51464
#
# Poissons Ratio (x) = 0.79590 0.03266
# Poissons Ratio (y) = 0.46758 0.23640
# Poissons Ratio (z) = 0.03504 0.43166
#
# Static dielectric constant tensor:
#      x y z
#    x 3.584460 0.000000 0.000000 
#    y 0.000000 3.638210 0.000000 
#    z 0.000000 0.000000 3.190700 
# 
# 
# High freq. dielectric constant tensor:
#      x y z
#    x 1.759720 0.000000 0.000000 
#    y 0.000000 1.732970 0.000000 
#    z 0.000000 0.000000 1.695420 
# 
# From -- ./inp_files/7275.got.cif
#   From: 2010.03.12/outbox.cif.g09.slc.cpg/sg65_4_cif.got.tgz:7275.got - 2010.04.10 20:52:16.
