data_PCOD8275367
_publ_section_title
;
Structure prediction by ZEFSAII (Michael W. Deem and Ramdas Pophale) SiO2 
 PCOD8275367
Probable space group: C C C M
;
_chemical_formula_sum "Si O2"
_cell_formula_units_Z 128
_cell_length_a 23.729779
_cell_length_b 19.321468
_cell_length_c 17.046772
_cell_angle_alpha 90.000000
_cell_angle_beta 90.000000
_cell_angle_gamma 90.000000
_cell_volume 7815.845504
_symmetry_space_group_name_H-M "C C C M"
_symmetry_group_IT_number 66
_symmetry_cell_setting 'orthorhombic'
loop_
_space_group_symop_operation_xyz
x,y,z
-x,-y,z
x,-y,1/2-z
-x,y,1/2-z
-x,-y,-z
x,y,-z
-x,y,1/2+z
x,-y,1/2+z
1/2+x,1/2+y,z
1/2-x,1/2-y,z
1/2+x,1/2-y,1/2-z
1/2-x,1/2+y,1/2-z
1/2-x,1/2-y,-z
1/2+x,1/2+y,-z
1/2-x,1/2+y,1/2+z
1/2+x,1/2-y,1/2+z
loop_
_atom_site_type_symbol
_atom_site_label
_atom_site_fract_x
_atom_site_fract_y
_atom_site_fract_z
Si Si1 0.885717 0.785413 0.324518
Si Si2 0.628826 0.386632 0.307137
Si Si3 0.193943 0.297236 0.787100
Si Si4 0.461282 0.564397 0.588525
Si Si5 0.279947 0.323612 0.590826
Si Si6 0.496218 0.283758 0.589296
Si Si7 0.255508 0.422528 0.733868
Si Si8 0.621072 0.258917 0.591524
O O1 0.901243 0.847198 0.264839
O O2 0.850288 0.726855 0.279247
O O3 0.846807 0.813953 0.395417
O O4 0.944496 0.755833 0.358136
O O5 0.587995 0.443018 0.346778
O O6 0.684734 0.422833 0.277156
O O7 0.643392 0.332016 0.375576
O O8 0.250000 0.250000 0.784555
O O9 0.209964 0.376459 0.778138
O O10 0.161335 0.298104 0.870012
O O11 0.500000 0.500000 0.604728
O O12 0.436258 0.563395 0.500000
O O13 0.497191 0.633956 0.600733
O O14 0.268410 0.342967 0.500000
O O15 0.250000 0.250000 0.612989
O O16 0.259225 0.388335 0.645767
O O17 0.481825 0.265260 0.500000
O O18 0.555105 0.247436 0.614050
O O19 0.232779 0.500000 0.750000
O O20 0.630058 0.258032 0.500000
#
# Coordination Sequence:
#
# PCOD8275367 Si02
#       8
#    16  16  16  16  16  16  16  16
#     4  10  17  30  52  72 102 128 169 217 262 304
#     4   9  18  31  47  68  97 135 177 210 252 298
#     4  11  18  36  52  73 100 134 179 211 263 317
#     4   9  18  32  45  62 100 141 173 210 250 298
#     4  10  18  33  56  77 102 139 177 212 258 318
#     4   9  18  31  46  74  99 123 166 214 256 298
#     4  11  21  36  50  74 107 135 168 226 265 305
#     4   9  18  32  52  73 100 129 170 217 252 300
#
# _framework density 16.376987
#
# number of rings (size 3 to 8) (size 9 to 14) (size 15 to 20)
#    0.000    2.250    5.000    1.500    0.000    6.750 
#    0.000    3.750    0.000    0.000    0.000    1.750 
#    0.000    2.500    0.000    0.000    0.000    0.000 
#
# Total GULP energy -792905.787066 kJ/mol
# GULP energy per Si atom -12389.152923 kJ/mol
# Density = 1.633971 g / cm^3
# Si number density = 16.376987 Si / 1000 Ang^3
#
#
#
# Elastic Constant Matrix: (Units=GPa)
#
#
# Indices 1 2 3 4 5 6 
#
# 1 88.9293 42.4332 59.7572 0.0000 0.0000 0.0000
# 2 42.4332 82.4384 42.9565 0.0000 0.0000 0.0000
# 3 59.7572 42.9565 102.6412 0.0000 0.0000 0.0000
# 4 0.0000 0.0000 0.0000 17.9002 0.0000 0.0000
# 5 0.0000 0.0000 0.0000 0.0000 30.0800 0.0000
# 6 0.0000 0.0000 0.0000 0.0000 0.0000 17.9397
#
#
#
# Elastic Compliance Matrix: (Units=1/GPa)
#
#
# Indices 1 2 3 4 5 6 
#
# 1 0.020231 -0.005469 -0.009490 0.000000 0.000000 0.000000
# 2 -0.005469 0.016992 -0.003927 0.000000 0.000000 0.000000
# 3 -0.009490 -0.003927 0.016911 0.000000 0.000000 0.000000
# 4 0.000000 0.000000 0.000000 0.055865 0.000000 0.000000
# 5 0.000000 0.000000 0.000000 0.000000 0.033245 0.000000
# 6 0.000000 0.000000 0.000000 0.000000 0.000000 0.055742
#
#
# Mechanical properties :
#
#
# Convention : Reuss Voigt Hill
#
# Bulk Modulus (GPa) = 61.11576 62.70029 61.90803
# Shear Modulus (GPa) = 20.64313 21.77479 21.20896
#
# Velocity S-wave (km/s) = 3.55420 3.65032 3.60258
# Velocity P-wave (km/s) = 7.36493 7.49234 7.42891
#
# Compressibility (1/GPa) = 0.01636239
#
# Stress axis : x y z
#
# Youngs Moduli (GPa) = 49.42916 58.85282 59.13244
#
# Poissons Ratio (x) = 0.32184 0.56115
# Poissons Ratio (y) = 0.27031 0.23224
# Poissons Ratio (z) = 0.46907 0.23114
#
# Static dielectric constant tensor:
#      x y z
#    x 3.218900 0.000000 0.000000 
#    y 0.000000 2.869330 0.000000 
#    z 0.000000 0.000000 3.320200 
# 
# 
# High freq. dielectric constant tensor:
#      x y z
#    x 1.626750 0.000000 0.000000 
#    y 0.000000 1.583320 0.000000 
#    z 0.000000 0.000000 1.643590 
# 
# From -- ./inp_files/43809.got.cif
#   From: 2010.03.12/outbox.cif.g09.slc.cpg/sg66_22_cif.got.tgz:43809.got - 2010.04.10 21:57:39.
