data_PCOD8275634
_publ_section_title
;
Structure prediction by ZEFSAII (Michael W. Deem and Ramdas Pophale) SiO2 
 PCOD8275634
Probable space group: C C C M
;
_chemical_formula_sum "Si O2"
_cell_formula_units_Z 104
_cell_length_a 29.251685
_cell_length_b 8.298766
_cell_length_c 22.983136
_cell_angle_alpha 90.000000
_cell_angle_beta 90.000000
_cell_angle_gamma 90.000000
_cell_volume 5579.222660
_symmetry_space_group_name_H-M "C C C M"
_symmetry_group_IT_number 66
_symmetry_cell_setting 'orthorhombic'
loop_
_space_group_symop_operation_xyz
x,y,z
-x,-y,z
x,-y,1/2-z
-x,y,1/2-z
-x,-y,-z
x,y,-z
-x,y,1/2+z
x,-y,1/2+z
1/2+x,1/2+y,z
1/2-x,1/2-y,z
1/2+x,1/2-y,1/2-z
1/2-x,1/2+y,1/2-z
1/2-x,1/2-y,-z
1/2+x,1/2+y,-z
1/2-x,1/2+y,1/2+z
1/2+x,1/2-y,1/2+z
loop_
_atom_site_type_symbol
_atom_site_label
_atom_site_fract_x
_atom_site_fract_y
_atom_site_fract_z
Si Si1 0.066759 0.865338 0.090723
Si Si2 0.696558 0.246035 0.827164
Si Si3 0.353734 0.875391 0.934890
Si Si4 0.109264 0.344897 0.861625
Si Si5 0.466306 0.289437 0.065285
Si Si6 0.373345 0.497203 0.815703
Si Si7 0.141221 0.500000 0.250000
O O1 0.101916 0.741957 0.060135
O O2 0.087332 0.894577 0.154553
O O3 0.016698 0.788805 0.092685
O O4 0.059372 0.037710 0.059063
O O5 0.750000 0.250000 0.816329
O O6 0.685601 0.194515 0.893269
O O7 0.676813 0.425003 0.819278
O O8 0.673676 0.135588 0.777599
O O9 0.363590 0.053438 0.909861
O O10 0.334012 0.894950 0.000000
O O11 0.059265 0.324004 0.888828
O O12 0.107324 0.437162 0.800202
O O13 0.132619 0.173436 0.847940
O O14 0.467553 0.216003 0.000000
O O15 0.390809 0.500000 0.750000
#
# Coordination Sequence:
#
# PCOD8275634 Si02
#       7
#    16  16  16  16  16  16   8
#     4   9  19  33  55  84 109 148 189 230 282 324
#     4  10  22  36  60  88 107 141 184 230 284 342
#     4  10  20  37  57  80 117 151 184 233 287 335
#     4  10  21  34  55  79 108 150 188 227 280 338
#     4  10  18  33  56  82 110 144 198 241 270 327
#     4  10  19  37  59  78 113 146 183 226 281 343
#     4  10  20  36  54  77 114 140 180 229 286 342
#
# _framework density 18.640588999999999
#
# number of rings (size 3 to 8) (size 9 to 14) (size 15 to 20)
#    0.000    2.154    1.538    2.308    1.077    0.923 
#    0.000   10.769    3.385    0.923    0.000    0.000 
#    0.000    0.000    0.000    0.000    0.000    0.000 
#
# Total GULP energy -644304.571463 kJ/mol
# GULP energy per Si atom -12390.472528 kJ/mol
# Density = 1.859816 g / cm^3
# Si number density = 18.640589 Si / 1000 Ang^3
#
#
#
# Elastic Constant Matrix: (Units=GPa)
#
#
# Indices 1 2 3 4 5 6 
#
# 1 105.7508 29.3806 53.0578 0.0000 0.0000 0.0000
# 2 29.3806 73.8563 35.3586 0.0000 0.0000 0.0000
# 3 53.0578 35.3586 149.4566 0.0000 0.0000 0.0000
# 4 0.0000 0.0000 0.0000 16.0670 0.0000 0.0000
# 5 0.0000 0.0000 0.0000 0.0000 12.9811 0.0000
# 6 0.0000 0.0000 0.0000 0.0000 0.0000 18.7880
#
#
#
# Elastic Compliance Matrix: (Units=1/GPa)
#
#
# Indices 1 2 3 4 5 6 
#
# 1 0.012108 -0.003111 -0.003562 0.000000 0.000000 0.000000
# 2 -0.003111 0.016069 -0.002697 0.000000 0.000000 0.000000
# 3 -0.003562 -0.002697 0.008594 0.000000 0.000000 0.000000
# 4 0.000000 0.000000 0.000000 0.062239 0.000000 0.000000
# 5 0.000000 0.000000 0.000000 0.000000 0.077035 0.000000
# 6 0.000000 0.000000 0.000000 0.000000 0.000000 0.053225
#
#
# Mechanical properties :
#
#
# Convention : Reuss Voigt Hill
#
# Bulk Modulus (GPa) = 55.46594 62.73975 59.10285
# Shear Modulus (GPa) = 19.68343 23.65167 21.66755
#
# Velocity S-wave (km/s) = 3.25306 3.56592 3.41308
# Velocity P-wave (km/s) = 6.62796 7.11935 6.87804
#
# Compressibility (1/GPa) = 0.01802908
#
# Stress axis : x y z
#
# Youngs Moduli (GPa) = 82.59091 62.23294 116.36546
#
# Poissons Ratio (x) = 0.19362 0.41453
# Poissons Ratio (y) = 0.25695 0.31384
# Poissons Ratio (z) = 0.29421 0.16785
#
# Static dielectric constant tensor:
#      x y z
#    x 3.171000 0.000000 0.000000 
#    y 0.000000 3.634300 0.000000 
#    z 0.000000 0.000000 3.582180 
# 
# 
# High freq. dielectric constant tensor:
#      x y z
#    x 1.694470 0.000000 0.000000 
#    y 0.000000 1.729550 0.000000 
#    z 0.000000 0.000000 1.736350 
# 
# From -- ./inp_files/60170.got.cif
#   From: 2010.03.12/outbox.cif.g09.slc.cpg/sg66_31_cif.got.tgz:60170.got - 2010.04.10 21:57:39.
