data_PCOD8275894
_publ_section_title
;
Structure prediction by ZEFSAII (Michael W. Deem and Ramdas Pophale) SiO2 
 PCOD8275894
Probable space group: C C C M
;
_chemical_formula_sum "Si O2"
_cell_formula_units_Z 96
_cell_length_a 30.402788
_cell_length_b 19.393852
_cell_length_c 8.940446
_cell_angle_alpha 90.000000
_cell_angle_beta 90.000000
_cell_angle_gamma 90.000000
_cell_volume 5271.529881
_symmetry_space_group_name_H-M "C C C M"
_symmetry_group_IT_number 66
_symmetry_cell_setting 'orthorhombic'
loop_
_space_group_symop_operation_xyz
x,y,z
-x,-y,z
x,-y,1/2-z
-x,y,1/2-z
-x,-y,-z
x,y,-z
-x,y,1/2+z
x,-y,1/2+z
1/2+x,1/2+y,z
1/2-x,1/2-y,z
1/2+x,1/2-y,1/2-z
1/2-x,1/2+y,1/2-z
1/2-x,1/2-y,-z
1/2+x,1/2+y,-z
1/2-x,1/2+y,1/2+z
1/2+x,1/2-y,1/2+z
loop_
_atom_site_type_symbol
_atom_site_label
_atom_site_fract_x
_atom_site_fract_y
_atom_site_fract_z
Si Si1 0.295288 0.214638 0.672520
Si Si2 0.547060 0.783409 0.673904
Si Si3 0.239953 0.568272 0.826140
Si Si4 0.452858 0.935780 0.173412
Si Si5 0.332662 0.431366 0.825188
Si Si6 0.625175 0.711631 0.826654
O O1 0.304706 0.233457 0.500000
O O2 0.250000 0.250000 0.725144
O O3 0.292781 0.132315 0.696197
O O4 0.334668 0.241697 0.772455
O O5 0.500000 0.774753 0.750000
O O6 0.540389 0.768641 0.500000
O O7 0.568156 0.860138 0.699283
O O8 0.580598 0.728407 0.740224
O O9 0.219055 0.500000 0.750000
O O10 0.286224 0.586479 0.750108
O O11 0.248414 0.553652 0.000000
O O12 0.500000 0.932970 0.250000
O O13 0.426042 0.000000 0.250000
O O14 0.457794 0.952416 0.000000
O O15 0.353098 0.500000 0.750000
O O16 0.365641 0.368609 0.795584
O O17 0.325013 0.444024 0.000000
O O18 0.618105 0.727166 0.000000
#
# Coordination Sequence:
#
# PCOD8275894 Si02
#       6
#    16  16  16  16  16  16
#     4  10  20  35  54  77 108 145 180 218 268 322
#     4  10  21  37  57  80 109 143 182 226 275 327
#     4  10  19  32  52  76 106 145 184 222 267 319
#     4   9  16  27  47  74 100 131 169 212 259 309
#     4  10  20  33  52  79 108 139 177 220 265 318
#     4  11  23  36  55  83 111 141 181 226 271 321
#
# _framework density 18.211034000000001
#
# number of rings (size 3 to 8) (size 9 to 14) (size 15 to 20)
#    0.000    2.000    1.667    4.000    0.000    5.667 
#    0.000    0.833    0.000    0.500    0.000    3.500 
#    0.000    0.000    0.000    0.000    0.000    0.000 
#
# Total GULP energy -595064.342532 kJ/mol
# GULP energy per Si atom -12397.173803 kJ/mol
# Density = 1.816958 g / cm^3
# Si number density = 18.211034 Si / 1000 Ang^3
#
#
#
# Elastic Constant Matrix: (Units=GPa)
#
#
# Indices 1 2 3 4 5 6 
#
# 1 75.1583 48.8288 48.3102 0.0000 0.0000 0.0000
# 2 48.8288 120.6946 69.0152 0.0000 0.0000 0.0000
# 3 48.3102 69.0152 135.1794 0.0000 0.0000 0.0000
# 4 0.0000 0.0000 0.0000 38.5916 0.0000 0.0000
# 5 0.0000 0.0000 0.0000 0.0000 28.5036 0.0000
# 6 0.0000 0.0000 0.0000 0.0000 0.0000 23.9001
#
#
#
# Elastic Compliance Matrix: (Units=1/GPa)
#
#
# Indices 1 2 3 4 5 6 
#
# 1 0.019585 -0.005538 -0.004172 0.000000 0.000000 0.000000
# 2 -0.005538 0.013267 -0.004795 0.000000 0.000000 0.000000
# 3 -0.004172 -0.004795 0.011336 0.000000 0.000000 0.000000
# 4 0.000000 0.000000 0.000000 0.025912 0.000000 0.000000
# 5 0.000000 0.000000 0.000000 0.000000 0.035083 0.000000
# 6 0.000000 0.000000 0.000000 0.000000 0.000000 0.041841
#
#
# Mechanical properties :
#
#
# Convention : Reuss Voigt Hill
#
# Bulk Modulus (GPa) = 65.87581 73.70452 69.79016
# Shear Modulus (GPa) = 27.61013 29.19091 28.40052
#
# Velocity S-wave (km/s) = 3.89796 4.00800 3.95336
# Velocity P-wave (km/s) = 7.51738 7.87268 7.69708
#
# Compressibility (1/GPa) = 0.01518008
#
# Stress axis : x y z
#
# Youngs Moduli (GPa) = 51.06066 75.37318 88.21203
#
# Poissons Ratio (x) = 0.41739 0.36801
# Poissons Ratio (y) = 0.28276 0.42293
# Poissons Ratio (z) = 0.21302 0.36138
#
# Static dielectric constant tensor:
#      x y z
#    x 2.960200 0.000000 0.000000 
#    y 0.000000 3.953960 0.000000 
#    z 0.000000 0.000000 3.512960 
# 
# 
# High freq. dielectric constant tensor:
#      x y z
#    x 1.661280 0.000000 0.000000 
#    y 0.000000 1.720210 0.000000 
#    z 0.000000 0.000000 1.723300 
# 
# From -- ./inp_files/8033.got.cif
#   From: 2010.03.12/outbox.cif.g09.slc.cpg/sg66_5_cif.got.tgz:8033.got - 2010.04.10 21:57:39.
