data_PCOD8275597
_publ_section_title
;
Structure prediction by ZEFSAII (Michael W. Deem and Ramdas Pophale) SiO2 
 PCOD8275597
Probable space group: C C C M
;
_chemical_formula_sum "Si O2"
_cell_formula_units_Z 112
_cell_length_a 25.466076
_cell_length_b 12.556277
_cell_length_c 17.799542
_cell_angle_alpha 90.000000
_cell_angle_beta 90.000000
_cell_angle_gamma 90.000000
_cell_volume 5691.565608
_symmetry_space_group_name_H-M "C C C M"
_symmetry_group_IT_number 66
_symmetry_cell_setting 'orthorhombic'
loop_
_space_group_symop_operation_xyz
x,y,z
-x,-y,z
x,-y,1/2-z
-x,y,1/2-z
-x,-y,-z
x,y,-z
-x,y,1/2+z
x,-y,1/2+z
1/2+x,1/2+y,z
1/2-x,1/2-y,z
1/2+x,1/2-y,1/2-z
1/2-x,1/2+y,1/2-z
1/2-x,1/2-y,-z
1/2+x,1/2+y,-z
1/2-x,1/2+y,1/2+z
1/2+x,1/2-y,1/2+z
loop_
_atom_site_type_symbol
_atom_site_label
_atom_site_fract_x
_atom_site_fract_y
_atom_site_fract_z
Si Si1 0.654490 0.504724 0.087658
Si Si2 0.607969 0.126977 0.838291
Si Si3 0.691516 0.714358 0.844393
Si Si4 0.996323 0.290945 0.338701
Si Si5 0.692133 0.295138 0.830647
Si Si6 0.891035 0.609554 0.159678
Si Si7 0.956435 0.086257 0.417509
O O1 0.686909 0.610645 0.104565
O O2 0.681927 0.407774 0.130637
O O3 0.595283 0.529164 0.116785
O O4 0.655045 0.476944 0.000000
O O5 0.552070 0.168324 0.870966
O O6 0.652066 0.209210 0.865683
O O7 0.608457 0.118544 0.749028
O O8 0.622296 0.009303 0.869397
O O9 0.750000 0.750000 0.858279
O O10 0.681723 0.687090 0.757361
O O11 0.650995 0.805797 0.872505
O O12 0.949945 0.366742 0.369173
O O13 0.980683 0.172543 0.362083
O O14 0.000000 0.293184 0.250000
O O15 0.750000 0.250000 0.846692
O O16 0.942800 0.135729 0.500000
O O17 0.000000 0.000000 0.428819
#
# Coordination Sequence:
#
# PCOD8275597 Si02
#       7
#    16  16  16  16  16  16  16
#     4  11  23  40  61  84 119 158 194 241 291 350
#     4   9  18  31  54  83 114 148 184 232 291 339
#     4  10  21  37  61  87 114 148 196 248 293 345
#     4  10  18  32  54  84 113 142 186 239 285 341
#     4  10  22  38  59  86 116 151 193 244 292 344
#     4   9  17  32  53  84 114 143 185 236 291 344
#     4  10  21  37  55  78 114 157 192 230 285 345
#
# _framework density 19.678241
#
# number of rings (size 3 to 8) (size 9 to 14) (size 15 to 20)
#    0.000    2.143    1.429    1.714    2.000    2.571 
#    2.571    0.000    0.000    3.429    0.000    0.000 
#    0.000    0.000    0.000    0.000    0.000    0.000 
#
# Total GULP energy -694203.544321 kJ/mol
# GULP energy per Si atom -12396.491863 kJ/mol
# Density = 1.963345 g / cm^3
# Si number density = 19.678241 Si / 1000 Ang^3
#
#
#
# Elastic Constant Matrix: (Units=GPa)
#
#
# Indices 1 2 3 4 5 6 
#
# 1 138.3186 60.7209 23.1273 0.0000 0.0000 0.0000
# 2 60.7209 127.3257 11.5656 0.0000 0.0000 0.0000
# 3 23.1273 11.5656 11.3289 0.0000 0.0000 0.0000
# 4 0.0000 0.0000 0.0000 8.6041 0.0000 0.0000
# 5 0.0000 0.0000 0.0000 0.0000 8.7363 0.0000
# 6 0.0000 0.0000 0.0000 0.0000 0.0000 29.7637
#
#
#
# Elastic Compliance Matrix: (Units=1/GPa)
#
#
# Indices 1 2 3 4 5 6 
#
# 1 0.012629 -0.004057 -0.021639 0.000000 0.000000 0.000000
# 2 -0.004057 0.009960 -0.001886 0.000000 0.000000 0.000000
# 3 -0.021639 -0.001886 0.134370 0.000000 0.000000 0.000000
# 4 0.000000 0.000000 0.000000 0.116223 0.000000 0.000000
# 5 0.000000 0.000000 0.000000 0.000000 0.114465 0.000000
# 6 0.000000 0.000000 0.000000 0.000000 0.000000 0.033598
#
#
# Mechanical properties :
#
#
# Convention : Reuss Voigt Hill
#
# Bulk Modulus (GPa) = 9.82371 51.97787 30.90079
# Shear Modulus (GPa) = 9.79738 21.52478 15.66108
#
# Velocity S-wave (km/s) = 2.23374 3.31091 2.82416
# Velocity P-wave (km/s) = 3.41406 6.40994 5.13533
#
# Compressibility (1/GPa) = 0.10179450
#
# Stress axis : x y z
#
# Youngs Moduli (GPa) = 79.18382 100.40209 7.44215
#
# Poissons Ratio (x) = 0.40733 0.16104
# Poissons Ratio (y) = 0.32125 0.01403
# Poissons Ratio (z) = 1.71347 0.18934
#
# Static dielectric constant tensor:
#      x y z
#    x 3.805280 0.000000 0.000000 
#    y 0.000000 3.662400 0.000000 
#    z 0.000000 0.000000 3.345060 
# 
# 
# High freq. dielectric constant tensor:
#      x y z
#    x 1.782870 0.000000 0.000000 
#    y 0.000000 1.776980 0.000000 
#    z 0.000000 0.000000 1.722140 
# 
# From -- ./inp_files/52616.got.cif
#   From: 2010.03.12/outbox.cif.g09.slc.cpg/sg66_27_cif.got.tgz:52616.got - 2010.04.10 21:57:39.
