data_PCOD8275896
_publ_section_title
;
Structure prediction by ZEFSAII (Michael W. Deem and Ramdas Pophale) SiO2 
 PCOD8275896
Probable space group: C C C M
;
_chemical_formula_sum "Si O2"
_cell_formula_units_Z 52
_cell_length_a 15.109522
_cell_length_b 17.179350
_cell_length_c 9.238688
_cell_angle_alpha 90.000000
_cell_angle_beta 90.000000
_cell_angle_gamma 90.000000
_cell_volume 2398.102567
_symmetry_space_group_name_H-M "C C C M"
_symmetry_group_IT_number 66
_symmetry_cell_setting 'orthorhombic'
loop_
_space_group_symop_operation_xyz
x,y,z
-x,-y,z
x,-y,1/2-z
-x,y,1/2-z
-x,-y,-z
x,y,-z
-x,y,1/2+z
x,-y,1/2+z
1/2+x,1/2+y,z
1/2-x,1/2-y,z
1/2+x,1/2-y,1/2-z
1/2-x,1/2+y,1/2-z
1/2-x,1/2-y,-z
1/2+x,1/2+y,-z
1/2-x,1/2+y,1/2+z
1/2+x,1/2-y,1/2+z
loop_
_atom_site_type_symbol
_atom_site_label
_atom_site_fract_x
_atom_site_fract_y
_atom_site_fract_z
Si Si1 0.000000 0.000000 0.250000
Si Si2 0.813943 0.574166 0.670756
Si Si3 0.144876 0.258851 0.340279
Si Si4 0.360236 0.616475 0.661344
O O1 0.939826 0.055139 0.349881
O O2 0.859030 0.500000 0.750000
O O3 0.804492 0.558539 0.500000
O O4 0.873979 0.650761 0.701778
O O5 0.715521 0.583981 0.734200
O O6 0.106175 0.240275 0.500000
O O7 0.250000 0.250000 0.343081
O O8 0.103452 0.199081 0.224701
O O9 0.322766 0.630564 0.500000
#
# Coordination Sequence:
#
# PCOD8275896 Si02
#       4
#     4  16  16  16
#     4  12  26  36  48  74 112 144 178 218 254 296
#     4  10  19  32  52  77 104 133 169 215 263 308
#     4   8  17  33  50  70 100 133 166 213 264 304
#     4  11  22  34  50  71 100 140 180 213 254 309
#
# _framework density 21.683809
#
# number of rings (size 3 to 8) (size 9 to 14) (size 15 to 20)
#    0.000    2.154    1.538    4.154    0.000   10.462 
#    0.000    0.000    0.000    0.000    0.000    1.077 
#    0.000    7.385    0.000    0.000    0.000    0.000 
#
# Total GULP energy -322241.825606 kJ/mol
# GULP energy per Si atom -12393.916369 kJ/mol
# Density = 2.163446 g / cm^3
# Si number density = 21.683809 Si / 1000 Ang^3
#
#
#
# Elastic Constant Matrix: (Units=GPa)
#
#
# Indices 1 2 3 4 5 6 
#
# 1 21.6998 16.0687 14.7646 0.0000 0.0000 0.0000
# 2 16.0687 194.1678 88.2248 0.0000 0.0000 0.0000
# 3 14.7646 88.2248 153.2082 0.0000 0.0000 0.0000
# 4 0.0000 0.0000 0.0000 38.2372 0.0000 0.0000
# 5 0.0000 0.0000 0.0000 0.0000 9.5150 0.0000
# 6 0.0000 0.0000 0.0000 0.0000 0.0000 23.1376
#
#
#
# Elastic Compliance Matrix: (Units=1/GPa)
#
#
# Indices 1 2 3 4 5 6 
#
# 1 0.050308 -0.002655 -0.003319 0.000000 0.000000 0.000000
# 2 -0.002655 0.007115 -0.003842 0.000000 0.000000 0.000000
# 3 -0.003319 -0.003842 0.009059 0.000000 0.000000 0.000000
# 4 0.000000 0.000000 0.000000 0.026153 0.000000 0.000000
# 5 0.000000 0.000000 0.000000 0.000000 0.105097 0.000000
# 6 0.000000 0.000000 0.000000 0.000000 0.000000 0.043220
#
#
# Mechanical properties :
#
#
# Convention : Reuss Voigt Hill
#
# Bulk Modulus (GPa) = 21.34438 67.46577 44.40508
# Shear Modulus (GPa) = 18.10281 30.84582 24.47431
#
# Velocity S-wave (km/s) = 2.89252 3.77573 3.36324
# Velocity P-wave (km/s) = 4.58480 7.08443 5.96697
#
# Compressibility (1/GPa) = 0.04685073
#
# Stress axis : x y z
#
# Youngs Moduli (GPa) = 19.87754 140.54019 110.38660
#
# Poissons Ratio (x) = 0.37316 0.36640
# Poissons Ratio (y) = 0.05278 0.42405
# Poissons Ratio (z) = 0.06598 0.53989
#
# Static dielectric constant tensor:
#      x y z
#    x 3.120640 0.000000 0.000000 
#    y 0.000000 5.090030 0.000000 
#    z 0.000000 0.000000 3.864360 
# 
# 
# High freq. dielectric constant tensor:
#      x y z
#    x 1.775760 0.000000 0.000000 
#    y 0.000000 1.881080 0.000000 
#    z 0.000000 0.000000 1.852360 
# 
# From -- ./inp_files/5940.got.cif
#   From: 2010.03.12/outbox.cif.g09.slc.cpg/sg66_3_cif.got.tgz:5940.got - 2010.04.10 21:57:39.
