data_PCOD8275418
_publ_section_title
;
Structure prediction by ZEFSAII (Michael W. Deem and Ramdas Pophale) SiO2 
 PCOD8275418
Probable space group: C C C M
;
_chemical_formula_sum "Si O2"
_cell_formula_units_Z 112
_cell_length_a 20.560232
_cell_length_b 23.580969
_cell_length_c 15.626278
_cell_angle_alpha 90.000000
_cell_angle_beta 90.000000
_cell_angle_gamma 90.000000
_cell_volume 7576.091385
_symmetry_space_group_name_H-M "C C C M"
_symmetry_group_IT_number 66
_symmetry_cell_setting 'orthorhombic'
loop_
_space_group_symop_operation_xyz
x,y,z
-x,-y,z
x,-y,1/2-z
-x,y,1/2-z
-x,-y,-z
x,y,-z
-x,y,1/2+z
x,-y,1/2+z
1/2+x,1/2+y,z
1/2-x,1/2-y,z
1/2+x,1/2-y,1/2-z
1/2-x,1/2+y,1/2-z
1/2-x,1/2-y,-z
1/2+x,1/2+y,-z
1/2-x,1/2+y,1/2+z
1/2+x,1/2-y,1/2+z
loop_
_atom_site_type_symbol
_atom_site_label
_atom_site_fract_x
_atom_site_fract_y
_atom_site_fract_z
Si Si1 0.160164 0.794767 0.753208
Si Si2 0.875031 0.641416 0.901064
Si Si3 0.909870 0.770933 0.907084
Si Si4 0.703769 0.165640 0.240842
Si Si5 0.961238 0.756909 0.335771
Si Si6 0.507295 0.062698 0.600896
Si Si7 0.105810 0.645222 0.099627
O O1 0.136983 0.805086 0.656092
O O2 0.217986 0.839151 0.772993
O O3 0.184976 0.731001 0.760133
O O4 0.097192 0.801375 0.814796
O O5 0.907618 0.703073 0.893736
O O6 0.815837 0.637788 0.832537
O O7 0.927652 0.595213 0.868862
O O8 0.851757 0.630688 0.000000
O O9 0.985817 0.787900 0.895607
O O10 0.885409 0.789067 0.000000
O O11 0.669039 0.136537 0.159587
O O12 0.930495 0.704125 0.384829
O O13 0.000000 0.737189 0.250000
O O14 0.511670 0.058796 0.500000
O O15 0.442998 0.096012 0.628114
O O16 0.500000 0.000000 0.641749
O O17 0.126626 0.641103 0.000000
#
# Coordination Sequence:
#
# PCOD8275418 Si02
#       7
#    16  16  16  16  16  16  16
#     4   8  16  26  35  51  70  97 120 157 196 222
#     4   9  16  26  41  56  71  97 126 156 199 234
#     4   9  14  22  38  57  73  92 124 157 190 231
#     4   9  17  28  38  49  73  95 125 159 192 227
#     4   9  15  24  39  53  72  96 125 154 191 229
#     4   9  17  28  41  59  79  97 128 171 205 229
#     4  10  18  27  40  53  70 100 130 157 195 229
#
# _framework density 14.783348
#
# number of rings (size 3 to 8) (size 9 to 14) (size 15 to 20)
#    0.000    3.000    1.429    1.286    0.000    0.571 
#    0.000   10.714    0.000    0.000    0.000    0.000 
#    0.000    0.000    0.000    0.000    0.000   25.714 
#
# Total GULP energy -693764.335090 kJ/mol
# GULP energy per Si atom -12388.648841 kJ/mol
# Density = 1.474970 g / cm^3
# Si number density = 14.783348 Si / 1000 Ang^3
#
#
#
# Elastic Constant Matrix: (Units=GPa)
#
#
# Indices 1 2 3 4 5 6 
#
# 1 95.8560 28.0856 29.0971 0.0000 0.0000 0.0000
# 2 28.0856 29.2995 14.7840 0.0000 0.0000 0.0000
# 3 29.0971 14.7840 59.4095 0.0000 0.0000 0.0000
# 4 0.0000 0.0000 0.0000 7.3240 0.0000 0.0000
# 5 0.0000 0.0000 0.0000 0.0000 18.0153 0.0000
# 6 0.0000 0.0000 0.0000 0.0000 0.0000 12.6386
#
#
#
# Elastic Compliance Matrix: (Units=1/GPa)
#
#
# Indices 1 2 3 4 5 6 
#
# 1 0.015469 -0.012586 -0.004444 0.000000 0.000000 0.000000
# 2 -0.012586 0.049271 -0.006097 0.000000 0.000000 0.000000
# 3 -0.004444 -0.006097 0.020526 0.000000 0.000000 0.000000
# 4 0.000000 0.000000 0.000000 0.136538 0.000000 0.000000
# 5 0.000000 0.000000 0.000000 0.000000 0.055508 0.000000
# 6 0.000000 0.000000 0.000000 0.000000 0.000000 0.079123
#
#
# Mechanical properties :
#
#
# Convention : Reuss Voigt Hill
#
# Bulk Modulus (GPa) = 25.63293 36.49982 31.06637
# Shear Modulus (GPa) = 12.02813 15.10214 13.56513
#
# Velocity S-wave (km/s) = 2.85551 3.19966 3.03247
# Velocity P-wave (km/s) = 5.31494 6.19628 5.77245
#
# Compressibility (1/GPa) = 0.03901232
#
# Stress axis : x y z
#
# Youngs Moduli (GPa) = 64.64577 20.29599 48.71807
#
# Poissons Ratio (x) = 0.25544 0.21652
# Poissons Ratio (y) = 0.81360 0.29703
# Poissons Ratio (z) = 0.28731 0.12374
#
# Static dielectric constant tensor:
#      x y z
#    x 3.150450 0.000000 0.000000 
#    y 0.000000 2.517740 0.000000 
#    z 0.000000 0.000000 2.991680 
# 
# 
# High freq. dielectric constant tensor:
#      x y z
#    x 1.561900 0.000000 0.000000 
#    y 0.000000 1.489630 0.000000 
#    z 0.000000 0.000000 1.574520 
# 
# From -- ./inp_files/43029.got.cif
#   From: 2010.03.12/outbox.cif.g09.slc.cpg/sg66_22_cif.got.tgz:43029.got - 2010.04.10 21:57:39.
