data_PCOD8275565
_publ_section_title
;
Structure prediction by ZEFSAII (Michael W. Deem and Ramdas Pophale) SiO2 
 PCOD8275565
Probable space group: C C C M
;
_chemical_formula_sum "Si O2"
_cell_formula_units_Z 88
_cell_length_a 28.514141
_cell_length_b 8.875161
_cell_length_c 16.218521
_cell_angle_alpha 90.000000
_cell_angle_beta 90.000000
_cell_angle_gamma 90.000000
_cell_volume 4104.382058
_symmetry_space_group_name_H-M "C C C M"
_symmetry_group_IT_number 66
_symmetry_cell_setting 'orthorhombic'
loop_
_space_group_symop_operation_xyz
x,y,z
-x,-y,z
x,-y,1/2-z
-x,y,1/2-z
-x,-y,-z
x,y,-z
-x,y,1/2+z
x,-y,1/2+z
1/2+x,1/2+y,z
1/2-x,1/2-y,z
1/2+x,1/2-y,1/2-z
1/2-x,1/2+y,1/2-z
1/2-x,1/2-y,-z
1/2+x,1/2+y,-z
1/2-x,1/2+y,1/2+z
1/2+x,1/2-y,1/2+z
loop_
_atom_site_type_symbol
_atom_site_label
_atom_site_fract_x
_atom_site_fract_y
_atom_site_fract_z
Si Si1 0.496898 0.831041 0.152050
Si Si2 0.597498 0.316195 0.839269
Si Si3 0.175557 0.415766 0.674331
Si Si4 0.412076 0.345425 0.144881
Si Si5 0.250000 0.250000 0.226100
Si Si6 0.318824 0.783784 0.408825
O O1 0.500000 0.833137 0.250000
O O2 0.446676 0.770715 0.122562
O O3 0.537414 0.720207 0.116959
O O4 0.500000 0.000000 0.116170
O O5 0.645350 0.224523 0.860412
O O6 0.596254 0.480775 0.880735
O O7 0.593510 0.328964 0.741898
O O8 0.147437 0.500000 0.750000
O O9 0.225889 0.369294 0.713312
O O10 0.187267 0.535750 0.603319
O O11 0.373645 0.249610 0.096980
O O12 0.290406 0.310236 0.161970
O O13 0.300233 0.741654 0.500000
#
# Coordination Sequence:
#
# PCOD8275565 Si02
#       6
#    16  16  16  16   8  16
#     4   9  17  27  50  82 121 154 197 253 305 350
#     4  10  18  31  56  87 117 152 202 259 300 352
#     4  10  20  37  61  87 114 154 203 252 300 363
#     4  10  19  32  53  87 120 155 197 251 310 358
#     4  10  21  38  63  86 114 150 204 254 303 358
#     4  11  23  40  62  88 124 160 200 249 312 376
#
# _framework density 21.4405
#
# number of rings (size 3 to 8) (size 9 to 14) (size 15 to 20)
#    0.000    2.000    3.636    1.909    2.545    6.545 
#    0.000    1.364    0.000    7.091    0.000    0.000 
#    0.000    0.000    0.000    0.000    0.000    0.000 
#
# Total GULP energy -545181.846276 kJ/mol
# GULP energy per Si atom -12390.496506 kJ/mol
# Density = 2.139170 g / cm^3
# Si number density = 21.440500 Si / 1000 Ang^3
#
#
#
# Elastic Constant Matrix: (Units=GPa)
#
#
# Indices 1 2 3 4 5 6 
#
# 1 146.1165 73.8880 29.1068 0.0000 0.0000 0.0000
# 2 73.8880 155.4866 23.0194 0.0000 0.0000 0.0000
# 3 29.1068 23.0194 47.6081 0.0000 0.0000 0.0000
# 4 0.0000 0.0000 0.0000 10.8122 0.0000 0.0000
# 5 0.0000 0.0000 0.0000 0.0000 3.8685 0.0000
# 6 0.0000 0.0000 0.0000 0.0000 0.0000 43.0012
#
#
#
# Elastic Compliance Matrix: (Units=1/GPa)
#
#
# Indices 1 2 3 4 5 6 
#
# 1 0.009658 -0.004002 -0.003970 0.000000 0.000000 0.000000
# 2 -0.004002 0.008586 -0.001705 0.000000 0.000000 0.000000
# 3 -0.003970 -0.001705 0.024256 0.000000 0.000000 0.000000
# 4 0.000000 0.000000 0.000000 0.092488 0.000000 0.000000
# 5 0.000000 0.000000 0.000000 0.000000 0.258498 0.000000
# 6 0.000000 0.000000 0.000000 0.000000 0.000000 0.023255
#
#
# Mechanical properties :
#
#
# Convention : Reuss Voigt Hill
#
# Bulk Modulus (GPa) = 43.20181 66.80440 55.00310
# Shear Modulus (GPa) = 11.26608 26.41619 18.84114
#
# Velocity S-wave (km/s) = 2.29477 3.51389 2.96761
# Velocity P-wave (km/s) = 5.21677 6.90572 6.11979
#
# Compressibility (1/GPa) = 0.02314718
#
# Stress axis : x y z
#
# Youngs Moduli (GPa) = 103.53692 116.47503 41.22667
#
# Poissons Ratio (x) = 0.46613 0.16367
# Poissons Ratio (y) = 0.41435 0.07027
# Poissons Ratio (z) = 0.41104 0.19853
#
# Static dielectric constant tensor:
#      x y z
#    x 4.022970 0.000000 0.000000 
#    y 0.000000 4.141270 0.000000 
#    z 0.000000 0.000000 3.305920 
# 
# 
# High freq. dielectric constant tensor:
#      x y z
#    x 1.847420 0.000000 0.000000 
#    y 0.000000 1.839680 0.000000 
#    z 0.000000 0.000000 1.785770 
# 
# From -- ./inp_files/44652.got.cif
#   From: 2010.03.12/outbox.cif.g09.slc.cpg/sg66_23_cif.got.tgz:44652.got - 2010.04.10 21:57:39.
