data_PCOD8275277
_publ_section_title
;
Structure prediction by ZEFSAII (Michael W. Deem and Ramdas Pophale) SiO2 
 PCOD8275277
Probable space group: C C C M
;
_chemical_formula_sum "Si O2"
_cell_formula_units_Z 80
_cell_length_a 23.339826
_cell_length_b 29.265100
_cell_length_c 8.492945
_cell_angle_alpha 90.000000
_cell_angle_beta 90.000000
_cell_angle_gamma 90.000000
_cell_volume 5801.041042
_symmetry_space_group_name_H-M "C C C M"
_symmetry_group_IT_number 66
_symmetry_cell_setting 'orthorhombic'
loop_
_space_group_symop_operation_xyz
x,y,z
-x,-y,z
x,-y,1/2-z
-x,y,1/2-z
-x,-y,-z
x,y,-z
-x,y,1/2+z
x,-y,1/2+z
1/2+x,1/2+y,z
1/2-x,1/2-y,z
1/2+x,1/2-y,1/2-z
1/2-x,1/2+y,1/2-z
1/2-x,1/2-y,-z
1/2+x,1/2+y,-z
1/2-x,1/2+y,1/2+z
1/2+x,1/2-y,1/2+z
loop_
_atom_site_type_symbol
_atom_site_label
_atom_site_fract_x
_atom_site_fract_y
_atom_site_fract_z
Si Si1 0.626793 0.363371 0.186649
Si Si2 0.436867 0.272814 0.686708
Si Si3 0.831432 0.267039 0.683164
Si Si4 0.236413 0.816303 0.182266
Si Si5 0.563289 0.452097 0.813155
O O1 0.587162 0.321680 0.248999
O O2 0.693652 0.357257 0.238235
O O3 0.603484 0.411438 0.252716
O O4 0.622833 0.362738 0.000000
O O5 0.500000 0.265259 0.750000
O O6 0.436077 0.269125 0.500000
O O7 0.397509 0.232173 0.760965
O O8 0.826548 0.255160 0.500000
O O9 0.800407 0.229365 0.790263
O O10 0.796438 0.314299 0.719986
O O11 0.251892 0.821499 0.000000
O O12 0.588203 0.500000 0.750000
O O13 0.500000 0.443298 0.750000
O O14 0.561553 0.453281 0.000000
#
# Coordination Sequence:
#
# PCOD8275277 Si02
#       5
#    16  16  16  16  16
#     4   8  16  27  40  54  70  90 118 152 187 220
#     4  10  18  28  39  53  71  95 122 152 184 216
#     4  10  17  25  36  53  73  93 115 144 177 215
#     4   9  15  26  40  53  68  90 116 147 181 214
#     4  10  18  29  40  53  70  92 119 150 186 225
#
# _framework density 13.790628
#
# number of rings (size 3 to 8) (size 9 to 14) (size 15 to 20)
#    0.000    2.600    0.000    7.200    0.000    0.000 
#    0.000   11.000    0.000    0.000    0.000    0.000 
#    0.000    0.000    0.000    0.000    0.000    1.000 
#
# Total GULP energy -495596.390496 kJ/mol
# GULP energy per Si atom -12389.909762 kJ/mol
# Density = 1.375924 g / cm^3
# Si number density = 13.790628 Si / 1000 Ang^3
#
#
#
# Elastic Constant Matrix: (Units=GPa)
#
#
# Indices 1 2 3 4 5 6 
#
# 1 116.7758 57.6331 28.3115 0.0000 0.0000 0.0000
# 2 57.6331 60.0493 18.7679 0.0000 0.0000 0.0000
# 3 28.3115 18.7679 50.5306 0.0000 0.0000 0.0000
# 4 0.0000 0.0000 0.0000 8.4980 0.0000 0.0000
# 5 0.0000 0.0000 0.0000 0.0000 21.4575 0.0000
# 6 0.0000 0.0000 0.0000 0.0000 0.0000 24.1331
#
#
#
# Elastic Compliance Matrix: (Units=1/GPa)
#
#
# Indices 1 2 3 4 5 6 
#
# 1 0.016924 -0.015024 -0.003902 0.000000 0.000000 0.000000
# 2 -0.015024 0.032176 -0.003533 0.000000 0.000000 0.000000
# 3 -0.003902 -0.003533 0.023289 0.000000 0.000000 0.000000
# 4 0.000000 0.000000 0.000000 0.117675 0.000000 0.000000
# 5 0.000000 0.000000 0.000000 0.000000 0.046604 0.000000
# 6 0.000000 0.000000 0.000000 0.000000 0.000000 0.041437
#
#
# Mechanical properties :
#
#
# Convention : Reuss Voigt Hill
#
# Bulk Modulus (GPa) = 36.40233 48.53118 42.46676
# Shear Modulus (GPa) = 15.05208 18.99395 17.02302
#
# Velocity S-wave (km/s) = 3.30733 3.71524 3.51720
# Velocity P-wave (km/s) = 6.40611 7.32610 6.88150
#
# Compressibility (1/GPa) = 0.02747077
#
# Stress axis : x y z
#
# Youngs Moduli (GPa) = 59.08704 31.07877 42.93911
#
# Poissons Ratio (x) = 0.46691 0.16756
# Poissons Ratio (y) = 0.88770 0.15172
# Poissons Ratio (z) = 0.23058 0.10981
#
# Static dielectric constant tensor:
#      x y z
#    x 3.152720 0.000000 0.000000 
#    y 0.000000 2.808020 0.000000 
#    z 0.000000 0.000000 2.663340 
# 
# 
# High freq. dielectric constant tensor:
#      x y z
#    x 1.521670 0.000000 0.000000 
#    y 0.000000 1.473270 0.000000 
#    z 0.000000 0.000000 1.531990 
# 
# From -- ./inp_files/9486.got.cif
#   From: 2010.03.12/outbox.cif.g09.slc.cpg/sg66_5_cif.got.tgz:9486.got - 2010.04.10 21:57:39.
