data_PCOD8275917
_publ_section_title
;
Structure prediction by ZEFSAII (Michael W. Deem and Ramdas Pophale) SiO2 
 PCOD8275917
Probable space group: C C C M
;
_chemical_formula_sum "Si O2"
_cell_formula_units_Z 112
_cell_length_a 25.154631
_cell_length_b 12.449525
_cell_length_c 18.744690
_cell_angle_alpha 90.000000
_cell_angle_beta 90.000000
_cell_angle_gamma 90.000000
_cell_volume 5870.147244
_symmetry_space_group_name_H-M "C C C M"
_symmetry_group_IT_number 66
_symmetry_cell_setting 'orthorhombic'
loop_
_space_group_symop_operation_xyz
x,y,z
-x,-y,z
x,-y,1/2-z
-x,y,1/2-z
-x,-y,-z
x,y,-z
-x,y,1/2+z
x,-y,1/2+z
1/2+x,1/2+y,z
1/2-x,1/2-y,z
1/2+x,1/2-y,1/2-z
1/2-x,1/2+y,1/2-z
1/2-x,1/2-y,-z
1/2+x,1/2+y,-z
1/2-x,1/2+y,1/2+z
1/2+x,1/2-y,1/2+z
loop_
_atom_site_type_symbol
_atom_site_label
_atom_site_fract_x
_atom_site_fract_y
_atom_site_fract_z
Si Si1 0.039627 0.594683 0.078214
Si Si2 0.501497 0.710104 0.668150
Si Si3 0.613422 0.377788 0.664942
Si Si4 0.307916 0.771858 0.082236
Si Si5 0.613854 0.622680 0.670040
Si Si6 0.809185 0.278751 0.585041
Si Si7 0.352980 0.003556 0.418091
O O1 0.008944 0.682383 0.123609
O O2 0.091954 0.545753 0.117690
O O3 0.000000 0.500000 0.065061
O O4 0.055860 0.643233 0.000000
O O5 0.500000 0.745740 0.750000
O O6 0.447877 0.648122 0.645837
O O7 0.551241 0.632469 0.653748
O O8 0.628074 0.501314 0.648940
O O9 0.625463 0.351995 0.747348
O O10 0.650678 0.309028 0.614350
O O11 0.250000 0.750000 0.114730
O O12 0.353196 0.707928 0.124270
O O13 0.311783 0.899848 0.090576
O O14 0.311984 0.735472 0.000000
O O15 0.810708 0.276798 0.500000
O O16 0.750000 0.250000 0.612433
O O17 0.827710 0.395485 0.615890
O O18 0.365913 0.976847 0.500000
#
# Coordination Sequence:
#
# PCOD8275917 Si02
#       7
#    16  16  16  16  16  16  16
#     4  10  19  32  54  80 112 149 183 225 280 335
#     4  10  20  36  57  82 112 148 188 231 280 340
#     4  10  22  38  58  83 115 152 190 232 280 338
#     4  10  21  36  60  87 112 145 188 234 284 338
#     4  10  21  39  59  83 115 150 187 232 287 337
#     4  10  22  39  60  84 114 152 194 236 282 339
#     4   9  18  35  55  81 114 145 180 229 284 332
#
# _framework density 19.07959
#
# number of rings (size 3 to 8) (size 9 to 14) (size 15 to 20)
#    0.000    2.143    1.429    1.286    2.000    4.857 
#    0.000    0.714    0.000    2.571    0.000    0.000 
#    0.000    0.000    0.000    0.000    0.000    0.000 
#
# Total GULP energy -694217.215044 kJ/mol
# GULP energy per Si atom -12396.735983 kJ/mol
# Density = 1.903616 g / cm^3
# Si number density = 19.079590 Si / 1000 Ang^3
#
#
#
# Elastic Constant Matrix: (Units=GPa)
#
#
# Indices 1 2 3 4 5 6 
#
# 1 110.9603 34.7933 25.0255 0.0000 0.0000 0.0000
# 2 34.7933 113.9030 31.4079 0.0000 0.0000 0.0000
# 3 25.0255 31.4079 38.9009 0.0000 0.0000 0.0000
# 4 0.0000 0.0000 0.0000 35.0955 0.0000 0.0000
# 5 0.0000 0.0000 0.0000 0.0000 26.8860 0.0000
# 6 0.0000 0.0000 0.0000 0.0000 0.0000 33.8315
#
#
#
# Elastic Compliance Matrix: (Units=1/GPa)
#
#
# Indices 1 2 3 4 5 6 
#
# 1 0.010816 -0.001782 -0.005519 0.000000 0.000000 0.000000
# 2 -0.001782 0.011587 -0.008209 0.000000 0.000000 0.000000
# 3 -0.005519 -0.008209 0.035885 0.000000 0.000000 0.000000
# 4 0.000000 0.000000 0.000000 0.028494 0.000000 0.000000
# 5 0.000000 0.000000 0.000000 0.000000 0.037194 0.000000
# 6 0.000000 0.000000 0.000000 0.000000 0.000000 0.029558
#
#
# Mechanical properties :
#
#
# Convention : Reuss Voigt Hill
#
# Bulk Modulus (GPa) = 36.67378 49.57972 43.12675
# Shear Modulus (GPa) = 25.82066 30.66511 28.24288
#
# Velocity S-wave (km/s) = 3.68273 4.01336 3.85160
# Velocity P-wave (km/s) = 6.11118 6.89335 6.51402
#
# Compressibility (1/GPa) = 0.02726744
#
# Stress axis : x y z
#
# Youngs Moduli (GPa) = 92.45761 86.30142 27.86697
#
# Poissons Ratio (x) = 0.15378 0.15380
# Poissons Ratio (y) = 0.16475 0.22876
# Poissons Ratio (z) = 0.51029 0.70845
#
# Static dielectric constant tensor:
#      x y z
#    x 3.703520 0.000000 0.000000 
#    y 0.000000 3.592970 0.000000 
#    z 0.000000 0.000000 3.313040 
# 
# 
# High freq. dielectric constant tensor:
#      x y z
#    x 1.755210 0.000000 0.000000 
#    y 0.000000 1.750110 0.000000 
#    z 0.000000 0.000000 1.712810 
# 
# From -- ./inp_files/49009.got.cif
#   From: 2010.03.12/outbox.cif.g09.slc.cpg/sg66_25_cif.got.tgz:49009.got - 2010.04.10 21:57:39.
