data_PCOD8275089
_publ_section_title
;
Structure prediction by ZEFSAII (Michael W. Deem and Ramdas Pophale) SiO2 
 PCOD8275089
Probable space group: C M M M
;
_chemical_formula_sum "Si O2"
_cell_formula_units_Z 88
_cell_length_a 23.783789
_cell_length_b 30.794346
_cell_length_c 9.297470
_cell_angle_alpha 90.000000
_cell_angle_beta 90.000000
_cell_angle_gamma 90.000000
_cell_volume 6809.524929
_symmetry_space_group_name_H-M "C M M M"
_symmetry_group_IT_number 65
_symmetry_cell_setting 'orthorhombic'
loop_
_space_group_symop_operation_xyz
x,y,z
-x,-y,z
x,-y,-z
-x,y,-z
-x,-y,-z
x,y,-z
-x,y,z
x,-y,z
1/2+x,1/2+y,z
1/2-x,1/2-y,z
1/2+x,1/2-y,-z
1/2-x,1/2+y,-z
1/2-x,1/2-y,-z
1/2+x,1/2+y,-z
1/2-x,1/2+y,z
1/2+x,1/2-y,z
loop_
_atom_site_type_symbol
_atom_site_label
_atom_site_fract_x
_atom_site_fract_y
_atom_site_fract_z
Si Si1 0.065042 0.500000 0.828535
Si Si2 0.123204 0.247029 0.167649
Si Si3 0.000000 0.263145 0.830033
Si Si4 0.687530 0.835432 0.167790
Si Si5 0.500000 0.141322 0.827682
Si Si6 0.717264 0.294920 0.661874
Si Si7 0.893624 0.591071 0.170558
O O1 0.100932 0.541594 0.772116
O O2 0.000000 0.500000 0.771827
O O3 0.062291 0.500000 0.000000
O O4 0.058129 0.239848 0.216605
O O5 0.143179 0.296498 0.199726
O O6 0.158356 0.211676 0.256775
O O7 0.131498 0.236730 0.000000
O O8 0.000000 0.310809 0.761217
O O9 0.000000 0.268368 0.000000
O O10 0.745013 0.830378 0.256389
O O11 0.661912 0.882067 0.217283
O O12 0.702967 0.835338 0.000000
O O13 0.553740 0.116776 0.765575
O O14 0.500000 0.142073 0.000000
O O15 0.705589 0.311012 0.500000
O O16 0.750000 0.250000 0.663107
O O17 0.896872 0.591067 0.000000
#
# Coordination Sequence:
#
# PCOD8275089 Si02
#       7
#     8  16   8  16   8  16  16
#     4   9  14  18  26  44  75 103 115 136 183 228
#     4   9  15  23  36  52  68  87 113 143 174 208
#     4   9  14  20  32  51  70  89 114 145 177 208
#     4   9  15  23  36  51  66  87 117 149 176 205
#     4   9  12  17  28  44  67  91 117 147 176 208
#     4   9  17  27  36  47  65  87 111 143 181 214
#     4   9  14  19  29  47  70  94 118 146 181 216
#
# _framework density 12.923075000000001
#
# number of rings (size 3 to 8) (size 9 to 14) (size 15 to 20)
#    0.000    3.000    2.727    0.545    0.000    2.182 
#    0.000    0.455    0.000    0.000    0.000    1.273 
#    0.000    0.727    0.000    0.000    0.000    0.909 
#
# Total GULP energy -545125.109345 kJ/mol
# GULP energy per Si atom -12389.207031 kJ/mol
# Density = 1.289366 g / cm^3
# Si number density = 12.923075 Si / 1000 Ang^3
#
#
#
# Elastic Constant Matrix: (Units=GPa)
#
#
# Indices 1 2 3 4 5 6 
#
# 1 107.6087 53.1240 36.9087 0.0000 0.0000 0.0000
# 2 53.1240 67.7849 23.2605 0.0000 0.0000 0.0000
# 3 36.9087 23.2605 38.6698 0.0000 0.0000 0.0000
# 4 0.0000 0.0000 0.0000 4.4688 0.0000 0.0000
# 5 0.0000 0.0000 0.0000 0.0000 4.0289 0.0000
# 6 0.0000 0.0000 0.0000 0.0000 0.0000 20.4964
#
#
#
# Elastic Compliance Matrix: (Units=1/GPa)
#
#
# Indices 1 2 3 4 5 6 
#
# 1 0.018313 -0.010527 -0.011147 0.000000 0.000000 0.000000
# 2 -0.010527 0.024641 -0.004774 0.000000 0.000000 0.000000
# 3 -0.011147 -0.004774 0.039371 0.000000 0.000000 0.000000
# 4 0.000000 0.000000 0.000000 0.223776 0.000000 0.000000
# 5 0.000000 0.000000 0.000000 0.000000 0.248209 0.000000
# 6 0.000000 0.000000 0.000000 0.000000 0.000000 0.048789
#
#
# Mechanical properties :
#
#
# Convention : Reuss Voigt Hill
#
# Bulk Modulus (GPa) = 33.98050 48.96109 41.47080
# Shear Modulus (GPa) = 7.50969 12.51683 10.01326
#
# Velocity S-wave (km/s) = 2.41323 3.11555 2.78661
# Velocity P-wave (km/s) = 5.84093 7.13520 6.52026
#
# Compressibility (1/GPa) = 0.02942864
#
# Stress axis : x y z
#
# Youngs Moduli (GPa) = 54.60507 40.58244 25.39940
#
# Poissons Ratio (x) = 0.42722 0.28313
# Poissons Ratio (y) = 0.57484 0.12126
# Poissons Ratio (z) = 0.60868 0.19375
#
# Static dielectric constant tensor:
#      x y z
#    x 2.677570 0.000000 0.000000 
#    y 0.000000 2.541700 0.000000 
#    z 0.000000 0.000000 2.339650 
# 
# 
# High freq. dielectric constant tensor:
#      x y z
#    x 1.481990 0.000000 0.000000 
#    y 0.000000 1.453220 0.000000 
#    z 0.000000 0.000000 1.457820 
# 
# From -- ./inp_files/17187.got.cif
#   From: 2010.03.12/outbox.cif.g09.slc.cpg/sg65_9_cif.got.tgz:17187.got - 2010.04.10 20:52:16.
