data_PCOD8275401
_publ_section_title
;
Structure prediction by ZEFSAII (Michael W. Deem and Ramdas Pophale) SiO2 
 PCOD8275401
Probable space group: C C C M
;
_chemical_formula_sum "Si O2"
_cell_formula_units_Z 96
_cell_length_a 14.821016
_cell_length_b 16.579977
_cell_length_c 20.477865
_cell_angle_alpha 90.000000
_cell_angle_beta 90.000000
_cell_angle_gamma 90.000000
_cell_volume 5032.068860
_symmetry_space_group_name_H-M "C C C M"
_symmetry_group_IT_number 66
_symmetry_cell_setting 'orthorhombic'
loop_
_space_group_symop_operation_xyz
x,y,z
-x,-y,z
x,-y,1/2-z
-x,y,1/2-z
-x,-y,-z
x,y,-z
-x,y,1/2+z
x,-y,1/2+z
1/2+x,1/2+y,z
1/2-x,1/2-y,z
1/2+x,1/2-y,1/2-z
1/2-x,1/2+y,1/2-z
1/2-x,1/2-y,-z
1/2+x,1/2+y,-z
1/2-x,1/2+y,1/2+z
1/2+x,1/2-y,1/2+z
loop_
_atom_site_type_symbol
_atom_site_label
_atom_site_fract_x
_atom_site_fract_y
_atom_site_fract_z
Si Si1 0.708266 0.445075 0.572951
Si Si2 0.952199 0.823905 0.925881
Si Si3 0.230630 0.059585 0.307588
Si Si4 0.428263 0.319071 0.304580
Si Si5 0.098389 0.640198 0.759812
Si Si6 0.828315 0.311410 0.622413
O O1 0.706499 0.481230 0.500000
O O2 0.617647 0.395637 0.587913
O O3 0.715701 0.519117 0.622388
O O4 0.792536 0.383597 0.577122
O O5 0.907526 0.736205 0.914441
O O6 0.034677 0.836856 0.876828
O O7 0.988335 0.827459 0.000000
O O8 0.167137 0.136931 0.297909
O O9 0.335920 0.083950 0.302497
O O10 0.202912 0.000000 0.250000
O O11 0.500000 0.349427 0.250000
O O12 0.412036 0.224576 0.296780
O O13 0.140132 0.649238 0.688913
O O14 0.000000 0.599455 0.750000
O O15 0.750000 0.250000 0.641296
#
# Coordination Sequence:
#
# PCOD8275401 Si02
#       6
#    16  16  16  16  16  16
#     4  10  22  38  58  87 124 159 194 239 291 349
#     4  10  20  36  61  91 119 154 197 241 291 347
#     4  12  24  38  59  86 120 158 195 238 295 354
#     4  11  22  38  60  88 119 151 195 246 292 344
#     4  11  22  39  63  87 113 149 199 249 291 342
#     4  10  17  35  62  88 115 149 193 243 291 340
#
# _framework density 19.077639999999999
#
# number of rings (size 3 to 8) (size 9 to 14) (size 15 to 20)
#    0.000    1.333    5.000    3.000    0.000    5.333 
#    0.000    2.500    0.000    3.000    0.000    0.000 
#    0.000    0.000    0.000    0.000    0.000    0.000 
#
# Total GULP energy -595272.509686 kJ/mol
# GULP energy per Si atom -12401.510618 kJ/mol
# Density = 1.903422 g / cm^3
# Si number density = 19.077640 Si / 1000 Ang^3
#
#
#
# Elastic Constant Matrix: (Units=GPa)
#
#
# Indices 1 2 3 4 5 6 
#
# 1 81.2527 16.6544 31.1101 0.0000 0.0000 0.0000
# 2 16.6544 46.6876 29.5166 0.0000 0.0000 0.0000
# 3 31.1101 29.5166 127.7608 0.0000 0.0000 0.0000
# 4 0.0000 0.0000 0.0000 33.1199 0.0000 0.0000
# 5 0.0000 0.0000 0.0000 0.0000 26.9023 0.0000
# 6 0.0000 0.0000 0.0000 0.0000 0.0000 14.0738
#
#
#
# Elastic Compliance Matrix: (Units=1/GPa)
#
#
# Indices 1 2 3 4 5 6 
#
# 1 0.014000 -0.003324 -0.002641 0.000000 0.000000 0.000000
# 2 -0.003324 0.025872 -0.005168 0.000000 0.000000 0.000000
# 3 -0.002641 -0.005168 0.009664 0.000000 0.000000 0.000000
# 4 0.000000 0.000000 0.000000 0.030193 0.000000 0.000000
# 5 0.000000 0.000000 0.000000 0.000000 0.037171 0.000000
# 6 0.000000 0.000000 0.000000 0.000000 0.000000 0.071054
#
#
# Mechanical properties :
#
#
# Convention : Reuss Voigt Hill
#
# Bulk Modulus (GPa) = 36.67058 45.58480 41.12769
# Shear Modulus (GPa) = 22.79867 26.71386 24.75626
#
# Velocity S-wave (km/s) = 3.46069 3.74608 3.60621
# Velocity P-wave (km/s) = 5.93566 6.53124 6.24056
#
# Compressibility (1/GPa) = 0.02726982
#
# Stress axis : x y z
#
# Youngs Moduli (GPa) = 71.42930 38.65187 103.47563
#
# Poissons Ratio (x) = 0.12849 0.27328
# Poissons Ratio (y) = 0.23746 0.53473
# Poissons Ratio (z) = 0.18864 0.19974
#
# Static dielectric constant tensor:
#      x y z
#    x 3.679190 0.000000 0.000000 
#    y 0.000000 3.415130 0.000000 
#    z 0.000000 0.000000 3.719480 
# 
# 
# High freq. dielectric constant tensor:
#      x y z
#    x 1.737550 0.000000 0.000000 
#    y 0.000000 1.731760 0.000000 
#    z 0.000000 0.000000 1.743580 
# 
# From -- ./inp_files/49922.got.cif
#   From: 2010.03.12/outbox.cif.g09.slc.cpg/sg66_25_cif.got.tgz:49922.got - 2010.04.10 21:57:39.
