data_PCOD8276962
_publ_section_title
;
Structure prediction by ZEFSAII (Michael W. Deem and Ramdas Pophale) SiO2 
 PCOD8276962
Probable space group: C C C M
;
_chemical_formula_sum "Si O2"
_cell_formula_units_Z 96
_cell_length_a 14.586385
_cell_length_b 22.131388
_cell_length_c 14.364096
_cell_angle_alpha 90.000000
_cell_angle_beta 90.000000
_cell_angle_gamma 90.000000
_cell_volume 4636.973602
_symmetry_space_group_name_H-M "C C C M"
_symmetry_group_IT_number 66
_symmetry_cell_setting 'orthorhombic'
loop_
_space_group_symop_operation_xyz
x,y,z
-x,-y,z
x,-y,1/2-z
-x,y,1/2-z
-x,-y,-z
x,y,-z
-x,y,1/2+z
x,-y,1/2+z
1/2+x,1/2+y,z
1/2-x,1/2-y,z
1/2+x,1/2-y,1/2-z
1/2-x,1/2+y,1/2-z
1/2-x,1/2-y,-z
1/2+x,1/2+y,-z
1/2-x,1/2+y,1/2+z
1/2+x,1/2-y,1/2+z
loop_
_atom_site_type_symbol
_atom_site_label
_atom_site_fract_x
_atom_site_fract_y
_atom_site_fract_z
Si Si1 0.841727 0.496129 0.109693
Si Si2 0.146409 0.272644 0.765364
Si Si3 0.897606 0.596455 0.242720
Si Si4 0.866811 0.003537 0.395113
Si Si5 0.008965 0.898462 0.850943
Si Si6 0.515615 0.732314 0.395753
O O1 0.898876 0.550120 0.155936
O O2 0.866007 0.433645 0.160223
O O3 0.737354 0.512899 0.133525
O O4 0.862816 0.491223 0.000000
O O5 0.250000 0.250000 0.771599
O O6 0.161867 0.344488 0.777119
O O7 0.099874 0.258061 0.665374
O O8 0.083024 0.246239 0.848347
O O9 0.000000 0.621367 0.250000
O O10 0.876457 0.980759 0.500000
O O11 0.910088 0.947999 0.338273
O O12 0.917786 0.067201 0.384146
O O13 0.000000 0.868725 0.750000
O O14 0.028461 0.840015 0.913270
O O15 0.518550 0.761139 0.500000
#
# Coordination Sequence:
#
# PCOD8276962 Si02
#       6
#    16  16  16  16  16  16
#     4  10  24  39  66  96 123 164 209 263 322 373
#     4  11  26  47  68  98 133 173 224 273 327 389
#     4  11  24  45  65  90 127 160 212 270 315 383
#     4  10  21  36  56  96 132 164 208 253 312 384
#     4  11  21  35  62  92 131 172 202 252 318 382
#     4  11  24  45  69  97 131 173 220 269 328 394
#
# _framework density 20.703157999999998
#
# number of rings (size 3 to 8) (size 9 to 14) (size 15 to 20)
#    0.000    1.333    3.333    4.000    9.333    3.333 
#    0.000    0.000    0.000    0.000    0.000    0.000 
#    0.000    0.000    0.000    0.000    0.000    0.000 
#
# Total GULP energy -595058.076746 kJ/mol
# GULP energy per Si atom -12397.043266 kJ/mol
# Density = 2.065604 g / cm^3
# Si number density = 20.703158 Si / 1000 Ang^3
#
#
#
# Elastic Constant Matrix: (Units=GPa)
#
#
# Indices 1 2 3 4 5 6 
#
# 1 94.9061 8.0513 13.9015 0.0000 0.0000 0.0000
# 2 8.0513 119.4246 11.2459 0.0000 0.0000 0.0000
# 3 13.9015 11.2459 121.3580 0.0000 0.0000 0.0000
# 4 0.0000 0.0000 0.0000 18.9242 0.0000 0.0000
# 5 0.0000 0.0000 0.0000 0.0000 25.0917 0.0000
# 6 0.0000 0.0000 0.0000 0.0000 0.0000 26.8871
#
#
#
# Elastic Compliance Matrix: (Units=1/GPa)
#
#
# Indices 1 2 3 4 5 6 
#
# 1 0.010761 -0.000615 -0.001176 0.000000 0.000000 0.000000
# 2 -0.000615 0.008482 -0.000716 0.000000 0.000000 0.000000
# 3 -0.001176 -0.000716 0.008441 0.000000 0.000000 0.000000
# 4 0.000000 0.000000 0.000000 0.052842 0.000000 0.000000
# 5 0.000000 0.000000 0.000000 0.000000 0.039854 0.000000
# 6 0.000000 0.000000 0.000000 0.000000 0.000000 0.037193
#
#
# Mechanical properties :
#
#
# Convention : Reuss Voigt Hill
#
# Bulk Modulus (GPa) = 44.10668 44.67625 44.39146
# Shear Modulus (GPa) = 29.38705 34.34658 31.86682
#
# Velocity S-wave (km/s) = 3.77164 4.07750 3.92755
# Velocity P-wave (km/s) = 6.34962 6.61773 6.48506
#
# Compressibility (1/GPa) = 0.02267230
#
# Stress axis : x y z
#
# Youngs Moduli (GPa) = 92.92728 117.89229 118.46836
#
# Poissons Ratio (x) = 0.07248 0.13928
# Poissons Ratio (y) = 0.05713 0.08478
# Poissons Ratio (z) = 0.10926 0.08437
#
# Static dielectric constant tensor:
#      x y z
#    x 3.795880 0.000000 0.000000 
#    y 0.000000 3.605920 0.000000 
#    z 0.000000 0.000000 3.870170 
# 
# 
# High freq. dielectric constant tensor:
#      x y z
#    x 1.805800 0.000000 0.000000 
#    y 0.000000 1.813780 0.000000 
#    z 0.000000 0.000000 1.817050 
# 
# From -- ./inp_files/28349.got.cif
#   From: 2010.03.12/outbox.cif.g09.slc.cpg/sg66_15_cif.got.tgz:28349.got - 2010.04.10 21:57:39.
