data_PCOD8276568
_publ_section_title
;
Structure prediction by ZEFSAII (Michael W. Deem and Ramdas Pophale) SiO2 
 PCOD8276568
Probable space group: C C C M
;
_chemical_formula_sum "Si O2"
_cell_formula_units_Z 104
_cell_length_a 10.758247
_cell_length_b 30.072125
_cell_length_c 15.551174
_cell_angle_alpha 90.000000
_cell_angle_beta 90.000000
_cell_angle_gamma 90.000000
_cell_volume 5031.167887
_symmetry_space_group_name_H-M "C C C M"
_symmetry_group_IT_number 66
_symmetry_cell_setting 'orthorhombic'
loop_
_space_group_symop_operation_xyz
x,y,z
-x,-y,z
x,-y,1/2-z
-x,y,1/2-z
-x,-y,-z
x,y,-z
-x,y,1/2+z
x,-y,1/2+z
1/2+x,1/2+y,z
1/2-x,1/2-y,z
1/2+x,1/2-y,1/2-z
1/2-x,1/2+y,1/2-z
1/2-x,1/2-y,-z
1/2+x,1/2+y,-z
1/2-x,1/2+y,1/2+z
1/2+x,1/2-y,1/2+z
loop_
_atom_site_type_symbol
_atom_site_label
_atom_site_fract_x
_atom_site_fract_y
_atom_site_fract_z
Si Si1 0.114909 0.969842 0.398313
Si Si2 0.160175 0.823166 0.093838
Si Si3 0.366159 0.988681 0.901091
Si Si4 0.000000 0.655405 0.250000
Si Si5 0.565232 0.629142 0.160258
Si Si6 0.610186 0.112176 0.904986
Si Si7 0.243808 0.201424 0.231015
O O1 0.116320 0.976245 0.500000
O O2 0.246967 0.986749 0.358649
O O3 0.108832 0.917959 0.375809
O O4 0.000000 0.000000 0.361362
O O5 0.268445 0.858568 0.105981
O O6 0.171299 0.791069 0.176922
O O7 0.029754 0.848944 0.093286
O O8 0.171782 0.798875 0.000000
O O9 0.500000 0.000000 0.856895
O O10 0.339896 0.936946 0.889911
O O11 0.374490 0.003828 0.000000
O O12 0.006129 0.624674 0.165005
O O13 0.116385 0.687273 0.254283
O O14 0.500000 0.619715 0.250000
O O15 0.677711 0.664300 0.172249
O O16 0.550118 0.117583 0.000000
O O17 0.250000 0.250000 0.185792
#
# Coordination Sequence:
#
# PCOD8276568 Si02
#       7
#    16  16  16   8  16  16  16
#     4  10  20  35  59  89 117 155 201 244 300 364
#     4   9  18  36  62  88 113 150 198 247 298 361
#     4   9  18  31  52  80 116 156 192 237 292 348
#     4  10  22  38  63  86 116 158 205 244 304 366
#     4  10  21  36  58  88 121 155 190 248 310 355
#     4   9  18  36  59  84 118 159 202 246 293 360
#     4  10  23  39  62  86 117 158 201 247 307 366
#
# _framework density 20.671144000000002
#
# number of rings (size 3 to 8) (size 9 to 14) (size 15 to 20)
#    0.000    2.462    0.000    1.385    5.385    3.077 
#    0.000    1.154    0.000    2.308    0.000    0.000 
#    0.000    0.000    0.000    0.000    0.000    0.000 
#
# Total GULP energy -644436.272595 kJ/mol
# GULP energy per Si atom -12393.005242 kJ/mol
# Density = 2.062410 g / cm^3
# Si number density = 20.671144 Si / 1000 Ang^3
#
#
#
# Elastic Constant Matrix: (Units=GPa)
#
#
# Indices 1 2 3 4 5 6 
#
# 1 127.2123 51.4330 33.0564 0.0000 0.0000 0.0000
# 2 51.4330 114.4028 20.4824 0.0000 0.0000 0.0000
# 3 33.0564 20.4824 60.0940 0.0000 0.0000 0.0000
# 4 0.0000 0.0000 0.0000 19.4836 0.0000 0.0000
# 5 0.0000 0.0000 0.0000 0.0000 18.1750 0.0000
# 6 0.0000 0.0000 0.0000 0.0000 0.0000 23.5298
#
#
#
# Elastic Compliance Matrix: (Units=1/GPa)
#
#
# Indices 1 2 3 4 5 6 
#
# 1 0.010637 -0.003977 -0.004496 0.000000 0.000000 0.000000
# 2 -0.003977 0.010796 -0.001492 0.000000 0.000000 0.000000
# 3 -0.004496 -0.001492 0.019622 0.000000 0.000000 0.000000
# 4 0.000000 0.000000 0.000000 0.051325 0.000000 0.000000
# 5 0.000000 0.000000 0.000000 0.000000 0.055021 0.000000
# 6 0.000000 0.000000 0.000000 0.000000 0.000000 0.042499
#
#
# Mechanical properties :
#
#
# Convention : Reuss Voigt Hill
#
# Bulk Modulus (GPa) = 47.33581 56.85027 52.09304
# Shear Modulus (GPa) = 23.05502 25.35349 24.20425
#
# Velocity S-wave (km/s) = 3.34327 3.50596 3.42558
# Velocity P-wave (km/s) = 6.15243 6.62955 6.39545
#
# Compressibility (1/GPa) = 0.02112566
#
# Stress axis : x y z
#
# Youngs Moduli (GPa) = 94.01016 92.62443 50.96311
#
# Poissons Ratio (x) = 0.36840 0.22911
# Poissons Ratio (y) = 0.37391 0.07603
# Poissons Ratio (z) = 0.42263 0.13819
#
# Static dielectric constant tensor:
#      x y z
#    x 3.940030 0.000000 0.000000 
#    y 0.000000 3.605540 0.000000 
#    z 0.000000 0.000000 3.867920 
# 
# 
# High freq. dielectric constant tensor:
#      x y z
#    x 1.815150 0.000000 0.000000 
#    y 0.000000 1.801150 0.000000 
#    z 0.000000 0.000000 1.789790 
# 
# From -- ./inp_files/39189.got.cif
#   From: 2010.03.12/outbox.cif.g09.slc.cpg/sg66_20_cif.got.tgz:39189.got - 2010.04.10 21:57:39.
