data_PCOD8276200
_publ_section_title
;
Structure prediction by ZEFSAII (Michael W. Deem and Ramdas Pophale) SiO2 
 PCOD8276200
Probable space group: C C C M
;
_chemical_formula_sum "Si O2"
_cell_formula_units_Z 68
_cell_length_a 17.820476
_cell_length_b 9.836120
_cell_length_c 18.117376
_cell_angle_alpha 90.000000
_cell_angle_beta 90.000000
_cell_angle_gamma 90.000000
_cell_volume 3175.692302
_symmetry_space_group_name_H-M "C C C M"
_symmetry_group_IT_number 66
_symmetry_cell_setting 'orthorhombic'
loop_
_space_group_symop_operation_xyz
x,y,z
-x,-y,z
x,-y,1/2-z
-x,y,1/2-z
-x,-y,-z
x,y,-z
-x,y,1/2+z
x,-y,1/2+z
1/2+x,1/2+y,z
1/2-x,1/2-y,z
1/2+x,1/2-y,1/2-z
1/2-x,1/2+y,1/2-z
1/2-x,1/2-y,-z
1/2+x,1/2+y,-z
1/2-x,1/2+y,1/2+z
1/2+x,1/2-y,1/2+z
loop_
_atom_site_type_symbol
_atom_site_label
_atom_site_fract_x
_atom_site_fract_y
_atom_site_fract_z
Si Si1 0.616350 0.691453 0.169205
Si Si2 0.642681 0.798933 0.325524
Si Si3 0.500000 0.500000 0.750000
Si Si4 0.222764 0.970693 0.834547
Si Si5 0.000019 0.340473 0.418656
O O1 0.644180 0.788360 0.236282
O O2 0.552458 0.588878 0.197267
O O3 0.686011 0.607290 0.129817
O O4 0.581342 0.786753 0.106197
O O5 0.688838 0.937266 0.347797
O O6 0.680237 0.665212 0.360586
O O7 0.559494 0.799795 0.356465
O O8 0.203623 0.000000 0.750000
O O9 0.019454 0.280436 0.500000
O O10 0.000000 0.500000 0.424236
#
# Coordination Sequence:
#
# PCOD8276200 Si02
#       5
#    16  16   4  16  16
#     4  11  19  37  64  89 126 155 203 263 317 366
#     4  10  19  36  60  89 118 154 198 252 313 359
#     4  12  16  36  60  96 120 148 196 266 304 376
#     4   9  19  34  58  93 121 145 192 258 312 369
#     4  11  25  41  56  83 124 167 210 251 299 371
#
# _framework density 21.412652999999999
#
# number of rings (size 3 to 8) (size 9 to 14) (size 15 to 20)
#    0.000    1.647    5.882    0.000    3.294    0.941 
#    0.000    8.824    0.000    2.824    0.000    0.000 
#    0.000    0.000    0.000    0.000    0.000    0.000 
#
# Total GULP energy -421198.051667 kJ/mol
# GULP energy per Si atom -12388.177990 kJ/mol
# Density = 2.136392 g / cm^3
# Si number density = 21.412653 Si / 1000 Ang^3
#
#
#
# Elastic Constant Matrix: (Units=GPa)
#
#
# Indices 1 2 3 4 5 6 
#
# 1 106.6760 55.5719 27.2209 0.0000 0.0000 0.0000
# 2 55.5719 88.4279 36.1860 0.0000 0.0000 0.0000
# 3 27.2209 36.1860 60.4081 0.0000 0.0000 0.0000
# 4 0.0000 0.0000 0.0000 -5.6909 0.0000 0.0000
# 5 0.0000 0.0000 0.0000 0.0000 -29.9263 0.0000
# 6 0.0000 0.0000 0.0000 0.0000 0.0000 59.6685
#
#
#
# Elastic Compliance Matrix: (Units=1/GPa)
#
#
# Indices 1 2 3 4 5 6 
#
# 1 0.014023 -0.008249 -0.001378 0.000000 0.000000 0.000000
# 2 -0.008249 0.019833 -0.008164 0.000000 0.000000 0.000000
# 3 -0.001378 -0.008164 0.022065 0.000000 0.000000 0.000000
# 4 0.000000 0.000000 0.000000 -0.175718 0.000000 0.000000
# 5 0.000000 0.000000 0.000000 0.000000 -0.033415 0.000000
# 6 0.000000 0.000000 0.000000 0.000000 0.000000 0.016759
#
#
# Mechanical properties :
#
#
# Convention : Reuss Voigt Hill
#
# Bulk Modulus (GPa) = 49.16169 54.82993 51.99581
# Shear Modulus (GPa) = -53.13918 13.91247 -19.61335
#
# Velocity S-wave (km/s) = -4.98704 2.55175 -3.02978
# Velocity P-wave (km/s) = 3.18618 5.86036 3.47793
#
# Compressibility (1/GPa) = 0.02034104
#
# Stress axis : x y z
#
# Youngs Moduli (GPa) = 71.31210 50.42052 45.32053
#
# Poissons Ratio (x) = 0.41591 0.06244
# Poissons Ratio (y) = 0.58824 0.36998
# Poissons Ratio (z) = 0.09825 0.41161
#
# Static dielectric constant tensor:
#      x y z
#    x 4.196810 0.000000 0.000000 
#    y 0.000000 4.176440 0.000000 
#    z 0.000000 0.000000 3.558860 
# 
# 
# High freq. dielectric constant tensor:
#      x y z
#    x 1.852750 0.000000 0.000000 
#    y 0.000000 1.851890 0.000000 
#    z 0.000000 0.000000 1.770090 
# 
# From -- ./inp_files/46730.got.cif
#   From: 2010.03.12/outbox.cif.g09.slc.cpg/sg66_24_cif.got.tgz:46730.got - 2010.04.10 21:57:39.
