data_PCOD8276503
_publ_section_title
;
Structure prediction by ZEFSAII (Michael W. Deem and Ramdas Pophale) SiO2 
 PCOD8276503
Probable space group: C C C M
;
_chemical_formula_sum "Si O2"
_cell_formula_units_Z 80
_cell_length_a 17.967557
_cell_length_b 27.401609
_cell_length_c 8.385902
_cell_angle_alpha 90.000000
_cell_angle_beta 90.000000
_cell_angle_gamma 90.000000
_cell_volume 4128.714753
_symmetry_space_group_name_H-M "C C C M"
_symmetry_group_IT_number 66
_symmetry_cell_setting 'orthorhombic'
loop_
_space_group_symop_operation_xyz
x,y,z
-x,-y,z
x,-y,1/2-z
-x,y,1/2-z
-x,-y,-z
x,y,-z
-x,y,1/2+z
x,-y,1/2+z
1/2+x,1/2+y,z
1/2-x,1/2-y,z
1/2+x,1/2-y,1/2-z
1/2-x,1/2+y,1/2-z
1/2-x,1/2-y,-z
1/2+x,1/2+y,-z
1/2-x,1/2+y,1/2+z
1/2+x,1/2-y,1/2+z
loop_
_atom_site_type_symbol
_atom_site_label
_atom_site_fract_x
_atom_site_fract_y
_atom_site_fract_z
Si Si1 0.729352 0.551955 0.686174
Si Si2 0.079306 0.911479 0.685583
Si Si3 0.581793 0.207448 0.811656
Si Si4 0.216634 0.349595 0.814983
Si Si5 0.134699 0.186329 0.314393
O O1 0.757143 0.500000 0.750000
O O2 0.744831 0.556371 0.500000
O O3 0.641738 0.558532 0.719773
O O4 0.776640 0.593183 0.776358
O O5 0.086741 0.923351 0.500000
O O6 0.089494 0.853678 0.713827
O O7 0.000000 0.929227 0.750000
O O8 0.500000 0.196104 0.750000
O O9 0.634784 0.167673 0.731346
O O10 0.606896 0.261156 0.755929
O O11 0.586288 0.202081 0.000000
O O12 0.277078 0.318410 0.715801
O O13 0.232475 0.340958 0.000000
O O14 0.117955 0.177712 0.500000
#
# Coordination Sequence:
#
# PCOD8276503 Si02
#       5
#    16  16  16  16  16
#     4  11  22  39  60  82 107 138 180 227 276 327
#     4  11  21  34  52  78 112 149 187 226 271 320
#     4  11  23  37  55  81 113 148 185 227 274 323
#     4  11  22  37  58  83 111 145 184 225 271 323
#     4  10  20  35  55  80 112 150 189 226 267 317
#
# _framework density 19.376491000000001
#
# number of rings (size 3 to 8) (size 9 to 14) (size 15 to 20)
#    0.000    1.200    0.000   10.200    0.000    7.600 
#    0.000    2.000    0.000    0.600    0.000    4.200 
#    0.000    0.000    0.000    0.000    0.000    0.000 
#
# Total GULP energy -496283.568406 kJ/mol
# GULP energy per Si atom -12407.089210 kJ/mol
# Density = 1.933239 g / cm^3
# Si number density = 19.376491 Si / 1000 Ang^3
#
#
#
# Elastic Constant Matrix: (Units=GPa)
#
#
# Indices 1 2 3 4 5 6 
#
# 1 81.0086 26.3802 -0.6106 0.0000 0.0000 0.0000
# 2 26.3802 78.3772 6.8915 0.0000 0.0000 0.0000
# 3 -0.6106 6.8915 77.7542 0.0000 0.0000 0.0000
# 4 0.0000 0.0000 0.0000 25.1190 0.0000 0.0000
# 5 0.0000 0.0000 0.0000 0.0000 31.0881 0.0000
# 6 0.0000 0.0000 0.0000 0.0000 0.0000 8.1039
#
#
#
# Elastic Compliance Matrix: (Units=1/GPa)
#
#
# Indices 1 2 3 4 5 6 
#
# 1 0.013885 -0.004720 0.000527 0.000000 0.000000 0.000000
# 2 -0.004720 0.014463 -0.001319 0.000000 0.000000 0.000000
# 3 0.000527 -0.001319 0.012982 0.000000 0.000000 0.000000
# 4 0.000000 0.000000 0.000000 0.039811 0.000000 0.000000
# 5 0.000000 0.000000 0.000000 0.000000 0.032167 0.000000
# 6 0.000000 0.000000 0.000000 0.000000 0.000000 0.123398
#
#
# Mechanical properties :
#
#
# Convention : Reuss Voigt Hill
#
# Bulk Modulus (GPa) = 32.99478 33.60692 33.30085
# Shear Modulus (GPa) = 19.39250 26.49412 22.94331
#
# Velocity S-wave (km/s) = 3.16702 3.70176 3.44478
# Velocity P-wave (km/s) = 5.51711 5.97097 5.74852
#
# Compressibility (1/GPa) = 0.03030783
#
# Stress axis : x y z
#
# Youngs Moduli (GPa) = 72.01824 69.13998 77.02922
#
# Poissons Ratio (x) = 0.32633 -0.04062
# Poissons Ratio (y) = 0.33992 0.10160
# Poissons Ratio (z) = -0.03798 0.09119
#
# Static dielectric constant tensor:
#      x y z
#    x 3.408630 0.000000 0.000000 
#    y 0.000000 3.555510 0.000000 
#    z 0.000000 0.000000 3.618790 
# 
# 
# High freq. dielectric constant tensor:
#      x y z
#    x 1.738410 0.000000 0.000000 
#    y 0.000000 1.748660 0.000000 
#    z 0.000000 0.000000 1.772040 
# 
# From -- ./inp_files/6719.got.cif
#   From: 2010.03.12/outbox.cif.g09.slc.cpg/sg66_4_cif.got.tgz:6719.got - 2010.04.10 21:57:39.
