data_PCOD8276055
_publ_section_title
;
Structure prediction by ZEFSAII (Michael W. Deem and Ramdas Pophale) SiO2 
 PCOD8276055
Probable space group: C C C M
;
_chemical_formula_sum "Si O2"
_cell_formula_units_Z 96
_cell_length_a 25.434861
_cell_length_b 23.514841
_cell_length_c 8.683972
_cell_angle_alpha 90.000000
_cell_angle_beta 90.000000
_cell_angle_gamma 90.000000
_cell_volume 5193.855103
_symmetry_space_group_name_H-M "C C C M"
_symmetry_group_IT_number 66
_symmetry_cell_setting 'orthorhombic'
loop_
_space_group_symop_operation_xyz
x,y,z
-x,-y,z
x,-y,1/2-z
-x,y,1/2-z
-x,-y,-z
x,y,-z
-x,y,1/2+z
x,-y,1/2+z
1/2+x,1/2+y,z
1/2-x,1/2-y,z
1/2+x,1/2-y,1/2-z
1/2-x,1/2+y,1/2-z
1/2-x,1/2-y,-z
1/2+x,1/2+y,-z
1/2-x,1/2+y,1/2+z
1/2+x,1/2-y,1/2+z
loop_
_atom_site_type_symbol
_atom_site_label
_atom_site_fract_x
_atom_site_fract_y
_atom_site_fract_z
Si Si1 0.688523 0.251675 0.681372
Si Si2 0.344449 0.871327 0.682331
Si Si3 0.444452 0.560223 0.819579
Si Si4 0.245397 0.938933 0.319257
Si Si5 0.554796 0.061371 0.317334
Si Si6 0.344975 0.634137 0.179424
O O1 0.680911 0.261895 0.500000
O O2 0.750000 0.250000 0.723898
O O3 0.662771 0.192964 0.740062
O O4 0.657351 0.299907 0.774336
O O5 0.339415 0.872164 0.500000
O O6 0.298693 0.911709 0.750594
O O7 0.400699 0.894599 0.737279
O O8 0.425705 0.500000 0.750000
O O9 0.500000 0.579976 0.750000
O O10 0.402206 0.608947 0.780381
O O11 0.451281 0.551544 0.000000
O O12 0.250004 0.945616 0.500000
O O13 0.197464 0.898145 0.281101
O O14 0.234600 0.000000 0.250000
O O15 0.500000 0.084245 0.250000
O O16 0.550970 0.056475 0.500000
O O17 0.568976 0.000000 0.250000
O O18 0.332010 0.626180 0.000000
#
# Coordination Sequence:
#
# PCOD8276055 Si02
#       6
#    16  16  16  16  16  16
#     4  10  19  37  60  79 105 149 191 223 270 328
#     4   9  19  35  55  79 107 141 182 224 269 325
#     4  10  21  37  58  82 111 143 182 224 274 328
#     4  11  21  35  54  80 111 143 179 223 274 332
#     4  10  19  34  55  79 109 141 179 222 270 324
#     4  11  23  37  54  83 114 144 182 228 276 326
#
# _framework density 18.483381000000001
#
# number of rings (size 3 to 8) (size 9 to 14) (size 15 to 20)
#    0.000    1.833    1.667    4.000    0.000    4.333 
#    0.000    5.000    0.000    4.000    0.000    0.000 
#    0.000    0.000    0.000    0.000    0.000    0.000 
#
# Total GULP energy -595307.311651 kJ/mol
# GULP energy per Si atom -12402.235659 kJ/mol
# Density = 1.844131 g / cm^3
# Si number density = 18.483381 Si / 1000 Ang^3
#
#
#
# Elastic Constant Matrix: (Units=GPa)
#
#
# Indices 1 2 3 4 5 6 
#
# 1 133.1241 70.3556 38.6357 0.0000 0.0000 0.0000
# 2 70.3556 117.8770 26.3420 0.0000 0.0000 0.0000
# 3 38.6357 26.3420 64.1193 0.0000 0.0000 0.0000
# 4 0.0000 0.0000 0.0000 28.0157 0.0000 0.0000
# 5 0.0000 0.0000 0.0000 0.0000 17.9039 0.0000
# 6 0.0000 0.0000 0.0000 0.0000 0.0000 35.6615
#
#
#
# Elastic Compliance Matrix: (Units=1/GPa)
#
#
# Indices 1 2 3 4 5 6 
#
# 1 0.012178 -0.006198 -0.004792 0.000000 0.000000 0.000000
# 2 -0.006198 0.012495 -0.001399 0.000000 0.000000 0.000000
# 3 -0.004792 -0.001399 0.019058 0.000000 0.000000 0.000000
# 4 0.000000 0.000000 0.000000 0.035694 0.000000 0.000000
# 5 0.000000 0.000000 0.000000 0.000000 0.055854 0.000000
# 6 0.000000 0.000000 0.000000 0.000000 0.000000 0.028041
#
#
# Mechanical properties :
#
#
# Convention : Reuss Voigt Hill
#
# Bulk Modulus (GPa) = 52.75819 65.08743 58.92281
# Shear Modulus (GPa) = 25.71818 28.30204 27.01011
#
# Velocity S-wave (km/s) = 3.73422 3.91732 3.82687
# Velocity P-wave (km/s) = 6.87009 7.46666 7.17458
#
# Compressibility (1/GPa) = 0.01895440
#
# Stress axis : x y z
#
# Youngs Moduli (GPa) = 82.11600 80.03121 52.47157
#
# Poissons Ratio (x) = 0.49600 0.25143
# Poissons Ratio (y) = 0.50893 0.07340
# Poissons Ratio (z) = 0.39348 0.11196
#
# Static dielectric constant tensor:
#      x y z
#    x 3.549740 0.000000 0.000000 
#    y 0.000000 3.528920 0.000000 
#    z 0.000000 0.000000 3.333370 
# 
# 
# High freq. dielectric constant tensor:
#      x y z
#    x 1.719940 0.000000 0.000000 
#    y 0.000000 1.719130 0.000000 
#    z 0.000000 0.000000 1.711460 
# 
# From -- ./inp_files/9131.got.cif
#   From: 2010.03.12/outbox.cif.g09.slc.cpg/sg66_5_cif.got.tgz:9131.got - 2010.04.10 21:57:39.
