data_PCOD8276022
_publ_section_title
;
Structure prediction by ZEFSAII (Michael W. Deem and Ramdas Pophale) SiO2 
 PCOD8276022
Probable space group: C C C M
;
_chemical_formula_sum "Si O2"
_cell_formula_units_Z 112
_cell_length_a 32.050615
_cell_length_b 11.495567
_cell_length_c 13.432925
_cell_angle_alpha 90.000000
_cell_angle_beta 90.000000
_cell_angle_gamma 90.000000
_cell_volume 4949.226781
_symmetry_space_group_name_H-M "C C C M"
_symmetry_group_IT_number 66
_symmetry_cell_setting 'orthorhombic'
loop_
_space_group_symop_operation_xyz
x,y,z
-x,-y,z
x,-y,1/2-z
-x,y,1/2-z
-x,-y,-z
x,y,-z
-x,y,1/2+z
x,-y,1/2+z
1/2+x,1/2+y,z
1/2-x,1/2-y,z
1/2+x,1/2-y,1/2-z
1/2-x,1/2+y,1/2-z
1/2-x,1/2-y,-z
1/2+x,1/2+y,-z
1/2-x,1/2+y,1/2+z
1/2+x,1/2-y,1/2+z
loop_
_atom_site_type_symbol
_atom_site_label
_atom_site_fract_x
_atom_site_fract_y
_atom_site_fract_z
Si Si1 0.600438 0.565213 0.387746
Si Si2 0.557129 0.184332 0.383526
Si Si3 0.584415 0.935262 0.615422
Si Si4 0.470162 0.728803 0.116137
Si Si5 0.179354 0.448772 0.615706
Si Si6 0.627469 0.673291 0.197058
Si Si7 0.706501 0.812347 0.798196
O O1 0.612780 0.599950 0.500000
O O2 0.551441 0.601676 0.367849
O O3 0.629501 0.637692 0.313220
O O4 0.608192 0.429635 0.370666
O O5 0.564151 0.210802 0.500000
O O6 0.516892 0.255151 0.339416
O O7 0.597274 0.219842 0.321251
O O8 0.554682 0.046112 0.363975
O O9 0.589229 0.910449 0.500000
O O10 0.561099 0.824514 0.664883
O O11 0.631469 0.952498 0.655205
O O12 0.475784 0.757574 0.000000
O O13 0.183773 0.415005 0.500000
O O14 0.202132 0.350714 0.682513
O O15 0.200731 0.574307 0.632650
O O16 0.673634 0.712944 0.168328
O O17 0.750000 0.750000 0.817639
#
# Coordination Sequence:
#
# PCOD8276022 Si02
#       7
#    16  16  16  16  16  16  16
#     4  10  23  41  61  87 124 170 219 266 315 379
#     4  10  19  33  59  93 130 169 214 263 318 380
#     4   9  16  32  60  91 127 168 211 258 317 382
#     4   9  18  33  55  90 131 170 211 262 315 369
#     4  10  22  42  69  98 130 171 209 258 332 398
#     4  11  23  41  65  88 120 169 217 266 327 388
#     4  11  25  44  66  97 132 162 211 276 332 391
#
# _framework density 22.629797
#
# number of rings (size 3 to 8) (size 9 to 14) (size 15 to 20)
#    0.000    2.000    1.429    1.714    0.000    8.000 
#    0.000    5.000    0.000    1.714    0.000    0.000 
#    0.000    0.000    0.000    0.000    0.000    0.000 
#
# Total GULP energy -694107.357863 kJ/mol
# GULP energy per Si atom -12394.774248 kJ/mol
# Density = 2.257829 g / cm^3
# Si number density = 22.629797 Si / 1000 Ang^3
#
#
#
# Elastic Constant Matrix: (Units=GPa)
#
#
# Indices 1 2 3 4 5 6 
#
# 1 167.8182 65.1099 12.8414 0.0000 0.0000 0.0000
# 2 65.1099 98.2491 16.1720 0.0000 0.0000 0.0000
# 3 12.8414 16.1720 57.1223 0.0000 0.0000 0.0000
# 4 0.0000 0.0000 0.0000 28.7140 0.0000 0.0000
# 5 0.0000 0.0000 0.0000 0.0000 21.0781 0.0000
# 6 0.0000 0.0000 0.0000 0.0000 0.0000 37.2627
#
#
#
# Elastic Compliance Matrix: (Units=1/GPa)
#
#
# Indices 1 2 3 4 5 6 
#
# 1 0.008027 -0.005268 -0.000313 0.000000 0.000000 0.000000
# 2 -0.005268 0.014133 -0.002817 0.000000 0.000000 0.000000
# 3 -0.000313 -0.002817 0.018374 0.000000 0.000000 0.000000
# 4 0.000000 0.000000 0.000000 0.034826 0.000000 0.000000
# 5 0.000000 0.000000 0.000000 0.000000 0.047443 0.000000
# 6 0.000000 0.000000 0.000000 0.000000 0.000000 0.026837
#
#
# Mechanical properties :
#
#
# Convention : Reuss Voigt Hill
#
# Bulk Modulus (GPa) = 42.12636 56.82625 49.47630
# Shear Modulus (GPa) = 28.67847 32.68205 30.68026
#
# Velocity S-wave (km/s) = 3.56376 3.80439 3.68604
# Velocity P-wave (km/s) = 5.96571 6.66811 6.32666
#
# Compressibility (1/GPa) = 0.02373811
#
# Stress axis : x y z
#
# Youngs Moduli (GPa) = 124.58681 70.75745 54.42421
#
# Poissons Ratio (x) = 0.37273 0.01704
# Poissons Ratio (y) = 0.65628 0.15331
# Poissons Ratio (z) = 0.03900 0.19932
#
# Static dielectric constant tensor:
#      x y z
#    x 3.930790 0.000000 0.000000 
#    y 0.000000 4.092760 0.000000 
#    z 0.000000 0.000000 4.135040 
# 
# 
# High freq. dielectric constant tensor:
#      x y z
#    x 1.866100 0.000000 0.000000 
#    y 0.000000 1.890490 0.000000 
#    z 0.000000 0.000000 1.906110 
# 
# From -- ./inp_files/33832.got.cif
#   From: 2010.03.12/outbox.cif.g09.slc.cpg/sg66_17_cif.got.tgz:33832.got - 2010.04.10 21:57:39.
