data_PCOD8276930
_publ_section_title
;
Structure prediction by ZEFSAII (Michael W. Deem and Ramdas Pophale) SiO2 
 PCOD8276930
Probable space group: C C C M
;
_chemical_formula_sum "Si O2"
_cell_formula_units_Z 96
_cell_length_a 16.487572
_cell_length_b 14.143106
_cell_length_c 21.175713
_cell_angle_alpha 90.000000
_cell_angle_beta 90.000000
_cell_angle_gamma 90.000000
_cell_volume 4937.868768
_symmetry_space_group_name_H-M "C C C M"
_symmetry_group_IT_number 66
_symmetry_cell_setting 'orthorhombic'
loop_
_space_group_symop_operation_xyz
x,y,z
-x,-y,z
x,-y,1/2-z
-x,y,1/2-z
-x,-y,-z
x,y,-z
-x,y,1/2+z
x,-y,1/2+z
1/2+x,1/2+y,z
1/2-x,1/2-y,z
1/2+x,1/2-y,1/2-z
1/2-x,1/2+y,1/2-z
1/2-x,1/2-y,-z
1/2+x,1/2+y,-z
1/2-x,1/2+y,1/2+z
1/2+x,1/2-y,1/2+z
loop_
_atom_site_type_symbol
_atom_site_label
_atom_site_fract_x
_atom_site_fract_y
_atom_site_fract_z
Si Si1 0.396935 0.808876 0.880970
Si Si2 0.913070 0.680665 0.879235
Si Si3 0.815853 0.011682 0.500000
Si Si4 0.159956 0.708170 0.251568
Si Si5 0.300198 0.999121 0.615926
Si Si6 0.794063 0.500000 0.750000
Si Si7 0.399309 0.687881 0.000000
Si Si8 0.589646 0.298398 0.500000
O O1 0.491133 0.836060 0.884465
O O2 0.378670 0.755318 0.814270
O O3 0.343377 0.901120 0.892384
O O4 0.368642 0.739211 0.936677
O O5 0.890981 0.736526 0.814065
O O6 0.869715 0.579837 0.882632
O O7 0.881019 0.742793 0.937764
O O8 0.761323 0.020393 0.561151
O O9 0.876250 0.097623 0.500000
O O10 0.866860 0.917206 0.500000
O O11 0.250000 0.750000 0.258891
O O12 0.152060 0.594529 0.246301
O O13 0.247607 0.995736 0.682400
O O14 0.494829 0.687587 0.000000
#
# Coordination Sequence:
#
# PCOD8276930 Si02
#       8
#    16  16   8  16  16   8   8   8
#     4  10  21  39  60  87 121 155 190 234 296 353
#     4  10  21  39  60  87 121 155 190 234 296 353
#     4  12  25  38  59  82 118 154 202 240 295 332
#     4  10  21  35  60  89 120 151 192 240 283 343
#     4  10  21  35  60  91 114 151 185 242 286 351
#     4   8  20  36  49  84 121 144 180 224 294 326
#     4  10  24  41  59  81 116 157 199 242 287 348
#     4  10  24  41  59  81 116 157 199 242 287 348
#
# _framework density 19.441586000000001
#
# number of rings (size 3 to 8) (size 9 to 14) (size 15 to 20)
#    0.000    2.000    0.000    2.250    9.333    1.333 
#    0.000    8.333    0.000    0.000    0.000    7.000 
#    0.000    0.000    0.000    0.000    0.000    0.000 
#
# Total GULP energy -594802.881249 kJ/mol
# GULP energy per Si atom -12391.726693 kJ/mol
# Density = 1.939734 g / cm^3
# Si number density = 19.441586 Si / 1000 Ang^3
#
#
#
# Elastic Constant Matrix: (Units=GPa)
#
#
# Indices 1 2 3 4 5 6 
#
# 1 26.3560 17.2775 16.5350 0.0000 0.0000 0.0000
# 2 17.2775 73.9829 32.9949 0.0000 0.0000 0.0000
# 3 16.5350 32.9949 186.1429 0.0000 0.0000 0.0000
# 4 0.0000 0.0000 0.0000 15.7700 0.0000 0.0000
# 5 0.0000 0.0000 0.0000 0.0000 73.3700 0.0000
# 6 0.0000 0.0000 0.0000 0.0000 0.0000 -56.7206
#
#
#
# Elastic Compliance Matrix: (Units=1/GPa)
#
#
# Indices 1 2 3 4 5 6 
#
# 1 0.045732 -0.009630 -0.002356 0.000000 0.000000 0.000000
# 2 -0.009630 0.016705 -0.002106 0.000000 0.000000 0.000000
# 3 -0.002356 -0.002106 0.005955 0.000000 0.000000 0.000000
# 4 0.000000 0.000000 0.000000 0.063411 0.000000 0.000000
# 5 0.000000 0.000000 0.000000 0.000000 0.013630 0.000000
# 6 0.000000 0.000000 0.000000 0.000000 0.000000 -0.017630
#
#
# Mechanical properties :
#
#
# Convention : Reuss Voigt Hill
#
# Bulk Modulus (GPa) = 24.86925 46.67741 35.77333
# Shear Modulus (GPa) = 29.51821 21.12884 25.32352
#
# Velocity S-wave (km/s) = 3.90077 3.30022 3.61299
# Velocity P-wave (km/s) = 5.75391 6.21153 5.98710
#
# Compressibility (1/GPa) = 0.04021031
#
# Stress axis : x y z
#
# Youngs Moduli (GPa) = 21.86633 59.86411 167.93510
#
# Poissons Ratio (x) = 0.57647 0.39557
# Poissons Ratio (y) = 0.21056 0.35360
# Poissons Ratio (z) = 0.05151 0.12605
#
# Static dielectric constant tensor:
#      x y z
#    x 3.260840 0.000000 0.000000 
#    y 0.000000 3.532530 0.000000 
#    z 0.000000 0.000000 4.391900 
# 
# 
# High freq. dielectric constant tensor:
#      x y z
#    x 1.731010 0.000000 0.000000 
#    y 0.000000 1.750850 0.000000 
#    z 0.000000 0.000000 1.794460 
# 
# From -- ./inp_files/49943.got.cif
#   From: 2010.03.12/outbox.cif.g09.slc.cpg/sg66_25_cif.got.tgz:49943.got - 2010.04.10 21:57:39.
