data_PCOD8276489
_publ_section_title
;
Structure prediction by ZEFSAII (Michael W. Deem and Ramdas Pophale) SiO2 
 PCOD8276489
Probable space group: C C C M
;
_chemical_formula_sum "Si O2"
_cell_formula_units_Z 100
_cell_length_a 17.618514
_cell_length_b 31.400333
_cell_length_c 9.935494
_cell_angle_alpha 90.000000
_cell_angle_beta 90.000000
_cell_angle_gamma 90.000000
_cell_volume 5496.585591
_symmetry_space_group_name_H-M "C C C M"
_symmetry_group_IT_number 66
_symmetry_cell_setting 'orthorhombic'
loop_
_space_group_symop_operation_xyz
x,y,z
-x,-y,z
x,-y,1/2-z
-x,y,1/2-z
-x,-y,-z
x,y,-z
-x,y,1/2+z
x,-y,1/2+z
1/2+x,1/2+y,z
1/2-x,1/2-y,z
1/2+x,1/2-y,1/2-z
1/2-x,1/2+y,1/2-z
1/2-x,1/2-y,-z
1/2+x,1/2+y,-z
1/2-x,1/2+y,1/2+z
1/2+x,1/2-y,1/2+z
loop_
_atom_site_type_symbol
_atom_site_label
_atom_site_fract_x
_atom_site_fract_y
_atom_site_fract_z
Si Si1 0.568590 0.404269 0.844978
Si Si2 0.712727 0.538580 0.657966
Si Si3 0.377536 0.934230 0.153540
Si Si4 0.441182 0.692223 0.146537
Si Si5 0.324611 0.233745 0.349683
Si Si6 0.500000 0.000000 0.750000
Si Si7 0.927850 0.342169 0.837629
O O1 0.500000 0.421712 0.750000
O O2 0.649558 0.425707 0.815658
O O3 0.584624 0.355004 0.810646
O O4 0.544187 0.411861 0.000000
O O5 0.685182 0.500000 0.750000
O O6 0.716824 0.525877 0.500000
O O7 0.796183 0.552163 0.715176
O O8 0.443854 0.969757 0.164866
O O9 0.403354 0.889033 0.214546
O O10 0.360908 0.925293 0.000000
O O11 0.500000 0.711882 0.250000
O O12 0.372424 0.723776 0.145781
O O13 0.480126 0.690209 0.000000
O O14 0.301140 0.219449 0.500000
O O15 0.250000 0.250000 0.268677
O O16 0.365337 0.192261 0.288280
O O17 0.000000 0.329155 0.750000
O O18 0.943515 0.339793 0.000000
#
# Coordination Sequence:
#
# PCOD8276489 Si02
#       7
#    16  16  16  16  16   4  16
#     4   9  19  34  55  78 105 136 174 215 260 311
#     4  10  21  37  54  77 105 139 174 216 265 314
#     4  10  21  34  53  78 107 140 176 220 266 315
#     4   9  17  31  51  75  99 132 168 207 249 297
#     4   9  18  30  50  79 105 132 170 213 256 303
#     4  12  18  36  56  78 106 140 182 220 266 316
#     4  10  20  35  54  78 106 138 175 217 262 311
#
# _framework density 18.193113
#
# number of rings (size 3 to 8) (size 9 to 14) (size 15 to 20)
#    0.000    2.400    1.600    0.720    2.240    0.960 
#    0.000    2.400    0.000    1.920    0.000    0.000 
#    0.000    0.000    0.000    0.000    0.000    0.000 
#
# Total GULP energy -619441.288525 kJ/mol
# GULP energy per Si atom -12388.825770 kJ/mol
# Density = 1.815170 g / cm^3
# Si number density = 18.193113 Si / 1000 Ang^3
#
#
#
# Elastic Constant Matrix: (Units=GPa)
#
#
# Indices 1 2 3 4 5 6 
#
# 1 119.6323 60.2882 34.1766 0.0000 0.0000 0.0000
# 2 60.2882 109.7135 28.6864 0.0000 0.0000 0.0000
# 3 34.1766 28.6864 46.4100 0.0000 0.0000 0.0000
# 4 0.0000 0.0000 0.0000 26.3507 0.0000 0.0000
# 5 0.0000 0.0000 0.0000 0.0000 24.9037 0.0000
# 6 0.0000 0.0000 0.0000 0.0000 0.0000 29.7809
#
#
#
# Elastic Compliance Matrix: (Units=1/GPa)
#
#
# Indices 1 2 3 4 5 6 
#
# 1 0.012855 -0.005473 -0.006083 0.000000 0.000000 0.000000
# 2 -0.005473 0.013202 -0.004130 0.000000 0.000000 0.000000
# 3 -0.006083 -0.004130 0.028580 0.000000 0.000000 0.000000
# 4 0.000000 0.000000 0.000000 0.037950 0.000000 0.000000
# 5 0.000000 0.000000 0.000000 0.000000 0.040155 0.000000
# 6 0.000000 0.000000 0.000000 0.000000 0.000000 0.033579
#
#
# Mechanical properties :
#
#
# Convention : Reuss Voigt Hill
#
# Bulk Modulus (GPa) = 42.98535 58.00649 50.49592
# Shear Modulus (GPa) = 24.33712 26.38069 25.35891
#
# Velocity S-wave (km/s) = 3.66144 3.81207 3.73751
# Velocity P-wave (km/s) = 6.44619 7.16441 6.81477
#
# Compressibility (1/GPa) = 0.02326374
#
# Stress axis : x y z
#
# Youngs Moduli (GPa) = 77.78978 75.74570 34.98998
#
# Poissons Ratio (x) = 0.41458 0.21286
# Poissons Ratio (y) = 0.42577 0.14450
# Poissons Ratio (z) = 0.47323 0.31281
#
# Static dielectric constant tensor:
#      x y z
#    x 3.501320 0.000000 0.000000 
#    y 0.000000 3.482890 0.000000 
#    z 0.000000 0.000000 3.324730 
# 
# 
# High freq. dielectric constant tensor:
#      x y z
#    x 1.709850 0.000000 0.000000 
#    y 0.000000 1.717350 0.000000 
#    z 0.000000 0.000000 1.672560 
# 
# From -- ./inp_files/16766.got.cif
#   From: 2010.03.12/outbox.cif.g09.slc.cpg/sg66_9_cif.got.tgz:16766.got - 2010.04.10 21:57:39.
