data_PCOD8276509
_publ_section_title
;
Structure prediction by ZEFSAII (Michael W. Deem and Ramdas Pophale) SiO2 
 PCOD8276509
Probable space group: C C C M
;
_chemical_formula_sum "Si O2"
_cell_formula_units_Z 96
_cell_length_a 20.359056
_cell_length_b 25.376067
_cell_length_c 8.877809
_cell_angle_alpha 90.000000
_cell_angle_beta 90.000000
_cell_angle_gamma 90.000000
_cell_volume 4586.567047
_symmetry_space_group_name_H-M "C C C M"
_symmetry_group_IT_number 66
_symmetry_cell_setting 'orthorhombic'
loop_
_space_group_symop_operation_xyz
x,y,z
-x,-y,z
x,-y,1/2-z
-x,y,1/2-z
-x,-y,-z
x,y,-z
-x,y,1/2+z
x,-y,1/2+z
1/2+x,1/2+y,z
1/2-x,1/2-y,z
1/2+x,1/2-y,1/2-z
1/2-x,1/2+y,1/2-z
1/2-x,1/2-y,-z
1/2+x,1/2+y,-z
1/2-x,1/2+y,1/2+z
1/2+x,1/2-y,1/2+z
loop_
_atom_site_type_symbol
_atom_site_label
_atom_site_fract_x
_atom_site_fract_y
_atom_site_fract_z
Si Si1 0.795343 0.611274 0.824122
Si Si2 0.679806 0.445123 0.178462
Si Si3 0.934460 0.345900 0.323152
Si Si4 0.280630 0.695093 0.161715
Si Si5 0.563696 0.615471 0.830504
Si Si6 0.597369 0.728775 0.832931
O O1 0.755261 0.567344 0.729697
O O2 0.871195 0.619380 0.771174
O O3 0.760080 0.666697 0.792618
O O4 0.791210 0.597293 0.000000
O O5 0.657128 0.500000 0.250000
O O6 0.630776 0.399524 0.239979
O O7 0.675710 0.449400 0.000000
O O8 0.941838 0.349970 0.500000
O O9 0.931190 0.284252 0.272519
O O10 0.000000 0.370671 0.250000
O O11 0.250000 0.750000 0.126311
O O12 0.353023 0.706416 0.212959
O O13 0.281492 0.663176 0.000000
O O14 0.500000 0.589629 0.750000
O O15 0.548681 0.678611 0.841214
O O16 0.570466 0.592659 0.000000
O O17 0.627582 0.739446 0.000000
#
# Coordination Sequence:
#
# PCOD8276509 Si02
#       6
#    16  16  16  16  16  16
#     4  11  22  39  62  87 119 159 200 247 305 364
#     4  12  26  45  68  93 118 149 196 252 310 367
#     4  10  22  37  57  87 124 167 206 244 293 352
#     4  11  21  31  51  85 118 156 203 249 292 345
#     4  11  23  39  61  89 125 167 208 250 297 350
#     4  10  20  35  55  82 121 168 207 243 287 342
#
# _framework density 20.930688
#
# number of rings (size 3 to 8) (size 9 to 14) (size 15 to 20)
#    0.000    1.167    3.333    3.500    0.000    3.667 
#    0.000    1.667    0.000    0.500    0.000    3.500 
#    0.000    0.000    0.000    0.000    0.000    0.000 
#
# Total GULP energy -594670.343613 kJ/mol
# GULP energy per Si atom -12388.965492 kJ/mol
# Density = 2.088305 g / cm^3
# Si number density = 20.930688 Si / 1000 Ang^3
#
#
#
# Elastic Constant Matrix: (Units=GPa)
#
#
# Indices 1 2 3 4 5 6 
#
# 1 133.6643 10.2440 48.9841 0.0000 0.0000 0.0000
# 2 10.2440 50.6944 22.2683 0.0000 0.0000 0.0000
# 3 48.9841 22.2683 113.5923 0.0000 0.0000 0.0000
# 4 0.0000 0.0000 0.0000 23.8284 0.0000 0.0000
# 5 0.0000 0.0000 0.0000 0.0000 35.4526 0.0000
# 6 0.0000 0.0000 0.0000 0.0000 0.0000 14.7430
#
#
#
# Elastic Compliance Matrix: (Units=1/GPa)
#
#
# Indices 1 2 3 4 5 6 
#
# 1 0.008886 -0.000123 -0.003808 0.000000 0.000000 0.000000
# 2 -0.000123 0.021586 -0.004179 0.000000 0.000000 0.000000
# 3 -0.003808 -0.004179 0.011265 0.000000 0.000000 0.000000
# 4 0.000000 0.000000 0.000000 0.041967 0.000000 0.000000
# 5 0.000000 0.000000 0.000000 0.000000 0.028207 0.000000
# 6 0.000000 0.000000 0.000000 0.000000 0.000000 0.067829
#
#
# Mechanical properties :
#
#
# Convention : Reuss Voigt Hill
#
# Bulk Modulus (GPa) = 39.18769 51.21598 45.20184
# Shear Modulus (GPa) = 24.45405 29.23510 26.84457
#
# Velocity S-wave (km/s) = 3.42180 3.74138 3.58515
# Velocity P-wave (km/s) = 5.86301 6.57163 6.22741
#
# Compressibility (1/GPa) = 0.02551822
#
# Stress axis : x y z
#
# Youngs Moduli (GPa) = 112.53215 46.32532 88.77312
#
# Poissons Ratio (x) = 0.00570 0.33804
# Poissons Ratio (y) = 0.01384 0.37096
# Poissons Ratio (z) = 0.42851 0.19358
#
# Static dielectric constant tensor:
#      x y z
#    x 3.757190 0.000000 0.000000 
#    y 0.000000 3.596490 0.000000 
#    z 0.000000 0.000000 3.902880 
# 
# 
# High freq. dielectric constant tensor:
#      x y z
#    x 1.812340 0.000000 0.000000 
#    y 0.000000 1.790910 0.000000 
#    z 0.000000 0.000000 1.830630 
# 
# From -- ./inp_files/8014.got.cif
#   From: 2010.03.12/outbox.cif.g09.slc.cpg/sg66_5_cif.got.tgz:8014.got - 2010.04.10 21:57:39.
