data_PCOD8276724
_publ_section_title
;
Structure prediction by ZEFSAII (Michael W. Deem and Ramdas Pophale) SiO2 
 PCOD8276724
Probable space group: C C C M
;
_chemical_formula_sum "Si O2"
_cell_formula_units_Z 80
_cell_length_a 18.166133
_cell_length_b 25.438481
_cell_length_c 8.881280
_cell_angle_alpha 90.000000
_cell_angle_beta 90.000000
_cell_angle_gamma 90.000000
_cell_volume 4104.206715
_symmetry_space_group_name_H-M "C C C M"
_symmetry_group_IT_number 66
_symmetry_cell_setting 'orthorhombic'
loop_
_space_group_symop_operation_xyz
x,y,z
-x,-y,z
x,-y,1/2-z
-x,y,1/2-z
-x,-y,-z
x,y,-z
-x,y,1/2+z
x,-y,1/2+z
1/2+x,1/2+y,z
1/2-x,1/2-y,z
1/2+x,1/2-y,1/2-z
1/2-x,1/2+y,1/2-z
1/2-x,1/2-y,-z
1/2+x,1/2+y,-z
1/2-x,1/2+y,1/2+z
1/2+x,1/2-y,1/2+z
loop_
_atom_site_type_symbol
_atom_site_label
_atom_site_fract_x
_atom_site_fract_y
_atom_site_fract_z
Si Si1 0.423799 0.850473 0.325449
Si Si2 0.672294 0.446068 0.177096
Si Si3 0.840473 0.445618 0.177993
Si Si4 0.334035 0.745991 0.326946
Si Si5 0.079617 0.846658 0.822185
O O1 0.500000 0.833710 0.250000
O O2 0.436024 0.863608 0.500000
O O3 0.392187 0.900892 0.242443
O O4 0.368082 0.802940 0.301975
O O5 0.643365 0.500000 0.250000
O O6 0.756180 0.434225 0.225852
O O7 0.622068 0.398431 0.236366
O O8 0.666027 0.452637 0.000000
O O9 0.867374 0.500000 0.250000
O O10 0.849629 0.448582 0.000000
O O11 0.340604 0.727595 0.500000
O O12 0.250000 0.750000 0.274448
O O13 0.374822 0.704472 0.222608
O O14 0.000000 0.844794 0.750000
O O15 0.070837 0.847348 0.000000
#
# Coordination Sequence:
#
# PCOD8276724 Si02
#       5
#    16  16  16  16  16
#     4  11  23  38  57  83 115 149 186 229 278 332
#     4   9  20  37  58  84 113 148 189 233 280 333
#     4  10  20  37  60  85 113 146 187 232 280 333
#     4  10  22  40  62  87 114 147 188 233 283 339
#     4  11  23  38  57  84 117 152 191 234 283 336
#
# _framework density 19.492194999999999
#
# number of rings (size 3 to 8) (size 9 to 14) (size 15 to 20)
#    0.000    1.800    0.000    3.600    0.000    6.800 
#    0.000    4.000    0.000    0.000    0.000    0.000 
#    0.000    0.000    0.000    0.000    0.000    0.000 
#
# Total GULP energy -496227.790803 kJ/mol
# GULP energy per Si atom -12405.694770 kJ/mol
# Density = 1.944783 g / cm^3
# Si number density = 19.492195 Si / 1000 Ang^3
#
#
#
# Elastic Constant Matrix: (Units=GPa)
#
#
# Indices 1 2 3 4 5 6 
#
# 1 120.2347 47.8433 42.4044 0.0000 0.0000 0.0000
# 2 47.8433 103.1939 45.2277 0.0000 0.0000 0.0000
# 3 42.4044 45.2277 78.5205 0.0000 0.0000 0.0000
# 4 0.0000 0.0000 0.0000 34.6548 0.0000 0.0000
# 5 0.0000 0.0000 0.0000 0.0000 20.0950 0.0000
# 6 0.0000 0.0000 0.0000 0.0000 0.0000 -5.3930
#
#
#
# Elastic Compliance Matrix: (Units=1/GPa)
#
#
# Indices 1 2 3 4 5 6 
#
# 1 0.011083 -0.003365 -0.004047 0.000000 0.000000 0.000000
# 2 -0.003365 0.013984 -0.006238 0.000000 0.000000 0.000000
# 3 -0.004047 -0.006238 0.018514 0.000000 0.000000 0.000000
# 4 0.000000 0.000000 0.000000 0.028856 0.000000 0.000000
# 5 0.000000 0.000000 0.000000 0.000000 0.049764 0.000000
# 6 0.000000 0.000000 0.000000 0.000000 0.000000 -0.185427
#
#
# Mechanical properties :
#
#
# Convention : Reuss Voigt Hill
#
# Bulk Modulus (GPa) = 61.41731 63.65555 62.53643
# Shear Modulus (GPa) = -163.94731 20.96963 -71.48884
#
# Velocity S-wave (km/s) = -9.18106 3.28349 -6.06261
# Velocity P-wave (km/s) = 8.98955 6.86316 4.10543
#
# Compressibility (1/GPa) = 0.01628206
#
# Stress axis : x y z
#
# Youngs Moduli (GPa) = 90.22533 71.50839 54.01211
#
# Poissons Ratio (x) = 0.24060 0.21861
# Poissons Ratio (y) = 0.30357 0.33692
# Poissons Ratio (z) = 0.36518 0.44607
#
# Static dielectric constant tensor:
#      x y z
#    x 3.712790 0.000000 0.000000 
#    y 0.000000 3.659740 0.000000 
#    z 0.000000 0.000000 3.695270 
# 
# 
# High freq. dielectric constant tensor:
#      x y z
#    x 1.766630 0.000000 0.000000 
#    y 0.000000 1.771670 0.000000 
#    z 0.000000 0.000000 1.764010 
# 
# From -- ./inp_files/6708.got.cif
#   From: 2010.03.12/outbox.cif.g09.slc.cpg/sg66_4_cif.got.tgz:6708.got - 2010.04.10 21:57:39.
