data_PCOD8276028
_publ_section_title
;
Structure prediction by ZEFSAII (Michael W. Deem and Ramdas Pophale) SiO2 
 PCOD8276028
Probable space group: C C C M
;
_chemical_formula_sum "Si O2"
_cell_formula_units_Z 104
_cell_length_a 25.896542
_cell_length_b 23.198827
_cell_length_c 8.845060
_cell_angle_alpha 90.000000
_cell_angle_beta 90.000000
_cell_angle_gamma 90.000000
_cell_volume 5313.841369
_symmetry_space_group_name_H-M "C C C M"
_symmetry_group_IT_number 66
_symmetry_cell_setting 'orthorhombic'
loop_
_space_group_symop_operation_xyz
x,y,z
-x,-y,z
x,-y,1/2-z
-x,y,1/2-z
-x,-y,-z
x,y,-z
-x,y,1/2+z
x,-y,1/2+z
1/2+x,1/2+y,z
1/2-x,1/2-y,z
1/2+x,1/2-y,1/2-z
1/2-x,1/2+y,1/2-z
1/2-x,1/2-y,-z
1/2+x,1/2+y,-z
1/2-x,1/2+y,1/2+z
1/2+x,1/2-y,1/2+z
loop_
_atom_site_type_symbol
_atom_site_label
_atom_site_fract_x
_atom_site_fract_y
_atom_site_fract_z
Si Si1 0.426524 0.946138 0.664452
Si Si2 0.556604 0.343926 0.817675
Si Si3 0.761848 0.938913 0.678919
Si Si4 0.500000 0.148418 0.250000
Si Si5 0.907040 0.723240 0.667256
Si Si6 0.158348 0.378335 0.322882
Si Si7 0.868918 0.937430 0.181406
O O1 0.409666 0.967181 0.500000
O O2 0.466309 0.893312 0.643694
O O3 0.374603 0.929430 0.751825
O O4 0.452680 0.000000 0.750000
O O5 0.500000 0.347842 0.750000
O O6 0.583329 0.284954 0.753731
O O7 0.587895 0.396603 0.749641
O O8 0.554535 0.346062 0.000000
O O9 0.771582 0.947071 0.500000
O O10 0.718364 0.890411 0.710883
O O11 0.813096 0.915649 0.761070
O O12 0.744902 0.000000 0.750000
O O13 0.460985 0.188334 0.343762
O O14 0.888135 0.737943 0.500000
O O15 0.861915 0.683661 0.744581
O O16 0.146467 0.378365 0.500000
O O17 0.879794 0.000000 0.250000
O O18 0.871012 0.938654 0.000000
#
# Coordination Sequence:
#
# PCOD8276028 Si02
#       7
#    16  16  16   8  16  16  16
#     4  11  22  32  47  71 104 144 190 242 294 343
#     4  11  22  39  63  90 120 153 190 231 281 339
#     4  10  19  34  58  85 115 152 193 237 289 343
#     4  10  19  34  50  72 101 142 190 236 290 336
#     4   9  18  34  55  79 110 148 191 235 279 333
#     4   9  19  35  55  80 112 150 194 239 283 334
#     4  11  23  41  64  91 120 149 184 228 283 343
#
# _framework density 19.571528000000001
#
# number of rings (size 3 to 8) (size 9 to 14) (size 15 to 20)
#    0.000    1.846    0.769    4.846    0.000    5.231 
#    0.000    3.077    0.000    4.615    0.000    0.000 
#    0.000    0.000    0.000    0.000    0.000    0.000 
#
# Total GULP energy -644394.457572 kJ/mol
# GULP energy per Si atom -12392.201107 kJ/mol
# Density = 1.952698 g / cm^3
# Si number density = 19.571528 Si / 1000 Ang^3
#
#
#
# Elastic Constant Matrix: (Units=GPa)
#
#
# Indices 1 2 3 4 5 6 
#
# 1 115.0090 74.7861 48.0652 0.0000 0.0000 0.0000
# 2 74.7861 117.8562 46.6314 0.0000 0.0000 0.0000
# 3 48.0652 46.6314 108.8346 0.0000 0.0000 0.0000
# 4 0.0000 0.0000 0.0000 17.7728 0.0000 0.0000
# 5 0.0000 0.0000 0.0000 0.0000 26.3340 0.0000
# 6 0.0000 0.0000 0.0000 0.0000 0.0000 118.3029
#
#
#
# Elastic Compliance Matrix: (Units=1/GPa)
#
#
# Indices 1 2 3 4 5 6 
#
# 1 0.015680 -0.008681 -0.003205 0.000000 0.000000 0.000000
# 2 -0.008681 0.015024 -0.002603 0.000000 0.000000 0.000000
# 3 -0.003205 -0.002603 0.011719 0.000000 0.000000 0.000000
# 4 0.000000 0.000000 0.000000 0.056266 0.000000 0.000000
# 5 0.000000 0.000000 0.000000 0.000000 0.037974 0.000000
# 6 0.000000 0.000000 0.000000 0.000000 0.000000 0.008453
#
#
# Mechanical properties :
#
#
# Convention : Reuss Voigt Hill
#
# Bulk Modulus (GPa) = 74.38636 75.62945 75.00790
# Shear Modulus (GPa) = 27.99947 43.96308 35.98127
#
# Velocity S-wave (km/s) = 3.78646 4.74463 4.29237
# Velocity P-wave (km/s) = 7.56349 8.29107 7.93562
#
# Compressibility (1/GPa) = 0.01344333
#
# Stress axis : x y z
#
# Youngs Moduli (GPa) = 63.77677 66.56151 85.33147
#
# Poissons Ratio (x) = 0.57785 0.27349
# Poissons Ratio (y) = 0.55368 0.22212
# Poissons Ratio (z) = 0.20441 0.17326
#
# Static dielectric constant tensor:
#      x y z
#    x 3.554500 0.000000 0.000000 
#    y 0.000000 3.697010 0.000000 
#    z 0.000000 0.000000 3.426080 
# 
# 
# High freq. dielectric constant tensor:
#      x y z
#    x 1.756500 0.000000 0.000000 
#    y 0.000000 1.759430 0.000000 
#    z 0.000000 0.000000 1.755720 
# 
# From -- ./inp_files/10535.got.cif
#   From: 2010.03.12/outbox.cif.g09.slc.cpg/sg66_6_cif.got.tgz:10535.got - 2010.04.10 21:57:39.
