data_PCOD8276034
_publ_section_title
;
Structure prediction by ZEFSAII (Michael W. Deem and Ramdas Pophale) SiO2 
 PCOD8276034
Probable space group: C C C M
;
_chemical_formula_sum "Si O2"
_cell_formula_units_Z 96
_cell_length_a 18.231990
_cell_length_b 28.654453
_cell_length_c 9.053797
_cell_angle_alpha 90.000000
_cell_angle_beta 90.000000
_cell_angle_gamma 90.000000
_cell_volume 4729.954348
_symmetry_space_group_name_H-M "C C C M"
_symmetry_group_IT_number 66
_symmetry_cell_setting 'orthorhombic'
loop_
_space_group_symop_operation_xyz
x,y,z
-x,-y,z
x,-y,1/2-z
-x,y,1/2-z
-x,-y,-z
x,y,-z
-x,y,1/2+z
x,-y,1/2+z
1/2+x,1/2+y,z
1/2-x,1/2-y,z
1/2+x,1/2-y,1/2-z
1/2-x,1/2+y,1/2-z
1/2-x,1/2-y,-z
1/2+x,1/2+y,-z
1/2-x,1/2+y,1/2+z
1/2+x,1/2-y,1/2+z
loop_
_atom_site_type_symbol
_atom_site_label
_atom_site_fract_x
_atom_site_fract_y
_atom_site_fract_z
Si Si1 0.808915 0.302854 0.836674
Si Si2 0.116616 0.545179 0.672040
Si Si3 0.577706 0.277824 0.176405
Si Si4 0.325047 0.651323 0.675828
Si Si5 0.214591 0.047094 0.827274
Si Si6 0.561299 0.130177 0.162383
O O1 0.857712 0.259069 0.781045
O O2 0.745126 0.317500 0.724618
O O3 0.861282 0.346345 0.850971
O O4 0.775000 0.292492 0.000000
O O5 0.084584 0.500000 0.750000
O O6 0.107430 0.539655 0.500000
O O7 0.201014 0.552801 0.717601
O O8 0.067447 0.586431 0.730742
O O9 0.500000 0.263914 0.250000
O O10 0.603350 0.327585 0.243270
O O11 0.567228 0.279869 0.000000
O O12 0.331634 0.655909 0.500000
O O13 0.321924 0.596458 0.722606
O O14 0.181569 0.000000 0.750000
O O15 0.203393 0.039426 0.000000
O O16 0.500000 0.161442 0.250000
O O17 0.532842 0.116734 0.000000
#
# Coordination Sequence:
#
# PCOD8276034 Si02
#       6
#    16  16  16  16  16  16
#     4  10  22  39  59  85 117 154 199 244 289 343
#     4  10  19  34  52  74 104 142 187 238 290 347
#     4  11  24  42  62  88 121 159 199 244 297 352
#     4  11  22  38  62  93 123 156 197 242 292 349
#     4   9  19  34  56  86 118 151 190 237 290 347
#     4  11  22  35  52  75 106 148 192 241 293 344
#
# _framework density 20.296178999999999
#
# number of rings (size 3 to 8) (size 9 to 14) (size 15 to 20)
#    0.000    1.667    1.667    3.000    0.000    6.333 
#    0.000    1.667    0.000    0.500    0.000    3.500 
#    0.000    0.000    0.000    0.000    0.000    0.000 
#
# Total GULP energy -594774.386667 kJ/mol
# GULP energy per Si atom -12391.133056 kJ/mol
# Density = 2.024998 g / cm^3
# Si number density = 20.296179 Si / 1000 Ang^3
#
#
#
# Elastic Constant Matrix: (Units=GPa)
#
#
# Indices 1 2 3 4 5 6 
#
# 1 33.5574 39.9285 28.0802 0.0000 0.0000 0.0000
# 2 39.9285 126.3382 49.9822 0.0000 0.0000 0.0000
# 3 28.0802 49.9822 98.3629 0.0000 0.0000 0.0000
# 4 0.0000 0.0000 0.0000 24.0201 0.0000 0.0000
# 5 0.0000 0.0000 0.0000 0.0000 31.7008 0.0000
# 6 0.0000 0.0000 0.0000 0.0000 0.0000 87.4206
#
#
#
# Elastic Compliance Matrix: (Units=1/GPa)
#
#
# Indices 1 2 3 4 5 6 
#
# 1 0.052581 -0.013367 -0.008219 0.000000 0.000000 0.000000
# 2 -0.013367 0.013305 -0.002945 0.000000 0.000000 0.000000
# 3 -0.008219 -0.002945 0.014009 0.000000 0.000000 0.000000
# 4 0.000000 0.000000 0.000000 0.041632 0.000000 0.000000
# 5 0.000000 0.000000 0.000000 0.000000 0.031545 0.000000
# 6 0.000000 0.000000 0.000000 0.000000 0.000000 0.011439
#
#
# Mechanical properties :
#
#
# Convention : Reuss Voigt Hill
#
# Bulk Modulus (GPa) = 32.43066 54.91558 43.67312
# Shear Modulus (GPa) = 22.33649 37.97946 30.15797
#
# Velocity S-wave (km/s) = 3.32102 4.33050 3.85891
# Velocity P-wave (km/s) = 5.54247 7.21943 6.43580
#
# Compressibility (1/GPa) = 0.03083501
#
# Stress axis : x y z
#
# Youngs Moduli (GPa) = 19.01822 75.16118 71.38250
#
# Poissons Ratio (x) = 1.00465 0.58666
# Poissons Ratio (y) = 0.25421 0.21021
# Poissons Ratio (z) = 0.15630 0.22134
#
# Static dielectric constant tensor:
#      x y z
#    x 3.654020 0.000000 0.000000 
#    y 0.000000 3.726610 0.000000 
#    z 0.000000 0.000000 3.626230 
# 
# 
# High freq. dielectric constant tensor:
#      x y z
#    x 1.774450 0.000000 0.000000 
#    y 0.000000 1.799640 0.000000 
#    z 0.000000 0.000000 1.798860 
# 
# From -- ./inp_files/7956.got.cif
#   From: 2010.03.12/outbox.cif.g09.slc.cpg/sg66_4_cif.got.tgz:7956.got - 2010.04.10 21:57:39.
