data_PCOD8276650
_publ_section_title
;
Structure prediction by ZEFSAII (Michael W. Deem and Ramdas Pophale) SiO2 
 PCOD8276650
Probable space group: C C C M
;
_chemical_formula_sum "Si O2"
_cell_formula_units_Z 104
_cell_length_a 27.157687
_cell_length_b 20.973374
_cell_length_c 9.259276
_cell_angle_alpha 90.000000
_cell_angle_beta 90.000000
_cell_angle_gamma 90.000000
_cell_volume 5273.975521
_symmetry_space_group_name_H-M "C C C M"
_symmetry_group_IT_number 66
_symmetry_cell_setting 'orthorhombic'
loop_
_space_group_symop_operation_xyz
x,y,z
-x,-y,z
x,-y,1/2-z
-x,y,1/2-z
-x,-y,-z
x,y,-z
-x,y,1/2+z
x,-y,1/2+z
1/2+x,1/2+y,z
1/2-x,1/2-y,z
1/2+x,1/2-y,1/2-z
1/2-x,1/2+y,1/2-z
1/2-x,1/2-y,-z
1/2+x,1/2+y,-z
1/2-x,1/2+y,1/2+z
1/2+x,1/2-y,1/2+z
loop_
_atom_site_type_symbol
_atom_site_label
_atom_site_fract_x
_atom_site_fract_y
_atom_site_fract_z
Si Si1 0.768303 0.318473 0.830476
Si Si2 0.595299 0.302373 0.330629
Si Si3 0.119428 0.319679 0.666338
Si Si4 0.045026 0.088906 0.662108
Si Si5 0.451338 0.064393 0.330525
Si Si6 0.628168 0.500000 0.750000
Si Si7 0.689003 0.383312 0.659746
O O1 0.750000 0.250000 0.771418
O O2 0.824439 0.329213 0.783315
O O3 0.735325 0.375662 0.765608
O O4 0.761261 0.322655 0.000000
O O5 0.582484 0.301955 0.500000
O O6 0.592185 0.231732 0.266100
O O7 0.556346 0.346137 0.247664
O O8 0.649580 0.329271 0.299522
O O9 0.117192 0.296552 0.500000
O O10 0.092721 0.386408 0.688976
O O11 0.028059 0.105002 0.500000
O O12 0.000000 0.056192 0.750000
O O13 0.092199 0.042162 0.649647
O O14 0.500000 0.090969 0.250000
O O15 0.462349 0.051985 0.500000
O O16 0.434712 0.000000 0.250000
O O17 0.663701 0.452860 0.662258
O O18 0.709453 0.372207 0.500000
#
# Coordination Sequence:
#
# PCOD8276650 Si02
#       7
#    16  16  16  16  16   8  16
#     4  10  20  36  60  86 116 154 194 234 287 349
#     4  10  21  36  57  85 117 151 194 244 294 349
#     4  10  21  38  60  88 119 154 194 238 291 352
#     4  11  23  39  60  84 117 157 200 251 302 351
#     4  10  21  39  63  87 116 149 188 232 286 353
#     4  10  23  40  60  84 114 158 205 248 296 354
#     4  10  21  37  57  84 115 151 199 247 292 343
#
# _framework density 19.719470000000001
#
# number of rings (size 3 to 8) (size 9 to 14) (size 15 to 20)
#    0.000    1.846    1.538    2.538    0.000    8.308 
#    1.385    1.538    0.000    0.000    0.000    0.000 
#    0.000    0.000    0.000    0.000    0.000    0.000 
#
# Total GULP energy -644771.545697 kJ/mol
# GULP energy per Si atom -12399.452802 kJ/mol
# Density = 1.967459 g / cm^3
# Si number density = 19.719470 Si / 1000 Ang^3
#
#
#
# Elastic Constant Matrix: (Units=GPa)
#
#
# Indices 1 2 3 4 5 6 
#
# 1 108.8897 60.8588 47.8484 0.0000 0.0000 0.0000
# 2 60.8588 98.5967 46.2619 0.0000 0.0000 0.0000
# 3 47.8484 46.2619 116.0861 0.0000 0.0000 0.0000
# 4 0.0000 0.0000 0.0000 18.5031 0.0000 0.0000
# 5 0.0000 0.0000 0.0000 0.0000 27.7774 0.0000
# 6 0.0000 0.0000 0.0000 0.0000 0.0000 30.6244
#
#
#
# Elastic Compliance Matrix: (Units=1/GPa)
#
#
# Indices 1 2 3 4 5 6 
#
# 1 0.014841 -0.007737 -0.003034 0.000000 0.000000 0.000000
# 2 -0.007737 0.016509 -0.003390 0.000000 0.000000 0.000000
# 3 -0.003034 -0.003390 0.011216 0.000000 0.000000 0.000000
# 4 0.000000 0.000000 0.000000 0.054045 0.000000 0.000000
# 5 0.000000 0.000000 0.000000 0.000000 0.036000 0.000000
# 6 0.000000 0.000000 0.000000 0.000000 0.000000 0.032654
#
#
# Mechanical properties :
#
#
# Convention : Reuss Voigt Hill
#
# Bulk Modulus (GPa) = 70.20625 70.39007 70.29816
# Shear Modulus (GPa) = 25.21001 26.62121 25.91561
#
# Velocity S-wave (km/s) = 3.57940 3.67822 3.62914
# Velocity P-wave (km/s) = 7.26378 7.33568 7.29982
#
# Compressibility (1/GPa) = 0.01424375
#
# Stress axis : x y z
#
# Youngs Moduli (GPa) = 67.38070 60.57461 89.16103
#
# Poissons Ratio (x) = 0.46867 0.27050
# Poissons Ratio (y) = 0.52133 0.30224
# Poissons Ratio (z) = 0.20442 0.20534
#
# Static dielectric constant tensor:
#      x y z
#    x 3.563170 0.000000 0.000000 
#    y 0.000000 3.462640 0.000000 
#    z 0.000000 0.000000 3.514540 
# 
# 
# High freq. dielectric constant tensor:
#      x y z
#    x 1.765360 0.000000 0.000000 
#    y 0.000000 1.761150 0.000000 
#    z 0.000000 0.000000 1.770960 
# 
# From -- ./inp_files/10363.got.cif
#   From: 2010.03.12/outbox.cif.g09.slc.cpg/sg66_6_cif.got.tgz:10363.got - 2010.04.10 21:57:39.
