data_PCOD8276259
_publ_section_title
;
Structure prediction by ZEFSAII (Michael W. Deem and Ramdas Pophale) SiO2 
 PCOD8276259
Probable space group: C C C M
;
_chemical_formula_sum "Si O2"
_cell_formula_units_Z 72
_cell_length_a 13.011867
_cell_length_b 15.908820
_cell_length_c 17.297642
_cell_angle_alpha 90.000000
_cell_angle_beta 90.000000
_cell_angle_gamma 90.000000
_cell_volume 3580.671570
_symmetry_space_group_name_H-M "C C C M"
_symmetry_group_IT_number 66
_symmetry_cell_setting 'orthorhombic'
loop_
_space_group_symop_operation_xyz
x,y,z
-x,-y,z
x,-y,1/2-z
-x,y,1/2-z
-x,-y,-z
x,y,-z
-x,y,1/2+z
x,-y,1/2+z
1/2+x,1/2+y,z
1/2-x,1/2-y,z
1/2+x,1/2-y,1/2-z
1/2-x,1/2+y,1/2-z
1/2-x,1/2-y,-z
1/2+x,1/2+y,-z
1/2-x,1/2+y,1/2+z
1/2+x,1/2-y,1/2+z
loop_
_atom_site_type_symbol
_atom_site_label
_atom_site_fract_x
_atom_site_fract_y
_atom_site_fract_z
Si Si1 0.440021 0.748335 0.412610
Si Si2 0.750000 0.750000 0.190272
Si Si3 0.338090 0.679410 0.088188
Si Si4 0.777335 0.411718 0.206089
Si Si5 0.453183 0.089335 0.583697
O O1 0.414602 0.720680 0.500000
O O2 0.346237 0.717594 0.360246
O O3 0.550589 0.712541 0.385991
O O4 0.450689 0.848673 0.403454
O O5 0.783023 0.668599 0.238292
O O6 0.250000 0.750000 0.101699
O O7 0.315161 0.600578 0.144447
O O8 0.339528 0.648443 0.000000
O O9 0.762509 0.500000 0.250000
O O10 0.881249 0.411094 0.157385
O O11 0.399038 0.115268 0.500000
O O12 0.500000 0.000000 0.572573
#
# Coordination Sequence:
#
# PCOD8276259 Si02
#       5
#    16   8  16  16  16
#     4  10  21  39  64  86 117 166 211 257 305 369
#     4  12  25  40  57  90 134 166 202 250 323 382
#     4  10  19  40  68  89 114 158 217 259 296 358
#     4  12  24  38  60  95 129 164 198 260 322 376
#     4  10  20  37  62  91 120 155 205 265 321 374
#
# _framework density 20.107959999999999
#
# number of rings (size 3 to 8) (size 9 to 14) (size 15 to 20)
#    0.000    1.333    3.333    2.333    0.000    5.778 
#    0.000    5.556    0.000    2.667    0.000    0.000 
#    0.000    0.000    0.000    0.000    0.000    0.000 
#
# Total GULP energy -446143.041559 kJ/mol
# GULP energy per Si atom -12392.862266 kJ/mol
# Density = 2.006219 g / cm^3
# Si number density = 20.107960 Si / 1000 Ang^3
#
#
#
# Elastic Constant Matrix: (Units=GPa)
#
#
# Indices 1 2 3 4 5 6 
#
# 1 121.4379 20.5958 66.8210 0.0000 0.0000 0.0000
# 2 20.5958 88.2350 57.9800 0.0000 0.0000 0.0000
# 3 66.8210 57.9800 134.0205 0.0000 0.0000 0.0000
# 4 0.0000 0.0000 0.0000 38.7521 0.0000 0.0000
# 5 0.0000 0.0000 0.0000 0.0000 53.6061 0.0000
# 6 0.0000 0.0000 0.0000 0.0000 0.0000 18.8518
#
#
#
# Elastic Compliance Matrix: (Units=1/GPa)
#
#
# Indices 1 2 3 4 5 6 
#
# 1 0.011491 0.001512 -0.006383 0.000000 0.000000 0.000000
# 2 0.001512 0.016034 -0.007691 0.000000 0.000000 0.000000
# 3 -0.006383 -0.007691 0.013971 0.000000 0.000000 0.000000
# 4 0.000000 0.000000 0.000000 0.025805 0.000000 0.000000
# 5 0.000000 0.000000 0.000000 0.000000 0.018655 0.000000
# 6 0.000000 0.000000 0.000000 0.000000 0.000000 0.053045
#
#
# Mechanical properties :
#
#
# Convention : Reuss Voigt Hill
#
# Bulk Modulus (GPa) = 61.07746 70.49857 65.78801
# Shear Modulus (GPa) = 29.48430 35.46178 32.47304
#
# Velocity S-wave (km/s) = 3.83338 4.20404 4.02298
# Velocity P-wave (km/s) = 7.07346 7.66169 7.37344
#
# Compressibility (1/GPa) = 0.01637265
#
# Stress axis : x y z
#
# Youngs Moduli (GPa) = 87.02769 62.36755 71.57484
#
# Poissons Ratio (x) = -0.09433 0.45689
# Poissons Ratio (y) = -0.13163 0.55046
# Poissons Ratio (z) = 0.55553 0.47965
#
# Static dielectric constant tensor:
#      x y z
#    x 4.859860 0.000000 0.000000 
#    y 0.000000 3.656450 0.000000 
#    z 0.000000 0.000000 4.100970 
# 
# 
# High freq. dielectric constant tensor:
#      x y z
#    x 1.773390 0.000000 0.000000 
#    y 0.000000 1.767320 0.000000 
#    z 0.000000 0.000000 1.807790 
# 
# From -- ./inp_files/27966.got.cif
#   From: 2010.03.12/outbox.cif.g09.slc.cpg/sg66_14_cif.got.tgz:27966.got - 2010.04.10 21:57:39.
