data_PCOD8276632
_publ_section_title
;
Structure prediction by ZEFSAII (Michael W. Deem and Ramdas Pophale) SiO2 
 PCOD8276632
Probable space group: C C C M
;
_chemical_formula_sum "Si O2"
_cell_formula_units_Z 88
_cell_length_a 13.439221
_cell_length_b 13.911862
_cell_length_c 25.448931
_cell_angle_alpha 90.000000
_cell_angle_beta 90.000000
_cell_angle_gamma 90.000000
_cell_volume 4758.048898
_symmetry_space_group_name_H-M "C C C M"
_symmetry_group_IT_number 66
_symmetry_cell_setting 'orthorhombic'
loop_
_space_group_symop_operation_xyz
x,y,z
-x,-y,z
x,-y,1/2-z
-x,y,1/2-z
-x,-y,-z
x,y,-z
-x,y,1/2+z
x,-y,1/2+z
1/2+x,1/2+y,z
1/2-x,1/2-y,z
1/2+x,1/2-y,1/2-z
1/2-x,1/2+y,1/2-z
1/2-x,1/2-y,-z
1/2+x,1/2+y,-z
1/2-x,1/2+y,1/2+z
1/2+x,1/2-y,1/2+z
loop_
_atom_site_type_symbol
_atom_site_label
_atom_site_fract_x
_atom_site_fract_y
_atom_site_fract_z
Si Si1 0.960931 0.178076 0.560501
Si Si2 0.111998 0.608155 0.265311
Si Si3 0.336121 0.821481 0.623695
Si Si4 0.289443 0.464814 0.060843
Si Si5 0.250000 0.250000 0.299014
Si Si6 0.180797 0.166649 0.399442
O O1 0.945911 0.208184 0.500000
O O2 0.926576 0.263963 0.597897
O O3 0.898315 0.081033 0.571981
O O4 0.075418 0.160076 0.572308
O O5 0.139902 0.500000 0.250000
O O6 0.122504 0.617753 0.327785
O O7 0.186520 0.679870 0.236820
O O8 0.000000 0.634721 0.250000
O O9 0.250000 0.750000 0.643775
O O10 0.294704 0.890745 0.578655
O O11 0.271119 0.562015 0.093320
O O12 0.274838 0.488013 0.000000
O O13 0.175095 0.188489 0.336705
O O14 0.250000 0.250000 0.425972
#
# Coordination Sequence:
#
# PCOD8276632 Si02
#       6
#    16  16  16  16   8  16
#     4  10  20  36  59  85 114 147 186 227 276 332
#     4  11  22  38  62  80 107 147 191 232 284 334
#     4  10  20  37  60  86 107 142 187 242 278 323
#     4  10  20  36  59  85 114 147 186 227 276 332
#     4  10  22  40  57  86 111 148 188 238 276 328
#     4  10  22  36  55  80 121 151 185 220 273 335
#
# _framework density 18.494976999999999
#
# number of rings (size 3 to 8) (size 9 to 14) (size 15 to 20)
#    0.545    1.273    0.909    3.818    0.000    5.091 
#    0.000    0.000    0.000    2.182    0.000    0.000 
#    0.000    0.000    0.000    0.000    0.000    0.000 
#
# Total GULP energy -545573.505326 kJ/mol
# GULP energy per Si atom -12399.397848 kJ/mol
# Density = 1.845288 g / cm^3
# Si number density = 18.494977 Si / 1000 Ang^3
#
#
#
# Elastic Constant Matrix: (Units=GPa)
#
#
# Indices 1 2 3 4 5 6 
#
# 1 68.9402 35.1253 19.8445 0.0000 0.0000 0.0000
# 2 35.1253 122.9364 41.8739 0.0000 0.0000 0.0000
# 3 19.8445 41.8739 94.1757 0.0000 0.0000 0.0000
# 4 0.0000 0.0000 0.0000 29.2990 0.0000 0.0000
# 5 0.0000 0.0000 0.0000 0.0000 22.6810 0.0000
# 6 0.0000 0.0000 0.0000 0.0000 0.0000 24.9780
#
#
#
# Elastic Compliance Matrix: (Units=1/GPa)
#
#
# Indices 1 2 3 4 5 6 
#
# 1 0.017204 -0.004338 -0.001696 0.000000 0.000000 0.000000
# 2 -0.004338 0.010680 -0.003835 0.000000 0.000000 0.000000
# 3 -0.001696 -0.003835 0.012681 0.000000 0.000000 0.000000
# 4 0.000000 0.000000 0.000000 0.034131 0.000000 0.000000
# 5 0.000000 0.000000 0.000000 0.000000 0.044090 0.000000
# 6 0.000000 0.000000 0.000000 0.000000 0.000000 0.040035
#
#
# Mechanical properties :
#
#
# Convention : Reuss Voigt Hill
#
# Bulk Modulus (GPa) = 48.01451 53.30442 50.65947
# Shear Modulus (GPa) = 26.95421 28.00551 27.47986
#
# Velocity S-wave (km/s) = 3.82171 3.89552 3.85879
# Velocity P-wave (km/s) = 6.74471 7.00836 6.87780
#
# Compressibility (1/GPa) = 0.02082704
#
# Stress axis : x y z
#
# Youngs Moduli (GPa) = 58.12711 93.63535 78.85863
#
# Poissons Ratio (x) = 0.40615 0.13378
# Poissons Ratio (y) = 0.25213 0.30239
# Poissons Ratio (z) = 0.09861 0.35905
#
# Static dielectric constant tensor:
#      x y z
#    x 3.290850 0.000000 0.000000 
#    y 0.000000 3.461930 0.000000 
#    z 0.000000 0.000000 3.341430 
# 
# 
# High freq. dielectric constant tensor:
#      x y z
#    x 1.710400 0.000000 0.000000 
#    y 0.000000 1.725170 0.000000 
#    z 0.000000 0.000000 1.721190 
# 
# From -- ./inp_files/64550.got.cif
#   From: 2010.03.12/outbox.cif.g09.slc.cpg/sg66_33_cif.got.tgz:64550.got - 2010.04.10 21:57:39.
