data_PCOD8276950
_publ_section_title
;
Structure prediction by ZEFSAII (Michael W. Deem and Ramdas Pophale) SiO2 
 PCOD8276950
Probable space group: C C C M
;
_chemical_formula_sum "Si O2"
_cell_formula_units_Z 64
_cell_length_a 4.816906
_cell_length_b 22.823962
_cell_length_c 26.257197
_cell_angle_alpha 90.000000
_cell_angle_beta 90.000000
_cell_angle_gamma 90.000000
_cell_volume 2886.739331
_symmetry_space_group_name_H-M "C C C M"
_symmetry_group_IT_number 66
_symmetry_cell_setting 'orthorhombic'
loop_
_space_group_symop_operation_xyz
x,y,z
-x,-y,z
x,-y,1/2-z
-x,y,1/2-z
-x,-y,-z
x,y,-z
-x,y,1/2+z
x,-y,1/2+z
1/2+x,1/2+y,z
1/2-x,1/2-y,z
1/2+x,1/2-y,1/2-z
1/2-x,1/2+y,1/2-z
1/2-x,1/2-y,-z
1/2+x,1/2+y,-z
1/2-x,1/2+y,1/2+z
1/2+x,1/2-y,1/2+z
loop_
_atom_site_type_symbol
_atom_site_label
_atom_site_fract_x
_atom_site_fract_y
_atom_site_fract_z
Si Si1 0.102098 0.630261 0.057901
Si Si2 0.943041 0.305497 0.845659
Si Si3 0.114564 0.935708 0.403563
Si Si4 0.050248 0.130846 0.192024
O O1 0.007156 0.685452 0.093666
O O2 0.415948 0.612239 0.070331
O O3 0.909407 0.573321 0.068726
O O4 0.078197 0.651591 0.000000
O O5 0.750000 0.250000 0.832158
O O6 0.761464 0.359684 0.827042
O O7 0.242482 0.311818 0.816312
O O8 0.161153 0.922536 0.343039
O O9 0.000000 0.000000 0.412910
O O10 0.000000 0.112499 0.250000
#
# Coordination Sequence:
#
# PCOD8276950 Si02
#       4
#    16  16  16  16
#     4  10  21  36  55  81 111 144 184 228 275 330
#     4  10  21  37  56  80 110 143 183 229 275 329
#     4  10  21  36  55  81 111 144 184 228 275 331
#     4  10  21  37  56  80 110 143 183 229 276 330
#
# _framework density 22.170344
#
# number of rings (size 3 to 8) (size 9 to 14) (size 15 to 20)
#    0.000    2.000    0.000    3.000    0.000    6.000 
#    0.000    0.000    0.000   18.000    0.000    0.000 
#    0.000    0.000    0.000    0.000    0.000    0.000 
#
# Total GULP energy -396432.620635 kJ/mol
# GULP energy per Si atom -12388.519395 kJ/mol
# Density = 2.211988 g / cm^3
# Si number density = 22.170344 Si / 1000 Ang^3
#
#
#
# Elastic Constant Matrix: (Units=GPa)
#
#
# Indices 1 2 3 4 5 6 
#
# 1 106.9175 -3.3892 21.5851 0.0000 0.0000 0.0000
# 2 -3.3892 16.5129 -13.8915 0.0000 0.0000 0.0000
# 3 21.5851 -13.8915 143.4146 0.0000 0.0000 0.0000
# 4 0.0000 0.0000 0.0000 10.2303 0.0000 0.0000
# 5 0.0000 0.0000 0.0000 0.0000 28.0800 0.0000
# 6 0.0000 0.0000 0.0000 0.0000 0.0000 30.1143
#
#
#
# Elastic Compliance Matrix: (Units=1/GPa)
#
#
# Indices 1 2 3 4 5 6 
#
# 1 0.009656 0.000827 -0.001373 0.000000 0.000000 0.000000
# 2 0.000827 0.066002 0.006269 0.000000 0.000000 0.000000
# 3 -0.001373 0.006269 0.007787 0.000000 0.000000 0.000000
# 4 0.000000 0.000000 0.000000 0.097749 0.000000 0.000000
# 5 0.000000 0.000000 0.000000 0.000000 0.035613 0.000000
# 6 0.000000 0.000000 0.000000 0.000000 0.000000 0.033207
#
#
# Mechanical properties :
#
#
# Convention : Reuss Voigt Hill
#
# Bulk Modulus (GPa) = 10.53859 30.60596 20.57227
# Shear Modulus (GPa) = 18.50486 31.18763 24.84625
#
# Velocity S-wave (km/s) = 2.89219 3.75471 3.35131
# Velocity P-wave (km/s) = 3.98959 5.71244 4.92691
#
# Compressibility (1/GPa) = 0.09488938
#
# Stress axis : x y z
#
# Youngs Moduli (GPa) = 103.55763 15.15104 128.42430
#
# Poissons Ratio (x) = -0.01252 0.17637
# Poissons Ratio (y) = -0.08561 -0.80506
# Poissons Ratio (z) = 0.14222 -0.09498
#
# Static dielectric constant tensor:
#      x y z
#    x 4.297350 0.000000 0.000000 
#    y 0.000000 3.490060 0.000000 
#    z 0.000000 0.000000 4.132530 
# 
# 
# High freq. dielectric constant tensor:
#      x y z
#    x 1.899680 0.000000 0.000000 
#    y 0.000000 1.823160 0.000000 
#    z 0.000000 0.000000 1.869840 
# 
# From -- ./inp_files/52198.got.cif
#   From: 2010.03.12/outbox.cif.g09.slc.cpg/sg66_27_cif.got.tgz:52198.got - 2010.04.10 21:57:39.
