data_PCOD8276519
_publ_section_title
;
Structure prediction by ZEFSAII (Michael W. Deem and Ramdas Pophale) SiO2 
 PCOD8276519
Probable space group: C C C M
;
_chemical_formula_sum "Si O2"
_cell_formula_units_Z 80
_cell_length_a 17.323834
_cell_length_b 25.577121
_cell_length_c 8.855028
_cell_angle_alpha 90.000000
_cell_angle_beta 90.000000
_cell_angle_gamma 90.000000
_cell_volume 3923.607991
_symmetry_space_group_name_H-M "C C C M"
_symmetry_group_IT_number 66
_symmetry_cell_setting 'orthorhombic'
loop_
_space_group_symop_operation_xyz
x,y,z
-x,-y,z
x,-y,1/2-z
-x,y,1/2-z
-x,-y,-z
x,y,-z
-x,y,1/2+z
x,-y,1/2+z
1/2+x,1/2+y,z
1/2-x,1/2-y,z
1/2+x,1/2-y,1/2-z
1/2-x,1/2+y,1/2-z
1/2-x,1/2-y,-z
1/2+x,1/2+y,-z
1/2-x,1/2+y,1/2+z
1/2+x,1/2-y,1/2+z
loop_
_atom_site_type_symbol
_atom_site_label
_atom_site_fract_x
_atom_site_fract_y
_atom_site_fract_z
Si Si1 0.312794 0.448174 0.329901
Si Si2 0.312512 0.342672 0.826129
Si Si3 0.630198 0.157556 0.325870
Si Si4 0.921460 0.761413 0.321613
Si Si5 0.128948 0.551940 0.170441
O O1 0.346201 0.500000 0.250000
O O2 0.344965 0.445514 0.500000
O O3 0.342638 0.397698 0.239236
O O4 0.220924 0.449997 0.329919
O O5 0.221485 0.337257 0.805037
O O6 0.349735 0.295251 0.735321
O O7 0.336994 0.338988 0.000000
O O8 0.606178 0.163370 0.500000
O O9 0.588694 0.201727 0.228856
O O10 0.600174 0.101949 0.264577
O O11 0.926373 0.764592 0.500000
O O12 0.000000 0.784137 0.250000
O O13 0.095564 0.500000 0.250000
O O14 0.097177 0.555122 0.000000
#
# Coordination Sequence:
#
# PCOD8276519 Si02
#       5
#    16  16  16  16  16
#     4   9  16  27  46  75 109 142 176 216 263 312
#     4  10  20  35  56  82 111 142 178 221 267 316
#     4  10  20  35  56  82 111 142 178 221 267 316
#     4  12  25  40  57  77 105 141 181 224 271 322
#     4   9  16  27  46  75 109 142 176 216 263 312
#
# _framework density 20.389398
#
# number of rings (size 3 to 8) (size 9 to 14) (size 15 to 20)
#    0.000    2.000    0.000    4.800    0.000    9.600 
#    0.000    0.000    0.000    1.200    0.000    8.400 
#    0.000    0.000    0.000    0.000    0.000    0.000 
#
# Total GULP energy -496153.951562 kJ/mol
# GULP energy per Si atom -12403.848789 kJ/mol
# Density = 2.034299 g / cm^3
# Si number density = 20.389398 Si / 1000 Ang^3
#
#
#
# Elastic Constant Matrix: (Units=GPa)
#
#
# Indices 1 2 3 4 5 6 
#
# 1 19.1092 7.0684 24.2554 0.0000 0.0000 0.0000
# 2 7.0684 108.8317 45.0818 0.0000 0.0000 0.0000
# 3 24.2554 45.0818 177.8250 0.0000 0.0000 0.0000
# 4 0.0000 0.0000 0.0000 46.6985 0.0000 0.0000
# 5 0.0000 0.0000 0.0000 0.0000 17.6415 0.0000
# 6 0.0000 0.0000 0.0000 0.0000 0.0000 -0.2368
#
#
#
# Elastic Compliance Matrix: (Units=1/GPa)
#
#
# Indices 1 2 3 4 5 6 
#
# 1 0.063323 -0.000598 -0.008486 0.000000 0.000000 0.000000
# 2 -0.000598 0.010272 -0.002523 0.000000 0.000000 0.000000
# 3 -0.008486 -0.002523 0.007421 0.000000 0.000000 0.000000
# 4 0.000000 0.000000 0.000000 0.021414 0.000000 0.000000
# 5 0.000000 0.000000 0.000000 0.000000 0.056685 0.000000
# 6 0.000000 0.000000 0.000000 0.000000 0.000000 -4.223859
#
#
# Mechanical properties :
#
#
# Convention : Reuss Voigt Hill
#
# Bulk Modulus (GPa) = 17.29995 50.95302 34.12649
# Shear Modulus (GPa) = -1.24308 28.11133 13.43412
#
# Velocity S-wave (km/s) = -0.78166 3.71714 2.56965
# Velocity P-wave (km/s) = 2.77282 6.59296 5.05745
#
# Compressibility (1/GPa) = 0.05780364
#
# Stress axis : x y z
#
# Youngs Moduli (GPa) = 15.79207 97.34920 134.76140
#
# Poissons Ratio (x) = 0.05817 1.14356
# Poissons Ratio (y) = 0.00944 0.33996
# Poissons Ratio (z) = 0.13401 0.24558
#
# Static dielectric constant tensor:
#      x y z
#    x 3.268810 0.000000 0.000000 
#    y 0.000000 3.881750 0.000000 
#    z 0.000000 0.000000 3.888960 
# 
# 
# High freq. dielectric constant tensor:
#      x y z
#    x 1.749840 0.000000 0.000000 
#    y 0.000000 1.811160 0.000000 
#    z 0.000000 0.000000 1.814880 
# 
# From -- ./inp_files/6645.got.cif
#   From: 2010.03.12/outbox.cif.g09.slc.cpg/sg66_4_cif.got.tgz:6645.got - 2010.04.10 21:57:39.
