data_PCOD8276994
_publ_section_title
;
Structure prediction by ZEFSAII (Michael W. Deem and Ramdas Pophale) SiO2 
 PCOD8276994
Probable space group: C C C M
;
_chemical_formula_sum "Si O2"
_cell_formula_units_Z 112
_cell_length_a 27.195281
_cell_length_b 15.310477
_cell_length_c 13.993498
_cell_angle_alpha 90.000000
_cell_angle_beta 90.000000
_cell_angle_gamma 90.000000
_cell_volume 5826.510884
_symmetry_space_group_name_H-M "C C C M"
_symmetry_group_IT_number 66
_symmetry_cell_setting 'orthorhombic'
loop_
_space_group_symop_operation_xyz
x,y,z
-x,-y,z
x,-y,1/2-z
-x,y,1/2-z
-x,-y,-z
x,y,-z
-x,y,1/2+z
x,-y,1/2+z
1/2+x,1/2+y,z
1/2-x,1/2-y,z
1/2+x,1/2-y,1/2-z
1/2-x,1/2+y,1/2-z
1/2-x,1/2-y,-z
1/2+x,1/2+y,-z
1/2-x,1/2+y,1/2+z
1/2+x,1/2-y,1/2+z
loop_
_atom_site_type_symbol
_atom_site_label
_atom_site_fract_x
_atom_site_fract_y
_atom_site_fract_z
Si Si1 0.894746 0.053401 0.888422
Si Si2 0.869312 0.312530 0.889844
Si Si3 0.805783 0.725900 0.894958
Si Si4 0.112157 0.144752 0.890767
Si Si5 0.296663 0.901097 0.225083
Si Si6 0.797918 0.151597 0.109002
Si Si7 0.056042 0.794095 0.223625
O O1 0.837966 0.077252 0.870924
O O2 0.933186 0.113813 0.830451
O O3 0.896344 0.953679 0.853195
O O4 0.908309 0.064280 0.000000
O O5 0.843944 0.399418 0.846585
O O6 0.826267 0.241723 0.872012
O O7 0.920024 0.284476 0.838022
O O8 0.882547 0.325511 0.000000
O O9 0.750000 0.750000 0.895387
O O10 0.832964 0.818398 0.873764
O O11 0.815402 0.650683 0.818272
O O12 0.822237 0.690890 0.000000
O O13 0.078769 0.207997 0.828748
O O14 0.095467 0.150852 0.000000
O O15 0.248039 0.857227 0.179496
O O16 0.283810 0.000000 0.250000
O O17 0.778191 0.147008 0.000000
O O18 0.000000 0.777601 0.250000
#
# Coordination Sequence:
#
# PCOD8276994 Si02
#       7
#    16  16  16  16  16  16  16
#     4   9  20  36  55  85 120 157 194 234 281 335
#     4  10  21  41  62  84 118 155 195 243 294 346
#     4  10  22  38  54  77 116 160 195 229 276 340
#     4  10  21  37  56  78 118 161 193 226 276 343
#     4  12  24  34  57  88 116 150 193 245 288 339
#     4   9  19  35  57  84 117 154 194 232 274 333
#     4  11  22  37  60  87 114 145 191 243 295 346
#
# _framework density 19.222481999999999
#
# number of rings (size 3 to 8) (size 9 to 14) (size 15 to 20)
#    0.000    1.857    1.429    3.429    4.000    4.571 
#    0.000    1.429    0.000    0.429    0.000    1.000 
#    0.000    0.000    0.000    0.000    0.000    0.000 
#
# Total GULP energy -694044.484359 kJ/mol
# GULP energy per Si atom -12393.651506 kJ/mol
# Density = 1.917873 g / cm^3
# Si number density = 19.222482 Si / 1000 Ang^3
#
#
#
# Elastic Constant Matrix: (Units=GPa)
#
#
# Indices 1 2 3 4 5 6 
#
# 1 115.8984 17.9153 43.5885 0.0000 0.0000 0.0000
# 2 17.9153 31.2382 18.0177 0.0000 0.0000 0.0000
# 3 43.5885 18.0177 74.5575 0.0000 0.0000 0.0000
# 4 0.0000 0.0000 0.0000 30.0218 0.0000 0.0000
# 5 0.0000 0.0000 0.0000 0.0000 13.5500 0.0000
# 6 0.0000 0.0000 0.0000 0.0000 0.0000 9.5306
#
#
#
# Elastic Compliance Matrix: (Units=1/GPa)
#
#
# Indices 1 2 3 4 5 6 
#
# 1 0.011314 -0.003106 -0.005864 0.000000 0.000000 0.000000
# 2 -0.003106 0.038050 -0.007379 0.000000 0.000000 0.000000
# 3 -0.005864 -0.007379 0.018624 0.000000 0.000000 0.000000
# 4 0.000000 0.000000 0.000000 0.033309 0.000000 0.000000
# 5 0.000000 0.000000 0.000000 0.000000 0.073801 0.000000
# 6 0.000000 0.000000 0.000000 0.000000 0.000000 0.104925
#
#
# Mechanical properties :
#
#
# Convention : Reuss Voigt Hill
#
# Bulk Modulus (GPa) = 28.33748 42.30412 35.32080
# Shear Modulus (GPa) = 15.40910 20.09864 17.75387
#
# Velocity S-wave (km/s) = 2.83436 3.23705 3.04237
# Velocity P-wave (km/s) = 5.04830 6.00223 5.54581
#
# Compressibility (1/GPa) = 0.03528896
#
# Stress axis : x y z
#
# Youngs Moduli (GPa) = 88.38843 26.28141 53.69487
#
# Poissons Ratio (x) = 0.08164 0.31485
# Poissons Ratio (y) = 0.27457 0.39622
# Poissons Ratio (z) = 0.51828 0.19393
#
# Static dielectric constant tensor:
#      x y z
#    x 2.344050 0.000000 0.000000 
#    y 0.000000 3.413660 0.000000 
#    z 0.000000 0.000000 4.055820 
# 
# 
# High freq. dielectric constant tensor:
#      x y z
#    x 1.722920 0.000000 0.000000 
#    y 0.000000 1.714560 0.000000 
#    z 0.000000 0.000000 1.776140 
# 
# From -- ./inp_files/33346.got.cif
#   From: 2010.03.12/outbox.cif.g09.slc.cpg/sg66_17_cif.got.tgz:33346.got - 2010.04.10 21:57:39.
