data_PCOD8276695
_publ_section_title
;
Structure prediction by ZEFSAII (Michael W. Deem and Ramdas Pophale) SiO2 
 PCOD8276695
Probable space group: C C C M
;
_chemical_formula_sum "Si O2"
_cell_formula_units_Z 44
_cell_length_a 5.012239
_cell_length_b 25.500717
_cell_length_c 14.631871
_cell_angle_alpha 90.000000
_cell_angle_beta 90.000000
_cell_angle_gamma 90.000000
_cell_volume 1870.182663
_symmetry_space_group_name_H-M "C C C M"
_symmetry_group_IT_number 66
_symmetry_cell_setting 'orthorhombic'
loop_
_space_group_symop_operation_xyz
x,y,z
-x,-y,z
x,-y,1/2-z
-x,y,1/2-z
-x,-y,-z
x,y,-z
-x,y,1/2+z
x,-y,1/2+z
1/2+x,1/2+y,z
1/2-x,1/2-y,z
1/2+x,1/2-y,1/2-z
1/2-x,1/2+y,1/2-z
1/2-x,1/2-y,-z
1/2+x,1/2+y,-z
1/2-x,1/2+y,1/2+z
1/2+x,1/2-y,1/2+z
loop_
_atom_site_type_symbol
_atom_site_label
_atom_site_fract_x
_atom_site_fract_y
_atom_site_fract_z
Si Si1 0.500000 0.500000 0.750000
Si Si2 0.750000 0.250000 0.312804
Si Si3 0.886117 0.076854 0.899446
Si Si4 0.907033 0.640735 0.146819
O O1 0.316061 0.534460 0.819748
O O2 0.500000 0.267400 0.250000
O O3 0.828050 0.299247 0.377561
O O4 0.656950 0.120495 0.911164
O O5 0.161868 0.102743 0.870059
O O6 0.918034 0.050570 0.000000
O O7 0.000000 0.639652 0.250000
#
# Coordination Sequence:
#
# PCOD8276695 Si02
#       4
#     4   8  16  16
#     4  12  26  50  72  96 136 190 234 286 356 402
#     4  10  20  36  71 106 135 186 232 270 337 426
#     4  12  26  44  70 102 138 177 233 289 344 409
#     4  11  21  44  68 102 140 182 224 280 342 413
#
# _framework density 23.527113
#
# number of rings (size 3 to 8) (size 9 to 14) (size 15 to 20)
#    0.000    0.727    3.636    6.000    0.000    2.909 
#    0.000    9.091    0.000    0.000    0.000    0.000 
#    0.000    0.000    0.000    0.000    0.000    0.000 
#
# Total GULP energy -272655.671839 kJ/mol
# GULP energy per Si atom -12393.439629 kJ/mol
# Density = 2.347356 g / cm^3
# Si number density = 23.527113 Si / 1000 Ang^3
#
#
#
# Elastic Constant Matrix: (Units=GPa)
#
#
# Indices 1 2 3 4 5 6 
#
# 1 136.0704 32.5797 33.9666 0.0000 0.0000 0.0000
# 2 32.5797 120.7980 87.8087 0.0000 0.0000 0.0000
# 3 33.9666 87.8087 145.9040 0.0000 0.0000 0.0000
# 4 0.0000 0.0000 0.0000 6.1538 0.0000 0.0000
# 5 0.0000 0.0000 0.0000 0.0000 35.8802 0.0000
# 6 0.0000 0.0000 0.0000 0.0000 0.0000 33.9807
#
#
#
# Elastic Compliance Matrix: (Units=1/GPa)
#
#
# Indices 1 2 3 4 5 6 
#
# 1 0.007937 -0.001418 -0.000995 0.000000 0.000000 0.000000
# 2 -0.001418 0.014969 -0.008679 0.000000 0.000000 0.000000
# 3 -0.000995 -0.008679 0.012309 0.000000 0.000000 0.000000
# 4 0.000000 0.000000 0.000000 0.162501 0.000000 0.000000
# 5 0.000000 0.000000 0.000000 0.000000 0.027871 0.000000
# 6 0.000000 0.000000 0.000000 0.000000 0.000000 0.029428
#
#
# Mechanical properties :
#
#
# Convention : Reuss Voigt Hill
#
# Bulk Modulus (GPa) = 76.73101 79.05361 77.89231
# Shear Modulus (GPa) = 17.75941 31.76409 24.76175
#
# Velocity S-wave (km/s) = 2.75043 3.67836 3.24771
# Velocity P-wave (km/s) = 6.53997 7.19128 6.87334
#
# Compressibility (1/GPa) = 0.01303254
#
# Stress axis : x y z
#
# Youngs Moduli (GPa) = 125.99490 66.80289 81.24433
#
# Poissons Ratio (x) = 0.09471 0.08080
# Poissons Ratio (y) = 0.17862 0.70511
# Poissons Ratio (z) = 0.12530 0.57978
#
# Static dielectric constant tensor:
#      x y z
#    x 4.273740 0.000000 0.000000 
#    y 0.000000 4.795560 0.000000 
#    z 0.000000 0.000000 4.212390 
# 
# 
# High freq. dielectric constant tensor:
#      x y z
#    x 1.933860 0.000000 0.000000 
#    y 0.000000 1.936840 0.000000 
#    z 0.000000 0.000000 1.920070 
# 
# From -- ./inp_files/22223.got.cif
#   From: 2010.03.12/outbox.cif.g09.slc.cpg/sg66_12_cif.got.tgz:22223.got - 2010.04.10 21:57:39.
