data_PCOD8276458
_publ_section_title
;
Structure prediction by ZEFSAII (Michael W. Deem and Ramdas Pophale) SiO2 
 PCOD8276458
Probable space group: C C C M
;
_chemical_formula_sum "Si O2"
_cell_formula_units_Z 80
_cell_length_a 15.296349
_cell_length_b 15.296348
_cell_length_c 17.899331
_cell_angle_alpha 90.000000
_cell_angle_beta 90.000000
_cell_angle_gamma 90.000000
_cell_volume 4188.054635
_symmetry_space_group_name_H-M "C C C M"
_symmetry_group_IT_number 66
_symmetry_cell_setting 'orthorhombic'
loop_
_space_group_symop_operation_xyz
x,y,z
-x,-y,z
x,-y,1/2-z
-x,y,1/2-z
-x,-y,-z
x,y,-z
-x,y,1/2+z
x,-y,1/2+z
1/2+x,1/2+y,z
1/2-x,1/2-y,z
1/2+x,1/2-y,1/2-z
1/2-x,1/2+y,1/2-z
1/2-x,1/2-y,-z
1/2+x,1/2+y,-z
1/2-x,1/2+y,1/2+z
1/2+x,1/2-y,1/2+z
loop_
_atom_site_type_symbol
_atom_site_label
_atom_site_fract_x
_atom_site_fract_y
_atom_site_fract_z
Si Si1 0.570965 0.929035 0.418529
Si Si2 0.997226 0.259422 0.838673
Si Si3 0.181108 0.818892 0.657473
Si Si4 0.740578 0.997226 0.661327
Si Si5 0.179955 0.179955 0.665334
O O1 0.605066 0.894934 0.500000
O O2 0.521625 0.853617 0.372982
O O3 0.646383 0.978375 0.372982
O O4 0.500000 0.000000 0.435010
O O5 0.916727 0.199171 0.863801
O O6 0.000000 0.271894 0.750000
O O7 0.084657 0.211518 0.869675
O O8 0.250000 0.750000 0.623722
O O9 0.183634 0.816366 0.746004
O O10 0.211518 0.915343 0.630325
O O11 0.800829 0.916727 0.636199
O O12 0.728106 0.000000 0.750000
O O13 0.250000 0.250000 0.632849
#
# Coordination Sequence:
#
# PCOD8276458 Si02
#       5
#    16  16  16  16  16
#     4  11  24  37  53  85 117 142 190 240 275 334
#     4  10  20  34  58  80 111 150 187 231 285 332
#     4   9  18  31  50  83 113 142 189 234 271 337
#     4  10  20  34  58  80 111 150 187 231 285 332
#     4   9  16  31  51  84 112 137 190 241 271 328
#
# _framework density 19.101946999999999
#
# number of rings (size 3 to 8) (size 9 to 14) (size 15 to 20)
#    0.000    2.200    2.000    1.200    5.600    0.800 
#    0.000    7.000    0.000    3.600    0.000    2.800 
#    0.000    0.000    0.000    0.000    0.000    0.000 
#
# Total GULP energy -495663.122211 kJ/mol
# GULP energy per Si atom -12391.578055 kJ/mol
# Density = 1.905847 g / cm^3
# Si number density = 19.101947 Si / 1000 Ang^3
#
#
#
# Elastic Constant Matrix: (Units=GPa)
#
#
# Indices 1 2 3 4 5 6 
#
# 1 176.1307 93.4774 25.7374 0.0000 0.0000 0.0000
# 2 93.4774 176.1304 25.7373 0.0000 0.0000 0.0000
# 3 25.7374 25.7373 36.7024 0.0000 0.0000 0.0000
# 4 0.0000 0.0000 0.0000 8.0768 0.0000 0.0000
# 5 0.0000 0.0000 0.0000 0.0000 8.0769 0.0000
# 6 0.0000 0.0000 0.0000 0.0000 0.0000 46.9276
#
#
#
# Elastic Compliance Matrix: (Units=1/GPa)
#
#
# Indices 1 2 3 4 5 6 
#
# 1 0.008191 -0.003908 -0.003003 0.000000 0.000000 0.000000
# 2 -0.003908 0.008191 -0.003003 0.000000 0.000000 0.000000
# 3 -0.003003 -0.003003 0.031458 0.000000 0.000000 0.000000
# 4 0.000000 0.000000 0.000000 0.123811 0.000000 0.000000
# 5 0.000000 0.000000 0.000000 0.000000 0.123810 0.000000
# 6 0.000000 0.000000 0.000000 0.000000 0.000000 0.021309
#
#
# Mechanical properties :
#
#
# Convention : Reuss Voigt Hill
#
# Bulk Modulus (GPa) = 35.70074 75.42973 55.56524
# Shear Modulus (GPa) = 14.45358 28.88369 21.66864
#
# Velocity S-wave (km/s) = 2.75372 3.89277 3.37169
# Velocity P-wave (km/s) = 5.37036 7.73166 6.65655
#
# Compressibility (1/GPa) = 0.02801063
#
# Stress axis : x y z
#
# Youngs Moduli (GPa) = 122.09130 122.09123 31.78853
#
# Poissons Ratio (x) = 0.47715 0.09546
# Poissons Ratio (y) = 0.47715 0.09546
# Poissons Ratio (z) = 0.36665 0.36664
#
# Static dielectric constant tensor:
#      x y z
#    x 3.781510 0.000000 0.000000 
#    y 0.000000 3.781500 0.000000 
#    z 0.000000 0.000000 3.079130 
# 
# 
# High freq. dielectric constant tensor:
#      x y z
#    x 1.754430 0.000000 0.000000 
#    y 0.000000 1.754430 0.000000 
#    z 0.000000 0.000000 1.695280 
# 
# From -- ./inp_files/49745.got.cif
#   From: 2010.03.12/outbox.cif.g09.slc.cpg/sg66_25_cif.got.tgz:49745.got - 2010.04.10 21:57:39.
