data_PCOD8276030
_publ_section_title
;
Structure prediction by ZEFSAII (Michael W. Deem and Ramdas Pophale) SiO2 
 PCOD8276030
Probable space group: C C C M
;
_chemical_formula_sum "Si O2"
_cell_formula_units_Z 100
_cell_length_a 20.678815
_cell_length_b 30.817764
_cell_length_c 8.928142
_cell_angle_alpha 90.000000
_cell_angle_beta 90.000000
_cell_angle_gamma 90.000000
_cell_volume 5689.680269
_symmetry_space_group_name_H-M "C C C M"
_symmetry_group_IT_number 66
_symmetry_cell_setting 'orthorhombic'
loop_
_space_group_symop_operation_xyz
x,y,z
-x,-y,z
x,-y,1/2-z
-x,y,1/2-z
-x,-y,-z
x,y,-z
-x,y,1/2+z
x,-y,1/2+z
1/2+x,1/2+y,z
1/2-x,1/2-y,z
1/2+x,1/2-y,1/2-z
1/2-x,1/2+y,1/2-z
1/2-x,1/2-y,-z
1/2+x,1/2+y,-z
1/2-x,1/2+y,1/2+z
1/2+x,1/2-y,1/2+z
loop_
_atom_site_type_symbol
_atom_site_label
_atom_site_fract_x
_atom_site_fract_y
_atom_site_fract_z
Si Si1 0.256192 0.632897 0.322818
Si Si2 0.191850 0.217552 0.678109
Si Si3 0.900970 0.433827 0.837314
Si Si4 0.500000 0.000000 0.250000
Si Si5 0.107165 0.352170 0.173039
Si Si6 0.740712 0.955720 0.678293
Si Si7 0.066900 0.741270 0.320561
O O1 0.270135 0.632441 0.500000
O O2 0.297474 0.669434 0.240415
O O3 0.182394 0.644759 0.286063
O O4 0.275464 0.586278 0.251595
O O5 0.184030 0.216653 0.500000
O O6 0.250000 0.250000 0.726175
O O7 0.125600 0.231391 0.755396
O O8 0.954816 0.470717 0.853913
O O9 0.928639 0.394103 0.740130
O O10 0.834592 0.453490 0.771692
O O11 0.885149 0.414681 0.000000
O O12 0.077259 0.308007 0.237363
O O13 0.094058 0.353718 0.000000
O O14 0.751295 0.956425 0.500000
O O15 0.769495 0.000000 0.750000
O O16 0.065939 0.745182 0.500000
O O17 0.000000 0.758632 0.250000
#
# Coordination Sequence:
#
# PCOD8276030 Si02
#       7
#    16  16  16   4  16  16  16
#     4  10  19  34  56  80 104 137 178 225 276 329
#     4  11  22  36  57  84 111 143 184 231 276 333
#     4  10  22  34  47  63  87 123 169 220 269 319
#     4  12  22  36  44  66  86 128 176 230 276 324
#     4   9  20  36  53  72  98 131 173 222 274 324
#     4  10  19  34  51  72  99 131 168 216 273 326
#     4  11  23  39  56  79 110 146 182 225 276 330
#
# _framework density 17.575679999999998
#
# number of rings (size 3 to 8) (size 9 to 14) (size 15 to 20)
#    0.000    1.760    2.400    2.160    1.120    4.480 
#    0.000    0.000    0.000    0.000    0.000    0.000 
#    0.000    0.640    0.000    6.400    0.000    3.840 
#
# Total GULP energy -619905.889451 kJ/mol
# GULP energy per Si atom -12398.117789 kJ/mol
# Density = 1.753568 g / cm^3
# Si number density = 17.575680 Si / 1000 Ang^3
#
#
#
# Elastic Constant Matrix: (Units=GPa)
#
#
# Indices 1 2 3 4 5 6 
#
# 1 69.5214 51.3717 38.6247 0.0000 0.0000 0.0000
# 2 51.3717 142.9261 50.9954 0.0000 0.0000 0.0000
# 3 38.6247 50.9954 79.7023 0.0000 0.0000 0.0000
# 4 0.0000 0.0000 0.0000 29.0911 0.0000 0.0000
# 5 0.0000 0.0000 0.0000 0.0000 15.6777 0.0000
# 6 0.0000 0.0000 0.0000 0.0000 0.0000 23.6778
#
#
#
# Elastic Compliance Matrix: (Units=1/GPa)
#
#
# Indices 1 2 3 4 5 6 
#
# 1 0.022543 -0.005449 -0.007438 0.000000 0.000000 0.000000
# 2 -0.005449 0.010383 -0.004003 0.000000 0.000000 0.000000
# 3 -0.007438 -0.004003 0.018713 0.000000 0.000000 0.000000
# 4 0.000000 0.000000 0.000000 0.034375 0.000000 0.000000
# 5 0.000000 0.000000 0.000000 0.000000 0.063785 0.000000
# 6 0.000000 0.000000 0.000000 0.000000 0.000000 0.042234
#
#
# Mechanical properties :
#
#
# Convention : Reuss Voigt Hill
#
# Bulk Modulus (GPa) = 55.99489 63.79261 59.89375
# Shear Modulus (GPa) = 21.57360 23.76653 22.67007
#
# Velocity S-wave (km/s) = 3.50733 3.68127 3.59535
# Velocity P-wave (km/s) = 6.95200 7.37860 7.16847
#
# Compressibility (1/GPa) = 0.01785877
#
# Stress axis : x y z
#
# Youngs Moduli (GPa) = 44.36011 96.30911 53.43983
#
# Poissons Ratio (x) = 0.52474 0.39751
# Poissons Ratio (y) = 0.24170 0.21392
# Poissons Ratio (z) = 0.32997 0.38553
#
# Static dielectric constant tensor:
#      x y z
#    x 2.928800 0.000000 0.000000 
#    y 0.000000 3.418220 0.000000 
#    z 0.000000 0.000000 3.261890 
# 
# 
# High freq. dielectric constant tensor:
#      x y z
#    x 1.632550 0.000000 0.000000 
#    y 0.000000 1.683960 0.000000 
#    z 0.000000 0.000000 1.690870 
# 
# From -- ./inp_files/8137.got.cif
#   From: 2010.03.12/outbox.cif.g09.slc.cpg/sg66_5_cif.got.tgz:8137.got - 2010.04.10 21:57:39.
