data_PCOD8276918
_publ_section_title
;
Structure prediction by ZEFSAII (Michael W. Deem and Ramdas Pophale) SiO2 
 PCOD8276918
Probable space group: C C C M
;
_chemical_formula_sum "Si O2"
_cell_formula_units_Z 80
_cell_length_a 5.072789
_cell_length_b 24.622717
_cell_length_c 28.330180
_cell_angle_alpha 90.000000
_cell_angle_beta 90.000000
_cell_angle_gamma 90.000000
_cell_volume 3538.605155
_symmetry_space_group_name_H-M "C C C M"
_symmetry_group_IT_number 66
_symmetry_cell_setting 'orthorhombic'
loop_
_space_group_symop_operation_xyz
x,y,z
-x,-y,z
x,-y,1/2-z
-x,y,1/2-z
-x,-y,-z
x,y,-z
-x,y,1/2+z
x,-y,1/2+z
1/2+x,1/2+y,z
1/2-x,1/2-y,z
1/2+x,1/2-y,1/2-z
1/2-x,1/2+y,1/2-z
1/2-x,1/2-y,-z
1/2+x,1/2+y,-z
1/2-x,1/2+y,1/2+z
1/2+x,1/2-y,1/2+z
loop_
_atom_site_type_symbol
_atom_site_label
_atom_site_fract_x
_atom_site_fract_y
_atom_site_fract_z
Si Si1 0.766106 0.922740 0.720124
Si Si2 0.754704 0.466357 0.119251
Si Si3 0.403691 0.152171 0.399182
Si Si4 0.352399 0.190526 0.700568
Si Si5 0.391425 0.306354 0.945245
O O1 0.500000 0.921822 0.750000
O O2 0.729536 0.961257 0.675640
O O3 0.851219 0.860024 0.706881
O O4 0.000000 0.948818 0.750000
O O5 0.500000 0.500000 0.103025
O O6 0.766302 0.406585 0.097318
O O7 0.000000 0.500000 0.100176
O O8 0.506893 0.170817 0.346788
O O9 0.670290 0.149588 0.430149
O O10 0.170256 0.191433 0.417893
O O11 0.500000 0.196944 0.750000
O O12 0.250000 0.250000 0.688216
O O13 0.250000 0.250000 0.932883
O O14 0.458917 0.312970 0.000000
#
# Coordination Sequence:
#
# PCOD8276918 Si02
#       5
#    16  16  16  16  16
#     4  10  21  35  52  79 112 152 208 261 303 354
#     4  11  23  39  60  84 116 163 211 260 315 362
#     4  11  24  42  65  94 130 167 210 261 312 372
#     4  10  21  35  56  86 127 170 206 243 298 374
#     4  11  23  42  70 101 129 160 202 255 318 381
#
# _framework density 22.607780000000002
#
# number of rings (size 3 to 8) (size 9 to 14) (size 15 to 20)
#    0.000    1.400    0.000    5.400    0.000   14.400 
#    0.000    0.000    0.000   12.000    0.000    0.000 
#    0.000    0.000    0.000    0.000    0.000    0.000 
#
# Total GULP energy -495544.192163 kJ/mol
# GULP energy per Si atom -12388.604804 kJ/mol
# Density = 2.255632 g / cm^3
# Si number density = 22.607780 Si / 1000 Ang^3
#
#
#
# Elastic Constant Matrix: (Units=GPa)
#
#
# Indices 1 2 3 4 5 6 
#
# 1 115.2136 7.2698 21.2685 0.0000 0.0000 0.0000
# 2 7.2698 89.0520 16.6239 0.0000 0.0000 0.0000
# 3 21.2685 16.6239 80.6184 0.0000 0.0000 0.0000
# 4 0.0000 0.0000 0.0000 212.7757 0.0000 0.0000
# 5 0.0000 0.0000 0.0000 0.0000 24.6017 0.0000
# 6 0.0000 0.0000 0.0000 0.0000 0.0000 30.8065
#
#
#
# Elastic Compliance Matrix: (Units=1/GPa)
#
#
# Indices 1 2 3 4 5 6 
#
# 1 0.009132 -0.000308 -0.002346 0.000000 0.000000 0.000000
# 2 -0.000308 0.011689 -0.002329 0.000000 0.000000 0.000000
# 3 -0.002346 -0.002329 0.013503 0.000000 0.000000 0.000000
# 4 0.000000 0.000000 0.000000 0.004700 0.000000 0.000000
# 5 0.000000 0.000000 0.000000 0.000000 0.040648 0.000000
# 6 0.000000 0.000000 0.000000 0.000000 0.000000 0.032461
#
#
# Mechanical properties :
#
#
# Convention : Reuss Voigt Hill
#
# Bulk Modulus (GPa) = 41.05193 41.68982 41.37088
# Shear Modulus (GPa) = 38.39727 69.61822 54.00775
#
# Velocity S-wave (km/s) = 4.12565 5.55525 4.89294
# Velocity P-wave (km/s) = 6.39471 7.72193 7.08945
#
# Compressibility (1/GPa) = 0.02435939
#
# Stress axis : x y z
#
# Youngs Moduli (GPa) = 109.50550 85.54819 74.05618
#
# Poissons Ratio (x) = 0.02631 0.17372
# Poissons Ratio (y) = 0.03368 0.17249
# Poissons Ratio (z) = 0.25687 0.19926
#
# Static dielectric constant tensor:
#      x y z
#    x 3.940080 0.000000 0.000000 
#    y 0.000000 4.503990 0.000000 
#    z 0.000000 0.000000 3.972580 
# 
# 
# High freq. dielectric constant tensor:
#      x y z
#    x 1.876200 0.000000 0.000000 
#    y 0.000000 1.908920 0.000000 
#    z 0.000000 0.000000 1.878900 
# 
# From -- ./inp_files/67211.got.cif
#   From: 2010.03.12/outbox.cif.g09.slc.cpg/sg66_34_cif.got.tgz:67211.got - 2010.04.10 21:57:39.
