data_PCOD8276418
_publ_section_title
;
Structure prediction by ZEFSAII (Michael W. Deem and Ramdas Pophale) SiO2 
 PCOD8276418
Probable space group: C C C M
;
_chemical_formula_sum "Si O2"
_cell_formula_units_Z 80
_cell_length_a 9.293859
_cell_length_b 25.988583
_cell_length_c 15.174126
_cell_angle_alpha 90.000000
_cell_angle_beta 90.000000
_cell_angle_gamma 90.000000
_cell_volume 3665.070779
_symmetry_space_group_name_H-M "C C C M"
_symmetry_group_IT_number 66
_symmetry_cell_setting 'orthorhombic'
loop_
_space_group_symop_operation_xyz
x,y,z
-x,-y,z
x,-y,1/2-z
-x,y,1/2-z
-x,-y,-z
x,y,-z
-x,y,1/2+z
x,-y,1/2+z
1/2+x,1/2+y,z
1/2-x,1/2-y,z
1/2+x,1/2-y,1/2-z
1/2-x,1/2+y,1/2-z
1/2-x,1/2-y,-z
1/2+x,1/2+y,-z
1/2-x,1/2+y,1/2+z
1/2+x,1/2-y,1/2+z
loop_
_atom_site_type_symbol
_atom_site_label
_atom_site_fract_x
_atom_site_fract_y
_atom_site_fract_z
Si Si1 0.928696 0.952136 0.154268
Si Si2 0.595191 0.756752 0.598927
Si Si3 0.385851 0.042319 0.897503
Si Si4 0.115236 0.658130 0.603175
Si Si5 0.566812 0.339489 0.346379
O O1 0.758649 0.963126 0.159614
O O2 0.960215 0.896313 0.110691
O O3 0.000000 0.950871 0.250000
O O4 0.000000 0.000000 0.100644
O O5 0.626462 0.775477 0.500000
O O6 0.750000 0.750000 0.647702
O O7 0.501642 0.802161 0.643725
O O8 0.507981 0.703500 0.594539
O O9 0.446075 0.100246 0.883551
O O10 0.500000 0.000000 0.863412
O O11 0.348724 0.032646 0.000000
O O12 0.146551 0.669044 0.500000
O O13 0.261622 0.668511 0.656935
O O14 0.500000 0.334559 0.250000
#
# Coordination Sequence:
#
# PCOD8276418 Si02
#       5
#    16  16  16  16  16
#     4   9  19  36  54  75 108 145 180 218 265 325
#     4  10  21  35  52  77 108 141 176 216 265 321
#     4   9  18  33  56  86 113 138 176 227 277 322
#     4   9  18  35  57  79 108 145 178 213 269 332
#     4  10  20  34  54  78 103 137 181 225 264 310
#
# _framework density 21.827684000000001
#
# number of rings (size 3 to 8) (size 9 to 14) (size 15 to 20)
#    0.000    2.600    0.000    1.200    0.000    6.000 
#    0.000    4.000    0.000   12.000    0.000    0.000 
#    0.000    0.000    0.000    0.000    0.000    0.000 
#
# Total GULP energy -495668.233551 kJ/mol
# GULP energy per Si atom -12391.705839 kJ/mol
# Density = 2.177800 g / cm^3
# Si number density = 21.827684 Si / 1000 Ang^3
#
#
#
# Elastic Constant Matrix: (Units=GPa)
#
#
# Indices 1 2 3 4 5 6 
#
# 1 178.6599 117.6973 30.8459 0.0000 0.0000 0.0000
# 2 117.6973 203.8085 8.3762 0.0000 0.0000 0.0000
# 3 30.8459 8.3762 37.6174 0.0000 0.0000 0.0000
# 4 0.0000 0.0000 0.0000 14.0698 0.0000 0.0000
# 5 0.0000 0.0000 0.0000 0.0000 29.8921 0.0000
# 6 0.0000 0.0000 0.0000 0.0000 0.0000 47.8051
#
#
#
# Elastic Compliance Matrix: (Units=1/GPa)
#
#
# Indices 1 2 3 4 5 6 
#
# 1 0.010806 -0.005930 -0.007540 0.000000 0.000000 0.000000
# 2 -0.005930 0.008207 0.003036 0.000000 0.000000 0.000000
# 3 -0.007540 0.003036 0.032090 0.000000 0.000000 0.000000
# 4 0.000000 0.000000 0.000000 0.071074 0.000000 0.000000
# 5 0.000000 0.000000 0.000000 0.000000 0.033454 0.000000
# 6 0.000000 0.000000 0.000000 0.000000 0.000000 0.020918
#
#
# Mechanical properties :
#
#
# Convention : Reuss Voigt Hill
#
# Bulk Modulus (GPa) = 33.07680 81.54717 57.31198
# Shear Modulus (GPa) = 24.09679 35.89784 29.99731
#
# Velocity S-wave (km/s) = 3.32619 4.05977 3.71115
# Velocity P-wave (km/s) = 5.47155 7.70819 6.68409
#
# Compressibility (1/GPa) = 0.03023267
#
# Stress axis : x y z
#
# Youngs Moduli (GPa) = 92.54242 121.85402 31.16200
#
# Poissons Ratio (x) = 0.72264 0.23497
# Poissons Ratio (y) = 0.54881 -0.09459
# Poissons Ratio (z) = 0.69779 -0.36989
#
# Static dielectric constant tensor:
#      x y z
#    x 4.014020 0.000000 0.000000 
#    y 0.000000 4.776970 0.000000 
#    z 0.000000 0.000000 3.409450 
# 
# 
# High freq. dielectric constant tensor:
#      x y z
#    x 1.855630 0.000000 0.000000 
#    y 0.000000 1.880930 0.000000 
#    z 0.000000 0.000000 1.817580 
# 
# From -- ./inp_files/36944.got.cif
#   From: 2010.03.12/outbox.cif.g09.slc.cpg/sg66_19_cif.got.tgz:36944.got - 2010.04.10 21:57:39.
