data_PCOD8277645
_publ_section_title
;
Structure prediction by ZEFSAII (Michael W. Deem and Ramdas Pophale) SiO2 
 PCOD8277645
Probable space group: C C C M
;
_chemical_formula_sum "Si O2"
_cell_formula_units_Z 96
_cell_length_a 22.602957
_cell_length_b 9.946169
_cell_length_c 22.657461
_cell_angle_alpha 90.000000
_cell_angle_beta 90.000000
_cell_angle_gamma 90.000000
_cell_volume 5093.687933
_symmetry_space_group_name_H-M "C C C M"
_symmetry_group_IT_number 66
_symmetry_cell_setting 'orthorhombic'
loop_
_space_group_symop_operation_xyz
x,y,z
-x,-y,z
x,-y,1/2-z
-x,y,1/2-z
-x,-y,-z
x,y,-z
-x,y,1/2+z
x,-y,1/2+z
1/2+x,1/2+y,z
1/2-x,1/2-y,z
1/2+x,1/2-y,1/2-z
1/2-x,1/2+y,1/2-z
1/2-x,1/2-y,-z
1/2+x,1/2+y,-z
1/2-x,1/2+y,1/2+z
1/2+x,1/2-y,1/2+z
loop_
_atom_site_type_symbol
_atom_site_label
_atom_site_fract_x
_atom_site_fract_y
_atom_site_fract_z
Si Si1 0.926308 0.769569 0.127231
Si Si2 0.876848 0.483580 0.430766
Si Si3 0.873806 0.977442 0.568599
Si Si4 0.245047 0.398745 0.430786
Si Si5 0.935406 0.728255 0.622552
Si Si6 0.430171 0.849439 0.249243
O O1 0.891228 0.669783 0.084279
O O2 0.908456 0.735926 0.194553
O O3 0.996009 0.762795 0.116792
O O4 0.906545 0.919518 0.111555
O O5 0.879714 0.503696 0.500000
O O6 0.811872 0.522434 0.405344
O O7 0.926488 0.577328 0.401160
O O8 0.886833 0.009560 0.500000
O O9 0.803981 0.984170 0.582484
O O10 0.897218 0.828636 0.582815
O O11 0.236298 0.380558 0.500000
O O12 0.250000 0.250000 0.401868
O O13 0.912534 0.732237 0.690302
O O14 0.500000 0.866198 0.250000
O O15 0.401981 0.000000 0.250000
#
# Coordination Sequence:
#
# PCOD8277645 Si02
#       6
#    16  16  16  16  16  16
#     4  11  23  36  55  87 120 148 182 236 294 333
#     4  11  21  34  58  86 111 147 192 235 280 337
#     4  11  23  38  57  84 120 154 185 233 290 341
#     4   9  18  36  58  78 106 153 202 227 262 339
#     4  11  21  36  60  83 113 155 190 227 282 346
#     4   9  18  36  58  80 110 152 198 231 265 331
#
# _framework density 18.846855999999999
#
# number of rings (size 3 to 8) (size 9 to 14) (size 15 to 20)
#    0.000    1.667    3.333    2.000    0.000    5.333 
#    0.000    5.000    0.000    6.000    0.000    0.000 
#    0.000    0.000    0.000    0.000    0.000    0.000 
#
# Total GULP energy -595258.274740 kJ/mol
# GULP energy per Si atom -12401.214057 kJ/mol
# Density = 1.880396 g / cm^3
# Si number density = 18.846856 Si / 1000 Ang^3
#
#
#
# Elastic Constant Matrix: (Units=GPa)
#
#
# Indices 1 2 3 4 5 6 
#
# 1 71.7760 19.5251 35.6101 0.0000 0.0000 0.0000
# 2 19.5251 63.8772 18.6171 0.0000 0.0000 0.0000
# 3 35.6101 18.6171 90.2873 0.0000 0.0000 0.0000
# 4 0.0000 0.0000 0.0000 27.8327 0.0000 0.0000
# 5 0.0000 0.0000 0.0000 0.0000 5.7115 0.0000
# 6 0.0000 0.0000 0.0000 0.0000 0.0000 9.6641
#
#
#
# Elastic Compliance Matrix: (Units=1/GPa)
#
#
# Indices 1 2 3 4 5 6 
#
# 1 0.018097 -0.003672 -0.006380 0.000000 0.000000 0.000000
# 2 -0.003672 0.017401 -0.002140 0.000000 0.000000 0.000000
# 3 -0.006380 -0.002140 0.014033 0.000000 0.000000 0.000000
# 4 0.000000 0.000000 0.000000 0.035929 0.000000 0.000000
# 5 0.000000 0.000000 0.000000 0.000000 0.175085 0.000000
# 6 0.000000 0.000000 0.000000 0.000000 0.000000 0.103475
#
#
# Mechanical properties :
#
#
# Convention : Reuss Voigt Hill
#
# Bulk Modulus (GPa) = 39.76629 41.49389 40.63009
# Shear Modulus (GPa) = 12.60121 18.78755 15.69438
#
# Velocity S-wave (km/s) = 2.58856 3.16072 2.88884
# Velocity P-wave (km/s) = 5.48449 5.94848 5.72119
#
# Compressibility (1/GPa) = 0.02514693
#
# Stress axis : x y z
#
# Youngs Moduli (GPa) = 55.25916 57.46766 71.25853
#
# Poissons Ratio (x) = 0.21102 0.45465
# Poissons Ratio (y) = 0.20291 0.15248
# Poissons Ratio (z) = 0.35257 0.12297
#
# Static dielectric constant tensor:
#      x y z
#    x 3.465760 0.000000 0.000000 
#    y 0.000000 3.353160 0.000000 
#    z 0.000000 0.000000 3.499850 
# 
# 
# High freq. dielectric constant tensor:
#      x y z
#    x 1.722000 0.000000 0.000000 
#    y 0.000000 1.731960 0.000000 
#    z 0.000000 0.000000 1.721630 
# 
# From -- ./inp_files/55620.got.cif
#   From: 2010.03.12/outbox.cif.g09.slc.cpg/sg66_28_cif.got.tgz:55620.got - 2010.04.10 21:57:39.
