data_PCOD8277266
_publ_section_title
;
Structure prediction by ZEFSAII (Michael W. Deem and Ramdas Pophale) SiO2 
 PCOD8277266
Probable space group: C C C M
;
_chemical_formula_sum "Si O2"
_cell_formula_units_Z 80
_cell_length_a 16.866837
_cell_length_b 12.021275
_cell_length_c 20.840374
_cell_angle_alpha 90.000000
_cell_angle_beta 90.000000
_cell_angle_gamma 90.000000
_cell_volume 4225.612696
_symmetry_space_group_name_H-M "C C C M"
_symmetry_group_IT_number 66
_symmetry_cell_setting 'orthorhombic'
loop_
_space_group_symop_operation_xyz
x,y,z
-x,-y,z
x,-y,1/2-z
-x,y,1/2-z
-x,-y,-z
x,y,-z
-x,y,1/2+z
x,-y,1/2+z
1/2+x,1/2+y,z
1/2-x,1/2-y,z
1/2+x,1/2-y,1/2-z
1/2-x,1/2+y,1/2-z
1/2-x,1/2-y,-z
1/2+x,1/2+y,-z
1/2-x,1/2+y,1/2+z
1/2+x,1/2-y,1/2+z
loop_
_atom_site_type_symbol
_atom_site_label
_atom_site_fract_x
_atom_site_fract_y
_atom_site_fract_z
Si Si1 0.876911 0.451085 0.574320
Si Si2 0.520883 0.622910 0.345671
Si Si3 0.701307 0.097277 0.704941
Si Si4 0.129031 0.828913 0.728852
Si Si5 0.961028 0.327150 0.071888
O O1 0.843795 0.451463 0.500000
O O2 0.814159 0.414057 0.628360
O O3 0.948204 0.363832 0.577924
O O4 0.905256 0.573310 0.597151
O O5 0.500000 0.500000 0.372960
O O6 0.438090 0.676903 0.324897
O O7 0.587480 0.614646 0.290578
O O8 0.557149 0.708628 0.396278
O O9 0.796406 0.096955 0.708702
O O10 0.660084 0.203678 0.737530
O O11 0.667210 0.000000 0.750000
O O12 0.936273 0.306028 0.000000
#
# Coordination Sequence:
#
# PCOD8277266 Si02
#       5
#    16  16  16  16  16
#     4   9  18  35  57  82 116 145 179 240 294 337
#     4  11  20  36  54  76 111 153 184 231 277 344
#     4  11  20  35  56  83 110 146 187 239 284 345
#     4  10  22  35  51  79 112 143 190 229 287 330
#     4   9  18  34  56  83 110 143 187 232 284 338
#
# _framework density 18.932165999999999
#
# number of rings (size 3 to 8) (size 9 to 14) (size 15 to 20)
#    0.000    2.000    2.000    4.800    0.000    0.400 
#    0.000    3.000    0.000    3.600    0.000   14.000 
#    0.000    0.000    0.000    0.000    0.000    0.000 
#
# Total GULP energy -495583.686811 kJ/mol
# GULP energy per Si atom -12389.592170 kJ/mol
# Density = 1.888908 g / cm^3
# Si number density = 18.932166 Si / 1000 Ang^3
#
#
#
# Elastic Constant Matrix: (Units=GPa)
#
#
# Indices 1 2 3 4 5 6 
#
# 1 79.1057 13.6667 17.5389 0.0000 0.0000 0.0000
# 2 13.6667 102.1015 34.6579 0.0000 0.0000 0.0000
# 3 17.5389 34.6579 70.0207 0.0000 0.0000 0.0000
# 4 0.0000 0.0000 0.0000 28.3983 0.0000 0.0000
# 5 0.0000 0.0000 0.0000 0.0000 16.3366 0.0000
# 6 0.0000 0.0000 0.0000 0.0000 0.0000 20.2244
#
#
#
# Elastic Compliance Matrix: (Units=1/GPa)
#
#
# Indices 1 2 3 4 5 6 
#
# 1 0.013437 -0.000789 -0.002975 0.000000 0.000000 0.000000
# 2 -0.000789 0.011818 -0.005652 0.000000 0.000000 0.000000
# 3 -0.002975 -0.005652 0.017824 0.000000 0.000000 0.000000
# 4 0.000000 0.000000 0.000000 0.035213 0.000000 0.000000
# 5 0.000000 0.000000 0.000000 0.000000 0.061212 0.000000
# 6 0.000000 0.000000 0.000000 0.000000 0.000000 0.049445
#
#
# Mechanical properties :
#
#
# Convention : Reuss Voigt Hill
#
# Bulk Modulus (GPa) = 41.24124 42.55054 41.89589
# Shear Modulus (GPa) = 23.16254 25.34949 24.25601
#
# Velocity S-wave (km/s) = 3.50158 3.66316 3.58328
# Velocity P-wave (km/s) = 6.17892 6.35733 6.26876
#
# Compressibility (1/GPa) = 0.02424757
#
# Stress axis : x y z
#
# Youngs Moduli (GPa) = 74.41995 84.61425 56.10284
#
# Poissons Ratio (x) = 0.06673 0.16693
# Poissons Ratio (y) = 0.05869 0.31710
# Poissons Ratio (z) = 0.22143 0.47825
#
# Static dielectric constant tensor:
#      x y z
#    x 3.321280 0.000000 0.000000 
#    y 0.000000 3.698360 0.000000 
#    z 0.000000 0.000000 3.377340 
# 
# 
# High freq. dielectric constant tensor:
#      x y z
#    x 1.718940 0.000000 0.000000 
#    y 0.000000 1.750470 0.000000 
#    z 0.000000 0.000000 1.719980 
# 
# From -- ./inp_files/56629.got.cif
#   From: 2010.03.12/outbox.cif.g09.slc.cpg/sg66_29_cif.got.tgz:56629.got - 2010.04.10 21:57:39.
