data_PCOD8277442
_publ_section_title
;
Structure prediction by ZEFSAII (Michael W. Deem and Ramdas Pophale) SiO2 
 PCOD8277442
Probable space group: C C C M
;
_chemical_formula_sum "Si O2"
_cell_formula_units_Z 112
_cell_length_a 28.681855
_cell_length_b 13.089059
_cell_length_c 15.341121
_cell_angle_alpha 90.000000
_cell_angle_beta 90.000000
_cell_angle_gamma 90.000000
_cell_volume 5759.340516
_symmetry_space_group_name_H-M "C C C M"
_symmetry_group_IT_number 66
_symmetry_cell_setting 'orthorhombic'
loop_
_space_group_symop_operation_xyz
x,y,z
-x,-y,z
x,-y,1/2-z
-x,y,1/2-z
-x,-y,-z
x,y,-z
-x,y,1/2+z
x,-y,1/2+z
1/2+x,1/2+y,z
1/2-x,1/2-y,z
1/2+x,1/2-y,1/2-z
1/2-x,1/2+y,1/2-z
1/2-x,1/2-y,-z
1/2+x,1/2+y,-z
1/2-x,1/2+y,1/2+z
1/2+x,1/2-y,1/2+z
loop_
_atom_site_type_symbol
_atom_site_label
_atom_site_fract_x
_atom_site_fract_y
_atom_site_fract_z
Si Si1 0.351953 0.901058 0.299734
Si Si2 0.879964 0.147728 0.094894
Si Si3 0.052970 0.878595 0.252430
Si Si4 0.388099 0.281558 0.896088
Si Si5 0.331188 0.463287 0.154521
Si Si6 0.229923 0.501035 0.404110
Si Si7 0.299640 0.209095 0.651643
O O1 0.386833 0.836122 0.361171
O O2 0.309632 0.934866 0.358895
O O3 0.331635 0.823094 0.231037
O O4 0.375134 0.000000 0.250000
O O5 0.917520 0.169986 0.171515
O O6 0.831007 0.208162 0.102624
O O7 0.863318 0.030071 0.090345
O O8 0.902503 0.173838 0.000000
O O9 0.070547 0.839606 0.346198
O O10 0.000000 0.840003 0.250000
O O11 0.055863 0.000000 0.250000
O O12 0.341083 0.344345 0.868470
O O13 0.396302 0.280826 0.000000
O O14 0.348318 0.500000 0.250000
O O15 0.276722 0.486659 0.150696
O O16 0.238675 0.545192 0.500000
O O17 0.212796 0.384532 0.411684
O O18 0.250000 0.250000 0.686399
#
# Coordination Sequence:
#
# PCOD8277442 Si02
#       7
#    16  16  16  16  16  16  16
#     4  10  23  39  58  82 116 165 206 258 313 365
#     4  12  22  37  61  90 125 166 212 258 305 364
#     4  11  24  43  66  94 130 165 201 254 317 382
#     4  12  23  40  65  92 122 164 209 261 322 379
#     4  12  21  36  55  84 130 175 211 252 306 365
#     4  11  23  35  51  87 122 162 219 261 298 360
#     4  11  21  35  57  83 121 169 214 249 302 356
#
# _framework density 19.446670999999998
#
# number of rings (size 3 to 8) (size 9 to 14) (size 15 to 20)
#    0.000    0.714    5.714    3.429    2.000    1.143 
#    0.000    2.857    0.000    0.429    0.000    1.000 
#    0.000    0.000    0.000    0.000    0.000    0.000 
#
# Total GULP energy -694022.948814 kJ/mol
# GULP energy per Si atom -12393.266943 kJ/mol
# Density = 1.940241 g / cm^3
# Si number density = 19.446671 Si / 1000 Ang^3
#
#
#
# Elastic Constant Matrix: (Units=GPa)
#
#
# Indices 1 2 3 4 5 6 
#
# 1 96.4708 40.3058 29.4192 0.0000 0.0000 0.0000
# 2 40.3058 63.3494 54.3834 0.0000 0.0000 0.0000
# 3 29.4192 54.3834 132.4602 0.0000 0.0000 0.0000
# 4 0.0000 0.0000 0.0000 25.7282 0.0000 0.0000
# 5 0.0000 0.0000 0.0000 0.0000 13.2593 0.0000
# 6 0.0000 0.0000 0.0000 0.0000 0.0000 18.0957
#
#
#
# Elastic Compliance Matrix: (Units=1/GPa)
#
#
# Indices 1 2 3 4 5 6 
#
# 1 0.014182 -0.009759 0.000857 0.000000 0.000000 0.000000
# 2 -0.009759 0.031092 -0.010598 0.000000 0.000000 0.000000
# 3 0.000857 -0.010598 0.011710 0.000000 0.000000 0.000000
# 4 0.000000 0.000000 0.000000 0.038868 0.000000 0.000000
# 5 0.000000 0.000000 0.000000 0.000000 0.075419 0.000000
# 6 0.000000 0.000000 0.000000 0.000000 0.000000 0.055262
#
#
# Mechanical properties :
#
#
# Convention : Reuss Voigt Hill
#
# Bulk Modulus (GPa) = 55.60268 60.05527 57.82898
# Shear Modulus (GPa) = 18.41432 22.62809 20.52121
#
# Velocity S-wave (km/s) = 3.08054 3.41485 3.25199
# Velocity P-wave (km/s) = 6.42708 6.81890 6.62589
#
# Compressibility (1/GPa) = 0.01798474
#
# Stress axis : x y z
#
# Youngs Moduli (GPa) = 70.51330 32.16213 85.39464
#
# Poissons Ratio (x) = 0.31386 -0.07317
# Poissons Ratio (y) = 0.68811 0.90502
# Poissons Ratio (z) = -0.06042 0.34086
#
# Static dielectric constant tensor:
#      x y z
#    x 3.322750 0.000000 0.000000 
#    y 0.000000 3.696550 0.000000 
#    z 0.000000 0.000000 3.659340 
# 
# 
# High freq. dielectric constant tensor:
#      x y z
#    x 1.721730 0.000000 0.000000 
#    y 0.000000 1.754890 0.000000 
#    z 0.000000 0.000000 1.769800 
# 
# From -- ./inp_files/26988.got.cif
#   From: 2010.03.12/outbox.cif.g09.slc.cpg/sg66_14_cif.got.tgz:26988.got - 2010.04.10 21:57:39.
