data_PCOD8277937
_publ_section_title
;
Structure prediction by ZEFSAII (Michael W. Deem and Ramdas Pophale) SiO2 
 PCOD8277937
Probable space group: C M M A
;
_chemical_formula_sum "Si O2"
_cell_formula_units_Z 80
_cell_length_a 19.356982
_cell_length_b 8.683607
_cell_length_c 26.329552
_cell_angle_alpha 90.000000
_cell_angle_beta 90.000000
_cell_angle_gamma 90.000000
_cell_volume 4425.692911
_symmetry_space_group_name_H-M "C M M A"
_symmetry_group_IT_number 67
_symmetry_cell_setting 'orthorhombic'
loop_
_space_group_symop_operation_xyz
x,y,z
-x,1/2-y,z
x,-y,-z
-x,1/2+y,-z
-x,-y,-z
x,1/2+y,-z
-x,y,z
x,1/2-y,z
1/2+x,1/2+y,z
1/2-x,-y,z
1/2+x,1/2-y,-z
1/2-x,y,-z
1/2-x,1/2-y,-z
1/2+x,y,-z
1/2-x,1/2+y,z
1/2+x,-y,z
loop_
_atom_site_type_symbol
_atom_site_label
_atom_site_fract_x
_atom_site_fract_y
_atom_site_fract_z
Si Si1 0.672990 0.066968 0.550726
Si Si2 0.175394 0.572106 0.750905
Si Si3 0.078653 0.431253 0.947599
Si Si4 0.174407 0.071476 0.136905
Si Si5 0.672996 0.567884 0.651949
O O1 0.673632 0.250000 0.549157
O O2 0.635555 0.000000 0.500000
O O3 0.750000 0.000000 0.551822
O O4 0.635565 0.005757 0.602173
O O5 0.181517 0.750000 0.735674
O O6 0.250000 0.500000 0.757043
O O7 0.141161 0.550425 0.806430
O O8 0.135091 0.484474 0.704601
O O9 0.084050 0.250000 0.950953
O O10 0.122822 0.488986 0.900757
O O11 0.000000 0.487095 0.939465
O O12 0.108402 0.500000 0.000000
O O13 0.180554 0.250000 0.122954
O O14 0.250000 0.000000 0.131899
O O15 0.673650 0.750000 0.646338
O O16 0.750000 0.500000 0.655578
#
# Coordination Sequence:
#
# PCOD8277937 Si02
#       5
#    16  16  16  16  16
#     4  10  16  22  29  39  57  83 120 166 212 257
#     4   9  16  26  39  57  80 107 138 175 219 264
#     4  10  21  37  56  76  99 127 159 194 233 280
#     4  10  20  33  51  74 100 127 158 197 238 281
#     4  10  16  22  32  46  65  93 128 167 212 260
#
# _framework density 18.076266
#
# number of rings (size 3 to 8) (size 9 to 14) (size 15 to 20)
#    0.000    2.200    0.000    8.400    0.000    4.000 
#    0.000    2.000    0.000    0.000    0.000    0.000 
#    0.000    0.000    0.000    0.000    0.000    1.000 
#
# Total GULP energy -495617.191217 kJ/mol
# GULP energy per Si atom -12390.429780 kJ/mol
# Density = 1.803512 g / cm^3
# Si number density = 18.076266 Si / 1000 Ang^3
#
#
#
# Elastic Constant Matrix: (Units=GPa)
#
#
# Indices 1 2 3 4 5 6 
#
# 1 25.1441 18.4301 33.7503 0.0000 0.0000 0.0000
# 2 18.4301 145.6996 67.0663 0.0000 0.0000 0.0000
# 3 33.7503 67.0663 177.1805 0.0000 0.0000 0.0000
# 4 0.0000 0.0000 0.0000 40.1049 0.0000 0.0000
# 5 0.0000 0.0000 0.0000 0.0000 -3.5197 0.0000
# 6 0.0000 0.0000 0.0000 0.0000 0.0000 13.9302
#
#
#
# Elastic Compliance Matrix: (Units=1/GPa)
#
#
# Indices 1 2 3 4 5 6 
#
# 1 0.054202 -0.002548 -0.009360 0.000000 0.000000 0.000000
# 2 -0.002548 0.008431 -0.002706 0.000000 0.000000 0.000000
# 3 -0.009360 -0.002706 0.008451 0.000000 0.000000 0.000000
# 4 0.000000 0.000000 0.000000 0.024935 0.000000 0.000000
# 5 0.000000 0.000000 0.000000 0.000000 -0.284113 0.000000
# 6 0.000000 0.000000 0.000000 0.000000 0.000000 0.071786
#
#
# Mechanical properties :
#
#
# Convention : Reuss Voigt Hill
#
# Bulk Modulus (GPa) = 23.89108 65.16864 44.52986
# Shear Modulus (GPa) = -68.37447 25.35491 -21.50978
#
# Velocity S-wave (km/s) = -6.15692 3.74928 -3.45330
# Velocity P-wave (km/s) = 6.10721 7.40764 2.96438
#
# Compressibility (1/GPa) = 0.04185663
#
# Stress axis : x y z
#
# Youngs Moduli (GPa) = 18.44938 118.60499 118.32475
#
# Poissons Ratio (x) = 0.30216 1.10757
# Poissons Ratio (y) = 0.04700 0.32020
# Poissons Ratio (z) = 0.17269 0.32096
#
# Static dielectric constant tensor:
#      x y z
#    x 2.547990 0.000000 0.000000 
#    y 0.000000 3.490620 0.000000 
#    z 0.000000 0.000000 5.021110 
# 
# 
# High freq. dielectric constant tensor:
#      x y z
#    x 1.597900 0.000000 0.000000 
#    y 0.000000 1.724170 0.000000 
#    z 0.000000 0.000000 1.741450 
# 
# From -- ./inp_files/44425.got.cif
#   From: 2010.03.12/outbox.cif.g09.slc.cpg/sg67_23_cif.got.tgz:44425.got - 2010.04.10 22:41:39.
