data_PCOD8277749
_publ_section_title
;
Structure prediction by ZEFSAII (Michael W. Deem and Ramdas Pophale) SiO2 
 PCOD8277749
Probable space group: C C C M
;
_chemical_formula_sum "Si O2"
_cell_formula_units_Z 64
_cell_length_a 13.427642
_cell_length_b 13.137411
_cell_length_c 17.682225
_cell_angle_alpha 90.000000
_cell_angle_beta 90.000000
_cell_angle_gamma 90.000000
_cell_volume 3119.223206
_symmetry_space_group_name_H-M "C C C M"
_symmetry_group_IT_number 66
_symmetry_cell_setting 'orthorhombic'
loop_
_space_group_symop_operation_xyz
x,y,z
-x,-y,z
x,-y,1/2-z
-x,y,1/2-z
-x,-y,-z
x,y,-z
-x,y,1/2+z
x,-y,1/2+z
1/2+x,1/2+y,z
1/2-x,1/2-y,z
1/2+x,1/2-y,1/2-z
1/2-x,1/2+y,1/2-z
1/2-x,1/2-y,-z
1/2+x,1/2+y,-z
1/2-x,1/2+y,1/2+z
1/2+x,1/2-y,1/2+z
loop_
_atom_site_type_symbol
_atom_site_label
_atom_site_fract_x
_atom_site_fract_y
_atom_site_fract_z
Si Si1 0.912152 0.080430 0.412186
Si Si2 0.779716 0.463825 0.669675
Si Si3 0.560751 0.215691 0.672538
Si Si4 0.076295 0.410545 0.419313
O O1 0.916349 0.116148 0.500000
O O2 0.804441 0.033185 0.394944
O O3 0.910719 0.170382 0.350162
O O4 0.000000 0.000000 0.395314
O O5 0.735154 0.500000 0.750000
O O6 0.841751 0.357584 0.674490
O O7 0.849318 0.557615 0.646468
O O8 0.500000 0.211173 0.750000
O O9 0.484422 0.187592 0.606325
O O10 0.129060 0.385901 0.500000
O O11 0.000000 0.500000 0.432677
#
# Coordination Sequence:
#
# PCOD8277749 Si02
#       4
#    16  16  16  16
#     4  11  27  47  65  91 132 179 224 265 316 385
#     4  11  22  39  66  98 131 168 214 268 326 387
#     4  11  22  39  66  98 131 168 214 268 326 387
#     4   9  18  34  61  93 126 161 207 265 323 377
#
# _framework density 20.517928999999999
#
# number of rings (size 3 to 8) (size 9 to 14) (size 15 to 20)
#    0.000    1.500    2.500    2.250    3.500    4.000 
#    0.000    1.250    0.000    4.500    0.000    0.000 
#    0.000    0.000    0.000    0.000    0.000    0.000 
#
# Total GULP energy -396479.844799 kJ/mol
# GULP energy per Si atom -12389.995150 kJ/mol
# Density = 2.047123 g / cm^3
# Si number density = 20.517929 Si / 1000 Ang^3
#
#
#
# Elastic Constant Matrix: (Units=GPa)
#
#
# Indices 1 2 3 4 5 6 
#
# 1 98.5151 29.1665 32.6228 0.0000 0.0000 0.0000
# 2 29.1665 69.1293 19.8756 0.0000 0.0000 0.0000
# 3 32.6228 19.8756 115.1873 0.0000 0.0000 0.0000
# 4 0.0000 0.0000 0.0000 40.2922 0.0000 0.0000
# 5 0.0000 0.0000 0.0000 0.0000 37.7795 0.0000
# 6 0.0000 0.0000 0.0000 0.0000 0.0000 23.5723
#
#
#
# Elastic Compliance Matrix: (Units=1/GPa)
#
#
# Indices 1 2 3 4 5 6 
#
# 1 0.012370 -0.004432 -0.002739 0.000000 0.000000 0.000000
# 2 -0.004432 0.016808 -0.001645 0.000000 0.000000 0.000000
# 3 -0.002739 -0.001645 0.009741 0.000000 0.000000 0.000000
# 4 0.000000 0.000000 0.000000 0.024819 0.000000 0.000000
# 5 0.000000 0.000000 0.000000 0.000000 0.026469 0.000000
# 6 0.000000 0.000000 0.000000 0.000000 0.000000 0.042423
#
#
# Mechanical properties :
#
#
# Convention : Reuss Voigt Hill
#
# Bulk Modulus (GPa) = 46.97410 49.57352 48.27381
# Shear Modulus (GPa) = 31.77495 33.73989 32.75742
#
# Velocity S-wave (km/s) = 3.93955 4.05953 3.99999
# Velocity P-wave (km/s) = 6.60585 6.79607 6.70164
#
# Compressibility (1/GPa) = 0.02128833
#
# Stress axis : x y z
#
# Youngs Moduli (GPa) = 80.84333 59.49412 102.65877
#
# Poissons Ratio (x) = 0.26365 0.28114
# Poissons Ratio (y) = 0.35826 0.16890
# Poissons Ratio (z) = 0.22140 0.09788
#
# Static dielectric constant tensor:
#      x y z
#    x 3.323760 0.000000 0.000000 
#    y 0.000000 -2.645360 0.000000 
#    z 0.000000 0.000000 3.964030 
# 
# 
# High freq. dielectric constant tensor:
#      x y z
#    x 1.795400 0.000000 0.000000 
#    y 0.000000 1.786970 0.000000 
#    z 0.000000 0.000000 1.821790 
# 
# From -- ./inp_files/27714.got.cif
#   From: 2010.03.12/outbox.cif.g09.slc.cpg/sg66_14_cif.got.tgz:27714.got - 2010.04.10 21:57:39.
