data_PCOD8277830
_publ_section_title
;
Structure prediction by ZEFSAII (Michael W. Deem and Ramdas Pophale) SiO2 
 PCOD8277830
Probable space group: C C C M
;
_chemical_formula_sum "Si O2"
_cell_formula_units_Z 48
_cell_length_a 14.240475
_cell_length_b 12.188421
_cell_length_c 12.622934
_cell_angle_alpha 90.000000
_cell_angle_beta 90.000000
_cell_angle_gamma 90.000000
_cell_volume 2190.948826
_symmetry_space_group_name_H-M "C C C M"
_symmetry_group_IT_number 66
_symmetry_cell_setting 'orthorhombic'
loop_
_space_group_symop_operation_xyz
x,y,z
-x,-y,z
x,-y,1/2-z
-x,y,1/2-z
-x,-y,-z
x,y,-z
-x,y,1/2+z
x,-y,1/2+z
1/2+x,1/2+y,z
1/2-x,1/2-y,z
1/2+x,1/2-y,1/2-z
1/2-x,1/2+y,1/2-z
1/2-x,1/2-y,-z
1/2+x,1/2+y,-z
1/2-x,1/2+y,1/2+z
1/2+x,1/2-y,1/2+z
loop_
_atom_site_type_symbol
_atom_site_label
_atom_site_fract_x
_atom_site_fract_y
_atom_site_fract_z
Si Si1 0.988412 0.371873 0.500000
Si Si2 0.693267 0.636059 0.500000
Si Si3 0.919353 0.773363 0.323908
Si Si4 0.250000 0.250000 0.820603
Si Si5 0.726638 0.097083 0.500000
O O1 0.877451 0.351314 0.500000
O O2 0.000000 0.500000 0.500000
O O3 0.036060 0.322332 0.395396
O O4 0.750000 0.750000 0.500000
O O5 0.626435 0.631277 0.396602
O O6 0.765600 0.534778 0.500000
O O7 0.838562 0.719009 0.252198
O O8 0.000000 0.826053 0.250000
O O9 0.224287 0.144845 0.894161
#
# Coordination Sequence:
#
# PCOD8277830 Si02
#       5
#     8   8  16   8   8
#     4  11  24  41  69 106 140 174 236 299 352 405
#     4  11  24  45  70 104 150 180 230 297 359 413
#     4  11  23  45  68 100 145 184 231 287 347 430
#     4  11  24  45  70 100 144 183 232 287 354 416
#     4  11  24  45  72 104 139 186 233 294 348 419
#
# _framework density 21.908315999999999
#
# number of rings (size 3 to 8) (size 9 to 14) (size 15 to 20)
#    0.000    1.000    5.000    2.000    0.000    2.000 
#    6.000    5.000    0.000    0.000    0.000    0.000 
#    0.000    0.000    0.000    0.000    0.000    0.000 
#
# Total GULP energy -297578.586826 kJ/mol
# GULP energy per Si atom -12399.107784 kJ/mol
# Density = 2.185845 g / cm^3
# Si number density = 21.908316 Si / 1000 Ang^3
#
#
#
# Elastic Constant Matrix: (Units=GPa)
#
#
# Indices 1 2 3 4 5 6 
#
# 1 143.4103 43.7250 76.2628 0.0000 0.0000 0.0000
# 2 43.7250 119.0226 46.8251 0.0000 0.0000 0.0000
# 3 76.2628 46.8251 163.0342 0.0000 0.0000 0.0000
# 4 0.0000 0.0000 0.0000 9.4955 0.0000 0.0000
# 5 0.0000 0.0000 0.0000 0.0000 55.8098 0.0000
# 6 0.0000 0.0000 0.0000 0.0000 0.0000 35.7885
#
#
#
# Elastic Compliance Matrix: (Units=1/GPa)
#
#
# Indices 1 2 3 4 5 6 
#
# 1 0.009687 -0.002002 -0.003956 0.000000 0.000000 0.000000
# 2 -0.002002 0.009886 -0.001903 0.000000 0.000000 0.000000
# 3 -0.003956 -0.001903 0.008531 0.000000 0.000000 0.000000
# 4 0.000000 0.000000 0.000000 0.105313 0.000000 0.000000
# 5 0.000000 0.000000 0.000000 0.000000 0.017918 0.000000
# 6 0.000000 0.000000 0.000000 0.000000 0.000000 0.027942
#
#
# Mechanical properties :
#
#
# Convention : Reuss Voigt Hill
#
# Bulk Modulus (GPa) = 80.76698 84.34365 82.55532
# Shear Modulus (GPa) = 25.10958 37.46237 31.28598
#
# Velocity S-wave (km/s) = 3.38911 4.13965 3.78304
# Velocity P-wave (km/s) = 7.22916 7.83779 7.53962
#
# Compressibility (1/GPa) = 0.01238130
#
# Stress axis : x y z
#
# Youngs Moduli (GPa) = 103.22629 101.15415 117.22142
#
# Poissons Ratio (x) = 0.20255 0.46378
# Poissons Ratio (y) = 0.20669 0.22304
# Poissons Ratio (z) = 0.40841 0.19247
#
# Static dielectric constant tensor:
#      x y z
#    x 4.492830 0.000000 0.000000 
#    y 0.000000 3.393020 0.000000 
#    z 0.000000 0.000000 4.423330 
# 
# 
# High freq. dielectric constant tensor:
#      x y z
#    x 1.878910 0.000000 0.000000 
#    y 0.000000 1.816460 0.000000 
#    z 0.000000 0.000000 1.888690 
# 
# From -- ./inp_files/15593.got.cif
#   From: 2010.03.12/outbox.cif.g09.slc.cpg/sg66_8_cif.got.tgz:15593.got - 2010.04.10 21:57:39.
