data_PCOD8277264
_publ_section_title
;
Structure prediction by ZEFSAII (Michael W. Deem and Ramdas Pophale) SiO2 
 PCOD8277264
Probable space group: C C C M
;
_chemical_formula_sum "Si O2"
_cell_formula_units_Z 96
_cell_length_a 17.516831
_cell_length_b 18.754835
_cell_length_c 14.340502
_cell_angle_alpha 90.000000
_cell_angle_beta 90.000000
_cell_angle_gamma 90.000000
_cell_volume 4711.217365
_symmetry_space_group_name_H-M "C C C M"
_symmetry_group_IT_number 66
_symmetry_cell_setting 'orthorhombic'
loop_
_space_group_symop_operation_xyz
x,y,z
-x,-y,z
x,-y,1/2-z
-x,y,1/2-z
-x,-y,-z
x,y,-z
-x,y,1/2+z
x,-y,1/2+z
1/2+x,1/2+y,z
1/2-x,1/2-y,z
1/2+x,1/2-y,1/2-z
1/2-x,1/2+y,1/2-z
1/2-x,1/2-y,-z
1/2+x,1/2+y,-z
1/2-x,1/2+y,1/2+z
1/2+x,1/2-y,1/2+z
loop_
_atom_site_type_symbol
_atom_site_label
_atom_site_fract_x
_atom_site_fract_y
_atom_site_fract_z
Si Si1 0.418098 0.017161 0.642335
Si Si2 0.760335 0.461274 0.395718
Si Si3 0.141655 0.326974 0.606516
Si Si4 0.801533 0.890563 0.610261
Si Si5 0.412681 0.302021 0.728258
Si Si6 0.693942 0.684506 0.106851
O O1 0.400186 0.098435 0.619945
O O2 0.500000 0.000000 0.595606
O O3 0.421866 0.000000 0.750000
O O4 0.352117 0.966498 0.601549
O O5 0.729303 0.459079 0.500000
O O6 0.723263 0.531789 0.348477
O O7 0.734081 0.386764 0.349640
O O8 0.131335 0.300663 0.500000
O O9 0.232009 0.335167 0.628489
O O10 0.101073 0.272125 0.675434
O O11 0.819183 0.894483 0.500000
O O12 0.876136 0.864971 0.665714
O O13 0.500000 0.318345 0.750000
O O14 0.378722 0.298100 0.831436
O O15 0.750000 0.750000 0.116231
O O16 0.667789 0.674418 0.000000
#
# Coordination Sequence:
#
# PCOD8277264 Si02
#       6
#    16  16  16  16  16  16
#     4  10  22  34  58  93 130 158 189 237 299 373
#     4   9  20  38  62  87 114 157 208 253 299 358
#     4  10  22  41  65  91 120 162 208 247 297 363
#     4   9  19  40  66  91 114 151 207 258 303 354
#     4  12  26  38  60  88 123 159 201 257 315 363
#     4  10  23  41  61  87 121 162 204 245 301 372
#
# _framework density 20.376899000000002
#
# number of rings (size 3 to 8) (size 9 to 14) (size 15 to 20)
#    0.000    2.000    0.000    3.500    9.333    4.000 
#    0.000    3.333    0.000    3.000    0.000    0.000 
#    0.000    0.000    0.000    0.000    0.000    0.000 
#
# Total GULP energy -595025.663534 kJ/mol
# GULP energy per Si atom -12396.367990 kJ/mol
# Density = 2.033052 g / cm^3
# Si number density = 20.376899 Si / 1000 Ang^3
#
#
#
# Elastic Constant Matrix: (Units=GPa)
#
#
# Indices 1 2 3 4 5 6 
#
# 1 153.5146 57.2719 63.0418 0.0000 0.0000 0.0000
# 2 57.2719 107.4534 40.2167 0.0000 0.0000 0.0000
# 3 63.0418 40.2167 82.6184 0.0000 0.0000 0.0000
# 4 0.0000 0.0000 0.0000 16.9805 0.0000 0.0000
# 5 0.0000 0.0000 0.0000 0.0000 16.1710 0.0000
# 6 0.0000 0.0000 0.0000 0.0000 0.0000 22.5207
#
#
#
# Elastic Compliance Matrix: (Units=1/GPa)
#
#
# Indices 1 2 3 4 5 6 
#
# 1 0.010270 -0.003107 -0.006324 0.000000 0.000000 0.000000
# 2 -0.003107 0.012319 -0.003626 0.000000 0.000000 0.000000
# 3 -0.006324 -0.003626 0.018695 0.000000 0.000000 0.000000
# 4 0.000000 0.000000 0.000000 0.058891 0.000000 0.000000
# 5 0.000000 0.000000 0.000000 0.000000 0.061839 0.000000
# 6 0.000000 0.000000 0.000000 0.000000 0.000000 0.044404
#
#
# Mechanical properties :
#
#
# Convention : Reuss Voigt Hill
#
# Bulk Modulus (GPa) = 65.92072 73.84968 69.88520
# Shear Modulus (GPa) = 21.04468 23.33817 22.19143
#
# Velocity S-wave (km/s) = 3.21716 3.38794 3.30365
# Velocity P-wave (km/s) = 6.79861 7.18503 6.99449
#
# Compressibility (1/GPa) = 0.01516974
#
# Stress axis : x y z
#
# Youngs Moduli (GPa) = 97.36828 81.17221 53.49121
#
# Poissons Ratio (x) = 0.25220 0.33829
# Poissons Ratio (y) = 0.30252 0.19396
# Poissons Ratio (z) = 0.61579 0.29433
#
# Static dielectric constant tensor:
#      x y z
#    x 3.664140 0.000000 0.000000 
#    y 0.000000 3.870800 0.000000 
#    z 0.000000 0.000000 3.802960 
# 
# 
# High freq. dielectric constant tensor:
#      x y z
#    x 1.773570 0.000000 0.000000 
#    y 0.000000 1.801940 0.000000 
#    z 0.000000 0.000000 1.809970 
# 
# From -- ./inp_files/28339.got.cif
#   From: 2010.03.12/outbox.cif.g09.slc.cpg/sg66_15_cif.got.tgz:28339.got - 2010.04.10 21:57:39.
