data_PCOD8277685
_publ_section_title
;
Structure prediction by ZEFSAII (Michael W. Deem and Ramdas Pophale) SiO2 
 PCOD8277685
Probable space group: C C C M
;
_chemical_formula_sum "Si O2"
_cell_formula_units_Z 64
_cell_length_a 19.714429
_cell_length_b 9.486025
_cell_length_c 16.027051
_cell_angle_alpha 90.000000
_cell_angle_beta 90.000000
_cell_angle_gamma 90.000000
_cell_volume 2997.243912
_symmetry_space_group_name_H-M "C C C M"
_symmetry_group_IT_number 66
_symmetry_cell_setting 'orthorhombic'
loop_
_space_group_symop_operation_xyz
x,y,z
-x,-y,z
x,-y,1/2-z
-x,y,1/2-z
-x,-y,-z
x,y,-z
-x,y,1/2+z
x,-y,1/2+z
1/2+x,1/2+y,z
1/2-x,1/2-y,z
1/2+x,1/2-y,1/2-z
1/2-x,1/2+y,1/2-z
1/2-x,1/2-y,-z
1/2+x,1/2+y,-z
1/2-x,1/2+y,1/2+z
1/2+x,1/2-y,1/2+z
loop_
_atom_site_type_symbol
_atom_site_label
_atom_site_fract_x
_atom_site_fract_y
_atom_site_fract_z
Si Si1 0.746651 0.100180 0.363093
Si Si2 0.369509 0.000000 0.250000
Si Si3 0.444642 0.732321 0.819746
Si Si4 0.953616 0.859703 0.500000
Si Si5 0.645676 0.500000 0.250000
Si Si6 0.708911 0.607479 0.500000
O O1 0.750000 0.250000 0.411514
O O2 0.674337 0.078772 0.319691
O O3 0.806616 0.112829 0.295774
O O4 0.763031 0.969486 0.419744
O O5 0.413891 0.885217 0.200288
O O6 0.500000 0.700477 0.750000
O O7 0.395606 0.596648 0.814723
O O8 0.472054 0.729765 0.915854
O O9 0.872385 0.884952 0.500000
O O10 0.000000 0.000000 0.500000
O O11 0.750000 0.750000 0.500000
#
# Coordination Sequence:
#
# PCOD8277685 Si02
#       6
#    16   8  16   8   8   8
#     4  11  23  40  67  99 140 181 228 299 367 424
#     4  11  25  44  68 104 141 187 238 298 380 433
#     4  12  25  46  71 102 143 191 246 303 370 447
#     4  12  26  45  75 111 143 196 253 316 367 452
#     4  11  21  40  68  94 129 181 234 288 346 429
#     4  12  25  43  70 107 144 185 247 310 367 450
#
# _framework density 21.352951000000001
#
# number of rings (size 3 to 8) (size 9 to 14) (size 15 to 20)
#    0.000    0.500    5.000    4.125    0.000    0.000 
#    0.000    3.750    0.000    0.000    0.000    0.000 
#    0.000    0.000    0.000    0.000    0.000    0.000 
#
# Total GULP energy -396566.797065 kJ/mol
# GULP energy per Si atom -12392.712408 kJ/mol
# Density = 2.130435 g / cm^3
# Si number density = 21.352951 Si / 1000 Ang^3
#
#
#
# Elastic Constant Matrix: (Units=GPa)
#
#
# Indices 1 2 3 4 5 6 
#
# 1 101.6675 50.1258 45.9567 0.0000 0.0000 0.0000
# 2 50.1258 152.7210 47.7451 0.0000 0.0000 0.0000
# 3 45.9567 47.7451 156.1652 0.0000 0.0000 0.0000
# 4 0.0000 0.0000 0.0000 -49.5348 0.0000 0.0000
# 5 0.0000 0.0000 0.0000 0.0000 20.3374 0.0000
# 6 0.0000 0.0000 0.0000 0.0000 0.0000 4.0500
#
#
#
# Elastic Compliance Matrix: (Units=1/GPa)
#
#
# Indices 1 2 3 4 5 6 
#
# 1 0.012703 -0.003318 -0.002724 0.000000 0.000000 0.000000
# 2 -0.003318 0.008106 -0.001502 0.000000 0.000000 0.000000
# 3 -0.002724 -0.001502 0.007664 0.000000 0.000000 0.000000
# 4 0.000000 0.000000 0.000000 -0.020188 0.000000 0.000000
# 5 0.000000 0.000000 0.000000 0.000000 0.049171 0.000000
# 6 0.000000 0.000000 0.000000 0.000000 0.000000 0.246911
#
#
# Mechanical properties :
#
#
# Convention : Reuss Voigt Hill
#
# Bulk Modulus (GPa) = 74.70343 77.57878 76.14111
# Shear Modulus (GPa) = 15.43607 12.75227 14.09417
#
# Velocity S-wave (km/s) = 2.69160 2.44645 2.57195
# Velocity P-wave (km/s) = 6.68735 6.66263 6.67500
#
# Compressibility (1/GPa) = 0.01338627
#
# Stress axis : x y z
#
# Youngs Moduli (GPa) = 78.72112 123.35883 130.47490
#
# Poissons Ratio (x) = 0.40928 0.35540
# Poissons Ratio (y) = 0.26118 0.19598
# Poissons Ratio (z) = 0.21443 0.18529
#
# Static dielectric constant tensor:
#      x y z
#    x 4.178470 0.000000 0.000000 
#    y 0.000000 3.913360 0.000000 
#    z 0.000000 0.000000 -6.905050 
# 
# 
# High freq. dielectric constant tensor:
#      x y z
#    x 1.838210 0.000000 0.000000 
#    y 0.000000 1.846930 0.000000 
#    z 0.000000 0.000000 1.844990 
# 
# From -- ./inp_files/42453.got.cif
#   From: 2010.03.12/outbox.cif.g09.slc.cpg/sg66_22_cif.got.tgz:42453.got - 2010.04.10 21:57:39.
