data_PCOD8277083
_publ_section_title
;
Structure prediction by ZEFSAII (Michael W. Deem and Ramdas Pophale) SiO2 
 PCOD8277083
Probable space group: C C C M
;
_chemical_formula_sum "Si O2"
_cell_formula_units_Z 96
_cell_length_a 15.498418
_cell_length_b 22.161287
_cell_length_c 13.391116
_cell_angle_alpha 90.000000
_cell_angle_beta 90.000000
_cell_angle_gamma 90.000000
_cell_volume 4599.378175
_symmetry_space_group_name_H-M "C C C M"
_symmetry_group_IT_number 66
_symmetry_cell_setting 'orthorhombic'
loop_
_space_group_symop_operation_xyz
x,y,z
-x,-y,z
x,-y,1/2-z
-x,y,1/2-z
-x,-y,-z
x,y,-z
-x,y,1/2+z
x,-y,1/2+z
1/2+x,1/2+y,z
1/2-x,1/2-y,z
1/2+x,1/2-y,1/2-z
1/2-x,1/2+y,1/2-z
1/2-x,1/2-y,-z
1/2+x,1/2+y,-z
1/2-x,1/2+y,1/2+z
1/2+x,1/2-y,1/2+z
loop_
_atom_site_type_symbol
_atom_site_label
_atom_site_fract_x
_atom_site_fract_y
_atom_site_fract_z
Si Si1 0.543687 0.440018 0.887981
Si Si2 0.822464 0.859897 0.293146
Si Si3 0.982627 0.431574 0.386774
Si Si4 0.091402 0.752840 0.114127
Si Si5 0.075855 0.173647 0.109490
Si Si6 0.124640 0.368706 0.713551
O O1 0.500000 0.500000 0.844021
O O2 0.621403 0.419430 0.816216
O O3 0.469977 0.390393 0.888933
O O4 0.579723 0.451165 0.000000
O O5 0.840742 0.808510 0.376384
O O6 0.846760 0.828103 0.188246
O O7 0.725251 0.883360 0.290178
O O8 0.947894 0.428498 0.500000
O O9 0.076069 0.400103 0.379086
O O10 0.000000 0.500000 0.351730
O O11 0.915531 0.395091 0.316547
O O12 0.112358 0.702856 0.197808
O O13 0.994553 0.775602 0.137217
O O14 0.098583 0.728975 0.000000
O O15 0.115367 0.186676 0.000000
#
# Coordination Sequence:
#
# PCOD8277083 Si02
#       6
#    16  16  16  16  16  16
#     4   9  18  35  55  81 120 165 207 246 297 366
#     4  11  22  35  59  94 130 160 207 263 309 362
#     4  10  24  48  70  87 120 163 205 263 331 386
#     4  10  21  38  61  90 130 169 205 251 306 373
#     4   9  20  37  56  82 120 167 205 244 303 364
#     4  11  23  39  64  98 120 154 211 261 317 373
#
# _framework density 20.872387
#
# number of rings (size 3 to 8) (size 9 to 14) (size 15 to 20)
#    0.000    2.000    0.000    5.500    4.667    5.333 
#    6.000    0.000    0.000    2.000    0.000    0.000 
#    0.000    0.000    0.000    0.000    0.000    0.000 
#
# Total GULP energy -594960.751067 kJ/mol
# GULP energy per Si atom -12395.015647 kJ/mol
# Density = 2.082488 g / cm^3
# Si number density = 20.872387 Si / 1000 Ang^3
#
#
#
# Elastic Constant Matrix: (Units=GPa)
#
#
# Indices 1 2 3 4 5 6 
#
# 1 108.2644 42.7408 40.0078 0.0000 0.0000 0.0000
# 2 42.7408 114.5291 37.1768 0.0000 0.0000 0.0000
# 3 40.0078 37.1768 120.4988 0.0000 0.0000 0.0000
# 4 0.0000 0.0000 0.0000 31.6960 0.0000 0.0000
# 5 0.0000 0.0000 0.0000 0.0000 15.7485 0.0000
# 6 0.0000 0.0000 0.0000 0.0000 0.0000 19.3922
#
#
#
# Elastic Compliance Matrix: (Units=1/GPa)
#
#
# Indices 1 2 3 4 5 6 
#
# 1 0.011626 -0.003429 -0.002802 0.000000 0.000000 0.000000
# 2 -0.003429 0.010715 -0.002167 0.000000 0.000000 0.000000
# 3 -0.002802 -0.002167 0.009898 0.000000 0.000000 0.000000
# 4 0.000000 0.000000 0.000000 0.031550 0.000000 0.000000
# 5 0.000000 0.000000 0.000000 0.000000 0.063498 0.000000
# 6 0.000000 0.000000 0.000000 0.000000 0.000000 0.051567
#
#
# Mechanical properties :
#
#
# Convention : Reuss Voigt Hill
#
# Bulk Modulus (GPa) = 64.76004 64.79367 64.77686
# Shear Modulus (GPa) = 24.90076 28.25846 26.57961
#
# Velocity S-wave (km/s) = 3.45773 3.68349 3.57239
# Velocity P-wave (km/s) = 6.85822 7.01434 6.93672
#
# Compressibility (1/GPa) = 0.01544162
#
# Stress axis : x y z
#
# Youngs Moduli (GPa) = 86.01531 93.33088 101.03255
#
# Poissons Ratio (x) = 0.32004 0.28310
# Poissons Ratio (y) = 0.29495 0.21896
# Poissons Ratio (z) = 0.24102 0.20227
#
# Static dielectric constant tensor:
#      x y z
#    x 3.476160 0.000000 0.000000 
#    y 0.000000 3.835320 0.000000 
#    z 0.000000 0.000000 4.032200 
# 
# 
# High freq. dielectric constant tensor:
#      x y z
#    x 1.782160 0.000000 0.000000 
#    y 0.000000 1.821800 0.000000 
#    z 0.000000 0.000000 1.830000 
# 
# From -- ./inp_files/28388.got.cif
#   From: 2010.03.12/outbox.cif.g09.slc.cpg/sg66_15_cif.got.tgz:28388.got - 2010.04.10 21:57:39.
