data_PCOD8277895
_publ_section_title
;
Structure prediction by ZEFSAII (Michael W. Deem and Ramdas Pophale) SiO2 
 PCOD8277895
Probable space group: C C C M
;
_chemical_formula_sum "Si O2"
_cell_formula_units_Z 88
_cell_length_a 12.352966
_cell_length_b 14.380185
_cell_length_c 23.165064
_cell_angle_alpha 90.000000
_cell_angle_beta 90.000000
_cell_angle_gamma 90.000000
_cell_volume 4114.994165
_symmetry_space_group_name_H-M "C C C M"
_symmetry_group_IT_number 66
_symmetry_cell_setting 'orthorhombic'
loop_
_space_group_symop_operation_xyz
x,y,z
-x,-y,z
x,-y,1/2-z
-x,y,1/2-z
-x,-y,-z
x,y,-z
-x,y,1/2+z
x,-y,1/2+z
1/2+x,1/2+y,z
1/2-x,1/2-y,z
1/2+x,1/2-y,1/2-z
1/2-x,1/2+y,1/2-z
1/2-x,1/2-y,-z
1/2+x,1/2+y,-z
1/2-x,1/2+y,1/2+z
1/2+x,1/2-y,1/2+z
loop_
_atom_site_type_symbol
_atom_site_label
_atom_site_fract_x
_atom_site_fract_y
_atom_site_fract_z
Si Si1 0.500000 0.249394 0.250000
Si Si2 0.733063 0.143756 0.880090
Si Si3 0.124056 0.993316 0.433001
Si Si4 0.310145 0.394508 0.252447
Si Si5 0.494605 0.896299 0.851417
Si Si6 0.724936 0.144835 0.633491
O O1 0.399778 0.317481 0.239844
O O2 0.518851 0.185398 0.194946
O O3 0.750000 0.250000 0.895468
O O4 0.752848 0.121966 0.813004
O O5 0.609779 0.112017 0.893499
O O6 0.816992 0.090425 0.920842
O O7 0.130057 0.967845 0.500000
O O8 0.181865 0.913389 0.397005
O O9 0.000000 0.000000 0.411884
O O10 0.356849 0.500000 0.250000
O O11 0.221606 0.379162 0.202041
O O12 0.604137 0.879704 0.888710
O O13 0.500000 0.000000 0.824009
O O14 0.750000 0.250000 0.619093
#
# Coordination Sequence:
#
# PCOD8277895 Si02
#       6
#     8  16  16  16  16  16
#     4  12  24  36  62 104 150 182 238 268 334 424
#     4  12  25  44  71 102 144 182 228 280 344 416
#     4  11  28  52  76  99 130 180 238 290 343 410
#     4  12  23  39  64 107 144 190 225 275 343 409
#     4  12  23  41  63 102 139 189 222 273 347 403
#     4  12  25  44  71 102 144 182 228 280 344 416
#
# _framework density 21.385207000000001
#
# number of rings (size 3 to 8) (size 9 to 14) (size 15 to 20)
#    0.000    0.182    7.273    2.182    5.091    0.727 
#    0.000    1.818    0.000    0.000    0.000    0.000 
#    0.000    0.000    0.000    0.000    0.000    0.000 
#
# Total GULP energy -545700.667907 kJ/mol
# GULP energy per Si atom -12402.287907 kJ/mol
# Density = 2.133653 g / cm^3
# Si number density = 21.385207 Si / 1000 Ang^3
#
#
#
# Elastic Constant Matrix: (Units=GPa)
#
#
# Indices 1 2 3 4 5 6 
#
# 1 165.0971 43.4440 19.5413 0.0000 0.0000 0.0000
# 2 43.4440 180.4927 -0.5188 0.0000 0.0000 0.0000
# 3 19.5413 -0.5188 40.8033 0.0000 0.0000 0.0000
# 4 0.0000 0.0000 0.0000 -5.4820 0.0000 0.0000
# 5 0.0000 0.0000 0.0000 0.0000 2.4965 0.0000
# 6 0.0000 0.0000 0.0000 0.0000 0.0000 35.7688
#
#
#
# Elastic Compliance Matrix: (Units=1/GPa)
#
#
# Indices 1 2 3 4 5 6 
#
# 1 0.006889 -0.001668 -0.003320 0.000000 0.000000 0.000000
# 2 -0.001668 0.005944 0.000874 0.000000 0.000000 0.000000
# 3 -0.003320 0.000874 0.026109 0.000000 0.000000 0.000000
# 4 0.000000 0.000000 0.000000 -0.182415 0.000000 0.000000
# 5 0.000000 0.000000 0.000000 0.000000 0.400562 0.000000
# 6 0.000000 0.000000 0.000000 0.000000 0.000000 0.027957
#
#
# Mechanical properties :
#
#
# Convention : Reuss Voigt Hill
#
# Bulk Modulus (GPa) = 32.55773 56.81401 44.68587
# Shear Modulus (GPa) = 16.47374 28.15176 22.31275
#
# Velocity S-wave (km/s) = 2.77850 3.63218 3.23363
# Velocity P-wave (km/s) = 5.05479 6.64943 5.90617
#
# Compressibility (1/GPa) = 0.03071468
#
# Stress axis : x y z
#
# Youngs Moduli (GPa) = 145.16127 168.22814 38.30080
#
# Poissons Ratio (x) = 0.28055 0.12717
# Poissons Ratio (y) = 0.24208 -0.03348
# Poissons Ratio (z) = 0.48199 -0.14707
#
# Static dielectric constant tensor:
#      x y z
#    x 4.535290 0.000000 0.000000 
#    y 0.000000 4.291740 0.000000 
#    z 0.000000 0.000000 3.415630 
# 
# 
# High freq. dielectric constant tensor:
#      x y z
#    x 1.863350 0.000000 0.000000 
#    y 0.000000 1.868870 0.000000 
#    z 0.000000 0.000000 1.786540 
# 
# From -- ./inp_files/56722.got.cif
#   From: 2010.03.12/outbox.cif.g09.slc.cpg/sg66_29_cif.got.tgz:56722.got - 2010.04.10 21:57:39.
