data_PCOD8277810
_publ_section_title
;
Structure prediction by ZEFSAII (Michael W. Deem and Ramdas Pophale) SiO2 
 PCOD8277810
Probable space group: C C C M
;
_chemical_formula_sum "Si O2"
_cell_formula_units_Z 68
_cell_length_a 21.602930
_cell_length_b 16.226312
_cell_length_c 9.004480
_cell_angle_alpha 90.000000
_cell_angle_beta 90.000000
_cell_angle_gamma 90.000000
_cell_volume 3156.393341
_symmetry_space_group_name_H-M "C C C M"
_symmetry_group_IT_number 66
_symmetry_cell_setting 'orthorhombic'
loop_
_space_group_symop_operation_xyz
x,y,z
-x,-y,z
x,-y,1/2-z
-x,y,1/2-z
-x,-y,-z
x,y,-z
-x,y,1/2+z
x,-y,1/2+z
1/2+x,1/2+y,z
1/2-x,1/2-y,z
1/2+x,1/2-y,1/2-z
1/2-x,1/2+y,1/2-z
1/2-x,1/2-y,-z
1/2+x,1/2+y,-z
1/2-x,1/2+y,1/2+z
1/2+x,1/2-y,1/2+z
loop_
_atom_site_type_symbol
_atom_site_label
_atom_site_fract_x
_atom_site_fract_y
_atom_site_fract_z
Si Si1 0.440252 0.197932 0.175197
Si Si2 0.500000 0.500000 0.750000
Si Si3 0.775677 0.165195 0.171450
Si Si4 0.152472 0.582954 0.827443
Si Si5 0.586647 0.357485 0.167060
O O1 0.500000 0.154110 0.250000
O O2 0.379185 0.160508 0.248542
O O3 0.443676 0.294603 0.216021
O O4 0.440566 0.184572 0.000000
O O5 0.452718 0.557973 0.841400
O O6 0.750000 0.250000 0.248681
O O7 0.725933 0.092755 0.197617
O O8 0.842425 0.131712 0.227021
O O9 0.783411 0.186098 0.000000
O O10 0.129031 0.500000 0.750000
O O11 0.134402 0.580817 0.000000
O O12 0.586072 0.320176 0.000000
#
# Coordination Sequence:
#
# PCOD8277810 Si02
#       5
#    16   4  16  16  16
#     4  12  25  43  68  96 128 170 220 272 335 402
#     4  12  26  36  68 102 144 184 228 268 334 400
#     4   9  18  37  66  93 126 177 222 271 334 395
#     4  11  23  42  67  97 135 173 221 277 337 398
#     4  11  23  42  64  94 137 180 226 273 333 398
#
# _framework density 21.543575000000001
#
# number of rings (size 3 to 8) (size 9 to 14) (size 15 to 20)
#    0.000    1.176    3.529    3.176    1.647    1.412 
#    0.000    5.882    0.000    0.000    0.000    0.000 
#    0.000    0.000    0.000    0.000    0.000    0.000 
#
# Total GULP energy -421382.611601 kJ/mol
# GULP energy per Si atom -12393.606224 kJ/mol
# Density = 2.149454 g / cm^3
# Si number density = 21.543575 Si / 1000 Ang^3
#
#
#
# Elastic Constant Matrix: (Units=GPa)
#
#
# Indices 1 2 3 4 5 6 
#
# 1 156.0432 39.2426 46.4211 0.0000 0.0000 0.0000
# 2 39.2426 101.9937 33.2784 0.0000 0.0000 0.0000
# 3 46.4211 33.2784 135.0764 0.0000 0.0000 0.0000
# 4 0.0000 0.0000 0.0000 27.6034 0.0000 0.0000
# 5 0.0000 0.0000 0.0000 0.0000 26.0790 0.0000
# 6 0.0000 0.0000 0.0000 0.0000 0.0000 36.7110
#
#
#
# Elastic Compliance Matrix: (Units=1/GPa)
#
#
# Indices 1 2 3 4 5 6 
#
# 1 0.007585 -0.002248 -0.002053 0.000000 0.000000 0.000000
# 2 -0.002248 0.011328 -0.002018 0.000000 0.000000 0.000000
# 3 -0.002053 -0.002018 0.008606 0.000000 0.000000 0.000000
# 4 0.000000 0.000000 0.000000 0.036227 0.000000 0.000000
# 5 0.000000 0.000000 0.000000 0.000000 0.038345 0.000000
# 6 0.000000 0.000000 0.000000 0.000000 0.000000 0.027240
#
#
# Mechanical properties :
#
#
# Convention : Reuss Voigt Hill
#
# Bulk Modulus (GPa) = 67.20405 70.11082 68.65743
# Shear Modulus (GPa) = 34.02998 36.35676 35.19337
#
# Velocity S-wave (km/s) = 3.97872 4.11249 4.04615
# Velocity P-wave (km/s) = 7.23665 7.42728 7.33258
#
# Compressibility (1/GPa) = 0.01488006
#
# Stress axis : x y z
#
# Youngs Moduli (GPa) = 131.84665 88.27586 116.20027
#
# Poissons Ratio (x) = 0.19849 0.23851
# Poissons Ratio (y) = 0.29645 0.23451
# Poissons Ratio (z) = 0.27063 0.17815
#
# Static dielectric constant tensor:
#      x y z
#    x 4.338010 0.000000 0.000000 
#    y 0.000000 3.620830 0.000000 
#    z 0.000000 0.000000 3.495720 
# 
# 
# High freq. dielectric constant tensor:
#      x y z
#    x 1.873120 0.000000 0.000000 
#    y 0.000000 1.830740 0.000000 
#    z 0.000000 0.000000 1.816030 
# 
# From -- ./inp_files/6259.got.cif
#   From: 2010.03.12/outbox.cif.g09.slc.cpg/sg66_4_cif.got.tgz:6259.got - 2010.04.10 21:57:39.
