data_PCOD8277623
_publ_section_title
;
Structure prediction by ZEFSAII (Michael W. Deem and Ramdas Pophale) SiO2 
 PCOD8277623
Probable space group: C C C M
;
_chemical_formula_sum "Si O2"
_cell_formula_units_Z 80
_cell_length_a 19.992651
_cell_length_b 19.469381
_cell_length_c 10.763360
_cell_angle_alpha 90.000000
_cell_angle_beta 90.000000
_cell_angle_gamma 90.000000
_cell_volume 4189.579107
_symmetry_space_group_name_H-M "C C C M"
_symmetry_group_IT_number 66
_symmetry_cell_setting 'orthorhombic'
loop_
_space_group_symop_operation_xyz
x,y,z
-x,-y,z
x,-y,1/2-z
-x,y,1/2-z
-x,-y,-z
x,y,-z
-x,y,1/2+z
x,-y,1/2+z
1/2+x,1/2+y,z
1/2-x,1/2-y,z
1/2+x,1/2-y,1/2-z
1/2-x,1/2+y,1/2-z
1/2-x,1/2-y,-z
1/2+x,1/2+y,-z
1/2-x,1/2+y,1/2+z
1/2+x,1/2-y,1/2+z
loop_
_atom_site_type_symbol
_atom_site_label
_atom_site_fract_x
_atom_site_fract_y
_atom_site_fract_z
Si Si1 0.370040 0.942482 0.147039
Si Si2 0.774637 0.075317 0.752813
Si Si3 0.228989 0.143958 0.000000
Si Si4 0.423121 0.802744 0.244292
Si Si5 0.686204 0.289900 0.141452
Si Si6 0.856671 0.731626 0.000000
O O1 0.292021 0.924532 0.162869
O O2 0.415372 0.877517 0.183202
O O3 0.389866 0.000000 0.250000
O O4 0.382932 0.962540 0.000000
O O5 0.758062 0.092873 0.612444
O O6 0.824034 0.134117 0.802671
O O7 0.808980 0.000000 0.750000
O O8 0.156950 0.185036 0.000000
O O9 0.284117 0.201179 0.000000
O O10 0.500000 0.781324 0.250000
O O11 0.382768 0.750006 0.157730
O O12 0.396192 0.796443 0.382679
O O13 0.750000 0.250000 0.205794
O O14 0.704531 0.299142 0.000000
#
# Coordination Sequence:
#
# PCOD8277623 Si02
#       6
#    16  16   8  16  16   8
#     4  11  25  42  62  91 128 170 213 257 306 368
#     4  11  23  35  62  94 128 159 203 258 315 375
#     4  11  20  40  62  94 124 160 211 258 321 365
#     4  12  26  41  63  92 126 166 211 258 313 376
#     4  11  21  40  63  89 122 160 208 263 310 363
#     4  11  22  40  64  89 125 165 204 270 311 367
#
# _framework density 19.094996999999999
#
# number of rings (size 3 to 8) (size 9 to 14) (size 15 to 20)
#    0.000    0.800    6.000    1.200   11.200    0.400 
#    0.000    1.000    0.000    0.600    0.000    2.800 
#    0.000    0.000    0.000    0.000    0.000    0.000 
#
# Total GULP energy -495746.142012 kJ/mol
# GULP energy per Si atom -12393.653550 kJ/mol
# Density = 1.905154 g / cm^3
# Si number density = 19.094997 Si / 1000 Ang^3
#
#
#
# Elastic Constant Matrix: (Units=GPa)
#
#
# Indices 1 2 3 4 5 6 
#
# 1 85.7981 47.5316 19.2633 0.0000 0.0000 0.0000
# 2 47.5316 142.0941 40.5711 0.0000 0.0000 0.0000
# 3 19.2633 40.5711 137.5558 0.0000 0.0000 0.0000
# 4 0.0000 0.0000 0.0000 35.3061 0.0000 0.0000
# 5 0.0000 0.0000 0.0000 0.0000 31.1915 0.0000
# 6 0.0000 0.0000 0.0000 0.0000 0.0000 17.6803
#
#
#
# Elastic Compliance Matrix: (Units=1/GPa)
#
#
# Indices 1 2 3 4 5 6 
#
# 1 0.014359 -0.004618 -0.000649 0.000000 0.000000 0.000000
# 2 -0.004618 0.009170 -0.002058 0.000000 0.000000 0.000000
# 3 -0.000649 -0.002058 0.007968 0.000000 0.000000 0.000000
# 4 0.000000 0.000000 0.000000 0.028324 0.000000 0.000000
# 5 0.000000 0.000000 0.000000 0.000000 0.032060 0.000000
# 6 0.000000 0.000000 0.000000 0.000000 0.000000 0.056560
#
#
# Mechanical properties :
#
#
# Convention : Reuss Voigt Hill
#
# Bulk Modulus (GPa) = 59.35662 64.46445 61.91054
# Shear Modulus (GPa) = 29.63733 34.04104 31.83918
#
# Velocity S-wave (km/s) = 3.94394 4.22681 4.08782
# Velocity P-wave (km/s) = 7.20361 7.59305 7.40089
#
# Compressibility (1/GPa) = 0.01684732
#
# Stress axis : x y z
#
# Youngs Moduli (GPa) = 69.64122 109.05199 125.50834
#
# Poissons Ratio (x) = 0.50361 0.08143
# Poissons Ratio (y) = 0.32161 0.25828
# Poissons Ratio (z) = 0.04518 0.22442
#
# Static dielectric constant tensor:
#      x y z
#    x 3.352000 0.000000 0.000000 
#    y 0.000000 3.716920 0.000000 
#    z 0.000000 0.000000 3.759140 
# 
# 
# High freq. dielectric constant tensor:
#      x y z
#    x 1.692180 0.000000 0.000000 
#    y 0.000000 1.750530 0.000000 
#    z 0.000000 0.000000 1.767630 
# 
# From -- ./inp_files/18735.got.cif
#   From: 2010.03.12/outbox.cif.g09.slc.cpg/sg66_10_cif.got.tgz:18735.got - 2010.04.10 21:57:39.
