data_PCOD8277400
_publ_section_title
;
Structure prediction by ZEFSAII (Michael W. Deem and Ramdas Pophale) SiO2 
 PCOD8277400
Probable space group: C C C M
;
_chemical_formula_sum "Si O2"
_cell_formula_units_Z 112
_cell_length_a 10.524686
_cell_length_b 15.145483
_cell_length_c 30.880203
_cell_angle_alpha 90.000000
_cell_angle_beta 90.000000
_cell_angle_gamma 90.000000
_cell_volume 4922.349224
_symmetry_space_group_name_H-M "C C C M"
_symmetry_group_IT_number 66
_symmetry_cell_setting 'orthorhombic'
loop_
_space_group_symop_operation_xyz
x,y,z
-x,-y,z
x,-y,1/2-z
-x,y,1/2-z
-x,-y,-z
x,y,-z
-x,y,1/2+z
x,-y,1/2+z
1/2+x,1/2+y,z
1/2-x,1/2-y,z
1/2+x,1/2-y,1/2-z
1/2-x,1/2+y,1/2-z
1/2-x,1/2-y,-z
1/2+x,1/2+y,-z
1/2-x,1/2+y,1/2+z
1/2+x,1/2-y,1/2+z
loop_
_atom_site_type_symbol
_atom_site_label
_atom_site_fract_x
_atom_site_fract_y
_atom_site_fract_z
Si Si1 0.845710 0.587116 0.271797
Si Si2 0.619691 0.707713 0.393849
Si Si3 0.105784 0.724852 0.550811
Si Si4 0.392658 0.616165 0.714347
Si Si5 0.516178 0.796282 0.821485
Si Si6 0.814129 0.028224 0.850596
Si Si7 0.606906 0.072613 0.388338
O O1 0.903691 0.500000 0.250000
O O2 0.741283 0.624473 0.238739
O O3 0.959973 0.656797 0.278732
O O4 0.790157 0.570395 0.319175
O O5 0.750000 0.750000 0.414494
O O6 0.500999 0.712848 0.427185
O O7 0.599382 0.771556 0.353094
O O8 0.615951 0.606691 0.376494
O O9 0.084487 0.730003 0.500000
O O10 0.250000 0.750000 0.564049
O O11 0.084427 0.624716 0.566988
O O12 0.500000 0.596139 0.750000
O O13 0.408696 0.708897 0.691084
O O14 0.401210 0.537079 0.678825
O O15 0.610246 0.861957 0.846872
O O16 0.744474 0.973043 0.888376
O O17 0.500000 0.000000 0.382511
#
# Coordination Sequence:
#
# PCOD8277400 Si02
#       7
#    16  16  16  16  16  16  16
#     4  10  22  43  62  88 133 187 239 305 359 405
#     4  11  22  43  78 106 141 191 235 295 355 429
#     4  10  25  50  77 112 151 181 222 284 363 452
#     4  11  27  41  61  94 137 189 242 304 371 411
#     4  11  24  43  65  92 137 187 244 297 356 426
#     4  11  23  42  67 100 136 174 243 299 351 419
#     4  11  23  45  73 104 131 185 238 292 351 431
#
# _framework density 22.753364999999999
#
# number of rings (size 3 to 8) (size 9 to 14) (size 15 to 20)
#    0.000    1.286    2.857    1.714    4.000   10.571 
#    0.000    2.857    0.000    1.714    0.000    0.000 
#    0.000    0.000    0.000    0.000    0.000    0.000 
#
# Total GULP energy -694153.225903 kJ/mol
# GULP energy per Si atom -12395.593320 kJ/mol
# Density = 2.270158 g / cm^3
# Si number density = 22.753365 Si / 1000 Ang^3
#
#
#
# Elastic Constant Matrix: (Units=GPa)
#
#
# Indices 1 2 3 4 5 6 
#
# 1 88.6596 49.6822 59.9600 0.0000 0.0000 0.0000
# 2 49.6822 151.8538 70.5161 0.0000 0.0000 0.0000
# 3 59.9600 70.5161 115.6420 0.0000 0.0000 0.0000
# 4 0.0000 0.0000 0.0000 26.0576 0.0000 0.0000
# 5 0.0000 0.0000 0.0000 0.0000 25.8803 0.0000
# 6 0.0000 0.0000 0.0000 0.0000 0.0000 35.8956
#
#
#
# Elastic Compliance Matrix: (Units=1/GPa)
#
#
# Indices 1 2 3 4 5 6 
#
# 1 0.017861 -0.002153 -0.007948 0.000000 0.000000 0.000000
# 2 -0.002153 0.009446 -0.004644 0.000000 0.000000 0.000000
# 3 -0.007948 -0.004644 0.015600 0.000000 0.000000 0.000000
# 4 0.000000 0.000000 0.000000 0.038377 0.000000 0.000000
# 5 0.000000 0.000000 0.000000 0.000000 0.038639 0.000000
# 6 0.000000 0.000000 0.000000 0.000000 0.000000 0.027859
#
#
# Mechanical properties :
#
#
# Convention : Reuss Voigt Hill
#
# Bulk Modulus (GPa) = 74.52846 79.60800 77.06823
# Shear Modulus (GPa) = 27.51140 29.29983 28.40562
#
# Velocity S-wave (km/s) = 3.48100 3.59237 3.53712
# Velocity P-wave (km/s) = 6.99875 7.22981 7.11522
#
# Compressibility (1/GPa) = 0.01341769
#
# Stress axis : x y z
#
# Youngs Moduli (GPa) = 55.98931 105.86459 64.10218
#
# Poissons Ratio (x) = 0.22789 0.50948
# Poissons Ratio (y) = 0.12053 0.29768
# Poissons Ratio (z) = 0.44500 0.49162
#
# Static dielectric constant tensor:
#      x y z
#    x 4.216360 0.000000 0.000000 
#    y 0.000000 4.387690 0.000000 
#    z 0.000000 0.000000 3.802990 
# 
# 
# High freq. dielectric constant tensor:
#      x y z
#    x 1.915420 0.000000 0.000000 
#    y 0.000000 1.912900 0.000000 
#    z 0.000000 0.000000 1.866000 
# 
# From -- ./inp_files/69087.got.cif
#   From: 2010.03.12/outbox.cif.g09.slc.cpg/sg66_35_cif.got.tgz:69087.got - 2010.04.10 21:57:39.
