data_PCOD8277553
_publ_section_title
;
Structure prediction by ZEFSAII (Michael W. Deem and Ramdas Pophale) SiO2 
 PCOD8277553
Probable space group: C C C M
;
_chemical_formula_sum "Si O2"
_cell_formula_units_Z 104
_cell_length_a 8.911098
_cell_length_b 18.906805
_cell_length_c 28.916843
_cell_angle_alpha 90.000000
_cell_angle_beta 90.000000
_cell_angle_gamma 90.000000
_cell_volume 4871.921050
_symmetry_space_group_name_H-M "C C C M"
_symmetry_group_IT_number 66
_symmetry_cell_setting 'orthorhombic'
loop_
_space_group_symop_operation_xyz
x,y,z
-x,-y,z
x,-y,1/2-z
-x,y,1/2-z
-x,-y,-z
x,y,-z
-x,y,1/2+z
x,-y,1/2+z
1/2+x,1/2+y,z
1/2-x,1/2-y,z
1/2+x,1/2-y,1/2-z
1/2-x,1/2+y,1/2-z
1/2-x,1/2-y,-z
1/2+x,1/2+y,-z
1/2-x,1/2+y,1/2+z
1/2+x,1/2-y,1/2+z
loop_
_atom_site_type_symbol
_atom_site_label
_atom_site_fract_x
_atom_site_fract_y
_atom_site_fract_z
Si Si1 0.404884 0.613642 0.631839
Si Si2 0.596357 0.900451 0.449135
Si Si3 0.989400 0.658171 0.801290
Si Si4 0.214307 0.528189 0.697785
Si Si5 0.254615 0.112442 0.642392
Si Si6 0.250000 0.250000 0.146845
Si Si7 0.772630 0.556338 0.949092
O O1 0.345777 0.581396 0.680452
O O2 0.579019 0.624634 0.640507
O O3 0.332156 0.689026 0.617558
O O4 0.361091 0.563625 0.588397
O O5 0.624336 0.865692 0.500000
O O6 0.682355 0.863031 0.407511
O O7 0.418595 0.895838 0.437269
O O8 0.663280 0.978340 0.450125
O O9 0.937731 0.574988 0.803201
O O10 0.876631 0.712497 0.823516
O O11 0.000000 0.685574 0.750000
O O12 0.156949 0.663585 0.822412
O O13 0.247881 0.500000 0.750000
O O14 0.207332 0.467360 0.658880
O O15 0.708019 0.575901 0.000000
#
# Coordination Sequence:
#
# PCOD8277553 Si02
#       7
#    16  16  16  16  16   8  16
#     4  11  24  41  60  90 125 168 204 260 303 362
#     4   9  18  33  58  93 128 162 198 246 310 386
#     4  11  24  43  64  88 118 168 206 253 300 370
#     4  11  22  40  61  90 126 160 199 244 316 374
#     4  12  23  35  64  97 126 155 200 258 316 367
#     4  10  26  46  61  78 122 168 221 252 298 356
#     4   9  18  35  60  88 124 166 203 244 312 378
#
# _framework density 21.346817000000001
#
# number of rings (size 3 to 8) (size 9 to 14) (size 15 to 20)
#    0.000    1.538    3.077    3.692    2.154    3.692 
#    0.000    1.923    0.000    0.923    0.000    4.308 
#    0.000    0.000    0.000    0.000    0.000    0.000 
#
# Total GULP energy -644223.361582 kJ/mol
# GULP energy per Si atom -12388.910800 kJ/mol
# Density = 2.129823 g / cm^3
# Si number density = 21.346817 Si / 1000 Ang^3
#
#
#
# Elastic Constant Matrix: (Units=GPa)
#
#
# Indices 1 2 3 4 5 6 
#
# 1 151.4218 10.3505 61.8293 0.0000 0.0000 0.0000
# 2 10.3505 43.9783 8.1698 0.0000 0.0000 0.0000
# 3 61.8293 8.1698 137.4073 0.0000 0.0000 0.0000
# 4 0.0000 0.0000 0.0000 11.1541 0.0000 0.0000
# 5 0.0000 0.0000 0.0000 0.0000 12.6951 0.0000
# 6 0.0000 0.0000 0.0000 0.0000 0.0000 16.5670
#
#
#
# Elastic Compliance Matrix: (Units=1/GPa)
#
#
# Indices 1 2 3 4 5 6 
#
# 1 0.008158 -0.001252 -0.003597 0.000000 0.000000 0.000000
# 2 -0.001252 0.023185 -0.000815 0.000000 0.000000 0.000000
# 3 -0.003597 -0.000815 0.008944 0.000000 0.000000 0.000000
# 4 0.000000 0.000000 0.000000 0.089653 0.000000 0.000000
# 5 0.000000 0.000000 0.000000 0.000000 0.078770 0.000000
# 6 0.000000 0.000000 0.000000 0.000000 0.000000 0.060361
#
#
# Mechanical properties :
#
#
# Convention : Reuss Voigt Hill
#
# Bulk Modulus (GPa) = 34.53040 54.83408 44.68224
# Shear Modulus (GPa) = 17.23830 24.91378 21.07604
#
# Velocity S-wave (km/s) = 2.84480 3.41998 3.14557
# Velocity P-wave (km/s) = 5.19630 6.42947 5.84549
#
# Compressibility (1/GPa) = 0.02895999
#
# Stress axis : x y z
#
# Youngs Moduli (GPa) = 122.57615 43.13211 111.80143
#
# Poissons Ratio (x) = 0.05400 0.40210
# Poissons Ratio (y) = 0.15346 0.09113
# Poissons Ratio (z) = 0.44085 0.03516
#
# Static dielectric constant tensor:
#      x y z
#    x 3.725780 0.000000 0.000000 
#    y 0.000000 3.690510 0.000000 
#    z 0.000000 0.000000 4.372430 
# 
# 
# High freq. dielectric constant tensor:
#      x y z
#    x 1.839060 0.000000 0.000000 
#    y 0.000000 1.798490 0.000000 
#    z 0.000000 0.000000 1.844080 
# 
# From -- ./inp_files/68283.got.cif
#   From: 2010.03.12/outbox.cif.g09.slc.cpg/sg66_35_cif.got.tgz:68283.got - 2010.04.10 21:57:39.
