data_PCOD8277864
_publ_section_title
;
Structure prediction by ZEFSAII (Michael W. Deem and Ramdas Pophale) SiO2 
 PCOD8277864
Probable space group: C C C M
;
_chemical_formula_sum "Si O2"
_cell_formula_units_Z 68
_cell_length_a 6.117728
_cell_length_b 27.060741
_cell_length_c 18.551448
_cell_angle_alpha 90.000000
_cell_angle_beta 90.000000
_cell_angle_gamma 90.000000
_cell_volume 3071.196908
_symmetry_space_group_name_H-M "C C C M"
_symmetry_group_IT_number 66
_symmetry_cell_setting 'orthorhombic'
loop_
_space_group_symop_operation_xyz
x,y,z
-x,-y,z
x,-y,1/2-z
-x,y,1/2-z
-x,-y,-z
x,y,-z
-x,y,1/2+z
x,-y,1/2+z
1/2+x,1/2+y,z
1/2-x,1/2-y,z
1/2+x,1/2-y,1/2-z
1/2-x,1/2+y,1/2-z
1/2-x,1/2-y,-z
1/2+x,1/2+y,-z
1/2-x,1/2+y,1/2+z
1/2+x,1/2-y,1/2+z
loop_
_atom_site_type_symbol
_atom_site_label
_atom_site_fract_x
_atom_site_fract_y
_atom_site_fract_z
Si Si1 0.000000 0.000000 0.750000
Si Si2 0.343449 0.954965 0.152662
Si Si3 0.205108 0.807149 0.000000
Si Si4 0.015165 0.351561 0.375791
Si Si5 0.500000 0.775926 0.250000
Si Si6 0.649507 0.546738 0.500000
Si Si7 0.817033 0.135992 0.500000
O O1 0.126763 0.037573 0.698514
O O2 0.432046 0.900443 0.171479
O O3 0.308533 0.954995 0.067550
O O4 0.500000 0.000000 0.175315
O O5 0.250000 0.750000 0.000000
O O6 0.291825 0.833698 0.928036
O O7 0.943287 0.811709 0.000000
O O8 0.814298 0.366989 0.426244
O O9 0.958888 0.307927 0.321197
O O10 0.750000 0.750000 0.258260
O O11 0.500000 0.500000 0.500000
O O12 0.500740 0.594491 0.500000
#
# Coordination Sequence:
#
# PCOD8277864 Si02
#       7
#     4  16   8  16   8   8   8
#     4  12  30  44  72 102 152 206 244 312 380 468
#     4  12  26  47  69 108 146 191 253 304 387 460
#     4  11  24  46  75 108 143 187 256 316 389 443
#     4  11  27  46  75 109 148 197 249 322 379 468
#     4  12  32  53  79 114 155 212 265 322 398 470
#     4  12  21  42  73 103 142 193 242 314 370 460
#     4  11  24  45  75 113 141 190 252 311 400 450
#
# _framework density 22.141206
#
# number of rings (size 3 to 8) (size 9 to 14) (size 15 to 20)
#    0.000    0.471    3.529    3.529    9.882    1.882 
#    0.000    0.000    0.000    0.000    0.000    0.000 
#    0.000    0.000    0.000    0.000    0.000    0.000 
#
# Total GULP energy -421264.736947 kJ/mol
# GULP energy per Si atom -12390.139322 kJ/mol
# Density = 2.209081 g / cm^3
# Si number density = 22.141206 Si / 1000 Ang^3
#
#
#
# Elastic Constant Matrix: (Units=GPa)
#
#
# Indices 1 2 3 4 5 6 
#
# 1 113.1508 52.0580 30.2906 0.0000 0.0000 0.0000
# 2 52.0580 153.7970 29.2030 0.0000 0.0000 0.0000
# 3 30.2906 29.2030 121.5765 0.0000 0.0000 0.0000
# 4 0.0000 0.0000 0.0000 9.6069 0.0000 0.0000
# 5 0.0000 0.0000 0.0000 0.0000 11.4258 0.0000
# 6 0.0000 0.0000 0.0000 0.0000 0.0000 35.0064
#
#
#
# Elastic Compliance Matrix: (Units=1/GPa)
#
#
# Indices 1 2 3 4 5 6 
#
# 1 0.010877 -0.003318 -0.001913 0.000000 0.000000 0.000000
# 2 -0.003318 0.007825 -0.001053 0.000000 0.000000 0.000000
# 3 -0.001913 -0.001053 0.008955 0.000000 0.000000 0.000000
# 4 0.000000 0.000000 0.000000 0.104092 0.000000 0.000000
# 5 0.000000 0.000000 0.000000 0.000000 0.087522 0.000000
# 6 0.000000 0.000000 0.000000 0.000000 0.000000 0.028566
#
#
# Mechanical properties :
#
#
# Convention : Reuss Voigt Hill
#
# Bulk Modulus (GPa) = 66.27585 67.95860 67.11723
# Shear Modulus (GPa) = 18.83709 29.67266 24.25487
#
# Velocity S-wave (km/s) = 2.91996 3.66478 3.31337
# Velocity P-wave (km/s) = 6.43168 6.97620 6.70947
#
# Compressibility (1/GPa) = 0.01508845
#
# Stress axis : x y z
#
# Youngs Moduli (GPa) = 91.94128 127.79220 111.67257
#
# Poissons Ratio (x) = 0.42406 0.21361
# Poissons Ratio (y) = 0.30509 0.11758
# Poissons Ratio (z) = 0.17586 0.13455
#
# Static dielectric constant tensor:
#      x y z
#    x 4.816470 0.000000 0.000000 
#    y 0.000000 4.404940 0.000000 
#    z 0.000000 0.000000 4.297810 
# 
# 
# High freq. dielectric constant tensor:
#      x y z
#    x 1.878740 0.000000 0.000000 
#    y 0.000000 1.884970 0.000000 
#    z 0.000000 0.000000 1.888640 
# 
# From -- ./inp_files/45811.got.cif
#   From: 2010.03.12/outbox.cif.g09.slc.cpg/sg66_23_cif.got.tgz:45811.got - 2010.04.10 21:57:39.
