data_PCOD8277483
_publ_section_title
;
Structure prediction by ZEFSAII (Michael W. Deem and Ramdas Pophale) SiO2 
 PCOD8277483
Probable space group: C C C M
;
_chemical_formula_sum "Si O2"
_cell_formula_units_Z 96
_cell_length_a 20.631759
_cell_length_b 15.928195
_cell_length_c 13.493072
_cell_angle_alpha 90.000000
_cell_angle_beta 90.000000
_cell_angle_gamma 90.000000
_cell_volume 4434.183462
_symmetry_space_group_name_H-M "C C C M"
_symmetry_group_IT_number 66
_symmetry_cell_setting 'orthorhombic'
loop_
_space_group_symop_operation_xyz
x,y,z
-x,-y,z
x,-y,1/2-z
-x,y,1/2-z
-x,-y,-z
x,y,-z
-x,y,1/2+z
x,-y,1/2+z
1/2+x,1/2+y,z
1/2-x,1/2-y,z
1/2+x,1/2-y,1/2-z
1/2-x,1/2+y,1/2-z
1/2-x,1/2-y,-z
1/2+x,1/2+y,-z
1/2-x,1/2+y,1/2+z
1/2+x,1/2-y,1/2+z
loop_
_atom_site_type_symbol
_atom_site_label
_atom_site_fract_x
_atom_site_fract_y
_atom_site_fract_z
Si Si1 0.301257 0.086697 0.789696
Si Si2 0.750000 0.750000 0.310801
Si Si3 0.403302 0.224268 0.000000
Si Si4 0.067695 0.334764 0.779814
Si Si5 0.070508 0.978844 0.862502
Si Si6 0.865340 0.099844 0.500000
Si Si7 0.388490 0.287759 0.611462
Si Si8 0.219814 0.626539 0.500000
O O1 0.260213 0.168847 0.759520
O O2 0.375473 0.099711 0.755280
O O3 0.299270 0.071312 0.906188
O O4 0.272006 0.000000 0.750000
O O5 0.688399 0.729250 0.378694
O O6 0.433411 0.189029 0.897071
O O7 0.416509 0.323606 0.000000
O O8 0.325294 0.209500 0.000000
O O9 0.074811 0.255764 0.703899
O O10 0.000000 0.378161 0.750000
O O11 0.124594 0.041727 0.904758
O O12 0.066672 0.000000 0.750000
O O13 0.093549 0.885216 0.884068
O O14 0.000000 0.000000 0.910585
O O15 0.795834 0.144607 0.500000
O O16 0.408310 0.255282 0.500000
#
# Coordination Sequence:
#
# PCOD8277483 Si02
#       8
#    16   8   8  16  16   8  16   8
#     4  10  24  45  67 100 138 168 223 281 329 401
#     4  10  25  43  70  96 134 181 220 275 342 402
#     4  10  23  43  64  94 135 163 232 285 324 397
#     4  10  24  42  69  96 123 180 218 272 338 393
#     4  11  26  40  56  92 133 176 225 272 335 406
#     4  12  24  36  64  92 120 181 217 272 336 388
#     4  11  24  42  63  94 135 175 223 278 335 412
#     4  10  25  39  66  98 127 174 220 276 337 389
#
# _framework density 21.649982000000001
#
# number of rings (size 3 to 8) (size 9 to 14) (size 15 to 20)
#    0.000    1.500    0.833    1.750   17.500    0.333 
#    6.000    0.000    0.000    3.000    0.000    0.000 
#    0.000    0.000    0.000    0.000    0.000    0.000 
#
# Total GULP energy -594738.195754 kJ/mol
# GULP energy per Si atom -12390.379078 kJ/mol
# Density = 2.160071 g / cm^3
# Si number density = 21.649982 Si / 1000 Ang^3
#
#
#
# Elastic Constant Matrix: (Units=GPa)
#
#
# Indices 1 2 3 4 5 6 
#
# 1 88.7900 11.7222 22.3810 0.0000 0.0000 0.0000
# 2 11.7222 115.0241 40.4387 0.0000 0.0000 0.0000
# 3 22.3810 40.4387 160.1231 0.0000 0.0000 0.0000
# 4 0.0000 0.0000 0.0000 7.9850 0.0000 0.0000
# 5 0.0000 0.0000 0.0000 0.0000 32.0463 0.0000
# 6 0.0000 0.0000 0.0000 0.0000 0.0000 19.1937
#
#
#
# Elastic Compliance Matrix: (Units=1/GPa)
#
#
# Indices 1 2 3 4 5 6 
#
# 1 0.011722 -0.000679 -0.001467 0.000000 0.000000 0.000000
# 2 -0.000679 0.009580 -0.002325 0.000000 0.000000 0.000000
# 3 -0.001467 -0.002325 0.007037 0.000000 0.000000 0.000000
# 4 0.000000 0.000000 0.000000 0.125235 0.000000 0.000000
# 5 0.000000 0.000000 0.000000 0.000000 0.031205 0.000000
# 6 0.000000 0.000000 0.000000 0.000000 0.000000 0.052100
#
#
# Mechanical properties :
#
#
# Convention : Reuss Voigt Hill
#
# Bulk Modulus (GPa) = 51.54995 57.00236 54.27615
# Shear Modulus (GPa) = 19.81875 31.13803 25.47839
#
# Velocity S-wave (km/s) = 3.02887 3.79654 3.43422
# Velocity P-wave (km/s) = 6.00786 6.75311 6.39135
#
# Compressibility (1/GPa) = 0.01939866
#
# Stress axis : x y z
#
# Youngs Moduli (GPa) = 85.31022 104.38131 142.09970
#
# Poissons Ratio (x) = 0.07086 0.20846
# Poissons Ratio (y) = 0.05791 0.33032
# Poissons Ratio (z) = 0.12515 0.24264
#
# Static dielectric constant tensor:
#      x y z
#    x 4.152030 0.000000 0.000000 
#    y 0.000000 3.649400 0.000000 
#    z 0.000000 0.000000 4.147530 
# 
# 
# High freq. dielectric constant tensor:
#      x y z
#    x 1.855200 0.000000 0.000000 
#    y 0.000000 1.831250 0.000000 
#    z 0.000000 0.000000 1.869200 
# 
# From -- ./inp_files/31277.got.cif
#   From: 2010.03.12/outbox.cif.g09.slc.cpg/sg66_16_cif.got.tgz:31277.got - 2010.04.10 21:57:39.
