data_PCOD8277050
_publ_section_title
;
Structure prediction by ZEFSAII (Michael W. Deem and Ramdas Pophale) SiO2 
 PCOD8277050
Probable space group: C C C M
;
_chemical_formula_sum "Si O2"
_cell_formula_units_Z 72
_cell_length_a 24.882793
_cell_length_b 5.088548
_cell_length_c 31.635621
_cell_angle_alpha 90.000000
_cell_angle_beta 90.000000
_cell_angle_gamma 90.000000
_cell_volume 4005.616489
_symmetry_space_group_name_H-M "C C C M"
_symmetry_group_IT_number 66
_symmetry_cell_setting 'orthorhombic'
loop_
_space_group_symop_operation_xyz
x,y,z
-x,-y,z
x,-y,1/2-z
-x,y,1/2-z
-x,-y,-z
x,y,-z
-x,y,1/2+z
x,-y,1/2+z
1/2+x,1/2+y,z
1/2-x,1/2-y,z
1/2+x,1/2-y,1/2-z
1/2-x,1/2+y,1/2-z
1/2-x,1/2-y,-z
1/2+x,1/2+y,-z
1/2-x,1/2+y,1/2+z
1/2+x,1/2-y,1/2+z
loop_
_atom_site_type_symbol
_atom_site_label
_atom_site_fract_x
_atom_site_fract_y
_atom_site_fract_z
Si Si1 0.188533 0.323096 0.128768
Si Si2 0.149108 0.845544 0.916730
Si Si3 0.186919 0.255724 0.773130
Si Si4 0.287746 0.491282 0.500000
Si Si5 0.534749 0.243563 0.048900
O O1 0.250000 0.250000 0.118834
O O2 0.180041 0.606367 0.106541
O O3 0.175289 0.310716 0.178042
O O4 0.148062 0.101569 0.112313
O O5 0.175407 0.962607 0.959084
O O6 0.088983 0.749473 0.924439
O O7 0.159485 0.500000 0.750000
O O8 0.250000 0.250000 0.764689
O O9 0.161414 0.000000 0.750000
O O10 0.250000 0.250000 0.500000
O O11 0.250000 0.750000 0.500000
O O12 0.500000 0.500000 0.056741
O O13 0.500000 0.000000 0.065424
O O14 0.550348 0.207237 0.000000
#
# Coordination Sequence:
#
# PCOD8277050 Si02
#       5
#    16  16  16   8  16
#     4  11  22  34  53  79 115 148 177 218 262 317
#     4  12  22  37  53  78 108 144 186 223 269 318
#     4   9  17  31  50  73 103 142 179 212 257 312
#     4  12  24  36  50  72 108 154 188 212 247 318
#     4  10  21  38  58  76  98 133 183 238 286 314
#
# _framework density 17.97476
#
# number of rings (size 3 to 8) (size 9 to 14) (size 15 to 20)
#    0.000    1.333    1.111    6.667    0.000    3.556 
#    0.000    0.000    0.000    0.000    0.000    0.000 
#    0.000   62.222    0.000    0.000    0.000    0.000 
#
# Total GULP energy -446143.827291 kJ/mol
# GULP energy per Si atom -12392.884091 kJ/mol
# Density = 1.793385 g / cm^3
# Si number density = 17.974760 Si / 1000 Ang^3
#
#
#
# Elastic Constant Matrix: (Units=GPa)
#
#
# Indices 1 2 3 4 5 6 
#
# 1 72.2180 28.2291 33.6064 0.0000 0.0000 0.0000
# 2 28.2291 156.0484 66.4892 0.0000 0.0000 0.0000
# 3 33.6064 66.4892 102.4850 0.0000 0.0000 0.0000
# 4 0.0000 0.0000 0.0000 37.0876 0.0000 0.0000
# 5 0.0000 0.0000 0.0000 0.0000 7.6171 0.0000
# 6 0.0000 0.0000 0.0000 0.0000 0.0000 22.4590
#
#
#
# Elastic Compliance Matrix: (Units=1/GPa)
#
#
# Indices 1 2 3 4 5 6 
#
# 1 0.016439 -0.000936 -0.004784 0.000000 0.000000 0.000000
# 2 -0.000936 0.008910 -0.005474 0.000000 0.000000 0.000000
# 3 -0.004784 -0.005474 0.014877 0.000000 0.000000 0.000000
# 4 0.000000 0.000000 0.000000 0.026963 0.000000 0.000000
# 5 0.000000 0.000000 0.000000 0.000000 0.131283 0.000000
# 6 0.000000 0.000000 0.000000 0.000000 0.000000 0.044526
#
#
# Mechanical properties :
#
#
# Convention : Reuss Voigt Hill
#
# Bulk Modulus (GPa) = 56.05302 65.26676 60.65989
# Shear Modulus (GPa) = 18.42780 26.92786 22.67783
#
# Velocity S-wave (km/s) = 3.20536 3.87472 3.55582
# Velocity P-wave (km/s) = 6.70456 7.51046 7.11892
#
# Compressibility (1/GPa) = 0.01784025
#
# Stress axis : x y z
#
# Youngs Moduli (GPa) = 60.83219 112.23735 67.21703
#
# Poissons Ratio (x) = 0.10501 0.32153
# Poissons Ratio (y) = 0.05691 0.36792
# Poissons Ratio (z) = 0.29099 0.61434
#
# Static dielectric constant tensor:
#      x y z
#    x 3.027670 0.000000 0.000000 
#    y 0.000000 3.708460 0.000000 
#    z 0.000000 0.000000 3.356470 
# 
# 
# High freq. dielectric constant tensor:
#      x y z
#    x 1.656210 0.000000 0.000000 
#    y 0.000000 1.724760 0.000000 
#    z 0.000000 0.000000 1.697100 
# 
# From -- ./inp_files/65954.got.cif
#   From: 2010.03.12/outbox.cif.g09.slc.cpg/sg66_33_cif.got.tgz:65954.got - 2010.04.10 21:57:39.
