data_PCOD8277044
_publ_section_title
;
Structure prediction by ZEFSAII (Michael W. Deem and Ramdas Pophale) SiO2 
 PCOD8277044
Probable space group: C C C M
;
_chemical_formula_sum "Si O2"
_cell_formula_units_Z 80
_cell_length_a 17.505840
_cell_length_b 17.573958
_cell_length_c 13.925382
_cell_angle_alpha 90.000000
_cell_angle_beta 90.000000
_cell_angle_gamma 90.000000
_cell_volume 4284.100561
_symmetry_space_group_name_H-M "C C C M"
_symmetry_group_IT_number 66
_symmetry_cell_setting 'orthorhombic'
loop_
_space_group_symop_operation_xyz
x,y,z
-x,-y,z
x,-y,1/2-z
-x,y,1/2-z
-x,-y,-z
x,y,-z
-x,y,1/2+z
x,-y,1/2+z
1/2+x,1/2+y,z
1/2-x,1/2-y,z
1/2+x,1/2-y,1/2-z
1/2-x,1/2+y,1/2-z
1/2-x,1/2-y,-z
1/2+x,1/2+y,-z
1/2-x,1/2+y,1/2+z
1/2+x,1/2-y,1/2+z
loop_
_atom_site_type_symbol
_atom_site_label
_atom_site_fract_x
_atom_site_fract_y
_atom_site_fract_z
Si Si1 0.757849 0.374100 0.776627
Si Si2 0.930147 0.041249 0.647850
Si Si3 0.624156 0.744126 0.275554
Si Si4 0.238172 0.020705 0.104603
Si Si5 0.477134 0.290741 0.113461
O O1 0.678141 0.329643 0.766731
O O2 0.826949 0.318249 0.801422
O O3 0.752759 0.434722 0.861824
O O4 0.773953 0.417699 0.676691
O O5 0.852087 0.034367 0.590403
O O6 0.956809 0.127679 0.657766
O O7 0.917426 0.000000 0.750000
O O8 0.000000 0.000000 0.592122
O O9 0.581196 0.762218 0.174341
O O10 0.564420 0.730598 0.362214
O O11 0.276403 0.031532 0.000000
O O12 0.462211 0.283750 0.000000
#
# Coordination Sequence:
#
# PCOD8277044 Si02
#       5
#    16  16  16  16  16
#     4  10  21  38  56  81 115 155 192 229 284 338
#     4  11  19  31  52  80 119 150 180 218 275 345
#     4  10  21  38  58  79 117 155 188 236 281 338
#     4  11  21  35  55  82 113 147 190 235 281 336
#     4  11  22  36  56  84 112 147 192 235 283 336
#
# _framework density 18.673697000000001
#
# number of rings (size 3 to 8) (size 9 to 14) (size 15 to 20)
#    0.000    1.400    4.000    4.200    0.000    5.600 
#    0.000    4.000    0.000    9.600    0.000   11.200 
#    0.000    0.000    0.000    0.000    0.000    0.000 
#
# Total GULP energy -495803.746102 kJ/mol
# GULP energy per Si atom -12395.093653 kJ/mol
# Density = 1.863120 g / cm^3
# Si number density = 18.673697 Si / 1000 Ang^3
#
#
#
# Elastic Constant Matrix: (Units=GPa)
#
#
# Indices 1 2 3 4 5 6 
#
# 1 77.9739 36.9101 13.2514 0.0000 0.0000 0.0000
# 2 36.9101 87.7728 17.8972 0.0000 0.0000 0.0000
# 3 13.2514 17.8972 107.5595 0.0000 0.0000 0.0000
# 4 0.0000 0.0000 0.0000 1.5140 0.0000 0.0000
# 5 0.0000 0.0000 0.0000 0.0000 8.3868 0.0000
# 6 0.0000 0.0000 0.0000 0.0000 0.0000 27.5017
#
#
#
# Elastic Compliance Matrix: (Units=1/GPa)
#
#
# Indices 1 2 3 4 5 6 
#
# 1 0.016093 -0.006587 -0.000887 0.000000 0.000000 0.000000
# 2 -0.006587 0.014489 -0.001599 0.000000 0.000000 0.000000
# 3 -0.000887 -0.001599 0.009673 0.000000 0.000000 0.000000
# 4 0.000000 0.000000 0.000000 0.660509 0.000000 0.000000
# 5 0.000000 0.000000 0.000000 0.000000 0.119234 0.000000
# 6 0.000000 0.000000 0.000000 0.000000 0.000000 0.036361
#
#
# Mechanical properties :
#
#
# Convention : Reuss Voigt Hill
#
# Bulk Modulus (GPa) = 45.22996 45.49152 45.36074
# Shear Modulus (GPa) = 5.66973 21.16367 13.41670
#
# Velocity S-wave (km/s) = 1.74436 3.37017 2.68336
# Velocity P-wave (km/s) = 5.32267 6.28953 5.82619
#
# Compressibility (1/GPa) = 0.02210924
#
# Stress axis : x y z
#
# Youngs Moduli (GPa) = 62.13702 69.01767 103.38537
#
# Poissons Ratio (x) = 0.45461 0.09167
# Poissons Ratio (y) = 0.40928 0.16535
# Poissons Ratio (z) = 0.05510 0.11039
#
# Static dielectric constant tensor:
#      x y z
#    x 3.471790 0.000000 0.000000 
#    y 0.000000 3.333790 0.000000 
#    z 0.000000 0.000000 3.294460 
# 
# 
# High freq. dielectric constant tensor:
#      x y z
#    x 1.713260 0.000000 0.000000 
#    y 0.000000 1.714910 0.000000 
#    z 0.000000 0.000000 1.723250 
# 
# From -- ./inp_files/29965.got.cif
#   From: 2010.03.12/outbox.cif.g09.slc.cpg/sg66_15_cif.got.tgz:29965.got - 2010.04.10 21:57:39.
