data_PCOD8277859
_publ_section_title
;
Structure prediction by ZEFSAII (Michael W. Deem and Ramdas Pophale) SiO2 
 PCOD8277859
Probable space group: C C C M
;
_chemical_formula_sum "Si O2"
_cell_formula_units_Z 64
_cell_length_a 27.800746
_cell_length_b 11.364604
_cell_length_c 10.173010
_cell_angle_alpha 90.000000
_cell_angle_beta 90.000000
_cell_angle_gamma 90.000000
_cell_volume 3214.106245
_symmetry_space_group_name_H-M "C C C M"
_symmetry_group_IT_number 66
_symmetry_cell_setting 'orthorhombic'
loop_
_space_group_symop_operation_xyz
x,y,z
-x,-y,z
x,-y,1/2-z
-x,y,1/2-z
-x,-y,-z
x,y,-z
-x,y,1/2+z
x,-y,1/2+z
1/2+x,1/2+y,z
1/2-x,1/2-y,z
1/2+x,1/2-y,1/2-z
1/2-x,1/2+y,1/2-z
1/2-x,1/2-y,-z
1/2+x,1/2+y,-z
1/2-x,1/2+y,1/2+z
1/2+x,1/2-y,1/2+z
loop_
_atom_site_type_symbol
_atom_site_label
_atom_site_fract_x
_atom_site_fract_y
_atom_site_fract_z
Si Si1 0.393856 0.861318 0.760125
Si Si2 0.694398 0.725080 0.652582
Si Si3 0.438382 0.243053 0.000000
Si Si4 0.916162 0.003135 0.000000
Si Si5 0.952965 0.740421 0.500000
Si Si6 0.349672 0.500000 0.250000
O O1 0.338451 0.832937 0.796635
O O2 0.408319 0.799734 0.624880
O O3 0.400280 0.000000 0.750000
O O4 0.428361 0.810312 0.870998
O O5 0.682055 0.699220 0.500000
O O6 0.750000 0.750000 0.672230
O O7 0.684013 0.613766 0.744737
O O8 0.446586 0.383484 0.000000
O O9 0.492416 0.192893 0.000000
O O10 0.882929 0.002178 0.874767
O O11 0.950318 0.117446 0.000000
#
# Coordination Sequence:
#
# PCOD8277859 Si02
#       6
#    16  16   8   8   8   8
#     4  12  25  44  64  96 134 171 223 270 319 390
#     4  11  24  44  69  97 131 176 214 265 337 392
#     4  12  26  40  69  99 127 171 227 271 321 384
#     4  12  21  42  68  96 134 162 220 272 329 380
#     4  12  24  46  65  93 135 179 213 267 335 388
#     4  12  20  42  69  96 132 168 209 280 326 378
#
# _framework density 19.912223000000001
#
# number of rings (size 3 to 8) (size 9 to 14) (size 15 to 20)
#    0.000    0.250    7.500    1.875    1.750    3.000 
#    0.000    6.250    0.000    0.000    0.000    0.000 
#    0.000    0.000    0.000    0.000    0.000    0.000 
#
# Total GULP energy -396866.706772 kJ/mol
# GULP energy per Si atom -12402.084587 kJ/mol
# Density = 1.986690 g / cm^3
# Si number density = 19.912223 Si / 1000 Ang^3
#
#
#
# Elastic Constant Matrix: (Units=GPa)
#
#
# Indices 1 2 3 4 5 6 
#
# 1 132.5750 25.0488 49.8673 0.0000 0.0000 0.0000
# 2 25.0488 125.1156 7.5881 0.0000 0.0000 0.0000
# 3 49.8673 7.5881 110.6121 0.0000 0.0000 0.0000
# 4 0.0000 0.0000 0.0000 25.9388 0.0000 0.0000
# 5 0.0000 0.0000 0.0000 0.0000 20.9057 0.0000
# 6 0.0000 0.0000 0.0000 0.0000 0.0000 16.6098
#
#
#
# Elastic Compliance Matrix: (Units=1/GPa)
#
#
# Indices 1 2 3 4 5 6 
#
# 1 0.009404 -0.001632 -0.004128 0.000000 0.000000 0.000000
# 2 -0.001632 0.008309 0.000166 0.000000 0.000000 0.000000
# 3 -0.004128 0.000166 0.010890 0.000000 0.000000 0.000000
# 4 0.000000 0.000000 0.000000 0.038552 0.000000 0.000000
# 5 0.000000 0.000000 0.000000 0.000000 0.047834 0.000000
# 6 0.000000 0.000000 0.000000 0.000000 0.000000 0.060205
#
#
# Mechanical properties :
#
#
# Convention : Reuss Voigt Hill
#
# Bulk Modulus (GPa) = 57.42113 59.25677 58.33895
# Shear Modulus (GPa) = 26.01621 31.74410 28.88016
#
# Velocity S-wave (km/s) = 3.61854 3.99708 3.81251
# Velocity P-wave (km/s) = 6.80868 7.15023 6.98154
#
# Compressibility (1/GPa) = 0.01741519
#
# Stress axis : x y z
#
# Youngs Moduli (GPa) = 106.33901 120.34626 91.82687
#
# Poissons Ratio (x) = 0.19645 0.37902
# Poissons Ratio (y) = 0.17359 -0.01523
# Poissons Ratio (z) = 0.43892 -0.01997
#
# Static dielectric constant tensor:
#      x y z
#    x 3.627030 0.000000 0.000000 
#    y 0.000000 4.103400 0.000000 
#    z 0.000000 0.000000 3.384270 
# 
# 
# High freq. dielectric constant tensor:
#      x y z
#    x 1.781860 0.000000 0.000000 
#    y 0.000000 1.787000 0.000000 
#    z 0.000000 0.000000 1.792280 
# 
# From -- ./inp_files/11226.got.cif
#   From: 2010.03.12/outbox.cif.g09.slc.cpg/sg66_6_cif.got.tgz:11226.got - 2010.04.10 21:57:39.
