data_PCOD8277843
_publ_section_title
;
Structure prediction by ZEFSAII (Michael W. Deem and Ramdas Pophale) SiO2 
 PCOD8277843
Probable space group: C C C M
;
_chemical_formula_sum "Si O2"
_cell_formula_units_Z 112
_cell_length_a 12.443675
_cell_length_b 14.136411
_cell_length_c 28.879097
_cell_angle_alpha 90.000000
_cell_angle_beta 90.000000
_cell_angle_gamma 90.000000
_cell_volume 5080.090306
_symmetry_space_group_name_H-M "C C C M"
_symmetry_group_IT_number 66
_symmetry_cell_setting 'orthorhombic'
loop_
_space_group_symop_operation_xyz
x,y,z
-x,-y,z
x,-y,1/2-z
-x,y,1/2-z
-x,-y,-z
x,y,-z
-x,y,1/2+z
x,-y,1/2+z
1/2+x,1/2+y,z
1/2-x,1/2-y,z
1/2+x,1/2-y,1/2-z
1/2-x,1/2+y,1/2-z
1/2-x,1/2-y,-z
1/2+x,1/2+y,-z
1/2-x,1/2+y,1/2+z
1/2+x,1/2-y,1/2+z
loop_
_atom_site_type_symbol
_atom_site_label
_atom_site_fract_x
_atom_site_fract_y
_atom_site_fract_z
Si Si1 0.270577 0.387676 0.249980
Si Si2 0.325104 0.991628 0.576428
Si Si3 0.221913 0.146392 0.855708
Si Si4 0.995132 0.801985 0.618248
Si Si5 0.989798 0.637054 0.551889
Si Si6 0.102629 0.065877 0.550407
Si Si7 0.912657 0.264813 0.785774
O O1 0.278124 0.500000 0.250000
O O2 0.252306 0.351815 0.198320
O O3 0.179142 0.345010 0.283557
O O4 0.379231 0.341008 0.269611
O O5 0.296899 0.937188 0.624181
O O6 0.405314 0.928410 0.545986
O O7 0.391662 0.090075 0.582001
O O8 0.212616 0.006838 0.550685
O O9 0.250000 0.250000 0.875963
O O10 0.095535 0.130631 0.867266
O O11 0.030703 0.729400 0.578495
O O12 0.900001 0.863437 0.594493
O O13 0.954457 0.742559 0.662045
O O14 0.948227 0.660468 0.500000
O O15 0.097372 0.117577 0.500000
O O16 0.000000 0.000000 0.555074
O O17 0.000000 0.303329 0.750000
#
# Coordination Sequence:
#
# PCOD8277843 Si02
#       7
#    16  16  16  16  16  16  16
#     4  11  26  44  70  98 135 180 229 275 347 411
#     4  11  24  43  71  96 135 182 227 286 345 402
#     4  12  22  46  69 101 136 181 232 286 335 418
#     4  12  25  43  70 102 139 183 227 280 358 411
#     4  11  25  46  70 101 137 180 236 292 346 410
#     4  11  24  42  66 103 144 181 229 284 338 414
#     4  11  24  46  66 100 140 175 222 294 338 407
#
# _framework density 22.046852999999999
#
# number of rings (size 3 to 8) (size 9 to 14) (size 15 to 20)
#    0.000    0.714    5.714    2.143    4.000    2.286 
#    0.000    2.143    0.000    0.000    0.000    0.000 
#    0.000    0.000    0.000    0.000    0.000    0.000 
#
# Total GULP energy -694075.416600 kJ/mol
# GULP energy per Si atom -12394.203868 kJ/mol
# Density = 2.199667 g / cm^3
# Si number density = 22.046853 Si / 1000 Ang^3
#
#
#
# Elastic Constant Matrix: (Units=GPa)
#
#
# Indices 1 2 3 4 5 6 
#
# 1 114.5337 15.2442 24.1272 0.0000 0.0000 0.0000
# 2 15.2442 77.7536 13.0158 0.0000 0.0000 0.0000
# 3 24.1272 13.0158 122.8568 0.0000 0.0000 0.0000
# 4 0.0000 0.0000 0.0000 17.6816 0.0000 0.0000
# 5 0.0000 0.0000 0.0000 0.0000 1.6216 0.0000
# 6 0.0000 0.0000 0.0000 0.0000 0.0000 31.1634
#
#
#
# Elastic Compliance Matrix: (Units=1/GPa)
#
#
# Indices 1 2 3 4 5 6 
#
# 1 0.009286 -0.001543 -0.001660 0.000000 0.000000 0.000000
# 2 -0.001543 0.013350 -0.001111 0.000000 0.000000 0.000000
# 3 -0.001660 -0.001111 0.008583 0.000000 0.000000 0.000000
# 4 0.000000 0.000000 0.000000 0.056556 0.000000 0.000000
# 5 0.000000 0.000000 0.000000 0.000000 0.616675 0.000000
# 6 0.000000 0.000000 0.000000 0.000000 0.000000 0.032089
#
#
# Mechanical properties :
#
#
# Convention : Reuss Voigt Hill
#
# Bulk Modulus (GPa) = 44.26621 46.65760 45.46190
# Shear Modulus (GPa) = 6.64277 27.61044 17.12661
#
# Velocity S-wave (km/s) = 1.73769 3.54270 2.79019
# Velocity P-wave (km/s) = 4.91405 6.15980 5.57185
#
# Compressibility (1/GPa) = 0.02259060
#
# Stress axis : x y z
#
# Youngs Moduli (GPa) = 107.68765 74.90846 116.50482
#
# Poissons Ratio (x) = 0.11556 0.19342
# Poissons Ratio (y) = 0.16613 0.12948
# Poissons Ratio (z) = 0.17878 0.08325
#
# Static dielectric constant tensor:
#      x y z
#    x 4.058220 0.000000 0.000000 
#    y 0.000000 3.935030 0.000000 
#    z 0.000000 0.000000 3.909820 
# 
# 
# High freq. dielectric constant tensor:
#      x y z
#    x 1.872050 0.000000 0.000000 
#    y 0.000000 1.855560 0.000000 
#    z 0.000000 0.000000 1.870140 
# 
# From -- ./inp_files/69067.got.cif
#   From: 2010.03.12/outbox.cif.g09.slc.cpg/sg66_35_cif.got.tgz:69067.got - 2010.04.10 21:57:39.
