data_PCOD8277770
_publ_section_title
;
Structure prediction by ZEFSAII (Michael W. Deem and Ramdas Pophale) SiO2 
 PCOD8277770
Probable space group: C C C M
;
_chemical_formula_sum "Si O2"
_cell_formula_units_Z 52
_cell_length_a 22.945688
_cell_length_b 10.189449
_cell_length_c 9.805703
_cell_angle_alpha 90.000000
_cell_angle_beta 90.000000
_cell_angle_gamma 90.000000
_cell_volume 2292.611777
_symmetry_space_group_name_H-M "C C C M"
_symmetry_group_IT_number 66
_symmetry_cell_setting 'orthorhombic'
loop_
_space_group_symop_operation_xyz
x,y,z
-x,-y,z
x,-y,1/2-z
-x,y,1/2-z
-x,-y,-z
x,y,-z
-x,y,1/2+z
x,-y,1/2+z
1/2+x,1/2+y,z
1/2-x,1/2-y,z
1/2+x,1/2-y,1/2-z
1/2-x,1/2+y,1/2-z
1/2-x,1/2-y,-z
1/2+x,1/2+y,-z
1/2-x,1/2+y,1/2+z
1/2+x,1/2-y,1/2+z
loop_
_atom_site_type_symbol
_atom_site_label
_atom_site_fract_x
_atom_site_fract_y
_atom_site_fract_z
Si Si1 0.053169 0.165492 0.000000
Si Si2 0.500000 0.000000 0.750000
Si Si3 0.716395 0.885532 0.159648
Si Si4 0.906576 0.694668 0.733869
Si Si5 0.418494 0.616349 0.000000
O O1 0.063401 0.251608 0.868452
O O2 0.987486 0.120242 0.000000
O O3 0.097026 0.038850 0.000000
O O4 0.454050 0.093028 0.665943
O O5 0.750000 0.750000 0.179178
O O6 0.652466 0.875458 0.223565
O O7 0.747605 0.000000 0.250000
O O8 0.713999 0.925115 0.000000
O O9 0.891858 0.813038 0.631990
#
# Coordination Sequence:
#
# PCOD8277770 Si02
#       5
#     8   4  16  16   8
#     4  11  22  42  61  96 143 182 229 284 347 426
#     4  12  24  38  70 102 140 174 228 278 356 406
#     4  11  27  50  74 103 141 186 241 295 350 420
#     4  12  24  42  68 102 140 180 228 289 351 420
#     4  11  24  38  65 100 137 186 227 278 359 424
#
# _framework density 22.681557000000002
#
# number of rings (size 3 to 8) (size 9 to 14) (size 15 to 20)
#    0.000    0.615    6.154    0.923    2.154    8.000 
#    0.000    0.000    0.000    0.000    0.000    0.000 
#    0.000    0.000    0.000    0.000    0.000    0.000 
#
# Total GULP energy -322201.479070 kJ/mol
# GULP energy per Si atom -12392.364580 kJ/mol
# Density = 2.262993 g / cm^3
# Si number density = 22.681557 Si / 1000 Ang^3
#
#
#
# Elastic Constant Matrix: (Units=GPa)
#
#
# Indices 1 2 3 4 5 6 
#
# 1 75.3651 35.0426 27.3537 0.0000 0.0000 0.0000
# 2 35.0426 138.9068 61.6788 0.0000 0.0000 0.0000
# 3 27.3537 61.6788 147.3239 0.0000 0.0000 0.0000
# 4 0.0000 0.0000 0.0000 31.7243 0.0000 0.0000
# 5 0.0000 0.0000 0.0000 0.0000 38.0929 0.0000
# 6 0.0000 0.0000 0.0000 0.0000 0.0000 22.5773
#
#
#
# Elastic Compliance Matrix: (Units=1/GPa)
#
#
# Indices 1 2 3 4 5 6 
#
# 1 0.015299 -0.003191 -0.001504 0.000000 0.000000 0.000000
# 2 -0.003191 0.009509 -0.003388 0.000000 0.000000 0.000000
# 3 -0.001504 -0.003388 0.008486 0.000000 0.000000 0.000000
# 4 0.000000 0.000000 0.000000 0.031522 0.000000 0.000000
# 5 0.000000 0.000000 0.000000 0.000000 0.026252 0.000000
# 6 0.000000 0.000000 0.000000 0.000000 0.000000 0.044292
#
#
# Mechanical properties :
#
#
# Convention : Reuss Voigt Hill
#
# Bulk Modulus (GPa) = 58.39535 67.74955 63.07245
# Shear Modulus (GPa) = 31.79950 34.31362 33.05656
#
# Velocity S-wave (km/s) = 3.74839 3.89375 3.82176
# Velocity P-wave (km/s) = 6.67349 7.08165 6.88060
#
# Compressibility (1/GPa) = 0.01712465
#
# Stress axis : x y z
#
# Youngs Moduli (GPa) = 65.36501 105.16635 117.84584
#
# Poissons Ratio (x) = 0.33564 0.17728
# Poissons Ratio (y) = 0.20861 0.39931
# Poissons Ratio (z) = 0.09833 0.35634
#
# Static dielectric constant tensor:
#      x y z
#    x 3.949000 0.000000 0.000000 
#    y 0.000000 4.706290 0.000000 
#    z 0.000000 0.000000 4.018480 
# 
# 
# High freq. dielectric constant tensor:
#      x y z
#    x 1.880600 0.000000 0.000000 
#    y 0.000000 1.923040 0.000000 
#    z 0.000000 0.000000 1.880580 
# 
# From -- ./inp_files/20302.got.cif
#   From: 2010.03.12/outbox.cif.g09.slc.cpg/sg66_11_cif.got.tgz:20302.got - 2010.04.10 21:57:39.
