data_PCOD8277720
_publ_section_title
;
Structure prediction by ZEFSAII (Michael W. Deem and Ramdas Pophale) SiO2 
 PCOD8277720
Probable space group: C C C M
;
_chemical_formula_sum "Si O2"
_cell_formula_units_Z 64
_cell_length_a 5.057356
_cell_length_b 35.945163
_cell_length_c 16.162608
_cell_angle_alpha 90.000000
_cell_angle_beta 90.000000
_cell_angle_gamma 90.000000
_cell_volume 2938.159872
_symmetry_space_group_name_H-M "C C C M"
_symmetry_group_IT_number 66
_symmetry_cell_setting 'orthorhombic'
loop_
_space_group_symop_operation_xyz
x,y,z
-x,-y,z
x,-y,1/2-z
-x,y,1/2-z
-x,-y,-z
x,y,-z
-x,y,1/2+z
x,-y,1/2+z
1/2+x,1/2+y,z
1/2-x,1/2-y,z
1/2+x,1/2-y,1/2-z
1/2-x,1/2+y,1/2-z
1/2-x,1/2-y,-z
1/2+x,1/2+y,-z
1/2-x,1/2+y,1/2+z
1/2+x,1/2-y,1/2+z
loop_
_atom_site_type_symbol
_atom_site_label
_atom_site_fract_x
_atom_site_fract_y
_atom_site_fract_z
Si Si1 0.740136 0.023687 0.593482
Si Si2 0.005159 0.271491 0.651851
Si Si3 0.570418 0.856573 0.654426
Si Si4 0.087436 0.897751 0.405754
O O1 0.645612 0.032844 0.500000
O O2 0.825145 0.062728 0.636405
O O3 0.500000 0.000000 0.636862
O O4 0.000000 0.000000 0.595436
O O5 0.750000 0.250000 0.615105
O O6 0.053711 0.313921 0.625809
O O7 0.000000 0.268521 0.750000
O O8 0.250000 0.250000 0.612910
O O9 0.500000 0.861493 0.750000
O O10 0.855753 0.876030 0.642648
O O11 0.353828 0.874363 0.595345
O O12 0.991498 0.903978 0.500000
#
# Coordination Sequence:
#
# PCOD8277720 Si02
#       4
#    16  16  16  16
#     4   9  17  31  53  80 107 140 187 232 265 313
#     4   9  17  31  53  79 105 140 191 240 275 323
#     4  11  22  37  59  86 116 150 190 238 291 346
#     4  11  22  37  59  86 117 151 189 238 291 343
#
# _framework density 21.782340000000001
#
# number of rings (size 3 to 8) (size 9 to 14) (size 15 to 20)
#    0.000    2.000    0.000    4.500    0.000    8.000 
#    0.000    0.000    0.000   26.250    0.000    0.000 
#    0.000    0.000    0.000    0.000    0.000    0.250 
#
# Total GULP energy -396471.090493 kJ/mol
# GULP energy per Si atom -12389.721578 kJ/mol
# Density = 2.173276 g / cm^3
# Si number density = 21.782340 Si / 1000 Ang^3
#
#
#
# Elastic Constant Matrix: (Units=GPa)
#
#
# Indices 1 2 3 4 5 6 
#
# 1 172.5182 102.4698 4.1604 0.0000 0.0000 0.0000
# 2 102.4698 222.4351 19.2106 0.0000 0.0000 0.0000
# 3 4.1604 19.2106 26.6691 0.0000 0.0000 0.0000
# 4 0.0000 0.0000 0.0000 112.4544 0.0000 0.0000
# 5 0.0000 0.0000 0.0000 0.0000 16.8629 0.0000
# 6 0.0000 0.0000 0.0000 0.0000 0.0000 57.1829
#
#
#
# Elastic Compliance Matrix: (Units=1/GPa)
#
#
# Indices 1 2 3 4 5 6 
#
# 1 0.008036 -0.003832 0.001507 0.000000 0.000000 0.000000
# 2 -0.003832 0.006621 -0.004172 0.000000 0.000000 0.000000
# 3 0.001507 -0.004172 0.040267 0.000000 0.000000 0.000000
# 4 0.000000 0.000000 0.000000 0.008892 0.000000 0.000000
# 5 0.000000 0.000000 0.000000 0.000000 0.059302 0.000000
# 6 0.000000 0.000000 0.000000 0.000000 0.000000 0.017488
#
#
# Mechanical properties :
#
#
# Convention : Reuss Voigt Hill
#
# Bulk Modulus (GPa) = 23.84934 74.81155 49.33045
# Shear Modulus (GPa) = 29.83694 57.01880 43.42787
#
# Velocity S-wave (km/s) = 3.70506 5.12186 4.46995
# Velocity P-wave (km/s) = 5.41073 8.33052 7.02402
#
# Compressibility (1/GPa) = 0.04192988
#
# Stress axis : x y z
#
# Youngs Moduli (GPa) = 124.43387 151.02509 24.83453
#
# Poissons Ratio (x) = 0.57877 -0.03742
# Poissons Ratio (y) = 0.47687 0.10360
# Poissons Ratio (z) = -0.18750 0.63004
#
# Static dielectric constant tensor:
#      x y z
#    x 4.302770 0.000000 0.000000 
#    y 0.000000 4.624280 0.000000 
#    z 0.000000 0.000000 3.384200 
# 
# 
# High freq. dielectric constant tensor:
#      x y z
#    x 1.874120 0.000000 0.000000 
#    y 0.000000 1.881230 0.000000 
#    z 0.000000 0.000000 1.798070 
# 
# From -- ./inp_files/45851.got.cif
#   From: 2010.03.12/outbox.cif.g09.slc.cpg/sg66_23_cif.got.tgz:45851.got - 2010.04.10 21:57:39.
