data_PCOD8278543
_publ_section_title
;
Structure prediction by ZEFSAII (Michael W. Deem and Ramdas Pophale) SiO2 
 PCOD8278543
Probable space group: C M M A
;
_chemical_formula_sum "Si O2"
_cell_formula_units_Z 88
_cell_length_a 23.667646
_cell_length_b 14.639860
_cell_length_c 11.192830
_cell_angle_alpha 90.000000
_cell_angle_beta 90.000000
_cell_angle_gamma 90.000000
_cell_volume 3878.215128
_symmetry_space_group_name_H-M "C M M A"
_symmetry_group_IT_number 67
_symmetry_cell_setting 'orthorhombic'
loop_
_space_group_symop_operation_xyz
x,y,z
-x,1/2-y,z
x,-y,-z
-x,1/2+y,-z
-x,-y,-z
x,1/2+y,-z
-x,y,z
x,1/2-y,z
1/2+x,1/2+y,z
1/2-x,-y,z
1/2+x,1/2-y,-z
1/2-x,y,-z
1/2-x,1/2-y,-z
1/2+x,y,-z
1/2-x,1/2+y,z
1/2+x,-y,z
loop_
_atom_site_type_symbol
_atom_site_label
_atom_site_fract_x
_atom_site_fract_y
_atom_site_fract_z
Si Si1 0.775665 0.750000 0.871121
Si Si2 0.757862 0.896210 0.683676
Si Si3 0.843514 0.146138 0.510826
Si Si4 0.063533 0.250000 0.813192
Si Si5 0.097670 0.750000 0.929912
Si Si6 0.435768 0.451393 0.882706
Si Si7 0.565482 0.068280 0.334249
O O1 0.755873 0.841167 0.805827
O O2 0.842354 0.750000 0.870187
O O3 0.750000 0.750000 0.000000
O O4 0.817887 0.885108 0.616011
O O5 0.706738 0.859087 0.605368
O O6 0.750000 0.000000 0.719423
O O7 0.865647 0.250000 0.500700
O O8 0.895318 0.078277 0.547265
O O9 0.075081 0.337462 0.734251
O O10 0.000000 0.250000 0.865123
O O11 0.104490 0.250000 0.927092
O O12 0.066282 0.658155 0.886643
O O13 0.500000 0.485803 0.881777
O O14 0.411390 0.489071 0.755920
O O15 0.406852 0.500000 0.000000
O O16 0.500000 0.053967 0.373525
#
# Coordination Sequence:
#
# PCOD8278543 Si02
#       7
#     8  16  16   8   8  16  16
#     4  12  30  48  66 108 146 171 230 296 362 427
#     4  11  25  49  74 100 132 186 238 285 352 422
#     4  11  20  40  77 100 135 178 238 298 339 409
#     4  10  18  33  57  91 133 184 231 273 341 422
#     4  12  24  38  61  88 136 195 229 292 359 422
#     4  10  20  36  60  93 137 190 243 285 342 429
#     4  10  21  34  61 106 143 177 232 296 354 422
#
# _framework density 22.690850999999999
#
# number of rings (size 3 to 8) (size 9 to 14) (size 15 to 20)
#    0.000    1.273    4.545    2.455    5.091    0.364 
#    0.000    0.000    0.000    5.455    0.000    0.000 
#    0.000    0.000    0.000    0.000    0.000    0.000 
#
# Total GULP energy -545544.359409 kJ/mol
# GULP energy per Si atom -12398.735441 kJ/mol
# Density = 2.263921 g / cm^3
# Si number density = 22.690851 Si / 1000 Ang^3
#
#
#
# Elastic Constant Matrix: (Units=GPa)
#
#
# Indices 1 2 3 4 5 6 
#
# 1 76.5140 19.2899 36.2314 0.0000 0.0000 0.0000
# 2 19.2899 172.0628 60.0831 0.0000 0.0000 0.0000
# 3 36.2314 60.0831 118.6741 0.0000 0.0000 0.0000
# 4 0.0000 0.0000 0.0000 -38.3436 0.0000 0.0000
# 5 0.0000 0.0000 0.0000 0.0000 29.9433 0.0000
# 6 0.0000 0.0000 0.0000 0.0000 0.0000 33.1388
#
#
#
# Elastic Compliance Matrix: (Units=1/GPa)
#
#
# Indices 1 2 3 4 5 6 
#
# 1 0.015280 -0.000102 -0.004613 0.000000 0.000000 0.000000
# 2 -0.000102 0.007061 -0.003544 0.000000 0.000000 0.000000
# 3 -0.004613 -0.003544 0.011629 0.000000 0.000000 0.000000
# 4 0.000000 0.000000 0.000000 -0.026080 0.000000 0.000000
# 5 0.000000 0.000000 0.000000 0.000000 0.033396 0.000000
# 6 0.000000 0.000000 0.000000 0.000000 0.000000 0.030176
#
#
# Mechanical properties :
#
#
# Convention : Reuss Voigt Hill
#
# Bulk Modulus (GPa) = 57.30149 66.49551 61.89850
# Shear Modulus (GPa) = 53.30673 21.72414 37.51544
#
# Velocity S-wave (km/s) = 4.85218 3.09754 4.07053
# Velocity P-wave (km/s) = 7.52990 6.49320 7.03068
#
# Compressibility (1/GPa) = 0.01745155
#
# Stress axis : x y z
#
# Youngs Moduli (GPa) = 65.44618 141.62981 85.99255
#
# Poissons Ratio (x) = 0.01446 0.39670
# Poissons Ratio (y) = 0.00668 0.30472
# Poissons Ratio (z) = 0.30192 0.50187
#
# Static dielectric constant tensor:
#      x y z
#    x 4.141170 0.000000 0.000000 
#    y 0.000000 4.148750 0.000000 
#    z 0.000000 0.000000 4.057460 
# 
# 
# High freq. dielectric constant tensor:
#      x y z
#    x 1.877110 0.000000 0.000000 
#    y 0.000000 1.911810 0.000000 
#    z 0.000000 0.000000 1.888740 
# 
# From -- ./inp_files/21817.got.cif
#   From: 2010.03.12/outbox.cif.g09.slc.cpg/sg67_11_cif.got.tgz:21817.got - 2010.04.10 22:41:39.
