data_PCOD8278914
_publ_section_title
;
Structure prediction by ZEFSAII (Michael W. Deem and Ramdas Pophale) SiO2 
 PCOD8278914
Probable space group: C M M A
;
_chemical_formula_sum "Si O2"
_cell_formula_units_Z 80
_cell_length_a 8.880381
_cell_length_b 19.854191
_cell_length_c 25.719914
_cell_angle_alpha 90.000000
_cell_angle_beta 90.000000
_cell_angle_gamma 90.000000
_cell_volume 4534.749552
_symmetry_space_group_name_H-M "C M M A"
_symmetry_group_IT_number 67
_symmetry_cell_setting 'orthorhombic'
loop_
_space_group_symop_operation_xyz
x,y,z
-x,1/2-y,z
x,-y,-z
-x,1/2+y,-z
-x,-y,-z
x,1/2+y,-z
-x,y,z
x,1/2-y,z
1/2+x,1/2+y,z
1/2-x,-y,z
1/2+x,1/2-y,-z
1/2-x,y,-z
1/2-x,1/2-y,-z
1/2+x,y,-z
1/2-x,1/2+y,z
1/2+x,-y,z
loop_
_atom_site_type_symbol
_atom_site_label
_atom_site_fract_x
_atom_site_fract_y
_atom_site_fract_z
Si Si1 0.675434 0.572620 0.951040
Si Si2 0.678562 0.675746 0.359561
Si Si3 0.180528 0.571777 0.554182
Si Si4 0.325397 0.328211 0.757017
Si Si5 0.324807 0.927742 0.836321
O O1 0.500000 0.566619 0.962012
O O2 0.750000 0.500000 0.950177
O O3 0.708253 0.603559 0.893958
O O4 0.750000 0.613643 0.000000
O O5 0.500000 0.678884 0.360957
O O6 0.743111 0.750000 0.373207
O O7 0.738205 0.622624 0.401520
O O8 0.729006 0.654596 0.301580
O O9 0.250000 0.500000 0.568829
O O10 0.250000 0.597621 0.500000
O O11 0.000000 0.567155 0.550194
O O12 0.500000 0.345891 0.764259
O O13 0.295367 0.250000 0.769267
O O14 0.229915 0.373249 0.795538
O O15 0.500000 0.940041 0.828520
O O16 0.250000 0.000000 0.827076
#
# Coordination Sequence:
#
# PCOD8278914 Si02
#       5
#    16  16  16  16  16
#     4   9  16  26  42  65  93 124 156 194 239 285
#     4   8  16  32  52  72  94 123 159 197 237 281
#     4  10  19  32  50  71  98 128 157 192 234 281
#     4   9  18  34  54  73  96 129 165 199 242 295
#     4  10  20  32  48  73 102 129 161 202 245 288
#
# _framework density 17.641548
#
# number of rings (size 3 to 8) (size 9 to 14) (size 15 to 20)
#    0.000    2.800    0.000    4.200    0.000    4.000 
#    0.000    4.000    0.000    4.800    0.000    0.000 
#    0.000    0.000    0.000    0.000    0.000    0.000 
#
# Total GULP energy -495675.005655 kJ/mol
# GULP energy per Si atom -12391.875141 kJ/mol
# Density = 1.760139 g / cm^3
# Si number density = 17.641548 Si / 1000 Ang^3
#
#
#
# Elastic Constant Matrix: (Units=GPa)
#
#
# Indices 1 2 3 4 5 6 
#
# 1 79.8400 41.4576 60.6731 0.0000 0.0000 0.0000
# 2 41.4576 79.2647 89.8446 0.0000 0.0000 0.0000
# 3 60.6731 89.8446 175.0094 0.0000 0.0000 0.0000
# 4 0.0000 0.0000 0.0000 -2.1744 0.0000 0.0000
# 5 0.0000 0.0000 0.0000 0.0000 16.2579 0.0000
# 6 0.0000 0.0000 0.0000 0.0000 0.0000 22.5243
#
#
#
# Elastic Compliance Matrix: (Units=1/GPa)
#
#
# Indices 1 2 3 4 5 6 
#
# 1 0.017986 -0.005595 -0.003363 0.000000 0.000000 0.000000
# 2 -0.005595 0.031915 -0.014444 0.000000 0.000000 0.000000
# 3 -0.003363 -0.014444 0.014295 0.000000 0.000000 0.000000
# 4 0.000000 0.000000 0.000000 -0.459904 0.000000 0.000000
# 5 0.000000 0.000000 0.000000 0.000000 0.061508 0.000000
# 6 0.000000 0.000000 0.000000 0.000000 0.000000 0.044396
#
#
# Mechanical properties :
#
#
# Convention : Reuss Voigt Hill
#
# Bulk Modulus (GPa) = 57.50178 79.78495 68.64336
# Shear Modulus (GPa) = -21.07918 16.79750 -2.14084
#
# Velocity S-wave (km/s) = -3.46042 3.08905 -1.10279
# Velocity P-wave (km/s) = 4.08647 7.61884 6.11335
#
# Compressibility (1/GPa) = 0.01739077
#
# Stress axis : x y z
#
# Youngs Moduli (GPa) = 55.59828 31.33361 69.95384
#
# Poissons Ratio (x) = 0.17532 0.23526
# Poissons Ratio (y) = 0.31109 1.01043
# Poissons Ratio (z) = 0.18698 0.45259
#
# Static dielectric constant tensor:
#      x y z
#    x 3.164870 0.000000 0.000000 
#    y 0.000000 3.161070 0.000000 
#    z 0.000000 0.000000 4.146410 
# 
# 
# High freq. dielectric constant tensor:
#      x y z
#    x 1.675380 0.000000 0.000000 
#    y 0.000000 1.651690 0.000000 
#    z 0.000000 0.000000 1.702120 
# 
# From -- ./inp_files/43250.got.cif
#   From: 2010.03.12/outbox.cif.g09.slc.cpg/sg67_22_cif.got.tgz:43250.got - 2010.04.10 22:41:39.
