data_PCOD8278703
_publ_section_title
;
Structure prediction by ZEFSAII (Michael W. Deem and Ramdas Pophale) SiO2 
 PCOD8278703
Probable space group: C M M A
;
_chemical_formula_sum "Si O2"
_cell_formula_units_Z 72
_cell_length_a 9.692878
_cell_length_b 33.243114
_cell_length_c 13.871414
_cell_angle_alpha 90.000000
_cell_angle_beta 90.000000
_cell_angle_gamma 90.000000
_cell_volume 4469.667110
_symmetry_space_group_name_H-M "C M M A"
_symmetry_group_IT_number 67
_symmetry_cell_setting 'orthorhombic'
loop_
_space_group_symop_operation_xyz
x,y,z
-x,1/2-y,z
x,-y,-z
-x,1/2+y,-z
-x,-y,-z
x,1/2+y,-z
-x,y,z
x,1/2-y,z
1/2+x,1/2+y,z
1/2-x,-y,z
1/2+x,1/2-y,-z
1/2-x,y,-z
1/2-x,1/2-y,-z
1/2+x,y,-z
1/2-x,1/2+y,z
1/2+x,-y,z
loop_
_atom_site_type_symbol
_atom_site_label
_atom_site_fract_x
_atom_site_fract_y
_atom_site_fract_z
Si Si1 0.839732 0.818779 0.701995
Si Si2 0.000000 0.961313 0.609398
Si Si3 0.656578 0.203714 0.914629
Si Si4 0.329129 0.250000 0.398764
Si Si5 0.736970 0.096655 0.613436
Si Si6 0.000000 0.550355 0.381390
O O1 0.817498 0.820521 0.816537
O O2 0.726102 0.789106 0.656885
O O3 0.808316 0.862534 0.662808
O O4 0.000000 0.806197 0.678239
O O5 0.867190 0.937873 0.644699
O O6 0.000000 0.959955 0.494033
O O7 0.000000 0.005107 0.661127
O O8 0.500000 0.199605 0.949552
O O9 0.695677 0.250000 0.893927
O O10 0.750000 0.185566 0.000000
O O11 0.500000 0.250000 0.406693
O O12 0.250000 0.250000 0.500000
O O13 0.750000 0.104966 0.500000
O O14 0.876753 0.078318 0.654287
#
# Coordination Sequence:
#
# PCOD8278703 Si02
#       6
#    16   8  16   8  16   8
#     4  11  21  37  54  73 105 137 174 211 259 308
#     4   9  16  32  46  69  94 141 170 207 254 299
#     4   9  18  34  54  74  96 127 165 214 266 310
#     4  12  26  38  53  72 101 144 183 214 244 292
#     4  10  19  30  48  72 103 138 170 209 250 292
#     4   9  18  28  48  69 102 129 176 209 248 299
#
# _framework density 16.108581999999998
#
# number of rings (size 3 to 8) (size 9 to 14) (size 15 to 20)
#    0.000    2.000    2.222    2.333    1.556    3.556 
#    0.000    0.000    0.000    0.000    0.000    0.000 
#    0.000    5.333    0.000    0.000    0.000    0.000 
#
# Total GULP energy -446076.530489 kJ/mol
# GULP energy per Si atom -12391.014736 kJ/mol
# Density = 1.607192 g / cm^3
# Si number density = 16.108582 Si / 1000 Ang^3
#
#
#
# Elastic Constant Matrix: (Units=GPa)
#
#
# Indices 1 2 3 4 5 6 
#
# 1 136.3992 44.4369 46.6739 0.0000 0.0000 0.0000
# 2 44.4369 85.6855 34.8645 0.0000 0.0000 0.0000
# 3 46.6739 34.8645 71.8842 0.0000 0.0000 0.0000
# 4 0.0000 0.0000 0.0000 -12.7118 0.0000 0.0000
# 5 0.0000 0.0000 0.0000 0.0000 23.5488 0.0000
# 6 0.0000 0.0000 0.0000 0.0000 0.0000 30.6076
#
#
#
# Elastic Compliance Matrix: (Units=1/GPa)
#
#
# Indices 1 2 3 4 5 6 
#
# 1 0.010082 -0.003196 -0.004996 0.000000 0.000000 0.000000
# 2 -0.003196 0.015553 -0.005468 0.000000 0.000000 0.000000
# 3 -0.004996 -0.005468 0.019808 0.000000 0.000000 0.000000
# 4 0.000000 0.000000 0.000000 -0.078667 0.000000 0.000000
# 5 0.000000 0.000000 0.000000 0.000000 0.042465 0.000000
# 6 0.000000 0.000000 0.000000 0.000000 0.000000 0.032672
#
#
# Mechanical properties :
#
#
# Convention : Reuss Voigt Hill
#
# Bulk Modulus (GPa) = 55.18203 60.65771 57.91987
# Shear Modulus (GPa) = 66.42430 19.48851 42.95641
#
# Velocity S-wave (km/s) = 6.42844 3.48202 5.16959
# Velocity P-wave (km/s) = 9.45677 7.34188 8.46563
#
# Compressibility (1/GPa) = 0.01812184
#
# Stress axis : x y z
#
# Youngs Moduli (GPa) = 99.18443 64.29667 50.48580
#
# Poissons Ratio (x) = 0.20547 0.25225
# Poissons Ratio (y) = 0.31697 0.27607
# Poissons Ratio (z) = 0.49556 0.35160
#
# Static dielectric constant tensor:
#      x y z
#    x 3.390650 0.000000 0.000000 
#    y 0.000000 3.851330 0.000000 
#    z 0.000000 0.000000 2.813460 
# 
# 
# High freq. dielectric constant tensor:
#      x y z
#    x 1.638960 0.000000 0.000000 
#    y 0.000000 1.615770 0.000000 
#    z 0.000000 0.000000 1.577150 
# 
# From -- ./inp_files/25350.got.cif
#   From: 2010.03.12/outbox.cif.g09.slc.cpg/sg67_13_cif.got.tgz:25350.got - 2010.04.10 22:41:39.
