data_PCOD8278579
_publ_section_title
;
Structure prediction by ZEFSAII (Michael W. Deem and Ramdas Pophale) SiO2 
 PCOD8278579
Probable space group: C M M A
;
_chemical_formula_sum "Si O2"
_cell_formula_units_Z 72
_cell_length_a 26.821871
_cell_length_b 14.487619
_cell_length_c 9.606714
_cell_angle_alpha 90.000000
_cell_angle_beta 90.000000
_cell_angle_gamma 90.000000
_cell_volume 3733.025420
_symmetry_space_group_name_H-M "C M M A"
_symmetry_group_IT_number 67
_symmetry_cell_setting 'orthorhombic'
loop_
_space_group_symop_operation_xyz
x,y,z
-x,1/2-y,z
x,-y,-z
-x,1/2+y,-z
-x,-y,-z
x,1/2+y,-z
-x,y,z
x,1/2-y,z
1/2+x,1/2+y,z
1/2-x,-y,z
1/2+x,1/2-y,-z
1/2-x,y,-z
1/2-x,1/2-y,-z
1/2+x,y,-z
1/2-x,1/2+y,z
1/2+x,-y,z
loop_
_atom_site_type_symbol
_atom_site_label
_atom_site_fract_x
_atom_site_fract_y
_atom_site_fract_z
Si Si1 0.944040 0.597396 0.930243
Si Si2 0.344403 0.894306 0.500560
Si Si3 0.055714 0.857484 0.622143
Si Si4 0.368350 0.250000 0.996083
Si Si5 0.689424 0.250000 0.280533
Si Si6 0.693259 0.250000 0.715297
O O1 0.935137 0.587461 0.764968
O O2 0.903587 0.661649 0.001699
O O3 0.000000 0.636159 0.955854
O O4 0.936534 0.500000 0.000000
O O5 0.404845 0.891537 0.492741
O O6 0.327298 0.842797 0.639929
O O7 0.321889 0.842369 0.367088
O O8 0.325478 0.000000 0.500000
O O9 0.064549 0.750000 0.657481
O O10 0.000000 0.874527 0.562696
O O11 0.333199 0.250000 0.862709
O O12 0.333633 0.250000 0.129289
O O13 0.748197 0.250000 0.263542
#
# Coordination Sequence:
#
# PCOD8278579 Si02
#       6
#    16  16  16   8   8   8
#     4  10  20  35  60  90 122 161 198 235 290 364
#     4  11  22  41  65  89 119 162 199 243 301 362
#     4  10  18  36  63  88 120 164 201 233 292 366
#     4  12  22  40  65  90 119 157 196 256 298 352
#     4  11  27  40  60  93 120 147 210 262 301 347
#     4  11  23  46  63  83 117 164 202 249 308 361
#
# _framework density 19.287306000000001
#
# number of rings (size 3 to 8) (size 9 to 14) (size 15 to 20)
#    0.000    1.333    5.556    2.000    3.111    2.222 
#    0.000    2.222    0.000    4.000    0.000    0.000 
#    0.000    0.000    0.000    0.000    0.000    0.000 
#
# Total GULP energy -446468.489012 kJ/mol
# GULP energy per Si atom -12401.902473 kJ/mol
# Density = 1.924341 g / cm^3
# Si number density = 19.287306 Si / 1000 Ang^3
#
#
#
# Elastic Constant Matrix: (Units=GPa)
#
#
# Indices 1 2 3 4 5 6 
#
# 1 161.0905 55.0172 64.2415 0.0000 0.0000 0.0000
# 2 55.0172 125.9599 55.0279 0.0000 0.0000 0.0000
# 3 64.2415 55.0279 115.2914 0.0000 0.0000 0.0000
# 4 0.0000 0.0000 0.0000 15.9513 0.0000 0.0000
# 5 0.0000 0.0000 0.0000 0.0000 -60.0333 0.0000
# 6 0.0000 0.0000 0.0000 0.0000 0.0000 9.9186
#
#
#
# Elastic Compliance Matrix: (Units=1/GPa)
#
#
# Indices 1 2 3 4 5 6 
#
# 1 0.008379 -0.002047 -0.003692 0.000000 0.000000 0.000000
# 2 -0.002047 0.010531 -0.003886 0.000000 0.000000 0.000000
# 3 -0.003692 -0.003886 0.012585 0.000000 0.000000 0.000000
# 4 0.000000 0.000000 0.000000 0.062691 0.000000 0.000000
# 5 0.000000 0.000000 0.000000 0.000000 -0.016657 0.000000
# 6 0.000000 0.000000 0.000000 0.000000 0.000000 0.100820
#
#
# Mechanical properties :
#
#
# Convention : Reuss Voigt Hill
#
# Bulk Modulus (GPa) = 81.65828 83.43501 82.54664
# Shear Modulus (GPa) = 24.79176 8.37101 16.58138
#
# Velocity S-wave (km/s) = 3.58913 2.08557 2.93525
# Velocity P-wave (km/s) = 7.72046 7.01088 7.37421
#
# Compressibility (1/GPa) = 0.01224616
#
# Stress axis : x y z
#
# Youngs Moduli (GPa) = 119.34467 94.96122 79.45699
#
# Poissons Ratio (x) = 0.19438 0.29335
# Poissons Ratio (y) = 0.24429 0.30874
# Poissons Ratio (z) = 0.44061 0.36898
#
# Static dielectric constant tensor:
#      x y z
#    x 3.820980 0.000000 0.000000 
#    y 0.000000 3.523260 0.000000 
#    z 0.000000 0.000000 3.211380 
# 
# 
# High freq. dielectric constant tensor:
#      x y z
#    x 1.767740 0.000000 0.000000 
#    y 0.000000 1.748220 0.000000 
#    z 0.000000 0.000000 1.735280 
# 
# From -- ./inp_files/8332.got.cif
#   From: 2010.03.12/outbox.cif.g09.slc.cpg/sg67_5_cif.got.tgz:8332.got - 2010.04.10 22:41:39.
