data_PCOD8278166
_publ_section_title
;
Structure prediction by ZEFSAII (Michael W. Deem and Ramdas Pophale) SiO2 
 PCOD8278166
Probable space group: C M M A
;
_chemical_formula_sum "Si O2"
_cell_formula_units_Z 104
_cell_length_a 8.688056
_cell_length_b 25.988619
_cell_length_c 24.884706
_cell_angle_alpha 90.000000
_cell_angle_beta 90.000000
_cell_angle_gamma 90.000000
_cell_volume 5618.732132
_symmetry_space_group_name_H-M "C M M A"
_symmetry_group_IT_number 67
_symmetry_cell_setting 'orthorhombic'
loop_
_space_group_symop_operation_xyz
x,y,z
-x,1/2-y,z
x,-y,-z
-x,1/2+y,-z
-x,-y,-z
x,1/2+y,-z
-x,y,z
x,1/2-y,z
1/2+x,1/2+y,z
1/2-x,-y,z
1/2+x,1/2-y,-z
1/2-x,y,-z
1/2-x,1/2-y,-z
1/2+x,y,-z
1/2-x,1/2+y,z
1/2+x,-y,z
loop_
_atom_site_type_symbol
_atom_site_label
_atom_site_fract_x
_atom_site_fract_y
_atom_site_fract_z
Si Si1 0.816455 0.250000 0.440396
Si Si2 0.667747 0.250000 0.184803
Si Si3 0.682212 0.945567 0.371910
Si Si4 0.169411 0.750000 0.060425
Si Si5 0.317136 0.143778 0.827043
Si Si6 0.820712 0.855683 0.947568
Si Si7 0.182795 0.854322 0.440754
Si Si8 0.680367 0.946707 0.248332
O O1 0.750000 0.250000 0.500000
O O2 0.751888 0.302246 0.413163
O O3 0.000000 0.250000 0.439545
O O4 0.500000 0.250000 0.214015
O O5 0.638042 0.250000 0.122516
O O6 0.759094 0.302349 0.198379
O O7 0.500000 0.943970 0.382135
O O8 0.767417 0.901959 0.405004
O O9 0.725824 0.936228 0.309888
O O10 0.750000 0.000000 0.391433
O O11 0.276049 0.703109 0.043073
O O12 0.000000 0.750000 0.032449
O O13 0.500000 0.147398 0.827761
O O14 0.257454 0.129779 0.887710
O O15 0.253578 0.099250 0.788158
O O16 0.000000 0.865329 0.949703
O O17 0.750000 0.886176 0.000000
O O18 0.250000 0.862341 0.500000
O O19 0.000000 0.850129 0.444022
O O20 0.500000 0.950736 0.241316
O O21 0.750000 0.000000 0.227365
#
# Coordination Sequence:
#
# PCOD8278166 Si02
#       8
#     8   8  16   8  16  16  16  16
#     4  10  18  32  53  78 108 144 184 221 255 297
#     4   9  17  28  45  72 101 129 161 203 247 292
#     4  10  20  36  56  80 107 135 169 214 264 312
#     4   9  16  26  39  58  88 123 160 194 234 287
#     4   9  18  33  51  71  97 132 166 200 247 305
#     4  10  18  27  41  62  91 123 158 196 239 290
#     4  11  21  35  55  81 112 146 181 216 255 302
#     4   9  19  36  58  79  99 127 168 213 257 303
#
# _framework density 18.509515
#
# number of rings (size 3 to 8) (size 9 to 14) (size 15 to 20)
#    0.000    2.308    0.000    4.615    0.000    4.000 
#    0.000    2.308    0.000    2.308    0.000    3.231 
#    0.000    0.000    0.000    0.000    0.000    0.000 
#
# Total GULP energy -644310.955285 kJ/mol
# GULP energy per Si atom -12390.595294 kJ/mol
# Density = 1.846739 g / cm^3
# Si number density = 18.509515 Si / 1000 Ang^3
#
#
#
# Elastic Constant Matrix: (Units=GPa)
#
#
# Indices 1 2 3 4 5 6 
#
# 1 91.1917 50.0353 33.7889 0.0000 0.0000 0.0000
# 2 50.0353 154.1132 71.3656 0.0000 0.0000 0.0000
# 3 33.7889 71.3656 75.9215 0.0000 0.0000 0.0000
# 4 0.0000 0.0000 0.0000 25.3554 0.0000 0.0000
# 5 0.0000 0.0000 0.0000 0.0000 22.3065 0.0000
# 6 0.0000 0.0000 0.0000 0.0000 0.0000 30.0050
#
#
#
# Elastic Compliance Matrix: (Units=1/GPa)
#
#
# Indices 1 2 3 4 5 6 
#
# 1 0.013828 -0.002904 -0.003425 0.000000 0.000000 0.000000
# 2 -0.002904 0.012100 -0.010082 0.000000 0.000000 0.000000
# 3 -0.003425 -0.010082 0.024172 0.000000 0.000000 0.000000
# 4 0.000000 0.000000 0.000000 0.039439 0.000000 0.000000
# 5 0.000000 0.000000 0.000000 0.000000 0.044830 0.000000
# 6 0.000000 0.000000 0.000000 0.000000 0.000000 0.033328
#
#
# Mechanical properties :
#
#
# Convention : Reuss Voigt Hill
#
# Bulk Modulus (GPa) = 57.86941 70.17845 64.02393
# Shear Modulus (GPa) = 24.23918 26.60249 25.42083
#
# Velocity S-wave (km/s) = 3.62270 3.79520 3.70995
# Velocity P-wave (km/s) = 6.98793 7.56319 7.28124
#
# Compressibility (1/GPa) = 0.01728029
#
# Stress axis : x y z
#
# Youngs Moduli (GPa) = 72.31686 82.64505 41.36946
#
# Poissons Ratio (x) = 0.23996 0.14169
# Poissons Ratio (y) = 0.20997 0.41707
# Poissons Ratio (z) = 0.24768 0.83320
#
# Static dielectric constant tensor:
#      x y z
#    x 3.468280 0.000000 0.000000 
#    y 0.000000 3.652050 0.000000 
#    z 0.000000 0.000000 3.535430 
# 
# 
# High freq. dielectric constant tensor:
#      x y z
#    x 1.726840 0.000000 0.000000 
#    y 0.000000 1.702960 0.000000 
#    z 0.000000 0.000000 1.707260 
# 
# From -- ./inp_files/41052.got.cif
#   From: 2010.03.12/outbox.cif.g09.slc.cpg/sg67_21_cif.got.tgz:41052.got - 2010.04.10 22:41:39.
