data_PCOD8278651
_publ_section_title
;
Structure prediction by ZEFSAII (Michael W. Deem and Ramdas Pophale) SiO2 
 PCOD8278651
Probable space group: C M M A
;
_chemical_formula_sum "Si O2"
_cell_formula_units_Z 128
_cell_length_a 18.567439
_cell_length_b 24.646723
_cell_length_c 16.182399
_cell_angle_alpha 90.000000
_cell_angle_beta 90.000000
_cell_angle_gamma 90.000000
_cell_volume 7405.495034
_symmetry_space_group_name_H-M "C M M A"
_symmetry_group_IT_number 67
_symmetry_cell_setting 'orthorhombic'
loop_
_space_group_symop_operation_xyz
x,y,z
-x,1/2-y,z
x,-y,-z
-x,1/2+y,-z
-x,-y,-z
x,1/2+y,-z
-x,y,z
x,1/2-y,z
1/2+x,1/2+y,z
1/2-x,-y,z
1/2+x,1/2-y,-z
1/2-x,y,-z
1/2-x,1/2-y,-z
1/2+x,y,-z
1/2-x,1/2+y,z
1/2+x,-y,z
loop_
_atom_site_type_symbol
_atom_site_label
_atom_site_fract_x
_atom_site_fract_y
_atom_site_fract_z
Si Si1 0.579300 0.064205 0.004204
Si Si2 0.919755 0.957608 0.377554
Si Si3 0.634622 0.927224 0.345561
Si Si4 0.286008 0.405342 0.298603
Si Si5 0.297781 0.187224 0.421664
Si Si6 0.418990 0.369376 0.507254
Si Si7 0.916757 0.550792 0.824851
Si Si8 0.812426 0.958248 0.136479
O O1 0.500000 0.087951 0.031706
O O2 0.646826 0.076710 0.064646
O O3 0.598820 0.083522 0.910589
O O4 0.571870 0.000000 0.000000
O O5 0.862906 0.930454 0.317210
O O6 0.914019 0.929126 0.466529
O O7 0.000000 0.949140 0.340905
O O8 0.904337 0.021182 0.385704
O O9 0.720348 0.938161 0.340857
O O10 0.617076 0.875145 0.402441
O O11 0.604468 0.912780 0.254087
O O12 0.280568 0.344312 0.335676
O O13 0.278732 0.413099 0.199044
O O14 0.286388 0.250000 0.401679
O O15 0.250000 0.167799 0.500000
O O16 0.379221 0.174870 0.450201
O O17 0.500000 0.348378 0.516534
O O18 0.871984 0.494930 0.817374
O O19 0.000000 0.534088 0.821001
O O20 0.750000 0.000000 0.103523
#
# Coordination Sequence:
#
# PCOD8278651 Si02
#       8
#    16  16  16  16  16  16  16  16
#     4   8  17  30  43  61  91 140 181 196 225 280
#     4  10  20  31  45  67 101 137 167 197 240 286
#     4  12  19  31  45  70 102 139 168 201 237 286
#     4  11  21  33  48  75  97 126 172 208 246 299
#     4  10  21  40  59  70  92 128 164 210 265 307
#     4  10  21  34  51  74  96 126 167 207 248 298
#     4  10  19  30  44  64  97 142 175 198 232 277
#     4  11  18  29  43  67 100 132 164 201 238 277
#
# _framework density 17.284462000000001
#
# number of rings (size 3 to 8) (size 9 to 14) (size 15 to 20)
#    0.000    1.750    3.750    3.000    0.000    4.000 
#    0.000    1.250    0.000    0.000    0.000    0.000 
#    0.000    3.000    0.000    5.625    0.000    0.000 
#
# Total GULP energy -792854.681169 kJ/mol
# GULP energy per Si atom -12388.354393 kJ/mol
# Density = 1.724512 g / cm^3
# Si number density = 17.284462 Si / 1000 Ang^3
#
#
#
# Elastic Constant Matrix: (Units=GPa)
#
#
# Indices 1 2 3 4 5 6 
#
# 1 112.1749 15.2493 29.4768 0.0000 0.0000 0.0000
# 2 15.2493 34.7593 26.0092 0.0000 0.0000 0.0000
# 3 29.4768 26.0092 92.6954 0.0000 0.0000 0.0000
# 4 0.0000 0.0000 0.0000 15.2540 0.0000 0.0000
# 5 0.0000 0.0000 0.0000 0.0000 29.2482 0.0000
# 6 0.0000 0.0000 0.0000 0.0000 0.0000 11.1230
#
#
#
# Elastic Compliance Matrix: (Units=1/GPa)
#
#
# Indices 1 2 3 4 5 6 
#
# 1 0.009898 -0.002515 -0.002442 0.000000 0.000000 0.000000
# 2 -0.002515 0.037054 -0.009597 0.000000 0.000000 0.000000
# 3 -0.002442 -0.009597 0.014257 0.000000 0.000000 0.000000
# 4 0.000000 0.000000 0.000000 0.065556 0.000000 0.000000
# 5 0.000000 0.000000 0.000000 0.000000 0.034190 0.000000
# 6 0.000000 0.000000 0.000000 0.000000 0.000000 0.089903
#
#
# Mechanical properties :
#
#
# Convention : Reuss Voigt Hill
#
# Bulk Modulus (GPa) = 31.15157 42.34447 36.74802
# Shear Modulus (GPa) = 17.20174 22.38467 19.79321
#
# Velocity S-wave (km/s) = 3.15812 3.60262 3.38767
# Velocity P-wave (km/s) = 5.60003 6.46969 6.05051
#
# Compressibility (1/GPa) = 0.03210111
#
# Stress axis : x y z
#
# Youngs Moduli (GPa) = 101.02798 26.98773 70.13936
#
# Poissons Ratio (x) = 0.06788 0.17127
# Poissons Ratio (y) = 0.25412 0.67313
# Poissons Ratio (z) = 0.24669 0.25900
#
# Static dielectric constant tensor:
#      x y z
#    x 3.558870 0.000000 0.000000 
#    y 0.000000 2.592060 0.000000 
#    z 0.000000 0.000000 3.616460 
# 
# 
# High freq. dielectric constant tensor:
#      x y z
#    x 1.695100 0.000000 0.000000 
#    y 0.000000 1.579600 0.000000 
#    z 0.000000 0.000000 1.671840 
# 
# From -- ./inp_files/34545.got.cif
#   From: 2010.03.12/outbox.cif.g09.slc.cpg/sg67_18_cif.got.tgz:34545.got - 2010.04.10 22:41:39.
