data_PCOD8278761
_publ_section_title
;
Structure prediction by ZEFSAII (Michael W. Deem and Ramdas Pophale) SiO2 
 PCOD8278761
Probable space group: C M M A
;
_chemical_formula_sum "Si O2"
_cell_formula_units_Z 112
_cell_length_a 16.538403
_cell_length_b 25.147045
_cell_length_c 15.938230
_cell_angle_alpha 90.000000
_cell_angle_beta 90.000000
_cell_angle_gamma 90.000000
_cell_volume 6628.581785
_symmetry_space_group_name_H-M "C M M A"
_symmetry_group_IT_number 67
_symmetry_cell_setting 'orthorhombic'
loop_
_space_group_symop_operation_xyz
x,y,z
-x,1/2-y,z
x,-y,-z
-x,1/2+y,-z
-x,-y,-z
x,1/2+y,-z
-x,y,z
x,1/2-y,z
1/2+x,1/2+y,z
1/2-x,-y,z
1/2+x,1/2-y,-z
1/2-x,y,-z
1/2-x,1/2-y,-z
1/2+x,y,-z
1/2-x,1/2+y,z
1/2+x,-y,z
loop_
_atom_site_type_symbol
_atom_site_label
_atom_site_fract_x
_atom_site_fract_y
_atom_site_fract_z
Si Si1 0.500000 0.313428 0.982700
Si Si2 0.643360 0.809628 0.315261
Si Si3 0.828165 0.312838 0.947314
Si Si4 0.904506 0.111265 0.442813
Si Si5 0.905844 0.895579 0.366379
Si Si6 0.844489 0.496388 0.402597
Si Si7 0.179273 0.810772 0.246359
Si Si8 0.500000 0.186647 0.796097
O O1 0.500000 0.250000 0.987758
O O2 0.500000 0.336615 0.889156
O O3 0.583940 0.335200 0.023309
O O4 0.617394 0.750000 0.335580
O O5 0.641252 0.838634 0.404136
O O6 0.728939 0.812810 0.272522
O O7 0.578834 0.835269 0.251443
O O8 0.826859 0.250000 0.958938
O O9 0.822728 0.329094 0.850015
O O10 0.750000 0.335722 0.000000
O O11 0.872364 0.110562 0.538608
O O12 0.878794 0.061999 0.382171
O O13 0.000000 0.118136 0.441018
O O14 0.868247 0.852882 0.303262
O O15 0.000000 0.885607 0.361262
O O16 0.885489 0.957492 0.345307
O O17 0.869096 0.500000 0.500000
O O18 0.750000 0.500000 0.386574
O O19 0.145150 0.750000 0.257324
O O20 0.500000 0.250000 0.802479
#
# Coordination Sequence:
#
# PCOD8278761 Si02
#       8
#     8  16  16  16  16  16  16   8
#     4   9  16  26  46  67  88 123 158 195 246 302
#     4  10  19  31  47  69  99 131 164 206 249 289
#     4   9  17  30  47  69  96 127 167 209 251 303
#     4  10  19  32  50  70  95 131 172 209 249 298
#     4  10  21  34  48  69 100 136 170 208 251 297
#     4   9  17  31  51  71  92 122 164 214 258 290
#     4  10  21  33  47  69 101 138 170 207 251 301
#     4   9  16  28  46  69  95 121 155 201 250 288
#
# _framework density 16.896525
#
# number of rings (size 3 to 8) (size 9 to 14) (size 15 to 20)
#    0.000    2.429    0.714    2.143    1.000    7.714 
#    0.000    2.857    0.000    0.000    0.000    0.000 
#    0.000   14.286    0.000    0.000    0.000    0.000 
#
# Total GULP energy -693902.246416 kJ/mol
# GULP energy per Si atom -12391.111543 kJ/mol
# Density = 1.685807 g / cm^3
# Si number density = 16.896525 Si / 1000 Ang^3
#
#
#
# Elastic Constant Matrix: (Units=GPa)
#
#
# Indices 1 2 3 4 5 6 
#
# 1 84.2352 37.1607 41.7760 0.0000 0.0000 0.0000
# 2 37.1607 73.0169 53.6052 0.0000 0.0000 0.0000
# 3 41.7760 53.6052 101.0429 0.0000 0.0000 0.0000
# 4 0.0000 0.0000 0.0000 6.8902 0.0000 0.0000
# 5 0.0000 0.0000 0.0000 0.0000 28.7834 0.0000
# 6 0.0000 0.0000 0.0000 0.0000 0.0000 23.9213
#
#
#
# Elastic Compliance Matrix: (Units=1/GPa)
#
#
# Indices 1 2 3 4 5 6 
#
# 1 0.016151 -0.005434 -0.003795 0.000000 0.000000 0.000000
# 2 -0.005434 0.024261 -0.010624 0.000000 0.000000 0.000000
# 3 -0.003795 -0.010624 0.017102 0.000000 0.000000 0.000000
# 4 0.000000 0.000000 0.000000 0.145134 0.000000 0.000000
# 5 0.000000 0.000000 0.000000 0.000000 0.034742 0.000000
# 6 0.000000 0.000000 0.000000 0.000000 0.000000 0.041804
#
#
# Mechanical properties :
#
#
# Convention : Reuss Voigt Hill
#
# Bulk Modulus (GPa) = 56.15444 58.15319 57.15382
# Shear Modulus (GPa) = 15.39245 20.30252 17.84748
#
# Velocity S-wave (km/s) = 3.02152 3.47014 3.25357
# Velocity P-wave (km/s) = 6.74383 7.10970 6.92918
#
# Compressibility (1/GPa) = 0.01780803
#
# Stress axis : x y z
#
# Youngs Moduli (GPa) = 61.91723 41.21920 58.47255
#
# Poissons Ratio (x) = 0.22397 0.22189
# Poissons Ratio (y) = 0.33644 0.62122
# Poissons Ratio (z) = 0.23496 0.43792
#
# Static dielectric constant tensor:
#      x y z
#    x 3.295290 0.000000 0.000000 
#    y 0.000000 3.101130 0.000000 
#    z 0.000000 0.000000 3.165660 
# 
# 
# High freq. dielectric constant tensor:
#      x y z
#    x 1.669100 0.000000 0.000000 
#    y 0.000000 1.616240 0.000000 
#    z 0.000000 0.000000 1.633440 
# 
# From -- ./inp_files/27757.got.cif
#   From: 2010.03.12/outbox.cif.g09.slc.cpg/sg67_14_cif.got.tgz:27757.got - 2010.04.10 22:41:39.
