data_PCOD8278001
_publ_section_title
;
Structure prediction by ZEFSAII (Michael W. Deem and Ramdas Pophale) SiO2 
 PCOD8278001
Probable space group: C M M A
;
_chemical_formula_sum "Si O2"
_cell_formula_units_Z 96
_cell_length_a 27.166343
_cell_length_b 8.811997
_cell_length_c 24.109499
_cell_angle_alpha 90.000000
_cell_angle_beta 90.000000
_cell_angle_gamma 90.000000
_cell_volume 5771.566529
_symmetry_space_group_name_H-M "C M M A"
_symmetry_group_IT_number 67
_symmetry_cell_setting 'orthorhombic'
loop_
_space_group_symop_operation_xyz
x,y,z
-x,1/2-y,z
x,-y,-z
-x,1/2+y,-z
-x,-y,-z
x,1/2+y,-z
-x,y,z
x,1/2-y,z
1/2+x,1/2+y,z
1/2-x,-y,z
1/2+x,1/2-y,-z
1/2-x,y,-z
1/2-x,1/2-y,-z
1/2+x,y,-z
1/2-x,1/2+y,z
1/2+x,-y,z
loop_
_atom_site_type_symbol
_atom_site_label
_atom_site_fract_x
_atom_site_fract_y
_atom_site_fract_z
Si Si1 0.804511 0.931368 0.945148
Si Si2 0.696737 0.929450 0.834374
Si Si3 0.943954 0.074937 0.336767
Si Si4 0.858300 0.572229 0.277131
Si Si5 0.399238 0.428257 0.442001
Si Si6 0.301022 0.926787 0.616414
O O1 0.804159 0.750000 0.947338
O O2 0.750000 0.000000 0.944016
O O3 0.829016 0.992922 0.888364
O O4 0.831549 0.000000 0.000000
O O5 0.702623 0.750000 0.843595
O O6 0.661218 0.969002 0.783512
O O7 0.750000 0.000000 0.822050
O O8 0.931715 0.250000 0.346814
O O9 0.000000 0.049604 0.317913
O O10 0.909818 0.012252 0.287222
O O11 0.934993 0.988139 0.394213
O O12 0.868058 0.750000 0.284584
O O13 0.818302 0.517295 0.322635
O O14 0.415051 0.500000 0.500000
O O15 0.406171 0.250000 0.445682
O O16 0.342825 0.472531 0.427913
O O17 0.291861 0.750000 0.617294
O O18 0.250000 0.000000 0.598260
#
# Coordination Sequence:
#
# PCOD8278001 Si02
#       6
#    16  16  16  16  16  16
#     4  10  17  26  39  57  85 123 164 201 235 268
#     4  10  18  28  43  66  95 127 162 195 229 269
#     4  10  21  36  54  74  93 115 145 183 230 279
#     4   9  19  33  48  68  94 122 153 188 226 272
#     4  10  21  36  52  71  94 119 150 185 222 269
#     4   9  18  31  46  66  91 121 153 183 219 261
#
# _framework density 16.633265999999999
#
# number of rings (size 3 to 8) (size 9 to 14) (size 15 to 20)
#    0.000    2.333    0.000    6.000    0.000    6.667 
#    0.000    1.667    0.000    0.000    0.000    0.000 
#    0.000    0.667    0.000    2.167    0.000    3.500 
#
# Total GULP energy -595104.903887 kJ/mol
# GULP energy per Si atom -12398.018831 kJ/mol
# Density = 1.659541 g / cm^3
# Si number density = 16.633266 Si / 1000 Ang^3
#
#
#
# Elastic Constant Matrix: (Units=GPa)
#
#
# Indices 1 2 3 4 5 6 
#
# 1 70.1348 34.4591 31.8000 0.0000 0.0000 0.0000
# 2 34.4591 92.1143 52.8439 0.0000 0.0000 0.0000
# 3 31.8000 52.8439 125.1281 0.0000 0.0000 0.0000
# 4 0.0000 0.0000 0.0000 29.6521 0.0000 0.0000
# 5 0.0000 0.0000 0.0000 0.0000 13.4079 0.0000
# 6 0.0000 0.0000 0.0000 0.0000 0.0000 24.1213
#
#
#
# Elastic Compliance Matrix: (Units=1/GPa)
#
#
# Indices 1 2 3 4 5 6 
#
# 1 0.017948 -0.005408 -0.002278 0.000000 0.000000 0.000000
# 2 -0.005408 0.015956 -0.005364 0.000000 0.000000 0.000000
# 3 -0.002278 -0.005364 0.010836 0.000000 0.000000 0.000000
# 4 0.000000 0.000000 0.000000 0.033724 0.000000 0.000000
# 5 0.000000 0.000000 0.000000 0.000000 0.074583 0.000000
# 6 0.000000 0.000000 0.000000 0.000000 0.000000 0.041457
#
#
# Mechanical properties :
#
#
# Convention : Reuss Voigt Hill
#
# Bulk Modulus (GPa) = 53.64419 58.39811 56.02115
# Shear Modulus (GPa) = 22.04415 24.65453 23.34934
#
# Velocity S-wave (km/s) = 3.64442 3.85417 3.75076
# Velocity P-wave (km/s) = 7.07321 7.41563 7.24644
#
# Compressibility (1/GPa) = 0.01864135
#
# Stress axis : x y z
#
# Youngs Moduli (GPa) = 55.71720 62.67064 92.28394
#
# Poissons Ratio (x) = 0.33889 0.21018
# Poissons Ratio (y) = 0.30129 0.49505
# Poissons Ratio (z) = 0.12690 0.33619
#
# Static dielectric constant tensor:
#      x y z
#    x 2.859540 0.000000 0.000000 
#    y 0.000000 3.203270 0.000000 
#    z 0.000000 0.000000 3.661090 
# 
# 
# High freq. dielectric constant tensor:
#      x y z
#    x 1.599850 0.000000 0.000000 
#    y 0.000000 1.655090 0.000000 
#    z 0.000000 0.000000 1.644590 
# 
# From -- ./inp_files/44930.got.cif
#   From: 2010.03.12/outbox.cif.g09.slc.cpg/sg67_23_cif.got.tgz:44930.got - 2010.04.10 22:41:39.
