data_PCOD8278752
_publ_section_title
;
Structure prediction by ZEFSAII (Michael W. Deem and Ramdas Pophale) SiO2 
 PCOD8278752
Probable space group: C M M A
;
_chemical_formula_sum "Si O2"
_cell_formula_units_Z 104
_cell_length_a 9.249026
_cell_length_b 24.838826
_cell_length_c 26.861277
_cell_angle_alpha 90.000000
_cell_angle_beta 90.000000
_cell_angle_gamma 90.000000
_cell_volume 6170.974061
_symmetry_space_group_name_H-M "C M M A"
_symmetry_group_IT_number 67
_symmetry_cell_setting 'orthorhombic'
loop_
_space_group_symop_operation_xyz
x,y,z
-x,1/2-y,z
x,-y,-z
-x,1/2+y,-z
-x,-y,-z
x,1/2+y,-z
-x,y,z
x,1/2-y,z
1/2+x,1/2+y,z
1/2-x,-y,z
1/2+x,1/2-y,-z
1/2-x,y,-z
1/2-x,1/2-y,-z
1/2+x,y,-z
1/2-x,1/2+y,z
1/2+x,-y,z
loop_
_atom_site_type_symbol
_atom_site_label
_atom_site_fract_x
_atom_site_fract_y
_atom_site_fract_z
Si Si1 0.334040 0.250000 0.449113
Si Si2 0.341095 0.750000 0.796289
Si Si3 0.329629 0.750000 0.299877
Si Si4 0.835584 0.144386 0.859762
Si Si5 0.831183 0.312236 0.050709
Si Si6 0.831518 0.832110 0.365233
Si Si7 0.669673 0.946710 0.784150
Si Si8 0.332224 0.553163 0.670485
O O1 0.500000 0.250000 0.463738
O O2 0.250000 0.250000 0.500000
O O3 0.295095 0.304155 0.418102
O O4 0.500000 0.750000 0.769823
O O5 0.210269 0.750000 0.757764
O O6 0.325678 0.699527 0.831120
O O7 0.500000 0.750000 0.307398
O O8 0.263551 0.696180 0.323337
O O9 0.732302 0.147852 0.907547
O O10 0.777751 0.099347 0.821692
O O11 0.000000 0.132458 0.877014
O O12 0.803558 0.250000 0.065474
O O13 0.000000 0.324150 0.043862
O O14 0.750000 0.326361 0.000000
O O15 0.793624 0.895756 0.364872
O O16 0.000000 0.823222 0.351877
O O17 0.500000 0.956136 0.788165
O O18 0.712288 0.931962 0.727183
O O19 0.750000 0.000000 0.801701
O O20 0.500000 0.539235 0.667055
O O21 0.250000 0.500000 0.651163
#
# Coordination Sequence:
#
# PCOD8278752 Si02
#       8
#     8   8   8  16  16  16  16  16
#     4   9  18  32  52  75  98 129 168 209 253 300
#     4  10  19  31  47  67  97 133 160 190 240 302
#     4  11  21  29  43  70 101 128 162 209 246 280
#     4  10  19  32  51  71  93 125 164 197 235 289
#     4  10  20  33  50  71  97 124 154 194 243 296
#     4   9  18  34  52  69  96 136 171 198 244 307
#     4   9  18  31  48  71  97 129 164 197 233 279
#     4   9  17  31  51  73  99 130 168 205 240 287
#
# _framework density 16.853092
#
# number of rings (size 3 to 8) (size 9 to 14) (size 15 to 20)
#    0.000    2.462    0.769    2.538    0.000    6.154 
#    0.000    3.077    0.000    0.923    0.000    6.462 
#    0.000    0.000    0.000    0.000    0.000    0.000 
#
# Total GULP energy -644714.187442 kJ/mol
# GULP energy per Si atom -12398.349759 kJ/mol
# Density = 1.681473 g / cm^3
# Si number density = 16.853092 Si / 1000 Ang^3
#
#
#
# Elastic Constant Matrix: (Units=GPa)
#
#
# Indices 1 2 3 4 5 6 
#
# 1 69.5928 43.9123 45.3489 0.0000 0.0000 0.0000
# 2 43.9123 131.5945 55.7012 0.0000 0.0000 0.0000
# 3 45.3489 55.7012 91.6079 0.0000 0.0000 0.0000
# 4 0.0000 0.0000 0.0000 23.6419 0.0000 0.0000
# 5 0.0000 0.0000 0.0000 0.0000 29.8684 0.0000
# 6 0.0000 0.0000 0.0000 0.0000 0.0000 18.7039
#
#
#
# Elastic Compliance Matrix: (Units=1/GPa)
#
#
# Indices 1 2 3 4 5 6 
#
# 1 0.022516 -0.003764 -0.008857 0.000000 0.000000 0.000000
# 2 -0.003764 0.010862 -0.004741 0.000000 0.000000 0.000000
# 3 -0.008857 -0.004741 0.018184 0.000000 0.000000 0.000000
# 4 0.000000 0.000000 0.000000 0.042298 0.000000 0.000000
# 5 0.000000 0.000000 0.000000 0.000000 0.033480 0.000000
# 6 0.000000 0.000000 0.000000 0.000000 0.000000 0.053465
#
#
# Mechanical properties :
#
#
# Convention : Reuss Voigt Hill
#
# Bulk Modulus (GPa) = 59.39583 64.74668 62.07126
# Shear Modulus (GPa) = 22.60983 24.29835 23.45409
#
# Velocity S-wave (km/s) = 3.66674 3.80119 3.73457
# Velocity P-wave (km/s) = 7.29701 7.60046 7.45028
#
# Compressibility (1/GPa) = 0.01683620
#
# Stress axis : x y z
#
# Youngs Moduli (GPa) = 44.41200 92.06362 54.99469
#
# Poissons Ratio (x) = 0.34657 0.48711
# Poissons Ratio (y) = 0.16719 0.26073
# Poissons Ratio (z) = 0.39338 0.43648
#
# Static dielectric constant tensor:
#      x y z
#    x 3.149590 0.000000 0.000000 
#    y 0.000000 3.760440 0.000000 
#    z 0.000000 0.000000 3.001110 
# 
# 
# High freq. dielectric constant tensor:
#      x y z
#    x 1.648100 0.000000 0.000000 
#    y 0.000000 1.642200 0.000000 
#    z 0.000000 0.000000 1.631390 
# 
# From -- ./inp_files/43778.got.cif
#   From: 2010.03.12/outbox.cif.g09.slc.cpg/sg67_22_cif.got.tgz:43778.got - 2010.04.10 22:41:39.
