data_PCOD8278738
_publ_section_title
;
Structure prediction by ZEFSAII (Michael W. Deem and Ramdas Pophale) SiO2 
 PCOD8278738
Probable space group: C M M A
;
_chemical_formula_sum "Si O2"
_cell_formula_units_Z 80
_cell_length_a 44.525512
_cell_length_b 18.052617
_cell_length_c 5.113917
_cell_angle_alpha 90.000000
_cell_angle_beta 90.000000
_cell_angle_gamma 90.000000
_cell_volume 4110.576788
_symmetry_space_group_name_H-M "C M M A"
_symmetry_group_IT_number 67
_symmetry_cell_setting 'orthorhombic'
loop_
_space_group_symop_operation_xyz
x,y,z
-x,1/2-y,z
x,-y,-z
-x,1/2+y,-z
-x,-y,-z
x,1/2+y,-z
-x,y,z
x,1/2-y,z
1/2+x,1/2+y,z
1/2-x,-y,z
1/2+x,1/2-y,-z
1/2-x,y,-z
1/2-x,1/2-y,-z
1/2+x,y,-z
1/2-x,1/2+y,z
1/2+x,-y,z
loop_
_atom_site_type_symbol
_atom_site_label
_atom_site_fract_x
_atom_site_fract_y
_atom_site_fract_z
Si Si1 0.666068 0.834077 0.326758
Si Si2 0.731565 0.663269 0.243750
Si Si3 0.533609 0.911912 0.484942
Si Si4 0.871438 0.665723 0.188904
Si Si5 0.568404 0.412154 0.018213
O O1 0.670917 0.750000 0.424257
O O2 0.698660 0.873069 0.293708
O O3 0.644392 0.869623 0.550981
O O4 0.652181 0.837820 0.042360
O O5 0.726983 0.750000 0.186389
O O6 0.750000 0.646440 0.500000
O O7 0.750000 0.627879 0.000000
O O8 0.500000 0.881865 0.432716
O O9 0.545270 0.882890 0.762955
O O10 0.533336 0.000000 0.500000
O O11 0.555995 0.881934 0.258838
O O12 0.882223 0.750000 0.241807
O O13 0.899194 0.617194 0.095487
O O14 0.570347 0.500000 0.000000
#
# Coordination Sequence:
#
# PCOD8278738 Si02
#       5
#    16  16  16  16  16
#     4   9  17  28  42  62  89 123 156 183 222 274
#     4   9  15  23  37  58  85 115 147 185 225 261
#     4   9  17  30  49  71  92 115 146 186 231 273
#     4  10  19  31  46  64  92 126 154 182 222 275
#     4  10  19  31  49  71  92 116 150 190 225 265
#
# _framework density 19.461988000000002
#
# number of rings (size 3 to 8) (size 9 to 14) (size 15 to 20)
#    0.000    2.600    0.000    3.000    0.000    7.200 
#    0.000    0.000    0.000    3.600    0.000    0.000 
#    0.000   12.000    0.000    0.000    0.000    0.000 
#
# Total GULP energy -495728.448879 kJ/mol
# GULP energy per Si atom -12393.211222 kJ/mol
# Density = 1.941769 g / cm^3
# Si number density = 19.461988 Si / 1000 Ang^3
#
#
#
# Elastic Constant Matrix: (Units=GPa)
#
#
# Indices 1 2 3 4 5 6 
#
# 1 136.0263 14.3255 48.0756 0.0000 0.0000 0.0000
# 2 14.3255 9.4809 14.7598 0.0000 0.0000 0.0000
# 3 48.0756 14.7598 131.5775 0.0000 0.0000 0.0000
# 4 0.0000 0.0000 0.0000 12.0097 0.0000 0.0000
# 5 0.0000 0.0000 0.0000 0.0000 41.5208 0.0000
# 6 0.0000 0.0000 0.0000 0.0000 0.0000 17.0251
#
#
#
# Elastic Compliance Matrix: (Units=1/GPa)
#
#
# Indices 1 2 3 4 5 6 
#
# 1 0.009237 -0.010544 -0.002192 0.000000 0.000000 0.000000
# 2 -0.010544 0.139828 -0.011833 0.000000 0.000000 0.000000
# 3 -0.002192 -0.011833 0.009728 0.000000 0.000000 0.000000
# 4 0.000000 0.000000 0.000000 0.083266 0.000000 0.000000
# 5 0.000000 0.000000 0.000000 0.000000 0.024084 0.000000
# 6 0.000000 0.000000 0.000000 0.000000 0.000000 0.058737
#
#
# Mechanical properties :
#
#
# Convention : Reuss Voigt Hill
#
# Bulk Modulus (GPa) = 9.11949 47.93405 28.52677
# Shear Modulus (GPa) = 12.17822 27.43937 19.80880
#
# Velocity S-wave (km/s) = 2.50420 3.75893 3.19379
# Velocity P-wave (km/s) = 3.61349 6.59716 5.31883
#
# Compressibility (1/GPa) = 0.10965524
#
# Stress axis : x y z
#
# Youngs Moduli (GPa) = 108.26374 7.15167 102.79200
#
# Poissons Ratio (x) = 0.07541 0.22533
# Poissons Ratio (y) = 1.14152 1.21631
# Poissons Ratio (z) = 0.23733 0.08462
#
# Static dielectric constant tensor:
#      x y z
#    x 3.691420 0.000000 0.000000 
#    y 0.000000 2.912190 0.000000 
#    z 0.000000 0.000000 3.870810 
# 
# 
# High freq. dielectric constant tensor:
#      x y z
#    x 1.777330 0.000000 0.000000 
#    y 0.000000 1.668220 0.000000 
#    z 0.000000 0.000000 1.782520 
# 
# From -- ./inp_files/4812.got.cif
#   From: 2010.03.12/outbox.cif.g09.slc.cpg/sg67_3_cif.got.tgz:4812.got - 2010.04.10 22:41:39.
