data_PCOD8278259
_publ_section_title
;
Structure prediction by ZEFSAII (Michael W. Deem and Ramdas Pophale) SiO2 
 PCOD8278259
Probable space group: C M M A
;
_chemical_formula_sum "Si O2"
_cell_formula_units_Z 88
_cell_length_a 25.553081
_cell_length_b 9.016214
_cell_length_c 25.024985
_cell_angle_alpha 90.000000
_cell_angle_beta 90.000000
_cell_angle_gamma 90.000000
_cell_volume 5765.557512
_symmetry_space_group_name_H-M "C M M A"
_symmetry_group_IT_number 67
_symmetry_cell_setting 'orthorhombic'
loop_
_space_group_symop_operation_xyz
x,y,z
-x,1/2-y,z
x,-y,-z
-x,1/2+y,-z
-x,-y,-z
x,1/2+y,-z
-x,y,z
x,1/2-y,z
1/2+x,1/2+y,z
1/2-x,-y,z
1/2+x,1/2-y,-z
1/2-x,y,-z
1/2-x,1/2-y,-z
1/2+x,y,-z
1/2-x,1/2+y,z
1/2+x,-y,z
loop_
_atom_site_type_symbol
_atom_site_label
_atom_site_fract_x
_atom_site_fract_y
_atom_site_fract_z
Si Si1 0.500000 0.926891 0.442899
Si Si2 0.804127 0.427222 0.443952
Si Si3 0.437582 0.582864 0.052392
Si Si4 0.562333 0.082958 0.156761
Si Si5 0.061249 0.577724 0.737522
Si Si6 0.097475 0.924884 0.624818
O O1 0.500000 0.750000 0.448729
O O2 0.449069 0.987521 0.411863
O O3 0.500000 0.000000 0.500000
O O4 0.821267 0.500000 0.500000
O O5 0.798512 0.250000 0.450793
O O6 0.750000 0.500000 0.424491
O O7 0.846849 0.471206 0.399652
O O8 0.500000 0.579948 0.052598
O O9 0.416349 0.750000 0.051535
O O10 0.415389 0.503553 0.105363
O O11 0.415894 0.500000 0.000000
O O12 0.500000 0.077381 0.156141
O O13 0.583351 0.250000 0.154124
O O14 0.583186 0.008675 0.211065
O O15 0.072112 0.750000 0.747776
O O16 0.092086 0.515951 0.685531
O O17 0.000000 0.548437 0.727942
O O18 0.090706 0.750000 0.626731
#
# Coordination Sequence:
#
# PCOD8278259 Si02
#       6
#     8  16  16  16  16  16
#     4  10  18  30  44  62  84 106 129 160 201 246
#     4  10  19  32  48  65  83 105 133 166 203 245
#     4   9  15  22  32  46  64  90 126 167 206 240
#     4   9  16  24  33  48  71  97 125 161 200 237
#     4   9  15  26  42  56  72  99 132 162 194 238
#     4   9  17  29  46  63  81 105 134 165 201 245
#
# _framework density 15.263051000000001
#
# number of rings (size 3 to 8) (size 9 to 14) (size 15 to 20)
#    0.000    2.727    0.909    2.727    0.000    4.364 
#    0.000    3.636    0.000    0.000    0.000    0.000 
#    0.000    0.000    0.000    0.000    0.000    0.909 
#
# Total GULP energy -545468.900643 kJ/mol
# GULP energy per Si atom -12397.020469 kJ/mol
# Density = 1.522831 g / cm^3
# Si number density = 15.263051 Si / 1000 Ang^3
#
#
#
# Elastic Constant Matrix: (Units=GPa)
#
#
# Indices 1 2 3 4 5 6 
#
# 1 50.6397 28.2201 48.6055 0.0000 0.0000 0.0000
# 2 28.2201 91.0274 66.8483 0.0000 0.0000 0.0000
# 3 48.6055 66.8483 170.9535 0.0000 0.0000 0.0000
# 4 0.0000 0.0000 0.0000 28.1715 0.0000 0.0000
# 5 0.0000 0.0000 0.0000 0.0000 11.6708 0.0000
# 6 0.0000 0.0000 0.0000 0.0000 0.0000 10.4099
#
#
#
# Elastic Compliance Matrix: (Units=1/GPa)
#
#
# Indices 1 2 3 4 5 6 
#
# 1 0.028160 -0.003999 -0.006443 0.000000 0.000000 0.000000
# 2 -0.003999 0.015979 -0.005111 0.000000 0.000000 0.000000
# 3 -0.006443 -0.005111 0.009680 0.000000 0.000000 0.000000
# 4 0.000000 0.000000 0.000000 0.035497 0.000000 0.000000
# 5 0.000000 0.000000 0.000000 0.000000 0.085684 0.000000
# 6 0.000000 0.000000 0.000000 0.000000 0.000000 0.096063
#
#
# Mechanical properties :
#
#
# Convention : Reuss Voigt Hill
#
# Bulk Modulus (GPa) = 44.02726 66.66313 55.34519
# Shear Modulus (GPa) = 16.14264 21.31355 18.72809
#
# Velocity S-wave (km/s) = 3.25565 3.74092 3.50669
# Velocity P-wave (km/s) = 6.56053 7.90128 7.26192
#
# Compressibility (1/GPa) = 0.02271320
#
# Stress axis : x y z
#
# Youngs Moduli (GPa) = 35.51182 62.58192 103.30472
#
# Poissons Ratio (x) = 0.25024 0.66557
# Poissons Ratio (y) = 0.14200 0.52804
# Poissons Ratio (z) = 0.22880 0.31988
#
# Static dielectric constant tensor:
#      x y z
#    x 2.530300 0.000000 0.000000 
#    y 0.000000 2.922450 0.000000 
#    z 0.000000 0.000000 3.158110 
# 
# 
# High freq. dielectric constant tensor:
#      x y z
#    x 1.517290 0.000000 0.000000 
#    y 0.000000 1.583340 0.000000 
#    z 0.000000 0.000000 1.598780 
# 
# From -- ./inp_files/41113.got.cif
#   From: 2010.03.12/outbox.cif.g09.slc.cpg/sg67_21_cif.got.tgz:41113.got - 2010.04.10 22:41:39.
