data_PCOD8278479
_publ_section_title
;
Structure prediction by ZEFSAII (Michael W. Deem and Ramdas Pophale) SiO2 
 PCOD8278479
Probable space group: C M M A
;
_chemical_formula_sum "Si O2"
_cell_formula_units_Z 72
_cell_length_a 8.829233
_cell_length_b 20.060811
_cell_length_c 23.822923
_cell_angle_alpha 90.000000
_cell_angle_beta 90.000000
_cell_angle_gamma 90.000000
_cell_volume 4219.553631
_symmetry_space_group_name_H-M "C M M A"
_symmetry_group_IT_number 67
_symmetry_cell_setting 'orthorhombic'
loop_
_space_group_symop_operation_xyz
x,y,z
-x,1/2-y,z
x,-y,-z
-x,1/2+y,-z
-x,-y,-z
x,1/2+y,-z
-x,y,z
x,1/2-y,z
1/2+x,1/2+y,z
1/2-x,-y,z
1/2+x,1/2-y,-z
1/2-x,y,-z
1/2-x,1/2-y,-z
1/2+x,y,-z
1/2-x,1/2+y,z
1/2+x,-y,z
loop_
_atom_site_type_symbol
_atom_site_label
_atom_site_fract_x
_atom_site_fract_y
_atom_site_fract_z
Si Si1 0.677933 0.568969 0.140211
Si Si2 0.177320 0.827216 0.058516
Si Si3 0.179905 0.250000 0.438943
Si Si4 0.177085 0.931799 0.730004
Si Si5 0.670341 0.823414 0.653593
O O1 0.500000 0.566152 0.129338
O O2 0.750000 0.500000 0.118197
O O3 0.749019 0.631044 0.108196
O O4 0.718746 0.579853 0.205202
O O5 0.213158 0.750000 0.070577
O O6 0.000000 0.841529 0.055753
O O7 0.250000 0.850140 0.000000
O O8 0.250000 0.250000 0.500000
O O9 0.239957 0.316090 0.405806
O O10 0.000000 0.250000 0.442169
O O11 0.241893 0.871149 0.695027
O O12 0.000000 0.936302 0.720221
O O13 0.250000 0.000000 0.707796
O O14 0.500000 0.849945 0.642398
O O15 0.664680 0.750000 0.682329
#
# Coordination Sequence:
#
# PCOD8278479 Si02
#       5
#    16  16   8  16  16
#     4  10  21  36  54  77 104 136 174 215 260 313
#     4  10  21  37  56  77 102 133 169 213 264 316
#     4  10  18  32  54  80 110 142 179 220 263 306
#     4  10  20  34  53  76 106 142 176 217 265 314
#     4   9  19  33  51  78 107 139 178 218 259 306
#
# _framework density 17.063416
#
# number of rings (size 3 to 8) (size 9 to 14) (size 15 to 20)
#    0.667    1.556    0.000    3.333    0.000    5.333 
#    0.000    6.667    0.000    0.667    0.000    4.667 
#    0.000    0.000    0.000    0.000    0.000    0.000 
#
# Total GULP energy -446344.537605 kJ/mol
# GULP energy per Si atom -12398.459378 kJ/mol
# Density = 1.702458 g / cm^3
# Si number density = 17.063416 Si / 1000 Ang^3
#
#
#
# Elastic Constant Matrix: (Units=GPa)
#
#
# Indices 1 2 3 4 5 6 
#
# 1 118.0224 50.8520 63.9286 0.0000 0.0000 0.0000
# 2 50.8520 89.8287 61.9403 0.0000 0.0000 0.0000
# 3 63.9286 61.9403 92.6415 0.0000 0.0000 0.0000
# 4 0.0000 0.0000 0.0000 -6.1893 0.0000 0.0000
# 5 0.0000 0.0000 0.0000 0.0000 34.1947 0.0000
# 6 0.0000 0.0000 0.0000 0.0000 0.0000 35.3960
#
#
#
# Elastic Compliance Matrix: (Units=1/GPa)
#
#
# Indices 1 2 3 4 5 6 
#
# 1 0.013784 -0.002309 -0.007968 0.000000 0.000000 0.000000
# 2 -0.002309 0.021041 -0.012475 0.000000 0.000000 0.000000
# 3 -0.007968 -0.012475 0.024634 0.000000 0.000000 0.000000
# 4 0.000000 0.000000 0.000000 -0.161568 0.000000 0.000000
# 5 0.000000 0.000000 0.000000 0.000000 0.029244 0.000000
# 6 0.000000 0.000000 0.000000 0.000000 0.000000 0.028252
#
#
# Mechanical properties :
#
#
# Convention : Reuss Voigt Hill
#
# Bulk Modulus (GPa) = 71.65911 72.65939 72.15925
# Shear Modulus (GPa) = 902.18514 20.93172 461.55843
#
# Velocity S-wave (km/s) = 23.01896 3.50623 16.46460
# Velocity P-wave (km/s) = 27.36026 7.68544 20.09539
#
# Compressibility (1/GPa) = 0.01395496
#
# Stress axis : x y z
#
# Youngs Moduli (GPa) = 72.54933 47.52549 40.59479
#
# Poissons Ratio (x) = 0.10972 0.32346
# Poissons Ratio (y) = 0.16749 0.50643
# Poissons Ratio (z) = 0.57808 0.59289
#
# Static dielectric constant tensor:
#      x y z
#    x 3.409200 0.000000 0.000000 
#    y 0.000000 3.130540 0.000000 
#    z 0.000000 0.000000 3.069440 
# 
# 
# High freq. dielectric constant tensor:
#      x y z
#    x 1.682210 0.000000 0.000000 
#    y 0.000000 1.650320 0.000000 
#    z 0.000000 0.000000 1.645670 
# 
# From -- ./inp_files/36771.got.cif
#   From: 2010.03.12/outbox.cif.g09.slc.cpg/sg67_19_cif.got.tgz:36771.got - 2010.04.10 22:41:39.
