data_PCOD8278643
_publ_section_title
;
Structure prediction by ZEFSAII (Michael W. Deem and Ramdas Pophale) SiO2 
 PCOD8278643
Probable space group: C M M A
;
_chemical_formula_sum "Si O2"
_cell_formula_units_Z 96
_cell_length_a 19.769115
_cell_length_b 23.032732
_cell_length_c 11.716164
_cell_angle_alpha 90.000000
_cell_angle_beta 90.000000
_cell_angle_gamma 90.000000
_cell_volume 5334.799777
_symmetry_space_group_name_H-M "C M M A"
_symmetry_group_IT_number 67
_symmetry_cell_setting 'orthorhombic'
loop_
_space_group_symop_operation_xyz
x,y,z
-x,1/2-y,z
x,-y,-z
-x,1/2+y,-z
-x,-y,-z
x,1/2+y,-z
-x,y,z
x,1/2-y,z
1/2+x,1/2+y,z
1/2-x,-y,z
1/2+x,1/2-y,-z
1/2-x,y,-z
1/2-x,1/2-y,-z
1/2+x,y,-z
1/2-x,1/2+y,z
1/2+x,-y,z
loop_
_atom_site_type_symbol
_atom_site_label
_atom_site_fract_x
_atom_site_fract_y
_atom_site_fract_z
Si Si1 0.424333 0.535691 0.277966
Si Si2 0.073463 0.250000 0.019010
Si Si3 0.106151 0.372525 0.095533
Si Si4 0.632444 0.952120 0.908486
Si Si5 0.786228 0.055133 0.378531
Si Si6 0.748734 0.371374 0.179600
Si Si7 0.205099 0.250000 0.886957
O O1 0.500000 0.527981 0.330418
O O2 0.424032 0.594837 0.204420
O O3 0.409027 0.481354 0.194642
O O4 0.367596 0.541264 0.378712
O O5 0.080412 0.306639 0.099009
O O6 0.000000 0.250000 0.961142
O O7 0.126401 0.250000 0.917022
O O8 0.188094 0.372360 0.093144
O O9 0.085461 0.405593 0.977633
O O10 0.696453 0.919795 0.857476
O O11 0.657273 0.000000 0.000000
O O12 0.750000 0.063769 0.500000
O O13 0.774363 0.113126 0.306379
O O14 0.750000 0.000000 0.318241
O O15 0.718522 0.306937 0.187844
O O16 0.250000 0.250000 0.000000
#
# Coordination Sequence:
#
# PCOD8278643 Si02
#       7
#    16   8  16  16  16  16   8
#     4  10  21  35  53  80 112 143 176 218 278 336
#     4  12  22  32  46  74 114 150 177 214 263 311
#     4  10  20  31  50  76 114 148 182 218 258 324
#     4  10  19  29  49  80 113 143 181 216 262 323
#     4  10  21  38  59  80 104 136 185 242 285 317
#     4  11  19  34  56  79 105 145 191 233 269 313
#     4  12  20  36  55  80 111 146 189 222 255 325
#
# _framework density 17.995052999999999
#
# number of rings (size 3 to 8) (size 9 to 14) (size 15 to 20)
#    0.000    1.500    5.000    1.000    0.000    7.000 
#    0.000    2.083    0.000    0.000    0.000    0.000 
#    0.000    0.000    0.000    0.000    0.000    0.000 
#
# Total GULP energy -594856.419005 kJ/mol
# GULP energy per Si atom -12392.842063 kJ/mol
# Density = 1.795409 g / cm^3
# Si number density = 17.995053 Si / 1000 Ang^3
#
#
#
# Elastic Constant Matrix: (Units=GPa)
#
#
# Indices 1 2 3 4 5 6 
#
# 1 149.6344 39.9067 37.2554 0.0000 0.0000 0.0000
# 2 39.9067 128.5745 29.9733 0.0000 0.0000 0.0000
# 3 37.2554 29.9733 68.3619 0.0000 0.0000 0.0000
# 4 0.0000 0.0000 0.0000 16.6792 0.0000 0.0000
# 5 0.0000 0.0000 0.0000 0.0000 17.7972 0.0000
# 6 0.0000 0.0000 0.0000 0.0000 0.0000 12.8211
#
#
#
# Elastic Compliance Matrix: (Units=1/GPa)
#
#
# Indices 1 2 3 4 5 6 
#
# 1 0.008031 -0.001640 -0.003658 0.000000 0.000000 0.000000
# 2 -0.001640 0.008998 -0.003051 0.000000 0.000000 0.000000
# 3 -0.003658 -0.003051 0.017959 0.000000 0.000000 0.000000
# 4 0.000000 0.000000 0.000000 0.059955 0.000000 0.000000
# 5 0.000000 0.000000 0.000000 0.000000 0.056189 0.000000
# 6 0.000000 0.000000 0.000000 0.000000 0.000000 0.077997
#
#
# Mechanical properties :
#
#
# Convention : Reuss Voigt Hill
#
# Bulk Modulus (GPa) = 54.67428 62.31575 58.49501
# Shear Modulus (GPa) = 19.84732 25.42184 22.63458
#
# Velocity S-wave (km/s) = 3.32464 3.76268 3.55043
# Velocity P-wave (km/s) = 6.72210 7.31995 7.02738
#
# Compressibility (1/GPa) = 0.01829013
#
# Stress axis : x y z
#
# Youngs Moduli (GPa) = 124.51762 111.13640 55.68170
#
# Poissons Ratio (x) = 0.18226 0.20366
# Poissons Ratio (y) = 0.20421 0.16991
# Poissons Ratio (z) = 0.45544 0.33912
#
# Static dielectric constant tensor:
#      x y z
#    x 3.424270 0.000000 0.000000 
#    y 0.000000 3.615320 0.000000 
#    z 0.000000 0.000000 2.921470 
# 
# 
# High freq. dielectric constant tensor:
#      x y z
#    x 1.700740 0.000000 0.000000 
#    y 0.000000 1.705820 0.000000 
#    z 0.000000 0.000000 1.648310 
# 
# From -- ./inp_files/19725.got.cif
#   From: 2010.03.12/outbox.cif.g09.slc.cpg/sg67_10_cif.got.tgz:19725.got - 2010.04.10 22:41:39.
