data_PCOD8278323
_publ_section_title
;
Structure prediction by ZEFSAII (Michael W. Deem and Ramdas Pophale) SiO2 
 PCOD8278323
Probable space group: C M M A
;
_chemical_formula_sum "Si O2"
_cell_formula_units_Z 88
_cell_length_a 10.512455
_cell_length_b 18.571887
_cell_length_c 22.452729
_cell_angle_alpha 90.000000
_cell_angle_beta 90.000000
_cell_angle_gamma 90.000000
_cell_volume 4383.583836
_symmetry_space_group_name_H-M "C M M A"
_symmetry_group_IT_number 67
_symmetry_cell_setting 'orthorhombic'
loop_
_space_group_symop_operation_xyz
x,y,z
-x,1/2-y,z
x,-y,-z
-x,1/2+y,-z
-x,-y,-z
x,1/2+y,-z
-x,y,z
x,1/2-y,z
1/2+x,1/2+y,z
1/2-x,-y,z
1/2+x,1/2-y,-z
1/2-x,y,-z
1/2-x,1/2-y,-z
1/2+x,y,-z
1/2-x,1/2+y,z
1/2+x,-y,z
loop_
_atom_site_type_symbol
_atom_site_label
_atom_site_fract_x
_atom_site_fract_y
_atom_site_fract_z
Si Si1 0.750000 0.000000 0.351388
Si Si2 0.857806 0.750000 0.405873
Si Si3 0.000000 0.586724 0.934118
Si Si4 0.141867 0.250000 0.308340
Si Si5 0.000000 0.585046 0.070251
Si Si6 0.142256 0.598434 0.748190
Si Si7 0.643228 0.593917 0.546620
Si Si8 0.252551 0.581361 0.127509
O O1 0.836475 0.050340 0.310187
O O2 0.661835 0.051744 0.391417
O O3 0.749177 0.750000 0.357407
O O4 0.840603 0.679337 0.445862
O O5 0.000000 0.750000 0.376898
O O6 0.000000 0.500996 0.926637
O O7 0.875168 0.620001 0.901943
O O8 0.000000 0.611654 0.002390
O O9 0.159626 0.318490 0.266892
O O10 0.000000 0.250000 0.337804
O O11 0.877194 0.618038 0.104279
O O12 0.241781 0.581780 0.800635
O O13 0.000000 0.582119 0.771557
O O14 0.500000 0.577304 0.522769
O O15 0.750000 0.566875 0.500000
O O16 0.250000 0.500000 0.103931
#
# Coordination Sequence:
#
# PCOD8278323 Si02
#       8
#     8   8   8   8   8  16  16  16
#     4  12  23  38  64  88 125 154 196 246 304 348
#     4  10  21  43  65  92 118 153 199 240 293 350
#     4   9  16  30  48  73 117 155 191 240 286 347
#     4  10  22  41  63  84 116 158 207 240 288 355
#     4   9  18  28  46  79 113 155 193 232 298 347
#     4  11  22  38  59  87 118 159 201 245 296 356
#     4  11  25  43  65  92 122 157 197 243 294 353
#     4  10  18  30  50  79 114 151 194 242 291 346
#
# _framework density 20.074898999999998
#
# number of rings (size 3 to 8) (size 9 to 14) (size 15 to 20)
#    0.000    1.636    3.636    1.636    0.000    5.091 
#    3.273    0.000    0.000    0.000    0.000    3.818 
#    0.000    0.000    0.000    0.000    0.000    0.000 
#
# Total GULP energy -545535.929909 kJ/mol
# GULP energy per Si atom -12398.543862 kJ/mol
# Density = 2.002921 g / cm^3
# Si number density = 20.074899 Si / 1000 Ang^3
#
#
#
# Elastic Constant Matrix: (Units=GPa)
#
#
# Indices 1 2 3 4 5 6 
#
# 1 179.9110 21.0151 79.4947 0.0000 0.0000 0.0000
# 2 21.0151 77.8364 23.8625 0.0000 0.0000 0.0000
# 3 79.4947 23.8625 128.7562 0.0000 0.0000 0.0000
# 4 0.0000 0.0000 0.0000 8.9234 0.0000 0.0000
# 5 0.0000 0.0000 0.0000 0.0000 43.8522 0.0000
# 6 0.0000 0.0000 0.0000 0.0000 0.0000 3.3656
#
#
#
# Elastic Compliance Matrix: (Units=1/GPa)
#
#
# Indices 1 2 3 4 5 6 
#
# 1 0.007675 -0.000657 -0.004617 0.000000 0.000000 0.000000
# 2 -0.000657 0.013678 -0.002129 0.000000 0.000000 0.000000
# 3 -0.004617 -0.002129 0.011012 0.000000 0.000000 0.000000
# 4 0.000000 0.000000 0.000000 0.112065 0.000000 0.000000
# 5 0.000000 0.000000 0.000000 0.000000 0.022804 0.000000
# 6 0.000000 0.000000 0.000000 0.000000 0.000000 0.297125
#
#
# Mechanical properties :
#
#
# Convention : Reuss Voigt Hill
#
# Bulk Modulus (GPa) = 56.95319 70.58315 63.76817
# Shear Modulus (GPa) = 10.30890 28.70365 19.50628
#
# Velocity S-wave (km/s) = 2.26856 3.78541 3.12055
# Velocity P-wave (km/s) = 5.94086 7.37170 6.69462
#
# Compressibility (1/GPa) = 0.01755828
#
# Stress axis : x y z
#
# Youngs Moduli (GPa) = 130.29292 73.11225 90.81221
#
# Poissons Ratio (x) = 0.04802 0.41927
# Poissons Ratio (y) = 0.08557 0.19337
# Poissons Ratio (z) = 0.60155 0.15568
#
# Static dielectric constant tensor:
#      x y z
#    x 3.977750 0.000000 0.000000 
#    y 0.000000 3.349190 0.000000 
#    z 0.000000 0.000000 3.437750 
# 
# 
# High freq. dielectric constant tensor:
#      x y z
#    x 1.798460 0.000000 0.000000 
#    y 0.000000 1.753350 0.000000 
#    z 0.000000 0.000000 1.778450 
# 
# From -- ./inp_files/40735.got.cif
#   From: 2010.03.12/outbox.cif.g09.slc.cpg/sg67_21_cif.got.tgz:40735.got - 2010.04.10 22:41:39.
