data_PCOD8278301
_publ_section_title
;
Structure prediction by ZEFSAII (Michael W. Deem and Ramdas Pophale) SiO2 
 PCOD8278301
Probable space group: C M M A
;
_chemical_formula_sum "Si O2"
_cell_formula_units_Z 96
_cell_length_a 19.210609
_cell_length_b 8.754947
_cell_length_c 31.370594
_cell_angle_alpha 90.000000
_cell_angle_beta 90.000000
_cell_angle_gamma 90.000000
_cell_volume 5276.153186
_symmetry_space_group_name_H-M "C M M A"
_symmetry_group_IT_number 67
_symmetry_cell_setting 'orthorhombic'
loop_
_space_group_symop_operation_xyz
x,y,z
-x,1/2-y,z
x,-y,-z
-x,1/2+y,-z
-x,-y,-z
x,1/2+y,-z
-x,y,z
x,1/2-y,z
1/2+x,1/2+y,z
1/2-x,-y,z
1/2+x,1/2-y,-z
1/2-x,y,-z
1/2-x,1/2-y,-z
1/2+x,y,-z
1/2-x,1/2+y,z
1/2+x,-y,z
loop_
_atom_site_type_symbol
_atom_site_label
_atom_site_fract_x
_atom_site_fract_y
_atom_site_fract_z
Si Si1 0.417128 0.421830 0.457635
Si Si2 0.078621 0.430007 0.371366
Si Si3 0.173764 0.431863 0.121720
Si Si4 0.326200 0.931747 0.293270
Si Si5 0.172992 0.432315 0.792511
Si Si6 0.921201 0.070002 0.043734
O O1 0.385876 0.500000 0.500000
O O2 0.500000 0.431870 0.458779
O O3 0.389830 0.250000 0.456885
O O4 0.389415 0.503713 0.415046
O O5 0.079146 0.250000 0.375700
O O6 0.125788 0.484940 0.332262
O O7 0.000000 0.490187 0.363691
O O8 0.178268 0.250000 0.126005
O O9 0.250000 0.500000 0.114171
O O10 0.137754 0.502293 0.164406
O O11 0.126245 0.486206 0.082601
O O12 0.321411 0.750000 0.288820
O O13 0.250000 0.000000 0.300995
O O14 0.362162 0.002546 0.250620
O O15 0.172806 0.250000 0.792559
O O16 0.250000 0.500000 0.792506
O O17 0.918323 0.250000 0.039466
O O18 0.000000 0.012653 0.051875
O O19 0.891466 0.000000 0.000000
#
# Coordination Sequence:
#
# PCOD8278301 Si02
#       6
#    16  16  16  16  16  16
#     4   9  16  26  43  67  94 124 157 194 236 282
#     4   9  18  32  49  70  96 125 158 196 237 280
#     4  10  19  32  51  74  99 124 156 198 240 281
#     4  10  19  32  51  72  96 127 161 196 235 283
#     4  10  18  30  49  71  96 125 159 197 236 280
#     4   9  19  35  53  72  96 129 164 196 233 280
#
# _framework density 18.195074000000002
#
# number of rings (size 3 to 8) (size 9 to 14) (size 15 to 20)
#    0.000    2.500    0.000    5.000    0.000    5.000 
#    0.000    2.500    0.000    5.500    0.000    3.500 
#    0.000    0.000    0.000    0.000    0.000    0.000 
#
# Total GULP energy -595043.307799 kJ/mol
# GULP energy per Si atom -12396.735579 kJ/mol
# Density = 1.815366 g / cm^3
# Si number density = 18.195074 Si / 1000 Ang^3
#
#
#
# Elastic Constant Matrix: (Units=GPa)
#
#
# Indices 1 2 3 4 5 6 
#
# 1 50.9989 26.2000 66.2131 0.0000 0.0000 0.0000
# 2 26.2000 79.5333 64.7026 0.0000 0.0000 0.0000
# 3 66.2131 64.7026 219.8485 0.0000 0.0000 0.0000
# 4 0.0000 0.0000 0.0000 37.8016 0.0000 0.0000
# 5 0.0000 0.0000 0.0000 0.0000 30.3387 0.0000
# 6 0.0000 0.0000 0.0000 0.0000 0.0000 18.3920
#
#
#
# Elastic Compliance Matrix: (Units=1/GPa)
#
#
# Indices 1 2 3 4 5 6 
#
# 1 0.032990 -0.003661 -0.008858 0.000000 0.000000 0.000000
# 2 -0.003661 0.016938 -0.003882 0.000000 0.000000 0.000000
# 3 -0.008858 -0.003882 0.008359 0.000000 0.000000 0.000000
# 4 0.000000 0.000000 0.000000 0.026454 0.000000 0.000000
# 5 0.000000 0.000000 0.000000 0.000000 0.032961 0.000000
# 6 0.000000 0.000000 0.000000 0.000000 0.000000 0.054371
#
#
# Mechanical properties :
#
#
# Convention : Reuss Voigt Hill
#
# Bulk Modulus (GPa) = 39.24111 73.84578 56.54345
# Shear Modulus (GPa) = 23.43333 30.19080 26.81207
#
# Velocity S-wave (km/s) = 3.59262 4.07785 3.84290
# Velocity P-wave (km/s) = 6.23080 7.92752 7.12981
#
# Compressibility (1/GPa) = 0.02548348
#
# Stress axis : x y z
#
# Youngs Moduli (GPa) = 30.31211 59.03996 119.63076
#
# Poissons Ratio (x) = 0.21615 1.05973
# Poissons Ratio (y) = 0.11098 0.46443
# Poissons Ratio (z) = 0.26851 0.22920
#
# Static dielectric constant tensor:
#      x y z
#    x 3.050970 0.000000 0.000000 
#    y 0.000000 3.369160 0.000000 
#    z 0.000000 0.000000 4.063740 
# 
# 
# High freq. dielectric constant tensor:
#      x y z
#    x 1.653350 0.000000 0.000000 
#    y 0.000000 1.713430 0.000000 
#    z 0.000000 0.000000 1.730030 
# 
# From -- ./inp_files/42555.got.cif
#   From: 2010.03.12/outbox.cif.g09.slc.cpg/sg67_22_cif.got.tgz:42555.got - 2010.04.10 22:41:39.
