data_PCOD8278343
_publ_section_title
;
Structure prediction by ZEFSAII (Michael W. Deem and Ramdas Pophale) SiO2 
 PCOD8278343
Probable space group: C M M A
;
_chemical_formula_sum "Si O2"
_cell_formula_units_Z 72
_cell_length_a 8.869654
_cell_length_b 20.516096
_cell_length_c 19.776893
_cell_angle_alpha 90.000000
_cell_angle_beta 90.000000
_cell_angle_gamma 90.000000
_cell_volume 3598.814528
_symmetry_space_group_name_H-M "C M M A"
_symmetry_group_IT_number 67
_symmetry_cell_setting 'orthorhombic'
loop_
_space_group_symop_operation_xyz
x,y,z
-x,1/2-y,z
x,-y,-z
-x,1/2+y,-z
-x,-y,-z
x,1/2+y,-z
-x,y,z
x,1/2-y,z
1/2+x,1/2+y,z
1/2-x,-y,z
1/2+x,1/2-y,-z
1/2-x,y,-z
1/2-x,1/2-y,-z
1/2+x,y,-z
1/2-x,1/2+y,z
1/2+x,-y,z
loop_
_atom_site_type_symbol
_atom_site_label
_atom_site_fract_x
_atom_site_fract_y
_atom_site_fract_z
Si Si1 0.820728 0.250000 0.073950
Si Si2 0.168984 0.172669 0.566375
Si Si3 0.827899 0.065746 0.791101
Si Si4 0.827589 0.122271 0.929908
Si Si5 0.321989 0.325029 0.704787
O O1 0.756504 0.183736 0.106032
O O2 0.000000 0.250000 0.076964
O O3 0.750000 0.250000 0.000000
O O4 0.164134 0.250000 0.560841
O O5 0.250000 0.143297 0.500000
O O6 0.261346 0.151254 0.632288
O O7 0.000000 0.144202 0.570882
O O8 0.818587 0.066411 0.873150
O O9 0.747427 0.129345 0.761893
O O10 0.000000 0.065744 0.766531
O O11 0.750000 0.000000 0.764552
O O12 0.000000 0.140847 0.947083
O O13 0.750000 0.099281 0.000000
O O14 0.500000 0.332577 0.705032
O O15 0.275138 0.250000 0.719889
#
# Coordination Sequence:
#
# PCOD8278343 Si02
#       5
#     8  16  16  16  16
#     4  10  18  30  52  80 110 140 173 220 277 334
#     4   9  16  28  50  82 119 155 191 235 285 333
#     4  11  25  42  60  82 113 152 193 239 292 348
#     4  10  21  37  57  82 110 144 185 234 288 345
#     4  10  21  37  59  88 119 153 195 239 286 341
#
# _framework density 20.006587
#
# number of rings (size 3 to 8) (size 9 to 14) (size 15 to 20)
#    0.000    2.000    0.000    5.000    1.556    8.000 
#    0.000    2.222    0.000    0.667    0.000    4.667 
#    0.000    0.000    0.000    0.000    0.000    0.000 
#
# Total GULP energy -446291.393307 kJ/mol
# GULP energy per Si atom -12396.983147 kJ/mol
# Density = 1.996105 g / cm^3
# Si number density = 20.006587 Si / 1000 Ang^3
#
#
#
# Elastic Constant Matrix: (Units=GPa)
#
#
# Indices 1 2 3 4 5 6 
#
# 1 164.1555 46.8962 52.1577 0.0000 0.0000 0.0000
# 2 46.8962 71.1168 37.4140 0.0000 0.0000 0.0000
# 3 52.1577 37.4140 104.0497 0.0000 0.0000 0.0000
# 4 0.0000 0.0000 0.0000 9.8286 0.0000 0.0000
# 5 0.0000 0.0000 0.0000 0.0000 35.3584 0.0000
# 6 0.0000 0.0000 0.0000 0.0000 0.0000 23.9263
#
#
#
# Elastic Compliance Matrix: (Units=1/GPa)
#
#
# Indices 1 2 3 4 5 6 
#
# 1 0.008047 -0.003927 -0.002622 0.000000 0.000000 0.000000
# 2 -0.003927 0.019258 -0.004956 0.000000 0.000000 0.000000
# 3 -0.002622 -0.004956 0.012707 0.000000 0.000000 0.000000
# 4 0.000000 0.000000 0.000000 0.101744 0.000000 0.000000
# 5 0.000000 0.000000 0.000000 0.000000 0.028282 0.000000
# 6 0.000000 0.000000 0.000000 0.000000 0.000000 0.041795
#
#
# Mechanical properties :
#
#
# Convention : Reuss Voigt Hill
#
# Bulk Modulus (GPa) = 58.81539 68.02864 63.42201
# Shear Modulus (GPa) = 20.78915 27.34626 24.06771
#
# Velocity S-wave (km/s) = 3.22703 3.70112 3.47218
# Velocity P-wave (km/s) = 6.58383 7.23473 6.91694
#
# Compressibility (1/GPa) = 0.01700235
#
# Stress axis : x y z
#
# Youngs Moduli (GPa) = 124.27620 51.92529 78.69606
#
# Poissons Ratio (x) = 0.20391 0.20630
# Poissons Ratio (y) = 0.48803 0.39005
# Poissons Ratio (z) = 0.32579 0.25736
#
# Static dielectric constant tensor:
#      x y z
#    x 3.821090 0.000000 0.000000 
#    y 0.000000 3.719130 0.000000 
#    z 0.000000 0.000000 3.576900 
# 
# 
# High freq. dielectric constant tensor:
#      x y z
#    x 1.800170 0.000000 0.000000 
#    y 0.000000 1.741830 0.000000 
#    z 0.000000 0.000000 1.778200 
# 
# From -- ./inp_files/36732.got.cif
#   From: 2010.03.12/outbox.cif.g09.slc.cpg/sg67_19_cif.got.tgz:36732.got - 2010.04.10 22:41:39.
