data_PCOD8279775
_publ_section_title
;
Structure prediction by ZEFSAII (Michael W. Deem and Ramdas Pophale) SiO2 
 PCOD8279775
Probable space group: C M M A
;
_chemical_formula_sum "Si O2"
_cell_formula_units_Z 104
_cell_length_a 22.404202
_cell_length_b 9.390776
_cell_length_c 28.628412
_cell_angle_alpha 90.000000
_cell_angle_beta 90.000000
_cell_angle_gamma 90.000000
_cell_volume 6023.212975
_symmetry_space_group_name_H-M "C M M A"
_symmetry_group_IT_number 67
_symmetry_cell_setting 'orthorhombic'
loop_
_space_group_symop_operation_xyz
x,y,z
-x,1/2-y,z
x,-y,-z
-x,1/2+y,-z
-x,-y,-z
x,1/2+y,-z
-x,y,z
x,1/2-y,z
1/2+x,1/2+y,z
1/2-x,-y,z
1/2+x,1/2-y,-z
1/2-x,y,-z
1/2-x,1/2-y,-z
1/2+x,y,-z
1/2-x,1/2+y,z
1/2+x,-y,z
loop_
_atom_site_type_symbol
_atom_site_label
_atom_site_fract_x
_atom_site_fract_y
_atom_site_fract_z
Si Si1 0.928932 0.912713 0.544698
Si Si2 0.500000 0.594449 0.045192
Si Si3 0.382375 0.503708 0.092972
Si Si4 0.429065 0.588721 0.277543
Si Si5 0.928859 0.912424 0.365829
Si Si6 0.697789 0.750000 0.067604
Si Si7 0.669091 0.750000 0.959171
Si Si8 0.068868 0.912048 0.188665
O O1 0.904263 0.750000 0.544444
O O2 0.000000 0.908023 0.544466
O O3 0.905062 0.000000 0.500000
O O4 0.905371 0.997804 0.589905
O O5 0.500000 0.750000 0.023489
O O6 0.443175 0.578624 0.078373
O O7 0.500000 0.500000 0.000000
O O8 0.327148 0.612463 0.094238
O O9 0.369109 0.386463 0.054072
O O10 0.389444 0.435777 0.143945
O O11 0.500000 0.591484 0.280210
O O12 0.403791 0.750000 0.280429
O O13 0.404028 0.493590 0.320098
O O14 0.408323 0.516894 0.229248
O O15 0.904269 0.750000 0.367401
O O16 0.000000 0.908628 0.365528
O O17 0.769087 0.750000 0.069531
O O18 0.676842 0.750000 0.014221
O O19 0.075940 0.750000 0.206196
O O20 0.000000 0.943294 0.175637
#
# Coordination Sequence:
#
# PCOD8279775 Si02
#       8
#    16   8  16  16  16   8   8  16
#     4   9  15  21  29  42  63  91 129 178 231 280
#     4  12  26  38  56  82 110 136 160 194 245 298
#     4  12  23  38  58  81 107 133 164 202 245 296
#     4   9  17  27  42  59  80 109 144 183 225 280
#     4   9  15  23  34  49  69  98 135 176 225 281
#     4  11  24  41  61  81 103 134 171 207 238 285
#     4  11  24  43  61  79 103 136 171 203 242 285
#     4  10  20  34  48  69  98 128 154 186 238 296
#
# _framework density 17.266532999999999
#
# number of rings (size 3 to 8) (size 9 to 14) (size 15 to 20)
#    0.000    1.846    2.308    3.231    2.154    6.769 
#    0.000    0.000    0.000    0.000    0.000    0.000 
#    0.000    0.000    0.000    0.000    0.000    0.000 
#
# Total GULP energy -644804.033323 kJ/mol
# GULP energy per Si atom -12400.077564 kJ/mol
# Density = 1.722723 g / cm^3
# Si number density = 17.266533 Si / 1000 Ang^3
#
#
#
# Elastic Constant Matrix: (Units=GPa)
#
#
# Indices 1 2 3 4 5 6 
#
# 1 35.5641 13.8859 9.9746 0.0000 0.0000 0.0000
# 2 13.8859 151.2943 52.6711 0.0000 0.0000 0.0000
# 3 9.9746 52.6711 107.1621 0.0000 0.0000 0.0000
# 4 0.0000 0.0000 0.0000 38.9356 0.0000 0.0000
# 5 0.0000 0.0000 0.0000 0.0000 5.0835 0.0000
# 6 0.0000 0.0000 0.0000 0.0000 0.0000 12.7322
#
#
#
# Elastic Compliance Matrix: (Units=1/GPa)
#
#
# Indices 1 2 3 4 5 6 
#
# 1 0.029419 -0.002107 -0.001702 0.000000 0.000000 0.000000
# 2 -0.002107 0.008125 -0.003797 0.000000 0.000000 0.000000
# 3 -0.001702 -0.003797 0.011357 0.000000 0.000000 0.000000
# 4 0.000000 0.000000 0.000000 0.025683 0.000000 0.000000
# 5 0.000000 0.000000 0.000000 0.000000 0.196716 0.000000
# 6 0.000000 0.000000 0.000000 0.000000 0.000000 0.078541
#
#
# Mechanical properties :
#
#
# Convention : Reuss Voigt Hill
#
# Bulk Modulus (GPa) = 29.68616 49.67596 39.68106
# Shear Modulus (GPa) = 13.28785 25.84953 19.56869
#
# Velocity S-wave (km/s) = 2.77713 3.87342 3.37015
# Velocity P-wave (km/s) = 5.24533 6.98835 6.17861
#
# Compressibility (1/GPa) = 0.03368573
#
# Stress axis : x y z
#
# Youngs Moduli (GPa) = 33.99219 123.07605 88.05476
#
# Poissons Ratio (x) = 0.25937 0.14991
# Poissons Ratio (y) = 0.07163 0.33438
# Poissons Ratio (z) = 0.05787 0.46737
#
# Static dielectric constant tensor:
#      x y z
#    x 2.700720 0.000000 0.000000 
#    y 0.000000 3.489170 0.000000 
#    z 0.000000 0.000000 3.254050 
# 
# 
# High freq. dielectric constant tensor:
#      x y z
#    x 1.586590 0.000000 0.000000 
#    y 0.000000 1.692590 0.000000 
#    z 0.000000 0.000000 1.669420 
# 
# From -- ./inp_files/43871.got.cif
#   From: 2010.03.12/outbox.cif.g09.slc.cpg/sg67_22_cif.got.tgz:43871.got - 2010.04.10 22:41:39.
