data_PCOD8279751
_publ_section_title
;
Structure prediction by ZEFSAII (Michael W. Deem and Ramdas Pophale) SiO2 
 PCOD8279751
Probable space group: C M M A
;
_chemical_formula_sum "Si O2"
_cell_formula_units_Z 80
_cell_length_a 23.458892
_cell_length_b 8.638278
_cell_length_c 20.382112
_cell_angle_alpha 90.000000
_cell_angle_beta 90.000000
_cell_angle_gamma 90.000000
_cell_volume 4130.321482
_symmetry_space_group_name_H-M "C M M A"
_symmetry_group_IT_number 67
_symmetry_cell_setting 'orthorhombic'
loop_
_space_group_symop_operation_xyz
x,y,z
-x,1/2-y,z
x,-y,-z
-x,1/2+y,-z
-x,-y,-z
x,1/2+y,-z
-x,y,z
x,1/2-y,z
1/2+x,1/2+y,z
1/2-x,-y,z
1/2+x,1/2-y,-z
1/2-x,y,-z
1/2-x,1/2-y,-z
1/2+x,y,-z
1/2-x,1/2+y,z
1/2+x,-y,z
loop_
_atom_site_type_symbol
_atom_site_label
_atom_site_fract_x
_atom_site_fract_y
_atom_site_fract_z
Si Si1 0.885973 0.566077 0.305184
Si Si2 0.311951 0.566461 0.193409
Si Si3 0.565198 0.932923 0.429766
Si Si4 0.500000 0.566048 0.907772
Si Si5 0.500000 0.433178 0.239599
Si Si6 0.380333 0.067066 0.934665
O O1 0.881148 0.750000 0.304723
O O2 0.834086 0.497634 0.263118
O O3 0.888392 0.503969 0.379513
O O4 0.943890 0.500116 0.273527
O O5 0.309918 0.750000 0.196799
O O6 0.250000 0.500000 0.180215
O O7 0.350799 0.507686 0.132491
O O8 0.500000 0.983014 0.411951
O O9 0.571228 0.750000 0.430950
O O10 0.582186 0.000000 0.500000
O O11 0.500000 0.750000 0.914414
O O12 0.500000 0.506414 0.833695
O O13 0.555708 0.495970 0.940636
O O14 0.500000 0.250000 0.243928
O O15 0.379234 0.250000 0.937249
O O16 0.348545 0.000000 0.000000
#
# Coordination Sequence:
#
# PCOD8279751 Si02
#       6
#    16  16  16   8   8  16
#     4  11  20  36  60  87 119 154 193 238 290 345
#     4  11  25  43  62  85 111 147 196 246 294 344
#     4  10  20  33  52  84 124 163 198 235 282 339
#     4  11  20  36  59  86 119 153 188 230 285 348
#     4   9  18  30  53  86 115 149 187 228 284 345
#     4  11  24  40  59  85 116 151 190 236 291 349
#
# _framework density 19.368953999999999
#
# number of rings (size 3 to 8) (size 9 to 14) (size 15 to 20)
#    0.000    1.400    3.000    3.000    0.000    3.600 
#    0.000    2.000    0.000    0.600    0.000    4.200 
#    0.000    0.000    0.000    0.000    0.000    0.000 
#
# Total GULP energy -496015.186672 kJ/mol
# GULP energy per Si atom -12400.379667 kJ/mol
# Density = 1.932487 g / cm^3
# Si number density = 19.368954 Si / 1000 Ang^3
#
#
#
# Elastic Constant Matrix: (Units=GPa)
#
#
# Indices 1 2 3 4 5 6 
#
# 1 92.0982 34.2862 49.5968 0.0000 0.0000 0.0000
# 2 34.2862 87.7519 49.8240 0.0000 0.0000 0.0000
# 3 49.5968 49.8240 156.7198 0.0000 0.0000 0.0000
# 4 0.0000 0.0000 0.0000 35.8331 0.0000 0.0000
# 5 0.0000 0.0000 0.0000 0.0000 7.2298 0.0000
# 6 0.0000 0.0000 0.0000 0.0000 0.0000 27.9059
#
#
#
# Elastic Compliance Matrix: (Units=1/GPa)
#
#
# Indices 1 2 3 4 5 6 
#
# 1 0.013960 -0.003595 -0.003275 0.000000 0.000000 0.000000
# 2 -0.003595 0.014832 -0.003578 0.000000 0.000000 0.000000
# 3 -0.003275 -0.003578 0.008555 0.000000 0.000000 0.000000
# 4 0.000000 0.000000 0.000000 0.027907 0.000000 0.000000
# 5 0.000000 0.000000 0.000000 0.000000 0.138316 0.000000
# 6 0.000000 0.000000 0.000000 0.000000 0.000000 0.035835
#
#
# Mechanical properties :
#
#
# Convention : Reuss Voigt Hill
#
# Bulk Modulus (GPa) = 60.78563 67.10932 63.94747
# Shear Modulus (GPa) = 18.81234 27.71795 23.26514
#
# Velocity S-wave (km/s) = 3.11989 3.78703 3.46953
# Velocity P-wave (km/s) = 6.66554 7.33793 7.00980
#
# Compressibility (1/GPa) = 0.01645126
#
# Stress axis : x y z
#
# Youngs Moduli (GPa) = 71.63355 67.42343 116.89596
#
# Poissons Ratio (x) = 0.24238 0.38283
# Poissons Ratio (y) = 0.25752 0.41820
# Poissons Ratio (z) = 0.23460 0.24121
#
# Static dielectric constant tensor:
#      x y z
#    x 3.378080 0.000000 0.000000 
#    y 0.000000 3.419050 0.000000 
#    z 0.000000 0.000000 3.939840 
# 
# 
# High freq. dielectric constant tensor:
#      x y z
#    x 1.722310 0.000000 0.000000 
#    y 0.000000 1.757720 0.000000 
#    z 0.000000 0.000000 1.773600 
# 
# From -- ./inp_files/36874.got.cif
#   From: 2010.03.12/outbox.cif.g09.slc.cpg/sg67_19_cif.got.tgz:36874.got - 2010.04.10 22:41:39.
