data_PCOD8279892
_publ_section_title
;
Structure prediction by ZEFSAII (Michael W. Deem and Ramdas Pophale) SiO2 
 PCOD8279892
Probable space group: C M M A
;
_chemical_formula_sum "Si O2"
_cell_formula_units_Z 80
_cell_length_a 9.048094
_cell_length_b 20.012341
_cell_length_c 25.233650
_cell_angle_alpha 90.000000
_cell_angle_beta 90.000000
_cell_angle_gamma 90.000000
_cell_volume 4569.146396
_symmetry_space_group_name_H-M "C M M A"
_symmetry_group_IT_number 67
_symmetry_cell_setting 'orthorhombic'
loop_
_space_group_symop_operation_xyz
x,y,z
-x,1/2-y,z
x,-y,-z
-x,1/2+y,-z
-x,-y,-z
x,1/2+y,-z
-x,y,z
x,1/2-y,z
1/2+x,1/2+y,z
1/2-x,-y,z
1/2+x,1/2-y,-z
1/2-x,y,-z
1/2-x,1/2-y,-z
1/2+x,y,-z
1/2-x,1/2+y,z
1/2+x,-y,z
loop_
_atom_site_type_symbol
_atom_site_label
_atom_site_fract_x
_atom_site_fract_y
_atom_site_fract_z
Si Si1 0.174340 0.069130 0.869350
Si Si2 0.837078 0.670481 0.450279
Si Si3 0.172601 0.827731 0.945066
Si Si4 0.172420 0.567232 0.253005
Si Si5 0.323344 0.324202 0.334687
O O1 0.248087 0.130440 0.899589
O O2 0.208090 0.083224 0.807916
O O3 0.000000 0.065366 0.881298
O O4 0.250000 0.000000 0.887712
O O5 0.843270 0.750000 0.454695
O O6 0.750000 0.639214 0.500000
O O7 0.765902 0.651953 0.392903
O O8 0.000000 0.639661 0.453956
O O9 0.195867 0.750000 0.931585
O O10 0.000000 0.846154 0.948575
O O11 0.250000 0.846763 0.000000
O O12 0.250000 0.500000 0.271960
O O13 0.236544 0.626920 0.289060
O O14 0.000000 0.557712 0.262269
O O15 0.500000 0.322718 0.336145
O O16 0.263195 0.250000 0.321634
#
# Coordination Sequence:
#
# PCOD8279892 Si02
#       5
#    16  16  16  16  16
#     4  10  20  34  53  76 101 130 166 205 243 287
#     4   8  13  22  38  60  86 114 145 185 231 276
#     4  10  21  37  56  78 105 134 163 198 241 288
#     4   9  18  32  50  70  94 125 158 194 235 281
#     4   8  14  26  45  68  91 118 155 194 231 276
#
# _framework density 17.508741000000001
#
# number of rings (size 3 to 8) (size 9 to 14) (size 15 to 20)
#    0.000    3.000    0.000    2.400    0.000    3.200 
#    0.000    5.000    0.000    2.400    0.000    4.200 
#    0.000    0.000    0.000    0.000    0.000    0.000 
#
# Total GULP energy -495826.990628 kJ/mol
# GULP energy per Si atom -12395.674766 kJ/mol
# Density = 1.746889 g / cm^3
# Si number density = 17.508741 Si / 1000 Ang^3
#
#
#
# Elastic Constant Matrix: (Units=GPa)
#
#
# Indices 1 2 3 4 5 6 
#
# 1 71.6450 43.1391 49.3940 0.0000 0.0000 0.0000
# 2 43.1391 96.2521 78.5928 0.0000 0.0000 0.0000
# 3 49.3940 78.5928 120.5348 0.0000 0.0000 0.0000
# 4 0.0000 0.0000 0.0000 11.1611 0.0000 0.0000
# 5 0.0000 0.0000 0.0000 0.0000 25.9274 0.0000
# 6 0.0000 0.0000 0.0000 0.0000 0.0000 25.2664
#
#
#
# Elastic Compliance Matrix: (Units=1/GPa)
#
#
# Indices 1 2 3 4 5 6 
#
# 1 0.020514 -0.004983 -0.005157 0.000000 0.000000 0.000000
# 2 -0.004983 0.023429 -0.013235 0.000000 0.000000 0.000000
# 3 -0.005157 -0.013235 0.019039 0.000000 0.000000 0.000000
# 4 0.000000 0.000000 0.000000 0.089597 0.000000 0.000000
# 5 0.000000 0.000000 0.000000 0.000000 0.038569 0.000000
# 6 0.000000 0.000000 0.000000 0.000000 0.000000 0.039578
#
#
# Mechanical properties :
#
#
# Convention : Reuss Voigt Hill
#
# Bulk Modulus (GPa) = 61.60553 70.07597 65.84075
# Shear Modulus (GPa) = 17.67489 20.29136 18.98313
#
# Velocity S-wave (km/s) = 3.18069 3.40800 3.29630
# Velocity P-wave (km/s) = 6.98220 7.45629 7.22313
#
# Compressibility (1/GPa) = 0.01623231
#
# Stress axis : x y z
#
# Youngs Moduli (GPa) = 48.74822 42.68175 52.52318
#
# Poissons Ratio (x) = 0.21268 0.27087
# Poissons Ratio (y) = 0.24291 0.69513
# Poissons Ratio (z) = 0.25141 0.56488
#
# Static dielectric constant tensor:
#      x y z
#    x 3.217700 0.000000 0.000000 
#    y 0.000000 3.165490 0.000000 
#    z 0.000000 0.000000 3.486710 
# 
# 
# High freq. dielectric constant tensor:
#      x y z
#    x 1.661530 0.000000 0.000000 
#    y 0.000000 1.653740 0.000000 
#    z 0.000000 0.000000 1.686750 
# 
# From -- ./inp_files/43236.got.cif
#   From: 2010.03.12/outbox.cif.g09.slc.cpg/sg67_22_cif.got.tgz:43236.got - 2010.04.10 22:41:39.
