data_PCOD8279503
_publ_section_title
;
Structure prediction by ZEFSAII (Michael W. Deem and Ramdas Pophale) SiO2 
 PCOD8279503
Probable space group: C M M A
;
_chemical_formula_sum "Si O2"
_cell_formula_units_Z 80
_cell_length_a 8.871693
_cell_length_b 30.181673
_cell_length_c 15.538474
_cell_angle_alpha 90.000000
_cell_angle_beta 90.000000
_cell_angle_gamma 90.000000
_cell_volume 4160.621221
_symmetry_space_group_name_H-M "C M M A"
_symmetry_group_IT_number 67
_symmetry_cell_setting 'orthorhombic'
loop_
_space_group_symop_operation_xyz
x,y,z
-x,1/2-y,z
x,-y,-z
-x,1/2+y,-z
-x,-y,-z
x,1/2+y,-z
-x,y,z
x,1/2-y,z
1/2+x,1/2+y,z
1/2-x,-y,z
1/2+x,1/2-y,-z
1/2-x,y,-z
1/2-x,1/2-y,-z
1/2+x,y,-z
1/2-x,1/2+y,z
1/2+x,-y,z
loop_
_atom_site_type_symbol
_atom_site_label
_atom_site_fract_x
_atom_site_fract_y
_atom_site_fract_z
Si Si1 0.667031 0.957849 0.399628
Si Si2 0.674012 0.802116 0.088381
Si Si3 0.824489 0.631973 0.416527
Si Si4 0.166990 0.956568 0.801261
Si Si5 0.320844 0.135229 0.222915
O O1 0.500000 0.949986 0.439524
O O2 0.781588 0.919195 0.424366
O O3 0.648196 0.964496 0.298924
O O4 0.750000 0.000000 0.440244
O O5 0.500000 0.816438 0.087358
O O6 0.693498 0.750000 0.100855
O O7 0.759432 0.824585 0.167098
O O8 0.750000 0.818086 0.000000
O O9 0.750000 0.657045 0.500000
O O10 0.767249 0.646487 0.321186
O O11 0.000000 0.639932 0.424529
O O12 0.258406 0.910986 0.815551
O O13 0.000000 0.952233 0.843342
O O14 0.250000 0.000000 0.841790
O O15 0.500000 0.132419 0.218922
#
# Coordination Sequence:
#
# PCOD8279503 Si02
#       5
#    16  16  16  16  16
#     4   9  16  26  40  59  87 125 171 223 273 317
#     4  10  21  38  62  91 118 141 168 209 264 324
#     4  10  20  32  46  67  97 135 179 223 265 311
#     4   9  16  27  45  70 102 141 184 227 269 315
#     4  10  20  34  54  80 110 145 183 224 272 323
#
# _framework density 19.227896999999999
#
# number of rings (size 3 to 8) (size 9 to 14) (size 15 to 20)
#    0.000    2.400    0.000    3.000    0.000    8.800 
#    0.000    2.000    0.000    1.200    0.000    4.200 
#    0.000    0.000    0.000    0.000    0.000    0.000 
#
# Total GULP energy -495650.248800 kJ/mol
# GULP energy per Si atom -12391.256220 kJ/mol
# Density = 1.918413 g / cm^3
# Si number density = 19.227897 Si / 1000 Ang^3
#
#
#
# Elastic Constant Matrix: (Units=GPa)
#
#
# Indices 1 2 3 4 5 6 
#
# 1 96.9563 28.3278 35.7188 0.0000 0.0000 0.0000
# 2 28.3278 44.1102 38.8513 0.0000 0.0000 0.0000
# 3 35.7188 38.8513 100.9134 0.0000 0.0000 0.0000
# 4 0.0000 0.0000 0.0000 26.5602 0.0000 0.0000
# 5 0.0000 0.0000 0.0000 0.0000 29.0924 0.0000
# 6 0.0000 0.0000 0.0000 0.0000 0.0000 26.0588
#
#
#
# Elastic Compliance Matrix: (Units=1/GPa)
#
#
# Indices 1 2 3 4 5 6 
#
# 1 0.012983 -0.006491 -0.002096 0.000000 0.000000 0.000000
# 2 -0.006491 0.037548 -0.012158 0.000000 0.000000 0.000000
# 3 -0.002096 -0.012158 0.015332 0.000000 0.000000 0.000000
# 4 0.000000 0.000000 0.000000 0.037650 0.000000 0.000000
# 5 0.000000 0.000000 0.000000 0.000000 0.034373 0.000000
# 6 0.000000 0.000000 0.000000 0.000000 0.000000 0.038375
#
#
# Mechanical properties :
#
#
# Convention : Reuss Voigt Hill
#
# Bulk Modulus (GPa) = 41.03135 49.75286 45.39210
# Shear Modulus (GPa) = 22.13598 25.61440 23.87519
#
# Velocity S-wave (km/s) = 3.39668 3.65382 3.52759
# Velocity P-wave (km/s) = 6.06375 6.61302 6.34433
#
# Compressibility (1/GPa) = 0.02437161
#
# Stress axis : x y z
#
# Youngs Moduli (GPa) = 77.02547 26.63263 65.22174
#
# Poissons Ratio (x) = 0.17288 0.13672
# Poissons Ratio (y) = 0.50000 0.79298
# Poissons Ratio (z) = 0.16146 0.32380
#
# Static dielectric constant tensor:
#      x y z
#    x 3.866410 0.000000 0.000000 
#    y 0.000000 3.187300 0.000000 
#    z 0.000000 0.000000 3.674060 
# 
# 
# High freq. dielectric constant tensor:
#      x y z
#    x 1.766460 0.000000 0.000000 
#    y 0.000000 1.708990 0.000000 
#    z 0.000000 0.000000 1.739190 
# 
# From -- ./inp_files/32143.got.cif
#   From: 2010.03.12/outbox.cif.g09.slc.cpg/sg67_17_cif.got.tgz:32143.got - 2010.04.10 22:41:39.
