data_PCOD8279803
_publ_section_title
;
Structure prediction by ZEFSAII (Michael W. Deem and Ramdas Pophale) SiO2 
 PCOD8279803
Probable space group: C M M A
;
_chemical_formula_sum "Si O2"
_cell_formula_units_Z 96
_cell_length_a 8.774173
_cell_length_b 27.317068
_cell_length_c 24.118912
_cell_angle_alpha 90.000000
_cell_angle_beta 90.000000
_cell_angle_gamma 90.000000
_cell_volume 5780.933716
_symmetry_space_group_name_H-M "C M M A"
_symmetry_group_IT_number 67
_symmetry_cell_setting 'orthorhombic'
loop_
_space_group_symop_operation_xyz
x,y,z
-x,1/2-y,z
x,-y,-z
-x,1/2+y,-z
-x,-y,-z
x,1/2+y,-z
-x,y,z
x,1/2-y,z
1/2+x,1/2+y,z
1/2-x,-y,z
1/2+x,1/2-y,-z
1/2-x,y,-z
1/2-x,1/2-y,-z
1/2+x,y,-z
1/2-x,1/2+y,z
1/2+x,-y,z
loop_
_atom_site_type_symbol
_atom_site_label
_atom_site_fract_x
_atom_site_fract_y
_atom_site_fract_z
Si Si1 0.180852 0.551249 0.835668
Si Si2 0.181673 0.599969 0.058495
Si Si3 0.679260 0.303425 0.115409
Si Si4 0.171627 0.808277 0.555072
Si Si5 0.820313 0.639758 0.223436
Si Si6 0.819929 0.305320 0.667168
O O1 0.250000 0.500000 0.815774
O O2 0.252824 0.564013 0.895181
O O3 0.227899 0.590475 0.789032
O O4 0.000000 0.548431 0.840932
O O5 0.236899 0.655587 0.071986
O O6 0.000000 0.595495 0.058260
O O7 0.250000 0.583713 0.000000
O O8 0.500000 0.298753 0.109918
O O9 0.754224 0.250000 0.103121
O O10 0.722006 0.319594 0.177588
O O11 0.181157 0.750000 0.553556
O O12 0.250000 0.830188 0.500000
O O13 0.254681 0.827772 0.610252
O O14 0.000000 0.827453 0.556191
O O15 0.765619 0.660533 0.282430
O O16 0.000000 0.628068 0.221900
O O17 0.759230 0.250000 0.676938
O O18 0.000000 0.304817 0.662851
#
# Coordination Sequence:
#
# PCOD8279803 Si02
#       6
#    16  16  16  16  16  16
#     4  11  22  37  55  72  91 115 145 183 231 280
#     4  10  20  34  51  72  96 120 150 185 222 267
#     4   8  14  26  45  67  92 123 154 183 216 256
#     4   9  16  25  37  55  84 123 165 204 237 269
#     4   9  17  30  48  70  95 121 152 188 226 271
#     4   9  16  26  43  67  95 128 162 193 227 268
#
# _framework density 16.606313
#
# number of rings (size 3 to 8) (size 9 to 14) (size 15 to 20)
#    0.000    2.667    0.000    4.000    0.000    5.333 
#    0.000    1.667    0.000   16.000    0.000    0.000 
#    0.000    0.667    0.000    7.000    0.000    3.333 
#
# Total GULP energy -595073.603237 kJ/mol
# GULP energy per Si atom -12397.366734 kJ/mol
# Density = 1.656852 g / cm^3
# Si number density = 16.606313 Si / 1000 Ang^3
#
#
#
# Elastic Constant Matrix: (Units=GPa)
#
#
# Indices 1 2 3 4 5 6 
#
# 1 68.5779 27.3162 38.7903 0.0000 0.0000 0.0000
# 2 27.3162 75.3177 29.7828 0.0000 0.0000 0.0000
# 3 38.7903 29.7828 127.5123 0.0000 0.0000 0.0000
# 4 0.0000 0.0000 0.0000 36.0403 0.0000 0.0000
# 5 0.0000 0.0000 0.0000 0.0000 27.7775 0.0000
# 6 0.0000 0.0000 0.0000 0.0000 0.0000 18.2189
#
#
#
# Elastic Compliance Matrix: (Units=1/GPa)
#
#
# Indices 1 2 3 4 5 6 
#
# 1 0.019267 -0.005145 -0.004659 0.000000 0.000000 0.000000
# 2 -0.005145 0.016002 -0.002172 0.000000 0.000000 0.000000
# 3 -0.004659 -0.002172 0.009767 0.000000 0.000000 0.000000
# 4 0.000000 0.000000 0.000000 0.027747 0.000000 0.000000
# 5 0.000000 0.000000 0.000000 0.000000 0.036000 0.000000
# 6 0.000000 0.000000 0.000000 0.000000 0.000000 0.054888
#
#
# Mechanical properties :
#
#
# Convention : Reuss Voigt Hill
#
# Bulk Modulus (GPa) = 47.43318 51.46516 49.44917
# Shear Modulus (GPa) = 25.68675 28.10860 26.89767
#
# Velocity S-wave (km/s) = 3.93721 4.11864 4.02895
# Velocity P-wave (km/s) = 7.02098 7.32640 7.17532
#
# Compressibility (1/GPa) = 0.02108229
#
# Stress axis : x y z
#
# Youngs Moduli (GPa) = 51.90226 62.49143 102.38345
#
# Poissons Ratio (x) = 0.32154 0.47705
# Poissons Ratio (y) = 0.26705 0.22241
# Poissons Ratio (z) = 0.24183 0.13575
#
# Static dielectric constant tensor:
#      x y z
#    x 3.006770 0.000000 0.000000 
#    y 0.000000 3.210970 0.000000 
#    z 0.000000 0.000000 3.195390 
# 
# 
# High freq. dielectric constant tensor:
#      x y z
#    x 1.632150 0.000000 0.000000 
#    y 0.000000 1.608160 0.000000 
#    z 0.000000 0.000000 1.637110 
# 
# From -- ./inp_files/40897.got.cif
#   From: 2010.03.12/outbox.cif.g09.slc.cpg/sg67_21_cif.got.tgz:40897.got - 2010.04.10 22:41:39.
