data_PCOD8279163
_publ_section_title
;
Structure prediction by ZEFSAII (Michael W. Deem and Ramdas Pophale) SiO2 
 PCOD8279163
Probable space group: C M M A
;
_chemical_formula_sum "Si O2"
_cell_formula_units_Z 104
_cell_length_a 9.649524
_cell_length_b 26.872755
_cell_length_c 20.683108
_cell_angle_alpha 90.000000
_cell_angle_beta 90.000000
_cell_angle_gamma 90.000000
_cell_volume 5363.322140
_symmetry_space_group_name_H-M "C M M A"
_symmetry_group_IT_number 67
_symmetry_cell_setting 'orthorhombic'
loop_
_space_group_symop_operation_xyz
x,y,z
-x,1/2-y,z
x,-y,-z
-x,1/2+y,-z
-x,-y,-z
x,1/2+y,-z
-x,y,z
x,1/2-y,z
1/2+x,1/2+y,z
1/2-x,-y,z
1/2+x,1/2-y,-z
1/2-x,y,-z
1/2-x,1/2-y,-z
1/2+x,y,-z
1/2-x,1/2+y,z
1/2+x,-y,z
loop_
_atom_site_type_symbol
_atom_site_label
_atom_site_fract_x
_atom_site_fract_y
_atom_site_fract_z
Si Si1 0.163624 0.750000 0.564843
Si Si2 0.337671 0.892589 0.056612
Si Si3 0.846142 0.193705 0.757806
Si Si4 0.159451 0.952899 0.671046
Si Si5 0.343136 0.306082 0.092199
Si Si6 0.842042 0.545185 0.819304
Si Si7 0.839726 0.844219 0.651537
O O1 0.250000 0.750000 0.500000
O O2 0.207014 0.698677 0.601294
O O3 0.000000 0.750000 0.550079
O O4 0.500000 0.892574 0.039117
O O5 0.273302 0.837347 0.055259
O O6 0.309988 0.911941 0.129007
O O7 0.250000 0.921852 0.000000
O O8 0.836425 0.250000 0.732342
O O9 0.808717 0.191320 0.832338
O O10 0.738403 0.160816 0.718872
O O11 0.000000 0.172583 0.744923
O O12 0.194952 0.939429 0.745806
O O13 0.188387 0.902008 0.629332
O O14 0.000000 0.969070 0.663392
O O15 0.250000 0.000000 0.646351
O O16 0.500000 0.326151 0.079271
O O17 0.330837 0.250000 0.067109
O O18 0.750000 0.500000 0.842847
O O19 0.000000 0.527912 0.823885
O O20 0.000000 0.837047 0.667592
#
# Coordination Sequence:
#
# PCOD8279163 Si02
#       7
#     8  16  16  16  16  16  16
#     4  10  22  38  56  82 116 156 195 230 269 308
#     4  11  23  37  52  71  95 128 173 220 267 322
#     4   9  17  29  48  77 108 135 168 213 268 325
#     4   9  18  33  54  81 111 139 173 220 271 328
#     4   9  19  35  52  72 100 132 167 211 262 319
#     4   9  19  35  54  76 102 131 165 208 262 320
#     4  10  19  33  54  80 112 148 186 226 268 317
#
# _framework density 19.390967
#
# number of rings (size 3 to 8) (size 9 to 14) (size 15 to 20)
#    0.000    2.462    0.769    2.308    0.000    5.231 
#    0.000    6.154    0.000    0.462    0.000    3.231 
#    0.000    0.000    0.000    0.000    0.000    0.000 
#
# Total GULP energy -644317.131538 kJ/mol
# GULP energy per Si atom -12390.714068 kJ/mol
# Density = 1.934683 g / cm^3
# Si number density = 19.390967 Si / 1000 Ang^3
#
#
#
# Elastic Constant Matrix: (Units=GPa)
#
#
# Indices 1 2 3 4 5 6 
#
# 1 73.8388 48.9476 27.7333 0.0000 0.0000 0.0000
# 2 48.9476 121.9765 39.1754 0.0000 0.0000 0.0000
# 3 27.7333 39.1754 47.6907 0.0000 0.0000 0.0000
# 4 0.0000 0.0000 0.0000 18.7130 0.0000 0.0000
# 5 0.0000 0.0000 0.0000 0.0000 26.8906 0.0000
# 6 0.0000 0.0000 0.0000 0.0000 0.0000 32.4311
#
#
#
# Elastic Compliance Matrix: (Units=1/GPa)
#
#
# Indices 1 2 3 4 5 6 
#
# 1 0.019965 -0.005818 -0.006831 0.000000 0.000000 0.000000
# 2 -0.005818 0.012832 -0.007157 0.000000 0.000000 0.000000
# 3 -0.006831 -0.007157 0.030820 0.000000 0.000000 0.000000
# 4 0.000000 0.000000 0.000000 0.053439 0.000000 0.000000
# 5 0.000000 0.000000 0.000000 0.000000 0.037188 0.000000
# 6 0.000000 0.000000 0.000000 0.000000 0.000000 0.030835
#
#
# Mechanical properties :
#
#
# Convention : Reuss Voigt Hill
#
# Bulk Modulus (GPa) = 41.65886 52.80207 47.23047
# Shear Modulus (GPa) = 21.48755 24.11694 22.80225
#
# Velocity S-wave (km/s) = 3.33246 3.53047 3.43289
# Velocity P-wave (km/s) = 6.02804 6.62633 6.33426
#
# Compressibility (1/GPa) = 0.02400450
#
# Stress axis : x y z
#
# Youngs Moduli (GPa) = 50.08648 77.93237 32.44607
#
# Poissons Ratio (x) = 0.45340 0.22165
# Poissons Ratio (y) = 0.29140 0.23223
# Poissons Ratio (z) = 0.34216 0.55778
#
# Static dielectric constant tensor:
#      x y z
#    x 3.511590 0.000000 0.000000 
#    y 0.000000 3.666120 0.000000 
#    z 0.000000 0.000000 3.297500 
# 
# 
# High freq. dielectric constant tensor:
#      x y z
#    x 1.755980 0.000000 0.000000 
#    y 0.000000 1.751450 0.000000 
#    z 0.000000 0.000000 1.725790 
# 
# From -- ./inp_files/37319.got.cif
#   From: 2010.03.12/outbox.cif.g09.slc.cpg/sg67_19_cif.got.tgz:37319.got - 2010.04.10 22:41:39.
