data_PCOD8279692
_publ_section_title
;
Structure prediction by ZEFSAII (Michael W. Deem and Ramdas Pophale) SiO2 
 PCOD8279692
Probable space group: C M M A
;
_chemical_formula_sum "Si O2"
_cell_formula_units_Z 104
_cell_length_a 9.189443
_cell_length_b 26.057020
_cell_length_c 23.067908
_cell_angle_alpha 90.000000
_cell_angle_beta 90.000000
_cell_angle_gamma 90.000000
_cell_volume 5523.599038
_symmetry_space_group_name_H-M "C M M A"
_symmetry_group_IT_number 67
_symmetry_cell_setting 'orthorhombic'
loop_
_space_group_symop_operation_xyz
x,y,z
-x,1/2-y,z
x,-y,-z
-x,1/2+y,-z
-x,-y,-z
x,1/2+y,-z
-x,y,z
x,1/2-y,z
1/2+x,1/2+y,z
1/2-x,-y,z
1/2+x,1/2-y,-z
1/2-x,y,-z
1/2-x,1/2-y,-z
1/2+x,y,-z
1/2-x,1/2+y,z
1/2+x,-y,z
loop_
_atom_site_type_symbol
_atom_site_label
_atom_site_fract_x
_atom_site_fract_y
_atom_site_fract_z
Si Si1 0.168768 0.155906 0.058276
Si Si2 0.165208 0.306539 0.833941
Si Si3 0.172139 0.553110 0.348891
Si Si4 0.667110 0.250000 0.441002
Si Si5 0.168968 0.548716 0.886275
Si Si6 0.329263 0.138603 0.438888
Si Si7 0.330781 0.410140 0.222543
O O1 0.229830 0.189082 0.111077
O O2 0.196326 0.096010 0.070915
O O3 0.000000 0.168716 0.051089
O O4 0.250000 0.172074 0.000000
O O5 0.187180 0.250000 0.806080
O O6 0.200640 0.349205 0.785302
O O7 0.000000 0.313939 0.856191
O O8 0.250000 0.500000 0.363992
O O9 0.226941 0.595493 0.394664
O O10 0.220727 0.573164 0.285938
O O11 0.000000 0.545071 0.352073
O O12 0.500000 0.250000 0.457868
O O13 0.750000 0.250000 0.500000
O O14 0.703961 0.304644 0.409847
O O15 0.250000 0.500000 0.914626
O O16 0.236365 0.558314 0.823091
O O17 0.000000 0.536692 0.878262
O O18 0.500000 0.131915 0.450075
O O19 0.250000 0.131312 0.500000
O O20 0.500000 0.422763 0.212213
#
# Coordination Sequence:
#
# PCOD8279692 Si02
#       7
#    16  16  16   8  16  16  16
#     4  10  21  35  51  73 101 133 168 206 249 300
#     4   9  18  34  55  77 101 130 164 206 255 304
#     4  10  21  35  51  75 106 138 174 214 257 307
#     4   8  14  28  50  72  96 128 164 206 251 296
#     4  10  20  33  51  74  98 129 167 207 253 301
#     4   9  18  33  52  76 104 136 174 214 259 308
#     4   9  18  34  53  74 101 131 167 209 252 304
#
# _framework density 18.828302999999998
#
# number of rings (size 3 to 8) (size 9 to 14) (size 15 to 20)
#    0.000    2.615    0.000    1.385    0.000    5.538 
#    1.385    3.077    0.000    0.000    0.000    0.000 
#    0.000    0.000    0.000    0.000    0.000    0.000 
#
# Total GULP energy -644584.713030 kJ/mol
# GULP energy per Si atom -12395.859866 kJ/mol
# Density = 1.878545 g / cm^3
# Si number density = 18.828303 Si / 1000 Ang^3
#
#
#
# Elastic Constant Matrix: (Units=GPa)
#
#
# Indices 1 2 3 4 5 6 
#
# 1 56.0436 31.7496 20.2744 0.0000 0.0000 0.0000
# 2 31.7496 131.4786 30.7837 0.0000 0.0000 0.0000
# 3 20.2744 30.7837 66.7995 0.0000 0.0000 0.0000
# 4 0.0000 0.0000 0.0000 16.0849 0.0000 0.0000
# 5 0.0000 0.0000 0.0000 0.0000 24.4734 0.0000
# 6 0.0000 0.0000 0.0000 0.0000 0.0000 26.4890
#
#
#
# Elastic Compliance Matrix: (Units=1/GPa)
#
#
# Indices 1 2 3 4 5 6 
#
# 1 0.021925 -0.004188 -0.004724 0.000000 0.000000 0.000000
# 2 -0.004188 0.009326 -0.003026 0.000000 0.000000 0.000000
# 3 -0.004724 -0.003026 0.017799 0.000000 0.000000 0.000000
# 4 0.000000 0.000000 0.000000 0.062170 0.000000 0.000000
# 5 0.000000 0.000000 0.000000 0.000000 0.040861 0.000000
# 6 0.000000 0.000000 0.000000 0.000000 0.000000 0.037752
#
#
# Mechanical properties :
#
#
# Convention : Reuss Voigt Hill
#
# Bulk Modulus (GPa) = 39.72778 46.65969 43.19373
# Shear Modulus (GPa) = 22.51228 24.84371 23.67800
#
# Velocity S-wave (km/s) = 3.46159 3.63642 3.55008
# Velocity P-wave (km/s) = 6.09283 6.51666 6.30831
#
# Compressibility (1/GPa) = 0.02517130
#
# Stress axis : x y z
#
# Youngs Moduli (GPa) = 45.60979 107.22922 56.18366
#
# Poissons Ratio (x) = 0.44912 0.26543
# Poissons Ratio (y) = 0.19103 0.17004
# Poissons Ratio (z) = 0.21548 0.32453
#
# Static dielectric constant tensor:
#      x y z
#    x 3.399040 0.000000 0.000000 
#    y 0.000000 3.878910 0.000000 
#    z 0.000000 0.000000 3.172140 
# 
# 
# High freq. dielectric constant tensor:
#      x y z
#    x 1.729070 0.000000 0.000000 
#    y 0.000000 1.750110 0.000000 
#    z 0.000000 0.000000 1.702830 
# 
# From -- ./inp_files/39964.got.cif
#   From: 2010.03.12/outbox.cif.g09.slc.cpg/sg67_20_cif.got.tgz:39964.got - 2010.04.10 22:41:39.
