data_PCOD8279790
_publ_section_title
;
Structure prediction by ZEFSAII (Michael W. Deem and Ramdas Pophale) SiO2 
 PCOD8279790
Probable space group: C M M A
;
_chemical_formula_sum "Si O2"
_cell_formula_units_Z 104
_cell_length_a 30.168244
_cell_length_b 8.938998
_cell_length_c 22.830866
_cell_angle_alpha 90.000000
_cell_angle_beta 90.000000
_cell_angle_gamma 90.000000
_cell_volume 6156.888053
_symmetry_space_group_name_H-M "C M M A"
_symmetry_group_IT_number 67
_symmetry_cell_setting 'orthorhombic'
loop_
_space_group_symop_operation_xyz
x,y,z
-x,1/2-y,z
x,-y,-z
-x,1/2+y,-z
-x,-y,-z
x,1/2+y,-z
-x,y,z
x,1/2-y,z
1/2+x,1/2+y,z
1/2-x,-y,z
1/2+x,1/2-y,-z
1/2-x,y,-z
1/2-x,1/2-y,-z
1/2+x,y,-z
1/2-x,1/2+y,z
1/2+x,-y,z
loop_
_atom_site_type_symbol
_atom_site_label
_atom_site_fract_x
_atom_site_fract_y
_atom_site_fract_z
Si Si1 0.170689 0.572978 0.057560
Si Si2 0.000000 0.073108 0.937065
Si Si3 0.295341 0.574411 0.815375
Si Si4 0.947393 0.917576 0.442974
Si Si5 0.050393 0.427419 0.323911
Si Si6 0.621293 0.082217 0.770161
Si Si7 0.085838 0.581018 0.899733
O O1 0.167077 0.750000 0.050012
O O2 0.196984 0.529405 0.116580
O O3 0.122230 0.499830 0.060426
O O4 0.194295 0.500000 0.000000
O O5 0.000000 0.250000 0.942208
O O6 0.042141 0.017515 0.901510
O O7 0.000000 0.000000 0.000000
O O8 0.291544 0.750000 0.808144
O O9 0.250000 0.500000 0.793908
O O10 0.334699 0.518817 0.772956
O O11 0.928059 0.750000 0.440505
O O12 0.000000 0.914072 0.447590
O O13 0.927384 0.000000 0.500000
O O14 0.932683 0.005453 0.385034
O O15 0.051063 0.250000 0.328749
O O16 0.084928 0.484629 0.274758
O O17 0.000000 0.481463 0.309017
O O18 0.635138 0.250000 0.751346
O O19 0.599001 0.085104 0.832793
O O20 0.078363 0.750000 0.923544
#
# Coordination Sequence:
#
# PCOD8279790 Si02
#       7
#    16   8  16  16  16  16  16
#     4  10  20  34  51  71  94 118 146 185 235 292
#     4  12  24  36  48  64  86 116 155 198 239 284
#     4  10  21  36  54  73  96 122 154 195 242 295
#     4   9  16  26  41  63  94 132 172 209 243 278
#     4   9  17  29  47  71 100 134 169 203 237 280
#     4   9  19  34  53  73  97 127 160 197 239 288
#     4  10  20  34  51  68  89 119 154 194 237 285
#
# _framework density 16.891649999999998
#
# number of rings (size 3 to 8) (size 9 to 14) (size 15 to 20)
#    0.000    2.308    0.000    3.000    1.077    5.231 
#    0.000    1.538    0.000    0.000    0.000    0.000 
#    0.000    0.615    0.000    6.462    0.000    3.077 
#
# Total GULP energy -644745.231809 kJ/mol
# GULP energy per Si atom -12398.946766 kJ/mol
# Density = 1.685320 g / cm^3
# Si number density = 16.891650 Si / 1000 Ang^3
#
#
#
# Elastic Constant Matrix: (Units=GPa)
#
#
# Indices 1 2 3 4 5 6 
#
# 1 94.4336 43.7366 35.0815 0.0000 0.0000 0.0000
# 2 43.7366 84.6546 29.6849 0.0000 0.0000 0.0000
# 3 35.0815 29.6849 86.2481 0.0000 0.0000 0.0000
# 4 0.0000 0.0000 0.0000 26.5738 0.0000 0.0000
# 5 0.0000 0.0000 0.0000 0.0000 11.5941 0.0000
# 6 0.0000 0.0000 0.0000 0.0000 0.0000 23.6299
#
#
#
# Elastic Compliance Matrix: (Units=1/GPa)
#
#
# Indices 1 2 3 4 5 6 
#
# 1 0.014993 -0.006377 -0.003904 0.000000 0.000000 0.000000
# 2 -0.006377 0.016147 -0.002963 0.000000 0.000000 0.000000
# 3 -0.003904 -0.002963 0.014202 0.000000 0.000000 0.000000
# 4 0.000000 0.000000 0.000000 0.037631 0.000000 0.000000
# 5 0.000000 0.000000 0.000000 0.000000 0.086251 0.000000
# 6 0.000000 0.000000 0.000000 0.000000 0.000000 0.042319
#
#
# Mechanical properties :
#
#
# Convention : Reuss Voigt Hill
#
# Bulk Modulus (GPa) = 53.04058 53.59359 53.31709
# Shear Modulus (GPa) = 20.46525 22.81511 21.64018
#
# Velocity S-wave (km/s) = 3.48452 3.67914 3.58315
# Velocity P-wave (km/s) = 6.90347 7.06009 6.98222
#
# Compressibility (1/GPa) = 0.01885349
#
# Stress axis : x y z
#
# Youngs Moduli (GPa) = 66.69655 61.93206 70.41191
#
# Poissons Ratio (x) = 0.39497 0.27486
# Poissons Ratio (y) = 0.42535 0.20866
# Poissons Ratio (z) = 0.26035 0.18353
#
# Static dielectric constant tensor:
#      x y z
#    x 3.016240 0.000000 0.000000 
#    y 0.000000 3.338840 0.000000 
#    z 0.000000 0.000000 3.112880 
# 
# 
# High freq. dielectric constant tensor:
#      x y z
#    x 1.624120 0.000000 0.000000 
#    y 0.000000 1.663220 0.000000 
#    z 0.000000 0.000000 1.634430 
# 
# From -- ./inp_files/41138.got.cif
#   From: 2010.03.12/outbox.cif.g09.slc.cpg/sg67_21_cif.got.tgz:41138.got - 2010.04.10 22:41:39.
