data_PCOD8279587
_publ_section_title
;
Structure prediction by ZEFSAII (Michael W. Deem and Ramdas Pophale) SiO2 
 PCOD8279587
Probable space group: C M M A
;
_chemical_formula_sum "Si O2"
_cell_formula_units_Z 72
_cell_length_a 7.643617
_cell_length_b 15.646121
_cell_length_c 28.781357
_cell_angle_alpha 90.000000
_cell_angle_beta 90.000000
_cell_angle_gamma 90.000000
_cell_volume 3442.047575
_symmetry_space_group_name_H-M "C M M A"
_symmetry_group_IT_number 67
_symmetry_cell_setting 'orthorhombic'
loop_
_space_group_symop_operation_xyz
x,y,z
-x,1/2-y,z
x,-y,-z
-x,1/2+y,-z
-x,-y,-z
x,1/2+y,-z
-x,y,z
x,1/2-y,z
1/2+x,1/2+y,z
1/2-x,-y,z
1/2+x,1/2-y,-z
1/2-x,y,-z
1/2-x,1/2-y,-z
1/2+x,y,-z
1/2-x,1/2+y,z
1/2+x,-y,z
loop_
_atom_site_type_symbol
_atom_site_label
_atom_site_fract_x
_atom_site_fract_y
_atom_site_fract_z
Si Si1 0.805313 0.349100 0.146932
Si Si2 0.000000 0.852014 0.210400
Si Si3 0.299299 0.902099 0.049036
Si Si4 0.000000 0.351533 0.683532
Si Si5 0.296790 0.750000 0.446528
Si Si6 0.206795 0.405575 0.384203
O O1 0.824818 0.250000 0.156497
O O2 0.673508 0.389163 0.184967
O O3 0.716028 0.362659 0.095790
O O4 0.000000 0.391546 0.151666
O O5 0.000000 0.750000 0.206653
O O6 0.000000 0.882249 0.263427
O O7 0.500000 0.887261 0.056537
O O8 0.250000 0.000000 0.045290
O O9 0.250000 0.856497 0.000000
O O10 0.822464 0.390034 0.661647
O O11 0.000000 0.250000 0.678213
O O12 0.500000 0.750000 0.439868
O O13 0.250000 0.750000 0.500000
O O14 0.226032 0.663706 0.422168
O O15 0.250000 0.500000 0.403988
O O16 0.000000 0.396081 0.372632
#
# Coordination Sequence:
#
# PCOD8279587 Si02
#       6
#    16   8  16   8   8  16
#     4   9  19  36  55  79 112 139 180 236 288 349
#     4   9  20  36  60  87 105 152 191 235 305 351
#     4  10  20  32  51  74 101 143 180 220 278 344
#     4  11  22  40  68  90 124 167 216 266 319 382
#     4  10  24  40  64 100 134 176 222 263 319 377
#     4  11  23  41  65  95 131 175 218 269 321 374
#
# _framework density 20.917783
#
# number of rings (size 3 to 8) (size 9 to 14) (size 15 to 20)
#    0.000    2.000    2.222    1.333    4.667    1.778 
#    0.000    5.556    0.000    0.000    0.000    0.000 
#    0.000    0.000    0.000    0.000    0.000    0.000 
#
# Total GULP energy -446086.470900 kJ/mol
# GULP energy per Si atom -12391.290858 kJ/mol
# Density = 2.087017 g / cm^3
# Si number density = 20.917783 Si / 1000 Ang^3
#
#
#
# Elastic Constant Matrix: (Units=GPa)
#
#
# Indices 1 2 3 4 5 6 
#
# 1 114.9886 26.7525 74.6087 0.0000 0.0000 0.0000
# 2 26.7525 87.0305 47.0778 0.0000 0.0000 0.0000
# 3 74.6087 47.0778 191.9393 0.0000 0.0000 0.0000
# 4 0.0000 0.0000 0.0000 12.3356 0.0000 0.0000
# 5 0.0000 0.0000 0.0000 0.0000 37.1885 0.0000
# 6 0.0000 0.0000 0.0000 0.0000 0.0000 17.6337
#
#
#
# Elastic Compliance Matrix: (Units=1/GPa)
#
#
# Indices 1 2 3 4 5 6 
#
# 1 0.011759 -0.001317 -0.004248 0.000000 0.000000 0.000000
# 2 -0.001317 0.013395 -0.002774 0.000000 0.000000 0.000000
# 3 -0.004248 -0.002774 0.007541 0.000000 0.000000 0.000000
# 4 0.000000 0.000000 0.000000 0.081066 0.000000 0.000000
# 5 0.000000 0.000000 0.000000 0.000000 0.026890 0.000000
# 6 0.000000 0.000000 0.000000 0.000000 0.000000 0.056710
#
#
# Mechanical properties :
#
#
# Convention : Reuss Voigt Hill
#
# Bulk Modulus (GPa) = 62.42522 76.75960 69.59241
# Shear Modulus (GPa) = 22.79170 29.79952 26.29561
#
# Velocity S-wave (km/s) = 3.30447 3.77849 3.54940
# Velocity P-wave (km/s) = 6.66838 7.47071 7.08091
#
# Compressibility (1/GPa) = 0.01601917
#
# Stress axis : x y z
#
# Youngs Moduli (GPa) = 85.04092 74.65255 132.59988
#
# Poissons Ratio (x) = 0.09830 0.56327
# Poissons Ratio (y) = 0.11198 0.36779
# Poissons Ratio (z) = 0.36124 0.20706
#
# Static dielectric constant tensor:
#      x y z
#    x 4.215150 0.000000 0.000000 
#    y 0.000000 3.729590 0.000000 
#    z 0.000000 0.000000 3.910980 
# 
# 
# High freq. dielectric constant tensor:
#      x y z
#    x 1.828370 0.000000 0.000000 
#    y 0.000000 1.799920 0.000000 
#    z 0.000000 0.000000 1.814790 
# 
# From -- ./inp_files/43133.got.cif
#   From: 2010.03.12/outbox.cif.g09.slc.cpg/sg67_22_cif.got.tgz:43133.got - 2010.04.10 22:41:39.
