data_PCOD8279195
_publ_section_title
;
Structure prediction by ZEFSAII (Michael W. Deem and Ramdas Pophale) SiO2 
 PCOD8279195
Probable space group: C M M A
;
_chemical_formula_sum "Si O2"
_cell_formula_units_Z 72
_cell_length_a 18.843753
_cell_length_b 14.365039
_cell_length_c 14.697901
_cell_angle_alpha 90.000000
_cell_angle_beta 90.000000
_cell_angle_gamma 90.000000
_cell_volume 3978.593146
_symmetry_space_group_name_H-M "C M M A"
_symmetry_group_IT_number 67
_symmetry_cell_setting 'orthorhombic'
loop_
_space_group_symop_operation_xyz
x,y,z
-x,1/2-y,z
x,-y,-z
-x,1/2+y,-z
-x,-y,-z
x,1/2+y,-z
-x,y,z
x,1/2-y,z
1/2+x,1/2+y,z
1/2-x,-y,z
1/2+x,1/2-y,-z
1/2-x,y,-z
1/2-x,1/2-y,-z
1/2+x,y,-z
1/2-x,1/2+y,z
1/2+x,-y,z
loop_
_atom_site_type_symbol
_atom_site_label
_atom_site_fract_x
_atom_site_fract_y
_atom_site_fract_z
Si Si1 0.915339 0.948452 0.908804
Si Si2 0.142351 0.750000 0.695180
Si Si3 0.078709 0.442439 0.590641
Si Si4 0.921196 0.250000 0.120829
Si Si5 0.173718 0.042916 0.264340
Si Si6 0.916583 0.250000 0.507453
O O1 0.886263 0.842743 0.920197
O O2 0.874588 0.987489 0.821397
O O3 0.000000 0.954447 0.891446
O O4 0.892060 0.000000 0.000000
O O5 0.077990 0.750000 0.768260
O O6 0.184395 0.846173 0.717085
O O7 0.118955 0.750000 0.591334
O O8 0.070408 0.500000 0.500000
O O9 0.136224 0.494253 0.650911
O O10 0.107013 0.339304 0.566014
O O11 0.000000 0.437292 0.637003
O O12 0.000000 0.250000 0.084408
O O13 0.250000 0.000000 0.247883
O O14 0.000000 0.250000 0.489103
#
# Coordination Sequence:
#
# PCOD8279195 Si02
#       6
#    16   8  16   8  16   8
#     4   9  18  35  59  84 108 137 178 227 273 320
#     4  10  19  35  53  77 103 145 189 230 262 310
#     4  10  20  35  55  80 109 142 182 227 273 318
#     4   8  15  28  53  84 107 128 173 227 268 313
#     4  11  23  37  55  80 112 148 183 223 275 330
#     4  10  19  33  56  83 109 142 186 232 272 315
#
# _framework density 18.09685
#
# number of rings (size 3 to 8) (size 9 to 14) (size 15 to 20)
#    0.000    2.222    2.222    1.000    0.000    3.556 
#    0.000    3.333    0.000    8.000    0.000    0.000 
#    0.000    0.000    0.000    0.000    0.000    0.000 
#
# Total GULP energy -446017.058514 kJ/mol
# GULP energy per Si atom -12389.362736 kJ/mol
# Density = 1.805566 g / cm^3
# Si number density = 18.096850 Si / 1000 Ang^3
#
#
#
# Elastic Constant Matrix: (Units=GPa)
#
#
# Indices 1 2 3 4 5 6 
#
# 1 74.2170 43.3813 43.3025 0.0000 0.0000 0.0000
# 2 43.3813 143.0834 56.0316 0.0000 0.0000 0.0000
# 3 43.3025 56.0316 99.3589 0.0000 0.0000 0.0000
# 4 0.0000 0.0000 0.0000 29.0039 0.0000 0.0000
# 5 0.0000 0.0000 0.0000 0.0000 6.6193 0.0000
# 6 0.0000 0.0000 0.0000 0.0000 0.0000 23.0944
#
#
#
# Elastic Compliance Matrix: (Units=1/GPa)
#
#
# Indices 1 2 3 4 5 6 
#
# 1 0.019187 -0.003263 -0.006522 0.000000 0.000000 0.000000
# 2 -0.003263 0.009525 -0.003949 0.000000 0.000000 0.000000
# 3 -0.006522 -0.003949 0.015134 0.000000 0.000000 0.000000
# 4 0.000000 0.000000 0.000000 0.034478 0.000000 0.000000
# 5 0.000000 0.000000 0.000000 0.000000 0.151074 0.000000
# 6 0.000000 0.000000 0.000000 0.000000 0.000000 0.043301
#
#
# Mechanical properties :
#
#
# Convention : Reuss Voigt Hill
#
# Bulk Modulus (GPa) = 61.06081 66.89889 63.97985
# Shear Modulus (GPa) = 16.35992 23.33977 19.84984
#
# Velocity S-wave (km/s) = 3.00995 3.59516 3.31549
# Velocity P-wave (km/s) = 6.77452 7.36756 7.07725
#
# Compressibility (1/GPa) = 0.01637712
#
# Stress axis : x y z
#
# Youngs Moduli (GPa) = 52.11995 104.98898 66.07731
#
# Poissons Ratio (x) = 0.34261 0.43093
# Poissons Ratio (y) = 0.17008 0.26095
# Poissons Ratio (z) = 0.33990 0.41462
#
# Static dielectric constant tensor:
#      x y z
#    x 3.091990 0.000000 0.000000 
#    y 0.000000 4.388200 0.000000 
#    z 0.000000 0.000000 3.217790 
# 
# 
# High freq. dielectric constant tensor:
#      x y z
#    x 1.671330 0.000000 0.000000 
#    y 0.000000 1.719530 0.000000 
#    z 0.000000 0.000000 1.691750 
# 
# From -- ./inp_files/28300.got.cif
#   From: 2010.03.12/outbox.cif.g09.slc.cpg/sg67_15_cif.got.tgz:28300.got - 2010.04.10 22:41:39.
