data_PCOD8279446
_publ_section_title
;
Structure prediction by ZEFSAII (Michael W. Deem and Ramdas Pophale) SiO2 
 PCOD8279446
Probable space group: C M M A
;
_chemical_formula_sum "Si O2"
_cell_formula_units_Z 112
_cell_length_a 23.805542
_cell_length_b 14.682114
_cell_length_c 16.144690
_cell_angle_alpha 90.000000
_cell_angle_beta 90.000000
_cell_angle_gamma 90.000000
_cell_volume 5642.822328
_symmetry_space_group_name_H-M "C M M A"
_symmetry_group_IT_number 67
_symmetry_cell_setting 'orthorhombic'
loop_
_space_group_symop_operation_xyz
x,y,z
-x,1/2-y,z
x,-y,-z
-x,1/2+y,-z
-x,-y,-z
x,1/2+y,-z
-x,y,z
x,1/2-y,z
1/2+x,1/2+y,z
1/2-x,-y,z
1/2+x,1/2-y,-z
1/2-x,y,-z
1/2-x,1/2-y,-z
1/2+x,y,-z
1/2-x,1/2+y,z
1/2+x,-y,z
loop_
_atom_site_type_symbol
_atom_site_label
_atom_site_fract_x
_atom_site_fract_y
_atom_site_fract_z
Si Si1 0.341290 0.020002 0.592056
Si Si2 0.650048 0.643745 0.710488
Si Si3 0.618794 0.145826 0.817054
Si Si4 0.777431 0.354198 0.286960
Si Si5 0.437496 0.147455 0.155721
Si Si6 0.439543 0.898946 0.022291
Si Si7 0.435858 0.143615 0.647335
O O1 0.291893 0.075428 0.639223
O O2 0.396985 0.082939 0.587834
O O3 0.319734 0.000000 0.500000
O O4 0.356942 0.922355 0.632189
O O5 0.638363 0.750000 0.686317
O O6 0.713830 0.633571 0.743284
O O7 0.608448 0.604193 0.781861
O O8 0.609703 0.250000 0.838842
O O9 0.682784 0.123433 0.791385
O O10 0.603935 0.095911 0.902094
O O11 0.577760 0.116668 0.742270
O O12 0.788954 0.250000 0.317286
O O13 0.500000 0.100585 0.161927
O O14 0.443652 0.250000 0.185965
O O15 0.414817 0.147538 0.060969
O O16 0.500000 0.852525 0.046607
O O17 0.453345 0.000000 0.000000
O O18 0.500000 0.120394 0.627204
O O19 0.422450 0.250000 0.632495
#
# Coordination Sequence:
#
# PCOD8279446 Si02
#       7
#    16  16  16  16  16  16  16
#     4  11  23  37  58  86 114 143 184 233 287 343
#     4  10  22  39  58  81 112 151 191 229 278 341
#     4   9  17  32  55  79 105 142 186 232 281 327
#     4   9  20  39  60  82 109 143 187 240 289 335
#     4   9  19  36  55  76 108 149 186 222 268 328
#     4  10  20  30  47  80 114 143 181 228 276 325
#     4   9  19  36  59  86 116 151 190 234 283 332
#
# _framework density 19.848223999999998
#
# number of rings (size 3 to 8) (size 9 to 14) (size 15 to 20)
#    0.000    2.429    0.000    2.571    4.000    4.571 
#    0.000    2.143    0.000    6.000    0.000    0.000 
#    0.000    0.000    0.000    0.000    0.000    0.000 
#
# Total GULP energy -693946.027653 kJ/mol
# GULP energy per Si atom -12391.893351 kJ/mol
# Density = 1.980305 g / cm^3
# Si number density = 19.848224 Si / 1000 Ang^3
#
#
#
# Elastic Constant Matrix: (Units=GPa)
#
#
# Indices 1 2 3 4 5 6 
#
# 1 112.2909 32.0058 50.5793 0.0000 0.0000 0.0000
# 2 32.0058 70.0102 37.5864 0.0000 0.0000 0.0000
# 3 50.5793 37.5864 131.8611 0.0000 0.0000 0.0000
# 4 0.0000 0.0000 0.0000 27.6762 0.0000 0.0000
# 5 0.0000 0.0000 0.0000 0.0000 12.5628 0.0000
# 6 0.0000 0.0000 0.0000 0.0000 0.0000 24.5747
#
#
#
# Elastic Compliance Matrix: (Units=1/GPa)
#
#
# Indices 1 2 3 4 5 6 
#
# 1 0.011406 -0.003383 -0.003411 0.000000 0.000000 0.000000
# 2 -0.003383 0.017868 -0.003795 0.000000 0.000000 0.000000
# 3 -0.003411 -0.003795 0.009974 0.000000 0.000000 0.000000
# 4 0.000000 0.000000 0.000000 0.036132 0.000000 0.000000
# 5 0.000000 0.000000 0.000000 0.000000 0.079600 0.000000
# 6 0.000000 0.000000 0.000000 0.000000 0.000000 0.040692
#
#
# Mechanical properties :
#
#
# Convention : Reuss Voigt Hill
#
# Bulk Modulus (GPa) = 55.34322 61.61168 58.47745
# Shear Modulus (GPa) = 22.43417 25.89545 24.16481
#
# Velocity S-wave (km/s) = 3.36562 3.61595 3.49303
# Velocity P-wave (km/s) = 6.56102 6.96722 6.76717
#
# Compressibility (1/GPa) = 0.01806906
#
# Stress axis : x y z
#
# Youngs Moduli (GPa) = 87.67266 55.96605 100.26164
#
# Poissons Ratio (x) = 0.18935 0.34197
# Poissons Ratio (y) = 0.29662 0.38054
# Poissons Ratio (z) = 0.29903 0.21242
#
# Static dielectric constant tensor:
#      x y z
#    x 3.827700 0.000000 0.000000 
#    y 0.000000 3.727950 0.000000 
#    z 0.000000 0.000000 3.425560 
# 
# 
# High freq. dielectric constant tensor:
#      x y z
#    x 1.770480 0.000000 0.000000 
#    y 0.000000 1.783630 0.000000 
#    z 0.000000 0.000000 1.745050 
# 
# From -- ./inp_files/27484.got.cif
#   From: 2010.03.12/outbox.cif.g09.slc.cpg/sg67_14_cif.got.tgz:27484.got - 2010.04.10 22:41:39.
