data_PCOD8279302
_publ_section_title
;
Structure prediction by ZEFSAII (Michael W. Deem and Ramdas Pophale) SiO2 
 PCOD8279302
Probable space group: C M M A
;
_chemical_formula_sum "Si O2"
_cell_formula_units_Z 112
_cell_length_a 27.349425
_cell_length_b 18.957384
_cell_length_c 11.017688
_cell_angle_alpha 90.000000
_cell_angle_beta 90.000000
_cell_angle_gamma 90.000000
_cell_volume 5712.379831
_symmetry_space_group_name_H-M "C M M A"
_symmetry_group_IT_number 67
_symmetry_cell_setting 'orthorhombic'
loop_
_space_group_symop_operation_xyz
x,y,z
-x,1/2-y,z
x,-y,-z
-x,1/2+y,-z
-x,-y,-z
x,1/2+y,-z
-x,y,z
x,1/2-y,z
1/2+x,1/2+y,z
1/2-x,-y,z
1/2+x,1/2-y,-z
1/2-x,y,-z
1/2-x,1/2-y,-z
1/2+x,y,-z
1/2-x,1/2+y,z
1/2+x,-y,z
loop_
_atom_site_type_symbol
_atom_site_label
_atom_site_fract_x
_atom_site_fract_y
_atom_site_fract_z
Si Si1 0.053304 0.883134 0.659965
Si Si2 0.554677 0.328138 0.905817
Si Si3 0.285189 0.831468 0.611460
Si Si4 0.124727 0.077435 0.535561
Si Si5 0.445733 0.538662 0.740803
Si Si6 0.375779 0.924335 0.953286
Si Si7 0.714725 0.668668 0.886779
O O1 0.057218 0.821729 0.759428
O O2 0.101312 0.879322 0.576000
O O3 0.000000 0.878370 0.591710
O O4 0.054269 0.954692 0.738428
O O5 0.500000 0.354406 0.945026
O O6 0.564038 0.250000 0.959364
O O7 0.598779 0.379257 0.942201
O O8 0.299564 0.750000 0.594487
O O9 0.250000 0.854741 0.500000
O O10 0.333438 0.878202 0.600250
O O11 0.262857 0.842998 0.748983
O O12 0.078362 0.068579 0.620495
O O13 0.145704 0.000000 0.500000
O O14 0.500000 0.570007 0.748161
O O15 0.417474 0.566061 0.855908
O O16 0.331158 0.882305 0.895335
O O17 0.356355 0.000000 0.000000
O O18 0.698444 0.750000 0.899962
O O19 0.750000 0.649004 0.000000
#
# Coordination Sequence:
#
# PCOD8279302 Si02
#       7
#    16  16  16  16  16  16  16
#     4   9  18  33  54  82 119 160 196 236 289 352
#     4  10  21  35  52  81 121 162 202 243 291 352
#     4  10  22  42  65  88 116 155 203 252 307 368
#     4  10  20  36  59  89 118 152 196 247 296 353
#     4  10  19  34  57  86 121 158 197 239 292 352
#     4  12  22  36  61  90 119 154 199 251 299 359
#     4  10  23  45  67  87 118 159 201 251 314 374
#
# _framework density 19.606539999999999
#
# number of rings (size 3 to 8) (size 9 to 14) (size 15 to 20)
#    0.000    1.857    2.857    1.286    0.000    4.571 
#    0.000    2.857    0.000    2.143    0.000    0.000 
#    0.000    0.000    0.000    0.000    0.000    0.000 
#
# Total GULP energy -693921.846184 kJ/mol
# GULP energy per Si atom -12391.461539 kJ/mol
# Density = 1.956191 g / cm^3
# Si number density = 19.606540 Si / 1000 Ang^3
#
#
#
# Elastic Constant Matrix: (Units=GPa)
#
#
# Indices 1 2 3 4 5 6 
#
# 1 85.0381 35.2232 44.9889 0.0000 0.0000 0.0000
# 2 35.2232 63.6599 28.3232 0.0000 0.0000 0.0000
# 3 44.9889 28.3232 110.2993 0.0000 0.0000 0.0000
# 4 0.0000 0.0000 0.0000 19.1137 0.0000 0.0000
# 5 0.0000 0.0000 0.0000 0.0000 16.7820 0.0000
# 6 0.0000 0.0000 0.0000 0.0000 0.0000 23.3895
#
#
#
# Elastic Compliance Matrix: (Units=1/GPa)
#
#
# Indices 1 2 3 4 5 6 
#
# 1 0.017621 -0.007397 -0.005288 0.000000 0.000000 0.000000
# 2 -0.007397 0.020840 -0.002334 0.000000 0.000000 0.000000
# 3 -0.005288 -0.002334 0.011822 0.000000 0.000000 0.000000
# 4 0.000000 0.000000 0.000000 0.052318 0.000000 0.000000
# 5 0.000000 0.000000 0.000000 0.000000 0.059588 0.000000
# 6 0.000000 0.000000 0.000000 0.000000 0.000000 0.042754
#
#
# Mechanical properties :
#
#
# Convention : Reuss Voigt Hill
#
# Bulk Modulus (GPa) = 49.39496 52.89643 51.14569
# Shear Modulus (GPa) = 20.68425 21.88783 21.28604
#
# Velocity S-wave (km/s) = 3.25155 3.34481 3.29851
# Velocity P-wave (km/s) = 6.27252 6.47723 6.37570
#
# Compressibility (1/GPa) = 0.02024498
#
# Stress axis : x y z
#
# Youngs Moduli (GPa) = 56.75125 47.98510 84.58525
#
# Poissons Ratio (x) = 0.35495 0.44726
# Poissons Ratio (y) = 0.41979 0.19744
# Poissons Ratio (z) = 0.30008 0.11201
#
# Static dielectric constant tensor:
#      x y z
#    x 3.398290 0.000000 0.000000 
#    y 0.000000 3.566400 0.000000 
#    z 0.000000 0.000000 3.656170 
# 
# 
# High freq. dielectric constant tensor:
#      x y z
#    x 1.750710 0.000000 0.000000 
#    y 0.000000 1.757090 0.000000 
#    z 0.000000 0.000000 1.770760 
# 
# From -- ./inp_files/22141.got.cif
#   From: 2010.03.12/outbox.cif.g09.slc.cpg/sg67_12_cif.got.tgz:22141.got - 2010.04.10 22:41:39.
