data_PCOD8279487
_publ_section_title
;
Structure prediction by ZEFSAII (Michael W. Deem and Ramdas Pophale) SiO2 
 PCOD8279487
Probable space group: C M M A
;
_chemical_formula_sum "Si O2"
_cell_formula_units_Z 96
_cell_length_a 9.180368
_cell_length_b 26.004911
_cell_length_c 25.044974
_cell_angle_alpha 90.000000
_cell_angle_beta 90.000000
_cell_angle_gamma 90.000000
_cell_volume 5979.103172
_symmetry_space_group_name_H-M "C M M A"
_symmetry_group_IT_number 67
_symmetry_cell_setting 'orthorhombic'
loop_
_space_group_symop_operation_xyz
x,y,z
-x,1/2-y,z
x,-y,-z
-x,1/2+y,-z
-x,-y,-z
x,1/2+y,-z
-x,y,z
x,1/2-y,z
1/2+x,1/2+y,z
1/2-x,-y,z
1/2+x,1/2-y,-z
1/2-x,y,-z
1/2-x,1/2-y,-z
1/2+x,y,-z
1/2-x,1/2+y,z
1/2+x,-y,z
loop_
_atom_site_type_symbol
_atom_site_label
_atom_site_fract_x
_atom_site_fract_y
_atom_site_fract_z
Si Si1 0.829816 0.145055 0.365529
Si Si2 0.672069 0.190621 0.270787
Si Si3 0.658677 0.808546 0.547097
Si Si4 0.662951 0.188632 0.948837
Si Si5 0.826966 0.552651 0.554884
Si Si6 0.160756 0.689141 0.151070
O O1 0.759524 0.149414 0.306866
O O2 0.749780 0.189704 0.398619
O O3 0.796949 0.091822 0.396307
O O4 0.000000 0.156421 0.361805
O O5 0.500000 0.184078 0.279900
O O6 0.716859 0.250000 0.282713
O O7 0.716414 0.175353 0.210379
O O8 0.500000 0.835759 0.552409
O O9 0.632223 0.750000 0.531291
O O10 0.750000 0.836434 0.500000
O O11 0.500000 0.167090 0.952510
O O12 0.664196 0.250000 0.948407
O O13 0.732913 0.166570 0.894235
O O14 0.750000 0.167597 0.000000
O O15 0.750000 0.500000 0.573002
O O16 0.750000 0.571581 0.500000
O O17 0.000000 0.545293 0.545510
O O18 0.151071 0.750000 0.145601
O O19 0.000000 0.665737 0.141684
#
# Coordination Sequence:
#
# PCOD8279487 Si02
#       6
#    16  16  16  16  16  16
#     4  11  22  32  45  66  87 107 134 166 201 243
#     4   9  18  31  45  61  83 114 148 177 207 244
#     4  10  20  32  45  61  82 108 136 164 196 235
#     4   9  15  21  31  48  69  95 130 172 215 252
#     4  10  21  36  53  71  87 104 128 161 204 252
#     4   8  14  25  38  51  71 100 135 174 210 242
#
# _framework density 16.055918999999999
#
# number of rings (size 3 to 8) (size 9 to 14) (size 15 to 20)
#    0.000    2.500    0.000    4.500    0.000   10.000 
#    0.000    1.667    0.000    0.000    0.000    0.000 
#    0.000    0.000    0.000    0.000    0.000    0.833 
#
# Total GULP energy -594831.915150 kJ/mol
# GULP energy per Si atom -12392.331566 kJ/mol
# Density = 1.601938 g / cm^3
# Si number density = 16.055919 Si / 1000 Ang^3
#
#
#
# Elastic Constant Matrix: (Units=GPa)
#
#
# Indices 1 2 3 4 5 6 
#
# 1 131.6338 31.4493 82.5616 0.0000 0.0000 0.0000
# 2 31.4493 39.4530 29.4244 0.0000 0.0000 0.0000
# 3 82.5616 29.4244 146.2026 0.0000 0.0000 0.0000
# 4 0.0000 0.0000 0.0000 10.8533 0.0000 0.0000
# 5 0.0000 0.0000 0.0000 0.0000 32.7037 0.0000
# 6 0.0000 0.0000 0.0000 0.0000 0.0000 15.2474
#
#
#
# Elastic Compliance Matrix: (Units=1/GPa)
#
#
# Indices 1 2 3 4 5 6 
#
# 1 0.012747 -0.005639 -0.006064 0.000000 0.000000 0.000000
# 2 -0.005639 0.032318 -0.003320 0.000000 0.000000 0.000000
# 3 -0.006064 -0.003320 0.010932 0.000000 0.000000 0.000000
# 4 0.000000 0.000000 0.000000 0.092138 0.000000 0.000000
# 5 0.000000 0.000000 0.000000 0.000000 0.030578 0.000000
# 6 0.000000 0.000000 0.000000 0.000000 0.000000 0.065585
#
#
# Mechanical properties :
#
#
# Convention : Reuss Voigt Hill
#
# Bulk Modulus (GPa) = 38.53232 67.12890 52.83061
# Shear Modulus (GPa) = 17.66833 23.35117 20.50975
#
# Velocity S-wave (km/s) = 3.32086 3.81775 3.57794
# Velocity P-wave (km/s) = 6.22536 7.83159 7.07421
#
# Compressibility (1/GPa) = 0.02595224
#
# Stress axis : x y z
#
# Youngs Moduli (GPa) = 78.44897 30.94291 91.47399
#
# Poissons Ratio (x) = 0.17449 0.55465
# Poissons Ratio (y) = 0.44237 0.30368
# Poissons Ratio (z) = 0.47568 0.10272
#
# Static dielectric constant tensor:
#      x y z
#    x 3.373740 0.000000 0.000000 
#    y 0.000000 2.538000 0.000000 
#    z 0.000000 0.000000 3.195110 
# 
# 
# High freq. dielectric constant tensor:
#      x y z
#    x 1.634820 0.000000 0.000000 
#    y 0.000000 1.547490 0.000000 
#    z 0.000000 0.000000 1.618100 
# 
# From -- ./inp_files/43810.got.cif
#   From: 2010.03.12/outbox.cif.g09.slc.cpg/sg67_22_cif.got.tgz:43810.got - 2010.04.10 22:41:39.
