data_PCOD8279301
_publ_section_title
;
Structure prediction by ZEFSAII (Michael W. Deem and Ramdas Pophale) SiO2 
 PCOD8279301
Probable space group: C M M A
;
_chemical_formula_sum "Si O2"
_cell_formula_units_Z 64
_cell_length_a 14.682336
_cell_length_b 24.226177
_cell_length_c 8.605750
_cell_angle_alpha 90.000000
_cell_angle_beta 90.000000
_cell_angle_gamma 90.000000
_cell_volume 3061.038345
_symmetry_space_group_name_H-M "C M M A"
_symmetry_group_IT_number 67
_symmetry_cell_setting 'orthorhombic'
loop_
_space_group_symop_operation_xyz
x,y,z
-x,1/2-y,z
x,-y,-z
-x,1/2+y,-z
-x,-y,-z
x,1/2+y,-z
-x,y,z
x,1/2-y,z
1/2+x,1/2+y,z
1/2-x,-y,z
1/2+x,1/2-y,-z
1/2-x,y,-z
1/2-x,1/2-y,-z
1/2+x,y,-z
1/2-x,1/2+y,z
1/2+x,-y,z
loop_
_atom_site_type_symbol
_atom_site_label
_atom_site_fract_x
_atom_site_fract_y
_atom_site_fract_z
Si Si1 0.105618 0.139194 0.165491
Si Si2 0.338327 0.250000 0.385444
Si Si3 0.401773 0.750000 0.301483
Si Si4 0.394555 0.355421 0.199906
Si Si5 0.751821 0.935441 0.319023
O O1 0.148158 0.194284 0.245384
O O2 0.164305 0.088589 0.229431
O O3 0.000000 0.128958 0.211826
O O4 0.117063 0.147906 0.983593
O O5 0.250000 0.250000 0.500000
O O6 0.418421 0.250000 0.512674
O O7 0.344126 0.303404 0.276807
O O8 0.500000 0.750000 0.217329
O O9 0.500000 0.357004 0.249638
O O10 0.346364 0.411418 0.254459
O O11 0.750000 0.921003 0.500000
O O12 0.750000 0.000000 0.286495
#
# Coordination Sequence:
#
# PCOD8279301 Si02
#       5
#    16   8   8  16  16
#     4  10  22  40  64  92 124 161 204 255 312 371
#     4  12  23  36  60  94 128 163 201 245 301 364
#     4  10  19  34  57  86 119 153 189 237 294 356
#     4  11  23  40  63  92 126 165 206 254 310 370
#     4  11  25  43  62  87 120 160 209 261 311 369
#
# _framework density 20.907937
#
# number of rings (size 3 to 8) (size 9 to 14) (size 15 to 20)
#    0.000    1.250    0.000    6.375    0.000    8.000 
#    0.000    8.750    0.000    0.000    0.000    0.000 
#    0.000    0.000    0.000    0.000    0.000    0.000 
#
# Total GULP energy -396742.791140 kJ/mol
# GULP energy per Si atom -12398.212223 kJ/mol
# Density = 2.086035 g / cm^3
# Si number density = 20.907937 Si / 1000 Ang^3
#
#
#
# Elastic Constant Matrix: (Units=GPa)
#
#
# Indices 1 2 3 4 5 6 
#
# 1 141.8482 64.4648 53.0849 0.0000 0.0000 0.0000
# 2 64.4648 129.2797 63.1249 0.0000 0.0000 0.0000
# 3 53.0849 63.1249 129.1944 0.0000 0.0000 0.0000
# 4 0.0000 0.0000 0.0000 26.5257 0.0000 0.0000
# 5 0.0000 0.0000 0.0000 0.0000 35.7185 0.0000
# 6 0.0000 0.0000 0.0000 0.0000 0.0000 1.1357
#
#
#
# Elastic Compliance Matrix: (Units=1/GPa)
#
#
# Indices 1 2 3 4 5 6 
#
# 1 0.009528 -0.003729 -0.002093 0.000000 0.000000 0.000000
# 2 -0.003729 0.011618 -0.004145 0.000000 0.000000 0.000000
# 3 -0.002093 -0.004145 0.010625 0.000000 0.000000 0.000000
# 4 0.000000 0.000000 0.000000 0.037699 0.000000 0.000000
# 5 0.000000 0.000000 0.000000 0.000000 0.027997 0.000000
# 6 0.000000 0.000000 0.000000 0.000000 0.000000 0.880538
#
#
# Mechanical properties :
#
#
# Convention : Reuss Voigt Hill
#
# Bulk Modulus (GPa) = 84.47047 84.63018 84.55033
# Shear Modulus (GPa) = 4.99060 27.31915 16.15487
#
# Velocity S-wave (km/s) = 1.54665 3.61867 2.78270
# Velocity P-wave (km/s) = 6.60896 7.61742 7.13104
#
# Compressibility (1/GPa) = 0.01183846
#
# Stress axis : x y z
#
# Youngs Moduli (GPa) = 104.95677 86.07070 94.11563
#
# Poissons Ratio (x) = 0.32096 0.19697
# Poissons Ratio (y) = 0.39139 0.39007
# Poissons Ratio (z) = 0.21966 0.35672
#
# Static dielectric constant tensor:
#      x y z
#    x 4.073900 0.000000 0.000000 
#    y 0.000000 3.810140 0.000000 
#    z 0.000000 0.000000 4.073640 
# 
# 
# High freq. dielectric constant tensor:
#      x y z
#    x 1.833940 0.000000 0.000000 
#    y 0.000000 1.815550 0.000000 
#    z 0.000000 0.000000 1.836890 
# 
# From -- ./inp_files/8013.got.cif
#   From: 2010.03.12/outbox.cif.g09.slc.cpg/sg67_5_cif.got.tgz:8013.got - 2010.04.10 22:41:39.
