data_PCOD8279593
_publ_section_title
;
Structure prediction by ZEFSAII (Michael W. Deem and Ramdas Pophale) SiO2 
 PCOD8279593
Probable space group: C M M A
;
_chemical_formula_sum "Si O2"
_cell_formula_units_Z 112
_cell_length_a 27.105299
_cell_length_b 15.487754
_cell_length_c 13.502317
_cell_angle_alpha 90.000000
_cell_angle_beta 90.000000
_cell_angle_gamma 90.000000
_cell_volume 5668.275418
_symmetry_space_group_name_H-M "C M M A"
_symmetry_group_IT_number 67
_symmetry_cell_setting 'orthorhombic'
loop_
_space_group_symop_operation_xyz
x,y,z
-x,1/2-y,z
x,-y,-z
-x,1/2+y,-z
-x,-y,-z
x,1/2+y,-z
-x,y,z
x,1/2-y,z
1/2+x,1/2+y,z
1/2-x,-y,z
1/2+x,1/2-y,-z
1/2-x,y,-z
1/2-x,1/2-y,-z
1/2+x,y,-z
1/2-x,1/2+y,z
1/2+x,-y,z
loop_
_atom_site_type_symbol
_atom_site_label
_atom_site_fract_x
_atom_site_fract_y
_atom_site_fract_z
Si Si1 0.376905 0.152622 0.182617
Si Si2 0.773606 0.351544 0.901348
Si Si3 0.640554 0.605075 0.394741
Si Si4 0.556686 0.652324 0.252475
Si Si5 0.338200 0.093528 0.385590
Si Si6 0.258164 0.848131 0.307072
Si Si7 0.558093 0.502238 0.888210
O O1 0.395091 0.250000 0.159697
O O2 0.331588 0.126769 0.110234
O O3 0.360326 0.149879 0.296942
O O4 0.420828 0.085873 0.166609
O O5 0.765468 0.250000 0.907882
O O6 0.744941 0.387002 0.804353
O O7 0.750000 0.395261 0.000000
O O8 0.589408 0.639850 0.350549
O O9 0.644121 0.503972 0.375428
O O10 0.642463 0.630552 0.510213
O O11 0.685803 0.650957 0.340932
O O12 0.500000 0.634530 0.282819
O O13 0.563017 0.750000 0.211693
O O14 0.574082 0.586250 0.166757
O O15 0.278271 0.098000 0.379752
O O16 0.238536 0.750000 0.307083
O O17 0.500000 0.513221 0.886723
O O18 0.578353 0.500000 0.000000
#
# Coordination Sequence:
#
# PCOD8279593 Si02
#       7
#    16  16  16  16  16  16  16
#     4  10  20  37  61  86 120 159 194 241 295 350
#     4   8  16  32  52  79 116 155 193 235 284 340
#     4  11  21  36  60  84 114 161 205 246 296 359
#     4  10  22  41  63  88 119 153 196 252 303 348
#     4  10  21  37  55  85 120 159 196 244 299 351
#     4  10  20  32  52  83 120 158 198 245 292 349
#     4  10  22  41  63  88 119 152 193 244 295 351
#
# _framework density 19.759096
#
# number of rings (size 3 to 8) (size 9 to 14) (size 15 to 20)
#    0.000    2.143    1.429    2.571    0.000    6.000 
#    0.000    5.000    0.000    0.000    0.000    0.000 
#    0.000    0.571    0.000    0.000    0.000    0.000 
#
# Total GULP energy -694368.074909 kJ/mol
# GULP energy per Si atom -12399.429909 kJ/mol
# Density = 1.971412 g / cm^3
# Si number density = 19.759096 Si / 1000 Ang^3
#
#
#
# Elastic Constant Matrix: (Units=GPa)
#
#
# Indices 1 2 3 4 5 6 
#
# 1 72.2276 38.6186 53.4855 0.0000 0.0000 0.0000
# 2 38.6186 90.4166 45.0410 0.0000 0.0000 0.0000
# 3 53.4855 45.0410 137.2715 0.0000 0.0000 0.0000
# 4 0.0000 0.0000 0.0000 20.8618 0.0000 0.0000
# 5 0.0000 0.0000 0.0000 0.0000 29.6286 0.0000
# 6 0.0000 0.0000 0.0000 0.0000 0.0000 28.7846
#
#
#
# Elastic Compliance Matrix: (Units=1/GPa)
#
#
# Indices 1 2 3 4 5 6 
#
# 1 0.021969 -0.006120 -0.006552 0.000000 0.000000 0.000000
# 2 -0.006120 0.014925 -0.002513 0.000000 0.000000 0.000000
# 3 -0.006552 -0.002513 0.010662 0.000000 0.000000 0.000000
# 4 0.000000 0.000000 0.000000 0.047934 0.000000 0.000000
# 5 0.000000 0.000000 0.000000 0.000000 0.033751 0.000000
# 6 0.000000 0.000000 0.000000 0.000000 0.000000 0.034741
#
#
# Mechanical properties :
#
#
# Convention : Reuss Voigt Hill
#
# Bulk Modulus (GPa) = 58.18043 63.80064 60.99053
# Shear Modulus (GPa) = 24.98989 26.70637 25.84813
#
# Velocity S-wave (km/s) = 3.56016 3.68040 3.62078
# Velocity P-wave (km/s) = 6.81238 7.10069 6.95803
#
# Compressibility (1/GPa) = 0.01718791
#
# Stress axis : x y z
#
# Youngs Moduli (GPa) = 45.51898 66.99952 93.78933
#
# Poissons Ratio (x) = 0.41000 0.61450
# Poissons Ratio (y) = 0.27855 0.23569
# Poissons Ratio (z) = 0.29823 0.16837
#
# Static dielectric constant tensor:
#      x y z
#    x 3.442810 0.000000 0.000000 
#    y 0.000000 3.540550 0.000000 
#    z 0.000000 0.000000 3.811510 
# 
# 
# High freq. dielectric constant tensor:
#      x y z
#    x 1.756210 0.000000 0.000000 
#    y 0.000000 1.771560 0.000000 
#    z 0.000000 0.000000 1.771540 
# 
# From -- ./inp_files/30196.got.cif
#   From: 2010.03.12/outbox.cif.g09.slc.cpg/sg67_16_cif.got.tgz:30196.got - 2010.04.10 22:41:39.
