data_PCOD8279348
_publ_section_title
;
Structure prediction by ZEFSAII (Michael W. Deem and Ramdas Pophale) SiO2 
 PCOD8279348
Probable space group: C M M A
;
_chemical_formula_sum "Si O2"
_cell_formula_units_Z 112
_cell_length_a 14.936397
_cell_length_b 23.142459
_cell_length_c 14.971009
_cell_angle_alpha 90.000000
_cell_angle_beta 90.000000
_cell_angle_gamma 90.000000
_cell_volume 5174.953155
_symmetry_space_group_name_H-M "C M M A"
_symmetry_group_IT_number 67
_symmetry_cell_setting 'orthorhombic'
loop_
_space_group_symop_operation_xyz
x,y,z
-x,1/2-y,z
x,-y,-z
-x,1/2+y,-z
-x,-y,-z
x,1/2+y,-z
-x,y,z
x,1/2-y,z
1/2+x,1/2+y,z
1/2-x,-y,z
1/2+x,1/2-y,-z
1/2-x,y,-z
1/2-x,1/2-y,-z
1/2+x,y,-z
1/2-x,1/2+y,z
1/2+x,-y,z
loop_
_atom_site_type_symbol
_atom_site_label
_atom_site_fract_x
_atom_site_fract_y
_atom_site_fract_z
Si Si1 0.102424 0.115274 0.370116
Si Si2 0.605725 0.182980 0.134759
Si Si3 0.096746 0.906654 0.000497
Si Si4 0.233014 0.816484 0.298144
Si Si5 0.603278 0.627697 0.576526
Si Si6 0.652355 0.495367 0.875793
Si Si7 0.397460 0.487307 0.321775
O O1 0.174727 0.146823 0.306121
O O2 0.116293 0.134492 0.471394
O O3 0.000000 0.128862 0.337903
O O4 0.119426 0.046772 0.373273
O O5 0.500000 0.168708 0.156377
O O6 0.617340 0.250000 0.113428
O O7 0.645489 0.147278 0.049449
O O8 0.670202 0.163335 0.215829
O O9 0.000000 0.881245 0.982157
O O10 0.091063 0.959609 0.071035
O O11 0.128786 0.928847 0.903048
O O12 0.261395 0.750000 0.289409
O O13 0.169218 0.824266 0.383874
O O14 0.500000 0.639497 0.602716
O O15 0.635077 0.565125 0.615128
O O16 0.750000 0.500000 0.915974
O O17 0.654378 0.508924 0.771371
O O18 0.500000 0.478838 0.296228
#
# Coordination Sequence:
#
# PCOD8279348 Si02
#       7
#    16  16  16  16  16  16  16
#     4  10  23  40  58  84 119 160 205 249 296 356
#     4   9  19  36  61  91 118 150 196 251 305 353
#     4  10  19  35  57  81 116 152 185 233 291 352
#     4  11  23  38  58  87 121 157 202 250 298 354
#     4  10  21  38  61  89 120 154 195 250 310 361
#     4  11  22  33  52  87 120 148 186 234 286 355
#     4  10  21  38  60  86 117 155 196 243 301 360
#
# _framework density 21.642707999999999
#
# number of rings (size 3 to 8) (size 9 to 14) (size 15 to 20)
#    0.000    1.857    0.000    4.714    4.000    6.286 
#    0.000    2.857    0.000    2.571    0.000    2.000 
#    0.000    0.000    0.000    0.000    0.000    0.000 
#
# Total GULP energy -693789.715786 kJ/mol
# GULP energy per Si atom -12389.102068 kJ/mol
# Density = 2.159345 g / cm^3
# Si number density = 21.642708 Si / 1000 Ang^3
#
#
#
# Elastic Constant Matrix: (Units=GPa)
#
#
# Indices 1 2 3 4 5 6 
#
# 1 93.1416 35.3318 20.6752 0.0000 0.0000 0.0000
# 2 35.3318 73.3399 24.6300 0.0000 0.0000 0.0000
# 3 20.6752 24.6300 47.1320 0.0000 0.0000 0.0000
# 4 0.0000 0.0000 0.0000 37.5778 0.0000 0.0000
# 5 0.0000 0.0000 0.0000 0.0000 -13.6403 0.0000
# 6 0.0000 0.0000 0.0000 0.0000 0.0000 21.5524
#
#
#
# Elastic Compliance Matrix: (Units=1/GPa)
#
#
# Indices 1 2 3 4 5 6 
#
# 1 0.013491 -0.005472 -0.003058 0.000000 0.000000 0.000000
# 2 -0.005472 0.018757 -0.007401 0.000000 0.000000 0.000000
# 3 -0.003058 -0.007401 0.026426 0.000000 0.000000 0.000000
# 4 0.000000 0.000000 0.000000 0.026611 0.000000 0.000000
# 5 0.000000 0.000000 0.000000 0.000000 -0.073312 0.000000
# 6 0.000000 0.000000 0.000000 0.000000 0.000000 0.046399
#
#
# Mechanical properties :
#
#
# Convention : Reuss Voigt Hill
#
# Bulk Modulus (GPa) = 37.29908 41.65415 39.47662
# Shear Modulus (GPa) = 50.41672 17.96308 34.18990
#
# Velocity S-wave (km/s) = 4.83173 2.88407 3.97891
# Velocity P-wave (km/s) = 6.95693 5.51167 6.27604
#
# Compressibility (1/GPa) = 0.02681031
#
# Stress axis : x y z
#
# Youngs Moduli (GPa) = 74.12329 53.31319 37.84085
#
# Poissons Ratio (x) = 0.29174 0.11573
# Poissons Ratio (y) = 0.40562 0.28008
# Poissons Ratio (z) = 0.22670 0.39460
#
# Static dielectric constant tensor:
#      x y z
#    x 3.979920 0.000000 0.000000 
#    y 0.000000 3.873220 0.000000 
#    z 0.000000 0.000000 3.825970 
# 
# 
# High freq. dielectric constant tensor:
#      x y z
#    x 1.852890 0.000000 0.000000 
#    y 0.000000 1.836820 0.000000 
#    z 0.000000 0.000000 1.841130 
# 
# From -- ./inp_files/27495.got.cif
#   From: 2010.03.12/outbox.cif.g09.slc.cpg/sg67_14_cif.got.tgz:27495.got - 2010.04.10 22:41:39.
