data_PCOD8279115
_publ_section_title
;
Structure prediction by ZEFSAII (Michael W. Deem and Ramdas Pophale) SiO2 
 PCOD8279115
Probable space group: C M M A
;
_chemical_formula_sum "Si O2"
_cell_formula_units_Z 120
_cell_length_a 8.765220
_cell_length_b 26.364344
_cell_length_c 28.410320
_cell_angle_alpha 90.000000
_cell_angle_beta 90.000000
_cell_angle_gamma 90.000000
_cell_volume 6565.320260
_symmetry_space_group_name_H-M "C M M A"
_symmetry_group_IT_number 67
_symmetry_cell_setting 'orthorhombic'
loop_
_space_group_symop_operation_xyz
x,y,z
-x,1/2-y,z
x,-y,-z
-x,1/2+y,-z
-x,-y,-z
x,1/2+y,-z
-x,y,z
x,1/2-y,z
1/2+x,1/2+y,z
1/2-x,-y,z
1/2+x,1/2-y,-z
1/2-x,y,-z
1/2-x,1/2-y,-z
1/2+x,y,-z
1/2-x,1/2+y,z
1/2+x,-y,z
loop_
_atom_site_type_symbol
_atom_site_label
_atom_site_fract_x
_atom_site_fract_y
_atom_site_fract_z
Si Si1 0.819771 0.360016 0.051377
Si Si2 0.818533 0.054095 0.122757
Si Si3 0.175895 0.690544 0.547110
Si Si4 0.179408 0.307750 0.258002
Si Si5 0.324172 0.550678 0.307874
Si Si6 0.325419 0.847679 0.356082
Si Si7 0.180165 0.902412 0.216652
Si Si8 0.178474 0.250000 0.050444
O O1 0.758785 0.403856 0.085741
O O2 0.773794 0.304220 0.073994
O O3 0.000000 0.364182 0.046140
O O4 0.750000 0.368072 0.000000
O O5 0.760024 0.069991 0.173606
O O6 0.000000 0.050432 0.123601
O O7 0.750000 0.000000 0.107743
O O8 0.205137 0.750000 0.549294
O O9 0.250000 0.667225 0.500000
O O10 0.253849 0.667174 0.594416
O O11 0.000000 0.675879 0.544688
O O12 0.211842 0.250000 0.243278
O O13 0.244107 0.318174 0.310782
O O14 0.264203 0.344011 0.220839
O O15 0.000000 0.321082 0.256515
O O16 0.500000 0.542938 0.293306
O O17 0.250000 0.500000 0.328845
O O18 0.308974 0.592241 0.348864
O O19 0.228085 0.566819 0.262633
O O20 0.500000 0.829905 0.359832
O O21 0.000000 0.904064 0.209888
O O22 0.000000 0.250000 0.043800
O O23 0.250000 0.250000 0.000000
#
# Coordination Sequence:
#
# PCOD8279115 Si02
#       8
#    16  16  16  16  16  16  16   8
#     4   9  19  35  58  83 109 136 172 213 258 309
#     4  11  23  39  56  78 106 141 180 219 261 312
#     4   9  16  27  44  67  95 126 160 198 240 290
#     4   9  17  32  54  77 102 135 173 212 255 307
#     4  10  19  33  53  75  97 124 164 210 256 306
#     4   8  15  28  48  71  95 127 166 204 245 299
#     4  11  22  36  53  75 105 138 171 212 258 306
#     4   8  14  30  54  80 104 130 162 204 248 294
#
# _framework density 18.277858999999999
#
# number of rings (size 3 to 8) (size 9 to 14) (size 15 to 20)
#    0.000    2.533    0.000    3.600    0.000    3.200 
#    1.200    4.667    0.000    3.600    0.000    2.800 
#    0.000    0.000    0.000    0.000    0.000    0.000 
#
# Total GULP energy -743624.612344 kJ/mol
# GULP energy per Si atom -12393.743539 kJ/mol
# Density = 1.823626 g / cm^3
# Si number density = 18.277859 Si / 1000 Ang^3
#
#
#
# Elastic Constant Matrix: (Units=GPa)
#
#
# Indices 1 2 3 4 5 6 
#
# 1 52.0291 38.3509 21.2338 0.0000 0.0000 0.0000
# 2 38.3509 120.6634 40.4988 0.0000 0.0000 0.0000
# 3 21.2338 40.4988 77.1240 0.0000 0.0000 0.0000
# 4 0.0000 0.0000 0.0000 26.1893 0.0000 0.0000
# 5 0.0000 0.0000 0.0000 0.0000 23.1710 0.0000
# 6 0.0000 0.0000 0.0000 0.0000 0.0000 28.2007
#
#
#
# Elastic Compliance Matrix: (Units=1/GPa)
#
#
# Indices 1 2 3 4 5 6 
#
# 1 0.025814 -0.007064 -0.003398 0.000000 0.000000 0.000000
# 2 -0.007064 0.011994 -0.004353 0.000000 0.000000 0.000000
# 3 -0.003398 -0.004353 0.016187 0.000000 0.000000 0.000000
# 4 0.000000 0.000000 0.000000 0.038183 0.000000 0.000000
# 5 0.000000 0.000000 0.000000 0.000000 0.043157 0.000000
# 6 0.000000 0.000000 0.000000 0.000000 0.000000 0.035460
#
#
# Mechanical properties :
#
#
# Convention : Reuss Voigt Hill
#
# Bulk Modulus (GPa) = 41.04228 49.99818 45.52023
# Shear Modulus (GPa) = 23.97539 25.49442 24.73490
#
# Velocity S-wave (km/s) = 3.62569 3.73879 3.68267
# Velocity P-wave (km/s) = 6.32700 6.78616 6.56060
#
# Compressibility (1/GPa) = 0.02436512
#
# Stress axis : x y z
#
# Youngs Moduli (GPa) = 38.73931 83.37632 61.77617
#
# Poissons Ratio (x) = 0.58898 0.20989
# Poissons Ratio (y) = 0.27366 0.26892
# Poissons Ratio (z) = 0.13162 0.36295
#
# Static dielectric constant tensor:
#      x y z
#    x 3.189960 0.000000 0.000000 
#    y 0.000000 3.738540 0.000000 
#    z 0.000000 0.000000 3.383580 
# 
# 
# High freq. dielectric constant tensor:
#      x y z
#    x 1.692880 0.000000 0.000000 
#    y 0.000000 1.716920 0.000000 
#    z 0.000000 0.000000 1.692220 
# 
# From -- ./inp_files/43902.got.cif
#   From: 2010.03.12/outbox.cif.g09.slc.cpg/sg67_22_cif.got.tgz:43902.got - 2010.04.10 22:41:39.
