data_PCOD8280866
_publ_section_title
;
Structure prediction by ZEFSAII (Michael W. Deem and Ramdas Pophale) SiO2 
 PCOD8280866
Probable space group: C M M A
;
_chemical_formula_sum "Si O2"
_cell_formula_units_Z 104
_cell_length_a 8.806077
_cell_length_b 29.765058
_cell_length_c 20.214627
_cell_angle_alpha 90.000000
_cell_angle_beta 90.000000
_cell_angle_gamma 90.000000
_cell_volume 5298.524464
_symmetry_space_group_name_H-M "C M M A"
_symmetry_group_IT_number 67
_symmetry_cell_setting 'orthorhombic'
loop_
_space_group_symop_operation_xyz
x,y,z
-x,1/2-y,z
x,-y,-z
-x,1/2+y,-z
-x,-y,-z
x,1/2+y,-z
-x,y,z
x,1/2-y,z
1/2+x,1/2+y,z
1/2-x,-y,z
1/2+x,1/2-y,-z
1/2-x,y,-z
1/2-x,1/2-y,-z
1/2+x,y,-z
1/2-x,1/2+y,z
1/2+x,-y,z
loop_
_atom_site_type_symbol
_atom_site_label
_atom_site_fract_x
_atom_site_fract_y
_atom_site_fract_z
Si Si1 0.327542 0.674240 0.862937
Si Si2 0.324831 0.894154 0.318971
Si Si3 0.673116 0.801721 0.265661
Si Si4 0.173360 0.579098 0.070639
Si Si5 0.180945 0.547285 0.429296
Si Si6 0.331741 0.750000 0.066842
Si Si7 0.318003 0.546182 0.790442
O O1 0.500000 0.690321 0.874123
O O2 0.291478 0.676213 0.785537
O O3 0.298050 0.628354 0.900812
O O4 0.203395 0.706846 0.891426
O O5 0.500000 0.909590 0.324673
O O6 0.315286 0.839272 0.323795
O O7 0.226445 0.913769 0.378726
O O8 0.256958 0.912760 0.249610
O O9 0.500000 0.801231 0.238200
O O10 0.717788 0.750000 0.286542
O O11 0.228749 0.547893 0.131524
O O12 0.000000 0.569894 0.055402
O O13 0.250000 0.569631 0.000000
O O14 0.250000 0.500000 0.404526
O O15 0.250000 0.560260 0.500000
O O16 0.000000 0.543297 0.434047
O O17 0.500000 0.750000 0.043977
O O18 0.250000 0.750000 0.000000
O O19 0.500000 0.548972 0.781995
O O20 0.250000 0.500000 0.761376
#
# Coordination Sequence:
#
# PCOD8280866 Si02
#       7
#    16  16  16  16  16   8  16
#     4  11  21  36  55  78 105 141 184 238 299 358
#     4  11  22  38  62  91 124 162 199 241 295 348
#     4  10  21  37  59  87 117 153 196 244 293 349
#     4  10  23  39  56  76 105 141 188 241 298 359
#     4  11  22  39  64  96 134 169 204 243 288 345
#     4  12  24  36  50  74 104 138 181 234 297 364
#     4  11  23  40  58  83 113 148 195 247 299 357
#
# _framework density 19.628107
#
# number of rings (size 3 to 8) (size 9 to 14) (size 15 to 20)
#    0.000    1.231    2.308    4.846    0.000    4.615 
#    0.000    1.538    0.000    0.462    0.000    0.000 
#    0.000    0.000    0.000    0.000    0.000    0.000 
#
# Total GULP energy -644300.839181 kJ/mol
# GULP energy per Si atom -12390.400753 kJ/mol
# Density = 1.958343 g / cm^3
# Si number density = 19.628107 Si / 1000 Ang^3
#
#
#
# Elastic Constant Matrix: (Units=GPa)
#
#
# Indices 1 2 3 4 5 6 
#
# 1 117.8086 38.4083 35.0839 0.0000 0.0000 0.0000
# 2 38.4083 103.3056 47.3813 0.0000 0.0000 0.0000
# 3 35.0839 47.3813 90.5249 0.0000 0.0000 0.0000
# 4 0.0000 0.0000 0.0000 20.0623 0.0000 0.0000
# 5 0.0000 0.0000 0.0000 0.0000 31.7808 0.0000
# 6 0.0000 0.0000 0.0000 0.0000 0.0000 27.2862
#
#
#
# Elastic Compliance Matrix: (Units=1/GPa)
#
#
# Indices 1 2 3 4 5 6 
#
# 1 0.010092 -0.002577 -0.002562 0.000000 0.000000 0.000000
# 2 -0.002577 0.013396 -0.006013 0.000000 0.000000 0.000000
# 3 -0.002562 -0.006013 0.015187 0.000000 0.000000 0.000000
# 4 0.000000 0.000000 0.000000 0.049845 0.000000 0.000000
# 5 0.000000 0.000000 0.000000 0.000000 0.031466 0.000000
# 6 0.000000 0.000000 0.000000 0.000000 0.000000 0.036649
#
#
# Mechanical properties :
#
#
# Convention : Reuss Voigt Hill
#
# Bulk Modulus (GPa) = 61.08596 61.48734 61.28665
# Shear Modulus (GPa) = 27.11590 28.54356 27.82973
#
# Velocity S-wave (km/s) = 3.72086 3.81756 3.76952
# Velocity P-wave (km/s) = 7.04620 7.12923 7.08784
#
# Compressibility (1/GPa) = 0.01637037
#
# Stress axis : x y z
#
# Youngs Moduli (GPa) = 99.09323 74.65029 65.84615
#
# Poissons Ratio (x) = 0.19235 0.16873
# Poissons Ratio (y) = 0.25533 0.39592
# Poissons Ratio (z) = 0.25392 0.44886
#
# Static dielectric constant tensor:
#      x y z
#    x 3.667870 0.000000 0.000000 
#    y 0.000000 3.653530 0.000000 
#    z 0.000000 0.000000 3.324220 
# 
# 
# High freq. dielectric constant tensor:
#      x y z
#    x 1.775820 0.000000 0.000000 
#    y 0.000000 1.770380 0.000000 
#    z 0.000000 0.000000 1.745230 
# 
# From -- ./inp_files/37529.got.cif
#   From: 2010.03.12/outbox.cif.g09.slc.cpg/sg67_19_cif.got.tgz:37529.got - 2010.04.10 22:41:39.
