data_PCOD8280291
_publ_section_title
;
Structure prediction by ZEFSAII (Michael W. Deem and Ramdas Pophale) SiO2 
 PCOD8280291
Probable space group: C M M A
;
_chemical_formula_sum "Si O2"
_cell_formula_units_Z 104
_cell_length_a 26.566350
_cell_length_b 10.059433
_cell_length_c 24.279649
_cell_angle_alpha 90.000000
_cell_angle_beta 90.000000
_cell_angle_gamma 90.000000
_cell_volume 6488.552104
_symmetry_space_group_name_H-M "C M M A"
_symmetry_group_IT_number 67
_symmetry_cell_setting 'orthorhombic'
loop_
_space_group_symop_operation_xyz
x,y,z
-x,1/2-y,z
x,-y,-z
-x,1/2+y,-z
-x,-y,-z
x,1/2+y,-z
-x,y,z
x,1/2-y,z
1/2+x,1/2+y,z
1/2-x,-y,z
1/2+x,1/2-y,-z
1/2-x,y,-z
1/2-x,1/2-y,-z
1/2+x,y,-z
1/2-x,1/2+y,z
1/2+x,-y,z
loop_
_atom_site_type_symbol
_atom_site_label
_atom_site_fract_x
_atom_site_fract_y
_atom_site_fract_z
Si Si1 0.597318 0.593375 0.876735
Si Si2 0.000000 0.907584 0.052809
Si Si3 0.707666 0.099830 0.110108
Si Si4 0.941238 0.395534 0.333736
Si Si5 0.712149 0.106065 0.241036
Si Si6 0.059712 0.899820 0.544726
Si Si7 0.401488 0.903750 0.753309
O O1 0.602418 0.750000 0.870662
O O2 0.549919 0.551826 0.913634
O O3 0.650801 0.545551 0.903484
O O4 0.588873 0.538593 0.814912
O O5 0.000000 0.750000 0.038289
O O6 0.000000 0.000000 0.000000
O O7 0.716269 0.250000 0.086772
O O8 0.712271 0.101467 0.175389
O O9 0.750000 0.000000 0.084720
O O10 0.919290 0.250000 0.315805
O O11 0.919533 0.435809 0.393973
O O12 0.932173 0.508102 0.288869
O O13 0.000000 0.379502 0.340967
O O14 0.731044 0.250000 0.260826
O O15 0.656562 0.079213 0.263126
O O16 0.750000 0.000000 0.267201
O O17 0.075822 0.750000 0.529107
O O18 0.000000 0.914052 0.543508
O O19 0.084101 0.000000 0.500000
O O20 0.418853 0.750000 0.748804
#
# Coordination Sequence:
#
# PCOD8280291 Si02
#       7
#    16   8  16  16  16  16  16
#     4   8  16  30  48  67  88 116 147 179 219 263
#     4  10  20  36  54  68  86 116 151 188 223 254
#     4   8  13  24  42  65  89 111 137 171 212 259
#     4   9  18  29  38  55  87 120 143 174 220 258
#     4   8  14  24  38  58  84 109 137 170 204 247
#     4   8  14  25  39  53  73 104 143 181 215 250
#     4   9  17  28  43  65  87 111 146 179 205 253
#
# _framework density 16.028230000000001
#
# number of rings (size 3 to 8) (size 9 to 14) (size 15 to 20)
#    0.000    3.538    0.000    2.769    1.077    1.538 
#    0.000    5.385    0.000    0.462    0.000    3.231 
#    0.000    0.615    0.000    6.769    0.000    5.538 
#
# Total GULP energy -644204.431960 kJ/mol
# GULP energy per Si atom -12388.546768 kJ/mol
# Density = 1.599175 g / cm^3
# Si number density = 16.028230 Si / 1000 Ang^3
#
#
#
# Elastic Constant Matrix: (Units=GPa)
#
#
# Indices 1 2 3 4 5 6 
#
# 1 78.4305 40.5444 34.9516 0.0000 0.0000 0.0000
# 2 40.5444 81.0644 48.6860 0.0000 0.0000 0.0000
# 3 34.9516 48.6860 73.5629 0.0000 0.0000 0.0000
# 4 0.0000 0.0000 0.0000 19.1988 0.0000 0.0000
# 5 0.0000 0.0000 0.0000 0.0000 0.2843 0.0000
# 6 0.0000 0.0000 0.0000 0.0000 0.0000 24.6131
#
#
#
# Elastic Compliance Matrix: (Units=1/GPa)
#
#
# Indices 1 2 3 4 5 6 
#
# 1 0.017980 -0.006410 -0.004301 0.000000 0.000000 0.000000
# 2 -0.006410 0.022759 -0.012017 0.000000 0.000000 0.000000
# 3 -0.004301 -0.012017 0.023590 0.000000 0.000000 0.000000
# 4 0.000000 0.000000 0.000000 0.052087 0.000000 0.000000
# 5 0.000000 0.000000 0.000000 0.000000 3.517381 0.000000
# 6 0.000000 0.000000 0.000000 0.000000 0.000000 0.040629
#
#
# Mechanical properties :
#
#
# Convention : Reuss Voigt Hill
#
# Bulk Modulus (GPa) = 52.98165 53.49134 53.23649
# Shear Modulus (GPa) = 1.34186 16.07763 8.70974
#
# Velocity S-wave (km/s) = 0.91597 3.17058 2.33362
# Velocity P-wave (km/s) = 5.85198 6.84464 6.36768
#
# Compressibility (1/GPa) = 0.01887446
#
# Stress axis : x y z
#
# Youngs Moduli (GPa) = 55.61649 43.93851 42.39019
#
# Poissons Ratio (x) = 0.28165 0.18230
# Poissons Ratio (y) = 0.35650 0.50941
# Poissons Ratio (z) = 0.23918 0.52801
#
# Static dielectric constant tensor:
#      x y z
#    x 3.102660 0.000000 0.000000 
#    y 0.000000 3.165530 0.000000 
#    z 0.000000 0.000000 2.855180 
# 
# 
# High freq. dielectric constant tensor:
#      x y z
#    x 1.594850 0.000000 0.000000 
#    y 0.000000 1.609530 0.000000 
#    z 0.000000 0.000000 1.584430 
# 
# From -- ./inp_files/44954.got.cif
#   From: 2010.03.12/outbox.cif.g09.slc.cpg/sg67_23_cif.got.tgz:44954.got - 2010.04.10 22:41:39.
