data_PCOD8280837
_publ_section_title
;
Structure prediction by ZEFSAII (Michael W. Deem and Ramdas Pophale) SiO2 
 PCOD8280837
Probable space group: C M M A
;
_chemical_formula_sum "Si O2"
_cell_formula_units_Z 96
_cell_length_a 14.707863
_cell_length_b 14.202543
_cell_length_c 22.381530
_cell_angle_alpha 90.000000
_cell_angle_beta 90.000000
_cell_angle_gamma 90.000000
_cell_volume 4675.256689
_symmetry_space_group_name_H-M "C M M A"
_symmetry_group_IT_number 67
_symmetry_cell_setting 'orthorhombic'
loop_
_space_group_symop_operation_xyz
x,y,z
-x,1/2-y,z
x,-y,-z
-x,1/2+y,-z
-x,-y,-z
x,1/2+y,-z
-x,y,z
x,1/2-y,z
1/2+x,1/2+y,z
1/2-x,-y,z
1/2+x,1/2-y,-z
1/2-x,y,-z
1/2-x,1/2-y,-z
1/2+x,y,-z
1/2-x,1/2+y,z
1/2+x,-y,z
loop_
_atom_site_type_symbol
_atom_site_label
_atom_site_fract_x
_atom_site_fract_y
_atom_site_fract_z
Si Si1 0.500000 0.641347 0.058067
Si Si2 0.000000 0.858807 0.083448
Si Si3 0.636759 0.642503 0.353067
Si Si4 0.396749 0.505678 0.247046
Si Si5 0.000000 0.138155 0.582761
Si Si6 0.160177 0.857308 0.334276
Si Si7 0.500000 0.138577 0.549645
Si Si8 0.645623 0.007931 0.884660
O O1 0.500000 0.750000 0.079457
O O2 0.408408 0.590704 0.081260
O O3 0.500000 0.633628 0.987428
O O4 0.908335 0.909325 0.107376
O O5 0.000000 0.750000 0.104801
O O6 0.608890 0.750000 0.342317
O O7 0.605539 0.591161 0.293257
O O8 0.743066 0.630238 0.365567
O O9 0.587412 0.604058 0.412607
O O10 0.500000 0.475299 0.234204
O O11 0.342454 0.416543 0.273464
O O12 0.350114 0.535430 0.185206
O O13 0.912235 0.101729 0.618656
O O14 0.000000 0.250000 0.578887
O O15 0.000000 0.092562 0.516559
O O16 0.139058 0.750000 0.317062
O O17 0.500000 0.250000 0.540967
O O18 0.750000 0.000000 0.908558
#
# Coordination Sequence:
#
# PCOD8280837 Si02
#       8
#     8   8  16  16   8  16   8  16
#     4  10  23  43  65  94 131 167 205 250 298 350
#     4  10  23  43  65  94 131 167 205 250 298 350
#     4  10  21  37  57  81 111 147 187 235 292 351
#     4  12  22  39  62  84 117 154 190 238 294 347
#     4   9  18  33  54  80 108 142 187 235 287 348
#     4  10  21  37  57  81 111 147 187 235 292 351
#     4   9  18  33  54  80 108 142 187 235 287 348
#     4  11  23  41  65  94 126 164 208 253 301 355
#
# _framework density 20.533631
#
# number of rings (size 3 to 8) (size 9 to 14) (size 15 to 20)
#    0.000    1.667    3.333    2.500    0.000    4.000 
#    0.000    6.667    0.000    2.000    0.000    0.000 
#    0.000    0.000    0.000    0.000    0.000    0.000 
#
# Total GULP energy -595196.426901 kJ/mol
# GULP energy per Si atom -12399.925560 kJ/mol
# Density = 2.048690 g / cm^3
# Si number density = 20.533631 Si / 1000 Ang^3
#
#
#
# Elastic Constant Matrix: (Units=GPa)
#
#
# Indices 1 2 3 4 5 6 
#
# 1 145.6624 23.5432 22.2700 0.0000 0.0000 0.0000
# 2 23.5432 82.8892 13.8681 0.0000 0.0000 0.0000
# 3 22.2700 13.8681 103.3225 0.0000 0.0000 0.0000
# 4 0.0000 0.0000 0.0000 -103.7945 0.0000 0.0000
# 5 0.0000 0.0000 0.0000 0.0000 14.5285 0.0000
# 6 0.0000 0.0000 0.0000 0.0000 0.0000 20.9382
#
#
#
# Elastic Compliance Matrix: (Units=1/GPa)
#
#
# Indices 1 2 3 4 5 6 
#
# 1 0.007372 -0.001870 -0.001338 0.000000 0.000000 0.000000
# 2 -0.001870 0.012816 -0.001317 0.000000 0.000000 0.000000
# 3 -0.001338 -0.001317 0.010144 0.000000 0.000000 0.000000
# 4 0.000000 0.000000 0.000000 -0.009634 0.000000 0.000000
# 5 0.000000 0.000000 0.000000 0.000000 0.068830 0.000000
# 6 0.000000 0.000000 0.000000 0.000000 0.000000 0.047760
#
#
# Mechanical properties :
#
#
# Convention : Reuss Voigt Hill
#
# Bulk Modulus (GPa) = 46.98973 50.13741 48.56357
# Shear Modulus (GPa) = 32.58802 4.48063 18.53433
#
# Velocity S-wave (km/s) = 3.98811 1.47879 3.00764
# Velocity P-wave (km/s) = 6.64384 5.23316 5.98024
#
# Compressibility (1/GPa) = 0.02128125
#
# Stress axis : x y z
#
# Youngs Moduli (GPa) = 135.64848 78.02865 98.58435
#
# Poissons Ratio (x) = 0.14592 0.13190
# Poissons Ratio (y) = 0.25367 0.12984
# Poissons Ratio (z) = 0.18149 0.10277
#
# Static dielectric constant tensor:
#      x y z
#    x 3.867950 0.000000 0.000000 
#    y 0.000000 3.757530 0.000000 
#    z 0.000000 0.000000 3.788190 
# 
# 
# High freq. dielectric constant tensor:
#      x y z
#    x 1.812150 0.000000 0.000000 
#    y 0.000000 1.801690 0.000000 
#    z 0.000000 0.000000 1.800250 
# 
# From -- ./inp_files/38597.got.cif
#   From: 2010.03.12/outbox.cif.g09.slc.cpg/sg67_20_cif.got.tgz:38597.got - 2010.04.10 22:41:39.
