data_PCOD8280226
_publ_section_title
;
Structure prediction by ZEFSAII (Michael W. Deem and Ramdas Pophale) SiO2 
 PCOD8280226
Probable space group: C M M A
;
_chemical_formula_sum "Si O2"
_cell_formula_units_Z 96
_cell_length_a 28.377139
_cell_length_b 8.523328
_cell_length_c 20.524796
_cell_angle_alpha 90.000000
_cell_angle_beta 90.000000
_cell_angle_gamma 90.000000
_cell_volume 4964.284450
_symmetry_space_group_name_H-M "C M M A"
_symmetry_group_IT_number 67
_symmetry_cell_setting 'orthorhombic'
loop_
_space_group_symop_operation_xyz
x,y,z
-x,1/2-y,z
x,-y,-z
-x,1/2+y,-z
-x,-y,-z
x,1/2+y,-z
-x,y,z
x,1/2-y,z
1/2+x,1/2+y,z
1/2-x,-y,z
1/2+x,1/2-y,-z
1/2-x,y,-z
1/2-x,1/2-y,-z
1/2+x,y,-z
1/2-x,1/2+y,z
1/2+x,-y,z
loop_
_atom_site_type_symbol
_atom_site_label
_atom_site_fract_x
_atom_site_fract_y
_atom_site_fract_z
Si Si1 0.699723 0.067158 0.430780
Si Si2 0.553131 0.068907 0.109181
Si Si3 0.947642 0.929377 0.752877
Si Si4 0.853421 0.067983 0.313543
Si Si5 0.645125 0.067482 0.932498
Si Si6 0.198541 0.065514 0.810768
O O1 0.705567 0.250000 0.438602
O O2 0.683184 0.000000 0.500000
O O3 0.750000 0.000000 0.408210
O O4 0.660694 0.028494 0.377136
O O5 0.500000 0.022433 0.088706
O O6 0.563906 0.250000 0.093860
O O7 0.560246 0.042540 0.186107
O O8 0.588732 0.960064 0.068571
O O9 0.941055 0.750000 0.777153
O O10 0.908599 0.969291 0.698680
O O11 0.000000 0.954319 0.722873
O O12 0.844465 0.250000 0.327263
O O13 0.822475 0.019174 0.251958
O O14 0.657466 0.250000 0.925972
O O15 0.666992 0.970598 0.873383
O O16 0.665942 0.000000 0.000000
O O17 0.200050 0.250000 0.797912
O O18 0.250000 0.000000 0.825002
#
# Coordination Sequence:
#
# PCOD8280226 Si02
#       6
#    16  16  16  16  16  16
#     4  11  22  38  59  86 121 158 197 240 289 345
#     4  10  20  35  57  85 116 149 188 236 290 347
#     4   9  18  33  56  85 117 153 192 235 284 340
#     4  11  21  36  60  90 122 156 194 237 287 340
#     4  12  25  42  61  83 112 150 192 239 294 352
#     4  12  25  42  62  86 115 148 192 241 290 344
#
# _framework density 19.338134
#
# number of rings (size 3 to 8) (size 9 to 14) (size 15 to 20)
#    0.000    1.167    1.667    6.500    0.000    2.333 
#    0.000    1.667    0.000    0.500    0.000    0.000 
#    0.000    0.000    0.000    0.000    0.000    0.000 
#
# Total GULP energy -595408.911973 kJ/mol
# GULP energy per Si atom -12404.352333 kJ/mol
# Density = 1.929412 g / cm^3
# Si number density = 19.338134 Si / 1000 Ang^3
#
#
#
# Elastic Constant Matrix: (Units=GPa)
#
#
# Indices 1 2 3 4 5 6 
#
# 1 82.5645 19.5433 29.0163 0.0000 0.0000 0.0000
# 2 19.5433 87.4470 14.2873 0.0000 0.0000 0.0000
# 3 29.0163 14.2873 94.0498 0.0000 0.0000 0.0000
# 4 0.0000 0.0000 0.0000 33.0463 0.0000 0.0000
# 5 0.0000 0.0000 0.0000 0.0000 24.8611 0.0000
# 6 0.0000 0.0000 0.0000 0.0000 0.0000 28.0067
#
#
#
# Elastic Compliance Matrix: (Units=1/GPa)
#
#
# Indices 1 2 3 4 5 6 
#
# 1 0.014099 -0.002502 -0.003970 0.000000 0.000000 0.000000
# 2 -0.002502 0.012171 -0.001077 0.000000 0.000000 0.000000
# 3 -0.003970 -0.001077 0.012021 0.000000 0.000000 0.000000
# 4 0.000000 0.000000 0.000000 0.030261 0.000000 0.000000
# 5 0.000000 0.000000 0.000000 0.000000 0.040223 0.000000
# 6 0.000000 0.000000 0.000000 0.000000 0.000000 0.035706
#
#
# Mechanical properties :
#
#
# Convention : Reuss Voigt Hill
#
# Bulk Modulus (GPa) = 43.11663 43.30614 43.21138
# Shear Modulus (GPa) = 29.88472 30.59711 30.24092
#
# Velocity S-wave (km/s) = 3.93539 3.98202 3.95878
# Velocity P-wave (km/s) = 6.55701 6.60188 6.57948
#
# Compressibility (1/GPa) = 0.02319291
#
# Stress axis : x y z
#
# Youngs Moduli (GPa) = 70.92607 82.16459 83.18779
#
# Poissons Ratio (x) = 0.20561 0.33023
# Poissons Ratio (y) = 0.17749 0.08958
# Poissons Ratio (z) = 0.28156 0.08848
#
# Static dielectric constant tensor:
#      x y z
#    x 3.724420 0.000000 0.000000 
#    y 0.000000 3.611250 0.000000 
#    z 0.000000 0.000000 3.391550 
# 
# 
# High freq. dielectric constant tensor:
#      x y z
#    x 1.756110 0.000000 0.000000 
#    y 0.000000 1.766580 0.000000 
#    z 0.000000 0.000000 1.735760 
# 
# From -- ./inp_files/37189.got.cif
#   From: 2010.03.12/outbox.cif.g09.slc.cpg/sg67_19_cif.got.tgz:37189.got - 2010.04.10 22:41:39.
