data_PCOD8280570
_publ_section_title
;
Structure prediction by ZEFSAII (Michael W. Deem and Ramdas Pophale) SiO2 
 PCOD8280570
Probable space group: C M M A
;
_chemical_formula_sum "Si O2"
_cell_formula_units_Z 72
_cell_length_a 9.637511
_cell_length_b 14.870750
_cell_length_c 25.580947
_cell_angle_alpha 90.000000
_cell_angle_beta 90.000000
_cell_angle_gamma 90.000000
_cell_volume 3666.185008
_symmetry_space_group_name_H-M "C M M A"
_symmetry_group_IT_number 67
_symmetry_cell_setting 'orthorhombic'
loop_
_space_group_symop_operation_xyz
x,y,z
-x,1/2-y,z
x,-y,-z
-x,1/2+y,-z
-x,-y,-z
x,1/2+y,-z
-x,y,z
x,1/2-y,z
1/2+x,1/2+y,z
1/2-x,-y,z
1/2+x,1/2-y,-z
1/2-x,y,-z
1/2-x,1/2-y,-z
1/2+x,y,-z
1/2-x,1/2+y,z
1/2+x,-y,z
loop_
_atom_site_type_symbol
_atom_site_label
_atom_site_fract_x
_atom_site_fract_y
_atom_site_fract_z
Si Si1 0.500000 0.750000 0.289117
Si Si2 0.000000 0.111454 0.793185
Si Si3 0.500000 0.404551 0.790424
Si Si4 0.500000 0.750000 0.699809
Si Si5 0.232880 0.750000 0.629914
Si Si6 0.832907 0.250000 0.053527
Si Si7 0.254222 0.103642 0.865321
Si Si8 0.330327 0.090980 0.551952
O O1 0.500000 0.655992 0.259859
O O2 0.637061 0.750000 0.321079
O O3 0.000000 0.164688 0.738597
O O4 0.876397 0.135406 0.832075
O O5 0.000000 0.008602 0.774187
O O6 0.628028 0.376808 0.824594
O O7 0.380348 0.750000 0.656989
O O8 0.200844 0.837926 0.596446
O O9 0.780740 0.338664 0.083200
O O10 0.000000 0.250000 0.045512
O O11 0.750000 0.250000 0.000000
O O12 0.250000 0.000000 0.883508
O O13 0.500000 0.078950 0.544051
O O14 0.250000 0.125307 0.500000
O O15 0.250000 0.000000 0.568659
#
# Coordination Sequence:
#
# PCOD8280570 Si02
#       8
#     4   8   8   4   8   8  16  16
#     4  12  22  40  61  94 127 174 204 262 316 382
#     4  10  22  40  64  95 123 165 219 262 309 364
#     4  10  20  38  68  89 123 167 215 260 307 370
#     4  12  26  38  59  96 135 176 206 262 320 376
#     4  12  27  41  63  95 140 171 211 256 329 385
#     4  12  26  42  63  95 129 167 202 257 325 383
#     4  10  21  41  67  94 122 165 215 262 310 372
#     4  11  24  45  72  98 124 168 218 268 319 382
#
# _framework density 19.638943999999999
#
# number of rings (size 3 to 8) (size 9 to 14) (size 15 to 20)
#    0.000    1.111    2.222    4.333    4.667    2.222 
#    0.000    1.111    0.000    0.000    0.000    0.000 
#    0.000    0.000    0.000    0.000    0.000    0.000 
#
# Total GULP energy -446042.316079 kJ/mol
# GULP energy per Si atom -12390.064336 kJ/mol
# Density = 1.959424 g / cm^3
# Si number density = 19.638944 Si / 1000 Ang^3
#
#
#
# Elastic Constant Matrix: (Units=GPa)
#
#
# Indices 1 2 3 4 5 6 
#
# 1 198.0522 57.8815 80.5282 0.0000 0.0000 0.0000
# 2 57.8815 115.7647 91.4159 0.0000 0.0000 0.0000
# 3 80.5282 91.4159 148.3994 0.0000 0.0000 0.0000
# 4 0.0000 0.0000 0.0000 -8.4115 0.0000 0.0000
# 5 0.0000 0.0000 0.0000 0.0000 57.4333 0.0000
# 6 0.0000 0.0000 0.0000 0.0000 0.0000 23.4904
#
#
#
# Elastic Compliance Matrix: (Units=1/GPa)
#
#
# Indices 1 2 3 4 5 6 
#
# 1 0.006527 -0.000909 -0.002982 0.000000 0.000000 0.000000
# 2 -0.000909 0.016947 -0.009947 0.000000 0.000000 0.000000
# 3 -0.002982 -0.009947 0.014484 0.000000 0.000000 0.000000
# 4 0.000000 0.000000 0.000000 -0.118885 0.000000 0.000000
# 5 0.000000 0.000000 0.000000 0.000000 0.017412 0.000000
# 6 0.000000 0.000000 0.000000 0.000000 0.000000 0.042571
#
#
# Mechanical properties :
#
#
# Convention : Reuss Voigt Hill
#
# Bulk Modulus (GPa) = 97.24256 102.42972 99.83614
# Shear Modulus (GPa) = 492.23268 29.99516 261.11392
#
# Velocity S-wave (km/s) = 15.84882 3.91235 11.54322
# Velocity P-wave (km/s) = 19.60960 8.52516 15.11976
#
# Compressibility (1/GPa) = 0.01028356
#
# Stress axis : x y z
#
# Youngs Moduli (GPa) = 153.20214 59.00774 69.04121
#
# Poissons Ratio (x) = 0.05361 0.20590
# Poissons Ratio (y) = 0.13919 0.68672
# Poissons Ratio (z) = 0.45690 0.58692
#
# Static dielectric constant tensor:
#      x y z
#    x 4.031380 0.000000 0.000000 
#    y 0.000000 3.960880 0.000000 
#    z 0.000000 0.000000 3.549820 
# 
# 
# High freq. dielectric constant tensor:
#      x y z
#    x 1.793980 0.000000 0.000000 
#    y 0.000000 1.779560 0.000000 
#    z 0.000000 0.000000 1.765550 
# 
# From -- ./inp_files/43183.got.cif
#   From: 2010.03.12/outbox.cif.g09.slc.cpg/sg67_22_cif.got.tgz:43183.got - 2010.04.10 22:41:39.
