data_PCOD8280845
_publ_section_title
;
Structure prediction by ZEFSAII (Michael W. Deem and Ramdas Pophale) SiO2 
 PCOD8280845
Probable space group: C M M A
;
_chemical_formula_sum "Si O2"
_cell_formula_units_Z 80
_cell_length_a 18.206109
_cell_length_b 9.954634
_cell_length_c 24.075364
_cell_angle_alpha 90.000000
_cell_angle_beta 90.000000
_cell_angle_gamma 90.000000
_cell_volume 4363.302246
_symmetry_space_group_name_H-M "C M M A"
_symmetry_group_IT_number 67
_symmetry_cell_setting 'orthorhombic'
loop_
_space_group_symop_operation_xyz
x,y,z
-x,1/2-y,z
x,-y,-z
-x,1/2+y,-z
-x,-y,-z
x,1/2+y,-z
-x,y,z
x,1/2-y,z
1/2+x,1/2+y,z
1/2-x,-y,z
1/2+x,1/2-y,-z
1/2-x,y,-z
1/2-x,1/2-y,-z
1/2+x,y,-z
1/2-x,1/2+y,z
1/2+x,-y,z
loop_
_atom_site_type_symbol
_atom_site_label
_atom_site_fract_x
_atom_site_fract_y
_atom_site_fract_z
Si Si1 0.836718 0.480162 0.612527
Si Si2 0.580576 0.909186 0.831941
Si Si3 0.087807 0.900162 0.046470
Si Si4 0.085479 0.250000 0.546962
Si Si5 0.818422 0.095783 0.733187
Si Si6 0.415535 0.750000 0.415462
O O1 0.750000 0.500000 0.601231
O O2 0.872590 0.382775 0.567144
O O3 0.854474 0.415053 0.672425
O O4 0.875608 0.622746 0.610580
O O5 0.500000 0.974365 0.825194
O O6 0.573601 0.750000 0.829313
O O7 0.614536 0.948667 0.892266
O O8 0.628741 0.961885 0.780975
O O9 0.116631 0.750000 0.033372
O O10 0.000000 0.900910 0.046212
O O11 0.120407 0.000000 0.000000
O O12 0.091306 0.250000 0.481256
O O13 0.000000 0.250000 0.566218
O O14 0.796085 0.250000 0.744842
O O15 0.750000 0.000000 0.734726
O O16 0.500000 0.750000 0.396716
#
# Coordination Sequence:
#
# PCOD8280845 Si02
#       6
#    16  16  16   8  16   8
#     4  11  23  39  61  85 111 148 191 229 271 330
#     4   8  15  29  50  77 103 134 179 221 260 316
#     4   8  13  23  42  68 100 133 167 212 262 310
#     4  11  23  41  61  87 115 147 184 223 276 337
#     4  10  21  37  58  79 106 141 180 225 269 320
#     4  11  25  41  59  85 121 147 174 229 288 327
#
# _framework density 18.334738000000002
#
# number of rings (size 3 to 8) (size 9 to 14) (size 15 to 20)
#    0.000    2.400    1.000    3.000    4.200    5.600 
#    0.000    1.000    0.000    1.800    0.000    4.200 
#    0.000    0.000    0.000    0.000    0.000    0.000 
#
# Total GULP energy -495857.562504 kJ/mol
# GULP energy per Si atom -12396.439063 kJ/mol
# Density = 1.829301 g / cm^3
# Si number density = 18.334738 Si / 1000 Ang^3
#
#
#
# Elastic Constant Matrix: (Units=GPa)
#
#
# Indices 1 2 3 4 5 6 
#
# 1 75.7555 34.8831 38.2197 0.0000 0.0000 0.0000
# 2 34.8831 95.8967 26.9655 0.0000 0.0000 0.0000
# 3 38.2197 26.9655 98.2306 0.0000 0.0000 0.0000
# 4 0.0000 0.0000 0.0000 29.1961 0.0000 0.0000
# 5 0.0000 0.0000 0.0000 0.0000 10.7363 0.0000
# 6 0.0000 0.0000 0.0000 0.0000 0.0000 18.8521
#
#
#
# Elastic Compliance Matrix: (Units=1/GPa)
#
#
# Indices 1 2 3 4 5 6 
#
# 1 0.018463 -0.005089 -0.005787 0.000000 0.000000 0.000000
# 2 -0.005089 0.012703 -0.001507 0.000000 0.000000 0.000000
# 3 -0.005787 -0.001507 0.012845 0.000000 0.000000 0.000000
# 4 0.000000 0.000000 0.000000 0.034251 0.000000 0.000000
# 5 0.000000 0.000000 0.000000 0.000000 0.093142 0.000000
# 6 0.000000 0.000000 0.000000 0.000000 0.000000 0.053044
#
#
# Mechanical properties :
#
#
# Convention : Reuss Voigt Hill
#
# Bulk Modulus (GPa) = 51.95914 52.22439 52.09177
# Shear Modulus (GPa) = 19.55956 23.07786 21.31871
#
# Velocity S-wave (km/s) = 3.26974 3.55166 3.41361
# Velocity P-wave (km/s) = 6.53113 6.73533 6.63402
#
# Compressibility (1/GPa) = 0.01924589
#
# Stress axis : x y z
#
# Youngs Moduli (GPa) = 54.16201 78.72287 77.84925
#
# Poissons Ratio (x) = 0.40061 0.45049
# Poissons Ratio (y) = 0.27563 0.11732
# Poissons Ratio (z) = 0.31342 0.11864
#
# Static dielectric constant tensor:
#      x y z
#    x 3.401530 0.000000 0.000000 
#    y 0.000000 3.295980 0.000000 
#    z 0.000000 0.000000 3.905650 
# 
# 
# High freq. dielectric constant tensor:
#      x y z
#    x 1.687180 0.000000 0.000000 
#    y 0.000000 1.701470 0.000000 
#    z 0.000000 0.000000 1.724810 
# 
# From -- ./inp_files/40600.got.cif
#   From: 2010.03.12/outbox.cif.g09.slc.cpg/sg67_21_cif.got.tgz:40600.got - 2010.04.10 22:41:39.
