data_PCOD8280127
_publ_section_title
;
Structure prediction by ZEFSAII (Michael W. Deem and Ramdas Pophale) SiO2 
 PCOD8280127
Probable space group: C M M A
;
_chemical_formula_sum "Si O2"
_cell_formula_units_Z 80
_cell_length_a 8.696846
_cell_length_b 19.064591
_cell_length_c 25.435065
_cell_angle_alpha 90.000000
_cell_angle_beta 90.000000
_cell_angle_gamma 90.000000
_cell_volume 4217.179865
_symmetry_space_group_name_H-M "C M M A"
_symmetry_group_IT_number 67
_symmetry_cell_setting 'orthorhombic'
loop_
_space_group_symop_operation_xyz
x,y,z
-x,1/2-y,z
x,-y,-z
-x,1/2+y,-z
-x,-y,-z
x,1/2+y,-z
-x,y,z
x,1/2-y,z
1/2+x,1/2+y,z
1/2-x,-y,z
1/2+x,1/2-y,-z
1/2-x,y,-z
1/2-x,1/2-y,-z
1/2+x,y,-z
1/2-x,1/2+y,z
1/2+x,-y,z
loop_
_atom_site_type_symbol
_atom_site_label
_atom_site_fract_x
_atom_site_fract_y
_atom_site_fract_z
Si Si1 0.681430 0.829382 0.553646
Si Si2 0.682775 0.925032 0.648662
Si Si3 0.818938 0.074991 0.240554
Si Si4 0.680206 0.573900 0.944620
Si Si5 0.178734 0.168563 0.847097
O O1 0.500000 0.833276 0.549595
O O2 0.740513 0.750000 0.560840
O O3 0.750000 0.861861 0.500000
O O4 0.740871 0.872179 0.603842
O O5 0.500000 0.928687 0.652433
O O6 0.748614 0.899225 0.704313
O O7 0.750000 0.000000 0.633449
O O8 0.780482 0.133631 0.197931
O O9 0.000000 0.066180 0.246451
O O10 0.750000 0.000000 0.223307
O O11 0.500000 0.563606 0.951485
O O12 0.750000 0.500000 0.925645
O O13 0.721281 0.633395 0.902532
O O14 0.750000 0.598267 0.000000
O O15 0.221973 0.250000 0.850851
O O16 0.000000 0.157297 0.833481
#
# Coordination Sequence:
#
# PCOD8280127 Si02
#       5
#    16  16  16  16  16
#     4   9  19  35  54  76 103 138 177 215 260 314
#     4  10  20  35  55  79 107 139 176 219 268 319
#     4  11  22  37  58  82 108 141 182 225 271 322
#     4  10  20  35  57  82 108 142 182 223 267 317
#     4  10  22  39  57  80 112 147 181 221 272 324
#
# _framework density 18.970023999999999
#
# number of rings (size 3 to 8) (size 9 to 14) (size 15 to 20)
#    0.000    2.000    0.000    5.400    0.000    6.800 
#    0.000    4.000    0.000    0.000    0.000    0.000 
#    0.000    0.000    0.000    0.000    0.000    0.000 
#
# Total GULP energy -496129.592428 kJ/mol
# GULP energy per Si atom -12403.239811 kJ/mol
# Density = 1.892685 g / cm^3
# Si number density = 18.970024 Si / 1000 Ang^3
#
#
#
# Elastic Constant Matrix: (Units=GPa)
#
#
# Indices 1 2 3 4 5 6 
#
# 1 92.6462 45.0180 58.3190 0.0000 0.0000 0.0000
# 2 45.0180 114.2921 93.0380 0.0000 0.0000 0.0000
# 3 58.3190 93.0380 151.5956 0.0000 0.0000 0.0000
# 4 0.0000 0.0000 0.0000 25.2586 0.0000 0.0000
# 5 0.0000 0.0000 0.0000 0.0000 34.6953 0.0000
# 6 0.0000 0.0000 0.0000 0.0000 0.0000 24.9739
#
#
#
# Elastic Compliance Matrix: (Units=1/GPa)
#
#
# Indices 1 2 3 4 5 6 
#
# 1 0.014551 -0.002347 -0.004157 0.000000 0.000000 0.000000
# 2 -0.002347 0.017864 -0.010060 0.000000 0.000000 0.000000
# 3 -0.004157 -0.010060 0.014370 0.000000 0.000000 0.000000
# 4 0.000000 0.000000 0.000000 0.039590 0.000000 0.000000
# 5 0.000000 0.000000 0.000000 0.000000 0.028822 0.000000
# 6 0.000000 0.000000 0.000000 0.000000 0.000000 0.040042
#
#
# Mechanical properties :
#
#
# Convention : Reuss Voigt Hill
#
# Bulk Modulus (GPa) = 73.23288 83.47598 78.35443
# Shear Modulus (GPa) = 25.91734 27.79614 26.85674
#
# Velocity S-wave (km/s) = 3.70026 3.83203 3.76672
# Velocity P-wave (km/s) = 7.54614 7.97991 7.76605
#
# Compressibility (1/GPa) = 0.01365507
#
# Stress axis : x y z
#
# Youngs Moduli (GPa) = 68.72247 55.97993 69.58927
#
# Poissons Ratio (x) = 0.13141 0.28930
# Poissons Ratio (y) = 0.16132 0.70009
# Poissons Ratio (z) = 0.28570 0.56317
#
# Static dielectric constant tensor:
#      x y z
#    x 3.477070 0.000000 0.000000 
#    y 0.000000 3.489250 0.000000 
#    z 0.000000 0.000000 3.658720 
# 
# 
# High freq. dielectric constant tensor:
#      x y z
#    x 1.742610 0.000000 0.000000 
#    y 0.000000 1.730850 0.000000 
#    z 0.000000 0.000000 1.749860 
# 
# From -- ./inp_files/43247.got.cif
#   From: 2010.03.12/outbox.cif.g09.slc.cpg/sg67_22_cif.got.tgz:43247.got - 2010.04.10 22:41:39.
