data_PCOD8280222
_publ_section_title
;
Structure prediction by ZEFSAII (Michael W. Deem and Ramdas Pophale) SiO2 
 PCOD8280222
Probable space group: C M M A
;
_chemical_formula_sum "Si O2"
_cell_formula_units_Z 96
_cell_length_a 16.823251
_cell_length_b 21.217578
_cell_length_c 13.473944
_cell_angle_alpha 90.000000
_cell_angle_beta 90.000000
_cell_angle_gamma 90.000000
_cell_volume 4809.505990
_symmetry_space_group_name_H-M "C M M A"
_symmetry_group_IT_number 67
_symmetry_cell_setting 'orthorhombic'
loop_
_space_group_symop_operation_xyz
x,y,z
-x,1/2-y,z
x,-y,-z
-x,1/2+y,-z
-x,-y,-z
x,1/2+y,-z
-x,y,z
x,1/2-y,z
1/2+x,1/2+y,z
1/2-x,-y,z
1/2+x,1/2-y,-z
1/2-x,y,-z
1/2-x,1/2-y,-z
1/2+x,y,-z
1/2-x,1/2+y,z
1/2+x,-y,z
loop_
_atom_site_type_symbol
_atom_site_label
_atom_site_fract_x
_atom_site_fract_y
_atom_site_fract_z
Si Si1 0.750831 0.320463 0.297551
Si Si2 0.094398 0.052138 0.078526
Si Si3 0.671441 0.085875 0.553397
Si Si4 0.910997 0.994068 0.710267
Si Si5 0.911259 0.129574 0.637809
Si Si6 0.185419 0.821221 0.915627
O O1 0.777820 0.250000 0.317293
O O2 0.805776 0.359205 0.371266
O O3 0.656466 0.324718 0.319785
O O4 0.769651 0.340164 0.185346
O O5 0.126019 0.030628 0.186703
O O6 0.122365 0.123904 0.057514
O O7 0.000000 0.052317 0.074162
O O8 0.127389 0.000000 0.000000
O O9 0.750000 0.060836 0.500000
O O10 0.638264 0.027264 0.614700
O O11 0.606205 0.111301 0.476271
O O12 0.000000 0.967307 0.699502
O O13 0.909616 0.069264 0.709919
O O14 0.000000 0.160193 0.642079
O O15 0.146893 0.750000 0.908563
O O16 0.250000 0.820424 0.000000
#
# Coordination Sequence:
#
# PCOD8280222 Si02
#       6
#    16  16  16  16  16  16
#     4  10  22  40  59  82 117 154 196 247 291 341
#     4  10  22  40  64  94 124 152 191 246 302 355
#     4  10  20  35  57  84 115 154 197 241 290 344
#     4  10  20  37  58  84 120 154 188 238 295 350
#     4  10  22  36  56  84 117 156 197 241 293 351
#     4  10  22  42  64  89 119 158 199 239 292 357
#
# _framework density 19.960469
#
# number of rings (size 3 to 8) (size 9 to 14) (size 15 to 20)
#    0.000    2.000    1.667    1.000    2.333   10.000 
#    0.000    0.000    0.000    4.500    0.000    0.000 
#    0.000    0.000    0.000    0.000    0.000    0.000 
#
# Total GULP energy -595045.767965 kJ/mol
# GULP energy per Si atom -12396.786833 kJ/mol
# Density = 1.991504 g / cm^3
# Si number density = 19.960469 Si / 1000 Ang^3
#
#
#
# Elastic Constant Matrix: (Units=GPa)
#
#
# Indices 1 2 3 4 5 6 
#
# 1 48.7376 20.7300 20.4548 0.0000 0.0000 0.0000
# 2 20.7300 91.2900 40.2763 0.0000 0.0000 0.0000
# 3 20.4548 40.2763 106.6742 0.0000 0.0000 0.0000
# 4 0.0000 0.0000 0.0000 33.8612 0.0000 0.0000
# 5 0.0000 0.0000 0.0000 0.0000 23.4394 0.0000
# 6 0.0000 0.0000 0.0000 0.0000 0.0000 30.4862
#
#
#
# Elastic Compliance Matrix: (Units=1/GPa)
#
#
# Indices 1 2 3 4 5 6 
#
# 1 0.023479 -0.004014 -0.002987 0.000000 0.000000 0.000000
# 2 -0.004014 0.013830 -0.004452 0.000000 0.000000 0.000000
# 3 -0.002987 -0.004452 0.011628 0.000000 0.000000 0.000000
# 4 0.000000 0.000000 0.000000 0.029532 0.000000 0.000000
# 5 0.000000 0.000000 0.000000 0.000000 0.042663 0.000000
# 6 0.000000 0.000000 0.000000 0.000000 0.000000 0.032802
#
#
# Mechanical properties :
#
#
# Convention : Reuss Voigt Hill
#
# Bulk Modulus (GPa) = 38.41483 45.51377 41.96430
# Shear Modulus (GPa) = 26.95192 28.57340 27.76266
#
# Velocity S-wave (km/s) = 3.67858 3.78762 3.73350
# Velocity P-wave (km/s) = 6.10982 6.47916 6.29720
#
# Compressibility (1/GPa) = 0.02603162
#
# Stress axis : x y z
#
# Youngs Moduli (GPa) = 42.59174 72.30805 86.00002
#
# Poissons Ratio (x) = 0.29023 0.25684
# Poissons Ratio (y) = 0.17096 0.38287
# Poissons Ratio (z) = 0.12720 0.32191
#
# Static dielectric constant tensor:
#      x y z
#    x 3.552490 0.000000 0.000000 
#    y 0.000000 3.669040 0.000000 
#    z 0.000000 0.000000 3.907080 
# 
# 
# High freq. dielectric constant tensor:
#      x y z
#    x 1.766230 0.000000 0.000000 
#    y 0.000000 1.776630 0.000000 
#    z 0.000000 0.000000 1.791920 
# 
# From -- ./inp_files/19639.got.cif
#   From: 2010.03.12/outbox.cif.g09.slc.cpg/sg67_10_cif.got.tgz:19639.got - 2010.04.10 22:41:39.
