data_PCOD8280711
_publ_section_title
;
Structure prediction by ZEFSAII (Michael W. Deem and Ramdas Pophale) SiO2 
 PCOD8280711
Probable space group: C M M A
;
_chemical_formula_sum "Si O2"
_cell_formula_units_Z 96
_cell_length_a 9.043231
_cell_length_b 18.578227
_cell_length_c 30.158423
_cell_angle_alpha 90.000000
_cell_angle_beta 90.000000
_cell_angle_gamma 90.000000
_cell_volume 5066.832154
_symmetry_space_group_name_H-M "C M M A"
_symmetry_group_IT_number 67
_symmetry_cell_setting 'orthorhombic'
loop_
_space_group_symop_operation_xyz
x,y,z
-x,1/2-y,z
x,-y,-z
-x,1/2+y,-z
-x,-y,-z
x,1/2+y,-z
-x,y,z
x,1/2-y,z
1/2+x,1/2+y,z
1/2-x,-y,z
1/2+x,1/2-y,-z
1/2-x,y,-z
1/2-x,1/2-y,-z
1/2+x,y,-z
1/2-x,1/2+y,z
1/2+x,-y,z
loop_
_atom_site_type_symbol
_atom_site_label
_atom_site_fract_x
_atom_site_fract_y
_atom_site_fract_z
Si Si1 0.825930 0.667748 0.044751
Si Si2 0.672024 0.426707 0.716775
Si Si3 0.827791 0.833088 0.213995
Si Si4 0.831866 0.164712 0.543808
Si Si5 0.825433 0.423297 0.871440
Si Si6 0.827119 0.573475 0.613974
O O1 0.779275 0.750000 0.054741
O O2 0.769324 0.618543 0.085001
O O3 0.000000 0.661285 0.038582
O O4 0.750000 0.639289 0.000000
O O5 0.500000 0.435449 0.726795
O O6 0.750000 0.500000 0.732587
O O7 0.736381 0.359714 0.743693
O O8 0.703956 0.411011 0.665420
O O9 0.790630 0.750000 0.205482
O O10 0.776707 0.876839 0.170867
O O11 0.000000 0.844678 0.223967
O O12 0.827966 0.250000 0.544941
O O13 0.750000 0.135080 0.500000
O O14 0.745343 0.138263 0.587010
O O15 0.000000 0.135998 0.543834
O O16 0.750000 0.500000 0.868732
O O17 0.000000 0.433866 0.872741
O O18 0.750000 0.500000 0.598659
O O19 0.000000 0.568397 0.603536
#
# Coordination Sequence:
#
# PCOD8280711 Si02
#       6
#    16  16  16  16  16  16
#     4   9  18  34  55  77 103 136 174 216 262 313
#     4  10  21  37  57  81 110 143 178 220 269 319
#     4  10  21  37  57  80 107 141 180 221 267 320
#     4  10  21  37  57  81 110 144 182 224 270 320
#     4  10  21  36  54  77 106 140 177 218 265 316
#     4  10  21  37  57  81 110 143 180 222 268 319
#
# _framework density 18.946747999999999
#
# number of rings (size 3 to 8) (size 9 to 14) (size 15 to 20)
#    0.000    2.167    0.000    2.500    0.000    9.333 
#    0.000    6.667    0.000    3.000    0.000    0.000 
#    0.000    0.000    0.000    0.000    0.000    0.000 
#
# Total GULP energy -595428.700160 kJ/mol
# GULP energy per Si atom -12404.764587 kJ/mol
# Density = 1.890362 g / cm^3
# Si number density = 18.946748 Si / 1000 Ang^3
#
#
#
# Elastic Constant Matrix: (Units=GPa)
#
#
# Indices 1 2 3 4 5 6 
#
# 1 88.8030 48.5110 60.9767 0.0000 0.0000 0.0000
# 2 48.5110 101.2035 65.7862 0.0000 0.0000 0.0000
# 3 60.9767 65.7862 117.5066 0.0000 0.0000 0.0000
# 4 0.0000 0.0000 0.0000 38.0452 0.0000 0.0000
# 5 0.0000 0.0000 0.0000 0.0000 34.3607 0.0000
# 6 0.0000 0.0000 0.0000 0.0000 0.0000 35.3628
#
#
#
# Elastic Compliance Matrix: (Units=1/GPa)
#
#
# Indices 1 2 3 4 5 6 
#
# 1 0.018535 -0.004138 -0.007301 0.000000 0.000000 0.000000
# 2 -0.004138 0.016458 -0.007067 0.000000 0.000000 0.000000
# 3 -0.007301 -0.007067 0.016255 0.000000 0.000000 0.000000
# 4 0.000000 0.000000 0.000000 0.026285 0.000000 0.000000
# 5 0.000000 0.000000 0.000000 0.000000 0.029103 0.000000
# 6 0.000000 0.000000 0.000000 0.000000 0.000000 0.028278
#
#
# Mechanical properties :
#
#
# Convention : Reuss Voigt Hill
#
# Bulk Modulus (GPa) = 70.24563 73.11790 71.68176
# Shear Modulus (GPa) = 28.30084 30.36969 29.33527
#
# Velocity S-wave (km/s) = 3.86904 4.00796 3.93911
# Velocity P-wave (km/s) = 7.55745 7.75199 7.65534
#
# Compressibility (1/GPa) = 0.01423576
#
# Stress axis : x y z
#
# Youngs Moduli (GPa) = 53.95159 60.75894 61.51839
#
# Poissons Ratio (x) = 0.25145 0.44917
# Poissons Ratio (y) = 0.22328 0.43473
# Poissons Ratio (z) = 0.39392 0.42937
#
# Static dielectric constant tensor:
#      x y z
#    x 3.505620 0.000000 0.000000 
#    y 0.000000 3.392620 0.000000 
#    z 0.000000 0.000000 3.570230 
# 
# 
# High freq. dielectric constant tensor:
#      x y z
#    x 1.738620 0.000000 0.000000 
#    y 0.000000 1.734030 0.000000 
#    z 0.000000 0.000000 1.746060 
# 
# From -- ./inp_files/43472.got.cif
#   From: 2010.03.12/outbox.cif.g09.slc.cpg/sg67_22_cif.got.tgz:43472.got - 2010.04.10 22:41:39.
