data_PCOD8280259
_publ_section_title
;
Structure prediction by ZEFSAII (Michael W. Deem and Ramdas Pophale) SiO2 
 PCOD8280259
Probable space group: C M M A
;
_chemical_formula_sum "Si O2"
_cell_formula_units_Z 112
_cell_length_a 19.262337
_cell_length_b 25.326161
_cell_length_c 12.414938
_cell_angle_alpha 90.000000
_cell_angle_beta 90.000000
_cell_angle_gamma 90.000000
_cell_volume 6056.516366
_symmetry_space_group_name_H-M "C M M A"
_symmetry_group_IT_number 67
_symmetry_cell_setting 'orthorhombic'
loop_
_space_group_symop_operation_xyz
x,y,z
-x,1/2-y,z
x,-y,-z
-x,1/2+y,-z
-x,-y,-z
x,1/2+y,-z
-x,y,z
x,1/2-y,z
1/2+x,1/2+y,z
1/2-x,-y,z
1/2+x,1/2-y,-z
1/2-x,y,-z
1/2-x,1/2-y,-z
1/2+x,y,-z
1/2-x,1/2+y,z
1/2+x,-y,z
loop_
_atom_site_type_symbol
_atom_site_label
_atom_site_fract_x
_atom_site_fract_y
_atom_site_fract_z
Si Si1 0.670792 0.690833 0.693899
Si Si2 0.671566 0.084308 0.200993
Si Si3 0.670700 0.084968 0.797629
Si Si4 0.923432 0.812374 0.499539
Si Si5 0.668676 0.499996 0.377684
Si Si6 0.674277 0.809442 0.312127
Si Si7 0.076446 0.439107 0.000321
O O1 0.653811 0.750000 0.738090
O O2 0.668214 0.647650 0.787192
O O3 0.614397 0.670825 0.609052
O O4 0.747473 0.691005 0.640197
O O5 0.750649 0.067154 0.171889
O O6 0.647259 0.052265 0.308503
O O7 0.620213 0.073761 0.104564
O O8 0.646615 0.052163 0.691046
O O9 0.668825 0.148261 0.782963
O O10 0.618437 0.075369 0.893645
O O11 0.928605 0.750000 0.504550
O O12 0.877865 0.831870 0.598810
O O13 0.000000 0.838193 0.503946
O O14 0.635101 0.500000 0.500000
O O15 0.750000 0.500000 0.394948
O O16 0.654652 0.750000 0.272027
O O17 0.000000 0.410902 0.998966
O O18 0.062053 0.500000 0.000000
#
# Coordination Sequence:
#
# PCOD8280259 Si02
#       7
#    16  16  16  16  16  16  16
#     4   9  18  32  51  78 109 140 178 224 270 316
#     4  10  20  35  59  82 106 142 182 223 267 320
#     4  10  20  35  59  82 106 142 182 223 267 320
#     4   9  17  29  47  72 105 148 188 218 255 313
#     4   9  18  31  51  82 112 137 172 219 266 315
#     4   9  18  32  51  78 109 140 178 224 270 316
#     4  11  23  39  58  79 108 140 179 228 273 318
#
# _framework density 18.492478999999999
#
# number of rings (size 3 to 8) (size 9 to 14) (size 15 to 20)
#    0.000    2.429    1.429    0.857    2.000    3.429 
#    0.000    0.714    0.000    5.143    0.000    0.000 
#    0.000    0.000    0.000    0.000    0.000    0.000 
#
# Total GULP energy -693800.395661 kJ/mol
# GULP energy per Si atom -12389.292780 kJ/mol
# Density = 1.845039 g / cm^3
# Si number density = 18.492479 Si / 1000 Ang^3
#
#
#
# Elastic Constant Matrix: (Units=GPa)
#
#
# Indices 1 2 3 4 5 6 
#
# 1 96.6023 26.9909 50.7227 0.0000 0.0000 0.0000
# 2 26.9909 99.6230 40.6933 0.0000 0.0000 0.0000
# 3 50.7227 40.6933 116.7232 0.0000 0.0000 0.0000
# 4 0.0000 0.0000 0.0000 19.5104 0.0000 0.0000
# 5 0.0000 0.0000 0.0000 0.0000 384.3568 0.0000
# 6 0.0000 0.0000 0.0000 0.0000 0.0000 15.3671
#
#
#
# Elastic Compliance Matrix: (Units=1/GPa)
#
#
# Indices 1 2 3 4 5 6 
#
# 1 0.013597 -0.001481 -0.005392 0.000000 0.000000 0.000000
# 2 -0.001481 0.011866 -0.003493 0.000000 0.000000 0.000000
# 3 -0.005392 -0.003493 0.012128 0.000000 0.000000 0.000000
# 4 0.000000 0.000000 0.000000 0.051255 0.000000 0.000000
# 5 0.000000 0.000000 0.000000 0.000000 0.002602 0.000000
# 6 0.000000 0.000000 0.000000 0.000000 0.000000 0.065074
#
#
# Mechanical properties :
#
#
# Convention : Reuss Voigt Hill
#
# Bulk Modulus (GPa) = 59.31908 61.08470 60.20189
# Shear Modulus (GPa) = 27.34116 96.81630 62.07873
#
# Velocity S-wave (km/s) = 3.84930 7.24348 5.80022
# Velocity P-wave (km/s) = 7.20439 10.15191 8.80240
#
# Compressibility (1/GPa) = 0.01685798
#
# Stress axis : x y z
#
# Youngs Moduli (GPa) = 73.54652 84.27423 82.45170
#
# Poissons Ratio (x) = 0.12483 0.44459
# Poissons Ratio (y) = 0.10894 0.28802
# Poissons Ratio (z) = 0.39658 0.29439
#
# Static dielectric constant tensor:
#      x y z
#    x 3.684300 0.000000 0.000000 
#    y 0.000000 3.499110 0.000000 
#    z 0.000000 0.000000 3.252760 
# 
# 
# High freq. dielectric constant tensor:
#      x y z
#    x 1.706780 0.000000 0.000000 
#    y 0.000000 1.716970 0.000000 
#    z 0.000000 0.000000 1.694120 
# 
# From -- ./inp_files/21128.got.cif
#   From: 2010.03.12/outbox.cif.g09.slc.cpg/sg67_11_cif.got.tgz:21128.got - 2010.04.10 22:41:39.
