data_PCOD8280430
_publ_section_title
;
Structure prediction by ZEFSAII (Michael W. Deem and Ramdas Pophale) SiO2 
 PCOD8280430
Probable space group: C M M A
;
_chemical_formula_sum "Si O2"
_cell_formula_units_Z 96
_cell_length_a 25.394932
_cell_length_b 18.148559
_cell_length_c 10.250964
_cell_angle_alpha 90.000000
_cell_angle_beta 90.000000
_cell_angle_gamma 90.000000
_cell_volume 4724.478862
_symmetry_space_group_name_H-M "C M M A"
_symmetry_group_IT_number 67
_symmetry_cell_setting 'orthorhombic'
loop_
_space_group_symop_operation_xyz
x,y,z
-x,1/2-y,z
x,-y,-z
-x,1/2+y,-z
-x,-y,-z
x,1/2+y,-z
-x,y,z
x,1/2-y,z
1/2+x,1/2+y,z
1/2-x,-y,z
1/2+x,1/2-y,-z
1/2-x,y,-z
1/2-x,1/2-y,-z
1/2+x,y,-z
1/2-x,1/2+y,z
1/2+x,-y,z
loop_
_atom_site_type_symbol
_atom_site_label
_atom_site_fract_x
_atom_site_fract_y
_atom_site_fract_z
Si Si1 0.894630 0.166611 0.802467
Si Si2 0.558359 0.169708 0.467447
Si Si3 0.439998 0.479424 0.143719
Si Si4 0.615241 0.056044 0.615418
Si Si5 0.213574 0.836284 0.622925
Si Si6 0.721191 0.663236 0.873616
O O1 0.906434 0.250000 0.852189
O O2 0.897037 0.164798 0.644747
O O3 0.938095 0.109559 0.853295
O O4 0.838588 0.136145 0.853877
O O5 0.500000 0.159958 0.405508
O O6 0.562978 0.250000 0.535276
O O7 0.565601 0.105863 0.573397
O O8 0.500000 0.505333 0.168768
O O9 0.400716 0.514518 0.251411
O O10 0.420289 0.500000 0.000000
O O11 0.662953 0.112464 0.631388
O O12 0.629575 0.000000 0.500000
O O13 0.196875 0.750000 0.623400
O O14 0.250000 0.854450 0.500000
O O15 0.246437 0.859787 0.748121
O O16 0.719077 0.750000 0.889668
O O17 0.750000 0.627671 0.000000
#
# Coordination Sequence:
#
# PCOD8280430 Si02
#       6
#    16  16  16  16  16  16
#     4  10  20  38  66  93 120 161 215 259 308 378
#     4  10  20  36  62  94 122 157 213 267 310 371
#     4  11  26  45  63  91 131 169 208 263 328 384
#     4  12  24  39  62  91 127 167 208 255 319 382
#     4  10  22  41  64  90 125 165 208 260 316 370
#     4   9  19  36  61  90 118 154 199 250 303 363
#
# _framework density 20.319701999999999
#
# number of rings (size 3 to 8) (size 9 to 14) (size 15 to 20)
#    0.000    1.667    1.667    2.500    2.333    4.667 
#    0.000    0.833    0.000    2.000    0.000    0.000 
#    0.000    0.000    0.000    0.000    0.000    0.000 
#
# Total GULP energy -594922.910598 kJ/mol
# GULP energy per Si atom -12394.227304 kJ/mol
# Density = 2.027345 g / cm^3
# Si number density = 20.319702 Si / 1000 Ang^3
#
#
#
# Elastic Constant Matrix: (Units=GPa)
#
#
# Indices 1 2 3 4 5 6 
#
# 1 85.9325 29.0805 43.6341 0.0000 0.0000 0.0000
# 2 29.0805 101.3322 41.6776 0.0000 0.0000 0.0000
# 3 43.6341 41.6776 136.8115 0.0000 0.0000 0.0000
# 4 0.0000 0.0000 0.0000 3.8781 0.0000 0.0000
# 5 0.0000 0.0000 0.0000 0.0000 21.9754 0.0000
# 6 0.0000 0.0000 0.0000 0.0000 0.0000 33.8442
#
#
#
# Elastic Compliance Matrix: (Units=1/GPa)
#
#
# Indices 1 2 3 4 5 6 
#
# 1 0.014450 -0.002574 -0.003825 0.000000 0.000000 0.000000
# 2 -0.002574 0.011741 -0.002756 0.000000 0.000000 0.000000
# 3 -0.003825 -0.002756 0.009369 0.000000 0.000000 0.000000
# 4 0.000000 0.000000 0.000000 0.257861 0.000000 0.000000
# 5 0.000000 0.000000 0.000000 0.000000 0.045505 0.000000
# 6 0.000000 0.000000 0.000000 0.000000 0.000000 0.029547
#
#
# Mechanical properties :
#
#
# Convention : Reuss Voigt Hill
#
# Bulk Modulus (GPa) = 57.96765 61.42897 59.69831
# Shear Modulus (GPa) = 12.73784 25.91848 19.32816
#
# Velocity S-wave (km/s) = 2.50646 3.57534 3.08750
# Velocity P-wave (km/s) = 6.07998 6.88047 6.49258
#
# Compressibility (1/GPa) = 0.01725100
#
# Stress axis : x y z
#
# Youngs Moduli (GPa) = 69.20380 85.17453 106.73965
#
# Poissons Ratio (x) = 0.21923 0.40823
# Poissons Ratio (y) = 0.17812 0.29414
# Poissons Ratio (z) = 0.26467 0.23471
#
# Static dielectric constant tensor:
#      x y z
#    x 3.712710 0.000000 0.000000 
#    y 0.000000 3.779560 0.000000 
#    z 0.000000 0.000000 3.762420 
# 
# 
# High freq. dielectric constant tensor:
#      x y z
#    x 1.797480 0.000000 0.000000 
#    y 0.000000 1.792580 0.000000 
#    z 0.000000 0.000000 1.781640 
# 
# From -- ./inp_files/13731.got.cif
#   From: 2010.03.12/outbox.cif.g09.slc.cpg/sg67_7_cif.got.tgz:13731.got - 2010.04.10 22:41:39.
