data_PCOD8280895
_publ_section_title
;
Structure prediction by ZEFSAII (Michael W. Deem and Ramdas Pophale) SiO2 
 PCOD8280895
Probable space group: C M M A
;
_chemical_formula_sum "Si O2"
_cell_formula_units_Z 96
_cell_length_a 8.826372
_cell_length_b 19.506414
_cell_length_c 31.337903
_cell_angle_alpha 90.000000
_cell_angle_beta 90.000000
_cell_angle_gamma 90.000000
_cell_volume 5395.473909
_symmetry_space_group_name_H-M "C M M A"
_symmetry_group_IT_number 67
_symmetry_cell_setting 'orthorhombic'
loop_
_space_group_symop_operation_xyz
x,y,z
-x,1/2-y,z
x,-y,-z
-x,1/2+y,-z
-x,-y,-z
x,1/2+y,-z
-x,y,z
x,1/2-y,z
1/2+x,1/2+y,z
1/2-x,-y,z
1/2+x,1/2-y,-z
1/2-x,y,-z
1/2-x,1/2-y,-z
1/2+x,y,-z
1/2-x,1/2+y,z
1/2+x,-y,z
loop_
_atom_site_type_symbol
_atom_site_label
_atom_site_fract_x
_atom_site_fract_y
_atom_site_fract_z
Si Si1 0.177191 0.426170 0.299682
Si Si2 0.180054 0.924278 0.383845
Si Si3 0.823551 0.170774 0.454577
Si Si4 0.176839 0.073727 0.206088
Si Si5 0.181456 0.673509 0.866187
Si Si6 0.666829 0.168360 0.958971
O O1 0.250000 0.500000 0.295835
O O2 0.262168 0.389391 0.339251
O O3 0.204601 0.392003 0.253105
O O4 0.000000 0.431192 0.310677
O O5 0.235493 0.875790 0.421304
O O6 0.000000 0.929347 0.384270
O O7 0.250000 0.000000 0.389338
O O8 0.801256 0.250000 0.441773
O O9 0.750000 0.155292 0.500000
O O10 0.000000 0.150832 0.455800
O O11 0.246867 0.124000 0.170467
O O12 0.000000 0.063503 0.198516
O O13 0.250000 0.000000 0.201113
O O14 0.241035 0.750000 0.856268
O O15 0.241409 0.648907 0.913019
O O16 0.000000 0.673814 0.866868
O O17 0.500000 0.136922 0.960763
O O18 0.661830 0.250000 0.962326
O O19 0.750000 0.136202 0.000000
#
# Coordination Sequence:
#
# PCOD8280895 Si02
#       6
#    16  16  16  16  16  16
#     4   9  16  28  46  69  95 123 157 195 237 281
#     4  11  21  34  54  78 104 132 166 207 248 288
#     4  10  21  38  58  79 105 136 169 203 242 291
#     4   9  17  29  47  68  90 119 155 191 228 277
#     4   8  14  26  44  65  88 115 148 186 227 272
#     4   8  13  22  38  59  82 108 140 179 222 268
#
# _framework density 17.792691000000001
#
# number of rings (size 3 to 8) (size 9 to 14) (size 15 to 20)
#    0.000    2.833    0.000    4.500    0.000    2.000 
#    0.000    3.333    0.000    5.000    0.000    3.500 
#    0.000    0.000    0.000    0.000    0.000    0.000 
#
# Total GULP energy -594694.745578 kJ/mol
# GULP energy per Si atom -12389.473866 kJ/mol
# Density = 1.775219 g / cm^3
# Si number density = 17.792691 Si / 1000 Ang^3
#
#
#
# Elastic Constant Matrix: (Units=GPa)
#
#
# Indices 1 2 3 4 5 6 
#
# 1 97.9719 33.1280 66.2583 0.0000 0.0000 0.0000
# 2 33.1280 59.2856 70.5721 0.0000 0.0000 0.0000
# 3 66.2583 70.5721 183.6223 0.0000 0.0000 0.0000
# 4 0.0000 0.0000 0.0000 14.3796 0.0000 0.0000
# 5 0.0000 0.0000 0.0000 0.0000 28.5409 0.0000
# 6 0.0000 0.0000 0.0000 0.0000 0.0000 17.4597
#
#
#
# Elastic Compliance Matrix: (Units=1/GPa)
#
#
# Indices 1 2 3 4 5 6 
#
# 1 0.013843 -0.003298 -0.003728 0.000000 0.000000 0.000000
# 2 -0.003298 0.031878 -0.011062 0.000000 0.000000 0.000000
# 3 -0.003728 -0.011062 0.011042 0.000000 0.000000 0.000000
# 4 0.000000 0.000000 0.000000 0.069543 0.000000 0.000000
# 5 0.000000 0.000000 0.000000 0.000000 0.035037 0.000000
# 6 0.000000 0.000000 0.000000 0.000000 0.000000 0.057275
#
#
# Mechanical properties :
#
#
# Convention : Reuss Voigt Hill
#
# Bulk Modulus (GPa) = 48.57016 75.64406 62.10711
# Shear Modulus (GPa) = 19.10902 23.47080 21.28991
#
# Velocity S-wave (km/s) = 3.28072 3.63592 3.46288
# Velocity P-wave (km/s) = 6.45817 7.76099 7.13936
#
# Compressibility (1/GPa) = 0.02058877
#
# Stress axis : x y z
#
# Youngs Moduli (GPa) = 72.23759 31.36958 90.56011
#
# Poissons Ratio (x) = 0.10346 0.33757
# Poissons Ratio (y) = 0.23825 1.00175
# Poissons Ratio (z) = 0.26927 0.34700
#
# Static dielectric constant tensor:
#      x y z
#    x 3.302440 0.000000 0.000000 
#    y 0.000000 2.976390 0.000000 
#    z 0.000000 0.000000 4.153120 
# 
# 
# High freq. dielectric constant tensor:
#      x y z
#    x 1.679230 0.000000 0.000000 
#    y 0.000000 1.639380 0.000000 
#    z 0.000000 0.000000 1.715040 
# 
# From -- ./inp_files/40776.got.cif
#   From: 2010.03.12/outbox.cif.g09.slc.cpg/sg67_21_cif.got.tgz:40776.got - 2010.04.10 22:41:39.
