data_PCOD8280143
_publ_section_title
;
Structure prediction by ZEFSAII (Michael W. Deem and Ramdas Pophale) SiO2 
 PCOD8280143
Probable space group: C M M A
;
_chemical_formula_sum "Si O2"
_cell_formula_units_Z 104
_cell_length_a 8.753567
_cell_length_b 26.445725
_cell_length_c 22.607417
_cell_angle_alpha 90.000000
_cell_angle_beta 90.000000
_cell_angle_gamma 90.000000
_cell_volume 5233.491014
_symmetry_space_group_name_H-M "C M M A"
_symmetry_group_IT_number 67
_symmetry_cell_setting 'orthorhombic'
loop_
_space_group_symop_operation_xyz
x,y,z
-x,1/2-y,z
x,-y,-z
-x,1/2+y,-z
-x,-y,-z
x,1/2+y,-z
-x,y,z
x,1/2-y,z
1/2+x,1/2+y,z
1/2-x,-y,z
1/2+x,1/2-y,-z
1/2-x,y,-z
1/2-x,1/2-y,-z
1/2+x,y,-z
1/2-x,1/2+y,z
1/2+x,-y,z
loop_
_atom_site_type_symbol
_atom_site_label
_atom_site_fract_x
_atom_site_fract_y
_atom_site_fract_z
Si Si1 0.819399 0.750000 0.564491
Si Si2 0.320904 0.900655 0.936882
Si Si3 0.676446 0.148933 0.754869
Si Si4 0.181065 0.052439 0.564252
Si Si5 0.325077 0.306175 0.136308
Si Si6 0.822642 0.550124 0.827175
Si Si7 0.678768 0.845123 0.629823
O O1 0.750000 0.750000 0.500000
O O2 0.768251 0.800740 0.597279
O O3 0.000000 0.750000 0.560059
O O4 0.500000 0.907155 0.942293
O O5 0.272754 0.844490 0.915102
O O6 0.258280 0.940511 0.889804
O O7 0.250000 0.912008 0.000000
O O8 0.500000 0.156432 0.737524
O O9 0.721356 0.188854 0.805421
O O10 0.710796 0.093433 0.779797
O O11 0.781826 0.157816 0.698593
O O12 0.250000 0.063004 0.500000
O O13 0.228097 0.099788 0.605266
O O14 0.000000 0.046600 0.559407
O O15 0.250000 0.000000 0.590567
O O16 0.500000 0.317443 0.154560
O O17 0.304568 0.250000 0.110555
O O18 0.750000 0.500000 0.798894
O O19 0.000000 0.543415 0.839441
O O20 0.500000 0.835918 0.620351
#
# Coordination Sequence:
#
# PCOD8280143 Si02
#       7
#     8  16  16  16  16  16  16
#     4  12  26  44  66  92 124 162 203 250 303 358
#     4  10  20  35  55  81 113 147 188 235 286 344
#     4  10  22  38  57  84 115 148 188 237 287 339
#     4  10  21  37  60  87 116 152 192 237 290 345
#     4   9  19  36  57  79 108 148 187 230 284 341
#     4  10  21  38  59  83 113 150 192 238 292 348
#     4  11  24  41  62  89 121 160 202 245 296 355
#
# _framework density 19.872012999999999
#
# number of rings (size 3 to 8) (size 9 to 14) (size 15 to 20)
#    0.000    1.846    0.000    3.923    1.077    7.692 
#    0.000    4.615    0.000    0.000    0.000    0.000 
#    0.000    0.000    0.000    0.000    0.000    0.000 
#
# Total GULP energy -644955.442073 kJ/mol
# GULP energy per Si atom -12402.989271 kJ/mol
# Density = 1.982678 g / cm^3
# Si number density = 19.872013 Si / 1000 Ang^3
#
#
#
# Elastic Constant Matrix: (Units=GPa)
#
#
# Indices 1 2 3 4 5 6 
#
# 1 97.0540 39.9664 37.8756 0.0000 0.0000 0.0000
# 2 39.9664 98.0696 18.3478 0.0000 0.0000 0.0000
# 3 37.8756 18.3478 87.1041 0.0000 0.0000 0.0000
# 4 0.0000 0.0000 0.0000 13.3583 0.0000 0.0000
# 5 0.0000 0.0000 0.0000 0.0000 30.4549 0.0000
# 6 0.0000 0.0000 0.0000 0.0000 0.0000 32.4501
#
#
#
# Elastic Compliance Matrix: (Units=1/GPa)
#
#
# Indices 1 2 3 4 5 6 
#
# 1 0.014343 -0.004870 -0.005211 0.000000 0.000000 0.000000
# 2 -0.004870 0.012269 -0.000467 0.000000 0.000000 0.000000
# 3 -0.005211 -0.000467 0.013845 0.000000 0.000000 0.000000
# 4 0.000000 0.000000 0.000000 0.074860 0.000000 0.000000
# 5 0.000000 0.000000 0.000000 0.000000 0.032835 0.000000
# 6 0.000000 0.000000 0.000000 0.000000 0.000000 0.030817
#
#
# Mechanical properties :
#
#
# Convention : Reuss Voigt Hill
#
# Bulk Modulus (GPa) = 51.65032 52.73414 52.19223
# Shear Modulus (GPa) = 24.21113 27.65518 25.93316
#
# Velocity S-wave (km/s) = 3.49428 3.73455 3.61641
# Velocity P-wave (km/s) = 6.50599 6.72237 6.61507
#
# Compressibility (1/GPa) = 0.01936096
#
# Stress axis : x y z
#
# Youngs Moduli (GPa) = 69.72252 81.50699 72.23030
#
# Poissons Ratio (x) = 0.39695 0.37637
# Poissons Ratio (y) = 0.33956 0.03371
# Poissons Ratio (z) = 0.36331 0.03803
#
# Static dielectric constant tensor:
#      x y z
#    x 3.720400 0.000000 0.000000 
#    y 0.000000 3.745570 0.000000 
#    z 0.000000 0.000000 3.318090 
# 
# 
# High freq. dielectric constant tensor:
#      x y z
#    x 1.786620 0.000000 0.000000 
#    y 0.000000 1.787430 0.000000 
#    z 0.000000 0.000000 1.766890 
# 
# From -- ./inp_files/37322.got.cif
#   From: 2010.03.12/outbox.cif.g09.slc.cpg/sg67_19_cif.got.tgz:37322.got - 2010.04.10 22:41:39.
