data_PCOD8280557
_publ_section_title
;
Structure prediction by ZEFSAII (Michael W. Deem and Ramdas Pophale) SiO2 
 PCOD8280557
Probable space group: C M M A
;
_chemical_formula_sum "Si O2"
_cell_formula_units_Z 88
_cell_length_a 8.742466
_cell_length_b 16.236337
_cell_length_c 29.396345
_cell_angle_alpha 90.000000
_cell_angle_beta 90.000000
_cell_angle_gamma 90.000000
_cell_volume 4172.682540
_symmetry_space_group_name_H-M "C M M A"
_symmetry_group_IT_number 67
_symmetry_cell_setting 'orthorhombic'
loop_
_space_group_symop_operation_xyz
x,y,z
-x,1/2-y,z
x,-y,-z
-x,1/2+y,-z
-x,-y,-z
x,1/2+y,-z
-x,y,z
x,1/2-y,z
1/2+x,1/2+y,z
1/2-x,-y,z
1/2+x,1/2-y,-z
1/2-x,y,-z
1/2-x,1/2-y,-z
1/2+x,y,-z
1/2-x,1/2+y,z
1/2+x,-y,z
loop_
_atom_site_type_symbol
_atom_site_label
_atom_site_fract_x
_atom_site_fract_y
_atom_site_fract_z
Si Si1 0.327384 0.843088 0.696269
Si Si2 0.320999 0.915941 0.221284
Si Si3 0.181085 0.910864 0.953088
Si Si4 0.182235 0.750000 0.450215
Si Si5 0.819474 0.413316 0.602047
Si Si6 0.826544 0.656255 0.133513
O O1 0.500000 0.865891 0.711479
O O2 0.321404 0.750000 0.677883
O O3 0.217362 0.849487 0.739971
O O4 0.272860 0.901028 0.654918
O O5 0.500000 0.921645 0.213432
O O6 0.244533 0.898187 0.173029
O O7 0.250000 0.000000 0.240310
O O8 0.228123 0.851080 0.912302
O O9 0.000000 0.916468 0.957532
O O10 0.250000 0.000000 0.942524
O O11 0.250000 0.875222 0.000000
O O12 0.250000 0.750000 0.500000
O O13 0.242197 0.833971 0.425892
O O14 0.000000 0.750000 0.451186
O O15 0.750000 0.500000 0.584315
O O16 0.000000 0.418839 0.596642
O O17 0.821402 0.750000 0.149991
O O18 0.000000 0.626922 0.124279
#
# Coordination Sequence:
#
# PCOD8280557 Si02
#       6
#    16  16  16   8  16  16
#     4  10  20  38  63  89 122 163 202 248 308 370
#     4  12  25  40  59  86 120 157 200 249 299 359
#     4  11  22  39  63  89 118 151 192 240 292 352
#     4  10  22  42  64  90 126 168 212 262 321 378
#     4  10  21  39  63  91 125 166 211 260 315 377
#     4  11  24  42  62  85 116 154 195 241 297 358
#
# _framework density 21.089551
#
# number of rings (size 3 to 8) (size 9 to 14) (size 15 to 20)
#    0.000    1.273    0.909    6.000    0.000    7.636 
#    0.000    1.818    0.000    0.000    0.000    0.000 
#    0.000    0.000    0.000    0.000    0.000    0.000 
#
# Total GULP energy -545738.736755 kJ/mol
# GULP energy per Si atom -12403.153108 kJ/mol
# Density = 2.104155 g / cm^3
# Si number density = 21.089551 Si / 1000 Ang^3
#
#
#
# Elastic Constant Matrix: (Units=GPa)
#
#
# Indices 1 2 3 4 5 6 
#
# 1 125.8496 35.3062 43.8022 0.0000 0.0000 0.0000
# 2 35.3062 109.7958 45.7823 0.0000 0.0000 0.0000
# 3 43.8022 45.7823 122.5661 0.0000 0.0000 0.0000
# 4 0.0000 0.0000 0.0000 31.7710 0.0000 0.0000
# 5 0.0000 0.0000 0.0000 0.0000 36.0390 0.0000
# 6 0.0000 0.0000 0.0000 0.0000 0.0000 30.8211
#
#
#
# Elastic Compliance Matrix: (Units=1/GPa)
#
#
# Indices 1 2 3 4 5 6 
#
# 1 0.009405 -0.001922 -0.002643 0.000000 0.000000 0.000000
# 2 -0.001922 0.011181 -0.003489 0.000000 0.000000 0.000000
# 3 -0.002643 -0.003489 0.010407 0.000000 0.000000 0.000000
# 4 0.000000 0.000000 0.000000 0.031475 0.000000 0.000000
# 5 0.000000 0.000000 0.000000 0.000000 0.027748 0.000000
# 6 0.000000 0.000000 0.000000 0.000000 0.000000 0.032445
#
#
# Mechanical properties :
#
#
# Convention : Reuss Voigt Hill
#
# Bulk Modulus (GPa) = 67.18940 67.55478 67.37209
# Shear Modulus (GPa) = 34.78691 35.28095 35.03393
#
# Velocity S-wave (km/s) = 4.06579 4.09456 4.08020
# Velocity P-wave (km/s) = 7.34637 7.37942 7.36291
#
# Compressibility (1/GPa) = 0.01488330
#
# Stress axis : x y z
#
# Youngs Moduli (GPa) = 106.32391 89.43771 96.08993
#
# Poissons Ratio (x) = 0.17192 0.25398
# Poissons Ratio (y) = 0.20438 0.33531
# Poissons Ratio (z) = 0.28103 0.31209
#
# Static dielectric constant tensor:
#      x y z
#    x 3.740720 0.000000 0.000000 
#    y 0.000000 3.881370 0.000000 
#    z 0.000000 0.000000 3.750000 
# 
# 
# High freq. dielectric constant tensor:
#      x y z
#    x 1.822360 0.000000 0.000000 
#    y 0.000000 1.830620 0.000000 
#    z 0.000000 0.000000 1.830410 
# 
# From -- ./inp_files/45272.got.cif
#   From: 2010.03.12/outbox.cif.g09.slc.cpg/sg67_23_cif.got.tgz:45272.got - 2010.04.10 22:41:39.
