data_PCOD8280699
_publ_section_title
;
Structure prediction by ZEFSAII (Michael W. Deem and Ramdas Pophale) SiO2 
 PCOD8280699
Probable space group: C M M A
;
_chemical_formula_sum "Si O2"
_cell_formula_units_Z 72
_cell_length_a 25.225959
_cell_length_b 8.924403
_cell_length_c 19.713973
_cell_angle_alpha 90.000000
_cell_angle_beta 90.000000
_cell_angle_gamma 90.000000
_cell_volume 4438.140191
_symmetry_space_group_name_H-M "C M M A"
_symmetry_group_IT_number 67
_symmetry_cell_setting 'orthorhombic'
loop_
_space_group_symop_operation_xyz
x,y,z
-x,1/2-y,z
x,-y,-z
-x,1/2+y,-z
-x,-y,-z
x,1/2+y,-z
-x,y,z
x,1/2-y,z
1/2+x,1/2+y,z
1/2-x,-y,z
1/2+x,1/2-y,-z
1/2-x,y,-z
1/2-x,1/2-y,-z
1/2+x,y,-z
1/2-x,1/2+y,z
1/2+x,-y,z
loop_
_atom_site_type_symbol
_atom_site_label
_atom_site_fract_x
_atom_site_fract_y
_atom_site_fract_z
Si Si1 0.437276 0.076846 0.785990
Si Si2 0.060424 0.075290 0.064866
Si Si3 0.000000 0.427312 0.426715
Si Si4 0.304225 0.575009 0.570243
Si Si5 0.093030 0.576565 0.345386
O O1 0.500000 0.048998 0.780853
O O2 0.424712 0.250000 0.770024
O O3 0.415465 0.033540 0.861306
O O4 0.406953 0.971231 0.733156
O O5 0.063776 0.250000 0.053442
O O6 0.000000 0.018884 0.066224
O O7 0.090056 0.000000 0.000000
O O8 0.000000 0.500000 0.500000
O O9 0.051942 0.475964 0.386424
O O10 0.000000 0.250000 0.434654
O O11 0.322885 0.500000 0.500000
O O12 0.294754 0.750000 0.557318
O O13 0.250000 0.500000 0.596453
O O14 0.348442 0.546116 0.626691
O O15 0.076846 0.750000 0.352691
#
# Coordination Sequence:
#
# PCOD8280699 Si02
#       5
#    16  16   8  16  16
#     4   9  17  29  44  64  92 128 162 192 231 277
#     4   8  14  24  38  58  85 118 158 194 225 266
#     4  12  24  36  50  68  93 126 159 192 232 280
#     4  10  21  36  54  73  92 117 153 196 241 285
#     4  11  22  34  49  72  97 123 158 196 234 281
#
# _framework density 16.223012000000001
#
# number of rings (size 3 to 8) (size 9 to 14) (size 15 to 20)
#    0.000    2.222    1.111    5.000    0.000    6.222 
#    0.000    2.222    0.000    0.000    0.000    0.000 
#    0.000    0.889    0.000    9.778    0.000    7.556 
#
# Total GULP energy -446265.222183 kJ/mol
# GULP energy per Si atom -12396.256172 kJ/mol
# Density = 1.618609 g / cm^3
# Si number density = 16.223012 Si / 1000 Ang^3
#
#
#
# Elastic Constant Matrix: (Units=GPa)
#
#
# Indices 1 2 3 4 5 6 
#
# 1 58.8365 39.0507 44.3317 0.0000 0.0000 0.0000
# 2 39.0507 96.4139 58.9199 0.0000 0.0000 0.0000
# 3 44.3317 58.9199 141.1378 0.0000 0.0000 0.0000
# 4 0.0000 0.0000 0.0000 33.9022 0.0000 0.0000
# 5 0.0000 0.0000 0.0000 0.0000 12.9898 0.0000
# 6 0.0000 0.0000 0.0000 0.0000 0.0000 19.7502
#
#
#
# Elastic Compliance Matrix: (Units=1/GPa)
#
#
# Indices 1 2 3 4 5 6 
#
# 1 0.025618 -0.007328 -0.004987 0.000000 0.000000 0.000000
# 2 -0.007328 0.016021 -0.004386 0.000000 0.000000 0.000000
# 3 -0.004987 -0.004386 0.010483 0.000000 0.000000 0.000000
# 4 0.000000 0.000000 0.000000 0.029497 0.000000 0.000000
# 5 0.000000 0.000000 0.000000 0.000000 0.076984 0.000000
# 6 0.000000 0.000000 0.000000 0.000000 0.000000 0.050632
#
#
# Mechanical properties :
#
#
# Convention : Reuss Voigt Hill
#
# Bulk Modulus (GPa) = 53.42499 64.55473 58.98986
# Shear Modulus (GPa) = 20.09024 23.60082 21.84553
#
# Velocity S-wave (km/s) = 3.52288 3.81829 3.67355
# Velocity P-wave (km/s) = 7.03922 7.70179 7.37795
#
# Compressibility (1/GPa) = 0.01871783
#
# Stress axis : x y z
#
# Youngs Moduli (GPa) = 39.03507 62.41974 95.39335
#
# Poissons Ratio (x) = 0.45743 0.47577
# Poissons Ratio (y) = 0.28606 0.41841
# Poissons Ratio (z) = 0.19468 0.27379
#
# Static dielectric constant tensor:
#      x y z
#    x 2.854540 0.000000 0.000000 
#    y 0.000000 3.141500 0.000000 
#    z 0.000000 0.000000 3.620710 
# 
# 
# High freq. dielectric constant tensor:
#      x y z
#    x 1.570660 0.000000 0.000000 
#    y 0.000000 1.634600 0.000000 
#    z 0.000000 0.000000 1.636850 
# 
# From -- ./inp_files/36834.got.cif
#   From: 2010.03.12/outbox.cif.g09.slc.cpg/sg67_19_cif.got.tgz:36834.got - 2010.04.10 22:41:39.
