data_PCOD8280317
_publ_section_title
;
Structure prediction by ZEFSAII (Michael W. Deem and Ramdas Pophale) SiO2 
 PCOD8280317
Probable space group: C M M A
;
_chemical_formula_sum "Si O2"
_cell_formula_units_Z 104
_cell_length_a 9.369667
_cell_length_b 26.135437
_cell_length_c 22.231049
_cell_angle_alpha 90.000000
_cell_angle_beta 90.000000
_cell_angle_gamma 90.000000
_cell_volume 5443.946873
_symmetry_space_group_name_H-M "C M M A"
_symmetry_group_IT_number 67
_symmetry_cell_setting 'orthorhombic'
loop_
_space_group_symop_operation_xyz
x,y,z
-x,1/2-y,z
x,-y,-z
-x,1/2+y,-z
-x,-y,-z
x,1/2+y,-z
-x,y,z
x,1/2-y,z
1/2+x,1/2+y,z
1/2-x,-y,z
1/2+x,1/2-y,-z
1/2-x,y,-z
1/2-x,1/2-y,-z
1/2+x,y,-z
1/2-x,1/2+y,z
1/2+x,-y,z
loop_
_atom_site_type_symbol
_atom_site_label
_atom_site_fract_x
_atom_site_fract_y
_atom_site_fract_z
Si Si1 0.842112 0.309261 0.777194
Si Si2 0.170870 0.250000 0.562682
Si Si3 0.333104 0.610533 0.945352
Si Si4 0.668687 0.159861 0.351234
Si Si5 0.833719 0.947867 0.310396
Si Si6 0.162026 0.810289 0.888288
Si Si7 0.662174 0.450436 0.174168
O O1 0.867043 0.250000 0.787438
O O2 0.774517 0.318572 0.711845
O O3 0.729794 0.329837 0.825416
O O4 0.000000 0.336436 0.785365
O O5 0.250000 0.250000 0.500000
O O6 0.224374 0.302220 0.596311
O O7 0.000000 0.250000 0.554446
O O8 0.500000 0.614318 0.960204
O O9 0.257405 0.666180 0.941951
O O10 0.301091 0.587329 0.880007
O O11 0.250000 0.581077 0.000000
O O12 0.500000 0.164131 0.350776
O O13 0.713276 0.099305 0.354923
O O14 0.802743 0.928808 0.241490
O O15 0.000000 0.960319 0.319293
O O16 0.750000 0.000000 0.326610
O O17 0.167303 0.750000 0.895089
O O18 0.000000 0.830666 0.891482
O O19 0.500000 0.467761 0.171526
O O20 0.750000 0.500000 0.160577
#
# Coordination Sequence:
#
# PCOD8280317 Si02
#       7
#    16   8  16  16  16  16  16
#     4   9  15  27  50  77 100 127 167 212 261 321
#     4  10  20  36  56  82 114 152 191 226 267 310
#     4  11  23  38  54  72  95 129 175 221 263 318
#     4   9  16  30  54  79 107 144 185 222 261 317
#     4   9  17  31  52  79 108 137 172 217 266 321
#     4  10  21  35  50  72 102 133 165 210 267 324
#     4   9  19  35  55  78 104 131 164 207 261 319
#
# _framework density 19.103785999999999
#
# number of rings (size 3 to 8) (size 9 to 14) (size 15 to 20)
#    0.000    2.462    0.769    1.846    0.000    5.231 
#    0.000    6.923    0.000    0.462    0.000    3.231 
#    0.000    0.000    0.000    0.000    0.000    0.000 
#
# Total GULP energy -644200.933396 kJ/mol
# GULP energy per Si atom -12388.479488 kJ/mol
# Density = 1.906030 g / cm^3
# Si number density = 19.103786 Si / 1000 Ang^3
#
#
#
# Elastic Constant Matrix: (Units=GPa)
#
#
# Indices 1 2 3 4 5 6 
#
# 1 74.9831 50.2343 44.7183 0.0000 0.0000 0.0000
# 2 50.2343 98.6650 69.2062 0.0000 0.0000 0.0000
# 3 44.7183 69.2062 82.7552 0.0000 0.0000 0.0000
# 4 0.0000 0.0000 0.0000 34.7159 0.0000 0.0000
# 5 0.0000 0.0000 0.0000 0.0000 26.6680 0.0000
# 6 0.0000 0.0000 0.0000 0.0000 0.0000 23.9087
#
#
#
# Elastic Compliance Matrix: (Units=1/GPa)
#
#
# Indices 1 2 3 4 5 6 
#
# 1 0.021377 -0.006728 -0.005925 0.000000 0.000000 0.000000
# 2 -0.006728 0.026634 -0.018637 0.000000 0.000000 0.000000
# 3 -0.005925 -0.018637 0.030872 0.000000 0.000000 0.000000
# 4 0.000000 0.000000 0.000000 0.028805 0.000000 0.000000
# 5 0.000000 0.000000 0.000000 0.000000 0.037498 0.000000
# 6 0.000000 0.000000 0.000000 0.000000 0.000000 0.041826
#
#
# Mechanical properties :
#
#
# Convention : Reuss Voigt Hill
#
# Bulk Modulus (GPa) = 61.34455 64.96899 63.15677
# Shear Modulus (GPa) = 19.60579 23.20814 21.40697
#
# Velocity S-wave (km/s) = 3.20703 3.48924 3.35111
# Velocity P-wave (km/s) = 6.77453 7.09333 6.93577
#
# Compressibility (1/GPa) = 0.01630137
#
# Stress axis : x y z
#
# Youngs Moduli (GPa) = 46.77842 37.54665 32.39220
#
# Poissons Ratio (x) = 0.25261 0.19193
# Poissons Ratio (y) = 0.31472 0.60371
# Poissons Ratio (z) = 0.27717 0.69977
#
# Static dielectric constant tensor:
#      x y z
#    x 3.474250 0.000000 0.000000 
#    y 0.000000 4.062420 0.000000 
#    z 0.000000 0.000000 3.446950 
# 
# 
# High freq. dielectric constant tensor:
#      x y z
#    x 1.724180 0.000000 0.000000 
#    y 0.000000 1.746430 0.000000 
#    z 0.000000 0.000000 1.719200 
# 
# From -- ./inp_files/37342.got.cif
#   From: 2010.03.12/outbox.cif.g09.slc.cpg/sg67_19_cif.got.tgz:37342.got - 2010.04.10 22:41:39.
