data_PCOD8280872
_publ_section_title
;
Structure prediction by ZEFSAII (Michael W. Deem and Ramdas Pophale) SiO2 
 PCOD8280872
Probable space group: C M M A
;
_chemical_formula_sum "Si O2"
_cell_formula_units_Z 72
_cell_length_a 27.386603
_cell_length_b 12.883653
_cell_length_c 8.522340
_cell_angle_alpha 90.000000
_cell_angle_beta 90.000000
_cell_angle_gamma 90.000000
_cell_volume 3007.018098
_symmetry_space_group_name_H-M "C M M A"
_symmetry_group_IT_number 67
_symmetry_cell_setting 'orthorhombic'
loop_
_space_group_symop_operation_xyz
x,y,z
-x,1/2-y,z
x,-y,-z
-x,1/2+y,-z
-x,-y,-z
x,1/2+y,-z
-x,y,z
x,1/2-y,z
1/2+x,1/2+y,z
1/2-x,-y,z
1/2+x,1/2-y,-z
1/2-x,y,-z
1/2-x,1/2-y,-z
1/2+x,y,-z
1/2-x,1/2+y,z
1/2+x,-y,z
loop_
_atom_site_type_symbol
_atom_site_label
_atom_site_fract_x
_atom_site_fract_y
_atom_site_fract_z
Si Si1 0.885437 0.500000 0.500000
Si Si2 0.226960 0.635044 0.657179
Si Si3 0.554003 0.631140 0.269695
Si Si4 0.669208 0.132363 0.241774
Si Si5 0.648390 0.871416 0.097059
O O1 0.923004 0.425942 0.415380
O O2 0.850400 0.429278 0.607249
O O3 0.208846 0.750000 0.606401
O O4 0.250000 0.580352 0.500000
O O5 0.272332 0.635656 0.774226
O O6 0.181602 0.580729 0.755267
O O7 0.500000 0.587700 0.226100
O O8 0.549924 0.750000 0.318272
O O9 0.590891 0.615462 0.125166
O O10 0.648370 0.250000 0.252021
O O11 0.654365 0.077303 0.076271
O O12 0.664297 0.750000 0.087549
#
# Coordination Sequence:
#
# PCOD8280872 Si02
#       5
#     8  16  16  16  16
#     4  12  23  38  61  88 122 160 200 246 304 364
#     4   9  16  30  57  89 120 156 195 237 292 356
#     4  10  22  42  65  87 114 151 198 252 307 362
#     4  10  21  37  59  90 125 160 201 247 299 363
#     4   9  18  36  62  88 118 158 202 251 304 357
#
# _framework density 23.943985999999999
#
# number of rings (size 3 to 8) (size 9 to 14) (size 15 to 20)
#    0.000    2.222    0.000    3.000    0.000    7.111 
#    0.000    8.333    0.000   10.667    0.000    0.000 
#    0.000    3.556    0.000    0.000    0.000    0.000 
#
# Total GULP energy -445985.473124 kJ/mol
# GULP energy per Si atom -12388.485365 kJ/mol
# Density = 2.388949 g / cm^3
# Si number density = 23.943986 Si / 1000 Ang^3
#
#
#
# Elastic Constant Matrix: (Units=GPa)
#
#
# Indices 1 2 3 4 5 6 
#
# 1 183.9027 24.8464 60.6737 0.0000 0.0000 0.0000
# 2 24.8464 40.3256 30.3086 0.0000 0.0000 0.0000
# 3 60.6737 30.3086 152.3738 0.0000 0.0000 0.0000
# 4 0.0000 0.0000 0.0000 41.7102 0.0000 0.0000
# 5 0.0000 0.0000 0.0000 0.0000 29.0208 0.0000
# 6 0.0000 0.0000 0.0000 0.0000 0.0000 25.1105
#
#
#
# Elastic Compliance Matrix: (Units=1/GPa)
#
#
# Indices 1 2 3 4 5 6 
#
# 1 0.006452 -0.002404 -0.002091 0.000000 0.000000 0.000000
# 2 -0.002404 0.030053 -0.005021 0.000000 0.000000 0.000000
# 3 -0.002091 -0.005021 0.008394 0.000000 0.000000 0.000000
# 4 0.000000 0.000000 0.000000 0.023975 0.000000 0.000000
# 5 0.000000 0.000000 0.000000 0.000000 0.034458 0.000000
# 6 0.000000 0.000000 0.000000 0.000000 0.000000 0.039824
#
#
# Mechanical properties :
#
#
# Convention : Reuss Voigt Hill
#
# Bulk Modulus (GPa) = 38.65772 67.58438 53.12105
# Shear Modulus (GPa) = 29.27228 36.55319 32.91273
#
# Velocity S-wave (km/s) = 3.50027 3.91143 3.71154
# Velocity P-wave (km/s) = 5.70227 6.97756 6.37190
#
# Compressibility (1/GPa) = 0.02586806
#
# Stress axis : x y z
#
# Youngs Moduli (GPa) = 154.98254 33.27480 119.13135
#
# Poissons Ratio (x) = 0.07999 0.24911
# Poissons Ratio (y) = 0.37257 0.59811
# Poissons Ratio (z) = 0.32408 0.16706
#
# Static dielectric constant tensor:
#      x y z
#    x 4.450110 0.000000 0.000000 
#    y 0.000000 4.603630 0.000000 
#    z 0.000000 0.000000 4.399710 
# 
# 
# High freq. dielectric constant tensor:
#      x y z
#    x 1.934110 0.000000 0.000000 
#    y 0.000000 1.975520 0.000000 
#    z 0.000000 0.000000 1.952010 
# 
# From -- ./inp_files/13351.got.cif
#   From: 2010.03.12/outbox.cif.g09.slc.cpg/sg67_7_cif.got.tgz:13351.got - 2010.04.10 22:41:39.
