data_PCOD8280620
_publ_section_title
;
Structure prediction by ZEFSAII (Michael W. Deem and Ramdas Pophale) SiO2 
 PCOD8280620
Probable space group: C M M A
;
_chemical_formula_sum "Si O2"
_cell_formula_units_Z 80
_cell_length_a 25.914256
_cell_length_b 9.573944
_cell_length_c 16.666908
_cell_angle_alpha 90.000000
_cell_angle_beta 90.000000
_cell_angle_gamma 90.000000
_cell_volume 4135.087138
_symmetry_space_group_name_H-M "C M M A"
_symmetry_group_IT_number 67
_symmetry_cell_setting 'orthorhombic'
loop_
_space_group_symop_operation_xyz
x,y,z
-x,1/2-y,z
x,-y,-z
-x,1/2+y,-z
-x,-y,-z
x,1/2+y,-z
-x,y,z
x,1/2-y,z
1/2+x,1/2+y,z
1/2-x,-y,z
1/2+x,1/2-y,-z
1/2-x,y,-z
1/2-x,1/2-y,-z
1/2+x,y,-z
1/2-x,1/2+y,z
1/2+x,-y,z
loop_
_atom_site_type_symbol
_atom_site_label
_atom_site_fract_x
_atom_site_fract_y
_atom_site_fract_z
Si Si1 0.703475 0.750000 0.894370
Si Si2 0.404871 0.084666 0.578440
Si Si3 0.824040 0.250000 0.071346
Si Si4 0.798441 0.405373 0.346146
Si Si5 0.441779 0.409396 0.275133
Si Si6 0.847027 0.007537 0.181769
O O1 0.763725 0.750000 0.910118
O O2 0.690896 0.883879 0.841944
O O3 0.669328 0.750000 0.975517
O O4 0.418322 0.250000 0.571857
O O5 0.343884 0.061059 0.591202
O O6 0.422322 0.000000 0.500000
O O7 0.436009 0.016628 0.651610
O O8 0.851754 0.385608 0.107945
O O9 0.777701 0.250000 0.357524
O O10 0.750000 0.500000 0.365813
O O11 0.820885 0.418317 0.257145
O O12 0.500000 0.420306 0.242196
O O13 0.429325 0.250000 0.302863
O O14 0.403938 0.451408 0.202573
#
# Coordination Sequence:
#
# PCOD8280620 Si02
#       6
#     8  16   8  16  16  16
#     4  11  22  36  57  87 120 163 189 229 285 343
#     4  10  22  39  58  86 119 150 189 239 290 343
#     4  11  22  36  57  87 126 153 193 231 285 347
#     4  10  21  34  54  81 114 157 199 235 280 339
#     4  10  22  41  64  86 110 150 198 242 292 342
#     4  11  21  37  57  85 117 155 196 243 284 338
#
# _framework density 19.346629
#
# number of rings (size 3 to 8) (size 9 to 14) (size 15 to 20)
#    0.000    1.600    2.000    3.000    2.800    4.400 
#    0.000    2.000    0.000    3.600    0.000    0.000 
#    0.000    0.000    0.000    0.000    0.000    0.000 
#
# Total GULP energy -496084.932030 kJ/mol
# GULP energy per Si atom -12402.123301 kJ/mol
# Density = 1.930260 g / cm^3
# Si number density = 19.346629 Si / 1000 Ang^3
#
#
#
# Elastic Constant Matrix: (Units=GPa)
#
#
# Indices 1 2 3 4 5 6 
#
# 1 91.0109 41.2560 16.2423 0.0000 0.0000 0.0000
# 2 41.2560 116.2136 23.1279 0.0000 0.0000 0.0000
# 3 16.2423 23.1279 67.5226 0.0000 0.0000 0.0000
# 4 0.0000 0.0000 0.0000 28.8076 0.0000 0.0000
# 5 0.0000 0.0000 0.0000 0.0000 18.5516 0.0000
# 6 0.0000 0.0000 0.0000 0.0000 0.0000 25.7028
#
#
#
# Elastic Compliance Matrix: (Units=1/GPa)
#
#
# Indices 1 2 3 4 5 6 
#
# 1 0.013273 -0.004375 -0.001694 0.000000 0.000000 0.000000
# 2 -0.004375 0.010676 -0.002604 0.000000 0.000000 0.000000
# 3 -0.001694 -0.002604 0.016110 0.000000 0.000000 0.000000
# 4 0.000000 0.000000 0.000000 0.034713 0.000000 0.000000
# 5 0.000000 0.000000 0.000000 0.000000 0.053904 0.000000
# 6 0.000000 0.000000 0.000000 0.000000 0.000000 0.038906
#
#
# Mechanical properties :
#
#
# Convention : Reuss Voigt Hill
#
# Bulk Modulus (GPa) = 44.03025 48.44438 46.23732
# Shear Modulus (GPa) = 25.97405 27.55381 26.76393
#
# Velocity S-wave (km/s) = 3.66807 3.77797 3.72343
# Velocity P-wave (km/s) = 6.38339 6.64269 6.51433
#
# Compressibility (1/GPa) = 0.02271166
#
# Stress axis : x y z
#
# Youngs Moduli (GPa) = 75.33971 93.66605 62.07506
#
# Poissons Ratio (x) = 0.40977 0.10518
# Poissons Ratio (y) = 0.32960 0.16167
# Poissons Ratio (z) = 0.12765 0.24395
#
# Static dielectric constant tensor:
#      x y z
#    x 3.421640 0.000000 0.000000 
#    y 0.000000 3.606450 0.000000 
#    z 0.000000 0.000000 3.500520 
# 
# 
# High freq. dielectric constant tensor:
#      x y z
#    x 1.739780 0.000000 0.000000 
#    y 0.000000 1.773630 0.000000 
#    z 0.000000 0.000000 1.742090 
# 
# From -- ./inp_files/35813.got.cif
#   From: 2010.03.12/outbox.cif.g09.slc.cpg/sg67_18_cif.got.tgz:35813.got - 2010.04.10 22:41:39.
