data_PCOD8280563
_publ_section_title
;
Structure prediction by ZEFSAII (Michael W. Deem and Ramdas Pophale) SiO2 
 PCOD8280563
Probable space group: C M M A
;
_chemical_formula_sum "Si O2"
_cell_formula_units_Z 80
_cell_length_a 10.305928
_cell_length_b 28.308588
_cell_length_c 13.227369
_cell_angle_alpha 90.000000
_cell_angle_beta 90.000000
_cell_angle_gamma 90.000000
_cell_volume 3859.035564
_symmetry_space_group_name_H-M "C M M A"
_symmetry_group_IT_number 67
_symmetry_cell_setting 'orthorhombic'
loop_
_space_group_symop_operation_xyz
x,y,z
-x,1/2-y,z
x,-y,-z
-x,1/2+y,-z
-x,-y,-z
x,1/2+y,-z
-x,y,z
x,1/2-y,z
1/2+x,1/2+y,z
1/2-x,-y,z
1/2+x,1/2-y,-z
1/2-x,y,-z
1/2-x,1/2-y,-z
1/2+x,y,-z
1/2-x,1/2+y,z
1/2+x,-y,z
loop_
_atom_site_type_symbol
_atom_site_label
_atom_site_fract_x
_atom_site_fract_y
_atom_site_fract_z
Si Si1 0.351022 0.133552 0.409395
Si Si2 0.000000 0.306293 0.142526
Si Si3 0.638750 0.549850 0.941384
Si Si4 0.728614 0.306052 0.227163
Si Si5 0.000000 0.193650 0.914746
Si Si6 0.147060 0.037013 0.708463
O O1 0.500000 0.138624 0.448026
O O2 0.250000 0.134707 0.500000
O O3 0.316029 0.176811 0.336666
O O4 0.331856 0.085639 0.348360
O O5 0.127763 0.325207 0.200266
O O6 0.000000 0.250000 0.140085
O O7 0.000000 0.326066 0.028390
O O8 0.500000 0.576505 0.947310
O O9 0.679554 0.543666 0.825906
O O10 0.627471 0.500000 0.000000
O O11 0.750000 0.579879 0.000000
O O12 0.727019 0.250000 0.229335
O O13 0.627945 0.325368 0.142941
O O14 0.000000 0.250000 0.914960
O O15 0.000000 0.017996 0.693775
O O16 0.250000 0.000000 0.662134
#
# Coordination Sequence:
#
# PCOD8280563 Si02
#       6
#    16   8  16  16   8  16
#     4  11  26  45  64  87 121 159 211 272 317 360
#     4   9  18  32  59  97 130 165 205 245 296 372
#     4   9  15  27  53  84 114 149 182 224 287 349
#     4  10  20  38  64  92 129 168 206 253 308 369
#     4   9  16  32  61  91 126 171 205 241 304 370
#     4  10  21  39  63  88 120 155 195 249 305 369
#
# _framework density 20.730568000000002
#
# number of rings (size 3 to 8) (size 9 to 14) (size 15 to 20)
#    0.000    2.200    3.000    0.600    1.400    4.000 
#    0.000    4.000    0.000    0.000    0.000    0.000 
#    0.000    0.000    0.000    0.000    0.000    0.000 
#
# Total GULP energy -495826.753796 kJ/mol
# GULP energy per Si atom -12395.668845 kJ/mol
# Density = 2.068338 g / cm^3
# Si number density = 20.730568 Si / 1000 Ang^3
#
#
#
# Elastic Constant Matrix: (Units=GPa)
#
#
# Indices 1 2 3 4 5 6 
#
# 1 196.5147 34.8260 65.7867 0.0000 0.0000 0.0000
# 2 34.8260 19.2096 22.2373 0.0000 0.0000 0.0000
# 3 65.7867 22.2373 117.6122 0.0000 0.0000 0.0000
# 4 0.0000 0.0000 0.0000 21.0476 0.0000 0.0000
# 5 0.0000 0.0000 0.0000 0.0000 47.1874 0.0000
# 6 0.0000 0.0000 0.0000 0.0000 0.0000 21.5587
#
#
#
# Elastic Compliance Matrix: (Units=1/GPa)
#
#
# Indices 1 2 3 4 5 6 
#
# 1 0.007917 -0.011812 -0.002195 0.000000 0.000000 0.000000
# 2 -0.011812 0.084267 -0.009326 0.000000 0.000000 0.000000
# 3 -0.002195 -0.009326 0.011494 0.000000 0.000000 0.000000
# 4 0.000000 0.000000 0.000000 0.047511 0.000000 0.000000
# 5 0.000000 0.000000 0.000000 0.000000 0.021192 0.000000
# 6 0.000000 0.000000 0.000000 0.000000 0.000000 0.046385
#
#
# Mechanical properties :
#
#
# Convention : Reuss Voigt Hill
#
# Bulk Modulus (GPa) = 17.54003 64.33740 40.93871
# Shear Modulus (GPa) = 17.57874 31.99119 24.78496
#
# Velocity S-wave (km/s) = 2.91514 3.93261 3.46146
# Velocity P-wave (km/s) = 4.45085 7.19187 5.98051
#
# Compressibility (1/GPa) = 0.05701245
#
# Stress axis : x y z
#
# Youngs Moduli (GPa) = 126.31476 11.86704 87.00545
#
# Poissons Ratio (x) = 0.14017 0.19097
# Poissons Ratio (y) = 1.49199 0.81139
# Poissons Ratio (z) = 0.27726 0.11067
#
# Static dielectric constant tensor:
#      x y z
#    x 5.311250 0.000000 0.000000 
#    y 0.000000 3.444860 0.000000 
#    z 0.000000 0.000000 3.681240 
# 
# 
# High freq. dielectric constant tensor:
#      x y z
#    x 1.839020 0.000000 0.000000 
#    y 0.000000 1.782450 0.000000 
#    z 0.000000 0.000000 1.800480 
# 
# From -- ./inp_files/16803.got.cif
#   From: 2010.03.12/outbox.cif.g09.slc.cpg/sg67_9_cif.got.tgz:16803.got - 2010.04.10 22:41:39.
