data_PCOD8280296
_publ_section_title
;
Structure prediction by ZEFSAII (Michael W. Deem and Ramdas Pophale) SiO2 
 PCOD8280296
Probable space group: C M M A
;
_chemical_formula_sum "Si O2"
_cell_formula_units_Z 96
_cell_length_a 14.207039
_cell_length_b 22.519594
_cell_length_c 15.238415
_cell_angle_alpha 90.000000
_cell_angle_beta 90.000000
_cell_angle_gamma 90.000000
_cell_volume 4875.328974
_symmetry_space_group_name_H-M "C M M A"
_symmetry_group_IT_number 67
_symmetry_cell_setting 'orthorhombic'
loop_
_space_group_symop_operation_xyz
x,y,z
-x,1/2-y,z
x,-y,-z
-x,1/2+y,-z
-x,-y,-z
x,1/2+y,-z
-x,y,z
x,1/2-y,z
1/2+x,1/2+y,z
1/2-x,-y,z
1/2+x,1/2-y,-z
1/2-x,y,-z
1/2-x,1/2-y,-z
1/2+x,y,-z
1/2-x,1/2+y,z
1/2+x,-y,z
loop_
_atom_site_type_symbol
_atom_site_label
_atom_site_fract_x
_atom_site_fract_y
_atom_site_fract_z
Si Si1 0.106237 0.815054 0.530007
Si Si2 0.605297 0.481531 0.594778
Si Si3 0.206324 0.679571 0.866757
Si Si4 0.894864 0.679807 0.043234
Si Si5 0.397557 0.887683 0.639019
Si Si6 0.799729 0.871367 0.686178
O O1 0.128095 0.750000 0.488687
O O2 0.126115 0.867476 0.460843
O O3 0.169981 0.822676 0.615501
O O4 0.000000 0.818460 0.563481
O O5 0.648525 0.500000 0.500000
O O6 0.500000 0.453835 0.582071
O O7 0.598444 0.541715 0.649593
O O8 0.669561 0.436080 0.649948
O O9 0.203627 0.750000 0.849363
O O10 0.314164 0.658813 0.888293
O O11 0.163184 0.644528 0.782889
O O12 0.137579 0.660989 0.945784
O O13 0.900028 0.750000 0.047073
O O14 0.000000 0.653264 0.063675
O O15 0.500000 0.860648 0.666644
O O16 0.313105 0.865215 0.699130
#
# Coordination Sequence:
#
# PCOD8280296 Si02
#       6
#    16  16  16  16  16  16
#     4  10  21  35  49  70 103 141 181 224 272 325
#     4  10  20  36  55  74  99 134 185 238 279 321
#     4   9  19  32  48  81 117 140 178 226 266 328
#     4   8  15  32  55  74 105 152 182 207 264 334
#     4  10  22  37  50  69 100 141 186 228 269 322
#     4  12  21  31  54  80 105 139 181 230 283 319
#
# _framework density 19.690978999999999
#
# number of rings (size 3 to 8) (size 9 to 14) (size 15 to 20)
#    0.000    2.167    1.667    3.000    0.000    4.667 
#    0.000    1.667    0.000    0.000    0.000    9.333 
#    0.000   16.000    0.000    0.000    0.000    0.000 
#
# Total GULP energy -594708.914919 kJ/mol
# GULP energy per Si atom -12389.769061 kJ/mol
# Density = 1.964616 g / cm^3
# Si number density = 19.690979 Si / 1000 Ang^3
#
#
#
# Elastic Constant Matrix: (Units=GPa)
#
#
# Indices 1 2 3 4 5 6 
#
# 1 97.8487 18.6330 13.3640 0.0000 0.0000 0.0000
# 2 18.6330 80.4215 32.9992 0.0000 0.0000 0.0000
# 3 13.3640 32.9992 73.7721 0.0000 0.0000 0.0000
# 4 0.0000 0.0000 0.0000 24.0911 0.0000 0.0000
# 5 0.0000 0.0000 0.0000 0.0000 14.1109 0.0000
# 6 0.0000 0.0000 0.0000 0.0000 0.0000 18.6252
#
#
#
# Elastic Compliance Matrix: (Units=1/GPa)
#
#
# Indices 1 2 3 4 5 6 
#
# 1 0.010754 -0.002073 -0.001021 0.000000 0.000000 0.000000
# 2 -0.002073 0.015629 -0.006616 0.000000 0.000000 0.000000
# 3 -0.001021 -0.006616 0.016700 0.000000 0.000000 0.000000
# 4 0.000000 0.000000 0.000000 0.041509 0.000000 0.000000
# 5 0.000000 0.000000 0.000000 0.000000 0.070867 0.000000
# 6 0.000000 0.000000 0.000000 0.000000 0.000000 0.053691
#
#
# Mechanical properties :
#
#
# Convention : Reuss Voigt Hill
#
# Bulk Modulus (GPa) = 42.25817 42.44831 42.35324
# Shear Modulus (GPa) = 21.14553 23.83517 22.49035
#
# Velocity S-wave (km/s) = 3.28055 3.48294 3.38326
# Velocity P-wave (km/s) = 5.98804 6.14643 6.06775
#
# Compressibility (1/GPa) = 0.02366407
#
# Stress axis : x y z
#
# Youngs Moduli (GPa) = 92.98869 63.98229 59.88196
#
# Poissons Ratio (x) = 0.13261 0.06114
# Poissons Ratio (y) = 0.19274 0.39616
# Poissons Ratio (z) = 0.09494 0.42329
#
# Static dielectric constant tensor:
#      x y z
#    x 4.072990 0.000000 0.000000 
#    y 0.000000 3.331810 0.000000 
#    z 0.000000 0.000000 3.226160 
# 
# 
# High freq. dielectric constant tensor:
#      x y z
#    x 1.785790 0.000000 0.000000 
#    y 0.000000 1.739250 0.000000 
#    z 0.000000 0.000000 1.730990 
# 
# From -- ./inp_files/27202.got.cif
#   From: 2010.03.12/outbox.cif.g09.slc.cpg/sg67_14_cif.got.tgz:27202.got - 2010.04.10 22:41:39.
