data_PCOD8281916
_publ_section_title
;
Structure prediction by ZEFSAII (Michael W. Deem and Ramdas Pophale) SiO2 
 PCOD8281916
Probable space group: C C C A
;
_chemical_formula_sum "Si O2"
_cell_formula_units_Z 72
_cell_length_a 5.085161
_cell_length_b 30.115846
_cell_length_c 24.923446
_cell_angle_alpha 90.000000
_cell_angle_beta 90.000000
_cell_angle_gamma 90.000000
_cell_volume 3816.874359
_symmetry_space_group_name_H-M "C C C A"
_symmetry_group_IT_number 68
_space_group.IT_coordinate_system_code '2'
_symmetry_cell_setting 'orthorhombic'
loop_
_space_group_symop_operation_xyz
x,y,z
-x,1/2-y,z
x,1/2-y,1/2-z
-x,y,1/2-z
-x,-y,-z
x,1/2+y,-z
-x,1/2+y,1/2+z
x,-y,1/2+z
1/2+x,1/2+y,z
1/2-x,-y,z
1/2+x,-y,1/2-z
1/2-x,1/2+y,1/2-z
1/2-x,1/2-y,-z
1/2+x,y,-z
1/2-x,y,1/2+z
1/2+x,1/2-y,1/2+z
loop_
_atom_site_type_symbol
_atom_site_label
_atom_site_fract_x
_atom_site_fract_y
_atom_site_fract_z
Si Si1 0.267623 0.447990 0.532429
Si Si2 0.250000 0.000000 0.787177
Si Si3 0.251932 0.270210 0.309511
Si Si4 0.858444 0.413907 0.352858
Si Si5 0.116578 0.371774 0.807823
O O1 0.250000 0.500000 0.545249
O O2 0.474110 0.434693 0.485683
O O3 0.376095 0.421990 0.583937
O O4 0.500000 0.999419 0.750000
O O5 0.258100 0.957196 0.824722
O O6 0.500000 0.250000 0.341265
O O7 0.251338 0.250000 0.250000
O O8 0.259173 0.322992 0.307098
O O9 0.000000 0.250000 0.340288
O O10 0.638420 0.375160 0.346129
O O11 0.143300 0.402976 0.327183
O O12 0.000000 0.386012 0.750000
#
# Coordination Sequence:
#
# PCOD8281916 Si02
#       5
#    16   8  16  16  16
#     4  10  21  40  64  83 107 149 204 268 311 331
#     4  12  24  40  50  74 120 170 196 222 264 338
#     4  10  19  34  54  76 111 155 191 233 277 328
#     4  12  24  38  57  85 118 154 211 237 283 358
#     4  12  23  36  56  86 123 163 191 234 282 343
#
# _framework density 18.863603999999999
#
# number of rings (size 3 to 8) (size 9 to 14) (size 15 to 20)
#    0.000    0.889    3.333    6.667    3.111    0.000 
#    0.000    0.000    0.000    0.000    0.000    0.000 
#    0.000   62.222    0.000    0.000    0.000    0.000 
#
# Total GULP energy -446149.605565 kJ/mol
# GULP energy per Si atom -12393.044599 kJ/mol
# Density = 1.882067 g / cm^3
# Si number density = 18.863604 Si / 1000 Ang^3
#
#
#
# Elastic Constant Matrix: (Units=GPa)
#
#
# Indices 1 2 3 4 5 6 
#
# 1 157.9067 26.7228 33.4413 0.0000 0.0000 0.0000
# 2 26.7228 70.3662 32.9334 0.0000 0.0000 0.0000
# 3 33.4413 32.9334 82.7568 0.0000 0.0000 0.0000
# 4 0.0000 0.0000 0.0000 9.5558 0.0000 0.0000
# 5 0.0000 0.0000 0.0000 0.0000 24.5123 0.0000
# 6 0.0000 0.0000 0.0000 0.0000 0.0000 36.3105
#
#
#
# Elastic Compliance Matrix: (Units=1/GPa)
#
#
# Indices 1 2 3 4 5 6 
#
# 1 0.007080 -0.001659 -0.002201 0.000000 0.000000 0.000000
# 2 -0.001659 0.017853 -0.006434 0.000000 0.000000 0.000000
# 3 -0.002201 -0.006434 0.015533 0.000000 0.000000 0.000000
# 4 0.000000 0.000000 0.000000 0.104649 0.000000 0.000000
# 5 0.000000 0.000000 0.000000 0.000000 0.040796 0.000000
# 6 0.000000 0.000000 0.000000 0.000000 0.000000 0.027540
#
#
# Mechanical properties :
#
#
# Convention : Reuss Voigt Hill
#
# Bulk Modulus (GPa) = 50.30582 55.24719 52.77651
# Shear Modulus (GPa) = 20.77584 28.60453 24.69019
#
# Velocity S-wave (km/s) = 3.32229 3.89831 3.62177
# Velocity P-wave (km/s) = 6.43762 7.04370 6.74747
#
# Compressibility (1/GPa) = 0.01987842
#
# Stress axis : x y z
#
# Youngs Moduli (GPa) = 141.25061 56.01396 64.37712
#
# Poissons Ratio (x) = 0.09290 0.14168
# Poissons Ratio (y) = 0.23428 0.41422
# Poissons Ratio (z) = 0.31086 0.36041
#
# Static dielectric constant tensor:
#      x y z
#    x 2.844390 0.000000 0.000000 
#    y 0.000000 3.398420 0.000000 
#    z 0.000000 0.000000 3.147310 
# 
# 
# High freq. dielectric constant tensor:
#      x y z
#    x 1.770950 0.000000 0.000000 
#    y 0.000000 1.721360 0.000000 
#    z 0.000000 0.000000 1.687510 
# 
# From -- ./inp_files/42242.got.cif
#   From: 2010.03.12/outbox.cif.g09.slc.cpg/sg68_22_cif.got.tgz:42242.got - 2010.04.10 23:14:56.
