data_PCOD8281045
_publ_section_title
;
Structure prediction by ZEFSAII (Michael W. Deem and Ramdas Pophale) SiO2 
 PCOD8281045
Probable space group: C M M A
;
_chemical_formula_sum "Si O2"
_cell_formula_units_Z 88
_cell_length_a 16.199215
_cell_length_b 23.467628
_cell_length_c 10.885661
_cell_angle_alpha 90.000000
_cell_angle_beta 90.000000
_cell_angle_gamma 90.000000
_cell_volume 4138.261878
_symmetry_space_group_name_H-M "C M M A"
_symmetry_group_IT_number 67
_symmetry_cell_setting 'orthorhombic'
loop_
_space_group_symop_operation_xyz
x,y,z
-x,1/2-y,z
x,-y,-z
-x,1/2+y,-z
-x,-y,-z
x,1/2+y,-z
-x,y,z
x,1/2-y,z
1/2+x,1/2+y,z
1/2-x,-y,z
1/2+x,1/2-y,-z
1/2-x,y,-z
1/2-x,1/2-y,-z
1/2+x,y,-z
1/2-x,1/2+y,z
1/2+x,-y,z
loop_
_atom_site_type_symbol
_atom_site_label
_atom_site_fract_x
_atom_site_fract_y
_atom_site_fract_z
Si Si1 0.694001 0.597177 0.243148
Si Si2 0.862836 0.875157 0.146530
Si Si3 0.592033 0.001483 0.137776
Si Si4 0.408394 0.816447 0.609564
Si Si5 0.250000 0.871061 0.500000
Si Si6 0.596218 0.685659 0.107843
O O1 0.766425 0.608940 0.145560
O O2 0.651006 0.536560 0.221877
O O3 0.731657 0.591739 0.379564
O O4 0.632751 0.650928 0.223963
O O5 0.886335 0.829477 0.249352
O O6 0.911456 0.933073 0.180233
O O7 0.886403 0.849741 0.015315
O O8 0.500000 0.975259 0.144002
O O9 0.627075 0.000000 0.000000
O O10 0.500000 0.842200 0.575974
O O11 0.414156 0.750000 0.594911
O O12 0.334471 0.836071 0.520687
O O13 0.500000 0.690354 0.130344
O O14 0.633960 0.750000 0.101102
#
# Coordination Sequence:
#
# PCOD8281045 Si02
#       6
#    16  16  16  16   8  16
#     4  11  24  41  62  90 127 170 216 264 318 380
#     4  11  22  38  62  94 128 163 207 265 332 399
#     4  11  22  38  65  96 128 165 206 262 329 394
#     4  10  21  39  64  90 122 169 219 271 330 390
#     4  10  25  44  63  90 128 174 224 276 316 380
#     4  11  23  38  60  93 130 165 209 268 331 393
#
# _framework density 21.264965
#
# number of rings (size 3 to 8) (size 9 to 14) (size 15 to 20)
#    0.000    1.273    1.818    4.091    0.000    8.727 
#    0.000    9.091    0.000    5.455    0.000    0.000 
#    0.000    0.000    0.000    0.000    0.000    0.000 
#
# Total GULP energy -545486.802229 kJ/mol
# GULP energy per Si atom -12397.427323 kJ/mol
# Density = 2.121657 g / cm^3
# Si number density = 21.264965 Si / 1000 Ang^3
#
#
#
# Elastic Constant Matrix: (Units=GPa)
#
#
# Indices 1 2 3 4 5 6 
#
# 1 121.1752 28.7278 38.0772 0.0000 0.0000 0.0000
# 2 28.7278 105.3925 29.2665 0.0000 0.0000 0.0000
# 3 38.0772 29.2665 85.1405 0.0000 0.0000 0.0000
# 4 0.0000 0.0000 0.0000 20.0980 0.0000 0.0000
# 5 0.0000 0.0000 0.0000 0.0000 27.2316 0.0000
# 6 0.0000 0.0000 0.0000 0.0000 0.0000 34.0304
#
#
#
# Elastic Compliance Matrix: (Units=1/GPa)
#
#
# Indices 1 2 3 4 5 6 
#
# 1 0.009844 -0.001615 -0.003848 0.000000 0.000000 0.000000
# 2 -0.001615 0.010755 -0.002975 0.000000 0.000000 0.000000
# 3 -0.003848 -0.002975 0.014489 0.000000 0.000000 0.000000
# 4 0.000000 0.000000 0.000000 0.049756 0.000000 0.000000
# 5 0.000000 0.000000 0.000000 0.000000 0.036722 0.000000
# 6 0.000000 0.000000 0.000000 0.000000 0.000000 0.029385
#
#
# Mechanical properties :
#
#
# Convention : Reuss Voigt Hill
#
# Bulk Modulus (GPa) = 54.90482 55.98345 55.44413
# Shear Modulus (GPa) = 28.75275 30.64779 29.70027
#
# Velocity S-wave (km/s) = 3.68111 3.80048 3.74127
# Velocity P-wave (km/s) = 6.62894 6.75588 6.69271
#
# Compressibility (1/GPa) = 0.01821334
#
# Stress axis : x y z
#
# Youngs Moduli (GPa) = 101.58043 92.98390 69.02015
#
# Poissons Ratio (x) = 0.15016 0.26556
# Poissons Ratio (y) = 0.16405 0.20530
# Poissons Ratio (z) = 0.39084 0.27659
#
# Static dielectric constant tensor:
#      x y z
#    x 4.436460 0.000000 0.000000 
#    y 0.000000 3.873880 0.000000 
#    z 0.000000 0.000000 3.634740 
# 
# 
# High freq. dielectric constant tensor:
#      x y z
#    x 1.857100 0.000000 0.000000 
#    y 0.000000 1.832870 0.000000 
#    z 0.000000 0.000000 1.814580 
# 
# From -- ./inp_files/18122.got.cif
#   From: 2010.03.12/outbox.cif.g09.slc.cpg/sg67_10_cif.got.tgz:18122.got - 2010.04.10 22:41:39.
