data_PCOD8281428
_publ_section_title
;
Structure prediction by ZEFSAII (Michael W. Deem and Ramdas Pophale) SiO2 
 PCOD8281428
Probable space group: C M M A
;
_chemical_formula_sum "Si O2"
_cell_formula_units_Z 48
_cell_length_a 16.583402
_cell_length_b 26.385007
_cell_length_c 5.040281
_cell_angle_alpha 90.000000
_cell_angle_beta 90.000000
_cell_angle_gamma 90.000000
_cell_volume 2205.390969
_symmetry_space_group_name_H-M "C M M A"
_symmetry_group_IT_number 67
_symmetry_cell_setting 'orthorhombic'
loop_
_space_group_symop_operation_xyz
x,y,z
-x,1/2-y,z
x,-y,-z
-x,1/2+y,-z
-x,-y,-z
x,1/2+y,-z
-x,y,z
x,1/2-y,z
1/2+x,1/2+y,z
1/2-x,-y,z
1/2+x,1/2-y,-z
1/2-x,y,-z
1/2-x,1/2-y,-z
1/2+x,y,-z
1/2-x,1/2+y,z
1/2+x,-y,z
loop_
_atom_site_type_symbol
_atom_site_label
_atom_site_fract_x
_atom_site_fract_y
_atom_site_fract_z
Si Si1 0.337459 0.808521 0.389932
Si Si2 0.904054 0.469868 0.749608
Si Si3 0.592795 0.642159 0.874014
O O1 0.342981 0.750000 0.307156
O O2 0.250000 0.823421 0.500000
O O3 0.400005 0.819288 0.627671
O O4 0.355408 0.840874 0.127436
O O5 0.867154 0.500000 0.500000
O O6 0.874364 0.411941 0.769204
O O7 0.000000 0.470421 0.734303
O O8 0.870940 0.500000 0.000000
O O9 0.500000 0.639217 0.966118
#
# Coordination Sequence:
#
# PCOD8281428 Si02
#       3
#    16  16  16
#     4  11  24  41  59  82 119 164 201 240 303 371
#     4   9  17  31  53  83 117 148 182 230 288 347
#     4  11  22  37  62  92 117 150 202 256 297 343
#
# _framework density 21.764849000000002
#
# number of rings (size 3 to 8) (size 9 to 14) (size 15 to 20)
#    0.000    1.667    0.000    5.000    0.000   12.000 
#    0.000    0.000    0.000   15.000    0.000    0.000 
#    0.000    0.000    0.000    0.000    0.000    0.333 
#
# Total GULP energy -297643.161287 kJ/mol
# GULP energy per Si atom -12401.798387 kJ/mol
# Density = 2.171531 g / cm^3
# Si number density = 21.764849 Si / 1000 Ang^3
#
#
#
# Elastic Constant Matrix: (Units=GPa)
#
#
# Indices 1 2 3 4 5 6 
#
# 1 47.7364 55.4110 33.3814 0.0000 0.0000 0.0000
# 2 55.4110 143.2010 85.5724 0.0000 0.0000 0.0000
# 3 33.3814 85.5724 197.8309 0.0000 0.0000 0.0000
# 4 0.0000 0.0000 0.0000 49.8386 0.0000 0.0000
# 5 0.0000 0.0000 0.0000 0.0000 29.1970 0.0000
# 6 0.0000 0.0000 0.0000 0.0000 0.0000 15.2656
#
#
#
# Elastic Compliance Matrix: (Units=1/GPa)
#
#
# Indices 1 2 3 4 5 6 
#
# 1 0.038030 -0.014674 -0.000070 0.000000 0.000000 0.000000
# 2 -0.014674 0.015079 -0.004047 0.000000 0.000000 0.000000
# 3 -0.000070 -0.004047 0.006817 0.000000 0.000000 0.000000
# 4 0.000000 0.000000 0.000000 0.020065 0.000000 0.000000
# 5 0.000000 0.000000 0.000000 0.000000 0.034250 0.000000
# 6 0.000000 0.000000 0.000000 0.000000 0.000000 0.065507
#
#
# Mechanical properties :
#
#
# Convention : Reuss Voigt Hill
#
# Bulk Modulus (GPa) = 44.75106 81.94422 63.34764
# Shear Modulus (GPa) = 22.24426 33.15384 27.69905
#
# Velocity S-wave (km/s) = 3.20038 3.90715 3.57129
# Velocity P-wave (km/s) = 5.85341 7.62141 6.79516
#
# Compressibility (1/GPa) = 0.02234584
#
# Stress axis : x y z
#
# Youngs Moduli (GPa) = 26.29488 66.31618 146.69287
#
# Poissons Ratio (x) = 0.97312 0.01025
# Poissons Ratio (y) = 0.38585 0.59360
# Poissons Ratio (z) = 0.00184 0.26835
#
# Static dielectric constant tensor:
#      x y z
#    x 3.548680 0.000000 0.000000 
#    y 0.000000 3.684650 0.000000 
#    z 0.000000 0.000000 4.041160 
# 
# 
# High freq. dielectric constant tensor:
#      x y z
#    x 1.820770 0.000000 0.000000 
#    y 0.000000 1.867170 0.000000 
#    z 0.000000 0.000000 1.872460 
# 
# From -- ./inp_files/1153.got.cif
#   From: 2010.03.12/outbox.cif.g09.slc.cpg/sg67_1_cif.got.tgz:1153.got - 2010.04.10 22:41:39.
