data_PCOD8281181
_publ_section_title
;
Structure prediction by ZEFSAII (Michael W. Deem and Ramdas Pophale) SiO2 
 PCOD8281181
Probable space group: C M M A
;
_chemical_formula_sum "Si O2"
_cell_formula_units_Z 52
_cell_length_a 20.721284
_cell_length_b 24.062035
_cell_length_c 5.195127
_cell_angle_alpha 90.000000
_cell_angle_beta 90.000000
_cell_angle_gamma 90.000000
_cell_volume 2590.270897
_symmetry_space_group_name_H-M "C M M A"
_symmetry_group_IT_number 67
_symmetry_cell_setting 'orthorhombic'
loop_
_space_group_symop_operation_xyz
x,y,z
-x,1/2-y,z
x,-y,-z
-x,1/2+y,-z
-x,-y,-z
x,1/2+y,-z
-x,y,z
x,1/2-y,z
1/2+x,1/2+y,z
1/2-x,-y,z
1/2+x,1/2-y,-z
1/2-x,y,-z
1/2-x,1/2-y,-z
1/2+x,y,-z
1/2-x,1/2+y,z
1/2+x,-y,z
loop_
_atom_site_type_symbol
_atom_site_label
_atom_site_fract_x
_atom_site_fract_y
_atom_site_fract_z
Si Si1 0.250000 0.500000 0.500000
Si Si2 0.624763 0.187544 0.448491
Si Si3 0.191792 0.904469 0.184908
Si Si4 0.071887 0.140018 0.034104
O O1 0.203814 0.463176 0.678906
O O2 0.652097 0.250000 0.472100
O O3 0.684072 0.144259 0.400247
O O4 0.585935 0.172198 0.703604
O O5 0.576472 0.183504 0.203470
O O6 0.250000 0.887293 0.000000
O O7 0.125461 0.908564 0.016146
O O8 0.000000 0.114070 0.046060
#
# Coordination Sequence:
#
# PCOD8281181 Si02
#       4
#     4  16  16  16
#     4  12  22  48  72  90 124 178 240 282 348 386
#     4  10  22  39  65 100 136 175 215 261 326 398
#     4  10  24  42  68  97 129 179 225 280 334 396
#     4  10  22  40  64 100 137 175 218 264 326 394
#
# _framework density 20.075118
#
# number of rings (size 3 to 8) (size 9 to 14) (size 15 to 20)
#    1.846    0.000    0.000    4.154    0.000    4.308 
#    0.000    3.077    0.000    5.538    0.000    0.000 
#    0.000    0.000    0.000    0.000    0.000    0.000 
#
# Total GULP energy -322094.134343 kJ/mol
# GULP energy per Si atom -12388.235936 kJ/mol
# Density = 2.002943 g / cm^3
# Si number density = 20.075118 Si / 1000 Ang^3
#
#
#
# Elastic Constant Matrix: (Units=GPa)
#
#
# Indices 1 2 3 4 5 6 
#
# 1 153.0784 77.0509 55.7447 0.0000 0.0000 0.0000
# 2 77.0509 123.5633 50.1307 0.0000 0.0000 0.0000
# 3 55.7447 50.1307 160.4620 0.0000 0.0000 0.0000
# 4 0.0000 0.0000 0.0000 17.4502 0.0000 0.0000
# 5 0.0000 0.0000 0.0000 0.0000 11.5131 0.0000
# 6 0.0000 0.0000 0.0000 0.0000 0.0000 14.4192
#
#
#
# Elastic Compliance Matrix: (Units=1/GPa)
#
#
# Indices 1 2 3 4 5 6 
#
# 1 0.009925 -0.005486 -0.001734 0.000000 0.000000 0.000000
# 2 -0.005486 0.012299 -0.001937 0.000000 0.000000 0.000000
# 3 -0.001734 -0.001937 0.007440 0.000000 0.000000 0.000000
# 4 0.000000 0.000000 0.000000 0.057306 0.000000 0.000000
# 5 0.000000 0.000000 0.000000 0.000000 0.086857 0.000000
# 6 0.000000 0.000000 0.000000 0.000000 0.000000 0.069352
#
#
# Mechanical properties :
#
#
# Convention : Reuss Voigt Hill
#
# Bulk Modulus (GPa) = 88.09812 89.21737 88.65775
# Shear Modulus (GPa) = 18.84825 25.62166 22.23496
#
# Velocity S-wave (km/s) = 3.06745 3.57640 3.33165
# Velocity P-wave (km/s) = 7.51832 7.84808 7.68497
#
# Compressibility (1/GPa) = 0.01135098
#
# Stress axis : x y z
#
# Youngs Moduli (GPa) = 100.75307 81.30452 134.41590
#
# Poissons Ratio (x) = 0.44600 0.23312
# Poissons Ratio (y) = 0.55268 0.26034
# Poissons Ratio (z) = 0.17473 0.15747
#
# Static dielectric constant tensor:
#      x y z
#    x 3.504470 0.000000 0.000000 
#    y 0.000000 3.277480 0.000000 
#    z 0.000000 0.000000 3.825550 
# 
# 
# High freq. dielectric constant tensor:
#      x y z
#    x 1.773170 0.000000 0.000000 
#    y 0.000000 1.748710 0.000000 
#    z 0.000000 0.000000 1.807480 
# 
# From -- ./inp_files/2580.got.cif
#   From: 2010.03.12/outbox.cif.g09.slc.cpg/sg67_2_cif.got.tgz:2580.got - 2010.04.10 22:41:39.
