data_PCOD8281201
_publ_section_title
;
Structure prediction by ZEFSAII (Michael W. Deem and Ramdas Pophale) SiO2 
 PCOD8281201
Probable space group: C M M A
;
_chemical_formula_sum "Si O2"
_cell_formula_units_Z 112
_cell_length_a 14.359663
_cell_length_b 27.938305
_cell_length_c 13.409822
_cell_angle_alpha 90.000000
_cell_angle_beta 90.000000
_cell_angle_gamma 90.000000
_cell_volume 5379.814673
_symmetry_space_group_name_H-M "C M M A"
_symmetry_group_IT_number 67
_symmetry_cell_setting 'orthorhombic'
loop_
_space_group_symop_operation_xyz
x,y,z
-x,1/2-y,z
x,-y,-z
-x,1/2+y,-z
-x,-y,-z
x,1/2+y,-z
-x,y,z
x,1/2-y,z
1/2+x,1/2+y,z
1/2-x,-y,z
1/2+x,1/2-y,-z
1/2-x,y,-z
1/2-x,1/2-y,-z
1/2+x,y,-z
1/2-x,1/2+y,z
1/2+x,-y,z
loop_
_atom_site_type_symbol
_atom_site_label
_atom_site_fract_x
_atom_site_fract_y
_atom_site_fract_z
Si Si1 0.389926 0.537448 0.275724
Si Si2 0.253944 0.697742 0.882311
Si Si3 0.607770 0.805401 0.277842
Si Si4 0.350998 0.453387 0.953532
Si Si5 0.775955 0.884142 0.614726
Si Si6 0.900975 0.379410 0.899783
Si Si7 0.396642 0.070030 0.293185
O O1 0.500000 0.545626 0.271559
O O2 0.348285 0.547394 0.166024
O O3 0.344717 0.572650 0.356244
O O4 0.364536 0.484320 0.313749
O O5 0.289083 0.750000 0.845110
O O6 0.153160 0.687325 0.832305
O O7 0.325540 0.656578 0.854708
O O8 0.250000 0.697715 0.000000
O O9 0.500000 0.823323 0.275134
O O10 0.611056 0.750000 0.310854
O O11 0.671838 0.835038 0.355009
O O12 0.405011 0.500000 0.000000
O O13 0.250000 0.455077 0.000000
O O14 0.390557 0.401984 0.989781
O O15 0.750000 0.883285 0.500000
O O16 0.675801 0.891215 0.665891
O O17 0.900998 0.424893 0.826163
O O18 0.000000 0.352024 0.896940
O O19 0.500000 0.079536 0.339340
#
# Coordination Sequence:
#
# PCOD8281201 Si02
#       7
#    16  16  16  16  16  16  16
#     4  11  24  41  63  95 134 179 227 272 323 387
#     4  10  22  40  62  93 134 173 211 257 317 393
#     4  10  23  46  74 101 130 167 215 274 335 396
#     4  11  22  34  58  91 131 176 223 266 317 375
#     4  12  26  44  68  94 126 165 220 278 342 397
#     4  11  21  35  58  90 129 173 215 261 318 379
#     4  10  22  40  62  90 132 173 217 269 321 384
#
# _framework density 20.818560000000002
#
# number of rings (size 3 to 8) (size 9 to 14) (size 15 to 20)
#    0.000    1.286    2.857    2.571    4.000    4.000 
#    0.000    2.857    0.000    0.429    0.000    0.000 
#    0.000    0.000    0.000    0.000    0.000    0.000 
#
# Total GULP energy -693899.197044 kJ/mol
# GULP energy per Si atom -12391.057090 kJ/mol
# Density = 2.077118 g / cm^3
# Si number density = 20.818560 Si / 1000 Ang^3
#
#
#
# Elastic Constant Matrix: (Units=GPa)
#
#
# Indices 1 2 3 4 5 6 
#
# 1 152.4845 64.8462 51.9858 0.0000 0.0000 0.0000
# 2 64.8462 114.6398 38.7815 0.0000 0.0000 0.0000
# 3 51.9858 38.7815 119.0045 0.0000 0.0000 0.0000
# 4 0.0000 0.0000 0.0000 8.0687 0.0000 0.0000
# 5 0.0000 0.0000 0.0000 0.0000 -102.8091 0.0000
# 6 0.0000 0.0000 0.0000 0.0000 0.0000 41.7355
#
#
#
# Elastic Compliance Matrix: (Units=1/GPa)
#
#
# Indices 1 2 3 4 5 6 
#
# 1 0.009322 -0.004378 -0.002645 0.000000 0.000000 0.000000
# 2 -0.004378 0.011860 -0.001952 0.000000 0.000000 0.000000
# 3 -0.002645 -0.001952 0.010195 0.000000 0.000000 0.000000
# 4 0.000000 0.000000 0.000000 0.123936 0.000000 0.000000
# 5 0.000000 0.000000 0.000000 0.000000 -0.009727 0.000000
# 6 0.000000 0.000000 0.000000 0.000000 0.000000 0.023960
#
#
# Mechanical properties :
#
#
# Convention : Reuss Voigt Hill
#
# Bulk Modulus (GPa) = 74.48840 77.48397 75.98618
# Shear Modulus (GPa) = 26.04536 4.76670 15.40603
#
# Velocity S-wave (km/s) = 3.54088 1.51480 2.72327
# Velocity P-wave (km/s) = 7.25083 6.35287 6.81665
#
# Compressibility (1/GPa) = 0.01342491
#
# Stress axis : x y z
#
# Youngs Moduli (GPa) = 107.27652 84.31798 98.08799
#
# Poissons Ratio (x) = 0.36914 0.25948
# Poissons Ratio (y) = 0.46965 0.19151
# Poissons Ratio (z) = 0.28379 0.16463
#
# Static dielectric constant tensor:
#      x y z
#    x 3.891900 0.000000 0.000000 
#    y 0.000000 4.339770 0.000000 
#    z 0.000000 0.000000 3.512680 
# 
# 
# High freq. dielectric constant tensor:
#      x y z
#    x 1.828300 0.000000 0.000000 
#    y 0.000000 1.816810 0.000000 
#    z 0.000000 0.000000 1.786470 
# 
# From -- ./inp_files/18561.got.cif
#   From: 2010.03.12/outbox.cif.g09.slc.cpg/sg67_10_cif.got.tgz:18561.got - 2010.04.10 22:41:39.
