data_PCOD8281979
_publ_section_title
;
Structure prediction by ZEFSAII (Michael W. Deem and Ramdas Pophale) SiO2 
 PCOD8281979
Probable space group: C C C A
;
_chemical_formula_sum "Si O2"
_cell_formula_units_Z 96
_cell_length_a 17.132619
_cell_length_b 9.077137
_cell_length_c 29.975735
_cell_angle_alpha 90.000000
_cell_angle_beta 90.000000
_cell_angle_gamma 90.000000
_cell_volume 4661.680320
_symmetry_space_group_name_H-M "C C C A"
_symmetry_group_IT_number 68
_space_group.IT_coordinate_system_code '2'
_symmetry_cell_setting 'orthorhombic'
loop_
_space_group_symop_operation_xyz
x,y,z
-x,1/2-y,z
x,1/2-y,1/2-z
-x,y,1/2-z
-x,-y,-z
x,1/2+y,-z
-x,1/2+y,1/2+z
x,-y,1/2+z
1/2+x,1/2+y,z
1/2-x,-y,z
1/2+x,-y,1/2-z
1/2-x,1/2+y,1/2-z
1/2-x,1/2-y,-z
1/2+x,y,-z
1/2-x,y,1/2+z
1/2+x,1/2-y,1/2+z
loop_
_atom_site_type_symbol
_atom_site_label
_atom_site_fract_x
_atom_site_fract_y
_atom_site_fract_z
Si Si1 0.171316 0.920535 0.531553
Si Si2 0.585894 0.209285 0.469672
Si Si3 0.671755 0.086965 0.867157
Si Si4 0.915983 0.801195 0.368632
Si Si5 0.341094 0.847008 0.790295
Si Si6 0.839185 0.827920 0.707344
O O1 0.152610 0.785735 0.499108
O O2 0.183356 0.859329 0.581863
O O3 0.250000 0.000000 0.515384
O O4 0.099087 0.034313 0.527989
O O5 0.500000 0.250000 0.487776
O O6 0.595623 0.261391 0.418519
O O7 0.651444 0.228185 0.836893
O O8 0.750000 0.000000 0.850894
O O9 0.597060 0.977354 0.865890
O O10 0.850369 0.730636 0.337756
O O11 0.000000 0.750000 0.350235
O O12 0.379906 0.750000 0.750000
O O13 0.250139 0.857901 0.780927
O O14 0.378995 0.010423 0.795673
O O15 0.878966 0.750000 0.750000
#
# Coordination Sequence:
#
# PCOD8281979 Si02
#       6
#    16  16  16  16  16  16
#     4  10  21  36  57  84 115 151 191 246 295 334
#     4  10  21  38  57  81 114 154 195 234 290 357
#     4  10  19  36  58  82 116 149 192 241 287 340
#     4  10  21  37  56  80 114 154 189 232 290 349
#     4  10  20  35  56  84 113 146 189 235 288 345
#     4  10  20  33  58  86 110 145 189 239 285 337
#
# _framework density 20.593433000000001
#
# number of rings (size 3 to 8) (size 9 to 14) (size 15 to 20)
#    0.000    2.000    1.667    2.000    2.333    1.667 
#    3.000    0.833    0.000    1.000    0.000    0.000 
#    0.000    0.000    0.000    0.000    0.000    0.000 
#
# Total GULP energy -595012.509088 kJ/mol
# GULP energy per Si atom -12396.093939 kJ/mol
# Density = 2.054656 g / cm^3
# Si number density = 20.593433 Si / 1000 Ang^3
#
#
#
# Elastic Constant Matrix: (Units=GPa)
#
#
# Indices 1 2 3 4 5 6 
#
# 1 47.7921 15.8448 14.7941 0.0000 0.0000 0.0000
# 2 15.8448 127.5195 63.0577 0.0000 0.0000 0.0000
# 3 14.7941 63.0577 109.3110 0.0000 0.0000 0.0000
# 4 0.0000 0.0000 0.0000 34.5619 0.0000 0.0000
# 5 0.0000 0.0000 0.0000 0.0000 16.0451 0.0000
# 6 0.0000 0.0000 0.0000 0.0000 0.0000 25.5000
#
#
#
# Elastic Compliance Matrix: (Units=1/GPa)
#
#
# Indices 1 2 3 4 5 6 
#
# 1 0.022122 -0.001774 -0.001970 0.000000 0.000000 0.000000
# 2 -0.001774 0.011114 -0.006171 0.000000 0.000000 0.000000
# 3 -0.001970 -0.006171 0.012975 0.000000 0.000000 0.000000
# 4 0.000000 0.000000 0.000000 0.028934 0.000000 0.000000
# 5 0.000000 0.000000 0.000000 0.000000 0.062324 0.000000
# 6 0.000000 0.000000 0.000000 0.000000 0.000000 0.039216
#
#
# Mechanical properties :
#
#
# Convention : Reuss Voigt Hill
#
# Bulk Modulus (GPa) = 37.90886 52.44621 45.17754
# Shear Modulus (GPa) = 24.35349 27.94982 26.15166
#
# Velocity S-wave (km/s) = 3.44260 3.68804 3.56744
# Velocity P-wave (km/s) = 5.85237 6.60744 6.24133
#
# Compressibility (1/GPa) = 0.02637905
#
# Stress axis : x y z
#
# Youngs Moduli (GPa) = 45.20353 89.97655 77.07257
#
# Poissons Ratio (x) = 0.15966 0.15186
# Poissons Ratio (y) = 0.08021 0.47562
# Poissons Ratio (z) = 0.08907 0.55526
#
# Static dielectric constant tensor:
#      x y z
#    x 3.463230 0.000000 0.000000 
#    y 0.000000 3.886910 0.000000 
#    z 0.000000 0.000000 3.681880 
# 
# 
# High freq. dielectric constant tensor:
#      x y z
#    x 1.773910 0.000000 0.000000 
#    y 0.000000 1.804090 0.000000 
#    z 0.000000 0.000000 1.809330 
# 
# From -- ./inp_files/51724.got.cif
#   From: 2010.03.12/outbox.cif.g09.slc.cpg/sg68_26_cif.got.tgz:51724.got - 2010.04.10 23:14:56.
