data_PCOD8281286
_publ_section_title
;
Structure prediction by ZEFSAII (Michael W. Deem and Ramdas Pophale) SiO2 
 PCOD8281286
Probable space group: C M M A
;
_chemical_formula_sum "Si O2"
_cell_formula_units_Z 64
_cell_length_a 24.416370
_cell_length_b 9.921918
_cell_length_c 12.680571
_cell_angle_alpha 90.000000
_cell_angle_beta 90.000000
_cell_angle_gamma 90.000000
_cell_volume 3071.959891
_symmetry_space_group_name_H-M "C M M A"
_symmetry_group_IT_number 67
_symmetry_cell_setting 'orthorhombic'
loop_
_space_group_symop_operation_xyz
x,y,z
-x,1/2-y,z
x,-y,-z
-x,1/2+y,-z
-x,-y,-z
x,1/2+y,-z
-x,y,z
x,1/2-y,z
1/2+x,1/2+y,z
1/2-x,-y,z
1/2+x,1/2-y,-z
1/2-x,y,-z
1/2-x,1/2-y,-z
1/2+x,y,-z
1/2-x,1/2+y,z
1/2+x,-y,z
loop_
_atom_site_type_symbol
_atom_site_label
_atom_site_fract_x
_atom_site_fract_y
_atom_site_fract_z
Si Si1 0.348389 0.406162 0.101216
Si Si2 0.736089 0.250000 0.378877
Si Si3 0.063460 0.250000 0.363192
Si Si4 0.891366 0.750000 0.410767
Si Si5 0.936958 0.967968 0.265564
Si Si6 0.250000 0.000000 0.753772
O O1 0.337088 0.250000 0.070019
O O2 0.405198 0.416283 0.163192
O O3 0.300790 0.462976 0.174096
O O4 0.351706 0.500000 0.000000
O O5 0.750000 0.250000 0.500000
O O6 0.670466 0.250000 0.366767
O O7 0.764200 0.376941 0.323075
O O8 0.104134 0.250000 0.463062
O O9 0.076570 0.377277 0.290114
O O10 0.000000 0.250000 0.401690
O O11 0.921075 0.883157 0.368664
O O12 0.000000 0.946033 0.238688
#
# Coordination Sequence:
#
# PCOD8281286 Si02
#       6
#    16   8   8   8  16   8
#     4  12  28  48  72 104 129 178 234 286 348 407
#     4  12  28  42  69 108 141 183 227 271 345 400
#     4  10  24  38  64 104 135 182 228 264 328 407
#     4  12  22  44  66 101 136 187 229 272 336 412
#     4  11  23  44  69 100 142 179 222 283 340 407
#     4  12  24  50  68  98 142 176 228 278 332 416
#
# _framework density 20.833607000000001
#
# number of rings (size 3 to 8) (size 9 to 14) (size 15 to 20)
#    0.000    0.500    5.000    2.625    7.000    5.500 
#    0.000    0.000    0.000    0.000    0.000    0.000 
#    0.000    0.000    0.000    0.000    0.000    0.000 
#
# Total GULP energy -396995.722728 kJ/mol
# GULP energy per Si atom -12406.116335 kJ/mol
# Density = 2.078619 g / cm^3
# Si number density = 20.833607 Si / 1000 Ang^3
#
#
#
# Elastic Constant Matrix: (Units=GPa)
#
#
# Indices 1 2 3 4 5 6 
#
# 1 101.9498 52.1328 43.9739 0.0000 0.0000 0.0000
# 2 52.1328 169.8698 52.7048 0.0000 0.0000 0.0000
# 3 43.9739 52.7048 122.4125 0.0000 0.0000 0.0000
# 4 0.0000 0.0000 0.0000 40.9671 0.0000 0.0000
# 5 0.0000 0.0000 0.0000 0.0000 7.6314 0.0000
# 6 0.0000 0.0000 0.0000 0.0000 0.0000 32.2122
#
#
#
# Elastic Compliance Matrix: (Units=1/GPa)
#
#
# Indices 1 2 3 4 5 6 
#
# 1 0.012712 -0.002868 -0.003332 0.000000 0.000000 0.000000
# 2 -0.002868 0.007441 -0.002174 0.000000 0.000000 0.000000
# 3 -0.003332 -0.002174 0.010302 0.000000 0.000000 0.000000
# 4 0.000000 0.000000 0.000000 0.024410 0.000000 0.000000
# 5 0.000000 0.000000 0.000000 0.000000 0.131037 0.000000
# 6 0.000000 0.000000 0.000000 0.000000 0.000000 0.031044
#
#
# Mechanical properties :
#
#
# Convention : Reuss Voigt Hill
#
# Bulk Modulus (GPa) = 72.94495 76.87280 74.90887
# Shear Modulus (GPa) = 20.98520 32.52351 26.75435
#
# Velocity S-wave (km/s) = 3.17720 3.95537 3.58745
# Velocity P-wave (km/s) = 6.96768 7.60516 7.29339
#
# Compressibility (1/GPa) = 0.01370897
#
# Stress axis : x y z
#
# Youngs Moduli (GPa) = 78.66409 134.38392 97.06904
#
# Poissons Ratio (x) = 0.38536 0.32343
# Poissons Ratio (y) = 0.22558 0.21101
# Poissons Ratio (z) = 0.26210 0.29212
#
# Static dielectric constant tensor:
#      x y z
#    x 4.010120 0.000000 0.000000 
#    y 0.000000 4.105060 0.000000 
#    z 0.000000 0.000000 3.778440 
# 
# 
# High freq. dielectric constant tensor:
#      x y z
#    x 1.822950 0.000000 0.000000 
#    y 0.000000 1.839220 0.000000 
#    z 0.000000 0.000000 1.812700 
# 
# From -- ./inp_files/29801.got.cif
#   From: 2010.03.12/outbox.cif.g09.slc.cpg/sg67_15_cif.got.tgz:29801.got - 2010.04.10 22:41:39.
