data_PCOD8281821
_publ_section_title
;
Structure prediction by ZEFSAII (Michael W. Deem and Ramdas Pophale) SiO2 
 PCOD8281821
Probable space group: C C C A
;
_chemical_formula_sum "Si O2"
_cell_formula_units_Z 116
_cell_length_a 27.079879
_cell_length_b 17.708357
_cell_length_c 12.962153
_cell_angle_alpha 90.000000
_cell_angle_beta 90.000000
_cell_angle_gamma 90.000000
_cell_volume 6215.872986
_symmetry_space_group_name_H-M "C C C A"
_symmetry_group_IT_number 68
_space_group.IT_coordinate_system_code '2'
_symmetry_cell_setting 'orthorhombic'
loop_
_space_group_symop_operation_xyz
x,y,z
-x,1/2-y,z
x,1/2-y,1/2-z
-x,y,1/2-z
-x,-y,-z
x,1/2+y,-z
-x,1/2+y,1/2+z
x,-y,1/2+z
1/2+x,1/2+y,z
1/2-x,-y,z
1/2+x,-y,1/2-z
1/2-x,1/2+y,1/2-z
1/2-x,1/2-y,-z
1/2+x,y,-z
1/2-x,y,1/2+z
1/2+x,1/2-y,1/2+z
loop_
_atom_site_type_symbol
_atom_site_label
_atom_site_fract_x
_atom_site_fract_y
_atom_site_fract_z
Si Si1 0.806147 0.625217 0.956611
Si Si2 0.000000 0.750000 0.750000
Si Si3 0.358904 0.039980 0.113839
Si Si4 0.557119 0.018494 0.001236
Si Si5 0.578340 0.351616 0.644049
Si Si6 0.681419 0.219989 0.861630
Si Si7 0.279788 0.068264 0.567637
Si Si8 0.119358 0.465017 0.188159
O O1 0.802686 0.714584 0.940877
O O2 0.838392 0.582054 0.870763
O O3 0.830875 0.614062 0.071315
O O4 0.751083 0.587927 0.962766
O O5 0.032313 0.800751 0.674289
O O6 0.334598 0.966629 0.051609
O O7 0.355053 0.028236 0.237349
O O8 0.415806 0.040040 0.076995
O O9 0.580398 0.007243 0.114833
O O10 0.564448 0.103556 0.960042
O O11 0.500000 0.000000 0.000000
O O12 0.624150 0.297238 0.619278
O O13 0.590252 0.407038 0.739039
O O14 0.692313 0.250000 0.750000
O O15 0.715583 0.145956 0.870007
O O16 0.250000 0.000000 0.627460
#
# Coordination Sequence:
#
# PCOD8281821 Si02
#       8
#    16   4  16  16  16  16  16  16
#     4  10  20  33  60  86 114 158 198 252 305 354
#     4  12  20  32  56  96 120 158 200 250 308 368
#     4   9  19  37  56  82 119 153 205 244 293 364
#     4  10  20  33  57  87 118 150 196 249 299 360
#     4  11  21  36  60  89 123 153 198 250 305 363
#     4  12  20  38  59  86 122 162 192 251 310 353
#     4  10  20  37  58  82 115 157 201 246 292 360
#     4  10  18  38  59  86 115 160 198 252 307 355
#
# _framework density 18.661899999999999
#
# number of rings (size 3 to 8) (size 9 to 14) (size 15 to 20)
#    0.000    1.655    4.828    1.241    0.000    2.759 
#    0.000   23.448    0.000    0.000    0.000    0.000 
#    0.000    0.000    0.000    0.000    0.000    0.000 
#
# Total GULP energy -718558.574776 kJ/mol
# GULP energy per Si atom -12388.940944 kJ/mol
# Density = 1.861942 g / cm^3
# Si number density = 18.661900 Si / 1000 Ang^3
#
#
#
# Elastic Constant Matrix: (Units=GPa)
#
#
# Indices 1 2 3 4 5 6 
#
# 1 110.1902 47.2420 47.1501 0.0000 0.0000 0.0000
# 2 47.2420 124.1397 52.0157 0.0000 0.0000 0.0000
# 3 47.1501 52.0157 88.5691 0.0000 0.0000 0.0000
# 4 0.0000 0.0000 0.0000 35.2067 0.0000 0.0000
# 5 0.0000 0.0000 0.0000 0.0000 25.6854 0.0000
# 6 0.0000 0.0000 0.0000 0.0000 0.0000 31.9532
#
#
#
# Elastic Compliance Matrix: (Units=1/GPa)
#
#
# Indices 1 2 3 4 5 6 
#
# 1 0.012345 -0.002579 -0.005057 0.000000 0.000000 0.000000
# 2 -0.002579 0.011223 -0.005219 0.000000 0.000000 0.000000
# 3 -0.005057 -0.005219 0.017048 0.000000 0.000000 0.000000
# 4 0.000000 0.000000 0.000000 0.028404 0.000000 0.000000
# 5 0.000000 0.000000 0.000000 0.000000 0.038933 0.000000
# 6 0.000000 0.000000 0.000000 0.000000 0.000000 0.031296
#
#
# Mechanical properties :
#
#
# Convention : Reuss Voigt Hill
#
# Bulk Modulus (GPa) = 67.08437 68.41271 67.74854
# Shear Modulus (GPa) = 29.42451 30.33515 29.87983
#
# Velocity S-wave (km/s) = 3.97510 4.03614 4.00573
# Velocity P-wave (km/s) = 7.55604 7.64586 7.60108
#
# Compressibility (1/GPa) = 0.01490660
#
# Stress axis : x y z
#
# Youngs Moduli (GPa) = 81.00542 89.09915 58.65895
#
# Poissons Ratio (x) = 0.22977 0.29666
# Poissons Ratio (y) = 0.20890 0.30612
# Poissons Ratio (z) = 0.40967 0.46497
#
# Static dielectric constant tensor:
#      x y z
#    x 3.645010 0.000000 0.000000 
#    y 0.000000 3.632470 0.000000 
#    z 0.000000 0.000000 3.516420 
# 
# 
# High freq. dielectric constant tensor:
#      x y z
#    x 1.735910 0.000000 0.000000 
#    y 0.000000 1.716060 0.000000 
#    z 0.000000 0.000000 1.702870 
# 
# From -- ./inp_files/26550.got.cif
#   From: 2010.03.12/outbox.cif.g09.slc.cpg/sg68_14_cif.got.tgz:26550.got - 2010.04.10 23:14:56.
