data_PCOD8281947
_publ_section_title
;
Structure prediction by ZEFSAII (Michael W. Deem and Ramdas Pophale) SiO2 
 PCOD8281947
Probable space group: C C C A
;
_chemical_formula_sum "Si O2"
_cell_formula_units_Z 112
_cell_length_a 15.586374
_cell_length_b 14.487849
_cell_length_c 26.110949
_cell_angle_alpha 90.000000
_cell_angle_beta 90.000000
_cell_angle_gamma 90.000000
_cell_volume 5896.192587
_symmetry_space_group_name_H-M "C C C A"
_symmetry_group_IT_number 68
_space_group.IT_coordinate_system_code '2'
_symmetry_cell_setting 'orthorhombic'
loop_
_space_group_symop_operation_xyz
x,y,z
-x,1/2-y,z
x,1/2-y,1/2-z
-x,y,1/2-z
-x,-y,-z
x,1/2+y,-z
-x,1/2+y,1/2+z
x,-y,1/2+z
1/2+x,1/2+y,z
1/2-x,-y,z
1/2+x,-y,1/2-z
1/2-x,1/2+y,1/2-z
1/2-x,1/2-y,-z
1/2+x,y,-z
1/2-x,y,1/2+z
1/2+x,1/2-y,1/2+z
loop_
_atom_site_type_symbol
_atom_site_label
_atom_site_fract_x
_atom_site_fract_y
_atom_site_fract_z
Si Si1 0.750789 0.203513 0.445398
Si Si2 0.999143 0.617246 0.811345
Si Si3 0.250000 0.500000 0.751254
Si Si4 0.362382 0.244352 0.852769
Si Si5 0.203519 0.311204 0.704255
Si Si6 0.750000 0.000000 0.918795
Si Si7 0.613287 0.465343 0.165064
Si Si8 0.095904 0.766117 0.126376
O O1 0.750000 0.250000 0.500000
O O2 0.830310 0.244794 0.411764
O O3 0.758048 0.092550 0.452655
O O4 0.657920 0.225622 0.421891
O O5 0.076713 0.673392 0.836439
O O6 0.019276 0.512082 0.828060
O O7 0.000000 0.633400 0.750000
O O8 0.911013 0.647950 0.839388
O O9 0.244837 0.410043 0.715764
O O10 0.335677 0.500891 0.784758
O O11 0.277619 0.254034 0.818894
O O12 0.165999 0.250000 0.750000
O O13 0.127333 0.319232 0.662183
O O14 0.664287 0.999169 0.884680
O O15 0.600283 0.356328 0.162662
O O16 0.000000 0.750000 0.105896
#
# Coordination Sequence:
#
# PCOD8281947 Si02
#       8
#    16  16   8  16  16   8  16  16
#     4  10  21  42  67  86 109 156 206 252 315 374
#     4  11  20  32  55  92 126 156 188 246 297 365
#     4  11  20  32  55  86 110 176 213 232 281 362
#     4  10  20  35  55  83 121 149 191 247 305 348
#     4  11  20  36  53  78 117 161 200 240 285 358
#     4   9  18  38  63  84 110 150 203 254 293 368
#     4  10  19  35  56  82 120 162 205 235 292 367
#     4  10  23  40  57  83 124 159 197 255 305 360
#
# _framework density 18.995308999999999
#
# number of rings (size 3 to 8) (size 9 to 14) (size 15 to 20)
#    0.000    1.714    2.857    3.429    0.000    2.571 
#    2.571    4.286    0.000    3.429    0.000    0.000 
#    0.000    0.000    0.000    0.000    0.000    0.000 
#
# Total GULP energy -693998.854214 kJ/mol
# GULP energy per Si atom -12392.836682 kJ/mol
# Density = 1.895207 g / cm^3
# Si number density = 18.995309 Si / 1000 Ang^3
#
#
#
# Elastic Constant Matrix: (Units=GPa)
#
#
# Indices 1 2 3 4 5 6 
#
# 1 104.3361 30.9072 46.5895 0.0000 0.0000 0.0000
# 2 30.9072 101.0393 60.7701 0.0000 0.0000 0.0000
# 3 46.5895 60.7701 120.0155 0.0000 0.0000 0.0000
# 4 0.0000 0.0000 0.0000 29.4844 0.0000 0.0000
# 5 0.0000 0.0000 0.0000 0.0000 20.2204 0.0000
# 6 0.0000 0.0000 0.0000 0.0000 0.0000 34.1288
#
#
#
# Elastic Compliance Matrix: (Units=1/GPa)
#
#
# Indices 1 2 3 4 5 6 
#
# 1 0.011697 -0.001218 -0.003924 0.000000 0.000000 0.000000
# 2 -0.001218 0.014358 -0.006797 0.000000 0.000000 0.000000
# 3 -0.003924 -0.006797 0.013297 0.000000 0.000000 0.000000
# 4 0.000000 0.000000 0.000000 0.033916 0.000000 0.000000
# 5 0.000000 0.000000 0.000000 0.000000 0.049455 0.000000
# 6 0.000000 0.000000 0.000000 0.000000 0.000000 0.029301
#
#
# Mechanical properties :
#
#
# Convention : Reuss Voigt Hill
#
# Bulk Modulus (GPa) = 64.62510 66.88049 65.75280
# Shear Modulus (GPa) = 27.61483 29.24165 28.42824
#
# Velocity S-wave (km/s) = 3.81697 3.92779 3.87278
# Velocity P-wave (km/s) = 7.31582 7.47365 7.39516
#
# Compressibility (1/GPa) = 0.01547386
#
# Stress axis : x y z
#
# Youngs Moduli (GPa) = 85.48842 69.64763 75.20221
#
# Poissons Ratio (x) = 0.08483 0.29511
# Poissons Ratio (y) = 0.10412 0.51118
# Poissons Ratio (z) = 0.33547 0.47342
#
# Static dielectric constant tensor:
#      x y z
#    x 3.645360 0.000000 0.000000 
#    y 0.000000 3.641010 0.000000 
#    z 0.000000 0.000000 3.160240 
# 
# 
# High freq. dielectric constant tensor:
#      x y z
#    x 1.740740 0.000000 0.000000 
#    y 0.000000 1.742040 0.000000 
#    z 0.000000 0.000000 1.704230 
# 
# From -- ./inp_files/51035.got.cif
#   From: 2010.03.12/outbox.cif.g09.slc.cpg/sg68_26_cif.got.tgz:51035.got - 2010.04.10 23:14:56.
