data_PCOD8281587
_publ_section_title
;
Structure prediction by ZEFSAII (Michael W. Deem and Ramdas Pophale) SiO2 
 PCOD8281587
Probable space group: C M M A
;
_chemical_formula_sum "Si O2"
_cell_formula_units_Z 68
_cell_length_a 9.306536
_cell_length_b 21.020897
_cell_length_c 20.781990
_cell_angle_alpha 90.000000
_cell_angle_beta 90.000000
_cell_angle_gamma 90.000000
_cell_volume 4065.616754
_symmetry_space_group_name_H-M "C M M A"
_symmetry_group_IT_number 67
_symmetry_cell_setting 'orthorhombic'
loop_
_space_group_symop_operation_xyz
x,y,z
-x,1/2-y,z
x,-y,-z
-x,1/2+y,-z
-x,-y,-z
x,1/2+y,-z
-x,y,z
x,1/2-y,z
1/2+x,1/2+y,z
1/2-x,-y,z
1/2+x,1/2-y,-z
1/2-x,y,-z
1/2-x,1/2-y,-z
1/2+x,y,-z
1/2-x,1/2+y,z
1/2+x,-y,z
loop_
_atom_site_type_symbol
_atom_site_label
_atom_site_fract_x
_atom_site_fract_y
_atom_site_fract_z
Si Si1 0.840632 0.122432 0.442360
Si Si2 0.250000 0.000000 0.500000
Si Si3 0.836593 0.825826 0.938077
Si Si4 0.833894 0.175372 0.309012
Si Si5 0.662879 0.674259 0.815068
O O1 0.750000 0.155310 0.500000
O O2 0.775828 0.139359 0.372641
O O3 0.000000 0.150968 0.445698
O O4 0.844340 0.045757 0.453479
O O5 0.839296 0.750000 0.937723
O O6 0.754146 0.852075 0.875273
O O7 0.000000 0.852042 0.939185
O O8 0.750000 0.851187 0.000000
O O9 0.812250 0.250000 0.319746
O O10 0.738573 0.149925 0.249982
O O11 0.000000 0.159092 0.294457
O O12 0.500000 0.647986 0.818377
O O13 0.662457 0.750000 0.816782
#
# Coordination Sequence:
#
# PCOD8281587 Si02
#       5
#    16   4  16  16  16
#     4   9  18  30  46  63  81 105 134 168 207 249
#     4   8  18  32  48  64  82 104 132 170 206 252
#     4   9  15  22  33  49  70 100 137 174 206 237
#     4   9  17  29  42  58  81 109 138 168 206 250
#     4   9  16  25  36  52  75 103 135 170 205 243
#
# _framework density 16.725629000000001
#
# number of rings (size 3 to 8) (size 9 to 14) (size 15 to 20)
#    0.706    2.353    0.000    1.765    0.000    7.059 
#    0.000    0.000    0.000    0.000    0.000    0.000 
#    0.000    0.000    0.000    1.059    0.000   17.176 
#
# Total GULP energy -421324.719389 kJ/mol
# GULP energy per Si atom -12391.903511 kJ/mol
# Density = 1.668756 g / cm^3
# Si number density = 16.725629 Si / 1000 Ang^3
#
#
#
# Elastic Constant Matrix: (Units=GPa)
#
#
# Indices 1 2 3 4 5 6 
#
# 1 131.1472 9.8631 91.5928 0.0000 0.0000 0.0000
# 2 9.8631 17.8069 23.3718 0.0000 0.0000 0.0000
# 3 91.5928 23.3718 188.5309 0.0000 0.0000 0.0000
# 4 0.0000 0.0000 0.0000 1.7383 0.0000 0.0000
# 5 0.0000 0.0000 0.0000 0.0000 37.5052 0.0000
# 6 0.0000 0.0000 0.0000 0.0000 0.0000 8.1389
#
#
#
# Elastic Compliance Matrix: (Units=1/GPa)
#
#
# Indices 1 2 3 4 5 6 
#
# 1 0.011561 0.001156 -0.005760 0.000000 0.000000 0.000000
# 2 0.001156 0.067187 -0.008891 0.000000 0.000000 0.000000
# 3 -0.005760 -0.008891 0.009205 0.000000 0.000000 0.000000
# 4 0.000000 0.000000 0.000000 0.575279 0.000000 0.000000
# 5 0.000000 0.000000 0.000000 0.000000 0.026663 0.000000
# 6 0.000000 0.000000 0.000000 0.000000 0.000000 0.122867
#
#
# Mechanical properties :
#
#
# Convention : Reuss Voigt Hill
#
# Bulk Modulus (GPa) = 16.40325 65.23783 40.82054
# Shear Modulus (GPa) = 5.81348 23.65363 14.73355
#
# Velocity S-wave (km/s) = 1.86637 3.76468 2.97121
# Velocity P-wave (km/s) = 3.80434 7.61489 6.01912
#
# Compressibility (1/GPa) = 0.06096353
#
# Stress axis : x y z
#
# Youngs Moduli (GPa) = 86.50001 14.88392 108.64125
#
# Poissons Ratio (x) = -0.01721 0.62575
# Poissons Ratio (y) = -0.10003 0.96591
# Poissons Ratio (z) = 0.49822 0.13233
#
# Static dielectric constant tensor:
#      x y z
#    x 3.225800 0.000000 0.000000 
#    y 0.000000 2.441330 0.000000 
#    z 0.000000 0.000000 3.326990 
# 
# 
# High freq. dielectric constant tensor:
#      x y z
#    x 1.652980 0.000000 0.000000 
#    y 0.000000 1.559890 0.000000 
#    z 0.000000 0.000000 1.659220 
# 
# From -- ./inp_files/32255.got.cif
#   From: 2010.03.12/outbox.cif.g09.slc.cpg/sg67_17_cif.got.tgz:32255.got - 2010.04.10 22:41:39.
