data_PCOD8281319
_publ_section_title
;
Structure prediction by ZEFSAII (Michael W. Deem and Ramdas Pophale) SiO2 
 PCOD8281319
Probable space group: C M M A
;
_chemical_formula_sum "Si O2"
_cell_formula_units_Z 116
_cell_length_a 21.438910
_cell_length_b 17.344960
_cell_length_c 15.824181
_cell_angle_alpha 90.000000
_cell_angle_beta 90.000000
_cell_angle_gamma 90.000000
_cell_volume 5884.333050
_symmetry_space_group_name_H-M "C M M A"
_symmetry_group_IT_number 67
_symmetry_cell_setting 'orthorhombic'
loop_
_space_group_symop_operation_xyz
x,y,z
-x,1/2-y,z
x,-y,-z
-x,1/2+y,-z
-x,-y,-z
x,1/2+y,-z
-x,y,z
x,1/2-y,z
1/2+x,1/2+y,z
1/2-x,-y,z
1/2+x,1/2-y,-z
1/2-x,y,-z
1/2-x,1/2-y,-z
1/2+x,y,-z
1/2-x,1/2+y,z
1/2+x,-y,z
loop_
_atom_site_type_symbol
_atom_site_label
_atom_site_fract_x
_atom_site_fract_y
_atom_site_fract_z
Si Si1 0.569706 0.408883 0.015893
Si Si2 0.296720 0.158438 0.573222
Si Si3 0.342677 0.586231 0.122680
Si Si4 0.568902 0.658641 0.480078
Si Si5 0.862739 0.422858 0.815027
Si Si6 0.750000 0.500000 0.000000
Si Si7 0.070962 0.835066 0.327746
Si Si8 0.756392 0.338339 0.241354
O O1 0.500000 0.375907 0.023396
O O2 0.606524 0.386020 0.101005
O O3 0.570325 0.500000 0.000000
O O4 0.602781 0.373456 0.932752
O O5 0.300258 0.250000 0.566095
O O6 0.250000 0.126447 0.500000
O O7 0.368632 0.126282 0.566585
O O8 0.268269 0.132967 0.663004
O O9 0.366244 0.515092 0.180215
O O10 0.291897 0.555014 0.056836
O O11 0.318796 0.652207 0.185931
O O12 0.500000 0.626861 0.448035
O O13 0.566133 0.750000 0.472069
O O14 0.577860 0.634701 0.577270
O O15 0.898019 0.397806 0.731267
O O16 0.792407 0.393296 0.805814
O O17 0.102812 0.750000 0.318095
O O18 0.000000 0.827566 0.300544
O O19 0.734257 0.250000 0.240557
#
# Coordination Sequence:
#
# PCOD8281319 Si02
#       8
#    16  16  16  16  16   4  16  16
#     4   9  18  33  54  77  98 132 178 215 245 303
#     4   9  17  30  49  74 103 135 174 220 265 319
#     4  11  20  36  58  74 102 136 179 216 256 310
#     4   8  14  27  47  69  97 139 182 213 254 318
#     4  11  18  31  53  77 102 139 172 210 261 326
#     4  12  16  40  56  76  98 144 178 214 248 304
#     4   9  17  28  46  78 113 136 164 214 268 314
#     4  11  22  34  52  80 107 133 174 225 277 316
#
# _framework density 19.713365
#
# number of rings (size 3 to 8) (size 9 to 14) (size 15 to 20)
#    0.000    2.207    3.448    2.483    0.000    2.759 
#    0.000    4.483    0.000    8.690    0.000    1.931 
#    0.000    0.000    0.000    0.000    0.000    0.000 
#
# Total GULP energy -718723.156514 kJ/mol
# GULP energy per Si atom -12391.778561 kJ/mol
# Density = 1.966850 g / cm^3
# Si number density = 19.713365 Si / 1000 Ang^3
#
#
#
# Elastic Constant Matrix: (Units=GPa)
#
#
# Indices 1 2 3 4 5 6 
#
# 1 135.9694 11.4336 60.5128 0.0000 0.0000 0.0000
# 2 11.4336 18.1268 12.0963 0.0000 0.0000 0.0000
# 3 60.5128 12.0963 93.4379 0.0000 0.0000 0.0000
# 4 0.0000 0.0000 0.0000 21.9861 0.0000 0.0000
# 5 0.0000 0.0000 0.0000 0.0000 35.2246 0.0000
# 6 0.0000 0.0000 0.0000 0.0000 0.0000 3.1000
#
#
#
# Elastic Compliance Matrix: (Units=1/GPa)
#
#
# Indices 1 2 3 4 5 6 
#
# 1 0.010417 -0.002264 -0.006453 0.000000 0.000000 0.000000
# 2 -0.002264 0.060876 -0.006414 0.000000 0.000000 0.000000
# 3 -0.006453 -0.006414 0.015712 0.000000 0.000000 0.000000
# 4 0.000000 0.000000 0.000000 0.045483 0.000000 0.000000
# 5 0.000000 0.000000 0.000000 0.000000 0.028389 0.000000
# 6 0.000000 0.000000 0.000000 0.000000 0.000000 0.322584
#
#
# Mechanical properties :
#
#
# Convention : Reuss Voigt Hill
#
# Bulk Modulus (GPa) = 17.62403 46.17995 31.90199
# Shear Modulus (GPa) = 9.38724 22.96156 16.17440
#
# Velocity S-wave (km/s) = 2.18454 3.41658 2.86751
# Velocity P-wave (km/s) = 3.91440 6.24824 5.21359
#
# Compressibility (1/GPa) = 0.05674070
#
# Stress axis : x y z
#
# Youngs Moduli (GPa) = 95.99729 16.42696 63.64589
#
# Poissons Ratio (x) = 0.03719 0.41072
# Poissons Ratio (y) = 0.21736 0.40825
# Poissons Ratio (z) = 0.61949 0.10537
#
# Static dielectric constant tensor:
#      x y z
#    x 4.177950 0.000000 0.000000 
#    y 0.000000 3.086850 0.000000 
#    z 0.000000 0.000000 3.671000 
# 
# 
# High freq. dielectric constant tensor:
#      x y z
#    x 1.783820 0.000000 0.000000 
#    y 0.000000 1.706520 0.000000 
#    z 0.000000 0.000000 1.771760 
# 
# From -- ./inp_files/30304.got.cif
#   From: 2010.03.12/outbox.cif.g09.slc.cpg/sg67_16_cif.got.tgz:30304.got - 2010.04.10 22:41:39.
