data_PCOD8281548
_publ_section_title
;
Structure prediction by ZEFSAII (Michael W. Deem and Ramdas Pophale) SiO2 
 PCOD8281548
Probable space group: C M M A
;
_chemical_formula_sum "Si O2"
_cell_formula_units_Z 104
_cell_length_a 9.452720
_cell_length_b 29.802815
_cell_length_c 22.843052
_cell_angle_alpha 90.000000
_cell_angle_beta 90.000000
_cell_angle_gamma 90.000000
_cell_volume 6435.291280
_symmetry_space_group_name_H-M "C M M A"
_symmetry_group_IT_number 67
_symmetry_cell_setting 'orthorhombic'
loop_
_space_group_symop_operation_xyz
x,y,z
-x,1/2-y,z
x,-y,-z
-x,1/2+y,-z
-x,-y,-z
x,1/2+y,-z
-x,y,z
x,1/2-y,z
1/2+x,1/2+y,z
1/2-x,-y,z
1/2+x,1/2-y,-z
1/2-x,y,-z
1/2-x,1/2-y,-z
1/2+x,y,-z
1/2-x,1/2+y,z
1/2+x,-y,z
loop_
_atom_site_type_symbol
_atom_site_label
_atom_site_fract_x
_atom_site_fract_y
_atom_site_fract_z
Si Si1 0.156462 0.828036 0.104306
Si Si2 0.332173 0.750000 0.060233
Si Si3 0.341591 0.136172 0.234057
Si Si4 0.337485 0.923758 0.944115
Si Si5 0.344566 0.802936 0.448537
Si Si6 0.831807 0.199087 0.318027
Si Si7 0.667094 0.043216 0.182184
O O1 0.283970 0.793642 0.095513
O O2 0.159012 0.840929 0.171455
O O3 0.183444 0.870503 0.062777
O O4 0.000000 0.807894 0.089403
O O5 0.500000 0.750000 0.051852
O O6 0.250000 0.750000 0.000000
O O7 0.500000 0.138097 0.260585
O O8 0.235958 0.162432 0.275963
O O9 0.292958 0.084578 0.225025
O O10 0.500000 0.935799 0.955669
O O11 0.283648 0.947292 0.884584
O O12 0.250000 0.941332 0.000000
O O13 0.500000 0.824559 0.454144
O O14 0.355972 0.750000 0.457493
O O15 0.250000 0.824655 0.500000
O O16 0.281619 0.812735 0.384050
O O17 0.783727 0.250000 0.301555
O O18 0.000000 0.195751 0.313388
O O19 0.500000 0.034858 0.183855
O O20 0.750000 0.000000 0.206060
#
# Coordination Sequence:
#
# PCOD8281548 Si02
#       7
#    16   8  16  16  16  16  16
#     4   9  19  35  49  62  85 115 146 186 228 266
#     4  12  24  34  46  64  84 110 147 188 227 272
#     4   9  19  34  50  68  92 121 154 191 229 272
#     4   9  18  32  49  67  88 111 138 176 222 274
#     4   8  14  25  40  60  90 127 162 197 230 259
#     4   9  18  30  44  67 100 131 161 198 232 264
#     4   9  19  35  51  69  91 115 145 184 230 278
#
# _framework density 16.160886000000001
#
# number of rings (size 3 to 8) (size 9 to 14) (size 15 to 20)
#    0.000    2.923    0.000    3.923    1.077    4.923 
#    0.000    6.154    0.000    0.000    0.000    0.000 
#    0.000    0.615    0.000    6.769    0.000    5.231 
#
# Total GULP energy -644520.825842 kJ/mol
# GULP energy per Si atom -12394.631266 kJ/mol
# Density = 1.612410 g / cm^3
# Si number density = 16.160886 Si / 1000 Ang^3
#
#
#
# Elastic Constant Matrix: (Units=GPa)
#
#
# Indices 1 2 3 4 5 6 
#
# 1 70.5731 44.1354 36.7791 0.0000 0.0000 0.0000
# 2 44.1354 87.1066 36.4179 0.0000 0.0000 0.0000
# 3 36.7791 36.4179 77.0083 0.0000 0.0000 0.0000
# 4 0.0000 0.0000 0.0000 10.8166 0.0000 0.0000
# 5 0.0000 0.0000 0.0000 0.0000 28.5006 0.0000
# 6 0.0000 0.0000 0.0000 0.0000 0.0000 21.8027
#
#
#
# Elastic Compliance Matrix: (Units=1/GPa)
#
#
# Indices 1 2 3 4 5 6 
#
# 1 0.023379 -0.008946 -0.006935 0.000000 0.000000 0.000000
# 2 -0.008946 0.017733 -0.004113 0.000000 0.000000 0.000000
# 3 -0.006935 -0.004113 0.018243 0.000000 0.000000 0.000000
# 4 0.000000 0.000000 0.000000 0.092451 0.000000 0.000000
# 5 0.000000 0.000000 0.000000 0.000000 0.035087 0.000000
# 6 0.000000 0.000000 0.000000 0.000000 0.000000 0.045866
#
#
# Mechanical properties :
#
#
# Convention : Reuss Voigt Hill
#
# Bulk Modulus (GPa) = 51.63799 52.15033 51.89416
# Shear Modulus (GPa) = 17.90818 20.04767 18.97792
#
# Velocity S-wave (km/s) = 3.33245 3.52590 3.43054
# Velocity P-wave (km/s) = 6.84316 6.99396 6.91897
#
# Compressibility (1/GPa) = 0.01936559
#
# Stress axis : x y z
#
# Youngs Moduli (GPa) = 42.77411 56.39277 54.81578
#
# Poissons Ratio (x) = 0.50450 0.38014
# Poissons Ratio (y) = 0.38266 0.22547
# Poissons Ratio (z) = 0.29663 0.23196
#
# Static dielectric constant tensor:
#      x y z
#    x 3.493150 0.000000 0.000000 
#    y 0.000000 2.893590 0.000000 
#    z 0.000000 0.000000 3.010790 
# 
# 
# High freq. dielectric constant tensor:
#      x y z
#    x 1.620660 0.000000 0.000000 
#    y 0.000000 1.597340 0.000000 
#    z 0.000000 0.000000 1.605420 
# 
# From -- ./inp_files/41163.got.cif
#   From: 2010.03.12/outbox.cif.g09.slc.cpg/sg67_21_cif.got.tgz:41163.got - 2010.04.10 22:41:39.
