data_PCOD8281498
_publ_section_title
;
Structure prediction by ZEFSAII (Michael W. Deem and Ramdas Pophale) SiO2 
 PCOD8281498
Probable space group: C M M A
;
_chemical_formula_sum "Si O2"
_cell_formula_units_Z 88
_cell_length_a 19.335016
_cell_length_b 14.711967
_cell_length_c 14.354310
_cell_angle_alpha 90.000000
_cell_angle_beta 90.000000
_cell_angle_gamma 90.000000
_cell_volume 4083.171290
_symmetry_space_group_name_H-M "C M M A"
_symmetry_group_IT_number 67
_symmetry_cell_setting 'orthorhombic'
loop_
_space_group_symop_operation_xyz
x,y,z
-x,1/2-y,z
x,-y,-z
-x,1/2+y,-z
-x,-y,-z
x,1/2+y,-z
-x,y,z
x,1/2-y,z
1/2+x,1/2+y,z
1/2-x,-y,z
1/2+x,1/2-y,-z
1/2-x,y,-z
1/2-x,1/2-y,-z
1/2+x,y,-z
1/2-x,1/2+y,z
1/2+x,-y,z
loop_
_atom_site_type_symbol
_atom_site_label
_atom_site_fract_x
_atom_site_fract_y
_atom_site_fract_z
Si Si1 0.889645 0.250000 0.970784
Si Si2 0.669901 0.145214 0.509941
Si Si3 0.000000 0.096953 0.951118
Si Si4 0.582995 0.903024 0.306361
Si Si5 0.130132 0.402481 0.681209
Si Si6 0.000000 0.154579 0.764156
Si Si7 0.704009 0.750000 0.785457
Si Si8 0.862750 0.750000 0.818984
O O1 0.932141 0.156014 0.972052
O O2 0.853022 0.250000 0.070385
O O3 0.834511 0.250000 0.885613
O O4 0.662304 0.250000 0.482127
O O5 0.750000 0.116760 0.500000
O O6 0.629323 0.129375 0.605972
O O7 0.636639 0.083548 0.429228
O O8 0.000000 0.073940 0.840115
O O9 0.000000 0.000000 0.000000
O O10 0.500000 0.908781 0.329854
O O11 0.594751 0.836634 0.219310
O O12 0.614854 0.999295 0.273922
O O13 0.190830 0.344776 0.730019
O O14 0.064001 0.340458 0.696578
O O15 0.000000 0.250000 0.824292
O O16 0.785513 0.750000 0.783854
#
# Coordination Sequence:
#
# PCOD8281498 Si02
#       8
#     8  16   8  16  16   8   8   8
#     4  11  25  44  69 102 136 181 228 282 345 415
#     4  11  24  45  69  98 138 187 232 280 344 411
#     4  11  23  40  71 102 139 172 228 288 350 409
#     4  12  28  46  67 104 144 182 233 283 345 421
#     4  12  24  41  75  99 134 177 231 288 344 394
#     4  12  20  43  66 105 134 171 229 291 344 392
#     4  12  24  49  71 103 134 176 239 292 334 415
#     4  12  29  46  69  96 145 190 222 275 356 421
#
# _framework density 21.551874000000002
#
# number of rings (size 3 to 8) (size 9 to 14) (size 15 to 20)
#    0.000    0.364    6.364    2.182    6.364    4.364 
#    0.000    0.000    0.000    3.273    0.000    0.000 
#    0.000    0.000    0.000    0.000    0.000    0.000 
#
# Total GULP energy -545088.098844 kJ/mol
# GULP energy per Si atom -12388.365883 kJ/mol
# Density = 2.150282 g / cm^3
# Si number density = 21.551874 Si / 1000 Ang^3
#
#
#
# Elastic Constant Matrix: (Units=GPa)
#
#
# Indices 1 2 3 4 5 6 
#
# 1 114.5021 28.7599 23.8449 0.0000 0.0000 0.0000
# 2 28.7599 130.8969 22.9617 0.0000 0.0000 0.0000
# 3 23.8449 22.9617 117.6191 0.0000 0.0000 0.0000
# 4 0.0000 0.0000 0.0000 25.3840 0.0000 0.0000
# 5 0.0000 0.0000 0.0000 0.0000 43.7435 0.0000
# 6 0.0000 0.0000 0.0000 0.0000 0.0000 11.7346
#
#
#
# Elastic Compliance Matrix: (Units=1/GPa)
#
#
# Indices 1 2 3 4 5 6 
#
# 1 0.009517 -0.001815 -0.001575 0.000000 0.000000 0.000000
# 2 -0.001815 0.008257 -0.001244 0.000000 0.000000 0.000000
# 3 -0.001575 -0.001244 0.009064 0.000000 0.000000 0.000000
# 4 0.000000 0.000000 0.000000 0.039395 0.000000 0.000000
# 5 0.000000 0.000000 0.000000 0.000000 0.022861 0.000000
# 6 0.000000 0.000000 0.000000 0.000000 0.000000 0.085218
#
#
# Mechanical properties :
#
#
# Convention : Reuss Voigt Hill
#
# Bulk Modulus (GPa) = 56.91423 57.12789 57.02106
# Shear Modulus (GPa) = 26.39410 35.33587 30.86499
#
# Velocity S-wave (km/s) = 3.50334 4.05356 3.78845
# Velocity P-wave (km/s) = 6.54445 6.96226 6.75659
#
# Compressibility (1/GPa) = 0.01757030
#
# Stress axis : x y z
#
# Youngs Moduli (GPa) = 105.07163 121.11615 110.32419
#
# Poissons Ratio (x) = 0.21980 0.17378
# Poissons Ratio (y) = 0.19068 0.13724
# Poissons Ratio (z) = 0.16551 0.15066
#
# Static dielectric constant tensor:
#      x y z
#    x 3.976860 0.000000 0.000000 
#    y 0.000000 4.086050 0.000000 
#    z 0.000000 0.000000 4.160070 
# 
# 
# High freq. dielectric constant tensor:
#      x y z
#    x 1.851390 0.000000 0.000000 
#    y 0.000000 1.858910 0.000000 
#    z 0.000000 0.000000 1.850200 
# 
# From -- ./inp_files/29232.got.cif
#   From: 2010.03.12/outbox.cif.g09.slc.cpg/sg67_15_cif.got.tgz:29232.got - 2010.04.10 22:41:39.
