data_PCOD8281919
_publ_section_title
;
Structure prediction by ZEFSAII (Michael W. Deem and Ramdas Pophale) SiO2 
 PCOD8281919
Probable space group: C C C A
;
_chemical_formula_sum "Si O2"
_cell_formula_units_Z 88
_cell_length_a 20.180004
_cell_length_b 24.850288
_cell_length_c 8.820924
_cell_angle_alpha 90.000000
_cell_angle_beta 90.000000
_cell_angle_gamma 90.000000
_cell_volume 4423.507364
_symmetry_space_group_name_H-M "C C C A"
_symmetry_group_IT_number 68
_space_group.IT_coordinate_system_code '2'
_symmetry_cell_setting 'orthorhombic'
loop_
_space_group_symop_operation_xyz
x,y,z
-x,1/2-y,z
x,1/2-y,1/2-z
-x,y,1/2-z
-x,-y,-z
x,1/2+y,-z
-x,1/2+y,1/2+z
x,-y,1/2+z
1/2+x,1/2+y,z
1/2-x,-y,z
1/2+x,-y,1/2-z
1/2-x,1/2+y,1/2-z
1/2-x,1/2-y,-z
1/2+x,y,-z
1/2-x,y,1/2+z
1/2+x,1/2-y,1/2+z
loop_
_atom_site_type_symbol
_atom_site_label
_atom_site_fract_x
_atom_site_fract_y
_atom_site_fract_z
Si Si1 0.061836 0.637316 0.950201
Si Si2 0.335833 0.546179 0.092466
Si Si3 0.912553 0.150006 0.097241
Si Si4 0.953101 0.031495 0.611260
Si Si5 0.750000 0.000000 0.333708
Si Si6 0.421232 0.253763 0.079209
O O1 0.080696 0.644623 0.776508
O O2 0.983039 0.637712 0.978700
O O3 0.083981 0.581543 0.028186
O O4 0.099861 0.686705 0.028413
O O5 0.358755 0.606072 0.048714
O O6 0.395507 0.509728 0.159848
O O7 0.279888 0.546539 0.223699
O O8 0.308505 0.523960 0.934528
O O9 0.889737 0.208604 0.033541
O O10 0.000000 0.050423 0.750000
O O11 0.000000 0.000000 0.500000
O O12 0.500000 0.250000 0.069084
O O13 0.394433 0.250000 0.250000
#
# Coordination Sequence:
#
# PCOD8281919 Si02
#       6
#    16  16  16  16   8  16
#     4  10  20  32  51  85 121 154 184 226 299 377
#     4  11  22  39  58  83 116 158 203 252 302 352
#     4  10  19  34  55  78 117 154 193 237 295 359
#     4  12  23  34  57  89 124 155 193 246 315 379
#     4  10  24  40  56  80 114 162 218 254 286 352
#     4   9  19  31  50  79 118 156 189 225 282 363
#
# _framework density 19.893715
#
# number of rings (size 3 to 8) (size 9 to 14) (size 15 to 20)
#    0.000    1.636    1.818    3.818    5.091    2.182 
#    0.000    0.000    0.000    0.000    0.000   31.818 
#    0.000    0.000    0.000    0.000    0.000    0.000 
#
# Total GULP energy -545390.524962 kJ/mol
# GULP energy per Si atom -12395.239204 kJ/mol
# Density = 1.984844 g / cm^3
# Si number density = 19.893715 Si / 1000 Ang^3
#
#
#
# Elastic Constant Matrix: (Units=GPa)
#
#
# Indices 1 2 3 4 5 6 
#
# 1 49.7663 27.3342 21.6750 0.0000 0.0000 0.0000
# 2 27.3342 165.1463 57.0534 0.0000 0.0000 0.0000
# 3 21.6750 57.0534 116.0038 0.0000 0.0000 0.0000
# 4 0.0000 0.0000 0.0000 32.9787 0.0000 0.0000
# 5 0.0000 0.0000 0.0000 0.0000 22.3880 0.0000
# 6 0.0000 0.0000 0.0000 0.0000 0.0000 20.7798
#
#
#
# Elastic Compliance Matrix: (Units=1/GPa)
#
#
# Indices 1 2 3 4 5 6 
#
# 1 0.022889 -0.002784 -0.002908 0.000000 0.000000 0.000000
# 2 -0.002784 0.007633 -0.003234 0.000000 0.000000 0.000000
# 3 -0.002908 -0.003234 0.010754 0.000000 0.000000 0.000000
# 4 0.000000 0.000000 0.000000 0.030323 0.000000 0.000000
# 5 0.000000 0.000000 0.000000 0.000000 0.044667 0.000000
# 6 0.000000 0.000000 0.000000 0.000000 0.000000 0.048124
#
#
# Mechanical properties :
#
#
# Convention : Reuss Voigt Hill
#
# Bulk Modulus (GPa) = 42.68823 60.33796 51.51309
# Shear Modulus (GPa) = 26.30886 30.21954 28.26420
#
# Velocity S-wave (km/s) = 3.64052 3.90173 3.77339
# Velocity P-wave (km/s) = 6.25907 7.11997 6.70335
#
# Compressibility (1/GPa) = 0.02342566
#
# Stress axis : x y z
#
# Youngs Moduli (GPa) = 43.68828 131.00465 92.98639
#
# Poissons Ratio (x) = 0.36473 0.27036
# Poissons Ratio (y) = 0.12163 0.30072
# Poissons Ratio (z) = 0.12703 0.42368
#
# Static dielectric constant tensor:
#      x y z
#    x 0.356970 0.000000 0.000000 
#    y 0.000000 3.903160 0.000000 
#    z 0.000000 0.000000 3.796490 
# 
# 
# High freq. dielectric constant tensor:
#      x y z
#    x 1.723610 0.000000 0.000000 
#    y 0.000000 1.778300 0.000000 
#    z 0.000000 0.000000 1.792240 
# 
# From -- ./inp_files/7119.got.cif
#   From: 2010.03.12/outbox.cif.g09.slc.cpg/sg68_4_cif.got.tgz:7119.got - 2010.04.10 23:14:56.
