data_PCOD8281110
_publ_section_title
;
Structure prediction by ZEFSAII (Michael W. Deem and Ramdas Pophale) SiO2 
 PCOD8281110
Probable space group: C M M A
;
_chemical_formula_sum "Si O2"
_cell_formula_units_Z 96
_cell_length_a 27.130390
_cell_length_b 17.659976
_cell_length_c 11.045940
_cell_angle_alpha 90.000000
_cell_angle_beta 90.000000
_cell_angle_gamma 90.000000
_cell_volume 5292.353265
_symmetry_space_group_name_H-M "C M M A"
_symmetry_group_IT_number 67
_symmetry_cell_setting 'orthorhombic'
loop_
_space_group_symop_operation_xyz
x,y,z
-x,1/2-y,z
x,-y,-z
-x,1/2+y,-z
-x,-y,-z
x,1/2+y,-z
-x,y,z
x,1/2-y,z
1/2+x,1/2+y,z
1/2-x,-y,z
1/2+x,1/2-y,-z
1/2-x,y,-z
1/2-x,1/2-y,-z
1/2+x,y,-z
1/2-x,1/2+y,z
1/2+x,-y,z
loop_
_atom_site_type_symbol
_atom_site_label
_atom_site_fract_x
_atom_site_fract_y
_atom_site_fract_z
Si Si1 0.353572 0.025844 0.863391
Si Si2 0.714891 0.567383 0.689660
Si Si3 0.841188 0.832184 0.495684
Si Si4 0.554671 0.619043 0.528274
Si Si5 0.302743 0.162855 0.760704
Si Si6 0.445751 0.486016 0.701538
O O1 0.329547 0.109667 0.859246
O O2 0.408004 0.029056 0.808883
O O3 0.320779 0.965187 0.791821
O O4 0.357293 0.000000 0.000000
O O5 0.750000 0.500000 0.640859
O O6 0.683235 0.599772 0.578640
O O7 0.746281 0.636154 0.746206
O O8 0.817743 0.750000 0.462488
O O9 0.899721 0.823244 0.470114
O O10 0.831719 0.849832 0.635634
O O11 0.500000 0.657819 0.520495
O O12 0.564171 0.567724 0.411670
O O13 0.557627 0.571386 0.651988
O O14 0.304048 0.250000 0.804263
O O15 0.500000 0.470843 0.755942
#
# Coordination Sequence:
#
# PCOD8281110 Si02
#       6
#    16  16  16  16  16  16
#     4  11  22  37  58  80 104 143 195 227 259 311
#     4  10  22  35  54  80 109 144 184 228 270 316
#     4  11  20  33  55  84 115 144 174 214 282 348
#     4   9  17  31  55  84 110 139 172 216 278 337
#     4  10  22  38  55  79 112 142 175 225 277 326
#     4   9  17  32  56  83 109 135 176 225 271 323
#
# _framework density 18.139379000000002
#
# number of rings (size 3 to 8) (size 9 to 14) (size 15 to 20)
#    0.000    2.000    3.333    2.000    0.000    9.667 
#    0.000    2.500    0.000    0.500    0.000    0.000 
#    0.000    0.000    0.000    0.000    0.000    0.000 
#
# Total GULP energy -594989.596017 kJ/mol
# GULP energy per Si atom -12395.616584 kJ/mol
# Density = 1.809809 g / cm^3
# Si number density = 18.139379 Si / 1000 Ang^3
#
#
#
# Elastic Constant Matrix: (Units=GPa)
#
#
# Indices 1 2 3 4 5 6 
#
# 1 117.7937 36.1882 29.8373 0.0000 0.0000 0.0000
# 2 36.1882 91.6301 39.7847 0.0000 0.0000 0.0000
# 3 29.8373 39.7847 73.0363 0.0000 0.0000 0.0000
# 4 0.0000 0.0000 0.0000 16.1638 0.0000 0.0000
# 5 0.0000 0.0000 0.0000 0.0000 13.8826 0.0000
# 6 0.0000 0.0000 0.0000 0.0000 0.0000 20.1060
#
#
#
# Elastic Compliance Matrix: (Units=1/GPa)
#
#
# Indices 1 2 3 4 5 6 
#
# 1 0.010008 -0.002852 -0.002535 0.000000 0.000000 0.000000
# 2 -0.002852 0.015107 -0.007064 0.000000 0.000000 0.000000
# 3 -0.002535 -0.007064 0.018575 0.000000 0.000000 0.000000
# 4 0.000000 0.000000 0.000000 0.061867 0.000000 0.000000
# 5 0.000000 0.000000 0.000000 0.000000 0.072033 0.000000
# 6 0.000000 0.000000 0.000000 0.000000 0.000000 0.049736
#
#
# Mechanical properties :
#
#
# Convention : Reuss Voigt Hill
#
# Bulk Modulus (GPa) = 53.22456 54.89785 54.06121
# Shear Modulus (GPa) = 19.34311 21.80713 20.57512
#
# Velocity S-wave (km/s) = 3.26906 3.47104 3.37156
# Velocity P-wave (km/s) = 6.60717 6.81133 6.71003
#
# Compressibility (1/GPa) = 0.01878832
#
# Stress axis : x y z
#
# Youngs Moduli (GPa) = 99.92367 66.19527 53.83468
#
# Poissons Ratio (x) = 0.18877 0.13647
# Poissons Ratio (y) = 0.28496 0.38029
# Poissons Ratio (z) = 0.25330 0.46761
#
# Static dielectric constant tensor:
#      x y z
#    x 3.638440 0.000000 0.000000 
#    y 0.000000 3.319540 0.000000 
#    z 0.000000 0.000000 2.941810 
# 
# 
# High freq. dielectric constant tensor:
#      x y z
#    x 1.721230 0.000000 0.000000 
#    y 0.000000 1.696320 0.000000 
#    z 0.000000 0.000000 1.663500 
# 
# From -- ./inp_files/22941.got.cif
#   From: 2010.03.12/outbox.cif.g09.slc.cpg/sg67_12_cif.got.tgz:22941.got - 2010.04.10 22:41:39.
