data_PCOD8281586
_publ_section_title
;
Structure prediction by ZEFSAII (Michael W. Deem and Ramdas Pophale) SiO2 
 PCOD8281586
Probable space group: C M M A
;
_chemical_formula_sum "Si O2"
_cell_formula_units_Z 68
_cell_length_a 9.958961
_cell_length_b 27.993748
_cell_length_c 15.027947
_cell_angle_alpha 90.000000
_cell_angle_beta 90.000000
_cell_angle_gamma 90.000000
_cell_volume 4189.620975
_symmetry_space_group_name_H-M "C M M A"
_symmetry_group_IT_number 67
_symmetry_cell_setting 'orthorhombic'
loop_
_space_group_symop_operation_xyz
x,y,z
-x,1/2-y,z
x,-y,-z
-x,1/2+y,-z
-x,-y,-z
x,1/2+y,-z
-x,y,z
x,1/2-y,z
1/2+x,1/2+y,z
1/2-x,-y,z
1/2+x,1/2-y,-z
1/2-x,y,-z
1/2-x,1/2-y,-z
1/2+x,y,-z
1/2-x,1/2+y,z
1/2+x,-y,z
loop_
_atom_site_type_symbol
_atom_site_label
_atom_site_fract_x
_atom_site_fract_y
_atom_site_fract_z
Si Si1 0.250000 0.500000 0.000000
Si Si2 0.350176 0.806322 0.072673
Si Si3 0.156165 0.694762 0.582926
Si Si4 0.158376 0.858202 0.756584
Si Si5 0.846483 0.460350 0.174233
O O1 0.163450 0.465119 0.065659
O O2 0.500000 0.827580 0.057040
O O3 0.354425 0.750000 0.065632
O O4 0.293687 0.820774 0.168897
O O5 0.250000 0.828497 0.000000
O O6 0.173033 0.750000 0.611915
O O7 0.250000 0.682362 0.500000
O O8 0.211852 0.660374 0.661574
O O9 0.000000 0.684391 0.559554
O O10 0.208855 0.910368 0.787000
O O11 0.000000 0.857974 0.750791
O O12 0.750000 0.500000 0.219313
O O13 0.000000 0.468779 0.203139
#
# Coordination Sequence:
#
# PCOD8281586 Si02
#       5
#     4  16  16  16  16
#     4   8  18  28  46  64  90 120 158 200 230 264
#     4   9  17  28  42  62  90 122 154 184 218 267
#     4   9  17  31  52  74  96 122 154 193 236 283
#     4   9  17  30  48  68  91 124 158 187 229 285
#     4   9  18  30  46  66  91 120 154 195 232 271
#
# _framework density 16.230585000000001
#
# number of rings (size 3 to 8) (size 9 to 14) (size 15 to 20)
#    0.706    2.353    0.000    1.059    1.647    2.824 
#    0.000    3.529    0.000    6.353    0.000    4.941 
#    0.000    0.000    0.000    0.000    0.000    0.000 
#
# Total GULP energy -421195.707342 kJ/mol
# GULP energy per Si atom -12388.109039 kJ/mol
# Density = 1.619364 g / cm^3
# Si number density = 16.230585 Si / 1000 Ang^3
#
#
#
# Elastic Constant Matrix: (Units=GPa)
#
#
# Indices 1 2 3 4 5 6 
#
# 1 65.5953 31.0033 45.6899 0.0000 0.0000 0.0000
# 2 31.0033 59.3893 58.1504 0.0000 0.0000 0.0000
# 3 45.6899 58.1504 127.8180 0.0000 0.0000 0.0000
# 4 0.0000 0.0000 0.0000 28.3350 0.0000 0.0000
# 5 0.0000 0.0000 0.0000 0.0000 24.0172 0.0000
# 6 0.0000 0.0000 0.0000 0.0000 0.0000 18.5927
#
#
#
# Elastic Compliance Matrix: (Units=1/GPa)
#
#
# Indices 1 2 3 4 5 6 
#
# 1 0.021695 -0.006730 -0.004693 0.000000 0.000000 0.000000
# 2 -0.006730 0.032452 -0.012358 0.000000 0.000000 0.000000
# 3 -0.004693 -0.012358 0.015123 0.000000 0.000000 0.000000
# 4 0.000000 0.000000 0.000000 0.035292 0.000000 0.000000
# 5 0.000000 0.000000 0.000000 0.000000 0.041637 0.000000
# 6 0.000000 0.000000 0.000000 0.000000 0.000000 0.053785
#
#
# Mechanical properties :
#
#
# Convention : Reuss Voigt Hill
#
# Bulk Modulus (GPa) = 46.06748 58.05442 52.06095
# Shear Modulus (GPa) = 19.62461 22.05293 20.83877
#
# Velocity S-wave (km/s) = 3.48100 3.69009 3.58707
# Velocity P-wave (km/s) = 6.67842 7.34860 7.02151
#
# Compressibility (1/GPa) = 0.02170729
#
# Stress axis : x y z
#
# Youngs Moduli (GPa) = 46.09348 30.81508 66.12239
#
# Poissons Ratio (x) = 0.20739 0.31033
# Poissons Ratio (y) = 0.31022 0.81714
# Poissons Ratio (z) = 0.21633 0.38081
#
# Static dielectric constant tensor:
#      x y z
#    x 3.002910 0.000000 0.000000 
#    y 0.000000 3.064490 0.000000 
#    z 0.000000 0.000000 3.097330 
# 
# 
# High freq. dielectric constant tensor:
#      x y z
#    x 1.605300 0.000000 0.000000 
#    y 0.000000 1.615690 0.000000 
#    z 0.000000 0.000000 1.609150 
# 
# From -- ./inp_files/16710.got.cif
#   From: 2010.03.12/outbox.cif.g09.slc.cpg/sg67_9_cif.got.tgz:16710.got - 2010.04.10 22:41:39.
