data_PCOD8281740
_publ_section_title
;
Structure prediction by ZEFSAII (Michael W. Deem and Ramdas Pophale) SiO2 
 PCOD8281740
Probable space group: C C C A
;
_chemical_formula_sum "Si O2"
_cell_formula_units_Z 96
_cell_length_a 24.198460
_cell_length_b 18.166514
_cell_length_c 13.149687
_cell_angle_alpha 90.000000
_cell_angle_beta 90.000000
_cell_angle_gamma 90.000000
_cell_volume 5780.624265
_symmetry_space_group_name_H-M "C C C A"
_symmetry_group_IT_number 68
_space_group.IT_coordinate_system_code '2'
_symmetry_cell_setting 'orthorhombic'
loop_
_space_group_symop_operation_xyz
x,y,z
-x,1/2-y,z
x,1/2-y,1/2-z
-x,y,1/2-z
-x,-y,-z
x,1/2+y,-z
-x,1/2+y,1/2+z
x,-y,1/2+z
1/2+x,1/2+y,z
1/2-x,-y,z
1/2+x,-y,1/2-z
1/2-x,1/2+y,1/2-z
1/2-x,1/2-y,-z
1/2+x,y,-z
1/2-x,y,1/2+z
1/2+x,1/2-y,1/2+z
loop_
_atom_site_type_symbol
_atom_site_label
_atom_site_fract_x
_atom_site_fract_y
_atom_site_fract_z
Si Si1 0.057159 0.664227 0.874491
Si Si2 0.175262 0.165409 0.444090
Si Si3 0.221973 0.327979 0.698176
Si Si4 0.563463 0.337938 0.851688
Si Si5 0.161412 0.167853 0.002812
Si Si6 0.741848 0.586176 0.607624
O O1 0.064092 0.750285 0.855296
O O2 0.068790 0.630036 0.762923
O O3 0.994865 0.638981 0.904909
O O4 0.100035 0.640820 0.963506
O O5 0.217059 0.174895 0.350217
O O6 0.116493 0.131543 0.410759
O O7 0.168610 0.244711 0.494749
O O8 0.196030 0.106892 0.525283
O O9 0.207445 0.250000 0.750000
O O10 0.176330 0.352201 0.613686
O O11 0.220399 0.392108 0.781237
O O12 0.202174 0.129859 0.083007
O O13 0.750000 0.500000 0.602929
#
# Coordination Sequence:
#
# PCOD8281740 Si02
#       6
#    16  16  16  16  16  16
#     4   8  14  25  43  75 100 125 158 211 247 280
#     4  10  18  30  52  72  96 130 161 204 243 299
#     4  11  18  30  48  72  95 132 168 195 244 295
#     4   8  14  24  45  73 102 122 160 207 253 276
#     4  10  18  31  52  71  98 130 163 202 245 299
#     4  11  22  33  46  72 103 129 162 204 248 295
#
# _framework density 16.607202999999998
#
# number of rings (size 3 to 8) (size 9 to 14) (size 15 to 20)
#    0.000    2.333    3.333    3.000    2.333    2.667 
#    0.000    0.000    0.000    2.000    0.000    2.333 
#    0.000    0.000    0.000    0.000    0.000    0.000 
#
# Total GULP energy -594804.237145 kJ/mol
# GULP energy per Si atom -12391.754941 kJ/mol
# Density = 1.656940 g / cm^3
# Si number density = 16.607203 Si / 1000 Ang^3
#
#
#
# Elastic Constant Matrix: (Units=GPa)
#
#
# Indices 1 2 3 4 5 6 
#
# 1 146.4223 20.6296 66.5306 0.0000 0.0000 0.0000
# 2 20.6296 61.0819 30.4601 0.0000 0.0000 0.0000
# 3 66.5306 30.4601 109.4554 0.0000 0.0000 0.0000
# 4 0.0000 0.0000 0.0000 21.9137 0.0000 0.0000
# 5 0.0000 0.0000 0.0000 0.0000 29.4753 0.0000
# 6 0.0000 0.0000 0.0000 0.0000 0.0000 4.4717
#
#
#
# Elastic Compliance Matrix: (Units=1/GPa)
#
#
# Indices 1 2 3 4 5 6 
#
# 1 0.009443 -0.000380 -0.005634 0.000000 0.000000 0.000000
# 2 -0.000380 0.019025 -0.005064 0.000000 0.000000 0.000000
# 3 -0.005634 -0.005064 0.013970 0.000000 0.000000 0.000000
# 4 0.000000 0.000000 0.000000 0.045634 0.000000 0.000000
# 5 0.000000 0.000000 0.000000 0.000000 0.033927 0.000000
# 6 0.000000 0.000000 0.000000 0.000000 0.000000 0.223629
#
#
# Mechanical properties :
#
#
# Convention : Reuss Voigt Hill
#
# Bulk Modulus (GPa) = 49.30250 61.35558 55.32904
# Shear Modulus (GPa) = 13.34962 24.46143 18.90553
#
# Velocity S-wave (km/s) = 2.83829 3.84205 3.37767
# Velocity P-wave (km/s) = 6.36342 7.53042 6.97138
#
# Compressibility (1/GPa) = 0.02028295
#
# Stress axis : x y z
#
# Youngs Moduli (GPa) = 105.89778 52.56299 71.58242
#
# Poissons Ratio (x) = 0.01996 0.40331
# Poissons Ratio (y) = 0.04020 0.36246
# Poissons Ratio (z) = 0.59664 0.26616
#
# Static dielectric constant tensor:
#      x y z
#    x 3.424160 0.000000 0.000000 
#    y 0.000000 2.660040 0.000000 
#    z 0.000000 0.000000 3.207820 
# 
# 
# High freq. dielectric constant tensor:
#      x y z
#    x 1.638970 0.000000 0.000000 
#    y 0.000000 1.591050 0.000000 
#    z 0.000000 0.000000 1.638620 
# 
# From -- ./inp_files/16440.got.cif
#   From: 2010.03.12/outbox.cif.g09.slc.cpg/sg68_9_cif.got.tgz:16440.got - 2010.04.10 23:14:56.
