data_PCOD8281011
_publ_section_title
;
Structure prediction by ZEFSAII (Michael W. Deem and Ramdas Pophale) SiO2 
 PCOD8281011
Probable space group: C M M A
;
_chemical_formula_sum "Si O2"
_cell_formula_units_Z 112
_cell_length_a 14.942815
_cell_length_b 15.470553
_cell_length_c 23.033670
_cell_angle_alpha 90.000000
_cell_angle_beta 90.000000
_cell_angle_gamma 90.000000
_cell_volume 5324.776678
_symmetry_space_group_name_H-M "C M M A"
_symmetry_group_IT_number 67
_symmetry_cell_setting 'orthorhombic'
loop_
_space_group_symop_operation_xyz
x,y,z
-x,1/2-y,z
x,-y,-z
-x,1/2+y,-z
-x,-y,-z
x,1/2+y,-z
-x,y,z
x,1/2-y,z
1/2+x,1/2+y,z
1/2-x,-y,z
1/2+x,1/2-y,-z
1/2-x,y,-z
1/2-x,1/2-y,-z
1/2+x,y,-z
1/2-x,1/2+y,z
1/2+x,-y,z
loop_
_atom_site_type_symbol
_atom_site_label
_atom_site_fract_x
_atom_site_fract_y
_atom_site_fract_z
Si Si1 0.896122 0.349507 0.449828
Si Si2 0.896448 0.844110 0.421491
Si Si3 0.902319 0.105284 0.843456
Si Si4 0.293418 0.654356 0.144413
Si Si5 0.098103 0.451176 0.233324
Si Si6 0.899920 0.961750 0.939666
Si Si7 0.847824 0.015160 0.356792
O O1 0.881261 0.250000 0.430778
O O2 0.856442 0.364704 0.514555
O O3 0.842950 0.414000 0.407739
O O4 0.000000 0.375661 0.445185
O O5 0.858326 0.750000 0.399014
O O6 0.000000 0.830865 0.432936
O O7 0.883329 0.922066 0.377186
O O8 0.814921 0.163887 0.853468
O O9 0.000000 0.154856 0.840523
O O10 0.887570 0.051183 0.784276
O O11 0.907425 0.039910 0.896084
O O12 0.333550 0.750000 0.143021
O O13 0.327320 0.607868 0.202922
O O14 0.328715 0.606670 0.086305
O O15 0.097115 0.446196 0.303082
O O16 0.000000 0.419691 0.211633
O O17 0.000000 0.920788 0.948208
O O18 0.862646 0.000000 0.000000
O O19 0.750000 0.000000 0.331931
#
# Coordination Sequence:
#
# PCOD8281011 Si02
#       7
#    16  16  16  16  16  16  16
#     4   9  19  36  56  78 107 145 188 234 286 345
#     4   9  19  37  58  78 104 141 187 238 287 340
#     4   9  19  37  58  80 113 158 197 228 274 337
#     4  11  22  36  59  90 121 150 186 239 294 343
#     4  10  21  39  61  80 105 146 194 241 286 340
#     4   9  18  35  60  86 115 156 200 240 282 330
#     4  12  23  34  54  83 114 148 185 230 289 358
#
# _framework density 21.033746000000001
#
# number of rings (size 3 to 8) (size 9 to 14) (size 15 to 20)
#    0.000    2.143    0.000    6.429    0.000    6.000 
#    0.000    5.000    0.000    3.429    0.000    0.000 
#    0.000    0.000    0.000    0.000    0.000    0.000 
#
# Total GULP energy -693909.714970 kJ/mol
# GULP energy per Si atom -12391.244910 kJ/mol
# Density = 2.098587 g / cm^3
# Si number density = 21.033746 Si / 1000 Ang^3
#
#
#
# Elastic Constant Matrix: (Units=GPa)
#
#
# Indices 1 2 3 4 5 6 
#
# 1 106.5335 25.9583 22.0620 0.0000 0.0000 0.0000
# 2 25.9583 104.1310 49.4719 0.0000 0.0000 0.0000
# 3 22.0620 49.4719 114.9672 0.0000 0.0000 0.0000
# 4 0.0000 0.0000 0.0000 6.2611 0.0000 0.0000
# 5 0.0000 0.0000 0.0000 0.0000 8755.2826 0.0000
# 6 0.0000 0.0000 0.0000 0.0000 0.0000 13.4919
#
#
#
# Elastic Compliance Matrix: (Units=1/GPa)
#
#
# Indices 1 2 3 4 5 6 
#
# 1 0.010098 -0.002007 -0.001074 0.000000 0.000000 0.000000
# 2 -0.002007 0.012470 -0.004981 0.000000 0.000000 0.000000
# 3 -0.001074 -0.004981 0.011048 0.000000 0.000000 0.000000
# 4 0.000000 0.000000 0.000000 0.159716 0.000000 0.000000
# 5 0.000000 0.000000 0.000000 0.000000 0.000114 0.000000
# 6 0.000000 0.000000 0.000000 0.000000 0.000000 0.074119
#
#
# Mechanical properties :
#
#
# Convention : Reuss Voigt Hill
#
# Bulk Modulus (GPa) = 57.16998 57.84622 57.50810
# Shear Modulus (GPa) = 17.27003 1770.21642 893.74323
#
# Velocity S-wave (km/s) = 2.86853 29.04195 20.63569
# Velocity P-wave (km/s) = 6.18146 33.94320 24.39622
#
# Compressibility (1/GPa) = 0.01749170
#
# Stress axis : x y z
#
# Youngs Moduli (GPa) = 99.02758 80.19260 90.51736
#
# Poissons Ratio (x) = 0.16095 0.09723
# Poissons Ratio (y) = 0.19875 0.45085
# Poissons Ratio (z) = 0.10637 0.39943
#
# Static dielectric constant tensor:
#      x y z
#    x 4.039970 0.000000 0.000000 
#    y 0.000000 3.771500 0.000000 
#    z 0.000000 0.000000 3.802300 
# 
# 
# High freq. dielectric constant tensor:
#      x y z
#    x 1.834220 0.000000 0.000000 
#    y 0.000000 1.799160 0.000000 
#    z 0.000000 0.000000 1.814950 
# 
# From -- ./inp_files/41913.got.cif
#   From: 2010.03.12/outbox.cif.g09.slc.cpg/sg67_21_cif.got.tgz:41913.got - 2010.04.10 22:41:39.
