data_PCOD8281752
_publ_section_title
;
Structure prediction by ZEFSAII (Michael W. Deem and Ramdas Pophale) SiO2 
 PCOD8281752
Probable space group: C C C A
;
_chemical_formula_sum "Si O2"
_cell_formula_units_Z 112
_cell_length_a 24.133753
_cell_length_b 14.647987
_cell_length_c 16.316517
_cell_angle_alpha 90.000000
_cell_angle_beta 90.000000
_cell_angle_gamma 90.000000
_cell_volume 5768.066613
_symmetry_space_group_name_H-M "C C C A"
_symmetry_group_IT_number 68
_space_group.IT_coordinate_system_code '2'
_symmetry_cell_setting 'orthorhombic'
loop_
_space_group_symop_operation_xyz
x,y,z
-x,1/2-y,z
x,1/2-y,1/2-z
-x,y,1/2-z
-x,-y,-z
x,1/2+y,-z
-x,1/2+y,1/2+z
x,-y,1/2+z
1/2+x,1/2+y,z
1/2-x,-y,z
1/2+x,-y,1/2-z
1/2-x,1/2+y,1/2-z
1/2-x,1/2-y,-z
1/2+x,y,-z
1/2-x,y,1/2+z
1/2+x,1/2-y,1/2+z
loop_
_atom_site_type_symbol
_atom_site_label
_atom_site_fract_x
_atom_site_fract_y
_atom_site_fract_z
Si Si1 0.659915 0.167317 0.200891
Si Si2 0.684572 0.983605 0.462245
Si Si3 0.142268 0.006202 0.207542
Si Si4 0.357794 0.873864 0.420079
Si Si5 0.216537 0.846438 0.776675
Si Si6 0.064305 0.352017 0.230749
Si Si7 0.313157 0.215062 0.486330
O O1 0.629729 0.250000 0.250000
O O2 0.719213 0.153718 0.242866
O O3 0.669673 0.188871 0.106113
O O4 0.629037 0.072851 0.224744
O O5 0.655883 0.031003 0.383006
O O6 0.676094 0.874794 0.459607
O O7 0.750000 0.000000 0.469713
O O8 0.650121 0.027959 0.537182
O O9 0.195590 0.066358 0.228100
O O10 0.090138 0.074512 0.207321
O O11 0.300472 0.859070 0.370819
O O12 0.412794 0.873979 0.361909
O O13 0.357718 0.791741 0.486185
O O14 0.189511 0.750000 0.750000
O O15 0.084367 0.250000 0.250000
O O16 0.000000 0.361423 0.250000
O O17 0.250000 0.250000 0.500000
#
# Coordination Sequence:
#
# PCOD8281752 Si02
#       7
#    16  16  16  16  16  16  16
#     4  11  22  33  50  79 121 164 201 229 282 366
#     4  12  22  33  53  84 126 163 191 230 290 358
#     4  11  22  35  56  82 115 157 204 248 292 353
#     4  11  21  35  54  83 116 153 195 243 296 352
#     4  10  18  31  51  76 111 155 201 237 279 345
#     4  10  22  43  67  85 103 138 197 264 316 352
#     4  12  21  33  51  79 124 164 195 234 288 349
#
# _framework density 19.417252000000001
#
# number of rings (size 3 to 8) (size 9 to 14) (size 15 to 20)
#    0.000    1.000    2.857    7.286    2.000    0.000 
#    0.000    0.714    0.000    2.143    0.000    0.000 
#    0.000    0.000    0.000    0.000    0.000    0.000 
#
# Total GULP energy -693737.037080 kJ/mol
# GULP energy per Si atom -12388.161376 kJ/mol
# Density = 1.937306 g / cm^3
# Si number density = 19.417252 Si / 1000 Ang^3
#
#
#
# Elastic Constant Matrix: (Units=GPa)
#
#
# Indices 1 2 3 4 5 6 
#
# 1 78.7036 32.3127 27.4219 0.0000 0.0000 0.0000
# 2 32.3127 116.7595 36.2431 0.0000 0.0000 0.0000
# 3 27.4219 36.2431 113.1348 0.0000 0.0000 0.0000
# 4 0.0000 0.0000 0.0000 42.7642 0.0000 0.0000
# 5 0.0000 0.0000 0.0000 0.0000 18.5194 0.0000
# 6 0.0000 0.0000 0.0000 0.0000 0.0000 23.7393
#
#
#
# Elastic Compliance Matrix: (Units=1/GPa)
#
#
# Indices 1 2 3 4 5 6 
#
# 1 0.014972 -0.003350 -0.002556 0.000000 0.000000 0.000000
# 2 -0.003350 0.010260 -0.002475 0.000000 0.000000 0.000000
# 3 -0.002556 -0.002475 0.010251 0.000000 0.000000 0.000000
# 4 0.000000 0.000000 0.000000 0.023384 0.000000 0.000000
# 5 0.000000 0.000000 0.000000 0.000000 0.053998 0.000000
# 6 0.000000 0.000000 0.000000 0.000000 0.000000 0.042124
#
#
# Mechanical properties :
#
#
# Convention : Reuss Voigt Hill
#
# Bulk Modulus (GPa) = 53.41352 55.61704 54.51528
# Shear Modulus (GPa) = 28.09139 31.17926 29.63533
#
# Velocity S-wave (km/s) = 3.80771 4.01153 3.91095
# Velocity P-wave (km/s) = 6.84832 7.08250 6.96639
#
# Compressibility (1/GPa) = 0.01872185
#
# Stress axis : x y z
#
# Youngs Moduli (GPa) = 66.79239 97.46660 97.54877
#
# Poissons Ratio (x) = 0.32652 0.24931
# Poissons Ratio (y) = 0.22376 0.24141
# Poissons Ratio (z) = 0.17070 0.24121
#
# Static dielectric constant tensor:
#      x y z
#    x 3.006340 0.000000 0.000000 
#    y 0.000000 4.004050 0.000000 
#    z 0.000000 0.000000 3.652060 
# 
# 
# High freq. dielectric constant tensor:
#      x y z
#    x 1.687860 0.000000 0.000000 
#    y 0.000000 1.782560 0.000000 
#    z 0.000000 0.000000 1.764560 
# 
# From -- ./inp_files/26075.got.cif
#   From: 2010.03.12/outbox.cif.g09.slc.cpg/sg68_14_cif.got.tgz:26075.got - 2010.04.10 23:14:56.
