data_PCOD8281305
_publ_section_title
;
Structure prediction by ZEFSAII (Michael W. Deem and Ramdas Pophale) SiO2 
 PCOD8281305
Probable space group: C M M A
;
_chemical_formula_sum "Si O2"
_cell_formula_units_Z 88
_cell_length_a 16.111233
_cell_length_b 9.086279
_cell_length_c 29.733790
_cell_angle_alpha 90.000000
_cell_angle_beta 90.000000
_cell_angle_gamma 90.000000
_cell_volume 4352.763952
_symmetry_space_group_name_H-M "C M M A"
_symmetry_group_IT_number 67
_symmetry_cell_setting 'orthorhombic'
loop_
_space_group_symop_operation_xyz
x,y,z
-x,1/2-y,z
x,-y,-z
-x,1/2+y,-z
-x,-y,-z
x,1/2+y,-z
-x,y,z
x,1/2-y,z
1/2+x,1/2+y,z
1/2-x,-y,z
1/2+x,1/2-y,-z
1/2-x,y,-z
1/2-x,1/2-y,-z
1/2+x,y,-z
1/2-x,1/2+y,z
1/2+x,-y,z
loop_
_atom_site_type_symbol
_atom_site_label
_atom_site_fract_x
_atom_site_fract_y
_atom_site_fract_z
Si Si1 0.334398 0.424649 0.898574
Si Si2 0.095847 0.922791 0.185024
Si Si3 0.095504 0.090567 0.716228
Si Si4 0.596416 0.078678 0.543769
Si Si5 0.334202 0.423470 0.637826
Si Si6 0.000000 0.423381 0.047615
O O1 0.322330 0.250000 0.899020
O O2 0.250000 0.500000 0.918127
O O3 0.347612 0.481175 0.847927
O O4 0.415931 0.473061 0.926752
O O5 0.106232 0.750000 0.174449
O O6 0.131135 0.959238 0.235302
O O7 0.000000 0.971320 0.179367
O O8 0.134132 0.250000 0.701447
O O9 0.000000 0.116171 0.725723
O O10 0.103593 0.969052 0.677298
O O11 0.500000 0.040914 0.547582
O O12 0.613086 0.250000 0.538138
O O13 0.637661 0.016117 0.589102
O O14 0.635574 0.000000 0.500000
O O15 0.326658 0.250000 0.636078
O O16 0.250000 0.500000 0.651861
O O17 0.000000 0.250000 0.040754
O O18 0.000000 0.500000 0.000000
#
# Coordination Sequence:
#
# PCOD8281305 Si02
#       6
#    16  16  16  16  16   8
#     4  11  23  40  62  93 127 163 208 256 305 364
#     4   9  18  35  60  88 118 155 197 243 297 354
#     4   9  19  36  58  84 113 147 190 235 282 340
#     4   9  19  36  57  79 101 129 171 221 273 334
#     4  11  23  37  53  76 109 146 184 228 278 334
#     4  10  24  44  66  92 126 164 208 258 309 364
#
# _framework density 20.217039
#
# number of rings (size 3 to 8) (size 9 to 14) (size 15 to 20)
#    0.000    2.182    0.909    2.727    0.000    6.182 
#    0.000    7.273    0.000    0.000    0.000    0.000 
#    0.000    0.000    0.000    0.000    0.000    0.000 
#
# Total GULP energy -545456.259661 kJ/mol
# GULP energy per Si atom -12396.733174 kJ/mol
# Density = 2.017102 g / cm^3
# Si number density = 20.217039 Si / 1000 Ang^3
#
#
#
# Elastic Constant Matrix: (Units=GPa)
#
#
# Indices 1 2 3 4 5 6 
#
# 1 88.2752 36.8239 46.9820 0.0000 0.0000 0.0000
# 2 36.8239 66.5850 51.2673 0.0000 0.0000 0.0000
# 3 46.9820 51.2673 145.2527 0.0000 0.0000 0.0000
# 4 0.0000 0.0000 0.0000 38.5931 0.0000 0.0000
# 5 0.0000 0.0000 0.0000 0.0000 15.9136 0.0000
# 6 0.0000 0.0000 0.0000 0.0000 0.0000 28.1022
#
#
#
# Elastic Compliance Matrix: (Units=1/GPa)
#
#
# Indices 1 2 3 4 5 6 
#
# 1 0.015473 -0.006459 -0.002725 0.000000 0.000000 0.000000
# 2 -0.006459 0.023319 -0.006141 0.000000 0.000000 0.000000
# 3 -0.002725 -0.006141 0.009934 0.000000 0.000000 0.000000
# 4 0.000000 0.000000 0.000000 0.025911 0.000000 0.000000
# 5 0.000000 0.000000 0.000000 0.000000 0.062839 0.000000
# 6 0.000000 0.000000 0.000000 0.000000 0.000000 0.035584
#
#
# Mechanical properties :
#
#
# Convention : Reuss Voigt Hill
#
# Bulk Modulus (GPa) = 55.32556 63.36214 59.34385
# Shear Modulus (GPa) = 23.83950 27.52444 25.68197
#
# Velocity S-wave (km/s) = 3.43764 3.69378 3.56801
# Velocity P-wave (km/s) = 6.57128 7.04280 6.81112
#
# Compressibility (1/GPa) = 0.01807483
#
# Stress axis : x y z
#
# Youngs Moduli (GPa) = 64.62934 42.88358 100.66878
#
# Poissons Ratio (x) = 0.27698 0.27432
# Poissons Ratio (y) = 0.41744 0.61824
# Poissons Ratio (z) = 0.17612 0.26336
#
# Static dielectric constant tensor:
#      x y z
#    x 3.629090 0.000000 0.000000 
#    y 0.000000 3.645680 0.000000 
#    z 0.000000 0.000000 3.767810 
# 
# 
# High freq. dielectric constant tensor:
#      x y z
#    x 1.781370 0.000000 0.000000 
#    y 0.000000 1.781570 0.000000 
#    z 0.000000 0.000000 1.796760 
# 
# From -- ./inp_files/45769.got.cif
#   From: 2010.03.12/outbox.cif.g09.slc.cpg/sg67_23_cif.got.tgz:45769.got - 2010.04.10 22:41:39.
