data_PCOD8281173
_publ_section_title
;
Structure prediction by ZEFSAII (Michael W. Deem and Ramdas Pophale) SiO2 
 PCOD8281173
Probable space group: C M M A
;
_chemical_formula_sum "Si O2"
_cell_formula_units_Z 96
_cell_length_a 18.663837
_cell_length_b 23.832747
_cell_length_c 10.721151
_cell_angle_alpha 90.000000
_cell_angle_beta 90.000000
_cell_angle_gamma 90.000000
_cell_volume 4768.880593
_symmetry_space_group_name_H-M "C M M A"
_symmetry_group_IT_number 67
_symmetry_cell_setting 'orthorhombic'
loop_
_space_group_symop_operation_xyz
x,y,z
-x,1/2-y,z
x,-y,-z
-x,1/2+y,-z
-x,-y,-z
x,1/2+y,-z
-x,y,z
x,1/2-y,z
1/2+x,1/2+y,z
1/2-x,-y,z
1/2+x,1/2-y,-z
1/2-x,y,-z
1/2-x,1/2-y,-z
1/2+x,y,-z
1/2-x,1/2+y,z
1/2+x,-y,z
loop_
_atom_site_type_symbol
_atom_site_label
_atom_site_fract_x
_atom_site_fract_y
_atom_site_fract_z
Si Si1 0.665387 0.750000 0.532826
Si Si2 0.295667 0.814646 0.157419
Si Si3 0.921122 0.250000 0.777867
Si Si4 0.918948 0.965381 0.626369
Si Si5 0.084160 0.967257 0.126936
Si Si6 0.359925 0.653148 0.924194
Si Si7 0.318698 0.861378 0.418781
O O1 0.750000 0.750000 0.500000
O O2 0.643716 0.750000 0.677987
O O3 0.636410 0.691558 0.475761
O O4 0.316286 0.750000 0.174957
O O5 0.217431 0.821060 0.100975
O O6 0.287538 0.845168 0.287110
O O7 0.359540 0.844281 0.075910
O O8 0.917762 0.194548 0.863330
O O9 0.000000 0.250000 0.713627
O O10 0.872637 0.911495 0.599263
O O11 0.000000 0.946476 0.653836
O O12 0.914169 0.000000 0.500000
O O13 0.891111 0.999275 0.748730
O O14 0.127923 0.909337 0.126112
O O15 0.000000 0.953619 0.131803
O O16 0.103767 0.000000 0.000000
O O17 0.250000 0.879855 0.500000
#
# Coordination Sequence:
#
# PCOD8281173 Si02
#       7
#     8  16   8  16  16  16  16
#     4  10  22  39  62  89 130 171 208 260 336 396
#     4  11  21  40  64  92 128 169 204 253 332 395
#     4  12  24  36  62 100 127 157 218 281 322 388
#     4  10  24  44  63  88 127 171 210 260 325 385
#     4  10  22  42  65  87 121 169 211 256 320 385
#     4  11  21  39  64  93 124 163 205 263 327 387
#     4  11  23  40  66  94 124 166 217 261 312 381
#
# _framework density 20.130510000000001
#
# number of rings (size 3 to 8) (size 9 to 14) (size 15 to 20)
#    0.000    1.333    2.500    4.000    4.667    1.000 
#    0.000    5.833    0.000    0.000    0.000    0.000 
#    0.000    0.000    0.000    0.000    0.000    0.000 
#
# Total GULP energy -594935.059206 kJ/mol
# GULP energy per Si atom -12394.480400 kJ/mol
# Density = 2.008469 g / cm^3
# Si number density = 20.130510 Si / 1000 Ang^3
#
#
#
# Elastic Constant Matrix: (Units=GPa)
#
#
# Indices 1 2 3 4 5 6 
#
# 1 67.6684 57.7711 39.7423 0.0000 0.0000 0.0000
# 2 57.7711 162.1050 54.4804 0.0000 0.0000 0.0000
# 3 39.7423 54.4804 146.4554 0.0000 0.0000 0.0000
# 4 0.0000 0.0000 0.0000 32.9855 0.0000 0.0000
# 5 0.0000 0.0000 0.0000 0.0000 22.9273 0.0000
# 6 0.0000 0.0000 0.0000 0.0000 0.0000 42.5120
#
#
#
# Elastic Compliance Matrix: (Units=1/GPa)
#
#
# Indices 1 2 3 4 5 6 
#
# 1 0.022802 -0.006911 -0.003617 0.000000 0.000000 0.000000
# 2 -0.006911 0.009145 -0.001526 0.000000 0.000000 0.000000
# 3 -0.003617 -0.001526 0.008377 0.000000 0.000000 0.000000
# 4 0.000000 0.000000 0.000000 0.030316 0.000000 0.000000
# 5 0.000000 0.000000 0.000000 0.000000 0.043616 0.000000
# 6 0.000000 0.000000 0.000000 0.000000 0.000000 0.023523
#
#
# Mechanical properties :
#
#
# Convention : Reuss Voigt Hill
#
# Bulk Modulus (GPa) = 61.66727 75.57962 68.62345
# Shear Modulus (GPa) = 29.88775 34.63396 32.26085
#
# Velocity S-wave (km/s) = 3.85736 4.15236 4.00757
# Velocity P-wave (km/s) = 7.10909 7.78561 7.45503
#
# Compressibility (1/GPa) = 0.01621606
#
# Stress axis : x y z
#
# Youngs Moduli (GPa) = 43.85571 109.35317 119.36963
#
# Poissons Ratio (x) = 0.75570 0.43175
# Poissons Ratio (y) = 0.30307 0.18222
# Poissons Ratio (z) = 0.15862 0.16693
#
# Static dielectric constant tensor:
#      x y z
#    x 3.468790 0.000000 0.000000 
#    y 0.000000 4.156180 0.000000 
#    z 0.000000 0.000000 4.114740 
# 
# 
# High freq. dielectric constant tensor:
#      x y z
#    x 1.759810 0.000000 0.000000 
#    y 0.000000 1.792900 0.000000 
#    z 0.000000 0.000000 1.809370 
# 
# From -- ./inp_files/20890.got.cif
#   From: 2010.03.12/outbox.cif.g09.slc.cpg/sg67_11_cif.got.tgz:20890.got - 2010.04.10 22:41:39.
