data_PCOD8281946
_publ_section_title
;
Structure prediction by ZEFSAII (Michael W. Deem and Ramdas Pophale) SiO2 
 PCOD8281946
Probable space group: C C C A
;
_chemical_formula_sum "Si O2"
_cell_formula_units_Z 92
_cell_length_a 21.117890
_cell_length_b 11.046978
_cell_length_c 19.079374
_cell_angle_alpha 90.000000
_cell_angle_beta 90.000000
_cell_angle_gamma 90.000000
_cell_volume 4451.005529
_symmetry_space_group_name_H-M "C C C A"
_symmetry_group_IT_number 68
_space_group.IT_coordinate_system_code '2'
_symmetry_cell_setting 'orthorhombic'
loop_
_space_group_symop_operation_xyz
x,y,z
-x,1/2-y,z
x,1/2-y,1/2-z
-x,y,1/2-z
-x,-y,-z
x,1/2+y,-z
-x,1/2+y,1/2+z
x,-y,1/2+z
1/2+x,1/2+y,z
1/2-x,-y,z
1/2+x,-y,1/2-z
1/2-x,1/2+y,1/2-z
1/2-x,1/2-y,-z
1/2+x,y,-z
1/2-x,y,1/2+z
1/2+x,1/2-y,1/2+z
loop_
_atom_site_type_symbol
_atom_site_label
_atom_site_fract_x
_atom_site_fract_y
_atom_site_fract_z
Si Si1 0.769945 0.869246 0.831977
Si Si2 0.500000 0.250000 0.750000
Si Si3 0.500000 0.250000 0.974174
Si Si4 0.080970 0.816441 0.322838
Si Si5 0.778916 0.620282 0.325471
Si Si6 0.034337 0.897920 0.099069
Si Si7 0.085014 0.351942 0.365364
O O1 0.754528 0.875747 0.749948
O O2 0.734213 0.750041 0.863834
O O3 0.842542 0.839345 0.845502
O O4 0.750000 0.000000 0.866091
O O5 0.455889 0.162162 0.704601
O O6 0.437661 0.256411 0.924382
O O7 0.507624 0.370671 0.021190
O O8 0.067885 0.750000 0.250000
O O9 0.145356 0.894193 0.319539
O O10 0.082469 0.711313 0.381704
O O11 0.023207 0.905211 0.344071
O O12 0.750000 0.500000 0.364300
O O13 0.074031 0.018435 0.099952
#
# Coordination Sequence:
#
# PCOD8281946 Si02
#       7
#    16   4   8  16  16  16  16
#     4  10  20  34  53  82 115 161 194 236 300 368
#     4  10  24  32  52  98 122 144 182 250 326 374
#     4   9  22  43  55  86 113 162 210 254 297 358
#     4  10  19  35  55  91 121 150 200 249 297 369
#     4  10  20  33  54  82 128 162 194 233 306 375
#     4  10  22  36  65  85 113 159 208 253 308 354
#     4  11  22  37  60  84 126 153 197 250 313 371
#
# _framework density 20.669487
#
# number of rings (size 3 to 8) (size 9 to 14) (size 15 to 20)
#    0.000    2.087    1.739    3.652    4.870    2.783 
#    0.000    0.000    0.000   13.565    0.000    0.000 
#    0.000    0.000    0.000    0.000    0.000    0.000 
#
# Total GULP energy -569910.276570 kJ/mol
# GULP energy per Si atom -12389.353838 kJ/mol
# Density = 2.062244 g / cm^3
# Si number density = 20.669487 Si / 1000 Ang^3
#
#
#
# Elastic Constant Matrix: (Units=GPa)
#
#
# Indices 1 2 3 4 5 6 
#
# 1 131.8425 16.7703 28.1479 0.0000 0.0000 0.0000
# 2 16.7703 108.7873 -1.6252 0.0000 0.0000 0.0000
# 3 28.1479 -1.6252 67.6000 0.0000 0.0000 0.0000
# 4 0.0000 0.0000 0.0000 11.9067 0.0000 0.0000
# 5 0.0000 0.0000 0.0000 0.0000 15.7378 0.0000
# 6 0.0000 0.0000 0.0000 0.0000 0.0000 29.0773
#
#
#
# Elastic Compliance Matrix: (Units=1/GPa)
#
#
# Indices 1 2 3 4 5 6 
#
# 1 0.008523 -0.001367 -0.003582 0.000000 0.000000 0.000000
# 2 -0.001367 0.009415 0.000796 0.000000 0.000000 0.000000
# 3 -0.003582 0.000796 0.016304 0.000000 0.000000 0.000000
# 4 0.000000 0.000000 0.000000 0.083986 0.000000 0.000000
# 5 0.000000 0.000000 0.000000 0.000000 0.063541 0.000000
# 6 0.000000 0.000000 0.000000 0.000000 0.000000 0.034391
#
#
# Mechanical properties :
#
#
# Convention : Reuss Voigt Hill
#
# Bulk Modulus (GPa) = 38.55853 43.86840 41.21346
# Shear Modulus (GPa) = 21.44884 29.00682 25.22783
#
# Velocity S-wave (km/s) = 3.22484 3.75021 3.49741
# Velocity P-wave (km/s) = 5.70626 6.32629 6.02426
#
# Compressibility (1/GPa) = 0.02593460
#
# Stress axis : x y z
#
# Youngs Moduli (GPa) = 117.32289 106.21411 61.33645
#
# Poissons Ratio (x) = 0.14524 0.21970
# Poissons Ratio (y) = 0.16044 -0.04881
# Poissons Ratio (z) = 0.42025 -0.08452
#
# Static dielectric constant tensor:
#      x y z
#    x 3.701020 0.000000 0.000000 
#    y 0.000000 4.463700 0.000000 
#    z 0.000000 0.000000 3.587600 
# 
# 
# High freq. dielectric constant tensor:
#      x y z
#    x 1.807180 0.000000 0.000000 
#    y 0.000000 1.817410 0.000000 
#    z 0.000000 0.000000 1.767220 
# 
# From -- ./inp_files/32848.got.cif
#   From: 2010.03.12/outbox.cif.g09.slc.cpg/sg68_17_cif.got.tgz:32848.got - 2010.04.10 23:14:56.
