data_PCOD8282705
_publ_section_title
;
Structure prediction by ZEFSAII (Michael W. Deem and Ramdas Pophale) SiO2 
 PCOD8282705
Probable space group: C C C A
;
_chemical_formula_sum "Si O2"
_cell_formula_units_Z 88
_cell_length_a 12.192809
_cell_length_b 12.212696
_cell_length_c 28.486410
_cell_angle_alpha 90.000000
_cell_angle_beta 90.000000
_cell_angle_gamma 90.000000
_cell_volume 4241.827839
_symmetry_space_group_name_H-M "C C C A"
_symmetry_group_IT_number 68
_space_group.IT_coordinate_system_code '2'
_symmetry_cell_setting 'orthorhombic'
loop_
_space_group_symop_operation_xyz
x,y,z
-x,1/2-y,z
x,1/2-y,1/2-z
-x,y,1/2-z
-x,-y,-z
x,1/2+y,-z
-x,1/2+y,1/2+z
x,-y,1/2+z
1/2+x,1/2+y,z
1/2-x,-y,z
1/2+x,-y,1/2-z
1/2-x,1/2+y,1/2-z
1/2-x,1/2-y,-z
1/2+x,y,-z
1/2-x,y,1/2+z
1/2+x,1/2-y,1/2+z
loop_
_atom_site_type_symbol
_atom_site_label
_atom_site_fract_x
_atom_site_fract_y
_atom_site_fract_z
Si Si1 0.136115 0.546793 0.638566
Si Si2 0.050652 0.369589 0.864994
Si Si3 0.615842 0.624773 0.259146
Si Si4 0.750000 0.500000 0.686116
Si Si5 0.047894 0.866144 0.952792
Si Si6 0.866552 0.951114 0.456612
O O1 0.250000 0.500000 0.619800
O O2 0.157546 0.605575 0.688055
O O3 0.098728 0.634420 0.599423
O O4 0.048833 0.450964 0.644192
O O5 0.159129 0.425959 0.841223
O O6 0.087702 0.361560 0.919376
O O7 0.000000 0.250000 0.848798
O O8 0.597373 0.750000 0.250000
O O9 0.500000 0.563013 0.250000
O O10 0.699753 0.589328 0.220029
O O11 0.000000 0.750000 0.965119
O O12 0.139511 0.895588 0.992009
O O13 0.948571 0.948594 0.956541
O O14 0.750000 0.000000 0.441528
#
# Coordination Sequence:
#
# PCOD8282705 Si02
#       6
#    16  16  16   8  16  16
#     4  11  24  43  62  95 129 168 222 279 324 415
#     4  11  25  42  68  98 134 175 222 276 346 401
#     4  11  25  42  66  91 128 169 216 273 338 393
#     4  12  24  44  66 100 128 174 226 284 330 424
#     4  10  23  38  63  94 130 172 221 268 335 398
#     4  10  21  41  63  94 134 172 218 277 327 408
#
# _framework density 20.745773
#
# number of rings (size 3 to 8) (size 9 to 14) (size 15 to 20)
#    0.000    1.273    3.636    1.091    5.091    2.182 
#    0.000    0.909    0.000    0.000    0.000    0.000 
#    0.000    0.000    0.000    0.000    0.000    0.000 
#
# Total GULP energy -545136.620572 kJ/mol
# GULP energy per Si atom -12389.468649 kJ/mol
# Density = 2.069855 g / cm^3
# Si number density = 20.745773 Si / 1000 Ang^3
#
#
#
# Elastic Constant Matrix: (Units=GPa)
#
#
# Indices 1 2 3 4 5 6 
#
# 1 127.0195 40.5413 38.6873 0.0000 0.0000 0.0000
# 2 40.5413 86.2592 49.4601 0.0000 0.0000 0.0000
# 3 38.6873 49.4601 128.7188 0.0000 0.0000 0.0000
# 4 0.0000 0.0000 0.0000 23.4260 0.0000 0.0000
# 5 0.0000 0.0000 0.0000 0.0000 26.0915 0.0000
# 6 0.0000 0.0000 0.0000 0.0000 0.0000 29.6347
#
#
#
# Elastic Compliance Matrix: (Units=1/GPa)
#
#
# Indices 1 2 3 4 5 6 
#
# 1 0.009471 -0.003616 -0.001457 0.000000 0.000000 0.000000
# 2 -0.003616 0.016249 -0.005157 0.000000 0.000000 0.000000
# 3 -0.001457 -0.005157 0.010188 0.000000 0.000000 0.000000
# 4 0.000000 0.000000 0.000000 0.042688 0.000000 0.000000
# 5 0.000000 0.000000 0.000000 0.000000 0.038327 0.000000
# 6 0.000000 0.000000 0.000000 0.000000 0.000000 0.033744
#
#
# Mechanical properties :
#
#
# Convention : Reuss Voigt Hill
#
# Bulk Modulus (GPa) = 64.73060 66.59720 65.66390
# Shear Modulus (GPa) = 28.36460 30.05104 29.20782
#
# Velocity S-wave (km/s) = 3.70164 3.81010 3.75626
# Velocity P-wave (km/s) = 7.03840 7.17823 7.10866
#
# Compressibility (1/GPa) = 0.01544864
#
# Stress axis : x y z
#
# Youngs Moduli (GPa) = 105.58949 61.54109 98.15039
#
# Poissons Ratio (x) = 0.22251 0.14302
# Poissons Ratio (y) = 0.38177 0.50617
# Poissons Ratio (z) = 0.15386 0.31737
#
# Static dielectric constant tensor:
#      x y z
#    x 4.032740 0.000000 0.000000 
#    y 0.000000 3.669800 0.000000 
#    z 0.000000 0.000000 3.991220 
# 
# 
# High freq. dielectric constant tensor:
#      x y z
#    x 1.826470 0.000000 0.000000 
#    y 0.000000 1.800820 0.000000 
#    z 0.000000 0.000000 1.825020 
# 
# From -- ./inp_files/54652.got.cif
#   From: 2010.03.12/outbox.cif.g09.slc.cpg/sg68_28_cif.got.tgz:54652.got - 2010.04.10 23:14:56.
