data_PCOD8282550
_publ_section_title
;
Structure prediction by ZEFSAII (Michael W. Deem and Ramdas Pophale) SiO2 
 PCOD8282550
Probable space group: C C C A
;
_chemical_formula_sum "Si O2"
_cell_formula_units_Z 68
_cell_length_a 18.436965
_cell_length_b 17.924488
_cell_length_c 9.322895
_cell_angle_alpha 90.000000
_cell_angle_beta 90.000000
_cell_angle_gamma 90.000000
_cell_volume 3080.966551
_symmetry_space_group_name_H-M "C C C A"
_symmetry_group_IT_number 68
_space_group.IT_coordinate_system_code '2'
_symmetry_cell_setting 'orthorhombic'
loop_
_space_group_symop_operation_xyz
x,y,z
-x,1/2-y,z
x,1/2-y,1/2-z
-x,y,1/2-z
-x,-y,-z
x,1/2+y,-z
-x,1/2+y,1/2+z
x,-y,1/2+z
1/2+x,1/2+y,z
1/2-x,-y,z
1/2+x,-y,1/2-z
1/2-x,1/2+y,1/2-z
1/2-x,1/2-y,-z
1/2+x,y,-z
1/2-x,y,1/2+z
1/2+x,1/2-y,1/2+z
loop_
_atom_site_type_symbol
_atom_site_label
_atom_site_fract_x
_atom_site_fract_y
_atom_site_fract_z
Si Si1 0.392734 0.321646 0.537425
Si Si2 0.221542 0.337756 0.249094
Si Si3 0.495738 0.074239 0.410732
Si Si4 0.846755 0.839939 0.047637
Si Si5 0.000000 0.750000 0.750000
O O1 0.331146 0.368378 0.622829
O O2 0.433025 0.374196 0.424784
O O3 0.359726 0.249355 0.456895
O O4 0.451838 0.303113 0.655442
O O5 0.207353 0.250000 0.250000
O O6 0.200879 0.367254 0.408272
O O7 0.303032 0.357967 0.195763
O O8 0.500000 0.046537 0.250000
O O9 0.423100 0.118828 0.451989
O O10 0.500000 0.000000 0.500000
#
# Coordination Sequence:
#
# PCOD8282550 Si02
#       5
#    16  16  16  16   4
#     4  11  20  40  70 102 134 178 228 284 346 404
#     4  10  21  37  70 103 141 172 212 281 344 415
#     4  12  30  46  70  96 137 186 239 290 335 407
#     4  11  23  42  71 105 139 172 224 283 346 412
#     4  12  16  36  70 100 136 184 214 284 344 416
#
# _framework density 22.070996999999998
#
# number of rings (size 3 to 8) (size 9 to 14) (size 15 to 20)
#    0.000    0.941    5.882    2.824   11.529    0.941 
#    0.000    1.176    0.000    0.000    0.000    0.000 
#    0.000    0.000    0.000    0.000    0.000    0.000 
#
# Total GULP energy -421431.661559 kJ/mol
# GULP energy per Si atom -12395.048869 kJ/mol
# Density = 2.202076 g / cm^3
# Si number density = 22.070997 Si / 1000 Ang^3
#
#
#
# Elastic Constant Matrix: (Units=GPa)
#
#
# Indices 1 2 3 4 5 6 
#
# 1 119.0451 28.7968 47.6046 0.0000 0.0000 0.0000
# 2 28.7968 65.9292 40.4771 0.0000 0.0000 0.0000
# 3 47.6046 40.4771 127.9317 0.0000 0.0000 0.0000
# 4 0.0000 0.0000 0.0000 26.8152 0.0000 0.0000
# 5 0.0000 0.0000 0.0000 0.0000 63.0135 0.0000
# 6 0.0000 0.0000 0.0000 0.0000 0.0000 6.7012
#
#
#
# Elastic Compliance Matrix: (Units=1/GPa)
#
#
# Indices 1 2 3 4 5 6 
#
# 1 0.010227 -0.002644 -0.002969 0.000000 0.000000 0.000000
# 2 -0.002644 0.019508 -0.005188 0.000000 0.000000 0.000000
# 3 -0.002969 -0.005188 0.010563 0.000000 0.000000 0.000000
# 4 0.000000 0.000000 0.000000 0.037292 0.000000 0.000000
# 5 0.000000 0.000000 0.000000 0.000000 0.015870 0.000000
# 6 0.000000 0.000000 0.000000 0.000000 0.000000 0.149227
#
#
# Mechanical properties :
#
#
# Convention : Reuss Voigt Hill
#
# Bulk Modulus (GPa) = 53.48988 60.74034 57.11511
# Shear Modulus (GPa) = 18.48281 32.37449 25.42865
#
# Velocity S-wave (km/s) = 2.89697 3.83408 3.39799
# Velocity P-wave (km/s) = 5.95633 6.86880 6.42878
#
# Compressibility (1/GPa) = 0.01869512
#
# Stress axis : x y z
#
# Youngs Moduli (GPa) = 97.77982 51.26066 94.66980
#
# Poissons Ratio (x) = 0.13554 0.28107
# Poissons Ratio (y) = 0.25855 0.49118
# Poissons Ratio (z) = 0.29030 0.26596
#
# Static dielectric constant tensor:
#      x y z
#    x 4.677990 0.000000 0.000000 
#    y 0.000000 3.398950 0.000000 
#    z 0.000000 0.000000 4.147740 
# 
# 
# High freq. dielectric constant tensor:
#      x y z
#    x 1.894910 0.000000 0.000000 
#    y 0.000000 1.801410 0.000000 
#    z 0.000000 0.000000 1.888840 
# 
# From -- ./inp_files/5921.got.cif
#   From: 2010.03.12/outbox.cif.g09.slc.cpg/sg68_3_cif.got.tgz:5921.got - 2010.04.10 23:14:56.
