data_PCOD8282611
_publ_section_title
;
Structure prediction by ZEFSAII (Michael W. Deem and Ramdas Pophale) SiO2 
 PCOD8282611
Probable space group: C C C A
;
_chemical_formula_sum "Si O2"
_cell_formula_units_Z 80
_cell_length_a 14.027048
_cell_length_b 24.876534
_cell_length_c 11.404482
_cell_angle_alpha 90.000000
_cell_angle_beta 90.000000
_cell_angle_gamma 90.000000
_cell_volume 3979.529405
_symmetry_space_group_name_H-M "C C C A"
_symmetry_group_IT_number 68
_space_group.IT_coordinate_system_code '2'
_symmetry_cell_setting 'orthorhombic'
loop_
_space_group_symop_operation_xyz
x,y,z
-x,1/2-y,z
x,1/2-y,1/2-z
-x,y,1/2-z
-x,-y,-z
x,1/2+y,-z
-x,1/2+y,1/2+z
x,-y,1/2+z
1/2+x,1/2+y,z
1/2-x,-y,z
1/2+x,-y,1/2-z
1/2-x,1/2+y,1/2-z
1/2-x,1/2-y,-z
1/2+x,y,-z
1/2-x,y,1/2+z
1/2+x,1/2-y,1/2+z
loop_
_atom_site_type_symbol
_atom_site_label
_atom_site_fract_x
_atom_site_fract_y
_atom_site_fract_z
Si Si1 0.154124 0.469100 0.216576
Si Si2 0.532619 0.543501 0.907865
Si Si3 0.002560 0.689521 0.888736
Si Si4 0.158431 0.107614 0.069573
Si Si5 0.867654 0.394383 0.503196
O O1 0.250000 0.500000 0.250517
O O2 0.069438 0.514238 0.211231
O O3 0.127924 0.426842 0.316752
O O4 0.158693 0.440283 0.090856
O O5 0.500000 0.500000 0.000000
O O6 0.626160 0.574731 0.955346
O O7 0.442619 0.584376 0.897567
O O8 0.101956 0.663508 0.928856
O O9 0.000000 0.750000 0.938746
O O10 0.000000 0.689408 0.750000
O O11 0.911742 0.657263 0.938757
O O12 0.270422 0.121357 0.068991
#
# Coordination Sequence:
#
# PCOD8282611 Si02
#       5
#    16  16  16  16  16
#     4  11  21  34  53  80 122 167 188 235 292 353
#     4   9  21  34  50  78 118 156 198 230 283 355
#     4  10  21  41  66  87 114 155 205 265 316 350
#     4  11  22  38  57  86 120 157 205 249 291 370
#     4  10  21  39  57  89 118 154 208 249 291 369
#
# _framework density 20.102881
#
# number of rings (size 3 to 8) (size 9 to 14) (size 15 to 20)
#    0.000    1.800    4.000    0.000    5.600    0.800 
#    0.000    0.000    0.000    0.000    0.000    1.400 
#    0.000    0.000    0.000    0.000    0.000    0.000 
#
# Total GULP energy -495835.127489 kJ/mol
# GULP energy per Si atom -12395.878187 kJ/mol
# Density = 2.005713 g / cm^3
# Si number density = 20.102881 Si / 1000 Ang^3
#
#
#
# Elastic Constant Matrix: (Units=GPa)
#
#
# Indices 1 2 3 4 5 6 
#
# 1 165.8658 64.9415 33.0841 0.0000 0.0000 0.0000
# 2 64.9415 134.7744 28.2516 0.0000 0.0000 0.0000
# 3 33.0841 28.2516 50.0808 0.0000 0.0000 0.0000
# 4 0.0000 0.0000 0.0000 25.5490 0.0000 0.0000
# 5 0.0000 0.0000 0.0000 0.0000 27.3662 0.0000
# 6 0.0000 0.0000 0.0000 0.0000 0.0000 25.1606
#
#
#
# Elastic Compliance Matrix: (Units=1/GPa)
#
#
# Indices 1 2 3 4 5 6 
#
# 1 0.007937 -0.003091 -0.003500 0.000000 0.000000 0.000000
# 2 -0.003091 0.009619 -0.003384 0.000000 0.000000 0.000000
# 3 -0.003500 -0.003384 0.024189 0.000000 0.000000 0.000000
# 4 0.000000 0.000000 0.000000 0.039140 0.000000 0.000000
# 5 0.000000 0.000000 0.000000 0.000000 0.036541 0.000000
# 6 0.000000 0.000000 0.000000 0.000000 0.000000 0.039745
#
#
# Mechanical properties :
#
#
# Convention : Reuss Voigt Hill
#
# Bulk Modulus (GPa) = 45.88228 67.03061 56.45645
# Shear Modulus (GPa) = 27.11705 30.57808 28.84756
#
# Velocity S-wave (km/s) = 3.67674 3.90433 3.79224
# Velocity P-wave (km/s) = 6.39514 7.33084 6.87892
#
# Compressibility (1/GPa) = 0.02179490
#
# Stress axis : x y z
#
# Youngs Moduli (GPa) = 125.98804 103.96551 41.34149
#
# Poissons Ratio (x) = 0.32135 0.14469
# Poissons Ratio (y) = 0.38942 0.13990
# Poissons Ratio (z) = 0.44093 0.35183
#
# Static dielectric constant tensor:
#      x y z
#    x 3.944060 0.000000 0.000000 
#    y 0.000000 3.449470 0.000000 
#    z 0.000000 0.000000 3.491380 
# 
# 
# High freq. dielectric constant tensor:
#      x y z
#    x 1.806500 0.000000 0.000000 
#    y 0.000000 1.762560 0.000000 
#    z 0.000000 0.000000 1.767710 
# 
# From -- ./inp_files/13178.got.cif
#   From: 2010.03.12/outbox.cif.g09.slc.cpg/sg68_7_cif.got.tgz:13178.got - 2010.04.10 23:14:56.
