data_PCOD8282922
_publ_section_title
;
Structure prediction by ZEFSAII (Michael W. Deem and Ramdas Pophale) SiO2 
 PCOD8282922
Probable space group: C C C A
;
_chemical_formula_sum "Si O2"
_cell_formula_units_Z 116
_cell_length_a 23.951576
_cell_length_b 8.779971
_cell_length_c 27.638793
_cell_angle_alpha 90.000000
_cell_angle_beta 90.000000
_cell_angle_gamma 90.000000
_cell_volume 5812.276279
_symmetry_space_group_name_H-M "C C C A"
_symmetry_group_IT_number 68
_space_group.IT_coordinate_system_code '2'
_symmetry_cell_setting 'orthorhombic'
loop_
_space_group_symop_operation_xyz
x,y,z
-x,1/2-y,z
x,1/2-y,1/2-z
-x,y,1/2-z
-x,-y,-z
x,1/2+y,-z
-x,1/2+y,1/2+z
x,-y,1/2+z
1/2+x,1/2+y,z
1/2-x,-y,z
1/2+x,-y,1/2-z
1/2-x,1/2+y,1/2-z
1/2-x,1/2-y,-z
1/2+x,y,-z
1/2-x,y,1/2+z
1/2+x,1/2-y,1/2+z
loop_
_atom_site_type_symbol
_atom_site_label
_atom_site_fract_x
_atom_site_fract_y
_atom_site_fract_z
Si Si1 0.000000 0.750000 0.250000
Si Si2 0.862393 0.681378 0.601636
Si Si3 0.440986 0.332776 0.523688
Si Si4 0.748227 0.823291 0.948476
Si Si5 0.089712 0.276488 0.197121
Si Si6 0.462161 0.881011 0.915667
Si Si7 0.505437 0.493214 0.680869
Si Si8 0.626737 0.163671 0.423114
O O1 0.030609 0.633284 0.287077
O O2 0.908431 0.750382 0.566712
O O3 0.800440 0.725130 0.584263
O O4 0.865119 0.763823 0.654278
O O5 0.874070 0.499499 0.603863
O O6 0.500000 0.250000 0.517181
O O7 0.449572 0.507361 0.539999
O O8 0.401683 0.341022 0.476380
O O9 0.690119 0.776574 0.923711
O O10 0.750000 0.000000 0.958405
O O11 0.750000 0.750000 0.000000
O O12 0.117399 0.250000 0.250000
O O13 0.046646 0.145091 0.183993
O O14 0.056096 0.436986 0.198880
O O15 0.500000 0.750000 0.939970
O O16 0.406810 0.796403 0.894116
O O17 0.499060 0.959624 0.874621
#
# Coordination Sequence:
#
# PCOD8282922 Si02
#       8
#     4  16  16  16  16  16  16  16
#     4  12  20  34  60  92 116 158 208 248 304 346
#     4  11  23  39  61  90 121 164 212 259 304 372
#     4  12  23  37  57  85 129 168 204 244 307 378
#     4  10  22  41  64  89 117 159 213 265 311 362
#     4  11  21  39  59  88 123 167 207 240 305 368
#     4  12  24  36  55  88 128 164 200 248 310 365
#     4  11  21  35  58  87 127 161 198 251 295 369
#     4  11  24  39  59  88 122 162 207 259 316 364
#
# _framework density 19.957757000000001
#
# number of rings (size 3 to 8) (size 9 to 14) (size 15 to 20)
#    0.000    0.828    4.828    4.138    1.931    1.655 
#    0.000    0.000    0.000    0.000   12.552    0.000 
#    0.000    0.000    0.000    0.000    0.000    0.000 
#
# Total GULP energy -718605.607929 kJ/mol
# GULP energy per Si atom -12389.751861 kJ/mol
# Density = 1.991233 g / cm^3
# Si number density = 19.957757 Si / 1000 Ang^3
#
#
#
# Elastic Constant Matrix: (Units=GPa)
#
#
# Indices 1 2 3 4 5 6 
#
# 1 121.4562 31.4860 35.5687 0.0000 0.0000 0.0000
# 2 31.4860 76.5877 16.0463 0.0000 0.0000 0.0000
# 3 35.5687 16.0463 119.4372 0.0000 0.0000 0.0000
# 4 0.0000 0.0000 0.0000 28.6419 0.0000 0.0000
# 5 0.0000 0.0000 0.0000 0.0000 14.9457 0.0000
# 6 0.0000 0.0000 0.0000 0.0000 0.0000 24.0584
#
#
#
# Elastic Compliance Matrix: (Units=1/GPa)
#
#
# Indices 1 2 3 4 5 6 
#
# 1 0.009874 -0.003543 -0.002464 0.000000 0.000000 0.000000
# 2 -0.003543 0.014706 -0.000921 0.000000 0.000000 0.000000
# 3 -0.002464 -0.000921 0.009230 0.000000 0.000000 0.000000
# 4 0.000000 0.000000 0.000000 0.034914 0.000000 0.000000
# 5 0.000000 0.000000 0.000000 0.000000 0.066909 0.000000
# 6 0.000000 0.000000 0.000000 0.000000 0.000000 0.041566
#
#
# Mechanical properties :
#
#
# Convention : Reuss Voigt Hill
#
# Bulk Modulus (GPa) = 50.11467 53.74256 51.92861
# Shear Modulus (GPa) = 25.29011 29.15453 27.22232
#
# Velocity S-wave (km/s) = 3.56361 3.82620 3.69724
# Velocity P-wave (km/s) = 6.48824 6.81956 6.65596
#
# Compressibility (1/GPa) = 0.01995424
#
# Stress axis : x y z
#
# Youngs Moduli (GPa) = 101.28068 67.99799 108.33992
#
# Poissons Ratio (x) = 0.24090 0.26699
# Poissons Ratio (y) = 0.35882 0.09975
# Poissons Ratio (z) = 0.24960 0.06261
#
# Static dielectric constant tensor:
#      x y z
#    x 3.955680 0.000000 0.000000 
#    y 0.000000 3.598150 0.000000 
#    z 0.000000 0.000000 3.701800 
# 
# 
# High freq. dielectric constant tensor:
#      x y z
#    x 1.752730 0.000000 0.000000 
#    y 0.000000 1.795840 0.000000 
#    z 0.000000 0.000000 1.774770 
# 
# From -- ./inp_files/52204.got.cif
#   From: 2010.03.12/outbox.cif.g09.slc.cpg/sg68_27_cif.got.tgz:52204.got - 2010.04.10 23:14:56.
