data_PCOD8282694
_publ_section_title
;
Structure prediction by ZEFSAII (Michael W. Deem and Ramdas Pophale) SiO2 
 PCOD8282694
Probable space group: C C C A
;
_chemical_formula_sum "Si O2"
_cell_formula_units_Z 96
_cell_length_a 22.542153
_cell_length_b 20.107450
_cell_length_c 9.609969
_cell_angle_alpha 90.000000
_cell_angle_beta 90.000000
_cell_angle_gamma 90.000000
_cell_volume 4355.864659
_symmetry_space_group_name_H-M "C C C A"
_symmetry_group_IT_number 68
_space_group.IT_coordinate_system_code '2'
_symmetry_cell_setting 'orthorhombic'
loop_
_space_group_symop_operation_xyz
x,y,z
-x,1/2-y,z
x,1/2-y,1/2-z
-x,y,1/2-z
-x,-y,-z
x,1/2+y,-z
-x,1/2+y,1/2+z
x,-y,1/2+z
1/2+x,1/2+y,z
1/2-x,-y,z
1/2+x,-y,1/2-z
1/2-x,1/2+y,1/2-z
1/2-x,1/2-y,-z
1/2+x,y,-z
1/2-x,y,1/2+z
1/2+x,1/2-y,1/2+z
loop_
_atom_site_type_symbol
_atom_site_label
_atom_site_fract_x
_atom_site_fract_y
_atom_site_fract_z
Si Si1 0.937170 0.192262 0.672249
Si Si2 0.365825 0.506775 0.449181
Si Si3 0.893411 0.747709 0.596116
Si Si4 0.203521 0.363660 0.375255
Si Si5 0.314389 0.370564 0.555755
Si Si6 0.933096 0.454917 0.801610
O O1 0.898544 0.250000 0.750000
O O2 0.941258 0.215266 0.510343
O O3 0.908583 0.120608 0.693700
O O4 0.000000 0.189622 0.750000
O O5 0.323219 0.570533 0.448057
O O6 0.331420 0.444039 0.508129
O O7 0.424877 0.517392 0.543099
O O8 0.388828 0.496218 0.293927
O O9 0.923027 0.750000 0.750000
O O10 0.836877 0.700072 0.599383
O O11 0.871606 0.821421 0.550489
O O12 0.265311 0.345143 0.447589
O O13 0.212671 0.374478 0.210787
O O14 0.000000 0.461702 0.750000
#
# Coordination Sequence:
#
# PCOD8282694 Si02
#       6
#    16  16  16  16  16  16
#     4  10  21  40  66  97 129 171 225 270 327 391
#     4  12  23  42  64  96 132 172 218 275 331 392
#     4  10  22  43  65  94 134 176 216 275 334 391
#     4  11  24  41  63  93 131 170 220 271 329 400
#     4  11  25  40  65  96 129 173 220 266 337 396
#     4  11  24  42  67  96 131 177 221 277 330 395
#
# _framework density 22.039252000000001
#
# number of rings (size 3 to 8) (size 9 to 14) (size 15 to 20)
#    0.000    1.167    3.333    2.500    2.333    2.667 
#    0.000    1.667    0.000    0.000    0.000    0.000 
#    0.000    0.000    0.000    0.000    0.000    0.000 
#
# Total GULP energy -594976.708635 kJ/mol
# GULP energy per Si atom -12395.348097 kJ/mol
# Density = 2.198909 g / cm^3
# Si number density = 22.039252 Si / 1000 Ang^3
#
#
#
# Elastic Constant Matrix: (Units=GPa)
#
#
# Indices 1 2 3 4 5 6 
#
# 1 48.6114 -2.7252 30.4691 0.0000 0.0000 0.0000
# 2 -2.7252 74.5401 9.4629 0.0000 0.0000 0.0000
# 3 30.4691 9.4629 116.3843 0.0000 0.0000 0.0000
# 4 0.0000 0.0000 0.0000 39.8543 0.0000 0.0000
# 5 0.0000 0.0000 0.0000 0.0000 40.3990 0.0000
# 6 0.0000 0.0000 0.0000 0.0000 0.0000 24.2002
#
#
#
# Elastic Compliance Matrix: (Units=1/GPa)
#
#
# Indices 1 2 3 4 5 6 
#
# 1 0.024834 0.001751 -0.006644 0.000000 0.000000 0.000000
# 2 0.001751 0.013679 -0.001571 0.000000 0.000000 0.000000
# 3 -0.006644 -0.001571 0.010459 0.000000 0.000000 0.000000
# 4 0.000000 0.000000 0.000000 0.025091 0.000000 0.000000
# 5 0.000000 0.000000 0.000000 0.000000 0.024753 0.000000
# 6 0.000000 0.000000 0.000000 0.000000 0.000000 0.041322
#
#
# Mechanical properties :
#
#
# Convention : Reuss Voigt Hill
#
# Bulk Modulus (GPa) = 27.74251 34.88328 31.31290
# Shear Modulus (GPa) = 30.28830 34.37928 32.33379
#
# Velocity S-wave (km/s) = 3.71116 3.95386 3.83443
# Velocity P-wave (km/s) = 5.56585 6.05856 5.81742
#
# Compressibility (1/GPa) = 0.03604576
#
# Stress axis : x y z
#
# Youngs Moduli (GPa) = 40.26771 73.10461 95.60896
#
# Poissons Ratio (x) = -0.12803 0.63521
# Poissons Ratio (y) = -0.07052 0.15017
# Poissons Ratio (z) = 0.26753 0.11483
#
# Static dielectric constant tensor:
#      x y z
#    x 3.503090 0.000000 0.000000 
#    y 0.000000 4.788210 0.000000 
#    z 0.000000 0.000000 4.442560 
# 
# 
# High freq. dielectric constant tensor:
#      x y z
#    x 1.831680 0.000000 0.000000 
#    y 0.000000 1.889860 0.000000 
#    z 0.000000 0.000000 1.887140 
# 
# From -- ./inp_files/7278.got.cif
#   From: 2010.03.12/outbox.cif.g09.slc.cpg/sg68_4_cif.got.tgz:7278.got - 2010.04.10 23:14:56.
