data_PCOD8282740
_publ_section_title
;
Structure prediction by ZEFSAII (Michael W. Deem and Ramdas Pophale) SiO2 
 PCOD8282740
Probable space group: C C C A
;
_chemical_formula_sum "Si O2"
_cell_formula_units_Z 72
_cell_length_a 25.778862
_cell_length_b 8.628712
_cell_length_c 13.674215
_cell_angle_alpha 90.000000
_cell_angle_beta 90.000000
_cell_angle_gamma 90.000000
_cell_volume 3041.670176
_symmetry_space_group_name_H-M "C C C A"
_symmetry_group_IT_number 68
_space_group.IT_coordinate_system_code '2'
_symmetry_cell_setting 'orthorhombic'
loop_
_space_group_symop_operation_xyz
x,y,z
-x,1/2-y,z
x,1/2-y,1/2-z
-x,y,1/2-z
-x,-y,-z
x,1/2+y,-z
-x,1/2+y,1/2+z
x,-y,1/2+z
1/2+x,1/2+y,z
1/2-x,-y,z
1/2+x,-y,1/2-z
1/2-x,1/2+y,1/2-z
1/2-x,1/2-y,-z
1/2+x,y,-z
1/2-x,y,1/2+z
1/2+x,1/2-y,1/2+z
loop_
_atom_site_type_symbol
_atom_site_label
_atom_site_fract_x
_atom_site_fract_y
_atom_site_fract_z
Si Si1 0.678287 0.545379 0.584070
Si Si2 0.800635 0.204317 0.113248
Si Si3 0.607247 0.250000 0.750000
Si Si4 0.784500 0.250000 0.750000
Si Si5 0.063594 0.033958 0.099785
Si Si6 0.500000 0.750000 0.541300
O O1 0.703455 0.631752 0.492855
O O2 0.710129 0.388673 0.603243
O O3 0.678197 0.645362 0.683413
O O4 0.619240 0.509068 0.555744
O O5 0.856210 0.174887 0.165631
O O6 0.752855 0.145082 0.180029
O O7 0.570766 0.114214 0.793620
O O8 0.028806 0.878375 0.108645
O O9 0.040497 0.161047 0.026884
#
# Coordination Sequence:
#
# PCOD8282740 Si02
#       6
#    16  16   8   8  16   8
#     4  11  23  42  68  94 132 176 222 273 333 391
#     4  10  23  41  66  96 130 177 221 271 328 385
#     4   9  20  39  64  97 136 171 218 267 332 401
#     4  11  24  40  60  98 136 170 220 268 318 397
#     4  10  21  42  69  99 131 175 217 280 339 399
#     4  10  22  43  72  99 132 168 224 277 348 411
#
# _framework density 23.671205
#
# number of rings (size 3 to 8) (size 9 to 14) (size 15 to 20)
#    0.000    1.778    0.000    4.000    0.000    7.556 
#    0.000   11.111    0.000    5.333    0.000    0.000 
#    0.000    0.000    0.000    0.000    0.000    0.000 
#
# Total GULP energy -446403.385679 kJ/mol
# GULP energy per Si atom -12400.094047 kJ/mol
# Density = 2.361733 g / cm^3
# Si number density = 23.671205 Si / 1000 Ang^3
#
#
#
# Elastic Constant Matrix: (Units=GPa)
#
#
# Indices 1 2 3 4 5 6 
#
# 1 91.8544 44.4744 40.9868 0.0000 0.0000 0.0000
# 2 44.4744 123.9658 68.3169 0.0000 0.0000 0.0000
# 3 40.9868 68.3169 145.9207 0.0000 0.0000 0.0000
# 4 0.0000 0.0000 0.0000 43.8222 0.0000 0.0000
# 5 0.0000 0.0000 0.0000 0.0000 42.0031 0.0000
# 6 0.0000 0.0000 0.0000 0.0000 0.0000 30.6197
#
#
#
# Elastic Compliance Matrix: (Units=1/GPa)
#
#
# Indices 1 2 3 4 5 6 
#
# 1 0.013626 -0.003746 -0.002074 0.000000 0.000000 0.000000
# 2 -0.003746 0.011901 -0.004520 0.000000 0.000000 0.000000
# 3 -0.002074 -0.004520 0.009552 0.000000 0.000000 0.000000
# 4 0.000000 0.000000 0.000000 0.022819 0.000000 0.000000
# 5 0.000000 0.000000 0.000000 0.000000 0.023808 0.000000
# 6 0.000000 0.000000 0.000000 0.000000 0.000000 0.032659
#
#
# Mechanical properties :
#
#
# Convention : Reuss Voigt Hill
#
# Bulk Modulus (GPa) = 69.44252 74.36634 71.90443
# Shear Modulus (GPa) = 35.75435 37.15317 36.45376
#
# Velocity S-wave (km/s) = 3.89068 3.96605 3.92855
# Velocity P-wave (km/s) = 7.04153 7.24275 7.14285
#
# Compressibility (1/GPa) = 0.01440040
#
# Stress axis : x y z
#
# Youngs Moduli (GPa) = 73.39101 84.02346 104.69442
#
# Poissons Ratio (x) = 0.31472 0.21710
# Poissons Ratio (y) = 0.27490 0.47321
# Poissons Ratio (z) = 0.15218 0.37978
#
# Static dielectric constant tensor:
#      x y z
#    x 4.273690 0.000000 0.000000 
#    y 0.000000 4.445420 0.000000 
#    z 0.000000 0.000000 4.209790 
# 
# 
# High freq. dielectric constant tensor:
#      x y z
#    x 1.943350 0.000000 0.000000 
#    y 0.000000 1.938950 0.000000 
#    z 0.000000 0.000000 1.935260 
# 
# From -- ./inp_files/19497.got.cif
#   From: 2010.03.12/outbox.cif.g09.slc.cpg/sg68_10_cif.got.tgz:19497.got - 2010.04.10 23:14:56.
