data_PCOD8282662
_publ_section_title
;
Structure prediction by ZEFSAII (Michael W. Deem and Ramdas Pophale) SiO2 
 PCOD8282662
Probable space group: C C C A
;
_chemical_formula_sum "Si O2"
_cell_formula_units_Z 60
_cell_length_a 19.053219
_cell_length_b 12.541261
_cell_length_c 13.522623
_cell_angle_alpha 90.000000
_cell_angle_beta 90.000000
_cell_angle_gamma 90.000000
_cell_volume 3231.249594
_symmetry_space_group_name_H-M "C C C A"
_symmetry_group_IT_number 68
_space_group.IT_coordinate_system_code '2'
_symmetry_cell_setting 'orthorhombic'
loop_
_space_group_symop_operation_xyz
x,y,z
-x,1/2-y,z
x,1/2-y,1/2-z
-x,y,1/2-z
-x,-y,-z
x,1/2+y,-z
-x,1/2+y,1/2+z
x,-y,1/2+z
1/2+x,1/2+y,z
1/2-x,-y,z
1/2+x,-y,1/2-z
1/2-x,1/2+y,1/2-z
1/2-x,1/2-y,-z
1/2+x,y,-z
1/2-x,y,1/2+z
1/2+x,1/2-y,1/2+z
loop_
_atom_site_type_symbol
_atom_site_label
_atom_site_fract_x
_atom_site_fract_y
_atom_site_fract_z
Si Si1 0.066143 0.574247 0.382680
Si Si2 0.500000 0.750000 0.750000
Si Si3 0.940432 0.416126 0.386908
Si Si4 0.612093 0.750000 0.250000
Si Si5 0.671511 0.467044 0.742561
O O1 0.069000 0.601978 0.497398
O O2 0.143142 0.538316 0.347847
O O3 0.047453 0.679057 0.321587
O O4 0.012796 0.476335 0.361110
O O5 0.938226 0.299024 0.335843
O O6 0.876440 0.486822 0.341097
O O7 0.663937 0.843011 0.290551
O O8 0.750000 0.500000 0.768266
#
# Coordination Sequence:
#
# PCOD8282662 Si02
#       5
#    16   4  16   8  16
#     4  11  22  38  61  91 118 162 195 260 303 348
#     4  12  20  38  56  94 124 144 194 268 300 346
#     4   9  21  41  61  85 119 161 206 244 301 353
#     4   8  20  40  62  89 111 166 198 250 279 367
#     4  10  21  40  60  89 125 158 199 248 297 363
#
# _framework density 18.568667000000001
#
# number of rings (size 3 to 8) (size 9 to 14) (size 15 to 20)
#    1.600    0.533    2.667    0.000    0.000    8.533 
#    0.000    1.333    0.000    0.000    0.000    0.000 
#    0.000    0.000    0.000    0.000    0.000    0.000 
#
# Total GULP energy -371748.427594 kJ/mol
# GULP energy per Si atom -12391.614253 kJ/mol
# Density = 1.852640 g / cm^3
# Si number density = 18.568667 Si / 1000 Ang^3
#
#
#
# Elastic Constant Matrix: (Units=GPa)
#
#
# Indices 1 2 3 4 5 6 
#
# 1 108.4121 28.8464 41.1313 0.0000 0.0000 0.0000
# 2 28.8464 106.9681 46.4347 0.0000 0.0000 0.0000
# 3 41.1313 46.4347 124.1739 0.0000 0.0000 0.0000
# 4 0.0000 0.0000 0.0000 31.9052 0.0000 0.0000
# 5 0.0000 0.0000 0.0000 0.0000 16.7270 0.0000
# 6 0.0000 0.0000 0.0000 0.0000 0.0000 17.0122
#
#
#
# Elastic Compliance Matrix: (Units=1/GPa)
#
#
# Indices 1 2 3 4 5 6 
#
# 1 0.010780 -0.001620 -0.002965 0.000000 0.000000 0.000000
# 2 -0.001620 0.011404 -0.003728 0.000000 0.000000 0.000000
# 3 -0.002965 -0.003728 0.010429 0.000000 0.000000 0.000000
# 4 0.000000 0.000000 0.000000 0.031343 0.000000 0.000000
# 5 0.000000 0.000000 0.000000 0.000000 0.059784 0.000000
# 6 0.000000 0.000000 0.000000 0.000000 0.000000 0.058781
#
#
# Mechanical properties :
#
#
# Convention : Reuss Voigt Hill
#
# Bulk Modulus (GPa) = 62.54876 63.59767 63.07322
# Shear Modulus (GPa) = 24.45284 28.00501 26.22892
#
# Velocity S-wave (km/s) = 3.63283 3.88775 3.76245
# Velocity P-wave (km/s) = 7.16623 7.38086 7.27434
#
# Compressibility (1/GPa) = 0.01598753
#
# Stress axis : x y z
#
# Youngs Moduli (GPa) = 92.76423 87.69105 95.88334
#
# Poissons Ratio (x) = 0.14206 0.28429
# Poissons Ratio (y) = 0.15028 0.35743
# Poissons Ratio (z) = 0.27504 0.32689
#
# Static dielectric constant tensor:
#      x y z
#    x 3.094420 0.000000 0.000000 
#    y 0.000000 3.420590 0.000000 
#    z 0.000000 0.000000 3.323260 
# 
# 
# High freq. dielectric constant tensor:
#      x y z
#    x 1.699220 0.000000 0.000000 
#    y 0.000000 1.723200 0.000000 
#    z 0.000000 0.000000 1.719180 
# 
# From -- ./inp_files/24216.got.cif
#   From: 2010.03.12/outbox.cif.g09.slc.cpg/sg68_13_cif.got.tgz:24216.got - 2010.04.10 23:14:56.
