data_PCOD8282221
_publ_section_title
;
Structure prediction by ZEFSAII (Michael W. Deem and Ramdas Pophale) SiO2 
 PCOD8282221
Probable space group: C C C A
;
_chemical_formula_sum "Si O2"
_cell_formula_units_Z 64
_cell_length_a 17.205888
_cell_length_b 17.579218
_cell_length_c 9.846527
_cell_angle_alpha 90.000000
_cell_angle_beta 90.000000
_cell_angle_gamma 90.000000
_cell_volume 2978.240187
_symmetry_space_group_name_H-M "C C C A"
_symmetry_group_IT_number 68
_space_group.IT_coordinate_system_code '2'
_symmetry_cell_setting 'orthorhombic'
loop_
_space_group_symop_operation_xyz
x,y,z
-x,1/2-y,z
x,1/2-y,1/2-z
-x,y,1/2-z
-x,-y,-z
x,1/2+y,-z
-x,1/2+y,1/2+z
x,-y,1/2+z
1/2+x,1/2+y,z
1/2-x,-y,z
1/2+x,-y,1/2-z
1/2-x,1/2+y,1/2-z
1/2-x,1/2-y,-z
1/2+x,y,-z
1/2-x,y,1/2+z
1/2+x,1/2-y,1/2+z
loop_
_atom_site_type_symbol
_atom_site_label
_atom_site_fract_x
_atom_site_fract_y
_atom_site_fract_z
Si Si1 0.010271 0.570360 0.097456
Si Si2 0.798917 0.665093 0.769321
Si Si3 0.576066 0.204039 0.533282
Si Si4 0.666833 0.350730 0.471019
O O1 0.096932 0.597849 0.075982
O O2 0.000000 0.541408 0.250000
O O3 0.000000 0.500000 0.000000
O O4 0.948333 0.638531 0.072537
O O5 0.768242 0.750000 0.750000
O O6 0.885222 0.664488 0.835525
O O7 0.736481 0.627097 0.869370
O O8 0.805587 0.624909 0.622675
O O9 0.500000 0.250000 0.581516
O O10 0.640155 0.261460 0.467726
#
# Coordination Sequence:
#
# PCOD8282221 Si02
#       4
#    16  16  16  16
#     4  11  27  44  67  90 129 173 222 269 321 388
#     4  10  20  36  65 100 135 162 205 268 327 389
#     4   9  20  38  66  98 127 167 218 270 320 377
#     4  10  23  39  69  98 131 166 212 272 325 384
#
# _framework density 21.489198999999999
#
# number of rings (size 3 to 8) (size 9 to 14) (size 15 to 20)
#    0.000    2.000    0.000    3.000   10.500   14.000 
#    0.000    1.250    0.000    0.000    0.000    0.000 
#    0.000    0.000    0.000    0.000    0.000    0.000 
#
# Total GULP energy -396732.497834 kJ/mol
# GULP energy per Si atom -12397.890557 kJ/mol
# Density = 2.144029 g / cm^3
# Si number density = 21.489199 Si / 1000 Ang^3
#
#
#
# Elastic Constant Matrix: (Units=GPa)
#
#
# Indices 1 2 3 4 5 6 
#
# 1 124.9144 33.7538 85.3915 0.0000 0.0000 0.0000
# 2 33.7538 70.2668 51.1698 0.0000 0.0000 0.0000
# 3 85.3915 51.1698 200.5239 0.0000 0.0000 0.0000
# 4 0.0000 0.0000 0.0000 25.7621 0.0000 0.0000
# 5 0.0000 0.0000 0.0000 0.0000 43.0942 0.0000
# 6 0.0000 0.0000 0.0000 0.0000 0.0000 3.9494
#
#
#
# Elastic Compliance Matrix: (Units=1/GPa)
#
#
# Indices 1 2 3 4 5 6 
#
# 1 0.011621 -0.002430 -0.004329 0.000000 0.000000 0.000000
# 2 -0.002430 0.017988 -0.003555 0.000000 0.000000 0.000000
# 3 -0.004329 -0.003555 0.007738 0.000000 0.000000 0.000000
# 4 0.000000 0.000000 0.000000 0.038817 0.000000 0.000000
# 5 0.000000 0.000000 0.000000 0.000000 0.023205 0.000000
# 6 0.000000 0.000000 0.000000 0.000000 0.000000 0.253205
#
#
# Mechanical properties :
#
#
# Convention : Reuss Voigt Hill
#
# Bulk Modulus (GPa) = 59.81463 81.81504 70.81483
# Shear Modulus (GPa) = 13.20046 29.58712 21.39379
#
# Velocity S-wave (km/s) = 2.48116 3.71460 3.15867
# Velocity P-wave (km/s) = 6.00861 7.52017 6.80648
#
# Compressibility (1/GPa) = 0.01671832
#
# Stress axis : x y z
#
# Youngs Moduli (GPa) = 86.04933 55.59288 129.24070
#
# Poissons Ratio (x) = 0.13510 0.55944
# Poissons Ratio (y) = 0.20912 0.45949
# Poissons Ratio (z) = 0.37248 0.19765
#
# Static dielectric constant tensor:
#      x y z
#    x 3.915570 0.000000 0.000000 
#    y 0.000000 3.441700 0.000000 
#    z 0.000000 0.000000 4.128810 
# 
# 
# High freq. dielectric constant tensor:
#      x y z
#    x 1.858340 0.000000 0.000000 
#    y 0.000000 1.797090 0.000000 
#    z 0.000000 0.000000 1.851260 
# 
# From -- ./inp_files/5814.got.cif
#   From: 2010.03.12/outbox.cif.g09.slc.cpg/sg68_3_cif.got.tgz:5814.got - 2010.04.10 23:14:56.
