data_PCOD8282808
_publ_section_title
;
Structure prediction by ZEFSAII (Michael W. Deem and Ramdas Pophale) SiO2 
 PCOD8282808
Probable space group: C C C A
;
_chemical_formula_sum "Si O2"
_cell_formula_units_Z 104
_cell_length_a 27.681204
_cell_length_b 9.162324
_cell_length_c 19.700798
_cell_angle_alpha 90.000000
_cell_angle_beta 90.000000
_cell_angle_gamma 90.000000
_cell_volume 4996.598339
_symmetry_space_group_name_H-M "C C C A"
_symmetry_group_IT_number 68
_space_group.IT_coordinate_system_code '2'
_symmetry_cell_setting 'orthorhombic'
loop_
_space_group_symop_operation_xyz
x,y,z
-x,1/2-y,z
x,1/2-y,1/2-z
-x,y,1/2-z
-x,-y,-z
x,1/2+y,-z
-x,1/2+y,1/2+z
x,-y,1/2+z
1/2+x,1/2+y,z
1/2-x,-y,z
1/2+x,-y,1/2-z
1/2-x,1/2+y,1/2-z
1/2-x,1/2-y,-z
1/2+x,y,-z
1/2-x,y,1/2+z
1/2+x,1/2-y,1/2+z
loop_
_atom_site_type_symbol
_atom_site_label
_atom_site_fract_x
_atom_site_fract_y
_atom_site_fract_z
Si Si1 0.750000 0.000000 0.172039
Si Si2 0.075126 0.464320 0.427762
Si Si3 0.505097 0.921491 0.173459
Si Si4 0.750000 0.000000 0.455594
Si Si5 0.579077 0.617774 0.439669
Si Si6 0.204487 0.250000 0.750000
Si Si7 0.165702 0.356363 0.883357
Si Si8 0.174573 0.050848 0.934939
O O1 0.742477 0.141952 0.216362
O O2 0.702612 0.977042 0.126988
O O3 0.077294 0.292191 0.443128
O O4 0.053768 0.549835 0.493266
O O5 0.127879 0.518214 0.402997
O O6 0.038276 0.496483 0.367139
O O7 0.500000 0.750000 0.178518
O O8 0.500000 0.987594 0.250000
O O9 0.554913 0.946143 0.130100
O O10 0.720474 0.111875 0.408474
O O11 0.789733 0.081730 0.501946
O O12 0.633937 0.567074 0.450780
O O13 0.169317 0.334748 0.802280
O O14 0.149149 0.203692 0.916599
#
# Coordination Sequence:
#
# PCOD8282808 Si02
#       8
#     8  16  16   8  16   8  16  16
#     4   9  21  38  56  82 123 163 208 252 314 363
#     4  11  23  39  66  95 125 167 207 260 321 376
#     4   9  21  42  65  92 126 167 213 259 312 384
#     4  11  21  36  64  88 121 163 210 256 310 373
#     4  11  22  40  65  95 128 161 210 263 318 375
#     4  10  22  40  56  84 127 170 205 260 306 380
#     4  11  23  38  60  89 126 164 210 257 313 373
#     4  10  22  38  59  90 124 158 206 266 306 364
#
# _framework density 20.814160999999999
#
# number of rings (size 3 to 8) (size 9 to 14) (size 15 to 20)
#    0.000    1.692    1.538    2.308    0.000    7.385 
#    0.000    3.846    0.000    3.692    0.000    0.000 
#    0.000    0.000    0.000    0.000    0.000    0.000 
#
# Total GULP energy -644445.937453 kJ/mol
# GULP energy per Si atom -12393.191105 kJ/mol
# Density = 2.076679 g / cm^3
# Si number density = 20.814161 Si / 1000 Ang^3
#
#
#
# Elastic Constant Matrix: (Units=GPa)
#
#
# Indices 1 2 3 4 5 6 
#
# 1 103.8208 34.9361 55.2235 0.0000 0.0000 0.0000
# 2 34.9361 89.7738 49.1973 0.0000 0.0000 0.0000
# 3 55.2235 49.1973 171.6993 0.0000 0.0000 0.0000
# 4 0.0000 0.0000 0.0000 7.0924 0.0000 0.0000
# 5 0.0000 0.0000 0.0000 0.0000 8.2894 0.0000
# 6 0.0000 0.0000 0.0000 0.0000 0.0000 15.7328
#
#
#
# Elastic Compliance Matrix: (Units=1/GPa)
#
#
# Indices 1 2 3 4 5 6 
#
# 1 0.012310 -0.003109 -0.003069 0.000000 0.000000 0.000000
# 2 -0.003109 0.013999 -0.003011 0.000000 0.000000 0.000000
# 3 -0.003069 -0.003011 0.007674 0.000000 0.000000 0.000000
# 4 0.000000 0.000000 0.000000 0.140996 0.000000 0.000000
# 5 0.000000 0.000000 0.000000 0.000000 0.120636 0.000000
# 6 0.000000 0.000000 0.000000 0.000000 0.000000 0.063561
#
#
# Mechanical properties :
#
#
# Convention : Reuss Voigt Hill
#
# Bulk Modulus (GPa) = 64.07881 71.55641 67.81761
# Shear Modulus (GPa) = 13.06313 21.28539 17.17426
#
# Velocity S-wave (km/s) = 2.50793 3.20134 2.87561
# Velocity P-wave (km/s) = 6.26413 6.93672 6.60899
#
# Compressibility (1/GPa) = 0.01560578
#
# Stress axis : x y z
#
# Youngs Moduli (GPa) = 81.23223 71.43242 130.31217
#
# Poissons Ratio (x) = 0.22209 0.39987
# Poissons Ratio (y) = 0.25256 0.39240
# Poissons Ratio (z) = 0.24926 0.21510
#
# Static dielectric constant tensor:
#      x y z
#    x 3.250940 0.000000 0.000000 
#    y 0.000000 3.634110 0.000000 
#    z 0.000000 0.000000 4.452480 
# 
# 
# High freq. dielectric constant tensor:
#      x y z
#    x 1.808100 0.000000 0.000000 
#    y 0.000000 1.800890 0.000000 
#    z 0.000000 0.000000 1.832850 
# 
# From -- ./inp_files/41365.got.cif
#   From: 2010.03.12/outbox.cif.g09.slc.cpg/sg68_21_cif.got.tgz:41365.got - 2010.04.10 23:14:56.
