data_PCOD8282419
_publ_section_title
;
Structure prediction by ZEFSAII (Michael W. Deem and Ramdas Pophale) SiO2 
 PCOD8282419
Probable space group: C C C A
;
_chemical_formula_sum "Si O2"
_cell_formula_units_Z 112
_cell_length_a 14.644040
_cell_length_b 24.392388
_cell_length_c 14.189372
_cell_angle_alpha 90.000000
_cell_angle_beta 90.000000
_cell_angle_gamma 90.000000
_cell_volume 5068.487744
_symmetry_space_group_name_H-M "C C C A"
_symmetry_group_IT_number 68
_space_group.IT_coordinate_system_code '2'
_symmetry_cell_setting 'orthorhombic'
loop_
_space_group_symop_operation_xyz
x,y,z
-x,1/2-y,z
x,1/2-y,1/2-z
-x,y,1/2-z
-x,-y,-z
x,1/2+y,-z
-x,1/2+y,1/2+z
x,-y,1/2+z
1/2+x,1/2+y,z
1/2-x,-y,z
1/2+x,-y,1/2-z
1/2-x,1/2+y,1/2-z
1/2-x,1/2-y,-z
1/2+x,y,-z
1/2-x,y,1/2+z
1/2+x,1/2-y,1/2+z
loop_
_atom_site_type_symbol
_atom_site_label
_atom_site_fract_x
_atom_site_fract_y
_atom_site_fract_z
Si Si1 0.059118 0.116993 0.163533
Si Si2 0.463036 0.807417 0.472505
Si Si3 0.310747 0.112785 0.944362
Si Si4 0.185061 0.950564 0.322253
Si Si5 0.576752 0.693954 0.690712
Si Si6 0.232694 0.114101 0.657301
Si Si7 0.040012 0.521039 0.595901
O O1 0.164223 0.124886 0.190330
O O2 0.000000 0.141871 0.250000
O O3 0.035417 0.147553 0.065253
O O4 0.040173 0.051267 0.154994
O O5 0.500000 0.750000 0.429238
O O6 0.360642 0.827099 0.438549
O O7 0.462975 0.801232 0.585144
O O8 0.223337 0.104705 0.875385
O O9 0.385952 0.067997 0.920477
O O10 0.271802 0.101578 0.047756
O O11 0.190150 0.938560 0.210930
O O12 0.250000 0.000000 0.352616
O O13 0.082398 0.968159 0.350526
O O14 0.588274 0.750000 0.750000
O O15 0.500000 0.659406 0.750000
O O16 0.675092 0.666736 0.688230
O O17 0.000000 0.500000 0.500000
#
# Coordination Sequence:
#
# PCOD8282419 Si02
#       7
#    16  16  16  16  16  16  16
#     4  11  24  43  60  92 142 177 219 279 338 411
#     4  10  20  41  67  88 123 181 219 274 353 402
#     4   9  21  38  57  90 127 158 221 281 323 400
#     4  10  21  39  59  88 129 171 214 272 331 394
#     4  10  21  43  68  94 130 164 225 294 345 400
#     4  11  23  39  64  97 128 173 223 276 339 409
#     4  10  21  38  63  88 124 175 217 272 343 394
#
# _framework density 22.09732
#
# number of rings (size 3 to 8) (size 9 to 14) (size 15 to 20)
#    0.000    1.857    1.429    3.429    0.000    8.857 
#    5.143    1.429    0.000    0.000    0.000    0.000 
#    0.000    0.000    0.000    0.000    0.000    0.000 
#
# Total GULP energy -693828.321512 kJ/mol
# GULP energy per Si atom -12389.791456 kJ/mol
# Density = 2.204703 g / cm^3
# Si number density = 22.097320 Si / 1000 Ang^3
#
#
#
# Elastic Constant Matrix: (Units=GPa)
#
#
# Indices 1 2 3 4 5 6 
#
# 1 127.6056 48.2527 35.3164 0.0000 0.0000 0.0000
# 2 48.2527 90.2427 40.5852 0.0000 0.0000 0.0000
# 3 35.3164 40.5852 85.4521 0.0000 0.0000 0.0000
# 4 0.0000 0.0000 0.0000 34.4232 0.0000 0.0000
# 5 0.0000 0.0000 0.0000 0.0000 32.3211 0.0000
# 6 0.0000 0.0000 0.0000 0.0000 0.0000 28.8958
#
#
#
# Elastic Compliance Matrix: (Units=1/GPa)
#
#
# Indices 1 2 3 4 5 6 
#
# 1 0.010096 -0.004478 -0.002046 0.000000 0.000000 0.000000
# 2 -0.004478 0.016078 -0.005785 0.000000 0.000000 0.000000
# 3 -0.002046 -0.005785 0.015296 0.000000 0.000000 0.000000
# 4 0.000000 0.000000 0.000000 0.029050 0.000000 0.000000
# 5 0.000000 0.000000 0.000000 0.000000 0.030940 0.000000
# 6 0.000000 0.000000 0.000000 0.000000 0.000000 0.034607
#
#
# Mechanical properties :
#
#
# Convention : Reuss Voigt Hill
#
# Bulk Modulus (GPa) = 59.34375 61.28988 60.31681
# Shear Modulus (GPa) = 30.06583 31.07110 30.56847
#
# Velocity S-wave (km/s) = 3.69265 3.75387 3.72338
# Velocity P-wave (km/s) = 6.71526 6.82534 6.77053
#
# Compressibility (1/GPa) = 0.01685098
#
# Stress axis : x y z
#
# Youngs Moduli (GPa) = 99.04626 62.19822 65.37857
#
# Poissons Ratio (x) = 0.27855 0.13374
# Poissons Ratio (y) = 0.44358 0.37822
# Poissons Ratio (z) = 0.20261 0.35982
#
# Static dielectric constant tensor:
#      x y z
#    x 4.288880 0.000000 0.000000 
#    y 0.000000 4.023660 0.000000 
#    z 0.000000 0.000000 4.188050 
# 
# 
# High freq. dielectric constant tensor:
#      x y z
#    x 1.870440 0.000000 0.000000 
#    y 0.000000 1.846250 0.000000 
#    z 0.000000 0.000000 1.881440 
# 
# From -- ./inp_files/22582.got.cif
#   From: 2010.03.12/outbox.cif.g09.slc.cpg/sg68_12_cif.got.tgz:22582.got - 2010.04.10 23:14:56.
