data_PCOD8282616
_publ_section_title
;
Structure prediction by ZEFSAII (Michael W. Deem and Ramdas Pophale) SiO2 
 PCOD8282616
Probable space group: C C C A
;
_chemical_formula_sum "Si O2"
_cell_formula_units_Z 60
_cell_length_a 16.998875
_cell_length_b 24.956127
_cell_length_c 7.657478
_cell_angle_alpha 90.000000
_cell_angle_beta 90.000000
_cell_angle_gamma 90.000000
_cell_volume 3248.501900
_symmetry_space_group_name_H-M "C C C A"
_symmetry_group_IT_number 68
_space_group.IT_coordinate_system_code '2'
_symmetry_cell_setting 'orthorhombic'
loop_
_space_group_symop_operation_xyz
x,y,z
-x,1/2-y,z
x,1/2-y,1/2-z
-x,y,1/2-z
-x,-y,-z
x,1/2+y,-z
-x,1/2+y,1/2+z
x,-y,1/2+z
1/2+x,1/2+y,z
1/2-x,-y,z
1/2+x,-y,1/2-z
1/2-x,1/2+y,1/2-z
1/2-x,1/2-y,-z
1/2+x,y,-z
1/2-x,y,1/2+z
1/2+x,1/2-y,1/2+z
loop_
_atom_site_type_symbol
_atom_site_label
_atom_site_fract_x
_atom_site_fract_y
_atom_site_fract_z
Si Si1 0.348306 0.547025 0.391091
Si Si2 0.556091 0.352347 0.101576
Si Si3 0.500000 0.600744 0.250000
Si Si4 0.818822 0.929988 0.285362
Si Si5 0.500000 0.250000 0.250000
O O1 0.427706 0.562443 0.294249
O O2 0.275756 0.574660 0.287873
O O3 0.342815 0.482746 0.394078
O O4 0.348951 0.567331 0.588407
O O5 0.500000 0.379359 0.250000
O O6 0.642496 0.378381 0.121060
O O7 0.557187 0.287852 0.132495
O O8 0.520836 0.361242 0.910893
#
# Coordination Sequence:
#
# PCOD8282616 Si02
#       5
#    16  16   8  16   4
#     4  11  22  34  56  86 120 158 191 233 286 357
#     4  10  21  39  59  84 114 148 192 246 279 344
#     4  12  22  36  62  86 114 156 190 236 298 344
#     4  11  21  38  54  85 123 155 195 236 287 345
#     4   8  20  40  60  88 110 148 196 254 284 334
#
# _framework density 18.470051999999999
#
# number of rings (size 3 to 8) (size 9 to 14) (size 15 to 20)
#    0.800    0.533    2.667    6.400    1.867    2.667 
#    0.000    0.000    0.000   14.400    0.000    0.000 
#    0.000    0.000    0.000    0.000    0.000    0.000 
#
# Total GULP energy -371957.854399 kJ/mol
# GULP energy per Si atom -12398.595147 kJ/mol
# Density = 1.842801 g / cm^3
# Si number density = 18.470052 Si / 1000 Ang^3
#
#
#
# Elastic Constant Matrix: (Units=GPa)
#
#
# Indices 1 2 3 4 5 6 
#
# 1 135.7761 69.2445 40.5491 0.0000 0.0000 0.0000
# 2 69.2445 116.4891 32.9628 0.0000 0.0000 0.0000
# 3 40.5491 32.9628 115.5207 0.0000 0.0000 0.0000
# 4 0.0000 0.0000 0.0000 8.3768 0.0000 0.0000
# 5 0.0000 0.0000 0.0000 0.0000 31.7666 0.0000
# 6 0.0000 0.0000 0.0000 0.0000 0.0000 29.0952
#
#
#
# Elastic Compliance Matrix: (Units=1/GPa)
#
#
# Indices 1 2 3 4 5 6 
#
# 1 0.011052 -0.005953 -0.002181 0.000000 0.000000 0.000000
# 2 -0.005953 0.012545 -0.001490 0.000000 0.000000 0.000000
# 3 -0.002181 -0.001490 0.009847 0.000000 0.000000 0.000000
# 4 0.000000 0.000000 0.000000 0.119377 0.000000 0.000000
# 5 0.000000 0.000000 0.000000 0.000000 0.031480 0.000000
# 6 0.000000 0.000000 0.000000 0.000000 0.000000 0.034370
#
#
# Mechanical properties :
#
#
# Convention : Reuss Voigt Hill
#
# Bulk Modulus (GPa) = 70.43869 72.58872 71.51370
# Shear Modulus (GPa) = 20.60581 28.84970 24.72775
#
# Velocity S-wave (km/s) = 3.34373 3.95647 3.66293
# Velocity P-wave (km/s) = 7.28882 7.76258 7.52943
#
# Compressibility (1/GPa) = 0.01419674
#
# Stress axis : x y z
#
# Youngs Moduli (GPa) = 90.48018 79.71617 101.55218
#
# Poissons Ratio (x) = 0.47452 0.22148
# Poissons Ratio (y) = 0.53859 0.15132
# Poissons Ratio (z) = 0.19733 0.11878
#
# Static dielectric constant tensor:
#      x y z
#    x 3.510230 0.000000 0.000000 
#    y 0.000000 3.057310 0.000000 
#    z 0.000000 0.000000 3.501620 
# 
# 
# High freq. dielectric constant tensor:
#      x y z
#    x 1.715520 0.000000 0.000000 
#    y 0.000000 1.680620 0.000000 
#    z 0.000000 0.000000 1.733530 
# 
# From -- ./inp_files/4894.got.cif
#   From: 2010.03.12/outbox.cif.g09.slc.cpg/sg68_3_cif.got.tgz:4894.got - 2010.04.10 23:14:56.
