data_PCOD8282690
_publ_section_title
;
Structure prediction by ZEFSAII (Michael W. Deem and Ramdas Pophale) SiO2 
 PCOD8282690
Probable space group: C C C A
;
_chemical_formula_sum "Si O2"
_cell_formula_units_Z 104
_cell_length_a 20.246533
_cell_length_b 17.359142
_cell_length_c 14.672201
_cell_angle_alpha 90.000000
_cell_angle_beta 90.000000
_cell_angle_gamma 90.000000
_cell_volume 5156.727584
_symmetry_space_group_name_H-M "C C C A"
_symmetry_group_IT_number 68
_space_group.IT_coordinate_system_code '2'
_symmetry_cell_setting 'orthorhombic'
loop_
_space_group_symop_operation_xyz
x,y,z
-x,1/2-y,z
x,1/2-y,1/2-z
-x,y,1/2-z
-x,-y,-z
x,1/2+y,-z
-x,1/2+y,1/2+z
x,-y,1/2+z
1/2+x,1/2+y,z
1/2-x,-y,z
1/2+x,-y,1/2-z
1/2-x,1/2+y,1/2-z
1/2-x,1/2-y,-z
1/2+x,y,-z
1/2-x,y,1/2+z
1/2+x,1/2-y,1/2+z
loop_
_atom_site_type_symbol
_atom_site_label
_atom_site_fract_x
_atom_site_fract_y
_atom_site_fract_z
Si Si1 0.528254 0.988338 0.343797
Si Si2 0.579357 0.064927 0.514814
Si Si3 0.781217 0.250000 0.250000
Si Si4 0.705534 0.207358 0.074433
Si Si5 0.923707 0.240965 0.012888
Si Si6 0.376455 0.856029 0.155776
Si Si7 0.809273 0.051705 0.502647
O O1 0.500000 0.026099 0.250000
O O2 0.480003 0.948683 0.416132
O O3 0.574327 0.919918 0.303899
O O4 0.564198 0.052701 0.406043
O O5 0.599594 0.153210 0.526757
O O6 0.635514 0.004617 0.544574
O O7 0.730915 0.238183 0.168960
O O8 0.828640 0.323829 0.234355
O O9 0.627103 0.223953 0.061205
O O10 0.750000 0.250000 0.000000
O O11 0.714753 0.114385 0.076781
O O12 0.000000 0.250000 0.979167
O O13 0.916009 0.285212 0.109095
O O14 0.332625 0.897432 0.080866
O O15 0.750000 0.000000 0.466838
#
# Coordination Sequence:
#
# PCOD8282690 Si02
#       7
#    16  16   8  16  16  16  16
#     4  10  22  40  60  94 130 162 205 263 333 387
#     4  10  22  39  63  91 130 168 205 267 317 389
#     4  12  24  42  68  94 134 162 228 278 322 382
#     4  11  23  43  66  94 131 175 219 269 323 396
#     4  11  21  41  71  95 130 173 217 266 331 392
#     4  10  23  38  64  99 122 161 219 275 323 385
#     4  10  21  40  66  88 124 170 213 257 328 384
#
# _framework density 20.167829000000001
#
# number of rings (size 3 to 8) (size 9 to 14) (size 15 to 20)
#    0.000    1.538    4.615    0.923    4.308    0.000 
#    2.769    1.154    0.000    0.000    0.000    0.000 
#    0.000    0.000    0.000    0.000    0.000    0.000 
#
# Total GULP energy -644468.000271 kJ/mol
# GULP energy per Si atom -12393.615390 kJ/mol
# Density = 2.012193 g / cm^3
# Si number density = 20.167829 Si / 1000 Ang^3
#
#
#
# Elastic Constant Matrix: (Units=GPa)
#
#
# Indices 1 2 3 4 5 6 
#
# 1 109.3136 27.1650 25.3365 0.0000 0.0000 0.0000
# 2 27.1650 115.8911 8.9708 0.0000 0.0000 0.0000
# 3 25.3365 8.9708 87.3058 0.0000 0.0000 0.0000
# 4 0.0000 0.0000 0.0000 9.3481 0.0000 0.0000
# 5 0.0000 0.0000 0.0000 0.0000 17.6683 0.0000
# 6 0.0000 0.0000 0.0000 0.0000 0.0000 31.8421
#
#
#
# Elastic Compliance Matrix: (Units=1/GPa)
#
#
# Indices 1 2 3 4 5 6 
#
# 1 0.010340 -0.002209 -0.002774 0.000000 0.000000 0.000000
# 2 -0.002209 0.009170 -0.000301 0.000000 0.000000 0.000000
# 3 -0.002774 -0.000301 0.012290 0.000000 0.000000 0.000000
# 4 0.000000 0.000000 0.000000 0.106973 0.000000 0.000000
# 5 0.000000 0.000000 0.000000 0.000000 0.056598 0.000000
# 6 0.000000 0.000000 0.000000 0.000000 0.000000 0.031405
#
#
# Mechanical properties :
#
#
# Convention : Reuss Voigt Hill
#
# Bulk Modulus (GPa) = 47.09885 48.38391 47.74138
# Shear Modulus (GPa) = 20.45648 28.50759 24.48204
#
# Velocity S-wave (km/s) = 3.18828 3.76376 3.48791
# Velocity P-wave (km/s) = 6.07928 6.55214 6.32014
#
# Compressibility (1/GPa) = 0.02123194
#
# Stress axis : x y z
#
# Youngs Moduli (GPa) = 96.71361 109.05260 81.36782
#
# Poissons Ratio (x) = 0.24089 0.22569
# Poissons Ratio (y) = 0.21364 0.02451
# Poissons Ratio (z) = 0.26825 0.03284
#
# Static dielectric constant tensor:
#      x y z
#    x 3.919240 0.000000 0.000000 
#    y 0.000000 4.037620 0.000000 
#    z 0.000000 0.000000 3.233680 
# 
# 
# High freq. dielectric constant tensor:
#      x y z
#    x 1.797210 0.000000 0.000000 
#    y 0.000000 1.797580 0.000000 
#    z 0.000000 0.000000 1.758490 
# 
# From -- ./inp_files/24665.got.cif
#   From: 2010.03.12/outbox.cif.g09.slc.cpg/sg68_13_cif.got.tgz:24665.got - 2010.04.10 23:14:56.
