data_PCOD8282248
_publ_section_title
;
Structure prediction by ZEFSAII (Michael W. Deem and Ramdas Pophale) SiO2 
 PCOD8282248
Probable space group: C C C A
;
_chemical_formula_sum "Si O2"
_cell_formula_units_Z 80
_cell_length_a 18.708409
_cell_length_b 15.131581
_cell_length_c 13.845239
_cell_angle_alpha 90.000000
_cell_angle_beta 90.000000
_cell_angle_gamma 90.000000
_cell_volume 3919.418334
_symmetry_space_group_name_H-M "C C C A"
_symmetry_group_IT_number 68
_space_group.IT_coordinate_system_code '2'
_symmetry_cell_setting 'orthorhombic'
loop_
_space_group_symop_operation_xyz
x,y,z
-x,1/2-y,z
x,1/2-y,1/2-z
-x,y,1/2-z
-x,-y,-z
x,1/2+y,-z
-x,1/2+y,1/2+z
x,-y,1/2+z
1/2+x,1/2+y,z
1/2-x,-y,z
1/2+x,-y,1/2-z
1/2-x,1/2+y,1/2-z
1/2-x,1/2-y,-z
1/2+x,y,-z
1/2-x,y,1/2+z
1/2+x,1/2-y,1/2+z
loop_
_atom_site_type_symbol
_atom_site_label
_atom_site_fract_x
_atom_site_fract_y
_atom_site_fract_z
Si Si1 0.693171 0.575846 0.106279
Si Si2 0.689580 0.070785 0.121520
Si Si3 0.924496 0.512022 0.227228
Si Si4 0.067081 0.700197 0.350085
Si Si5 0.219559 0.739128 0.396046
O O1 0.750000 0.500000 0.127451
O O2 0.620927 0.556408 0.164037
O O3 0.729190 0.664733 0.151239
O O4 0.674100 0.579926 0.992575
O O5 0.617774 0.042446 0.176560
O O6 0.717395 0.166893 0.160687
O O7 0.750000 0.000000 0.145230
O O8 0.948840 0.597416 0.165629
O O9 0.000000 0.463685 0.250000
O O10 0.081707 0.750000 0.250000
O O11 0.138806 0.704932 0.412625
O O12 0.000000 0.750000 0.402070
O O13 0.250000 0.750000 0.500000
#
# Coordination Sequence:
#
# PCOD8282248 Si02
#       5
#    16  16  16  16  16
#     4  10  21  37  60  88 119 158 203 248 302 368
#     4  10  22  38  59  89 114 154 211 252 295 360
#     4  12  22  36  59  88 126 159 195 254 316 363
#     4  11  19  33  58  92 115 146 200 256 308 357
#     4  10  20  37  61  85 116 156 201 251 302 361
#
# _framework density 20.411192
#
# number of rings (size 3 to 8) (size 9 to 14) (size 15 to 20)
#    0.000    1.400    6.000    0.600    0.000    0.800 
#    0.000    0.000    0.000    1.200    0.000    0.000 
#    0.000    0.000    0.000    0.000    0.000    0.000 
#
# Total GULP energy -495706.441011 kJ/mol
# GULP energy per Si atom -12392.661025 kJ/mol
# Density = 2.036474 g / cm^3
# Si number density = 20.411192 Si / 1000 Ang^3
#
#
#
# Elastic Constant Matrix: (Units=GPa)
#
#
# Indices 1 2 3 4 5 6 
#
# 1 192.5159 74.0894 53.3349 0.0000 0.0000 0.0000
# 2 74.0894 131.0448 24.7372 0.0000 0.0000 0.0000
# 3 53.3349 24.7372 53.5764 0.0000 0.0000 0.0000
# 4 0.0000 0.0000 0.0000 4.4430 0.0000 0.0000
# 5 0.0000 0.0000 0.0000 0.0000 29.1991 0.0000
# 6 0.0000 0.0000 0.0000 0.0000 0.0000 41.0129
#
#
#
# Elastic Compliance Matrix: (Units=1/GPa)
#
#
# Indices 1 2 3 4 5 6 
#
# 1 0.008406 -0.003476 -0.006763 0.000000 0.000000 0.000000
# 2 -0.003476 0.009797 -0.001063 0.000000 0.000000 0.000000
# 3 -0.006763 -0.001063 0.025888 0.000000 0.000000 0.000000
# 4 0.000000 0.000000 0.000000 0.225071 0.000000 0.000000
# 5 0.000000 0.000000 0.000000 0.000000 0.034248 0.000000
# 6 0.000000 0.000000 0.000000 0.000000 0.000000 0.024383
#
#
# Mechanical properties :
#
#
# Convention : Reuss Voigt Hill
#
# Bulk Modulus (GPa) = 46.54013 75.71776 61.12895
# Shear Modulus (GPa) = 13.98376 29.92940 21.95658
#
# Velocity S-wave (km/s) = 2.62029 3.83341 3.28336
# Velocity P-wave (km/s) = 5.65732 7.53460 6.66241
#
# Compressibility (1/GPa) = 0.02148683
#
# Stress axis : x y z
#
# Youngs Moduli (GPa) = 118.96845 102.07460 38.62744
#
# Poissons Ratio (x) = 0.35478 0.26123
# Poissons Ratio (y) = 0.41350 0.04107
# Poissons Ratio (z) = 0.80457 0.10854
#
# Static dielectric constant tensor:
#      x y z
#    x 5.445110 0.000000 0.000000 
#    y 0.000000 4.689600 0.000000 
#    z 0.000000 0.000000 3.335250 
# 
# 
# High freq. dielectric constant tensor:
#      x y z
#    x 1.803010 0.000000 0.000000 
#    y 0.000000 1.801370 0.000000 
#    z 0.000000 0.000000 1.772040 
# 
# From -- ./inp_files/30805.got.cif
#   From: 2010.03.12/outbox.cif.g09.slc.cpg/sg68_16_cif.got.tgz:30805.got - 2010.04.10 23:14:56.
