data_PCOD8282743
_publ_section_title
;
Structure prediction by ZEFSAII (Michael W. Deem and Ramdas Pophale) SiO2 
 PCOD8282743
Probable space group: C C C A
;
_chemical_formula_sum "Si O2"
_cell_formula_units_Z 116
_cell_length_a 9.746296
_cell_length_b 23.161965
_cell_length_c 26.366145
_cell_angle_alpha 90.000000
_cell_angle_beta 90.000000
_cell_angle_gamma 90.000000
_cell_volume 5951.982343
_symmetry_space_group_name_H-M "C C C A"
_symmetry_group_IT_number 68
_space_group.IT_coordinate_system_code '2'
_symmetry_cell_setting 'orthorhombic'
loop_
_space_group_symop_operation_xyz
x,y,z
-x,1/2-y,z
x,1/2-y,1/2-z
-x,y,1/2-z
-x,-y,-z
x,1/2+y,-z
-x,1/2+y,1/2+z
x,-y,1/2+z
1/2+x,1/2+y,z
1/2-x,-y,z
1/2+x,-y,1/2-z
1/2-x,1/2+y,1/2-z
1/2-x,1/2-y,-z
1/2+x,y,-z
1/2-x,y,1/2+z
1/2+x,1/2-y,1/2+z
loop_
_atom_site_type_symbol
_atom_site_label
_atom_site_fract_x
_atom_site_fract_y
_atom_site_fract_z
Si Si1 0.793248 0.132138 0.488579
Si Si2 0.865895 0.348178 0.187723
Si Si3 0.554840 0.441657 0.974030
Si Si4 0.378309 0.405015 0.634436
Si Si5 0.500000 0.750000 0.250000
Si Si6 0.154265 0.680348 0.094493
Si Si7 0.352185 0.953322 0.260516
Si Si8 0.341921 0.685976 0.892911
O O1 0.692381 0.077738 0.497047
O O2 0.800666 0.175221 0.536093
O O3 0.745553 0.169984 0.441865
O O4 0.944451 0.108683 0.478764
O O5 0.835870 0.392304 0.232929
O O6 0.725825 0.342143 0.156519
O O7 0.985760 0.370123 0.150520
O O8 0.904510 0.287962 0.213556
O O9 0.590779 0.446404 0.914077
O O10 0.500000 0.500000 0.000000
O O11 0.254821 0.360229 0.626241
O O12 0.328694 0.446198 0.679541
O O13 0.166977 0.745486 0.113196
O O14 0.996022 0.661234 0.102209
O O15 0.500000 0.980192 0.250000
O O16 0.250000 0.000000 0.237349
#
# Coordination Sequence:
#
# PCOD8282743 Si02
#       8
#    16  16  16  16   4  16  16  16
#     4  11  21  41  58  87 129 162 207 255 308 384
#     4  11  22  40  69  97 125 165 216 272 323 380
#     4  11  23  39  62  91 121 166 211 258 310 369
#     4  10  21  43  64  91 124 167 213 258 319 380
#     4  12  20  40  76  98 128 152 224 280 324 384
#     4  10  23  38  61  91 131 162 208 252 321 388
#     4  10  23  44  64  93 125 165 222 261 319 384
#     4  11  22  39  60  94 125 166 204 259 322 378
#
# _framework density 19.489304000000001
#
# number of rings (size 3 to 8) (size 9 to 14) (size 15 to 20)
#    0.000    1.379    4.828    1.655    0.000    3.310 
#    4.966    0.000    0.000    0.000    0.000    0.000 
#    0.000    0.000    0.000    0.000    0.000    0.000 
#
# Total GULP energy -719263.846878 kJ/mol
# GULP energy per Si atom -12401.100808 kJ/mol
# Density = 1.944495 g / cm^3
# Si number density = 19.489304 Si / 1000 Ang^3
#
#
#
# Elastic Constant Matrix: (Units=GPa)
#
#
# Indices 1 2 3 4 5 6 
#
# 1 92.1842 41.1021 48.2235 0.0000 0.0000 0.0000
# 2 41.1021 83.1707 33.6806 0.0000 0.0000 0.0000
# 3 48.2235 33.6806 107.2943 0.0000 0.0000 0.0000
# 4 0.0000 0.0000 0.0000 11.3140 0.0000 0.0000
# 5 0.0000 0.0000 0.0000 0.0000 27.2395 0.0000
# 6 0.0000 0.0000 0.0000 0.0000 0.0000 38.2617
#
#
#
# Elastic Compliance Matrix: (Units=1/GPa)
#
#
# Indices 1 2 3 4 5 6 
#
# 1 0.016333 -0.005842 -0.005507 0.000000 0.000000 0.000000
# 2 -0.005842 0.015864 -0.002354 0.000000 0.000000 0.000000
# 3 -0.005507 -0.002354 0.012534 0.000000 0.000000 0.000000
# 4 0.000000 0.000000 0.000000 0.088386 0.000000 0.000000
# 5 0.000000 0.000000 0.000000 0.000000 0.036711 0.000000
# 6 0.000000 0.000000 0.000000 0.000000 0.000000 0.026136
#
#
# Mechanical properties :
#
#
# Convention : Reuss Voigt Hill
#
# Bulk Modulus (GPa) = 57.71928 58.74017 58.22973
# Shear Modulus (GPa) = 21.82010 26.00590 23.91300
#
# Velocity S-wave (km/s) = 3.34966 3.65686 3.50663
# Velocity P-wave (km/s) = 6.68135 6.93075 6.80720
#
# Compressibility (1/GPa) = 0.01732523
#
# Stress axis : x y z
#
# Youngs Moduli (GPa) = 61.22411 63.03713 79.78007
#
# Poissons Ratio (x) = 0.36824 0.43938
# Poissons Ratio (y) = 0.35764 0.18782
# Poissons Ratio (z) = 0.33718 0.14841
#
# Static dielectric constant tensor:
#      x y z
#    x 4.562760 0.000000 0.000000 
#    y 0.000000 3.365380 0.000000 
#    z 0.000000 0.000000 3.639500 
# 
# 
# High freq. dielectric constant tensor:
#      x y z
#    x 1.770610 0.000000 0.000000 
#    y 0.000000 1.750800 0.000000 
#    z 0.000000 0.000000 1.767170 
# 
# From -- ./inp_files/49623.got.cif
#   From: 2010.03.12/outbox.cif.g09.slc.cpg/sg68_25_cif.got.tgz:49623.got - 2010.04.10 23:14:56.
