data_PCOD8282211
_publ_section_title
;
Structure prediction by ZEFSAII (Michael W. Deem and Ramdas Pophale) SiO2 
 PCOD8282211
Probable space group: C C C A
;
_chemical_formula_sum "Si O2"
_cell_formula_units_Z 68
_cell_length_a 23.387746
_cell_length_b 5.041753
_cell_length_c 26.729321
_cell_angle_alpha 90.000000
_cell_angle_beta 90.000000
_cell_angle_gamma 90.000000
_cell_volume 3151.794262
_symmetry_space_group_name_H-M "C C C A"
_symmetry_group_IT_number 68
_space_group.IT_coordinate_system_code '2'
_symmetry_cell_setting 'orthorhombic'
loop_
_space_group_symop_operation_xyz
x,y,z
-x,1/2-y,z
x,1/2-y,1/2-z
-x,y,1/2-z
-x,-y,-z
x,1/2+y,-z
-x,1/2+y,1/2+z
x,-y,1/2+z
1/2+x,1/2+y,z
1/2-x,-y,z
1/2+x,-y,1/2-z
1/2-x,1/2+y,1/2-z
1/2-x,1/2-y,-z
1/2+x,y,-z
1/2-x,y,1/2+z
1/2+x,1/2-y,1/2+z
loop_
_atom_site_type_symbol
_atom_site_label
_atom_site_fract_x
_atom_site_fract_y
_atom_site_fract_z
Si Si1 0.250000 0.000000 0.837145
Si Si2 0.189962 0.750000 0.750000
Si Si3 0.098907 0.482441 0.309559
Si Si4 0.627344 0.966305 0.629039
Si Si5 0.933772 0.267091 0.968889
Si Si6 0.500000 0.750000 0.250000
O O1 0.270661 0.225562 0.798697
O O2 0.196291 0.085402 0.871389
O O3 0.146470 0.986709 0.734883
O O4 0.096591 0.774042 0.331953
O O5 0.037374 0.435309 0.285859
O O6 0.113054 0.265501 0.353474
O O7 0.604722 0.885543 0.574969
O O8 0.000000 0.250000 0.952540
O O9 0.919827 0.465765 0.015106
#
# Coordination Sequence:
#
# PCOD8282211 Si02
#       6
#     8   8  16  16  16   4
#     4  10  20  36  62  86 122 162 212 250 294 356
#     4   9  18  35  54  82 117 166 201 240 278 354
#     4  10  23  36  57  87 126 162 205 246 302 360
#     4  11  23  39  61  91 116 159 205 255 303 369
#     4  10  22  41  64  87 116 152 196 253 317 380
#     4  10  24  38  56  90 132 170 202 254 318 358
#
# _framework density 21.575012999999998
#
# number of rings (size 3 to 8) (size 9 to 14) (size 15 to 20)
#    0.000    1.882    0.000    2.824    3.294   11.294 
#    0.000    1.176    0.000    0.000    0.000    0.000 
#    0.000    0.000    0.000    0.000    0.000    0.000 
#
# Total GULP energy -421198.720261 kJ/mol
# GULP energy per Si atom -12388.197655 kJ/mol
# Density = 2.152591 g / cm^3
# Si number density = 21.575013 Si / 1000 Ang^3
#
#
#
# Elastic Constant Matrix: (Units=GPa)
#
#
# Indices 1 2 3 4 5 6 
#
# 1 143.1253 13.7131 53.6976 0.0000 0.0000 0.0000
# 2 13.7131 68.7495 9.2661 0.0000 0.0000 0.0000
# 3 53.6976 9.2661 93.9146 0.0000 0.0000 0.0000
# 4 0.0000 0.0000 0.0000 24.5457 0.0000 0.0000
# 5 0.0000 0.0000 0.0000 0.0000 31.1296 0.0000
# 6 0.0000 0.0000 0.0000 0.0000 0.0000 14.5878
#
#
#
# Elastic Compliance Matrix: (Units=1/GPa)
#
#
# Indices 1 2 3 4 5 6 
#
# 1 0.008978 -0.001114 -0.005024 0.000000 0.000000 0.000000
# 2 -0.001114 0.014880 -0.000831 0.000000 0.000000 0.000000
# 3 -0.005024 -0.000831 0.013602 0.000000 0.000000 0.000000
# 4 0.000000 0.000000 0.000000 0.040740 0.000000 0.000000
# 5 0.000000 0.000000 0.000000 0.000000 0.032124 0.000000
# 6 0.000000 0.000000 0.000000 0.000000 0.000000 0.068550
#
#
# Mechanical properties :
#
#
# Convention : Reuss Voigt Hill
#
# Bulk Modulus (GPa) = 42.51154 51.01590 46.76372
# Shear Modulus (GPa) = 24.91861 29.32681 27.12271
#
# Velocity S-wave (km/s) = 3.40218 3.69086 3.54946
# Velocity P-wave (km/s) = 5.93127 6.46996 6.20646
#
# Compressibility (1/GPa) = 0.02352302
#
# Stress axis : x y z
#
# Youngs Moduli (GPa) = 111.37871 67.20538 73.51651
#
# Poissons Ratio (x) = 0.07485 0.36932
# Poissons Ratio (y) = 0.12405 0.06111
# Poissons Ratio (z) = 0.55953 0.05587
#
# Static dielectric constant tensor:
#      x y z
#    x 4.181100 0.000000 0.000000 
#    y 0.000000 3.820830 0.000000 
#    z 0.000000 0.000000 3.783160 
# 
# 
# High freq. dielectric constant tensor:
#      x y z
#    x 1.853420 0.000000 0.000000 
#    y 0.000000 1.849760 0.000000 
#    z 0.000000 0.000000 1.825420 
# 
# From -- ./inp_files/48345.got.cif
#   From: 2010.03.12/outbox.cif.g09.slc.cpg/sg68_25_cif.got.tgz:48345.got - 2010.04.10 23:14:56.
