data_PCOD8282633
_publ_section_title
;
Structure prediction by ZEFSAII (Michael W. Deem and Ramdas Pophale) SiO2 
 PCOD8282633
Probable space group: C C C A
;
_chemical_formula_sum "Si O2"
_cell_formula_units_Z 52
_cell_length_a 20.693908
_cell_length_b 5.025643
_cell_length_c 22.730450
_cell_angle_alpha 90.000000
_cell_angle_beta 90.000000
_cell_angle_gamma 90.000000
_cell_volume 2363.971207
_symmetry_space_group_name_H-M "C C C A"
_symmetry_group_IT_number 68
_space_group.IT_coordinate_system_code '2'
_symmetry_cell_setting 'orthorhombic'
loop_
_space_group_symop_operation_xyz
x,y,z
-x,1/2-y,z
x,1/2-y,1/2-z
-x,y,1/2-z
-x,-y,-z
x,1/2+y,-z
-x,1/2+y,1/2+z
x,-y,1/2+z
1/2+x,1/2+y,z
1/2-x,-y,z
1/2+x,-y,1/2-z
1/2-x,1/2+y,1/2-z
1/2-x,1/2-y,-z
1/2+x,y,-z
1/2-x,y,1/2+z
1/2+x,1/2-y,1/2+z
loop_
_atom_site_type_symbol
_atom_site_label
_atom_site_fract_x
_atom_site_fract_y
_atom_site_fract_z
Si Si1 0.605560 0.625155 0.834710
Si Si2 0.575407 0.238911 0.032299
Si Si3 0.000000 0.750000 0.250000
Si Si4 0.814275 0.123481 0.311597
O O1 0.586264 0.726394 0.898588
O O2 0.543290 0.561605 0.793451
O O3 0.650184 0.364989 0.845468
O O4 0.638528 0.875242 0.801856
O O5 0.500000 0.250000 0.018715
O O6 0.608051 0.499148 0.004033
O O7 0.792106 0.250000 0.250000
O O8 0.750000 0.000000 0.343420
#
# Coordination Sequence:
#
# PCOD8282633 Si02
#       4
#    16  16   4  16
#     4  12  24  41  67  96 140 165 210 282 324 403
#     4  10  21  39  62  91 127 174 217 258 322 400
#     4  12  24  42  60 114 136 170 200 266 372 390
#     4  12  24  42  64  93 129 180 222 259 321 396
#
# _framework density 21.996884999999999
#
# number of rings (size 3 to 8) (size 9 to 14) (size 15 to 20)
#    0.000    0.615    4.615    4.615    0.000    2.462 
#    0.000    0.000    0.000   18.462    0.000    0.000 
#    0.000    0.000    0.000    0.000    0.000    0.000 
#
# Total GULP energy -322176.423240 kJ/mol
# GULP energy per Si atom -12391.400894 kJ/mol
# Density = 2.194682 g / cm^3
# Si number density = 21.996885 Si / 1000 Ang^3
#
#
#
# Elastic Constant Matrix: (Units=GPa)
#
#
# Indices 1 2 3 4 5 6 
#
# 1 75.8958 61.9681 41.3133 0.0000 0.0000 0.0000
# 2 61.9681 183.1611 47.3204 0.0000 0.0000 0.0000
# 3 41.3133 47.3204 126.6916 0.0000 0.0000 0.0000
# 4 0.0000 0.0000 0.0000 33.1265 0.0000 0.0000
# 5 0.0000 0.0000 0.0000 0.0000 6.8709 0.0000
# 6 0.0000 0.0000 0.0000 0.0000 0.0000 23.1301
#
#
#
# Elastic Compliance Matrix: (Units=1/GPa)
#
#
# Indices 1 2 3 4 5 6 
#
# 1 0.020269 -0.005700 -0.004481 0.000000 0.000000 0.000000
# 2 -0.005700 0.007646 -0.000997 0.000000 0.000000 0.000000
# 3 -0.004481 -0.000997 0.009727 0.000000 0.000000 0.000000
# 4 0.000000 0.000000 0.000000 0.030187 0.000000 0.000000
# 5 0.000000 0.000000 0.000000 0.000000 0.145541 0.000000
# 6 0.000000 0.000000 0.000000 0.000000 0.000000 0.043234
#
#
# Mechanical properties :
#
#
# Convention : Reuss Voigt Hill
#
# Bulk Modulus (GPa) = 65.41853 76.32800 70.87327
# Shear Modulus (GPa) = 17.60234 28.30194 22.95214
#
# Velocity S-wave (km/s) = 2.83188 3.59086 3.23372
# Velocity P-wave (km/s) = 6.36374 7.20882 6.79943
#
# Compressibility (1/GPa) = 0.01528619
#
# Stress axis : x y z
#
# Youngs Moduli (GPa) = 49.33688 130.79288 102.81009
#
# Poissons Ratio (x) = 0.74550 0.46065
# Poissons Ratio (y) = 0.28121 0.10250
# Poissons Ratio (z) = 0.22106 0.13040
#
# Static dielectric constant tensor:
#      x y z
#    x 3.960290 0.000000 0.000000 
#    y 0.000000 4.343290 0.000000 
#    z 0.000000 0.000000 3.644210 
# 
# 
# High freq. dielectric constant tensor:
#      x y z
#    x 1.844150 0.000000 0.000000 
#    y 0.000000 1.882020 0.000000 
#    z 0.000000 0.000000 1.849410 
# 
# From -- ./inp_files/34826.got.cif
#   From: 2010.03.12/outbox.cif.g09.slc.cpg/sg68_18_cif.got.tgz:34826.got - 2010.04.10 23:14:56.
