data_PCOD8282332
_publ_section_title
;
Structure prediction by ZEFSAII (Michael W. Deem and Ramdas Pophale) SiO2 
 PCOD8282332
Probable space group: C C C A
;
_chemical_formula_sum "Si O2"
_cell_formula_units_Z 112
_cell_length_a 14.323584
_cell_length_b 16.684189
_cell_length_c 22.638235
_cell_angle_alpha 90.000000
_cell_angle_beta 90.000000
_cell_angle_gamma 90.000000
_cell_volume 5410.026147
_symmetry_space_group_name_H-M "C C C A"
_symmetry_group_IT_number 68
_space_group.IT_coordinate_system_code '2'
_symmetry_cell_setting 'orthorhombic'
loop_
_space_group_symop_operation_xyz
x,y,z
-x,1/2-y,z
x,1/2-y,1/2-z
-x,y,1/2-z
-x,-y,-z
x,1/2+y,-z
-x,1/2+y,1/2+z
x,-y,1/2+z
1/2+x,1/2+y,z
1/2-x,-y,z
1/2+x,-y,1/2-z
1/2-x,1/2+y,1/2-z
1/2-x,1/2-y,-z
1/2+x,y,-z
1/2-x,y,1/2+z
1/2+x,1/2-y,1/2+z
loop_
_atom_site_type_symbol
_atom_site_label
_atom_site_fract_x
_atom_site_fract_y
_atom_site_fract_z
Si Si1 0.015313 0.436354 0.817484
Si Si2 0.975421 0.095061 0.387171
Si Si3 0.836283 0.166129 0.089378
Si Si4 0.626050 0.712947 0.190667
Si Si5 0.665974 0.699117 0.693289
Si Si6 0.091316 0.701640 0.981259
Si Si7 0.134784 0.659157 0.109812
O O1 0.922385 0.394653 0.843961
O O2 0.000000 0.467122 0.750000
O O3 0.042895 0.506414 0.862886
O O4 0.101899 0.377284 0.815613
O O5 0.954321 0.154218 0.332584
O O6 0.903474 0.121743 0.439650
O O7 0.080873 0.100235 0.413786
O O8 0.856117 0.212839 0.148773
O O9 0.829815 0.231187 0.034803
O O10 0.736432 0.120705 0.094426
O O11 0.586080 0.750000 0.250000
O O12 0.726968 0.669439 0.200719
O O13 0.632701 0.750000 0.750000
O O14 0.651957 0.752896 0.635577
O O15 0.000000 0.750000 0.960648
O O16 0.081817 0.672690 0.048179
#
# Coordination Sequence:
#
# PCOD8282332 Si02
#       7
#    16  16  16  16  16  16  16
#     4  12  25  37  57  86 125 167 193 247 303 371
#     4  10  23  39  55  90 127 153 198 243 305 369
#     4   9  20  37  60  90 120 152 206 254 292 360
#     4   9  19  35  62  84 111 155 196 254 297 343
#     4  10  20  39  59  87 116 146 208 253 295 352
#     4   9  18  38  64  90 118 155 205 261 301 362
#     4  11  21  37  65  89 115 165 205 250 306 349
#
# _framework density 20.702303000000001
#
# number of rings (size 3 to 8) (size 9 to 14) (size 15 to 20)
#    0.000    2.000    1.429    3.000    2.000    2.286 
#    0.000    1.429    0.000    5.143    0.000    0.000 
#    0.000    0.000    0.000    0.000    0.000    0.000 
#
# Total GULP energy -693910.573692 kJ/mol
# GULP energy per Si atom -12391.260244 kJ/mol
# Density = 2.065518 g / cm^3
# Si number density = 20.702303 Si / 1000 Ang^3
#
#
#
# Elastic Constant Matrix: (Units=GPa)
#
#
# Indices 1 2 3 4 5 6 
#
# 1 98.4703 26.8478 23.0442 0.0000 0.0000 0.0000
# 2 26.8478 63.9572 41.1060 0.0000 0.0000 0.0000
# 3 23.0442 41.1060 117.5162 0.0000 0.0000 0.0000
# 4 0.0000 0.0000 0.0000 23.8677 0.0000 0.0000
# 5 0.0000 0.0000 0.0000 0.0000 24.3716 0.0000
# 6 0.0000 0.0000 0.0000 0.0000 0.0000 13.9037
#
#
#
# Elastic Compliance Matrix: (Units=1/GPa)
#
#
# Indices 1 2 3 4 5 6 
#
# 1 0.011516 -0.004364 -0.000732 0.000000 0.000000 0.000000
# 2 -0.004364 0.021824 -0.006778 0.000000 0.000000 0.000000
# 3 -0.000732 -0.006778 0.011024 0.000000 0.000000 0.000000
# 4 0.000000 0.000000 0.000000 0.041898 0.000000 0.000000
# 5 0.000000 0.000000 0.000000 0.000000 0.041031 0.000000
# 6 0.000000 0.000000 0.000000 0.000000 0.000000 0.071923
#
#
# Mechanical properties :
#
#
# Convention : Reuss Voigt Hill
#
# Bulk Modulus (GPa) = 48.50510 51.32663 49.91586
# Shear Modulus (GPa) = 21.75468 25.02500 23.38984
#
# Velocity S-wave (km/s) = 3.24517 3.48056 3.36492
# Velocity P-wave (km/s) = 6.12554 6.40304 6.26582
#
# Compressibility (1/GPa) = 0.02061639
#
# Stress axis : x y z
#
# Youngs Moduli (GPa) = 86.83234 45.82191 90.71264
#
# Poissons Ratio (x) = 0.19997 0.06639
# Poissons Ratio (y) = 0.37894 0.61484
# Poissons Ratio (z) = 0.06355 0.31058
#
# Static dielectric constant tensor:
#      x y z
#    x 4.085310 0.000000 0.000000 
#    y 0.000000 3.387210 0.000000 
#    z 0.000000 0.000000 3.828500 
# 
# 
# High freq. dielectric constant tensor:
#      x y z
#    x 1.817800 0.000000 0.000000 
#    y 0.000000 1.767460 0.000000 
#    z 0.000000 0.000000 1.820920 
# 
# From -- ./inp_files/45514.got.cif
#   From: 2010.03.12/outbox.cif.g09.slc.cpg/sg68_23_cif.got.tgz:45514.got - 2010.04.10 23:14:56.
