data_PCOD8282335
_publ_section_title
;
Structure prediction by ZEFSAII (Michael W. Deem and Ramdas Pophale) SiO2 
 PCOD8282335
Probable space group: C C C A
;
_chemical_formula_sum "Si O2"
_cell_formula_units_Z 104
_cell_length_a 16.017258
_cell_length_b 16.497590
_cell_length_c 18.980826
_cell_angle_alpha 90.000000
_cell_angle_beta 90.000000
_cell_angle_gamma 90.000000
_cell_volume 5015.610297
_symmetry_space_group_name_H-M "C C C A"
_symmetry_group_IT_number 68
_space_group.IT_coordinate_system_code '2'
_symmetry_cell_setting 'orthorhombic'
loop_
_space_group_symop_operation_xyz
x,y,z
-x,1/2-y,z
x,1/2-y,1/2-z
-x,y,1/2-z
-x,-y,-z
x,1/2+y,-z
-x,1/2+y,1/2+z
x,-y,1/2+z
1/2+x,1/2+y,z
1/2-x,-y,z
1/2+x,-y,1/2-z
1/2-x,1/2+y,1/2-z
1/2-x,1/2-y,-z
1/2+x,y,-z
1/2-x,y,1/2+z
1/2+x,1/2-y,1/2+z
loop_
_atom_site_type_symbol
_atom_site_label
_atom_site_fract_x
_atom_site_fract_y
_atom_site_fract_z
Si Si1 0.376566 0.094398 0.978897
Si Si2 0.750000 0.000000 0.434438
Si Si3 0.750000 0.000000 0.229458
Si Si4 0.000000 0.432682 0.250000
Si Si5 0.840403 0.891340 0.833105
Si Si6 0.670932 0.733835 0.050379
Si Si7 0.966401 0.164580 0.549777
Si Si8 0.402404 0.967515 0.860213
O O1 0.364799 0.176570 0.933468
O O2 0.394314 0.018623 0.930696
O O3 0.291307 0.074034 0.021850
O O4 0.457586 0.106779 0.027035
O O5 0.828984 0.036427 0.390761
O O6 0.723072 0.920271 0.272829
O O7 0.816812 0.959611 0.179753
O O8 0.930046 0.380606 0.207031
O O9 0.968397 0.491951 0.309653
O O10 0.812991 0.807960 0.872967
O O11 0.750000 0.750000 0.000000
O O12 0.601455 0.677870 0.012255
O O13 0.925978 0.123324 0.617921
O O14 0.000000 0.250000 0.576809
#
# Coordination Sequence:
#
# PCOD8282335 Si02
#       8
#    16   8   8   8  16  16  16  16
#     4  11  22  36  64  98 123 163 212 275 337 386
#     4  11  19  34  64  94 127 163 212 268 340 381
#     4   9  23  36  60  90 121 177 216 252 300 401
#     4  10  22  40  64  86 126 178 216 260 309 392
#     4  10  20  39  60  90 127 166 213 262 317 393
#     4  11  22  39  63  96 129 163 208 282 339 389
#     4  10  23  40  63  97 128 161 210 276 340 384
#     4  11  21  40  63  87 128 166 221 256 318 394
#
# _framework density 20.735261999999999
#
# number of rings (size 3 to 8) (size 9 to 14) (size 15 to 20)
#    0.000    1.538    1.538    3.692    2.154    0.000 
#    0.000    4.231    0.000    0.000    0.000    0.000 
#    0.000    0.000    0.000    0.000    0.000    0.000 
#
# Total GULP energy -644285.242135 kJ/mol
# GULP energy per Si atom -12390.100810 kJ/mol
# Density = 2.068807 g / cm^3
# Si number density = 20.735262 Si / 1000 Ang^3
#
#
#
# Elastic Constant Matrix: (Units=GPa)
#
#
# Indices 1 2 3 4 5 6 
#
# 1 127.2432 48.4278 58.0134 0.0000 0.0000 0.0000
# 2 48.4278 100.0079 64.2549 0.0000 0.0000 0.0000
# 3 58.0134 64.2549 113.5056 0.0000 0.0000 0.0000
# 4 0.0000 0.0000 0.0000 40.0889 0.0000 0.0000
# 5 0.0000 0.0000 0.0000 0.0000 24.2531 0.0000
# 6 0.0000 0.0000 0.0000 0.0000 0.0000 33.8039
#
#
#
# Elastic Compliance Matrix: (Units=1/GPa)
#
#
# Indices 1 2 3 4 5 6 
#
# 1 0.010664 -0.002612 -0.003972 0.000000 0.000000 0.000000
# 2 -0.002612 0.016355 -0.007923 0.000000 0.000000 0.000000
# 3 -0.003972 -0.007923 0.015325 0.000000 0.000000 0.000000
# 4 0.000000 0.000000 0.000000 0.024945 0.000000 0.000000
# 5 0.000000 0.000000 0.000000 0.000000 0.041232 0.000000
# 6 0.000000 0.000000 0.000000 0.000000 0.000000 0.029582
#
#
# Mechanical properties :
#
#
# Convention : Reuss Voigt Hill
#
# Bulk Modulus (GPa) = 75.01899 75.79433 75.40666
# Shear Modulus (GPa) = 29.14426 30.96657 30.05542
#
# Velocity S-wave (km/s) = 3.75312 3.86868 3.81134
# Velocity P-wave (km/s) = 7.41884 7.52252 7.47086
#
# Compressibility (1/GPa) = 0.01332996
#
# Stress axis : x y z
#
# Youngs Moduli (GPa) = 93.77433 61.14413 65.25094
#
# Poissons Ratio (x) = 0.15971 0.25916
# Poissons Ratio (y) = 0.24495 0.51700
# Poissons Ratio (z) = 0.37244 0.48446
#
# Static dielectric constant tensor:
#      x y z
#    x 4.030490 0.000000 0.000000 
#    y 0.000000 3.719250 0.000000 
#    z 0.000000 0.000000 3.688740 
# 
# 
# High freq. dielectric constant tensor:
#      x y z
#    x 1.823010 0.000000 0.000000 
#    y 0.000000 1.806610 0.000000 
#    z 0.000000 0.000000 1.804920 
# 
# From -- ./inp_files/38824.got.cif
#   From: 2010.03.12/outbox.cif.g09.slc.cpg/sg68_20_cif.got.tgz:38824.got - 2010.04.10 23:14:56.
