data_PCOD8282770
_publ_section_title
;
Structure prediction by ZEFSAII (Michael W. Deem and Ramdas Pophale) SiO2 
 PCOD8282770
Probable space group: C C C A
;
_chemical_formula_sum "Si O2"
_cell_formula_units_Z 96
_cell_length_a 20.539831
_cell_length_b 22.850701
_cell_length_c 9.703732
_cell_angle_alpha 90.000000
_cell_angle_beta 90.000000
_cell_angle_gamma 90.000000
_cell_volume 4554.442119
_symmetry_space_group_name_H-M "C C C A"
_symmetry_group_IT_number 68
_space_group.IT_coordinate_system_code '2'
_symmetry_cell_setting 'orthorhombic'
loop_
_space_group_symop_operation_xyz
x,y,z
-x,1/2-y,z
x,1/2-y,1/2-z
-x,y,1/2-z
-x,-y,-z
x,1/2+y,-z
-x,1/2+y,1/2+z
x,-y,1/2+z
1/2+x,1/2+y,z
1/2-x,-y,z
1/2+x,-y,1/2-z
1/2-x,1/2+y,1/2-z
1/2-x,1/2-y,-z
1/2+x,y,-z
1/2-x,y,1/2+z
1/2+x,1/2-y,1/2+z
loop_
_atom_site_type_symbol
_atom_site_label
_atom_site_fract_x
_atom_site_fract_y
_atom_site_fract_z
Si Si1 0.738634 0.124039 0.075359
Si Si2 0.571184 0.601947 0.226168
Si Si3 0.793105 0.444653 0.188049
Si Si4 0.628814 0.686312 0.762872
Si Si5 0.367266 0.682469 0.045130
Si Si6 0.560079 0.792302 0.478304
O O1 0.769894 0.069908 0.158074
O O2 0.674942 0.141731 0.157661
O O3 0.721774 0.106858 0.919501
O O4 0.790441 0.176218 0.068640
O O5 0.500000 0.571636 0.250000
O O6 0.626784 0.552267 0.192623
O O7 0.591257 0.639740 0.358626
O O8 0.560812 0.647204 0.101890
O O9 0.750000 0.500000 0.138976
O O10 0.663102 0.750000 0.750000
O O11 0.611405 0.663070 0.610442
O O12 0.564311 0.693334 0.858291
O O13 0.379083 0.751669 0.069550
O O14 0.500000 0.750000 0.445895
#
# Coordination Sequence:
#
# PCOD8282770 Si02
#       6
#    16  16  16  16  16  16
#     4  11  21  41  62  92 126 164 221 280 335 394
#     4  11  22  40  65  96 131 172 220 273 329 400
#     4  11  24  42  70  93 122 168 228 291 345 383
#     4  10  22  36  55  92 134 176 211 254 329 398
#     4  10  22  34  58  90 133 172 217 259 320 403
#     4  11  21  37  58  90 134 181 216 253 318 407
#
# _framework density 21.078322
#
# number of rings (size 3 to 8) (size 9 to 14) (size 15 to 20)
#    0.000    1.333    5.000    1.000    0.000    8.333 
#    0.000    0.000    0.000   11.000    0.000    0.000 
#    0.000    0.000    0.000    0.000    0.000    0.000 
#
# Total GULP energy -594695.895073 kJ/mol
# GULP energy per Si atom -12389.497814 kJ/mol
# Density = 2.103035 g / cm^3
# Si number density = 21.078322 Si / 1000 Ang^3
#
#
#
# Elastic Constant Matrix: (Units=GPa)
#
#
# Indices 1 2 3 4 5 6 
#
# 1 119.2953 33.1686 13.3555 0.0000 0.0000 0.0000
# 2 33.1686 46.9913 0.9609 0.0000 0.0000 0.0000
# 3 13.3555 0.9609 91.3198 0.0000 0.0000 0.0000
# 4 0.0000 0.0000 0.0000 23.8111 0.0000 0.0000
# 5 0.0000 0.0000 0.0000 0.0000 25.9877 0.0000
# 6 0.0000 0.0000 0.0000 0.0000 0.0000 31.8077
#
#
#
# Elastic Compliance Matrix: (Units=1/GPa)
#
#
# Indices 1 2 3 4 5 6 
#
# 1 0.010624 -0.007469 -0.001475 0.000000 0.000000 0.000000
# 2 -0.007469 0.026536 0.000813 0.000000 0.000000 0.000000
# 3 -0.001475 0.000813 0.011158 0.000000 0.000000 0.000000
# 4 0.000000 0.000000 0.000000 0.041997 0.000000 0.000000
# 5 0.000000 0.000000 0.000000 0.000000 0.038480 0.000000
# 6 0.000000 0.000000 0.000000 0.000000 0.000000 0.031439
#
#
# Mechanical properties :
#
#
# Convention : Reuss Voigt Hill
#
# Bulk Modulus (GPa) = 31.19565 39.17516 35.18540
# Shear Modulus (GPa) = 26.71206 30.32939 28.52072
#
# Velocity S-wave (km/s) = 3.56374 3.79739 3.68242
# Velocity P-wave (km/s) = 5.63611 6.15246 5.89993
#
# Compressibility (1/GPa) = 0.03205575
#
# Stress axis : x y z
#
# Youngs Moduli (GPa) = 94.12315 37.68484 89.62401
#
# Poissons Ratio (x) = 0.28147 0.13221
# Poissons Ratio (y) = 0.70301 -0.07287
# Poissons Ratio (z) = 0.13885 -0.03064
#
# Static dielectric constant tensor:
#      x y z
#    x 4.072360 0.000000 0.000000 
#    y 0.000000 3.384390 0.000000 
#    z 0.000000 0.000000 4.107870 
# 
# 
# High freq. dielectric constant tensor:
#      x y z
#    x 1.827860 0.000000 0.000000 
#    y 0.000000 1.774020 0.000000 
#    z 0.000000 0.000000 1.848360 
# 
# From -- ./inp_files/7276.got.cif
#   From: 2010.03.12/outbox.cif.g09.slc.cpg/sg68_4_cif.got.tgz:7276.got - 2010.04.10 23:14:56.
