data_PCOD8283856
_publ_section_title
;
Structure prediction by ZEFSAII (Michael W. Deem and Ramdas Pophale) SiO2 
 PCOD8283856
Probable space group: F M M M
;
_chemical_formula_sum "Si O2"
_cell_formula_units_Z 144
_cell_length_a 19.983213
_cell_length_b 23.563028
_cell_length_c 17.363760
_cell_angle_alpha 90.000000
_cell_angle_beta 90.000000
_cell_angle_gamma 90.000000
_cell_volume 8175.986982
_symmetry_space_group_name_H-M "F M M M"
_symmetry_group_IT_number 69
_symmetry_cell_setting 'orthorhombic'
loop_
_space_group_symop_operation_xyz
x,y,z
-x,-y,z
x,-y,-z
-x,y,-z
-x,-y,-z
x,y,-z
-x,y,z
x,-y,z
x,1/2+y,1/2+z
-x,1/2-y,1/2+z
x,1/2-y,1/2-z
-x,1/2+y,1/2-z
-x,1/2-y,1/2-z
x,1/2+y,1/2-z
-x,1/2+y,1/2+z
x,1/2-y,1/2+z
1/2+x,y,1/2+z
1/2-x,-y,1/2+z
1/2+x,-y,1/2-z
1/2-x,y,1/2-z
1/2-x,-y,1/2-z
1/2+x,y,1/2-z
1/2-x,y,1/2+z
1/2+x,-y,1/2+z
1/2+x,1/2+y,z
1/2-x,1/2-y,z
1/2+x,1/2-y,-z
1/2-x,1/2+y,-z
1/2-x,1/2-y,-z
1/2+x,1/2+y,-z
1/2-x,1/2+y,z
1/2+x,1/2-y,z
loop_
_atom_site_type_symbol
_atom_site_label
_atom_site_fract_x
_atom_site_fract_y
_atom_site_fract_z
Si Si1 0.172358 0.937828 0.232354
Si Si2 0.842559 0.367192 0.876525
Si Si3 0.920885 0.064991 0.500000
Si Si4 0.812969 0.629675 0.411822
Si Si5 0.329247 0.753778 0.663696
O O1 0.250000 0.943287 0.250000
O O2 0.145350 0.889683 0.289832
O O3 0.157968 0.918879 0.144369
O O4 0.138806 0.000000 0.244805
O O5 0.767098 0.373620 0.906611
O O6 0.859867 0.300309 0.881430
O O7 0.893507 0.403472 0.925750
O O8 0.000000 0.068221 0.500000
O O9 0.895669 0.000000 0.500000
O O10 0.835107 0.618771 0.500000
O O11 0.845384 0.689048 0.383084
O O12 0.359270 0.750000 0.750000
O O13 0.250000 0.750000 0.669871
#
# Coordination Sequence:
#
# PCOD8283856 Si02
#       5
#    32  32  16  32  32
#     4   9  17  28  42  63  95 132 164 190 230 295
#     4  10  18  32  49  66  93 133 162 201 247 285
#     4  11  24  38  51  70  94 126 176 223 248 277
#     4  10  18  27  43  75 104 128 159 189 233 298
#     4   9  16  27  46  70  98 126 157 191 235 298
#
# _framework density 17.612552000000001
#
# number of rings (size 3 to 8) (size 9 to 14) (size 15 to 20)
#    0.000    2.333    3.333    0.667    1.556    2.667 
#    0.000    0.000    0.000    0.667    0.000    0.000 
#    0.000    0.000    0.000    4.667    0.000    0.000 
#
# Total GULP energy -446067.513026 kJ/mol
# GULP energy per Si atom -12390.764251 kJ/mol
# Density = 1.757247 g / cm^3
# Si number density = 17.612552 Si / 1000 Ang^3
#
#
#
# Elastic Constant Matrix: (Units=GPa)
#
#
# Indices 1 2 3 4 5 6 
#
# 1 21.8011 21.2283 11.0094 0.0000 0.0000 0.0000
# 2 21.2283 137.3927 47.8252 0.0000 0.0000 0.0000
# 3 11.0094 47.8252 137.9154 0.0000 0.0000 0.0000
# 4 0.0000 0.0000 0.0000 20.2934 0.0000 0.0000
# 5 0.0000 0.0000 0.0000 0.0000 6.9811 0.0000
# 6 0.0000 0.0000 0.0000 0.0000 0.0000 12.9727
#
#
#
# Elastic Compliance Matrix: (Units=1/GPa)
#
#
# Indices 1 2 3 4 5 6 
#
# 1 0.054309 -0.007827 -0.001621 0.000000 0.000000 0.000000
# 2 -0.007827 0.009406 -0.002637 0.000000 0.000000 0.000000
# 3 -0.001621 -0.002637 0.008295 0.000000 0.000000 0.000000
# 4 0.000000 0.000000 0.000000 0.049277 0.000000 0.000000
# 5 0.000000 0.000000 0.000000 0.000000 0.143244 0.000000
# 6 0.000000 0.000000 0.000000 0.000000 0.000000 0.077085
#
#
# Mechanical properties :
#
#
# Convention : Reuss Voigt Hill
#
# Bulk Modulus (GPa) = 20.90314 50.80387 35.85351
# Shear Modulus (GPa) = 13.09822 22.51921 17.80871
#
# Velocity S-wave (km/s) = 2.73002 3.57961 3.18329
# Velocity P-wave (km/s) = 4.67241 6.78179 5.82341
#
# Compressibility (1/GPa) = 0.04783970
#
# Stress axis : x y z
#
# Youngs Moduli (GPa) = 18.41305 106.31998 120.56030
#
# Poissons Ratio (x) = 0.83216 0.19545
# Poissons Ratio (y) = 0.14412 0.31789
# Poissons Ratio (z) = 0.02985 0.28034
#
# Static dielectric constant tensor:
#      x y z
#    x 2.510630 0.000000 0.000000 
#    y 0.000000 3.686140 0.000000 
#    z 0.000000 0.000000 3.425740 
# 
# 
# High freq. dielectric constant tensor:
#      x y z
#    x 1.582480 0.000000 0.000000 
#    y 0.000000 1.702040 0.000000 
#    z 0.000000 0.000000 1.692510 
# 
# From -- ./inp_files/24807.got.cif
#   From: 2010.03.12/outbox.cif.g09.slc.cpg/sg69_13_cif.got.tgz:24807.got - 2010.04.10 23:52:46.
