data_PCOD8283137
_publ_section_title
;
Structure prediction by ZEFSAII (Michael W. Deem and Ramdas Pophale) SiO2 
 PCOD8283137
Probable space group: C C C A
;
_chemical_formula_sum "Si O2"
_cell_formula_units_Z 96
_cell_length_a 10.599572
_cell_length_b 16.746999
_cell_length_c 25.627929
_cell_angle_alpha 90.000000
_cell_angle_beta 90.000000
_cell_angle_gamma 90.000000
_cell_volume 4549.239860
_symmetry_space_group_name_H-M "C C C A"
_symmetry_group_IT_number 68
_space_group.IT_coordinate_system_code '2'
_symmetry_cell_setting 'orthorhombic'
loop_
_space_group_symop_operation_xyz
x,y,z
-x,1/2-y,z
x,1/2-y,1/2-z
-x,y,1/2-z
-x,-y,-z
x,1/2+y,-z
-x,1/2+y,1/2+z
x,-y,1/2+z
1/2+x,1/2+y,z
1/2-x,-y,z
1/2+x,-y,1/2-z
1/2-x,1/2+y,1/2-z
1/2-x,1/2-y,-z
1/2+x,y,-z
1/2-x,y,1/2+z
1/2+x,1/2-y,1/2+z
loop_
_atom_site_type_symbol
_atom_site_label
_atom_site_fract_x
_atom_site_fract_y
_atom_site_fract_z
Si Si1 0.500000 0.056930 0.250000
Si Si2 0.500000 0.250000 0.471375
Si Si3 0.742527 0.722887 0.904143
Si Si4 0.750000 0.000000 0.308765
Si Si5 0.341426 0.891050 0.101302
Si Si6 0.422883 0.607276 0.043398
Si Si7 0.383647 0.798174 0.801775
Si Si8 0.750000 0.500000 0.515023
O O1 0.618738 0.008154 0.275564
O O2 0.569677 0.112182 0.208030
O O3 0.380468 0.251251 0.434025
O O4 0.502276 0.168493 0.505357
O O5 0.839201 0.795815 0.899814
O O6 0.798168 0.649630 0.935704
O O7 0.723831 0.695242 0.844587
O O8 0.777081 0.076463 0.345640
O O9 0.487657 0.916350 0.092588
O O10 0.268616 0.922666 0.050676
O O11 0.374623 0.523688 0.018211
O O12 0.500000 0.750000 0.826602
O O13 0.337046 0.750000 0.750000
#
# Coordination Sequence:
#
# PCOD8283137 Si02
#       8
#     8   8  16   8  16  16  16   8
#     4  10  23  44  64  96 127 164 216 282 344 400
#     4  12  22  38  63  92 131 176 224 266 324 400
#     4  12  22  38  68  93 126 173 221 272 330 397
#     4  11  26  42  69  90 132 174 217 278 345 418
#     4  11  23  42  62  93 130 173 222 267 337 394
#     4  12  24  40  60  95 135 173 221 278 329 395
#     4   9  19  38  64  90 116 148 215 271 316 389
#     4  11  24  40  59  90 134 182 217 270 319 410
#
# _framework density 21.102428
#
# number of rings (size 3 to 8) (size 9 to 14) (size 15 to 20)
#    0.000    1.167    4.167    4.000    0.000    2.667 
#    0.000    0.000    0.000    1.000    0.000    0.000 
#    0.000    0.000    0.000    0.000    0.000    0.000 
#
# Total GULP energy -594795.177203 kJ/mol
# GULP energy per Si atom -12391.566192 kJ/mol
# Density = 2.105440 g / cm^3
# Si number density = 21.102428 Si / 1000 Ang^3
#
#
#
# Elastic Constant Matrix: (Units=GPa)
#
#
# Indices 1 2 3 4 5 6 
#
# 1 105.5376 19.5090 51.4419 0.0000 0.0000 0.0000
# 2 19.5090 56.2193 25.2143 0.0000 0.0000 0.0000
# 3 51.4419 25.2143 99.7807 0.0000 0.0000 0.0000
# 4 0.0000 0.0000 0.0000 8.1664 0.0000 0.0000
# 5 0.0000 0.0000 0.0000 0.0000 32.1803 0.0000
# 6 0.0000 0.0000 0.0000 0.0000 0.0000 32.7590
#
#
#
# Elastic Compliance Matrix: (Units=1/GPa)
#
#
# Indices 1 2 3 4 5 6 
#
# 1 0.012793 -0.001671 -0.006173 0.000000 0.000000 0.000000
# 2 -0.001671 0.020279 -0.004263 0.000000 0.000000 0.000000
# 3 -0.006173 -0.004263 0.014282 0.000000 0.000000 0.000000
# 4 0.000000 0.000000 0.000000 0.122453 0.000000 0.000000
# 5 0.000000 0.000000 0.000000 0.000000 0.031075 0.000000
# 6 0.000000 0.000000 0.000000 0.000000 0.000000 0.030526
#
#
# Mechanical properties :
#
#
# Convention : Reuss Voigt Hill
#
# Bulk Modulus (GPa) = 43.21533 50.42980 46.82257
# Shear Modulus (GPa) = 18.98713 25.64596 22.31655
#
# Velocity S-wave (km/s) = 3.00285 3.48991 3.25550
# Velocity P-wave (km/s) = 5.70492 6.33946 6.03055
#
# Compressibility (1/GPa) = 0.02313993
#
# Stress axis : x y z
#
# Youngs Moduli (GPa) = 78.16658 49.31142 70.01853
#
# Poissons Ratio (x) = 0.08239 0.43225
# Poissons Ratio (y) = 0.13059 0.29850
# Poissons Ratio (z) = 0.48255 0.21022
#
# Static dielectric constant tensor:
#      x y z
#    x 3.792920 0.000000 0.000000 
#    y 0.000000 3.664730 0.000000 
#    z 0.000000 0.000000 3.820730 
# 
# 
# High freq. dielectric constant tensor:
#      x y z
#    x 1.826590 0.000000 0.000000 
#    y 0.000000 1.821480 0.000000 
#    z 0.000000 0.000000 1.821990 
# 
# From -- ./inp_files/44491.got.cif
#   From: 2010.03.12/outbox.cif.g09.slc.cpg/sg68_23_cif.got.tgz:44491.got - 2010.04.10 23:14:56.
