data_PCOD8283824
_publ_section_title
;
Structure prediction by ZEFSAII (Michael W. Deem and Ramdas Pophale) SiO2 
 PCOD8283824
Probable space group: F M M M
;
_chemical_formula_sum "Si O2"
_cell_formula_units_Z 224
_cell_length_a 16.361316
_cell_length_b 33.000075
_cell_length_c 21.676146
_cell_angle_alpha 90.000000
_cell_angle_beta 90.000000
_cell_angle_gamma 90.000000
_cell_volume 11703.485653
_symmetry_space_group_name_H-M "F M M M"
_symmetry_group_IT_number 69
_symmetry_cell_setting 'orthorhombic'
loop_
_space_group_symop_operation_xyz
x,y,z
-x,-y,z
x,-y,-z
-x,y,-z
-x,-y,-z
x,y,-z
-x,y,z
x,-y,z
x,1/2+y,1/2+z
-x,1/2-y,1/2+z
x,1/2-y,1/2-z
-x,1/2+y,1/2-z
-x,1/2-y,1/2-z
x,1/2+y,1/2-z
-x,1/2+y,1/2+z
x,1/2-y,1/2+z
1/2+x,y,1/2+z
1/2-x,-y,1/2+z
1/2+x,-y,1/2-z
1/2-x,y,1/2-z
1/2-x,-y,1/2-z
1/2+x,y,1/2-z
1/2-x,y,1/2+z
1/2+x,-y,1/2+z
1/2+x,1/2+y,z
1/2-x,1/2-y,z
1/2+x,1/2-y,-z
1/2-x,1/2+y,-z
1/2-x,1/2-y,-z
1/2+x,1/2+y,-z
1/2-x,1/2+y,z
1/2+x,1/2-y,z
loop_
_atom_site_type_symbol
_atom_site_label
_atom_site_fract_x
_atom_site_fract_y
_atom_site_fract_z
Si Si1 0.096993 0.156718 0.430616
Si Si2 0.097007 0.754033 0.431177
Si Si3 0.904593 0.875026 0.000000
Si Si4 0.331061 0.887202 0.285239
Si Si5 0.906254 0.088528 0.335846
Si Si6 0.312567 0.954523 0.500000
Si Si7 0.749594 0.954313 0.367000
Si Si8 0.097208 0.828941 0.119511
O O1 0.128775 0.146030 0.500000
O O2 0.129149 0.201530 0.410399
O O3 0.127402 0.124582 0.380155
O O4 0.000000 0.156915 0.431282
O O5 0.129341 0.744437 0.500000
O O6 0.126154 0.718027 0.385778
O O7 0.000000 0.754397 0.432630
O O8 0.886658 0.922843 0.000000
O O9 0.868245 0.853522 0.939417
O O10 0.000000 0.868107 0.000000
O O11 0.250000 0.873872 0.250000
O O12 0.400626 0.899178 0.235858
O O13 0.312267 0.924905 0.330501
O O14 0.362345 0.847752 0.320327
O O15 0.844448 0.051602 0.348203
O O16 0.000000 0.076418 0.351023
O O17 0.256635 0.947289 0.559806
O O18 0.350014 0.000000 0.500000
O O19 0.724668 0.000000 0.348962
O O20 0.000000 0.832791 0.124591
#
# Coordination Sequence:
#
# PCOD8283824 Si02
#       8
#    32  32  16  32  32  16  32  32
#     4   8  15  29  50  76 107 138 171 218 271 316
#     4   8  13  24  46  78 109 136 169 212 263 318
#     4  10  18  29  54  86 110 137 175 222 269 313
#     4  10  21  36  54  74 103 147 184 212 255 319
#     4  10  21  36  56  81 107 136 179 228 268 309
#     4  10  20  37  57  81 111 144 174 213 271 334
#     4  10  22  39  59  80 105 139 178 216 264 327
#     4  10  17  29  52  83 112 135 172 224 267 302
#
# _framework density 19.139596999999998
#
# number of rings (size 3 to 8) (size 9 to 14) (size 15 to 20)
#    0.000    2.571    2.143    1.286    1.000    3.000 
#    0.000    0.714    0.000   12.000    0.000    9.000 
#    0.000    0.000    0.000    0.000    0.000    0.000 
#
# Total GULP energy -694087.744610 kJ/mol
# GULP energy per Si atom -12394.424011 kJ/mol
# Density = 1.909603 g / cm^3
# Si number density = 19.139597 Si / 1000 Ang^3
#
#
#
# Elastic Constant Matrix: (Units=GPa)
#
#
# Indices 1 2 3 4 5 6 
#
# 1 26.4147 14.8027 14.4762 0.0000 0.0000 0.0000
# 2 14.8027 87.2590 42.9159 0.0000 0.0000 0.0000
# 3 14.4762 42.9159 112.8469 0.0000 0.0000 0.0000
# 4 0.0000 0.0000 0.0000 25.4412 0.0000 0.0000
# 5 0.0000 0.0000 0.0000 0.0000 25.0521 0.0000
# 6 0.0000 0.0000 0.0000 0.0000 0.0000 20.0921
#
#
#
# Elastic Compliance Matrix: (Units=1/GPa)
#
#
# Indices 1 2 3 4 5 6 
#
# 1 0.042846 -0.005616 -0.003361 0.000000 0.000000 0.000000
# 2 -0.005616 0.014833 -0.004921 0.000000 0.000000 0.000000
# 3 -0.003361 -0.004921 0.011164 0.000000 0.000000 0.000000
# 4 0.000000 0.000000 0.000000 0.039306 0.000000 0.000000
# 5 0.000000 0.000000 0.000000 0.000000 0.039917 0.000000
# 6 0.000000 0.000000 0.000000 0.000000 0.000000 0.049771
#
#
# Mechanical properties :
#
#
# Convention : Reuss Voigt Hill
#
# Bulk Modulus (GPa) = 24.36093 41.21224 32.78659
# Shear Modulus (GPa) = 20.89303 24.40547 22.64925
#
# Velocity S-wave (km/s) = 3.30754 3.57477 3.44375
# Velocity P-wave (km/s) = 5.22897 6.21432 5.74282
#
# Compressibility (1/GPa) = 0.04104933
#
# Stress axis : x y z
#
# Youngs Moduli (GPa) = 23.33916 67.41807 89.57370
#
# Poissons Ratio (x) = 0.37859 0.30104
# Poissons Ratio (y) = 0.13106 0.44075
# Poissons Ratio (z) = 0.07844 0.33174
#
# Static dielectric constant tensor:
#      x y z
#    x 3.098340 0.000000 0.000000 
#    y 0.000000 3.710050 0.000000 
#    z 0.000000 0.000000 3.685220 
# 
# 
# High freq. dielectric constant tensor:
#      x y z
#    x 1.712630 0.000000 0.000000 
#    y 0.000000 1.746370 0.000000 
#    z 0.000000 0.000000 1.743810 
# 
# From -- ./inp_files/31250.got.cif
#   From: 2010.03.12/outbox.cif.g09.slc.cpg/sg69_16_cif.got.tgz:31250.got - 2010.04.10 23:52:46.
