data_PCOD8283506
_publ_section_title
;
Structure prediction by ZEFSAII (Michael W. Deem and Ramdas Pophale) SiO2 
 PCOD8283506
Probable space group: C C C A
;
_chemical_formula_sum "Si O2"
_cell_formula_units_Z 64
_cell_length_a 8.477202
_cell_length_b 21.787750
_cell_length_c 14.918953
_cell_angle_alpha 90.000000
_cell_angle_beta 90.000000
_cell_angle_gamma 90.000000
_cell_volume 2755.518055
_symmetry_space_group_name_H-M "C C C A"
_symmetry_group_IT_number 68
_space_group.IT_coordinate_system_code '2'
_symmetry_cell_setting 'orthorhombic'
loop_
_space_group_symop_operation_xyz
x,y,z
-x,1/2-y,z
x,1/2-y,1/2-z
-x,y,1/2-z
-x,-y,-z
x,1/2+y,-z
-x,1/2+y,1/2+z
x,-y,1/2+z
1/2+x,1/2+y,z
1/2-x,-y,z
1/2+x,-y,1/2-z
1/2-x,1/2+y,1/2-z
1/2-x,1/2-y,-z
1/2+x,y,-z
1/2-x,y,1/2+z
1/2+x,1/2-y,1/2+z
loop_
_atom_site_type_symbol
_atom_site_label
_atom_site_fract_x
_atom_site_fract_y
_atom_site_fract_z
Si Si1 0.000000 0.750000 0.893088
Si Si2 0.750595 0.750000 0.250000
Si Si3 0.624773 0.621502 0.448114
Si Si4 0.668612 0.881073 0.721485
Si Si5 0.694944 0.930763 0.392982
O O1 0.857339 0.773684 0.831921
O O2 0.939120 0.691715 0.949878
O O3 0.855925 0.692200 0.275700
O O4 0.766895 0.605763 0.378388
O O5 0.484356 0.574742 0.425710
O O6 0.688766 0.610981 0.547377
O O7 0.500000 0.911282 0.750000
O O8 0.796989 0.907351 0.790706
O O9 0.750000 0.000000 0.401977
#
# Coordination Sequence:
#
# PCOD8283506 Si02
#       5
#     8   8  16  16  16
#     4   9  18  38  70  96 131 170 216 285 346 402
#     4   9  17  38  66  96 132 166 220 274 346 404
#     4  11  24  45  69 100 136 179 230 286 345 404
#     4  11  23  42  67 100 133 179 225 284 349 408
#     4  12  26  44  66  98 137 184 231 279 338 414
#
# _framework density 23.226120999999999
#
# number of rings (size 3 to 8) (size 9 to 14) (size 15 to 20)
#    0.000    1.250    2.500    3.375    0.000    4.000 
#    4.500    0.000    0.000    0.000    0.000    0.000 
#    0.000    0.000    0.000    0.000    0.000    0.000 
#
# Total GULP energy -396744.116085 kJ/mol
# GULP energy per Si atom -12398.253628 kJ/mol
# Density = 2.317326 g / cm^3
# Si number density = 23.226121 Si / 1000 Ang^3
#
#
#
# Elastic Constant Matrix: (Units=GPa)
#
#
# Indices 1 2 3 4 5 6 
#
# 1 88.0204 19.6495 -9.0154 0.0000 0.0000 0.0000
# 2 19.6495 104.6540 27.4197 0.0000 0.0000 0.0000
# 3 -9.0154 27.4197 70.6082 0.0000 0.0000 0.0000
# 4 0.0000 0.0000 0.0000 23.5126 0.0000 0.0000
# 5 0.0000 0.0000 0.0000 0.0000 34.4174 0.0000
# 6 0.0000 0.0000 0.0000 0.0000 0.0000 32.9958
#
#
#
# Elastic Compliance Matrix: (Units=1/GPa)
#
#
# Indices 1 2 3 4 5 6 
#
# 1 0.012320 -0.003034 0.002751 0.000000 0.000000 0.000000
# 2 -0.003034 0.011385 -0.004809 0.000000 0.000000 0.000000
# 3 0.002751 -0.004809 0.016381 0.000000 0.000000 0.000000
# 4 0.000000 0.000000 0.000000 0.042530 0.000000 0.000000
# 5 0.000000 0.000000 0.000000 0.000000 0.029055 0.000000
# 6 0.000000 0.000000 0.000000 0.000000 0.000000 0.030307
#
#
# Mechanical properties :
#
#
# Convention : Reuss Voigt Hill
#
# Bulk Modulus (GPa) = 33.44073 37.71000 35.57536
# Shear Modulus (GPa) = 30.83965 33.20042 32.02003
#
# Velocity S-wave (km/s) = 3.64785 3.78490 3.71701
# Velocity P-wave (km/s) = 5.67200 5.94743 5.81135
#
# Compressibility (1/GPa) = 0.02990366
#
# Stress axis : x y z
#
# Youngs Moduli (GPa) = 81.16812 87.83638 61.04534
#
# Poissons Ratio (x) = 0.26650 -0.16795
# Poissons Ratio (y) = 0.24627 0.29354
# Poissons Ratio (z) = -0.22332 0.42236
#
# Static dielectric constant tensor:
#      x y z
#    x 4.154890 0.000000 0.000000 
#    y 0.000000 3.949610 0.000000 
#    z 0.000000 0.000000 4.034300 
# 
# 
# High freq. dielectric constant tensor:
#      x y z
#    x 1.924050 0.000000 0.000000 
#    y 0.000000 1.910530 0.000000 
#    z 0.000000 0.000000 1.912120 
# 
# From -- ./inp_files/19260.got.cif
#   From: 2010.03.12/outbox.cif.g09.slc.cpg/sg68_10_cif.got.tgz:19260.got - 2010.04.10 23:14:56.
