data_PCOD8283099
_publ_section_title
;
Structure prediction by ZEFSAII (Michael W. Deem and Ramdas Pophale) SiO2 
 PCOD8283099
Probable space group: C C C A
;
_chemical_formula_sum "Si O2"
_cell_formula_units_Z 88
_cell_length_a 28.794702
_cell_length_b 13.569489
_cell_length_c 10.989580
_cell_angle_alpha 90.000000
_cell_angle_beta 90.000000
_cell_angle_gamma 90.000000
_cell_volume 4293.951912
_symmetry_space_group_name_H-M "C C C A"
_symmetry_group_IT_number 68
_space_group.IT_coordinate_system_code '2'
_symmetry_cell_setting 'orthorhombic'
loop_
_space_group_symop_operation_xyz
x,y,z
-x,1/2-y,z
x,1/2-y,1/2-z
-x,y,1/2-z
-x,-y,-z
x,1/2+y,-z
-x,1/2+y,1/2+z
x,-y,1/2+z
1/2+x,1/2+y,z
1/2-x,-y,z
1/2+x,-y,1/2-z
1/2-x,1/2+y,1/2-z
1/2-x,1/2-y,-z
1/2+x,y,-z
1/2-x,y,1/2+z
1/2+x,1/2-y,1/2+z
loop_
_atom_site_type_symbol
_atom_site_label
_atom_site_fract_x
_atom_site_fract_y
_atom_site_fract_z
Si Si1 0.472008 0.021588 0.624460
Si Si2 0.341179 0.569350 0.524721
Si Si3 0.605138 0.615499 0.547844
Si Si4 0.092077 0.794026 0.618184
Si Si5 0.250000 0.000000 0.094375
Si Si6 0.315206 0.646507 0.775238
O O1 0.500000 0.011337 0.750000
O O2 0.432540 0.937909 0.633408
O O3 0.500000 0.000000 0.500000
O O4 0.451977 0.132780 0.618389
O O5 0.370341 0.468594 0.533174
O O6 0.363051 0.646280 0.428985
O O7 0.287539 0.554182 0.489137
O O8 0.343161 0.607876 0.660159
O O9 0.580866 0.699613 0.466577
O O10 0.645294 0.666501 0.625416
O O11 0.103365 0.750000 0.750000
O O12 0.225037 0.924915 0.183506
O O13 0.290081 0.750000 0.750000
#
# Coordination Sequence:
#
# PCOD8283099 Si02
#       6
#    16  16  16  16   8  16
#     4  11  26  44  69 101 134 169 216 274 329 390
#     4  10  23  42  63  95 128 173 215 265 325 377
#     4  10  24  41  68  92 131 172 213 263 325 388
#     4  11  24  43  69  94 129 173 216 260 326 398
#     4  10  24  40  60  98 132 170 210 278 322 378
#     4  11  22  42  66  93 129 170 224 265 318 389
#
# _framework density 20.493941
#
# number of rings (size 3 to 8) (size 9 to 14) (size 15 to 20)
#    0.000    1.455    1.818    1.636   12.727    4.000 
#    0.000    0.909    0.000    0.000    0.000    0.000 
#    0.000    0.000    0.000    0.000    0.000    0.000 
#
# Total GULP energy -545548.361400 kJ/mol
# GULP energy per Si atom -12398.826395 kJ/mol
# Density = 2.044730 g / cm^3
# Si number density = 20.493941 Si / 1000 Ang^3
#
#
#
# Elastic Constant Matrix: (Units=GPa)
#
#
# Indices 1 2 3 4 5 6 
#
# 1 92.6751 40.8521 28.8711 0.0000 0.0000 0.0000
# 2 40.8521 137.6689 54.8950 0.0000 0.0000 0.0000
# 3 28.8711 54.8950 104.1482 0.0000 0.0000 0.0000
# 4 0.0000 0.0000 0.0000 35.0063 0.0000 0.0000
# 5 0.0000 0.0000 0.0000 0.0000 26.0404 0.0000
# 6 0.0000 0.0000 0.0000 0.0000 0.0000 28.5252
#
#
#
# Elastic Compliance Matrix: (Units=1/GPa)
#
#
# Indices 1 2 3 4 5 6 
#
# 1 0.012718 -0.002998 -0.001945 0.000000 0.000000 0.000000
# 2 -0.002998 0.009904 -0.004389 0.000000 0.000000 0.000000
# 3 -0.001945 -0.004389 0.012454 0.000000 0.000000 0.000000
# 4 0.000000 0.000000 0.000000 0.028566 0.000000 0.000000
# 5 0.000000 0.000000 0.000000 0.000000 0.038402 0.000000
# 6 0.000000 0.000000 0.000000 0.000000 0.000000 0.035057
#
#
# Mechanical properties :
#
#
# Convention : Reuss Voigt Hill
#
# Bulk Modulus (GPa) = 60.93449 64.85875 62.89662
# Shear Modulus (GPa) = 31.01046 31.90599 31.45822
#
# Velocity S-wave (km/s) = 3.89415 3.94997 3.92216
# Velocity P-wave (km/s) = 7.07224 7.24704 7.16017
#
# Compressibility (1/GPa) = 0.01641107
#
# Stress axis : x y z
#
# Youngs Moduli (GPa) = 78.62826 100.97366 80.29394
#
# Poissons Ratio (x) = 0.30275 0.15619
# Poissons Ratio (y) = 0.23575 0.35240
# Poissons Ratio (z) = 0.15295 0.44316
#
# Static dielectric constant tensor:
#      x y z
#    x 3.770020 0.000000 0.000000 
#    y 0.000000 3.985490 0.000000 
#    z 0.000000 0.000000 3.745710 
# 
# 
# High freq. dielectric constant tensor:
#      x y z
#    x 1.799080 0.000000 0.000000 
#    y 0.000000 1.819950 0.000000 
#    z 0.000000 0.000000 1.807160 
# 
# From -- ./inp_files/17633.got.cif
#   From: 2010.03.12/outbox.cif.g09.slc.cpg/sg68_9_cif.got.tgz:17633.got - 2010.04.10 23:14:56.
