data_PCOD8283708
_publ_section_title
;
Structure prediction by ZEFSAII (Michael W. Deem and Ramdas Pophale) SiO2 
 PCOD8283708
Probable space group: C C C A
;
_chemical_formula_sum "Si O2"
_cell_formula_units_Z 96
_cell_length_a 20.527658
_cell_length_b 13.434559
_cell_length_c 14.946884
_cell_angle_alpha 90.000000
_cell_angle_beta 90.000000
_cell_angle_gamma 90.000000
_cell_volume 4122.052156
_symmetry_space_group_name_H-M "C C C A"
_symmetry_group_IT_number 68
_space_group.IT_coordinate_system_code '2'
_symmetry_cell_setting 'orthorhombic'
loop_
_space_group_symop_operation_xyz
x,y,z
-x,1/2-y,z
x,1/2-y,1/2-z
-x,y,1/2-z
-x,-y,-z
x,1/2+y,-z
-x,1/2+y,1/2+z
x,-y,1/2+z
1/2+x,1/2+y,z
1/2-x,-y,z
1/2+x,-y,1/2-z
1/2-x,1/2+y,1/2-z
1/2-x,1/2-y,-z
1/2+x,y,-z
1/2-x,y,1/2+z
1/2+x,1/2-y,1/2+z
loop_
_atom_site_type_symbol
_atom_site_label
_atom_site_fract_x
_atom_site_fract_y
_atom_site_fract_z
Si Si1 0.750000 0.000000 0.390822
Si Si2 0.197988 0.202631 0.063410
Si Si3 0.425089 0.730438 0.546520
Si Si4 0.429261 0.576310 0.230915
Si Si5 0.070804 0.992269 0.458614
Si Si6 0.332382 0.750000 0.250000
Si Si7 0.380111 0.078101 0.136380
O O1 0.709328 0.916358 0.445272
O O2 0.804097 0.936799 0.333692
O O3 0.211876 0.249531 0.161533
O O4 0.250000 0.250000 0.000000
O O5 0.124276 0.236213 0.037630
O O6 0.500000 0.750000 0.515726
O O7 0.417570 0.617933 0.581181
O O8 0.403107 0.806964 0.625175
O O9 0.500000 0.622420 0.250000
O O10 0.419365 0.563736 0.125404
O O11 0.375130 0.651524 0.265508
O O12 0.425109 0.474582 0.289530
O O13 0.117814 0.027516 0.537859
O O14 0.000000 0.000000 0.500000
#
# Coordination Sequence:
#
# PCOD8283708 Si02
#       7
#     8  16  16  16  16   8  16
#     4  12  24  50  72 100 154 196 240 306 366 444
#     4  12  27  48  75 105 149 195 245 307 374 444
#     4  12  24  43  76 111 146 194 246 304 372 447
#     4  12  25  45  72 108 151 188 237 312 370 437
#     4  12  24  43  70 108 145 191 239 292 381 444
#     4  12  27  44  76 114 131 194 260 294 372 444
#     4  12  25  46  70 104 153 188 243 308 361 445
#
# _framework density 23.289370999999999
#
# number of rings (size 3 to 8) (size 9 to 14) (size 15 to 20)
#    0.000    0.000    8.333    1.250    0.000    0.667 
#    3.000    3.333    0.000    0.000    0.000    0.000 
#    0.000    0.000    0.000    0.000    0.000    0.000 
#
# Total GULP energy -594847.602716 kJ/mol
# GULP energy per Si atom -12392.658390 kJ/mol
# Density = 2.323636 g / cm^3
# Si number density = 23.289371 Si / 1000 Ang^3
#
#
#
# Elastic Constant Matrix: (Units=GPa)
#
#
# Indices 1 2 3 4 5 6 
#
# 1 122.1708 12.8000 31.6347 0.0000 0.0000 0.0000
# 2 12.8000 120.0214 18.2763 0.0000 0.0000 0.0000
# 3 31.6347 18.2763 133.2428 0.0000 0.0000 0.0000
# 4 0.0000 0.0000 0.0000 25.9182 0.0000 0.0000
# 5 0.0000 0.0000 0.0000 0.0000 24.0858 0.0000
# 6 0.0000 0.0000 0.0000 0.0000 0.0000 37.2641
#
#
#
# Elastic Compliance Matrix: (Units=1/GPa)
#
#
# Indices 1 2 3 4 5 6 
#
# 1 0.008768 -0.000631 -0.001995 0.000000 0.000000 0.000000
# 2 -0.000631 0.008555 -0.001024 0.000000 0.000000 0.000000
# 3 -0.001995 -0.001024 0.008119 0.000000 0.000000 0.000000
# 4 0.000000 0.000000 0.000000 0.038583 0.000000 0.000000
# 5 0.000000 0.000000 0.000000 0.000000 0.041518 0.000000
# 6 0.000000 0.000000 0.000000 0.000000 0.000000 0.026835
#
#
# Mechanical properties :
#
#
# Convention : Reuss Voigt Hill
#
# Bulk Modulus (GPa) = 55.11989 55.65078 55.38534
# Shear Modulus (GPa) = 34.31087 38.30187 36.30637
#
# Velocity S-wave (km/s) = 3.84245 4.05978 3.95261
# Velocity P-wave (km/s) = 6.58822 6.77665 6.68310
#
# Compressibility (1/GPa) = 0.01814227
#
# Stress axis : x y z
#
# Youngs Moduli (GPa) = 114.05086 116.89018 123.16509
#
# Poissons Ratio (x) = 0.07379 0.24573
# Poissons Ratio (y) = 0.07200 0.12607
# Poissons Ratio (z) = 0.22755 0.11965
#
# Static dielectric constant tensor:
#      x y z
#    x 4.454850 0.000000 0.000000 
#    y 0.000000 4.629920 0.000000 
#    z 0.000000 0.000000 3.737280 
# 
# 
# High freq. dielectric constant tensor:
#      x y z
#    x 1.933300 0.000000 0.000000 
#    y 0.000000 1.935240 0.000000 
#    z 0.000000 0.000000 1.891350 
# 
# From -- ./inp_files/24498.got.cif
#   From: 2010.03.12/outbox.cif.g09.slc.cpg/sg68_13_cif.got.tgz:24498.got - 2010.04.10 23:14:56.
