data_PCOD8283385
_publ_section_title
;
Structure prediction by ZEFSAII (Michael W. Deem and Ramdas Pophale) SiO2 
 PCOD8283385
Probable space group: C C C A
;
_chemical_formula_sum "Si O2"
_cell_formula_units_Z 112
_cell_length_a 16.970404
_cell_length_b 10.716718
_cell_length_c 30.330245
_cell_angle_alpha 90.000000
_cell_angle_beta 90.000000
_cell_angle_gamma 90.000000
_cell_volume 5516.071699
_symmetry_space_group_name_H-M "C C C A"
_symmetry_group_IT_number 68
_space_group.IT_coordinate_system_code '2'
_symmetry_cell_setting 'orthorhombic'
loop_
_space_group_symop_operation_xyz
x,y,z
-x,1/2-y,z
x,1/2-y,1/2-z
-x,y,1/2-z
-x,-y,-z
x,1/2+y,-z
-x,1/2+y,1/2+z
x,-y,1/2+z
1/2+x,1/2+y,z
1/2-x,-y,z
1/2+x,-y,1/2-z
1/2-x,1/2+y,1/2-z
1/2-x,1/2-y,-z
1/2+x,y,-z
1/2-x,y,1/2+z
1/2+x,1/2-y,1/2+z
loop_
_atom_site_type_symbol
_atom_site_label
_atom_site_fract_x
_atom_site_fract_y
_atom_site_fract_z
Si Si1 0.213847 0.140036 0.470854
Si Si2 0.412210 0.603688 0.745773
Si Si3 0.528506 0.884260 0.886468
Si Si4 0.680824 0.590966 0.667927
Si Si5 0.955776 0.125934 0.989114
Si Si6 0.122587 0.506015 0.150701
Si Si7 0.740838 0.326495 0.872364
O O1 0.250000 0.250000 0.500000
O O2 0.124958 0.121380 0.485230
O O3 0.218813 0.203746 0.422639
O O4 0.250000 0.000000 0.475073
O O5 0.421415 0.750000 0.750000
O O6 0.500000 0.543286 0.750000
O O7 0.348631 0.563047 0.782424
O O8 0.379166 0.562988 0.699083
O O9 0.500000 0.750000 0.867127
O O10 0.605397 0.932851 0.862234
O O11 0.553517 0.868840 0.936647
O O12 0.459385 0.984085 0.876115
O O13 0.750000 0.500000 0.654153
O O14 0.718652 0.724421 0.658721
O O15 0.000000 0.250000 0.005708
O O16 0.000000 0.000000 0.000000
O O17 0.190056 0.571867 0.121989
O O18 0.158678 0.365793 0.152395
#
# Coordination Sequence:
#
# PCOD8283385 Si02
#       7
#    16  16  16  16  16  16  16
#     4  12  25  43  68  97 136 177 223 279 345 405
#     4  11  21  38  67 101 126 167 228 274 320 385
#     4  11  21  42  67  90 124 172 227 269 321 393
#     4  12  26  40  64 104 137 166 218 287 334 390
#     4  11  25  40  65  94 125 169 226 277 325 400
#     4  11  21  40  70  90 125 172 226 267 322 403
#     4  11  24  42  66  96 133 180 220 266 342 409
#
# _framework density 20.304303999999998
#
# number of rings (size 3 to 8) (size 9 to 14) (size 15 to 20)
#    0.000    0.714    5.714    2.571    4.000    3.429 
#    0.000    0.714    0.000    0.857    0.000    0.000 
#    0.000    0.000    0.000    0.000    0.000    0.000 
#
# Total GULP energy -693913.295165 kJ/mol
# GULP energy per Si atom -12391.308842 kJ/mol
# Density = 2.025809 g / cm^3
# Si number density = 20.304304 Si / 1000 Ang^3
#
#
#
# Elastic Constant Matrix: (Units=GPa)
#
#
# Indices 1 2 3 4 5 6 
#
# 1 170.1021 44.9686 50.4786 0.0000 0.0000 0.0000
# 2 44.9686 75.0916 20.9902 0.0000 0.0000 0.0000
# 3 50.4786 20.9902 127.6406 0.0000 0.0000 0.0000
# 4 0.0000 0.0000 0.0000 16.6322 0.0000 0.0000
# 5 0.0000 0.0000 0.0000 0.0000 7.9621 0.0000
# 6 0.0000 0.0000 0.0000 0.0000 0.0000 41.2068
#
#
#
# Elastic Compliance Matrix: (Units=1/GPa)
#
#
# Indices 1 2 3 4 5 6 
#
# 1 0.007612 -0.003896 -0.002370 0.000000 0.000000 0.000000
# 2 -0.003896 0.015953 -0.001083 0.000000 0.000000 0.000000
# 3 -0.002370 -0.001083 0.008950 0.000000 0.000000 0.000000
# 4 0.000000 0.000000 0.000000 0.060124 0.000000 0.000000
# 5 0.000000 0.000000 0.000000 0.000000 0.125595 0.000000
# 6 0.000000 0.000000 0.000000 0.000000 0.000000 0.024268
#
#
# Mechanical properties :
#
#
# Convention : Reuss Voigt Hill
#
# Bulk Modulus (GPa) = 56.12348 67.30102 61.71225
# Shear Modulus (GPa) = 19.00147 30.25334 24.62740
#
# Velocity S-wave (km/s) = 3.06246 3.86423 3.48647
# Velocity P-wave (km/s) = 6.34083 7.28889 6.83132
#
# Compressibility (1/GPa) = 0.01781785
#
# Stress axis : x y z
#
# Youngs Moduli (GPa) = 131.37149 62.68469 111.73594
#
# Poissons Ratio (x) = 0.24422 0.26478
# Poissons Ratio (y) = 0.51183 0.12097
# Poissons Ratio (z) = 0.31131 0.06786
#
# Static dielectric constant tensor:
#      x y z
#    x 4.009420 0.000000 0.000000 
#    y 0.000000 2.172300 0.000000 
#    z 0.000000 0.000000 3.732440 
# 
# 
# High freq. dielectric constant tensor:
#      x y z
#    x 1.813070 0.000000 0.000000 
#    y 0.000000 1.772560 0.000000 
#    z 0.000000 0.000000 1.803260 
# 
# From -- ./inp_files/55296.got.cif
#   From: 2010.03.12/outbox.cif.g09.slc.cpg/sg68_28_cif.got.tgz:55296.got - 2010.04.10 23:14:56.
