data_PCOD8283956
_publ_section_title
;
Structure prediction by ZEFSAII (Michael W. Deem and Ramdas Pophale) SiO2 
 PCOD8283956
Probable space group: F M M M
;
_chemical_formula_sum "Si O2"
_cell_formula_units_Z 192
_cell_length_a 30.060899
_cell_length_b 19.038029
_cell_length_c 19.073878
_cell_angle_alpha 90.000000
_cell_angle_beta 90.000000
_cell_angle_gamma 90.000000
_cell_volume 10915.985471
_symmetry_space_group_name_H-M "F M M M"
_symmetry_group_IT_number 69
_symmetry_cell_setting 'orthorhombic'
loop_
_space_group_symop_operation_xyz
x,y,z
-x,-y,z
x,-y,-z
-x,y,-z
-x,-y,-z
x,y,-z
-x,y,z
x,-y,z
x,1/2+y,1/2+z
-x,1/2-y,1/2+z
x,1/2-y,1/2-z
-x,1/2+y,1/2-z
-x,1/2-y,1/2-z
x,1/2+y,1/2-z
-x,1/2+y,1/2+z
x,1/2-y,1/2+z
1/2+x,y,1/2+z
1/2-x,-y,1/2+z
1/2+x,-y,1/2-z
1/2-x,y,1/2-z
1/2-x,-y,1/2-z
1/2+x,y,1/2-z
1/2-x,y,1/2+z
1/2+x,-y,1/2+z
1/2+x,1/2+y,z
1/2-x,1/2-y,z
1/2+x,1/2-y,-z
1/2-x,1/2+y,-z
1/2-x,1/2-y,-z
1/2+x,1/2+y,-z
1/2-x,1/2+y,z
1/2+x,1/2-y,z
loop_
_atom_site_type_symbol
_atom_site_label
_atom_site_fract_x
_atom_site_fract_y
_atom_site_fract_z
Si Si1 0.299560 0.226158 0.671254
Si Si2 0.051014 0.419167 0.699621
Si Si3 0.201443 0.922474 0.218637
Si Si4 0.374405 0.702354 0.581616
Si Si5 0.619050 0.920486 0.816836
Si Si6 0.949278 0.687315 0.579377
O O1 0.312106 0.250000 0.750000
O O2 0.250000 0.250000 0.651821
O O3 0.305098 0.141329 0.664014
O O4 0.332263 0.260306 0.615877
O O5 0.061521 0.500000 0.682542
O O6 0.082107 0.392084 0.762338
O O7 0.063240 0.377000 0.629646
O O8 0.000000 0.407797 0.722266
O O9 0.250000 0.913983 0.250000
O O10 0.167479 0.914715 0.282661
O O11 0.195527 0.000000 0.182912
O O12 0.364550 0.693495 0.500000
O O13 0.382369 0.625682 0.613507
O O14 0.418612 0.746651 0.596935
O O15 0.607962 0.000000 0.839221
O O16 0.941564 0.660878 0.500000
O O17 0.000000 0.711836 0.591103
#
# Coordination Sequence:
#
# PCOD8283956 Si02
#       6
#    32  32  32  32  32  32
#     4  11  19  34  56  81 106 137 176 217 259 315
#     4   9  18  32  52  79 106 134 173 217 259 308
#     4  10  18  30  51  79 106 133 169 211 256 306
#     4  11  23  36  53  76 104 139 176 219 266 313
#     4  10  20  34  52  74 101 134 172 218 263 307
#     4   9  19  34  51  75 107 140 173 211 260 315
#
# _framework density 17.588882999999999
#
# number of rings (size 3 to 8) (size 9 to 14) (size 15 to 20)
#    0.000    2.000    3.333    1.000    0.000    1.667 
#    0.000    3.333    0.000    1.500    0.000    4.667 
#    0.000    0.000    0.000    0.000    0.000    0.000 
#
# Total GULP energy -595201.950696 kJ/mol
# GULP energy per Si atom -12400.040640 kJ/mol
# Density = 1.754885 g / cm^3
# Si number density = 17.588883 Si / 1000 Ang^3
#
#
#
# Elastic Constant Matrix: (Units=GPa)
#
#
# Indices 1 2 3 4 5 6 
#
# 1 100.4258 46.4284 67.5087 0.0000 0.0000 0.0000
# 2 46.4284 128.4520 68.7729 0.0000 0.0000 0.0000
# 3 67.5087 68.7729 107.1256 0.0000 0.0000 0.0000
# 4 0.0000 0.0000 0.0000 29.9606 0.0000 0.0000
# 5 0.0000 0.0000 0.0000 0.0000 24.7395 0.0000
# 6 0.0000 0.0000 0.0000 0.0000 0.0000 25.6919
#
#
#
# Elastic Compliance Matrix: (Units=1/GPa)
#
#
# Indices 1 2 3 4 5 6 
#
# 1 0.017310 -0.000634 -0.010501 0.000000 0.000000 0.000000
# 2 -0.000634 0.011886 -0.007231 0.000000 0.000000 0.000000
# 3 -0.010501 -0.007231 0.020595 0.000000 0.000000 0.000000
# 4 0.000000 0.000000 0.000000 0.033377 0.000000 0.000000
# 5 0.000000 0.000000 0.000000 0.000000 0.040421 0.000000
# 6 0.000000 0.000000 0.000000 0.000000 0.000000 0.038923
#
#
# Mechanical properties :
#
#
# Convention : Reuss Voigt Hill
#
# Bulk Modulus (GPa) = 76.58301 77.93593 77.25947
# Shear Modulus (GPa) = 24.55842 26.29797 25.42820
#
# Velocity S-wave (km/s) = 3.74069 3.87091 3.80636
# Velocity P-wave (km/s) = 7.89254 8.02400 7.95854
#
# Compressibility (1/GPa) = 0.01305773
#
# Stress axis : x y z
#
# Youngs Moduli (GPa) = 57.76983 84.13602 48.55660
#
# Poissons Ratio (x) = 0.05336 0.50991
# Poissons Ratio (y) = 0.03664 0.35109
# Poissons Ratio (z) = 0.60666 0.60836
#
# Static dielectric constant tensor:
#      x y z
#    x 3.448920 0.000000 0.000000 
#    y 0.000000 3.553710 0.000000 
#    z 0.000000 0.000000 3.049940 
# 
# 
# High freq. dielectric constant tensor:
#      x y z
#    x 1.697310 0.000000 0.000000 
#    y 0.000000 1.690770 0.000000 
#    z 0.000000 0.000000 1.646570 
# 
# From -- ./inp_files/33533.got.cif
#   From: 2010.03.12/outbox.cif.g09.slc.cpg/sg69_17_cif.got.tgz:33533.got - 2010.04.10 23:52:46.
