data_PCOD8283553
_publ_section_title
;
Structure prediction by ZEFSAII (Michael W. Deem and Ramdas Pophale) SiO2 
 PCOD8283553
Probable space group: C C C A
;
_chemical_formula_sum "Si O2"
_cell_formula_units_Z 96
_cell_length_a 18.400571
_cell_length_b 8.665242
_cell_length_c 28.428561
_cell_angle_alpha 90.000000
_cell_angle_beta 90.000000
_cell_angle_gamma 90.000000
_cell_volume 4532.803299
_symmetry_space_group_name_H-M "C C C A"
_symmetry_group_IT_number 68
_space_group.IT_coordinate_system_code '2'
_symmetry_cell_setting 'orthorhombic'
loop_
_space_group_symop_operation_xyz
x,y,z
-x,1/2-y,z
x,1/2-y,1/2-z
-x,y,1/2-z
-x,-y,-z
x,1/2+y,-z
-x,1/2+y,1/2+z
x,-y,1/2+z
1/2+x,1/2+y,z
1/2-x,-y,z
1/2+x,-y,1/2-z
1/2-x,1/2+y,1/2-z
1/2-x,1/2-y,-z
1/2+x,y,-z
1/2-x,y,1/2+z
1/2+x,1/2-y,1/2+z
loop_
_atom_site_type_symbol
_atom_site_label
_atom_site_fract_x
_atom_site_fract_y
_atom_site_fract_z
Si Si1 0.810928 0.612995 0.219476
Si Si2 0.607649 0.835957 0.874545
Si Si3 0.073545 0.419607 0.228928
Si Si4 0.543505 0.494725 0.374723
Si Si5 0.166042 0.995406 0.038268
Si Si6 0.922178 0.301948 0.463768
O O1 0.774752 0.750000 0.250000
O O2 0.750000 0.500000 0.199367
O O3 0.854799 0.677119 0.175667
O O4 0.861087 0.526862 0.256537
O O5 0.541753 0.957015 0.871506
O O6 0.584641 0.663001 0.887176
O O7 0.663209 0.894807 0.914146
O O8 0.084982 0.250000 0.250000
O O9 0.069754 0.420301 0.172553
O O10 0.000000 0.492865 0.250000
O O11 0.559341 0.615844 0.415129
O O12 0.250000 0.000000 0.021741
O O13 0.134116 0.165025 0.046723
O O14 0.115722 0.919588 0.998914
O O15 0.000000 0.250000 0.486088
#
# Coordination Sequence:
#
# PCOD8283553 Si02
#       6
#    16  16  16  16  16  16
#     4  12  25  46  66 100 141 193 231 287 351 425
#     4  11  24  44  72 100 143 178 238 289 359 421
#     4  11  24  40  69  98 138 176 233 284 342 410
#     4  11  24  43  71 107 133 184 233 297 352 421
#     4  12  27  48  73 105 141 190 231 299 362 436
#     4  12  26  46  74 105 143 181 242 295 362 424
#
# _framework density 21.178947999999998
#
# number of rings (size 3 to 8) (size 9 to 14) (size 15 to 20)
#    0.000    0.500    5.000    3.000    7.000    0.333 
#    3.000    0.833    0.000    0.000    0.000    0.000 
#    0.000    0.000    0.000    0.000    0.000    0.000 
#
# Total GULP energy -595408.711465 kJ/mol
# GULP energy per Si atom -12404.348156 kJ/mol
# Density = 2.113074 g / cm^3
# Si number density = 21.178948 Si / 1000 Ang^3
#
#
#
# Elastic Constant Matrix: (Units=GPa)
#
#
# Indices 1 2 3 4 5 6 
#
# 1 105.5229 26.2209 18.7587 0.0000 0.0000 0.0000
# 2 26.2209 93.7694 26.4004 0.0000 0.0000 0.0000
# 3 18.7587 26.4004 114.7966 0.0000 0.0000 0.0000
# 4 0.0000 0.0000 0.0000 33.7100 0.0000 0.0000
# 5 0.0000 0.0000 0.0000 0.0000 14.4209 0.0000
# 6 0.0000 0.0000 0.0000 0.0000 0.0000 35.1273
#
#
#
# Elastic Compliance Matrix: (Units=1/GPa)
#
#
# Indices 1 2 3 4 5 6 
#
# 1 0.010311 -0.002576 -0.001093 0.000000 0.000000 0.000000
# 2 -0.002576 0.012046 -0.002349 0.000000 0.000000 0.000000
# 3 -0.001093 -0.002349 0.009430 0.000000 0.000000 0.000000
# 4 0.000000 0.000000 0.000000 0.029665 0.000000 0.000000
# 5 0.000000 0.000000 0.000000 0.000000 0.069344 0.000000
# 6 0.000000 0.000000 0.000000 0.000000 0.000000 0.028468
#
#
# Mechanical properties :
#
#
# Convention : Reuss Voigt Hill
#
# Bulk Modulus (GPa) = 50.62865 50.76100 50.69483
# Shear Modulus (GPa) = 28.10841 32.83224 30.47032
#
# Velocity S-wave (km/s) = 3.64701 3.94157 3.79715
# Velocity P-wave (km/s) = 6.45688 6.68837 6.57364
#
# Compressibility (1/GPa) = 0.01975166
#
# Stress axis : x y z
#
# Youngs Moduli (GPa) = 96.98529 83.01399 106.04559
#
# Poissons Ratio (x) = 0.21381 0.11586
# Poissons Ratio (y) = 0.24980 0.24915
# Poissons Ratio (z) = 0.10596 0.19504
#
# Static dielectric constant tensor:
#      x y z
#    x 3.940500 0.000000 0.000000 
#    y 0.000000 4.015010 0.000000 
#    z 0.000000 0.000000 3.819260 
# 
# 
# High freq. dielectric constant tensor:
#      x y z
#    x 1.828980 0.000000 0.000000 
#    y 0.000000 1.845550 0.000000 
#    z 0.000000 0.000000 1.839510 
# 
# From -- ./inp_files/51737.got.cif
#   From: 2010.03.12/outbox.cif.g09.slc.cpg/sg68_26_cif.got.tgz:51737.got - 2010.04.10 23:14:56.
