data_PCOD8283179
_publ_section_title
;
Structure prediction by ZEFSAII (Michael W. Deem and Ramdas Pophale) SiO2 
 PCOD8283179
Probable space group: C C C A
;
_chemical_formula_sum "Si O2"
_cell_formula_units_Z 72
_cell_length_a 16.658934
_cell_length_b 9.159002
_cell_length_c 21.195151
_cell_angle_alpha 90.000000
_cell_angle_beta 90.000000
_cell_angle_gamma 90.000000
_cell_volume 3233.939392
_symmetry_space_group_name_H-M "C C C A"
_symmetry_group_IT_number 68
_space_group.IT_coordinate_system_code '2'
_symmetry_cell_setting 'orthorhombic'
loop_
_space_group_symop_operation_xyz
x,y,z
-x,1/2-y,z
x,1/2-y,1/2-z
-x,y,1/2-z
-x,-y,-z
x,1/2+y,-z
-x,1/2+y,1/2+z
x,-y,1/2+z
1/2+x,1/2+y,z
1/2-x,-y,z
1/2+x,-y,1/2-z
1/2-x,1/2+y,1/2-z
1/2-x,1/2-y,-z
1/2+x,y,-z
1/2-x,y,1/2+z
1/2+x,1/2-y,1/2+z
loop_
_atom_site_type_symbol
_atom_site_label
_atom_site_fract_x
_atom_site_fract_y
_atom_site_fract_z
Si Si1 0.846598 0.892866 0.418957
Si Si2 0.858458 0.750000 0.750000
Si Si3 0.750000 0.500000 0.194869
Si Si4 0.500000 0.750000 0.346132
Si Si5 0.179116 0.595602 0.032305
Si Si6 0.511814 0.470120 0.427617
O O1 0.803314 0.769637 0.462582
O O2 0.807695 0.904335 0.350161
O O3 0.835918 0.043741 0.459648
O O4 0.941554 0.853442 0.409723
O O5 0.802264 0.891664 0.761494
O O6 0.917978 0.777985 0.691869
O O7 0.486790 0.610499 0.388495
O O8 0.250000 0.500000 0.062953
O O9 0.103908 0.576210 0.080710
O O10 0.500000 0.500000 0.500000
#
# Coordination Sequence:
#
# PCOD8283179 Si02
#       6
#    16   8   8   8  16  16
#     4  11  24  42  66 105 150 188 234 302 358 461
#     4  11  28  48  78 101 136 206 250 315 346 436
#     4  12  26  48  72  96 136 184 266 292 358 410
#     4  11  24  50  72 102 146 195 250 292 380 439
#     4  11  24  37  66 109 151 187 227 293 391 442
#     4  10  24  38  72 103 146 185 232 291 372 454
#
# _framework density 22.263869
#
# number of rings (size 3 to 8) (size 9 to 14) (size 15 to 20)
#    0.000    1.111    3.333    1.333   15.556    1.778 
#    0.000    0.000    0.000    0.000    0.000    0.000 
#    0.000    0.000    0.000    0.000    0.000    0.000 
#
# Total GULP energy -446102.739189 kJ/mol
# GULP energy per Si atom -12391.742755 kJ/mol
# Density = 2.221320 g / cm^3
# Si number density = 22.263869 Si / 1000 Ang^3
#
#
#
# Elastic Constant Matrix: (Units=GPa)
#
#
# Indices 1 2 3 4 5 6 
#
# 1 154.7367 29.9890 49.8607 0.0000 0.0000 0.0000
# 2 29.9890 99.0956 51.4518 0.0000 0.0000 0.0000
# 3 49.8607 51.4518 105.1975 0.0000 0.0000 0.0000
# 4 0.0000 0.0000 0.0000 40.7122 0.0000 0.0000
# 5 0.0000 0.0000 0.0000 0.0000 26.9630 0.0000
# 6 0.0000 0.0000 0.0000 0.0000 0.0000 38.6719
#
#
#
# Elastic Compliance Matrix: (Units=1/GPa)
#
#
# Indices 1 2 3 4 5 6 
#
# 1 0.007652 -0.000580 -0.003343 0.000000 0.000000 0.000000
# 2 -0.000580 0.013570 -0.006362 0.000000 0.000000 0.000000
# 3 -0.003343 -0.006362 0.014202 0.000000 0.000000 0.000000
# 4 0.000000 0.000000 0.000000 0.024563 0.000000 0.000000
# 5 0.000000 0.000000 0.000000 0.000000 0.037088 0.000000
# 6 0.000000 0.000000 0.000000 0.000000 0.000000 0.025859
#
#
# Mechanical properties :
#
#
# Convention : Reuss Voigt Hill
#
# Bulk Modulus (GPa) = 67.32293 69.07031 68.19662
# Shear Modulus (GPa) = 33.67998 36.45130 35.06564
#
# Velocity S-wave (km/s) = 3.89365 4.05067 3.97294
# Velocity P-wave (km/s) = 7.10762 7.27792 7.19327
#
# Compressibility (1/GPa) = 0.01485378
#
# Stress axis : x y z
#
# Youngs Moduli (GPa) = 130.67953 73.69131 70.41083
#
# Poissons Ratio (x) = 0.04273 0.23541
# Poissons Ratio (y) = 0.07578 0.44797
# Poissons Ratio (z) = 0.43691 0.46884
#
# Static dielectric constant tensor:
#      x y z
#    x 5.552090 0.000000 0.000000 
#    y 0.000000 3.926610 0.000000 
#    z 0.000000 0.000000 3.654380 
# 
# 
# High freq. dielectric constant tensor:
#      x y z
#    x 1.921600 0.000000 0.000000 
#    y 0.000000 1.872810 0.000000 
#    z 0.000000 0.000000 1.839090 
# 
# From -- ./inp_files/45911.got.cif
#   From: 2010.03.12/outbox.cif.g09.slc.cpg/sg68_23_cif.got.tgz:45911.got - 2010.04.10 23:14:56.
