data_PCOD8283638
_publ_section_title
;
Structure prediction by ZEFSAII (Michael W. Deem and Ramdas Pophale) SiO2 
 PCOD8283638
Probable space group: C C C A
;
_chemical_formula_sum "Si O2"
_cell_formula_units_Z 32
_cell_length_a 16.195006
_cell_length_b 9.041856
_cell_length_c 8.566870
_cell_angle_alpha 90.000000
_cell_angle_beta 90.000000
_cell_angle_gamma 90.000000
_cell_volume 1254.471722
_symmetry_space_group_name_H-M "C C C A"
_symmetry_group_IT_number 68
_space_group.IT_coordinate_system_code '2'
_symmetry_cell_setting 'orthorhombic'
loop_
_space_group_symop_operation_xyz
x,y,z
-x,1/2-y,z
x,1/2-y,1/2-z
-x,y,1/2-z
-x,-y,-z
x,1/2+y,-z
-x,1/2+y,1/2+z
x,-y,1/2+z
1/2+x,1/2+y,z
1/2-x,-y,z
1/2+x,-y,1/2-z
1/2-x,1/2+y,1/2-z
1/2-x,1/2-y,-z
1/2+x,y,-z
1/2-x,y,1/2+z
1/2+x,1/2-y,1/2+z
loop_
_atom_site_type_symbol
_atom_site_label
_atom_site_fract_x
_atom_site_fract_y
_atom_site_fract_z
Si Si1 0.593434 0.534185 0.303938
Si Si2 0.843364 0.797841 0.979357
O O1 0.500000 0.524202 0.250000
O O2 0.624383 0.375044 0.362860
O O3 0.652185 0.585688 0.163226
O O4 0.599462 0.655166 0.443806
O O5 0.750000 0.750000 0.000000
#
# Coordination Sequence:
#
# PCOD8283638 Si02
#       2
#    16  16
#     4  11  26  50  75 107 149 199 248 307 378 450
#     4  11  25  46  74 111 149 194 250 311 374 447
#
# _framework density 25.508745999999999
#
# number of rings (size 3 to 8) (size 9 to 14) (size 15 to 20)
#    0.000    1.000    0.000    6.000    0.000   18.000 
#    0.000    5.000    0.000    0.000    0.000    0.000 
#    0.000    0.000    0.000    0.000    0.000    0.000 
#
# Total GULP energy -198499.543085 kJ/mol
# GULP energy per Si atom -12406.221443 kJ/mol
# Density = 2.545069 g / cm^3
# Si number density = 25.508746 Si / 1000 Ang^3
#
#
#
# Elastic Constant Matrix: (Units=GPa)
#
#
# Indices 1 2 3 4 5 6 
#
# 1 252.1121 110.9084 102.7482 0.0000 0.0000 0.0000
# 2 110.9084 135.0853 72.0943 0.0000 0.0000 0.0000
# 3 102.7482 72.0943 78.7607 0.0000 0.0000 0.0000
# 4 0.0000 0.0000 0.0000 79.4267 0.0000 0.0000
# 5 0.0000 0.0000 0.0000 0.0000 54.3748 0.0000
# 6 0.0000 0.0000 0.0000 0.0000 0.0000 50.9229
#
#
#
# Elastic Compliance Matrix: (Units=1/GPa)
#
#
# Indices 1 2 3 4 5 6 
#
# 1 0.008775 -0.002141 -0.009488 0.000000 0.000000 0.000000
# 2 -0.002141 0.014996 -0.010933 0.000000 0.000000 0.000000
# 3 -0.009488 -0.010933 0.035082 0.000000 0.000000 0.000000
# 4 0.000000 0.000000 0.000000 0.012590 0.000000 0.000000
# 5 0.000000 0.000000 0.000000 0.000000 0.018391 0.000000
# 6 0.000000 0.000000 0.000000 0.000000 0.000000 0.019638
#
#
# Mechanical properties :
#
#
# Convention : Reuss Voigt Hill
#
# Bulk Modulus (GPa) = 72.84136 115.27334 94.05735
# Shear Modulus (GPa) = 31.41247 48.95871 40.18559
#
# Velocity S-wave (km/s) = 3.51299 4.38572 3.97339
# Velocity P-wave (km/s) = 6.71359 8.42223 7.61598
#
# Compressibility (1/GPa) = 0.01372846
#
# Stress axis : x y z
#
# Youngs Moduli (GPa) = 113.95801 66.68652 28.50433
#
# Poissons Ratio (x) = 0.14277 0.27045
# Poissons Ratio (y) = 0.24397 0.31165
# Poissons Ratio (z) = 1.08124 0.72911
#
# Static dielectric constant tensor:
#      x y z
#    x 4.340630 0.000000 0.000000 
#    y 0.000000 5.168370 0.000000 
#    z 0.000000 0.000000 7.055420 
# 
# 
# High freq. dielectric constant tensor:
#      x y z
#    x 2.016790 0.000000 0.000000 
#    y 0.000000 2.035810 0.000000 
#    z 0.000000 0.000000 2.030830 
# 
# From -- ./inp_files/3130.got.cif
#   From: 2010.03.12/outbox.cif.g09.slc.cpg/sg68_2_cif.got.tgz:3130.got - 2010.04.10 23:14:56.
