data_PCOD8283206
_publ_section_title
;
Structure prediction by ZEFSAII (Michael W. Deem and Ramdas Pophale) SiO2 
 PCOD8283206
Probable space group: C C C A
;
_chemical_formula_sum "Si O2"
_cell_formula_units_Z 88
_cell_length_a 11.048299
_cell_length_b 15.035303
_cell_length_c 25.751917
_cell_angle_alpha 90.000000
_cell_angle_beta 90.000000
_cell_angle_gamma 90.000000
_cell_volume 4277.767411
_symmetry_space_group_name_H-M "C C C A"
_symmetry_group_IT_number 68
_space_group.IT_coordinate_system_code '2'
_symmetry_cell_setting 'orthorhombic'
loop_
_space_group_symop_operation_xyz
x,y,z
-x,1/2-y,z
x,1/2-y,1/2-z
-x,y,1/2-z
-x,-y,-z
x,1/2+y,-z
-x,1/2+y,1/2+z
x,-y,1/2+z
1/2+x,1/2+y,z
1/2-x,-y,z
1/2+x,-y,1/2-z
1/2-x,1/2+y,1/2-z
1/2-x,1/2-y,-z
1/2+x,y,-z
1/2-x,y,1/2+z
1/2+x,1/2-y,1/2+z
loop_
_atom_site_type_symbol
_atom_site_label
_atom_site_fract_x
_atom_site_fract_y
_atom_site_fract_z
Si Si1 0.251540 0.142159 0.127013
Si Si2 0.163291 0.579740 0.618448
Si Si3 0.000000 0.105145 0.750000
Si Si4 0.920215 0.501144 0.152752
Si Si5 0.642150 0.756492 0.041947
Si Si6 0.724132 0.298546 0.298902
O O1 0.163860 0.084164 0.163675
O O2 0.170155 0.172332 0.078474
O O3 0.305800 0.225789 0.157380
O O4 0.362060 0.075156 0.113236
O O5 0.250000 0.500000 0.601698
O O6 0.158437 0.651738 0.572840
O O7 0.197147 0.623859 0.674266
O O8 0.038090 0.530635 0.624128
O O9 0.903373 0.165555 0.720678
O O10 0.934356 0.043023 0.790983
O O11 0.500000 0.750000 0.021973
O O12 0.750000 0.750000 0.000000
O O13 0.791891 0.250000 0.250000
#
# Coordination Sequence:
#
# PCOD8283206 Si02
#       6
#    16  16   8  16  16  16
#     4  10  24  43  65  93 138 181 215 282 348 397
#     4  11  24  44  68  99 137 181 228 284 347 408
#     4  12  23  36  62  97 142 186 234 277 314 400
#     4  11  23  40  66  94 140 180 228 276 330 395
#     4  11  25  51  75 103 135 174 230 290 362 432
#     4  11  23  37  59  94 138 185 230 271 328 396
#
# _framework density 20.571477999999999
#
# number of rings (size 3 to 8) (size 9 to 14) (size 15 to 20)
#    0.000    1.091    5.455    0.273    2.545    1.455 
#    3.273    2.727    0.000    0.000    0.000    0.000 
#    0.000    0.000    0.000    0.000    0.000    0.000 
#
# Total GULP energy -545186.939101 kJ/mol
# GULP energy per Si atom -12390.612252 kJ/mol
# Density = 2.052466 g / cm^3
# Si number density = 20.571478 Si / 1000 Ang^3
#
#
#
# Elastic Constant Matrix: (Units=GPa)
#
#
# Indices 1 2 3 4 5 6 
#
# 1 162.7716 79.8969 64.0071 0.0000 0.0000 0.0000
# 2 79.8969 125.5525 38.4814 0.0000 0.0000 0.0000
# 3 64.0071 38.4814 77.5323 0.0000 0.0000 0.0000
# 4 0.0000 0.0000 0.0000 6.1148 0.0000 0.0000
# 5 0.0000 0.0000 0.0000 0.0000 54.5085 0.0000
# 6 0.0000 0.0000 0.0000 0.0000 0.0000 33.3377
#
#
#
# Elastic Compliance Matrix: (Units=1/GPa)
#
#
# Indices 1 2 3 4 5 6 
#
# 1 0.011342 -0.005128 -0.006818 0.000000 0.000000 0.000000
# 2 -0.005128 0.011712 -0.001580 0.000000 0.000000 0.000000
# 3 -0.006818 -0.001580 0.019311 0.000000 0.000000 0.000000
# 4 0.000000 0.000000 0.000000 0.163537 0.000000 0.000000
# 5 0.000000 0.000000 0.000000 0.000000 0.018346 0.000000
# 6 0.000000 0.000000 0.000000 0.000000 0.000000 0.029996
#
#
# Mechanical properties :
#
#
# Convention : Reuss Voigt Hill
#
# Bulk Modulus (GPa) = 65.30353 81.18082 73.24218
# Shear Modulus (GPa) = 17.45817 31.02361 24.24089
#
# Velocity S-wave (km/s) = 2.91634 3.88762 3.43647
# Velocity P-wave (km/s) = 6.56914 7.72658 7.17125
#
# Compressibility (1/GPa) = 0.01531311
#
# Stress axis : x y z
#
# Youngs Moduli (GPa) = 88.17099 85.38212 51.78470
#
# Poissons Ratio (x) = 0.43781 0.35307
# Poissons Ratio (y) = 0.45211 0.08181
# Poissons Ratio (z) = 0.60116 0.13489
#
# Static dielectric constant tensor:
#      x y z
#    x 4.031120 0.000000 0.000000 
#    y 0.000000 4.113600 0.000000 
#    z 0.000000 0.000000 3.638380 
# 
# 
# High freq. dielectric constant tensor:
#      x y z
#    x 1.813550 0.000000 0.000000 
#    y 0.000000 1.834420 0.000000 
#    z 0.000000 0.000000 1.772440 
# 
# From -- ./inp_files/44246.got.cif
#   From: 2010.03.12/outbox.cif.g09.slc.cpg/sg68_23_cif.got.tgz:44246.got - 2010.04.10 23:14:56.
