data_PCOD8283862
_publ_section_title
;
Structure prediction by ZEFSAII (Michael W. Deem and Ramdas Pophale) SiO2 
 PCOD8283862
Probable space group: F M M M
;
_chemical_formula_sum "Si O2"
_cell_formula_units_Z 192
_cell_length_a 13.877331
_cell_length_b 27.658130
_cell_length_c 30.621160
_cell_angle_alpha 90.000000
_cell_angle_beta 90.000000
_cell_angle_gamma 90.000000
_cell_volume 11753.045013
_symmetry_space_group_name_H-M "F M M M"
_symmetry_group_IT_number 69
_symmetry_cell_setting 'orthorhombic'
loop_
_space_group_symop_operation_xyz
x,y,z
-x,-y,z
x,-y,-z
-x,y,-z
-x,-y,-z
x,y,-z
-x,y,z
x,-y,z
x,1/2+y,1/2+z
-x,1/2-y,1/2+z
x,1/2-y,1/2-z
-x,1/2+y,1/2-z
-x,1/2-y,1/2-z
x,1/2+y,1/2-z
-x,1/2+y,1/2+z
x,1/2-y,1/2+z
1/2+x,y,1/2+z
1/2-x,-y,1/2+z
1/2+x,-y,1/2-z
1/2-x,y,1/2-z
1/2-x,-y,1/2-z
1/2+x,y,1/2-z
1/2-x,y,1/2+z
1/2+x,-y,1/2+z
1/2+x,1/2+y,z
1/2-x,1/2-y,z
1/2+x,1/2-y,-z
1/2-x,1/2+y,-z
1/2-x,1/2-y,-z
1/2+x,1/2+y,-z
1/2-x,1/2+y,z
1/2+x,1/2-y,z
loop_
_atom_site_type_symbol
_atom_site_label
_atom_site_fract_x
_atom_site_fract_y
_atom_site_fract_z
Si Si1 0.109054 0.134560 0.683045
Si Si2 0.251579 0.055870 0.697877
Si Si3 0.395317 0.803309 0.268052
Si Si4 0.885308 0.109970 0.131497
Si Si5 0.885677 0.554108 0.547562
Si Si6 0.732295 0.303934 0.849689
O O1 0.152869 0.080603 0.681593
O O2 0.119480 0.156601 0.731185
O O3 0.165355 0.168906 0.648954
O O4 0.000000 0.131795 0.666830
O O5 0.250000 0.060168 0.750000
O O6 0.340632 0.084985 0.675221
O O7 0.255565 0.000000 0.683086
O O8 0.500000 0.813927 0.291038
O O9 0.400302 0.750000 0.250000
O O10 0.304799 0.804228 0.299929
O O11 0.844734 0.084303 0.088031
O O12 0.848911 0.165305 0.124708
O O13 0.000000 0.107544 0.135774
O O14 0.853529 0.575331 0.500000
O O15 0.845243 0.500000 0.552226
O O16 0.000000 0.553624 0.550128
O O17 0.750000 0.250000 0.868455
#
# Coordination Sequence:
#
# PCOD8283862 Si02
#       6
#    32  32  32  32  32  32
#     4  10  20  31  43  59  81 114 158 204 242 272
#     4  10  21  34  46  62  90 128 163 193 227 278
#     4  10  18  28  44  62  81 114 158 205 254 287
#     4  10  20  33  50  73  99 126 159 199 243 294
#     4   8  14  27  50  78 102 121 144 183 241 303
#     4  11  20  29  43  61  91 121 156 198 240 281
#
# _framework density 16.336192
#
# number of rings (size 3 to 8) (size 9 to 14) (size 15 to 20)
#    0.000    2.167    1.667    4.000    0.000    4.000 
#    0.000    1.667    0.000    0.500    0.000    0.000 
#    0.000   10.667    0.000   36.667    0.000    3.000 
#
# Total GULP energy -594696.450897 kJ/mol
# GULP energy per Si atom -12389.509394 kJ/mol
# Density = 1.629901 g / cm^3
# Si number density = 16.336192 Si / 1000 Ang^3
#
#
#
# Elastic Constant Matrix: (Units=GPa)
#
#
# Indices 1 2 3 4 5 6 
#
# 1 99.6882 38.3787 15.5800 0.0000 0.0000 0.0000
# 2 38.3787 117.7755 29.8019 0.0000 0.0000 0.0000
# 3 15.5800 29.8019 72.5818 0.0000 0.0000 0.0000
# 4 0.0000 0.0000 0.0000 14.6307 0.0000 0.0000
# 5 0.0000 0.0000 0.0000 0.0000 9.9966 0.0000
# 6 0.0000 0.0000 0.0000 0.0000 0.0000 22.1031
#
#
#
# Elastic Compliance Matrix: (Units=1/GPa)
#
#
# Indices 1 2 3 4 5 6 
#
# 1 0.011540 -0.003497 -0.001041 0.000000 0.000000 0.000000
# 2 -0.003497 0.010535 -0.003575 0.000000 0.000000 0.000000
# 3 -0.001041 -0.003575 0.015469 0.000000 0.000000 0.000000
# 4 0.000000 0.000000 0.000000 0.068349 0.000000 0.000000
# 5 0.000000 0.000000 0.000000 0.000000 0.100034 0.000000
# 6 0.000000 0.000000 0.000000 0.000000 0.000000 0.045243
#
#
# Mechanical properties :
#
#
# Convention : Reuss Voigt Hill
#
# Bulk Modulus (GPa) = 46.90969 50.84075 48.87522
# Shear Modulus (GPa) = 18.21475 23.09839 20.65657
#
# Velocity S-wave (km/s) = 3.34277 3.76432 3.55979
# Velocity P-wave (km/s) = 6.60881 7.07690 6.84686
#
# Compressibility (1/GPa) = 0.02131756
#
# Stress axis : x y z
#
# Youngs Moduli (GPa) = 86.65241 94.92248 64.64563
#
# Poissons Ratio (x) = 0.33195 0.06732
# Poissons Ratio (y) = 0.30303 0.23110
# Poissons Ratio (z) = 0.09023 0.33934
#
# Static dielectric constant tensor:
#      x y z
#    x 3.216330 0.000000 0.000000 
#    y 0.000000 3.344400 0.000000 
#    z 0.000000 0.000000 2.685910 
# 
# 
# High freq. dielectric constant tensor:
#      x y z
#    x 1.622350 0.000000 0.000000 
#    y 0.000000 1.639620 0.000000 
#    z 0.000000 0.000000 1.576600 
# 
# From -- ./inp_files/45918.got.cif
#   From: 2010.03.12/outbox.cif.g09.slc.cpg/sg69_23_cif.got.tgz:45918.got - 2010.04.10 23:52:46.
