data_PCOD8283651
_publ_section_title
;
Structure prediction by ZEFSAII (Michael W. Deem and Ramdas Pophale) SiO2 
 PCOD8283651
Probable space group: C C C A
;
_chemical_formula_sum "Si O2"
_cell_formula_units_Z 52
_cell_length_a 11.377927
_cell_length_b 8.599438
_cell_length_c 20.726014
_cell_angle_alpha 90.000000
_cell_angle_beta 90.000000
_cell_angle_gamma 90.000000
_cell_volume 2027.911509
_symmetry_space_group_name_H-M "C C C A"
_symmetry_group_IT_number 68
_space_group.IT_coordinate_system_code '2'
_symmetry_cell_setting 'orthorhombic'
loop_
_space_group_symop_operation_xyz
x,y,z
-x,1/2-y,z
x,1/2-y,1/2-z
-x,y,1/2-z
-x,-y,-z
x,1/2+y,-z
-x,1/2+y,1/2+z
x,-y,1/2+z
1/2+x,1/2+y,z
1/2-x,-y,z
1/2+x,-y,1/2-z
1/2-x,1/2+y,1/2-z
1/2-x,1/2-y,-z
1/2+x,y,-z
1/2-x,y,1/2+z
1/2+x,1/2-y,1/2+z
loop_
_atom_site_type_symbol
_atom_site_label
_atom_site_fract_x
_atom_site_fract_y
_atom_site_fract_z
Si Si1 0.841612 0.685284 0.429118
Si Si2 0.000000 0.750000 0.750000
Si Si3 0.374092 0.026540 0.565814
Si Si4 0.101808 0.617017 0.629839
O O1 0.854091 0.581231 0.492828
O O2 0.874472 0.568394 0.371351
O O3 0.699499 0.716187 0.413523
O O4 0.081086 0.656336 0.435609
O O5 0.907972 0.844988 0.705400
O O6 0.466084 0.136327 0.603104
O O7 0.250000 0.000000 0.602306
#
# Coordination Sequence:
#
# PCOD8283651 Si02
#       4
#    16   4  16  16
#     4  11  26  44  75 116 150 188 237 318 390 454
#     4  12  28  52  70  96 142 216 250 302 344 446
#     4  12  24  41  76 115 151 185 231 314 390 457
#     4  11  26  46  71 103 151 196 254 296 376 444
#
# _framework density 25.642144999999999
#
# number of rings (size 3 to 8) (size 9 to 14) (size 15 to 20)
#    0.000    0.615    3.077    4.615    4.308    2.462 
#   16.615    1.538    0.000    0.000    0.000    0.000 
#    0.000    0.000    0.000    0.000    0.000    0.000 
#
# Total GULP energy -322156.531925 kJ/mol
# GULP energy per Si atom -12390.635843 kJ/mol
# Density = 2.558378 g / cm^3
# Si number density = 25.642145 Si / 1000 Ang^3
#
#
#
# Elastic Constant Matrix: (Units=GPa)
#
#
# Indices 1 2 3 4 5 6 
#
# 1 94.8688 54.8749 48.6799 0.0000 0.0000 0.0000
# 2 54.8749 177.5433 82.8790 0.0000 0.0000 0.0000
# 3 48.6799 82.8790 161.3661 0.0000 0.0000 0.0000
# 4 0.0000 0.0000 0.0000 47.4429 0.0000 0.0000
# 5 0.0000 0.0000 0.0000 0.0000 21.0186 0.0000
# 6 0.0000 0.0000 0.0000 0.0000 0.0000 60.1083
#
#
#
# Elastic Compliance Matrix: (Units=1/GPa)
#
#
# Indices 1 2 3 4 5 6 
#
# 1 0.013592 -0.003008 -0.002555 0.000000 0.000000 0.000000
# 2 -0.003008 0.008074 -0.003240 0.000000 0.000000 0.000000
# 3 -0.002555 -0.003240 0.008632 0.000000 0.000000 0.000000
# 4 0.000000 0.000000 0.000000 0.021078 0.000000 0.000000
# 5 0.000000 0.000000 0.000000 0.000000 0.047577 0.000000
# 6 0.000000 0.000000 0.000000 0.000000 0.000000 0.016637
#
#
# Mechanical properties :
#
#
# Convention : Reuss Voigt Hill
#
# Bulk Modulus (GPa) = 78.78890 89.62730 84.20810
# Shear Modulus (GPa) = 36.38295 42.20360 39.29328
#
# Velocity S-wave (km/s) = 3.77088 4.06133 3.91880
# Velocity P-wave (km/s) = 7.05354 7.55126 7.30664
#
# Compressibility (1/GPa) = 0.01269214
#
# Stress axis : x y z
#
# Youngs Moduli (GPa) = 73.57209 123.84690 115.84967
#
# Poissons Ratio (x) = 0.37255 0.29604
# Poissons Ratio (y) = 0.22132 0.37531
# Poissons Ratio (z) = 0.18800 0.40122
#
# Static dielectric constant tensor:
#      x y z
#    x 5.782280 0.000000 0.000000 
#    y 0.000000 5.677270 0.000000 
#    z 0.000000 0.000000 3.885150 
# 
# 
# High freq. dielectric constant tensor:
#      x y z
#    x 2.077390 0.000000 0.000000 
#    y 0.000000 2.104160 0.000000 
#    z 0.000000 0.000000 1.944600 
# 
# From -- ./inp_files/28954.got.cif
#   From: 2010.03.12/outbox.cif.g09.slc.cpg/sg68_15_cif.got.tgz:28954.got - 2010.04.10 23:14:56.
