data_PCOD8283902
_publ_section_title
;
Structure prediction by ZEFSAII (Michael W. Deem and Ramdas Pophale) SiO2 
 PCOD8283902
Probable space group: F M M M
;
_chemical_formula_sum "Si O2"
_cell_formula_units_Z 240
_cell_length_a 28.453302
_cell_length_b 28.078631
_cell_length_c 16.578540
_cell_angle_alpha 90.000000
_cell_angle_beta 90.000000
_cell_angle_gamma 90.000000
_cell_volume 13245.089109
_symmetry_space_group_name_H-M "F M M M"
_symmetry_group_IT_number 69
_symmetry_cell_setting 'orthorhombic'
loop_
_space_group_symop_operation_xyz
x,y,z
-x,-y,z
x,-y,-z
-x,y,-z
-x,-y,-z
x,y,-z
-x,y,z
x,-y,z
x,1/2+y,1/2+z
-x,1/2-y,1/2+z
x,1/2-y,1/2-z
-x,1/2+y,1/2-z
-x,1/2-y,1/2-z
x,1/2+y,1/2-z
-x,1/2+y,1/2+z
x,1/2-y,1/2+z
1/2+x,y,1/2+z
1/2-x,-y,1/2+z
1/2+x,-y,1/2-z
1/2-x,y,1/2-z
1/2-x,-y,1/2-z
1/2+x,y,1/2-z
1/2-x,y,1/2+z
1/2+x,-y,1/2+z
1/2+x,1/2+y,z
1/2-x,1/2-y,z
1/2+x,1/2-y,-z
1/2-x,1/2+y,-z
1/2-x,1/2-y,-z
1/2+x,1/2+y,-z
1/2-x,1/2+y,z
1/2+x,1/2-y,z
loop_
_atom_site_type_symbol
_atom_site_label
_atom_site_fract_x
_atom_site_fract_y
_atom_site_fract_z
Si Si1 0.809980 0.600717 0.092065
Si Si2 0.204833 0.616772 0.404692
Si Si3 0.619162 0.554670 0.857256
Si Si4 0.862747 0.696677 0.092135
Si Si5 0.796663 0.724445 0.596543
Si Si6 0.552704 0.943534 0.500000
Si Si7 0.104964 0.554126 0.173604
Si Si8 0.052642 0.137898 0.595792
O O1 0.755805 0.595687 0.118095
O O2 0.823222 0.656104 0.100261
O O3 0.841893 0.568198 0.149396
O O4 0.817647 0.583832 0.000000
O O5 0.196914 0.615396 0.500000
O O6 0.166654 0.584688 0.361021
O O7 0.199620 0.670631 0.371415
O O8 0.631945 0.500000 0.877048
O O9 0.597539 0.560202 0.768903
O O10 0.580647 0.574200 0.920740
O O11 0.841628 0.745264 0.130223
O O12 0.911778 0.678153 0.131668
O O13 0.874099 0.707801 0.000000
O O14 0.795438 0.725252 0.500000
O O15 0.750000 0.750000 0.630260
O O16 0.500000 0.921426 0.500000
O O17 0.548764 0.000000 0.500000
O O18 0.095693 0.500000 0.147171
O O19 0.066422 0.586376 0.129688
O O20 0.057924 0.134453 0.500000
O O21 0.000000 0.151290 0.622359
#
# Coordination Sequence:
#
# PCOD8283902 Si02
#       8
#    32  32  32  32  32  16  32  32
#     4   9  17  29  47  71 101 141 177 204 249 303
#     4  10  18  29  50  77 104 133 173 216 259 305
#     4  10  21  36  52  74 101 131 170 215 264 314
#     4   8  13  25  44  70 103 133 166 206 244 292
#     4   9  14  23  45  78 105 127 165 212 251 291
#     4   9  18  36  60  76  89 118 164 220 276 315
#     4  10  21  34  48  70 103 140 177 214 255 306
#     4   9  18  32  52  77 104 137 172 207 249 299
#
# _framework density 18.119923
#
# number of rings (size 3 to 8) (size 9 to 14) (size 15 to 20)
#    0.000    2.733    2.000    1.200    0.000    2.933 
#    0.000    4.667    0.000    4.000    0.000    0.933 
#    0.000    0.000    0.000    0.000    0.000    0.000 
#
# Total GULP energy -743734.361057 kJ/mol
# GULP energy per Si atom -12395.572684 kJ/mol
# Density = 1.807868 g / cm^3
# Si number density = 18.119923 Si / 1000 Ang^3
#
#
#
# Elastic Constant Matrix: (Units=GPa)
#
#
# Indices 1 2 3 4 5 6 
#
# 1 131.7710 46.2348 24.2578 0.0000 0.0000 0.0000
# 2 46.2348 77.9331 19.4538 0.0000 0.0000 0.0000
# 3 24.2578 19.4538 38.9952 0.0000 0.0000 0.0000
# 4 0.0000 0.0000 0.0000 9.7292 0.0000 0.0000
# 5 0.0000 0.0000 0.0000 0.0000 12.7790 0.0000
# 6 0.0000 0.0000 0.0000 0.0000 0.0000 20.3676
#
#
#
# Elastic Compliance Matrix: (Units=1/GPa)
#
#
# Indices 1 2 3 4 5 6 
#
# 1 0.010040 -0.005023 -0.003740 0.000000 0.000000 0.000000
# 2 -0.005023 0.017169 -0.005441 0.000000 0.000000 0.000000
# 3 -0.003740 -0.005441 0.030685 0.000000 0.000000 0.000000
# 4 0.000000 0.000000 0.000000 0.102783 0.000000 0.000000
# 5 0.000000 0.000000 0.000000 0.000000 0.078253 0.000000
# 6 0.000000 0.000000 0.000000 0.000000 0.000000 0.049098
#
#
# Mechanical properties :
#
#
# Convention : Reuss Voigt Hill
#
# Bulk Modulus (GPa) = 33.91282 47.62135 40.76708
# Shear Modulus (GPa) = 15.32500 19.15868 17.24184
#
# Velocity S-wave (km/s) = 2.91134 3.25518 3.08805
# Velocity P-wave (km/s) = 5.48248 6.36133 5.93819
#
# Compressibility (1/GPa) = 0.02948737
#
# Stress axis : x y z
#
# Youngs Moduli (GPa) = 99.60472 58.24293 32.58925
#
# Poissons Ratio (x) = 0.29253 0.12187
# Poissons Ratio (y) = 0.50028 0.17732
# Poissons Ratio (z) = 0.37249 0.31690
#
# Static dielectric constant tensor:
#      x y z
#    x 3.495710 0.000000 0.000000 
#    y 0.000000 3.350230 0.000000 
#    z 0.000000 0.000000 3.031620 
# 
# 
# High freq. dielectric constant tensor:
#      x y z
#    x 1.699890 0.000000 0.000000 
#    y 0.000000 1.687870 0.000000 
#    z 0.000000 0.000000 1.670930 
# 
# From -- ./inp_files/19975.got.cif
#   From: 2010.03.12/outbox.cif.g09.slc.cpg/sg69_10_cif.got.tgz:19975.got - 2010.04.10 23:52:46.
