data_PCOD8283834
_publ_section_title
;
Structure prediction by ZEFSAII (Michael W. Deem and Ramdas Pophale) SiO2 
 PCOD8283834
Probable space group: F M M M
;
_chemical_formula_sum "Si O2"
_cell_formula_units_Z 208
_cell_length_a 33.557580
_cell_length_b 17.668251
_cell_length_c 19.308045
_cell_angle_alpha 90.000000
_cell_angle_beta 90.000000
_cell_angle_gamma 90.000000
_cell_volume 11447.812216
_symmetry_space_group_name_H-M "F M M M"
_symmetry_group_IT_number 69
_symmetry_cell_setting 'orthorhombic'
loop_
_space_group_symop_operation_xyz
x,y,z
-x,-y,z
x,-y,-z
-x,y,-z
-x,-y,-z
x,y,-z
-x,y,z
x,-y,z
x,1/2+y,1/2+z
-x,1/2-y,1/2+z
x,1/2-y,1/2-z
-x,1/2+y,1/2-z
-x,1/2-y,1/2-z
x,1/2+y,1/2-z
-x,1/2+y,1/2+z
x,1/2-y,1/2+z
1/2+x,y,1/2+z
1/2-x,-y,1/2+z
1/2+x,-y,1/2-z
1/2-x,y,1/2-z
1/2-x,-y,1/2-z
1/2+x,y,1/2-z
1/2-x,y,1/2+z
1/2+x,-y,1/2+z
1/2+x,1/2+y,z
1/2-x,1/2-y,z
1/2+x,1/2-y,-z
1/2-x,1/2+y,-z
1/2-x,1/2-y,-z
1/2+x,1/2+y,-z
1/2-x,1/2+y,z
1/2+x,1/2-y,z
loop_
_atom_site_type_symbol
_atom_site_label
_atom_site_fract_x
_atom_site_fract_y
_atom_site_fract_z
Si Si1 0.543819 0.500000 0.580234
Si Si2 0.320789 0.411932 0.186112
Si Si3 0.257658 0.090076 0.422112
Si Si4 0.820339 0.590061 0.158949
Si Si5 0.407233 0.872138 0.852007
Si Si6 0.911078 0.414157 0.692847
Si Si7 0.955693 0.269410 0.330363
O O1 0.500000 0.500000 0.617147
O O2 0.536546 0.500000 0.500000
O O3 0.568335 0.425699 0.598025
O O4 0.310933 0.500000 0.188875
O O5 0.292328 0.375319 0.127335
O O6 0.311554 0.379498 0.263015
O O7 0.366559 0.397126 0.165564
O O8 0.262232 0.122866 0.500000
O O9 0.215247 0.115368 0.391062
O O10 0.260368 0.000000 0.424258
O O11 0.826896 0.500000 0.160164
O O12 0.860447 0.628503 0.129234
O O13 0.412640 0.903829 0.774919
O O14 0.424595 0.788330 0.864801
O O15 0.923998 0.500000 0.674246
O O16 0.940872 0.355223 0.656324
O O17 0.957256 0.250000 0.250000
O O18 0.000000 0.261212 0.362591
#
# Coordination Sequence:
#
# PCOD8283834 Si02
#       7
#    16  32  32  32  32  32  32
#     4  11  22  32  46  68  95 138 183 209 240 295
#     4   8  14  25  42  62  92 127 162 200 242 298
#     4   9  16  24  38  66  98 123 154 203 249 289
#     4   9  15  25  42  64  90 128 170 202 243 289
#     4  10  17  32  46  66  99 134 168 209 248 291
#     4   9  16  29  49  73  98 128 166 203 256 306
#     4   9  18  29  45  71  98 126 160 201 255 306
#
# _framework density 18.169409999999999
#
# number of rings (size 3 to 8) (size 9 to 14) (size 15 to 20)
#    0.000    2.846    1.538    1.846    0.000    3.385 
#    0.000    0.000    0.000    1.846    0.000    6.462 
#    0.000    0.000    0.000    9.231    0.000    0.000 
#
# Total GULP energy -644535.121609 kJ/mol
# GULP energy per Si atom -12394.906185 kJ/mol
# Density = 1.812806 g / cm^3
# Si number density = 18.169410 Si / 1000 Ang^3
#
#
#
# Elastic Constant Matrix: (Units=GPa)
#
#
# Indices 1 2 3 4 5 6 
#
# 1 146.5842 51.0510 57.2550 0.0000 0.0000 0.0000
# 2 51.0510 85.9920 17.9088 0.0000 0.0000 0.0000
# 3 57.2550 17.9088 71.3880 0.0000 0.0000 0.0000
# 4 0.0000 0.0000 0.0000 5.1359 0.0000 0.0000
# 5 0.0000 0.0000 0.0000 0.0000 15.6263 0.0000
# 6 0.0000 0.0000 0.0000 0.0000 0.0000 23.0070
#
#
#
# Elastic Compliance Matrix: (Units=1/GPa)
#
#
# Indices 1 2 3 4 5 6 
#
# 1 0.011884 -0.005350 -0.008189 0.000000 0.000000 0.000000
# 2 -0.005350 0.014678 0.000608 0.000000 0.000000 0.000000
# 3 -0.008189 0.000608 0.020423 0.000000 0.000000 0.000000
# 4 0.000000 0.000000 0.000000 0.194709 0.000000 0.000000
# 5 0.000000 0.000000 0.000000 0.000000 0.063995 0.000000
# 6 0.000000 0.000000 0.000000 0.000000 0.000000 0.043465
#
#
# Mechanical properties :
#
#
# Convention : Reuss Voigt Hill
#
# Bulk Modulus (GPa) = 47.33864 61.82154 54.58009
# Shear Modulus (GPa) = 13.08710 20.60380 16.84545
#
# Velocity S-wave (km/s) = 2.68672 3.37112 3.04819
# Velocity P-wave (km/s) = 5.97789 7.01794 6.51869
#
# Compressibility (1/GPa) = 0.02112439
#
# Stress axis : x y z
#
# Youngs Moduli (GPa) = 84.14888 68.12822 48.96395
#
# Poissons Ratio (x) = 0.36446 0.40097
# Poissons Ratio (y) = 0.45016 -0.02978
# Poissons Ratio (z) = 0.68910 -0.04144
#
# Static dielectric constant tensor:
#      x y z
#    x 3.594650 0.000000 0.000000 
#    y 0.000000 3.086340 0.000000 
#    z 0.000000 0.000000 3.164760 
# 
# 
# High freq. dielectric constant tensor:
#      x y z
#    x 1.718360 0.000000 0.000000 
#    y 0.000000 1.666560 0.000000 
#    z 0.000000 0.000000 1.662640 
# 
# From -- ./inp_files/33981.got.cif
#   From: 2010.03.12/outbox.cif.g09.slc.cpg/sg69_17_cif.got.tgz:33981.got - 2010.04.10 23:52:46.
