data_PCOD8283418
_publ_section_title
;
Structure prediction by ZEFSAII (Michael W. Deem and Ramdas Pophale) SiO2 
 PCOD8283418
Probable space group: C C C A
;
_chemical_formula_sum "Si O2"
_cell_formula_units_Z 104
_cell_length_a 11.532667
_cell_length_b 28.588579
_cell_length_c 18.379192
_cell_angle_alpha 90.000000
_cell_angle_beta 90.000000
_cell_angle_gamma 90.000000
_cell_volume 6059.666683
_symmetry_space_group_name_H-M "C C C A"
_symmetry_group_IT_number 68
_space_group.IT_coordinate_system_code '2'
_symmetry_cell_setting 'orthorhombic'
loop_
_space_group_symop_operation_xyz
x,y,z
-x,1/2-y,z
x,1/2-y,1/2-z
-x,y,1/2-z
-x,-y,-z
x,1/2+y,-z
-x,1/2+y,1/2+z
x,-y,1/2+z
1/2+x,1/2+y,z
1/2-x,-y,z
1/2+x,-y,1/2-z
1/2-x,1/2+y,1/2-z
1/2-x,1/2-y,-z
1/2+x,y,-z
1/2-x,y,1/2+z
1/2+x,1/2-y,1/2+z
loop_
_atom_site_type_symbol
_atom_site_label
_atom_site_fract_x
_atom_site_fract_y
_atom_site_fract_z
Si Si1 0.370154 0.432832 0.236909
Si Si2 0.250000 0.500000 0.844731
Si Si3 0.807565 0.149836 0.241733
Si Si4 0.873409 0.981793 0.084570
Si Si5 0.309472 0.750000 0.250000
Si Si6 0.996038 0.649408 0.631414
Si Si7 0.500000 0.250000 0.630516
Si Si8 0.436143 0.553999 0.433068
O O1 0.500000 0.415409 0.250000
O O2 0.342724 0.474020 0.293752
O O3 0.286464 0.389833 0.252194
O O4 0.354425 0.450299 0.155048
O O5 0.317262 0.462263 0.894339
O O6 0.740287 0.200497 0.248159
O O7 0.901868 0.148279 0.305057
O O8 0.875832 0.142187 0.165692
O O9 0.750000 0.000000 0.057004
O O10 0.930185 0.951953 0.019771
O O11 0.958361 0.024905 0.102376
O O12 0.386964 0.754023 0.321026
O O13 0.963944 0.608580 0.575891
O O14 0.992168 0.699944 0.587984
#
# Coordination Sequence:
#
# PCOD8283418 Si02
#       8
#    16   8  16  16   8  16   8  16
#     4  12  23  34  51  77 103 136 176 218 253 307
#     4  12  22  36  54  74 106 132 178 216 252 320
#     4   9  17  29  51  79 103 127 168 214 268 304
#     4  11  23  36  50  72 108 138 175 212 252 316
#     4   7  12  26  45  74 106 124 153 215 266 308
#     4   9  16  29  53  79 103 129 163 219 266 305
#     4   7  12  24  46  80 102 118 161 216 266 296
#     4  11  22  36  52  75 103 144 172 208 264 311
#
# _framework density 17.162659000000001
#
# number of rings (size 3 to 8) (size 9 to 14) (size 15 to 20)
#    0.000    2.000    4.615    2.769    0.000    0.000 
#    0.000    0.385    0.000    0.000    4.000    4.308 
#    0.000    0.000    0.000    0.000    0.000    0.000 
#
# Total GULP energy -644297.352841 kJ/mol
# GULP energy per Si atom -12390.333708 kJ/mol
# Density = 1.712360 g / cm^3
# Si number density = 17.162659 Si / 1000 Ang^3
#
#
#
# Elastic Constant Matrix: (Units=GPa)
#
#
# Indices 1 2 3 4 5 6 
#
# 1 70.2002 30.2518 4.3461 0.0000 0.0000 0.0000
# 2 30.2518 147.5859 32.1098 0.0000 0.0000 0.0000
# 3 4.3461 32.1098 48.6469 0.0000 0.0000 0.0000
# 4 0.0000 0.0000 0.0000 21.0735 0.0000 0.0000
# 5 0.0000 0.0000 0.0000 0.0000 17.5201 0.0000
# 6 0.0000 0.0000 0.0000 0.0000 0.0000 21.1815
#
#
#
# Elastic Compliance Matrix: (Units=1/GPa)
#
#
# Indices 1 2 3 4 5 6 
#
# 1 0.015655 -0.003392 0.000840 0.000000 0.000000 0.000000
# 2 -0.003392 0.008647 -0.005404 0.000000 0.000000 0.000000
# 3 0.000840 -0.005404 0.024048 0.000000 0.000000 0.000000
# 4 0.000000 0.000000 0.000000 0.047453 0.000000 0.000000
# 5 0.000000 0.000000 0.000000 0.000000 0.057077 0.000000
# 6 0.000000 0.000000 0.000000 0.000000 0.000000 0.047211
#
#
# Mechanical properties :
#
#
# Convention : Reuss Voigt Hill
#
# Bulk Modulus (GPa) = 30.82812 44.42762 37.62787
# Shear Modulus (GPa) = 22.04436 25.27003 23.65719
#
# Velocity S-wave (km/s) = 3.58779 3.84133 3.71672
# Velocity P-wave (km/s) = 5.92995 6.75402 6.35536
#
# Compressibility (1/GPa) = 0.03243792
#
# Stress axis : x y z
#
# Youngs Moduli (GPa) = 63.87931 115.65079 41.58282
#
# Poissons Ratio (x) = 0.39224 -0.03493
# Poissons Ratio (y) = 0.21665 0.22473
# Poissons Ratio (z) = -0.05366 0.62501
#
# Static dielectric constant tensor:
#      x y z
#    x 3.134190 0.000000 0.000000 
#    y 0.000000 3.626760 0.000000 
#    z 0.000000 0.000000 2.894710 
# 
# 
# High freq. dielectric constant tensor:
#      x y z
#    x 1.646500 0.000000 0.000000 
#    y 0.000000 1.674330 0.000000 
#    z 0.000000 0.000000 1.630540 
# 
# From -- ./inp_files/30071.got.cif
#   From: 2010.03.12/outbox.cif.g09.slc.cpg/sg68_16_cif.got.tgz:30071.got - 2010.04.10 23:14:56.
