data_PCOD8283465
_publ_section_title
;
Structure prediction by ZEFSAII (Michael W. Deem and Ramdas Pophale) SiO2 
 PCOD8283465
Probable space group: C C C A
;
_chemical_formula_sum "Si O2"
_cell_formula_units_Z 96
_cell_length_a 17.073631
_cell_length_b 25.725196
_cell_length_c 10.363633
_cell_angle_alpha 90.000000
_cell_angle_beta 90.000000
_cell_angle_gamma 90.000000
_cell_volume 4551.940836
_symmetry_space_group_name_H-M "C C C A"
_symmetry_group_IT_number 68
_space_group.IT_coordinate_system_code '2'
_symmetry_cell_setting 'orthorhombic'
loop_
_space_group_symop_operation_xyz
x,y,z
-x,1/2-y,z
x,1/2-y,1/2-z
-x,y,1/2-z
-x,-y,-z
x,1/2+y,-z
-x,1/2+y,1/2+z
x,-y,1/2+z
1/2+x,1/2+y,z
1/2-x,-y,z
1/2+x,-y,1/2-z
1/2-x,1/2+y,1/2-z
1/2-x,1/2-y,-z
1/2+x,y,-z
1/2-x,y,1/2+z
1/2+x,1/2-y,1/2+z
loop_
_atom_site_type_symbol
_atom_site_label
_atom_site_fract_x
_atom_site_fract_y
_atom_site_fract_z
Si Si1 0.946949 0.795948 0.019440
Si Si2 0.664438 0.522899 0.732227
Si Si3 0.416799 0.524614 0.030884
Si Si4 0.590419 0.146699 0.528389
Si Si5 0.089437 0.630256 0.244983
Si Si6 0.812296 0.236864 0.108550
O O1 0.900925 0.829065 0.128430
O O2 0.000000 0.750000 0.083164
O O3 0.886719 0.773257 0.916823
O O4 0.004115 0.832471 0.934605
O O5 0.750000 0.500000 0.758240
O O6 0.641256 0.508980 0.585542
O O7 0.606758 0.496209 0.831359
O O8 0.654320 0.584419 0.762997
O O9 0.413181 0.585930 0.050323
O O10 0.500000 0.500000 0.000000
O O11 0.604561 0.160922 0.377470
O O12 0.660095 0.176208 0.604846
O O13 0.000000 0.607046 0.250000
O O14 0.778059 0.250000 0.250000
O O15 0.750000 0.250000 0.000000
#
# Coordination Sequence:
#
# PCOD8283465 Si02
#       6
#    16  16  16  16  16  16
#     4   9  19  37  66  92 119 162 216 272 319 379
#     4  11  23  40  63  95 137 170 216 273 337 396
#     4  11  22  44  67  97 129 176 227 277 328 405
#     4   9  21  40  64  95 124 166 221 268 328 390
#     4   9  18  37  65  96 124 168 221 266 320 406
#     4  11  26  44  62  91 135 173 213 270 333 402
#
# _framework density 21.089905999999999
#
# number of rings (size 3 to 8) (size 9 to 14) (size 15 to 20)
#    0.000    2.000    0.000    4.000    2.333   11.333 
#   12.000    0.000    0.000    0.000    0.000    0.000 
#    0.000    0.000    0.000    0.000    0.000    0.000 
#
# Total GULP energy -594881.410083 kJ/mol
# GULP energy per Si atom -12393.362710 kJ/mol
# Density = 2.104190 g / cm^3
# Si number density = 21.089906 Si / 1000 Ang^3
#
#
#
# Elastic Constant Matrix: (Units=GPa)
#
#
# Indices 1 2 3 4 5 6 
#
# 1 92.2564 45.0144 27.8224 0.0000 0.0000 0.0000
# 2 45.0144 107.7447 47.8349 0.0000 0.0000 0.0000
# 3 27.8224 47.8349 97.3225 0.0000 0.0000 0.0000
# 4 0.0000 0.0000 0.0000 32.3480 0.0000 0.0000
# 5 0.0000 0.0000 0.0000 0.0000 32.4917 0.0000
# 6 0.0000 0.0000 0.0000 0.0000 0.0000 35.7405
#
#
#
# Elastic Compliance Matrix: (Units=1/GPa)
#
#
# Indices 1 2 3 4 5 6 
#
# 1 0.013766 -0.005122 -0.001418 0.000000 0.000000 0.000000
# 2 -0.005122 0.013777 -0.005307 0.000000 0.000000 0.000000
# 3 -0.001418 -0.005307 0.013289 0.000000 0.000000 0.000000
# 4 0.000000 0.000000 0.000000 0.030914 0.000000 0.000000
# 5 0.000000 0.000000 0.000000 0.000000 0.030777 0.000000
# 6 0.000000 0.000000 0.000000 0.000000 0.000000 0.027980
#
#
# Mechanical properties :
#
#
# Convention : Reuss Voigt Hill
#
# Bulk Modulus (GPa) = 58.34972 59.85189 59.10080
# Shear Modulus (GPa) = 31.26757 31.89283 31.58020
#
# Velocity S-wave (km/s) = 3.85461 3.89296 3.87383
# Velocity P-wave (km/s) = 6.89477 6.97480 6.93490
#
# Compressibility (1/GPa) = 0.01713804
#
# Stress axis : x y z
#
# Youngs Moduli (GPa) = 72.64261 72.58303 75.24913
#
# Poissons Ratio (x) = 0.37175 0.10671
# Poissons Ratio (y) = 0.37205 0.39938
# Poissons Ratio (z) = 0.10301 0.38523
#
# Static dielectric constant tensor:
#      x y z
#    x 3.768360 0.000000 0.000000 
#    y 0.000000 3.935610 0.000000 
#    z 0.000000 0.000000 3.849450 
# 
# 
# High freq. dielectric constant tensor:
#      x y z
#    x 1.815710 0.000000 0.000000 
#    y 0.000000 1.834600 0.000000 
#    z 0.000000 0.000000 1.821430 
# 
# From -- ./inp_files/14643.got.cif
#   From: 2010.03.12/outbox.cif.g09.slc.cpg/sg68_8_cif.got.tgz:14643.got - 2010.04.10 23:14:56.
