data_PCOD8283083
_publ_section_title
;
Structure prediction by ZEFSAII (Michael W. Deem and Ramdas Pophale) SiO2 
 PCOD8283083
Probable space group: C C C A
;
_chemical_formula_sum "Si O2"
_cell_formula_units_Z 52
_cell_length_a 13.076571
_cell_length_b 5.063090
_cell_length_c 30.515579
_cell_angle_alpha 90.000000
_cell_angle_beta 90.000000
_cell_angle_gamma 90.000000
_cell_volume 2020.371056
_symmetry_space_group_name_H-M "C C C A"
_symmetry_group_IT_number 68
_space_group.IT_coordinate_system_code '2'
_symmetry_cell_setting 'orthorhombic'
loop_
_space_group_symop_operation_xyz
x,y,z
-x,1/2-y,z
x,1/2-y,1/2-z
-x,y,1/2-z
-x,-y,-z
x,1/2+y,-z
-x,1/2+y,1/2+z
x,-y,1/2+z
1/2+x,1/2+y,z
1/2-x,-y,z
1/2+x,-y,1/2-z
1/2-x,1/2+y,1/2-z
1/2-x,1/2-y,-z
1/2+x,y,-z
1/2-x,y,1/2+z
1/2+x,1/2-y,1/2+z
loop_
_atom_site_type_symbol
_atom_site_label
_atom_site_fract_x
_atom_site_fract_y
_atom_site_fract_z
Si Si1 0.629582 0.979640 0.123740
Si Si2 0.870338 0.517395 0.178138
Si Si3 0.128624 0.968424 0.473299
Si Si4 0.000000 0.750000 0.750000
O O1 0.594253 0.197335 0.159612
O O2 0.750000 0.000000 0.119111
O O3 0.597388 0.691248 0.140673
O O4 0.581106 0.020273 0.075642
O O5 0.750000 0.500000 0.188280
O O6 0.928849 0.447972 0.222508
O O7 0.088688 0.199910 0.504769
O O8 0.250000 0.000000 0.470436
#
# Coordination Sequence:
#
# PCOD8283083 Si02
#       4
#    16  16  16   4
#     4   9  18  35  56  85 127 168 204 257 322 376
#     4  10  23  41  63  91 127 165 210 268 326 390
#     4   9  15  24  46  82 120 158 205 252 296 365
#     4  12  28  46  72 100 124 170 228 278 340 400
#
# _framework density 25.737848
#
# number of rings (size 3 to 8) (size 9 to 14) (size 15 to 20)
#    0.000    2.462    0.000    1.846    0.000   14.769 
#    0.000    0.000    0.000    0.000    0.000   21.538 
#    0.000    0.000    0.000    0.000    0.000    7.077 
#
# Total GULP energy -322446.423572 kJ/mol
# GULP energy per Si atom -12401.785522 kJ/mol
# Density = 2.567927 g / cm^3
# Si number density = 25.737848 Si / 1000 Ang^3
#
#
#
# Elastic Constant Matrix: (Units=GPa)
#
#
# Indices 1 2 3 4 5 6 
#
# 1 40.3190 -40.7405 15.8223 0.0000 0.0000 0.0000
# 2 -40.7405 149.7409 46.9663 0.0000 0.0000 0.0000
# 3 15.8223 46.9663 196.8358 0.0000 0.0000 0.0000
# 4 0.0000 0.0000 0.0000 84.0007 0.0000 0.0000
# 5 0.0000 0.0000 0.0000 0.0000 27.1126 0.0000
# 6 0.0000 0.0000 0.0000 0.0000 0.0000 -0.5815
#
#
#
# Elastic Compliance Matrix: (Units=1/GPa)
#
#
# Indices 1 2 3 4 5 6 
#
# 1 0.040416 0.012987 -0.006348 0.000000 0.000000 0.000000
# 2 0.012987 0.011392 -0.003762 0.000000 0.000000 0.000000
# 3 -0.006348 -0.003762 0.006488 0.000000 0.000000 0.000000
# 4 0.000000 0.000000 0.000000 0.011905 0.000000 0.000000
# 5 0.000000 0.000000 0.000000 0.000000 0.036883 0.000000
# 6 0.000000 0.000000 0.000000 0.000000 0.000000 -1.719762
#
#
# Mechanical properties :
#
#
# Convention : Reuss Voigt Hill
#
# Bulk Modulus (GPa) = 15.61266 47.88801 31.75033
# Shear Modulus (GPa) = -3.13071 46.42954 21.64942
#
# Velocity S-wave (km/s) = -1.10409 4.25189 2.90341
# Velocity P-wave (km/s) = 2.11041 6.53844 4.85824
#
# Compressibility (1/GPa) = 0.06405059
#
# Stress axis : x y z
#
# Youngs Moduli (GPa) = 24.74272 87.78413 154.12451
#
# Poissons Ratio (x) = -1.14005 0.97831
# Poissons Ratio (y) = -0.32133 0.57982
# Poissons Ratio (z) = 0.15706 0.33025
#
# Static dielectric constant tensor:
#      x y z
#    x 4.675090 0.000000 0.000000 
#    y 0.000000 4.589130 0.000000 
#    z 0.000000 0.000000 4.704940 
# 
# 
# High freq. dielectric constant tensor:
#      x y z
#    x 2.052430 0.000000 0.000000 
#    y 0.000000 2.029780 0.000000 
#    z 0.000000 0.000000 2.030430 
# 
# From -- ./inp_files/47923.got.cif
#   From: 2010.03.12/outbox.cif.g09.slc.cpg/sg68_24_cif.got.tgz:47923.got - 2010.04.10 23:14:56.
