data_PCOD8283613
_publ_section_title
;
Structure prediction by ZEFSAII (Michael W. Deem and Ramdas Pophale) SiO2 
 PCOD8283613
Probable space group: C C C A
;
_chemical_formula_sum "Si O2"
_cell_formula_units_Z 64
_cell_length_a 29.555010
_cell_length_b 9.204880
_cell_length_c 10.985012
_cell_angle_alpha 90.000000
_cell_angle_beta 90.000000
_cell_angle_gamma 90.000000
_cell_volume 2988.476035
_symmetry_space_group_name_H-M "C C C A"
_symmetry_group_IT_number 68
_space_group.IT_coordinate_system_code '2'
_symmetry_cell_setting 'orthorhombic'
loop_
_space_group_symop_operation_xyz
x,y,z
-x,1/2-y,z
x,1/2-y,1/2-z
-x,y,1/2-z
-x,-y,-z
x,1/2+y,-z
-x,1/2+y,1/2+z
x,-y,1/2+z
1/2+x,1/2+y,z
1/2-x,-y,z
1/2+x,-y,1/2-z
1/2-x,1/2+y,1/2-z
1/2-x,1/2-y,-z
1/2+x,y,-z
1/2-x,y,1/2+z
1/2+x,1/2-y,1/2+z
loop_
_atom_site_type_symbol
_atom_site_label
_atom_site_fract_x
_atom_site_fract_y
_atom_site_fract_z
Si Si1 0.836435 0.919167 0.536184
Si Si2 0.482744 0.910134 0.883062
Si Si3 0.382668 0.802796 0.883116
Si Si4 0.299390 0.250000 0.750000
Si Si5 0.250000 0.000000 0.110884
O O1 0.878142 0.845312 0.461708
O O2 0.833258 0.820598 0.654445
O O3 0.788627 0.921348 0.467656
O O4 0.845364 0.086016 0.568492
O O5 0.500000 0.750000 0.900940
O O6 0.500000 0.972203 0.750000
O O7 0.428940 0.894213 0.886217
O O8 0.500000 0.000000 0.000000
O O9 0.370758 0.750000 0.750000
O O10 0.268365 0.374293 0.804218
#
# Coordination Sequence:
#
# PCOD8283613 Si02
#       5
#    16  16  16   8   8
#     4  12  27  45  71 106 145 189 247 300 364 437
#     4  11  24  47  74 107 145 191 241 302 376 450
#     4  12  26  46  74 106 146 187 243 308 362 440
#     4  12  26  44  70  98 141 190 247 292 372 424
#     4  12  26  48  66 104 144 196 244 302 366 442
#
# _framework density 21.415599
#
# number of rings (size 3 to 8) (size 9 to 14) (size 15 to 20)
#    0.000    0.250    5.000    4.500    5.250    0.500 
#    0.000    0.000    0.000    0.000    0.000    0.000 
#    0.000    0.000    0.000    0.000    0.000    0.000 
#
# Total GULP energy -396691.441791 kJ/mol
# GULP energy per Si atom -12396.607556 kJ/mol
# Density = 2.136686 g / cm^3
# Si number density = 21.415599 Si / 1000 Ang^3
#
#
#
# Elastic Constant Matrix: (Units=GPa)
#
#
# Indices 1 2 3 4 5 6 
#
# 1 83.9654 10.0812 41.0094 0.0000 0.0000 0.0000
# 2 10.0812 102.0686 60.7695 0.0000 0.0000 0.0000
# 3 41.0094 60.7695 167.7544 0.0000 0.0000 0.0000
# 4 0.0000 0.0000 0.0000 55.6500 0.0000 0.0000
# 5 0.0000 0.0000 0.0000 0.0000 20.7982 0.0000
# 6 0.0000 0.0000 0.0000 0.0000 0.0000 27.3574
#
#
#
# Elastic Compliance Matrix: (Units=1/GPa)
#
#
# Indices 1 2 3 4 5 6 
#
# 1 0.013577 0.000810 -0.003612 0.000000 0.000000 0.000000
# 2 0.000810 0.012540 -0.004741 0.000000 0.000000 0.000000
# 3 -0.003612 -0.004741 0.008561 0.000000 0.000000 0.000000
# 4 0.000000 0.000000 0.000000 0.017969 0.000000 0.000000
# 5 0.000000 0.000000 0.000000 0.000000 0.048081 0.000000
# 6 0.000000 0.000000 0.000000 0.000000 0.000000 0.036553
#
#
# Mechanical properties :
#
#
# Convention : Reuss Voigt Hill
#
# Bulk Modulus (GPa) = 51.04190 64.16760 57.60475
# Shear Modulus (GPa) = 31.46669 36.88970 34.17819
#
# Velocity S-wave (km/s) = 3.83735 4.15488 3.99927
# Velocity P-wave (km/s) = 6.59692 7.28323 6.94855
#
# Compressibility (1/GPa) = 0.01959175
#
# Stress axis : x y z
#
# Youngs Moduli (GPa) = 73.65546 79.74637 116.80299
#
# Poissons Ratio (x) = -0.06457 0.42193
# Poissons Ratio (y) = -0.05964 0.55371
# Poissons Ratio (z) = 0.26607 0.37804
#
# Static dielectric constant tensor:
#      x y z
#    x 3.846960 0.000000 0.000000 
#    y 0.000000 3.987010 0.000000 
#    z 0.000000 0.000000 4.258790 
# 
# 
# High freq. dielectric constant tensor:
#      x y z
#    x 1.841280 0.000000 0.000000 
#    y 0.000000 1.853530 0.000000 
#    z 0.000000 0.000000 1.860080 
# 
# From -- ./inp_files/10801.got.cif
#   From: 2010.03.12/outbox.cif.g09.slc.cpg/sg68_6_cif.got.tgz:10801.got - 2010.04.10 23:14:56.
