data_PCOD8283303
_publ_section_title
;
Structure prediction by ZEFSAII (Michael W. Deem and Ramdas Pophale) SiO2 
 PCOD8283303
Probable space group: C C C A
;
_chemical_formula_sum "Si O2"
_cell_formula_units_Z 104
_cell_length_a 19.523551
_cell_length_b 9.087831
_cell_length_c 26.656943
_cell_angle_alpha 90.000000
_cell_angle_beta 90.000000
_cell_angle_gamma 90.000000
_cell_volume 4729.654282
_symmetry_space_group_name_H-M "C C C A"
_symmetry_group_IT_number 68
_space_group.IT_coordinate_system_code '2'
_symmetry_cell_setting 'orthorhombic'
loop_
_space_group_symop_operation_xyz
x,y,z
-x,1/2-y,z
x,1/2-y,1/2-z
-x,y,1/2-z
-x,-y,-z
x,1/2+y,-z
-x,1/2+y,1/2+z
x,-y,1/2+z
1/2+x,1/2+y,z
1/2-x,-y,z
1/2+x,-y,1/2-z
1/2-x,1/2+y,1/2-z
1/2-x,1/2-y,-z
1/2+x,y,-z
1/2-x,y,1/2+z
1/2+x,1/2-y,1/2+z
loop_
_atom_site_type_symbol
_atom_site_label
_atom_site_fract_x
_atom_site_fract_y
_atom_site_fract_z
Si Si1 0.581451 0.750241 0.465060
Si Si2 0.500000 0.250000 0.123461
Si Si3 0.708084 0.636689 0.637918
Si Si4 0.703285 0.860799 0.099559
Si Si5 0.612695 0.327904 0.298765
Si Si6 0.188665 0.896261 0.783342
Si Si7 0.906767 0.574797 0.062477
O O1 0.500000 0.750000 0.452537
O O2 0.629090 0.653679 0.427021
O O3 0.603141 0.698266 0.520136
O O4 0.599978 0.920290 0.464488
O O5 0.560738 0.182024 0.155691
O O6 0.479474 0.111994 0.088255
O O7 0.750000 0.500000 0.662128
O O8 0.750453 0.715226 0.592549
O O9 0.684290 0.749408 0.682668
O O10 0.643414 0.573167 0.609393
O O11 0.694513 0.852334 0.159104
O O12 0.750000 0.000000 0.081977
O O13 0.582005 0.250000 0.250000
O O14 0.622368 0.497038 0.282181
O O15 0.178135 0.750000 0.750000
O O16 0.250000 0.000000 0.763461
#
# Coordination Sequence:
#
# PCOD8283303 Si02
#       7
#    16   8  16  16  16  16  16
#     4  12  27  44  71 101 138 179 238 285 352 419
#     4  10  25  46  70  94 140 182 237 278 356 418
#     4  11  23  44  66 101 140 175 230 276 348 405
#     4  11  25  44  68 101 142 185 222 296 347 408
#     4  11  24  41  70  99 136 184 226 284 343 422
#     4  11  24  40  68 103 136 179 231 286 344 409
#     4  11  26  44  72  98 130 184 228 291 341 424
#
# _framework density 21.988923
#
# number of rings (size 3 to 8) (size 9 to 14) (size 15 to 20)
#    0.000    0.923    5.385    1.154    6.462    1.231 
#    0.000    0.000    0.000    0.000    0.000    0.000 
#    0.000    0.000    0.000    0.000    0.000    0.000 
#
# Total GULP energy -644214.569362 kJ/mol
# GULP energy per Si atom -12388.741718 kJ/mol
# Density = 2.193888 g / cm^3
# Si number density = 21.988923 Si / 1000 Ang^3
#
#
#
# Elastic Constant Matrix: (Units=GPa)
#
#
# Indices 1 2 3 4 5 6 
#
# 1 79.1468 41.8516 32.8203 0.0000 0.0000 0.0000
# 2 41.8516 161.3512 48.8727 0.0000 0.0000 0.0000
# 3 32.8203 48.8727 108.2074 0.0000 0.0000 0.0000
# 4 0.0000 0.0000 0.0000 34.8113 0.0000 0.0000
# 5 0.0000 0.0000 0.0000 0.0000 -101.5325 0.0000
# 6 0.0000 0.0000 0.0000 0.0000 0.0000 30.1003
#
#
#
# Elastic Compliance Matrix: (Units=1/GPa)
#
#
# Indices 1 2 3 4 5 6 
#
# 1 0.015638 -0.003035 -0.003372 0.000000 0.000000 0.000000
# 2 -0.003035 0.007769 -0.002588 0.000000 0.000000 0.000000
# 3 -0.003372 -0.002588 0.011433 0.000000 0.000000 0.000000
# 4 0.000000 0.000000 0.000000 0.028726 0.000000 0.000000
# 5 0.000000 0.000000 0.000000 0.000000 -0.009849 0.000000
# 6 0.000000 0.000000 0.000000 0.000000 0.000000 0.033222
#
#
# Mechanical properties :
#
#
# Convention : Reuss Voigt Hill
#
# Bulk Modulus (GPa) = 59.35037 66.19940 62.77489
# Shear Modulus (GPa) = 45.22955 7.68656 26.45805
#
# Velocity S-wave (km/s) = 4.54025 1.87169 3.47254
# Velocity P-wave (km/s) = 7.38477 5.90272 6.68494
#
# Compressibility (1/GPa) = 0.01684909
#
# Stress axis : x y z
#
# Youngs Moduli (GPa) = 63.94706 128.71966 87.46235
#
# Poissons Ratio (x) = 0.39062 0.29497
# Poissons Ratio (y) = 0.19406 0.22639
# Poissons Ratio (z) = 0.21566 0.33318
#
# Static dielectric constant tensor:
#      x y z
#    x 4.294830 0.000000 0.000000 
#    y 0.000000 4.640850 0.000000 
#    z 0.000000 0.000000 3.855100 
# 
# 
# High freq. dielectric constant tensor:
#      x y z
#    x 1.858510 0.000000 0.000000 
#    y 0.000000 1.874710 0.000000 
#    z 0.000000 0.000000 1.865390 
# 
# From -- ./inp_files/51864.got.cif
#   From: 2010.03.12/outbox.cif.g09.slc.cpg/sg68_26_cif.got.tgz:51864.got - 2010.04.10 23:14:56.
