data_PCOD8283664
_publ_section_title
;
Structure prediction by ZEFSAII (Michael W. Deem and Ramdas Pophale) SiO2 
 PCOD8283664
Probable space group: C C C A
;
_chemical_formula_sum "Si O2"
_cell_formula_units_Z 56
_cell_length_a 7.263346
_cell_length_b 21.914223
_cell_length_c 14.388278
_cell_angle_alpha 90.000000
_cell_angle_beta 90.000000
_cell_angle_gamma 90.000000
_cell_volume 2290.190612
_symmetry_space_group_name_H-M "C C C A"
_symmetry_group_IT_number 68
_space_group.IT_coordinate_system_code '2'
_symmetry_cell_setting 'orthorhombic'
loop_
_space_group_symop_operation_xyz
x,y,z
-x,1/2-y,z
x,1/2-y,1/2-z
-x,y,1/2-z
-x,-y,-z
x,1/2+y,-z
-x,1/2+y,1/2+z
x,-y,1/2+z
1/2+x,1/2+y,z
1/2-x,-y,z
1/2+x,-y,1/2-z
1/2-x,1/2+y,1/2-z
1/2-x,1/2-y,-z
1/2+x,y,-z
1/2-x,y,1/2+z
1/2+x,1/2-y,1/2+z
loop_
_atom_site_type_symbol
_atom_site_label
_atom_site_fract_x
_atom_site_fract_y
_atom_site_fract_z
Si Si1 0.250000 0.500000 0.735324
Si Si2 0.375970 0.405553 0.883377
Si Si3 0.793678 0.914180 0.082076
Si Si4 0.554289 0.319011 0.146075
O O1 0.358110 0.451716 0.797221
O O2 0.123922 0.462434 0.658918
O O3 0.591797 0.391290 0.888935
O O4 0.299256 0.439554 0.976451
O O5 0.266339 0.341107 0.867649
O O6 0.928822 0.856954 0.076012
O O7 0.500000 0.250000 0.122414
O O8 0.500000 0.335599 0.250000
#
# Coordination Sequence:
#
# PCOD8283664 Si02
#       4
#     8  16  16  16
#     4  12  28  44  74 102 150 188 232 302 358 428
#     4  12  27  46  73 110 144 191 240 295 363 429
#     4  12  27  46  73 110 144 191 240 295 363 429
#     4  11  26  50  75 104 146 190 244 298 359 430
#
# _framework density 24.452114000000002
#
# number of rings (size 3 to 8) (size 9 to 14) (size 15 to 20)
#    0.000    0.286    5.714    1.714    8.000    4.571 
#    0.000    2.857    0.000    0.000    0.000    0.000 
#    0.000    0.000    0.000    0.000    0.000    0.000 
#
# Total GULP energy -346903.015696 kJ/mol
# GULP energy per Si atom -12389.393418 kJ/mol
# Density = 2.439646 g / cm^3
# Si number density = 24.452114 Si / 1000 Ang^3
#
#
#
# Elastic Constant Matrix: (Units=GPa)
#
#
# Indices 1 2 3 4 5 6 
#
# 1 114.6532 37.5542 9.5388 0.0000 0.0000 0.0000
# 2 37.5542 131.1823 48.4244 0.0000 0.0000 0.0000
# 3 9.5388 48.4244 171.1493 0.0000 0.0000 0.0000
# 4 0.0000 0.0000 0.0000 15.7864 0.0000 0.0000
# 5 0.0000 0.0000 0.0000 0.0000 33.0774 0.0000
# 6 0.0000 0.0000 0.0000 0.0000 0.0000 27.5400
#
#
#
# Elastic Compliance Matrix: (Units=1/GPa)
#
#
# Indices 1 2 3 4 5 6 
#
# 1 0.009636 -0.002859 0.000272 0.000000 0.000000 0.000000
# 2 -0.002859 0.009360 -0.002489 0.000000 0.000000 0.000000
# 3 0.000272 -0.002489 0.006532 0.000000 0.000000 0.000000
# 4 0.000000 0.000000 0.000000 0.063346 0.000000 0.000000
# 5 0.000000 0.000000 0.000000 0.000000 0.030232 0.000000
# 6 0.000000 0.000000 0.000000 0.000000 0.000000 0.036311
#
#
# Mechanical properties :
#
#
# Convention : Reuss Voigt Hill
#
# Bulk Modulus (GPa) = 65.03701 67.55774 66.29737
# Shear Modulus (GPa) = 29.29226 36.71192 33.00209
#
# Velocity S-wave (km/s) = 3.46489 3.87897 3.67776
# Velocity P-wave (km/s) = 6.53167 6.91017 6.72358
#
# Compressibility (1/GPa) = 0.01537586
#
# Stress axis : x y z
#
# Youngs Moduli (GPa) = 103.78045 106.83566 153.09401
#
# Poissons Ratio (x) = 0.30542 -0.04161
# Poissons Ratio (y) = 0.29669 0.38105
# Poissons Ratio (z) = -0.02821 0.26591
#
# Static dielectric constant tensor:
#      x y z
#    x 4.317380 0.000000 0.000000 
#    y 0.000000 4.342600 0.000000 
#    z 0.000000 0.000000 5.087770 
# 
# 
# High freq. dielectric constant tensor:
#      x y z
#    x 1.973150 0.000000 0.000000 
#    y 0.000000 1.944450 0.000000 
#    z 0.000000 0.000000 2.009200 
# 
# From -- ./inp_files/10585.got.cif
#   From: 2010.03.12/outbox.cif.g09.slc.cpg/sg68_6_cif.got.tgz:10585.got - 2010.04.10 23:14:56.
