data_PCOD8283091
_publ_section_title
;
Structure prediction by ZEFSAII (Michael W. Deem and Ramdas Pophale) SiO2 
 PCOD8283091
Probable space group: C C C A
;
_chemical_formula_sum "Si O2"
_cell_formula_units_Z 108
_cell_length_a 23.196543
_cell_length_b 14.402632
_cell_length_c 14.658680
_cell_angle_alpha 90.000000
_cell_angle_beta 90.000000
_cell_angle_gamma 90.000000
_cell_volume 4897.337054
_symmetry_space_group_name_H-M "C C C A"
_symmetry_group_IT_number 68
_space_group.IT_coordinate_system_code '2'
_symmetry_cell_setting 'orthorhombic'
loop_
_space_group_symop_operation_xyz
x,y,z
-x,1/2-y,z
x,1/2-y,1/2-z
-x,y,1/2-z
-x,-y,-z
x,1/2+y,-z
-x,1/2+y,1/2+z
x,-y,1/2+z
1/2+x,1/2+y,z
1/2-x,-y,z
1/2+x,-y,1/2-z
1/2-x,1/2+y,1/2-z
1/2-x,1/2-y,-z
1/2+x,y,-z
1/2-x,y,1/2+z
1/2+x,1/2-y,1/2+z
loop_
_atom_site_type_symbol
_atom_site_label
_atom_site_fract_x
_atom_site_fract_y
_atom_site_fract_z
Si Si1 0.250735 0.250000 0.250000
Si Si2 0.528693 0.630990 0.407203
Si Si3 0.195302 0.724445 0.559768
Si Si4 0.602425 0.450710 0.387936
Si Si5 0.500000 0.250000 0.750000
Si Si6 0.685567 0.970629 0.977185
Si Si7 0.193536 0.442911 0.769622
Si Si8 0.080121 0.801043 0.509803
O O1 0.210862 0.220517 0.334030
O O2 0.292013 0.165348 0.223877
O O3 0.551892 0.527042 0.395450
O O4 0.541178 0.685388 0.312545
O O5 0.459818 0.631821 0.426277
O O6 0.557201 0.693776 0.488579
O O7 0.250000 0.750000 0.500000
O O8 0.171094 0.626525 0.525609
O O9 0.145659 0.800887 0.547193
O O10 0.643149 0.457095 0.476361
O O11 0.639074 0.460707 0.295886
O O12 0.577550 0.346250 0.406634
O O13 0.674037 0.974052 0.869567
O O14 0.750000 0.000000 0.000468
O O15 0.250000 0.500000 0.736077
#
# Coordination Sequence:
#
# PCOD8283091 Si02
#       8
#     8  16  16  16   4  16  16  16
#     4  12  24  39  66  93 144 183 232 267 350 432
#     4  10  23  44  68 100 131 181 233 295 353 406
#     4  12  22  40  65  98 135 183 225 279 350 414
#     4  12  23  42  70  97 135 177 232 290 346 422
#     4   8  20  42  68  96 140 152 240 294 344 414
#     4  11  23  42  62  96 143 176 229 284 347 426
#     4  11  26  41  61 101 138 183 223 282 352 430
#     4  10  23  41  66  97 132 180 226 288 353 410
#
# _framework density 22.052802
#
# number of rings (size 3 to 8) (size 9 to 14) (size 15 to 20)
#    0.000    1.185    2.963    4.444    2.074    4.741 
#    0.000    0.000    0.000    0.000    3.852    0.000 
#    0.000    0.000    0.000    0.000    0.000    0.000 
#
# Total GULP energy -669289.081448 kJ/mol
# GULP energy per Si atom -12394.242249 kJ/mol
# Density = 2.200261 g / cm^3
# Si number density = 22.052802 Si / 1000 Ang^3
#
#
#
# Elastic Constant Matrix: (Units=GPa)
#
#
# Indices 1 2 3 4 5 6 
#
# 1 117.8914 22.3164 41.3659 0.0000 0.0000 0.0000
# 2 22.3164 94.5594 23.7069 0.0000 0.0000 0.0000
# 3 41.3659 23.7069 112.5021 0.0000 0.0000 0.0000
# 4 0.0000 0.0000 0.0000 35.0380 0.0000 0.0000
# 5 0.0000 0.0000 0.0000 0.0000 18.6311 0.0000
# 6 0.0000 0.0000 0.0000 0.0000 0.0000 27.3523
#
#
#
# Elastic Compliance Matrix: (Units=1/GPa)
#
#
# Indices 1 2 3 4 5 6 
#
# 1 0.009939 -0.001509 -0.003336 0.000000 0.000000 0.000000
# 2 -0.001509 0.011394 -0.001846 0.000000 0.000000 0.000000
# 3 -0.003336 -0.001846 0.010505 0.000000 0.000000 0.000000
# 4 0.000000 0.000000 0.000000 0.028540 0.000000 0.000000
# 5 0.000000 0.000000 0.000000 0.000000 0.053674 0.000000
# 6 0.000000 0.000000 0.000000 0.000000 0.000000 0.036560
#
#
# Mechanical properties :
#
#
# Convention : Reuss Voigt Hill
#
# Bulk Modulus (GPa) = 54.18799 55.52571 54.85685
# Shear Modulus (GPa) = 29.38644 32.04185 30.71415
#
# Velocity S-wave (km/s) = 3.65437 3.81591 3.73601
# Velocity P-wave (km/s) = 6.51392 6.68192 6.59846
#
# Compressibility (1/GPa) = 0.01845427
#
# Stress axis : x y z
#
# Youngs Moduli (GPa) = 100.61657 87.76259 95.19729
#
# Poissons Ratio (x) = 0.13244 0.31761
# Poissons Ratio (y) = 0.15184 0.17575
# Poissons Ratio (z) = 0.33569 0.16203
#
# Static dielectric constant tensor:
#      x y z
#    x 4.173470 0.000000 0.000000 
#    y 0.000000 4.634760 0.000000 
#    z 0.000000 0.000000 3.961730 
# 
# 
# High freq. dielectric constant tensor:
#      x y z
#    x 1.863840 0.000000 0.000000 
#    y 0.000000 1.878890 0.000000 
#    z 0.000000 0.000000 1.853920 
# 
# From -- ./inp_files/25500.got.cif
#   From: 2010.03.12/outbox.cif.g09.slc.cpg/sg68_13_cif.got.tgz:25500.got - 2010.04.10 23:14:56.
