data_PCOD8283381
_publ_section_title
;
Structure prediction by ZEFSAII (Michael W. Deem and Ramdas Pophale) SiO2 
 PCOD8283381
Probable space group: C C C A
;
_chemical_formula_sum "Si O2"
_cell_formula_units_Z 52
_cell_length_a 7.304599
_cell_length_b 21.380843
_cell_length_c 15.032937
_cell_angle_alpha 90.000000
_cell_angle_beta 90.000000
_cell_angle_gamma 90.000000
_cell_volume 2347.821317
_symmetry_space_group_name_H-M "C C C A"
_symmetry_group_IT_number 68
_space_group.IT_coordinate_system_code '2'
_symmetry_cell_setting 'orthorhombic'
loop_
_space_group_symop_operation_xyz
x,y,z
-x,1/2-y,z
x,1/2-y,1/2-z
-x,y,1/2-z
-x,-y,-z
x,1/2+y,-z
-x,1/2+y,1/2+z
x,-y,1/2+z
1/2+x,1/2+y,z
1/2-x,-y,z
1/2+x,-y,1/2-z
1/2-x,1/2+y,1/2-z
1/2-x,1/2-y,-z
1/2+x,y,-z
1/2-x,y,1/2+z
1/2+x,1/2-y,1/2+z
loop_
_atom_site_type_symbol
_atom_site_label
_atom_site_fract_x
_atom_site_fract_y
_atom_site_fract_z
Si Si1 0.793838 0.429159 0.124108
Si Si2 0.311111 0.840633 0.783866
Si Si3 0.500000 0.250000 0.750000
Si Si4 0.202555 0.572108 0.572780
O O1 0.750000 0.500000 0.151121
O O2 0.733433 0.385022 0.202139
O O3 0.007135 0.417136 0.114919
O O4 0.696559 0.410830 0.031244
O O5 0.500000 0.807411 0.750000
O O6 0.143763 0.792590 0.806143
O O7 0.342005 0.883094 0.872304
O O8 0.250000 0.500000 0.584680
#
# Coordination Sequence:
#
# PCOD8283381 Si02
#       4
#    16  16   4  16
#     4  11  21  38  64 101 134 164 207 261 324 387
#     4  12  24  44  68  91 130 169 216 263 318 372
#     4  12  26  48  64  90 124 174 226 262 308 374
#     4  11  21  38  64 101 134 164 207 261 324 387
#
# _framework density 22.148192999999999
#
# number of rings (size 3 to 8) (size 9 to 14) (size 15 to 20)
#    0.000    0.615    3.077    8.769    0.000    0.000 
#    0.000    1.538    0.000    0.000    0.000    0.000 
#    0.000    0.000    0.000    0.000    0.000    0.000 
#
# Total GULP energy -322196.849487 kJ/mol
# GULP energy per Si atom -12392.186519 kJ/mol
# Density = 2.209778 g / cm^3
# Si number density = 22.148193 Si / 1000 Ang^3
#
#
#
# Elastic Constant Matrix: (Units=GPa)
#
#
# Indices 1 2 3 4 5 6 
#
# 1 98.4133 22.6966 8.8340 0.0000 0.0000 0.0000
# 2 22.6966 97.5378 61.0604 0.0000 0.0000 0.0000
# 3 8.8340 61.0604 101.6732 0.0000 0.0000 0.0000
# 4 0.0000 0.0000 0.0000 2.4055 0.0000 0.0000
# 5 0.0000 0.0000 0.0000 0.0000 15.0796 0.0000
# 6 0.0000 0.0000 0.0000 0.0000 0.0000 29.1862
#
#
#
# Elastic Compliance Matrix: (Units=1/GPa)
#
#
# Indices 1 2 3 4 5 6 
#
# 1 0.010790 -0.003083 0.000914 0.000000 0.000000 0.000000
# 2 -0.003083 0.017310 -0.010128 0.000000 0.000000 0.000000
# 3 0.000914 -0.010128 0.015838 0.000000 0.000000 0.000000
# 4 0.000000 0.000000 0.000000 0.415708 0.000000 0.000000
# 5 0.000000 0.000000 0.000000 0.000000 0.066315 0.000000
# 6 0.000000 0.000000 0.000000 0.000000 0.000000 0.034263
#
#
# Mechanical properties :
#
#
# Convention : Reuss Voigt Hill
#
# Bulk Modulus (GPa) = 51.69300 53.64514 52.66907
# Shear Modulus (GPa) = 8.45644 23.00316 15.72980
#
# Velocity S-wave (km/s) = 1.95612 3.22623 2.66786
# Velocity P-wave (km/s) = 5.33780 6.17670 5.77251
#
# Compressibility (1/GPa) = 0.01934498
#
# Stress axis : x y z
#
# Youngs Moduli (GPa) = 92.67666 57.77014 63.13818
#
# Poissons Ratio (x) = 0.17811 -0.05771
# Poissons Ratio (y) = 0.28572 0.63945
# Poissons Ratio (z) = -0.08471 0.58508
#
# Static dielectric constant tensor:
#      x y z
#    x 11.957630 0.000000 0.000000 
#    y 0.000000 4.009250 0.000000 
#    z 0.000000 0.000000 4.095280 
# 
# 
# High freq. dielectric constant tensor:
#      x y z
#    x 1.899190 0.000000 0.000000 
#    y 0.000000 1.857100 0.000000 
#    z 0.000000 0.000000 1.863760 
# 
# From -- ./inp_files/4655.got.cif
#   From: 2010.03.12/outbox.cif.g09.slc.cpg/sg68_3_cif.got.tgz:4655.got - 2010.04.10 23:14:56.
