data_PCOD8283240
_publ_section_title
;
Structure prediction by ZEFSAII (Michael W. Deem and Ramdas Pophale) SiO2 
 PCOD8283240
Probable space group: C C C A
;
_chemical_formula_sum "Si O2"
_cell_formula_units_Z 80
_cell_length_a 9.587282
_cell_length_b 25.097107
_cell_length_c 13.378850
_cell_angle_alpha 90.000000
_cell_angle_beta 90.000000
_cell_angle_gamma 90.000000
_cell_volume 3219.125800
_symmetry_space_group_name_H-M "C C C A"
_symmetry_group_IT_number 68
_space_group.IT_coordinate_system_code '2'
_symmetry_cell_setting 'orthorhombic'
loop_
_space_group_symop_operation_xyz
x,y,z
-x,1/2-y,z
x,1/2-y,1/2-z
-x,y,1/2-z
-x,-y,-z
x,1/2+y,-z
-x,1/2+y,1/2+z
x,-y,1/2+z
1/2+x,1/2+y,z
1/2-x,-y,z
1/2+x,-y,1/2-z
1/2-x,1/2+y,1/2-z
1/2-x,1/2-y,-z
1/2+x,y,-z
1/2-x,y,1/2+z
1/2+x,1/2-y,1/2+z
loop_
_atom_site_type_symbol
_atom_site_label
_atom_site_fract_x
_atom_site_fract_y
_atom_site_fract_z
Si Si1 0.250000 0.000000 0.081968
Si Si2 0.602188 0.157065 0.539784
Si Si3 0.500000 0.675767 0.750000
Si Si4 0.130338 0.587674 0.050675
Si Si5 0.500000 0.127989 0.750000
Si Si6 0.000000 0.250000 0.580639
Si Si7 0.198886 0.414066 0.772304
O O1 0.343240 0.039393 0.150617
O O2 0.147348 0.034732 0.014262
O O3 0.757193 0.134489 0.533891
O O4 0.515129 0.113815 0.477693
O O5 0.542301 0.162976 0.653069
O O6 0.603326 0.215960 0.489706
O O7 0.426024 0.709254 0.659848
O O8 0.376302 0.641519 0.801512
O O9 0.136752 0.569201 0.165370
O O10 0.633221 0.091167 0.776373
#
# Coordination Sequence:
#
# PCOD8283240 Si02
#       7
#     8  16   8  16   8   8  16
#     4  12  24  42  72 100 140 184 226 278 362 396
#     4  11  24  48  70 101 142 179 232 290 338 413
#     4  11  24  47  72 103 135 184 241 285 328 428
#     4  11  25  46  68 102 141 180 228 290 335 417
#     4  10  24  46  66  99 149 170 217 299 346 386
#     4  11  24  43  74 102 132 191 232 277 358 406
#     4  11  24  46  68 101 141 180 229 287 335 418
#
# _framework density 24.851467
#
# number of rings (size 3 to 8) (size 9 to 14) (size 15 to 20)
#    0.000    1.000    4.000    1.800    0.000    2.800 
#    0.000    0.000    0.000    0.000    0.000    0.000 
#    0.000    0.000    0.000    0.000    0.000    0.000 
#
# Total GULP energy -495790.822921 kJ/mol
# GULP energy per Si atom -12394.770573 kJ/mol
# Density = 2.479490 g / cm^3
# Si number density = 24.851467 Si / 1000 Ang^3
#
#
#
# Elastic Constant Matrix: (Units=GPa)
#
#
# Indices 1 2 3 4 5 6 
#
# 1 43.1157 3.2737 -0.2826 0.0000 0.0000 0.0000
# 2 3.2737 144.3245 72.6634 0.0000 0.0000 0.0000
# 3 -0.2826 72.6634 158.3957 0.0000 0.0000 0.0000
# 4 0.0000 0.0000 0.0000 73.5207 0.0000 0.0000
# 5 0.0000 0.0000 0.0000 0.0000 23.8690 0.0000
# 6 0.0000 0.0000 0.0000 0.0000 0.0000 19.4150
#
#
#
# Elastic Compliance Matrix: (Units=1/GPa)
#
#
# Indices 1 2 3 4 5 6 
#
# 1 0.023250 -0.000713 0.000369 0.000000 0.000000 0.000000
# 2 -0.000713 0.009032 -0.004145 0.000000 0.000000 0.000000
# 3 0.000369 -0.004145 0.008215 0.000000 0.000000 0.000000
# 4 0.000000 0.000000 0.000000 0.013602 0.000000 0.000000
# 5 0.000000 0.000000 0.000000 0.000000 0.041895 0.000000
# 6 0.000000 0.000000 0.000000 0.000000 0.000000 0.051507
#
#
# Mechanical properties :
#
#
# Convention : Reuss Voigt Hill
#
# Bulk Modulus (GPa) = 31.72683 55.23831 43.48257
# Shear Modulus (GPa) = 29.94288 41.37302 35.65795
#
# Velocity S-wave (km/s) = 3.47489 4.08464 3.79204
# Velocity P-wave (km/s) = 5.37533 6.67243 6.05869
#
# Compressibility (1/GPa) = 0.03151907
#
# Stress axis : x y z
#
# Youngs Moduli (GPa) = 43.01081 110.72180 121.72505
#
# Poissons Ratio (x) = 0.07894 -0.04486
# Poissons Ratio (y) = 0.03066 0.50449
# Poissons Ratio (z) = -0.01585 0.45889
#
# Static dielectric constant tensor:
#      x y z
#    x 4.287440 0.000000 0.000000 
#    y 0.000000 4.610860 0.000000 
#    z 0.000000 0.000000 5.193220 
# 
# 
# High freq. dielectric constant tensor:
#      x y z
#    x 1.967160 0.000000 0.000000 
#    y 0.000000 1.980880 0.000000 
#    z 0.000000 0.000000 2.027710 
# 
# From -- ./inp_files/20931.got.cif
#   From: 2010.03.12/outbox.cif.g09.slc.cpg/sg68_11_cif.got.tgz:20931.got - 2010.04.10 23:14:56.
