data_PCOD8283062
_publ_section_title
;
Structure prediction by ZEFSAII (Michael W. Deem and Ramdas Pophale) SiO2 
 PCOD8283062
Probable space group: C C C A
;
_chemical_formula_sum "Si O2"
_cell_formula_units_Z 64
_cell_length_a 22.562872
_cell_length_b 9.963686
_cell_length_c 13.357248
_cell_angle_alpha 90.000000
_cell_angle_beta 90.000000
_cell_angle_gamma 90.000000
_cell_volume 3002.834533
_symmetry_space_group_name_H-M "C C C A"
_symmetry_group_IT_number 68
_space_group.IT_coordinate_system_code '2'
_symmetry_cell_setting 'orthorhombic'
loop_
_space_group_symop_operation_xyz
x,y,z
-x,1/2-y,z
x,1/2-y,1/2-z
-x,y,1/2-z
-x,-y,-z
x,1/2+y,-z
-x,1/2+y,1/2+z
x,-y,1/2+z
1/2+x,1/2+y,z
1/2-x,-y,z
1/2+x,-y,1/2-z
1/2-x,1/2+y,1/2-z
1/2-x,1/2-y,-z
1/2+x,y,-z
1/2-x,y,1/2+z
1/2+x,1/2-y,1/2+z
loop_
_atom_site_type_symbol
_atom_site_label
_atom_site_fract_x
_atom_site_fract_y
_atom_site_fract_z
Si Si1 0.180395 0.507013 0.399360
Si Si2 0.614978 0.607265 0.786938
Si Si3 0.000000 0.945879 0.750000
Si Si4 0.626553 0.269380 0.490336
Si Si5 0.500000 0.750000 0.423895
O O1 0.250000 0.500000 0.411687
O O2 0.164895 0.542807 0.284294
O O3 0.157799 0.625483 0.473664
O O4 0.153330 0.357868 0.419035
O O5 0.593501 0.750000 0.750000
O O6 0.556066 0.523264 0.789137
O O7 0.638926 0.627731 0.898852
O O8 0.019133 0.868518 0.650299
O O9 0.557360 0.230006 0.505841
#
# Coordination Sequence:
#
# PCOD8283062 Si02
#       5
#    16  16   8  16   8
#     4  11  24  45  67  96 134 178 229 275 332 402
#     4  10  23  39  63  95 130 173 223 273 334 391
#     4  11  21  40  60  98 137 175 214 278 336 399
#     4  11  24  43  67 102 132 182 221 280 340 400
#     4  11  24  38  67 100 140 168 221 278 345 400
#
# _framework density 21.313195
#
# number of rings (size 3 to 8) (size 9 to 14) (size 15 to 20)
#    0.000    1.250    2.500    2.625    7.000    3.000 
#    0.000   10.000    0.000    0.000    0.000    0.000 
#    0.000    0.000    0.000    0.000    0.000    0.000 
#
# Total GULP energy -396565.368971 kJ/mol
# GULP energy per Si atom -12392.667780 kJ/mol
# Density = 2.126469 g / cm^3
# Si number density = 21.313195 Si / 1000 Ang^3
#
#
#
# Elastic Constant Matrix: (Units=GPa)
#
#
# Indices 1 2 3 4 5 6 
#
# 1 137.9284 28.3643 12.9257 0.0000 0.0000 0.0000
# 2 28.3643 65.5431 11.6587 0.0000 0.0000 0.0000
# 3 12.9257 11.6587 79.8946 0.0000 0.0000 0.0000
# 4 0.0000 0.0000 0.0000 33.1601 0.0000 0.0000
# 5 0.0000 0.0000 0.0000 0.0000 29.8653 0.0000
# 6 0.0000 0.0000 0.0000 0.0000 0.0000 33.6723
#
#
#
# Elastic Compliance Matrix: (Units=1/GPa)
#
#
# Indices 1 2 3 4 5 6 
#
# 1 0.008009 -0.003322 -0.000811 0.000000 0.000000 0.000000
# 2 -0.003322 0.017041 -0.001949 0.000000 0.000000 0.000000
# 3 -0.000811 -0.001949 0.012932 0.000000 0.000000 0.000000
# 4 0.000000 0.000000 0.000000 0.030157 0.000000 0.000000
# 5 0.000000 0.000000 0.000000 0.000000 0.033484 0.000000
# 6 0.000000 0.000000 0.000000 0.000000 0.000000 0.029698
#
#
# Mechanical properties :
#
#
# Convention : Reuss Voigt Hill
#
# Bulk Modulus (GPa) = 38.73201 43.25149 40.99175
# Shear Modulus (GPa) = 32.87488 34.70070 33.78779
#
# Velocity S-wave (km/s) = 3.93168 4.03939 3.98590
# Velocity P-wave (km/s) = 6.23082 6.48790 6.36066
#
# Compressibility (1/GPa) = 0.02581844
#
# Stress axis : x y z
#
# Youngs Moduli (GPa) = 124.85554 58.68057 77.32653
#
# Poissons Ratio (x) = 0.19493 0.06271
# Poissons Ratio (y) = 0.41475 0.15074
# Poissons Ratio (z) = 0.10126 0.11439
#
# Static dielectric constant tensor:
#      x y z
#    x 4.041650 0.000000 0.000000 
#    y 0.000000 4.030730 0.000000 
#    z 0.000000 0.000000 4.249990 
# 
# 
# High freq. dielectric constant tensor:
#      x y z
#    x 1.829490 0.000000 0.000000 
#    y 0.000000 1.848310 0.000000 
#    z 0.000000 0.000000 1.841580 
# 
# From -- ./inp_files/19265.got.cif
#   From: 2010.03.12/outbox.cif.g09.slc.cpg/sg68_10_cif.got.tgz:19265.got - 2010.04.10 23:14:56.
