data_PCOD8283633
_publ_section_title
;
Structure prediction by ZEFSAII (Michael W. Deem and Ramdas Pophale) SiO2 
 PCOD8283633
Probable space group: C C C A
;
_chemical_formula_sum "Si O2"
_cell_formula_units_Z 52
_cell_length_a 20.321008
_cell_length_b 9.273329
_cell_length_c 12.518939
_cell_angle_alpha 90.000000
_cell_angle_beta 90.000000
_cell_angle_gamma 90.000000
_cell_volume 2359.111339
_symmetry_space_group_name_H-M "C C C A"
_symmetry_group_IT_number 68
_space_group.IT_coordinate_system_code '2'
_symmetry_cell_setting 'orthorhombic'
loop_
_space_group_symop_operation_xyz
x,y,z
-x,1/2-y,z
x,1/2-y,1/2-z
-x,y,1/2-z
-x,-y,-z
x,1/2+y,-z
-x,1/2+y,1/2+z
x,-y,1/2+z
1/2+x,1/2+y,z
1/2-x,-y,z
1/2+x,-y,1/2-z
1/2-x,1/2+y,1/2-z
1/2-x,1/2-y,-z
1/2+x,y,-z
1/2-x,y,1/2+z
1/2+x,1/2-y,1/2+z
loop_
_atom_site_type_symbol
_atom_site_label
_atom_site_fract_x
_atom_site_fract_y
_atom_site_fract_z
Si Si1 0.500000 0.750000 0.750000
Si Si2 0.765333 0.342242 0.656806
Si Si3 0.146642 0.300536 0.044280
Si Si4 0.560787 0.433802 0.435363
O O1 0.457300 0.645348 0.674813
O O2 0.800284 0.250000 0.750000
O O3 0.750000 0.500000 0.701262
O O4 0.814820 0.356418 0.559215
O O5 0.697723 0.260971 0.629019
O O6 0.110905 0.438648 0.095810
O O7 0.093653 0.180009 0.015062
O O8 0.500000 0.500000 0.500000
#
# Coordination Sequence:
#
# PCOD8283633 Si02
#       4
#     4  16  16  16
#     4  12  28  44  82 106 136 208 246 284 386 430
#     4  11  26  42  70 106 137 190 237 291 365 434
#     4  11  25  46  71  98 148 180 230 306 358 417
#     4  12  25  47  72 105 142 188 241 302 356 431
#
# _framework density 22.042197999999999
#
# number of rings (size 3 to 8) (size 9 to 14) (size 15 to 20)
#    0.000    0.615    6.154    0.000    6.462    2.462 
#    0.000    1.538    0.000    0.000    0.000    0.000 
#    0.000    0.000    0.000    0.000    0.000    0.000 
#
# Total GULP energy -322517.520798 kJ/mol
# GULP energy per Si atom -12404.520031 kJ/mol
# Density = 2.199203 g / cm^3
# Si number density = 22.042198 Si / 1000 Ang^3
#
#
#
# Elastic Constant Matrix: (Units=GPa)
#
#
# Indices 1 2 3 4 5 6 
#
# 1 105.8775 56.1634 28.2093 0.0000 0.0000 0.0000
# 2 56.1634 170.7941 36.5399 0.0000 0.0000 0.0000
# 3 28.2093 36.5399 79.1694 0.0000 0.0000 0.0000
# 4 0.0000 0.0000 0.0000 47.5790 0.0000 0.0000
# 5 0.0000 0.0000 0.0000 0.0000 -53.8356 0.0000
# 6 0.0000 0.0000 0.0000 0.0000 0.0000 114.0456
#
#
#
# Elastic Compliance Matrix: (Units=1/GPa)
#
#
# Indices 1 2 3 4 5 6 
#
# 1 0.011943 -0.003347 -0.002710 0.000000 0.000000 0.000000
# 2 -0.003347 0.007435 -0.002239 0.000000 0.000000 0.000000
# 3 -0.002710 -0.002239 0.014630 0.000000 0.000000 0.000000
# 4 0.000000 0.000000 0.000000 0.021018 0.000000 0.000000
# 5 0.000000 0.000000 0.000000 0.000000 -0.018575 0.000000
# 6 0.000000 0.000000 0.000000 0.000000 0.000000 0.008768
#
#
# Mechanical properties :
#
#
# Convention : Reuss Voigt Hill
#
# Bulk Modulus (GPa) = 57.42315 66.40737 61.91526
# Shear Modulus (GPa) = 73.94674 37.21968 55.58321
#
# Velocity S-wave (km/s) = 5.79833 4.11367 5.02707
# Velocity P-wave (km/s) = 8.42232 7.26332 7.86420
#
# Compressibility (1/GPa) = 0.01741458
#
# Stress axis : x y z
#
# Youngs Moduli (GPa) = 83.73371 134.50494 68.35196
#
# Poissons Ratio (x) = 0.45023 0.18526
# Poissons Ratio (y) = 0.28028 0.15302
# Poissons Ratio (z) = 0.22695 0.30112
#
# Static dielectric constant tensor:
#      x y z
#    x 4.134520 0.000000 0.000000 
#    y 0.000000 4.261810 0.000000 
#    z 0.000000 0.000000 4.158880 
# 
# 
# High freq. dielectric constant tensor:
#      x y z
#    x 1.877360 0.000000 0.000000 
#    y 0.000000 1.894240 0.000000 
#    z 0.000000 0.000000 1.856500 
# 
# From -- ./inp_files/18960.got.cif
#   From: 2010.03.12/outbox.cif.g09.slc.cpg/sg68_10_cif.got.tgz:18960.got - 2010.04.10 23:14:56.
