data_PCOD8283973
_publ_section_title
;
Structure prediction by ZEFSAII (Michael W. Deem and Ramdas Pophale) SiO2 
 PCOD8283973
Probable space group: F M M M
;
_chemical_formula_sum "Si O2"
_cell_formula_units_Z 208
_cell_length_a 25.487139
_cell_length_b 26.709383
_cell_length_c 17.938918
_cell_angle_alpha 90.000000
_cell_angle_beta 90.000000
_cell_angle_gamma 90.000000
_cell_volume 12211.842316
_symmetry_space_group_name_H-M "F M M M"
_symmetry_group_IT_number 69
_symmetry_cell_setting 'orthorhombic'
loop_
_space_group_symop_operation_xyz
x,y,z
-x,-y,z
x,-y,-z
-x,y,-z
-x,-y,-z
x,y,-z
-x,y,z
x,-y,z
x,1/2+y,1/2+z
-x,1/2-y,1/2+z
x,1/2-y,1/2-z
-x,1/2+y,1/2-z
-x,1/2-y,1/2-z
x,1/2+y,1/2-z
-x,1/2+y,1/2+z
x,1/2-y,1/2+z
1/2+x,y,1/2+z
1/2-x,-y,1/2+z
1/2+x,-y,1/2-z
1/2-x,y,1/2-z
1/2-x,-y,1/2-z
1/2+x,y,1/2-z
1/2-x,y,1/2+z
1/2+x,-y,1/2+z
1/2+x,1/2+y,z
1/2-x,1/2-y,z
1/2+x,1/2-y,-z
1/2-x,1/2+y,-z
1/2-x,1/2-y,-z
1/2+x,1/2+y,-z
1/2-x,1/2+y,z
1/2+x,1/2-y,z
loop_
_atom_site_type_symbol
_atom_site_label
_atom_site_fract_x
_atom_site_fract_y
_atom_site_fract_z
Si Si1 0.500000 0.941678 0.080121
Si Si2 0.558101 0.859301 0.771225
Si Si3 0.089339 0.303922 0.084409
Si Si4 0.765715 0.804957 0.164855
Si Si5 0.380170 0.284080 0.820286
Si Si6 0.109201 0.941587 0.338448
Si Si7 0.687412 0.372947 0.416950
O O1 0.445272 0.927666 0.119034
O O2 0.500000 0.000000 0.068125
O O3 0.500000 0.914249 0.000000
O O4 0.500000 0.878898 0.752929
O O5 0.555558 0.832921 0.853277
O O6 0.574829 0.821625 0.706524
O O7 0.599960 0.905782 0.766875
O O8 0.095684 0.246608 0.110736
O O9 0.146794 0.327656 0.083911
O O10 0.065060 0.305703 0.000000
O O11 0.750000 0.808663 0.250000
O O12 0.750000 0.750000 0.132262
O O13 0.827899 0.812886 0.153686
O O14 0.738613 0.852146 0.124333
O O15 0.362921 0.250000 0.750000
O O16 0.161244 0.923106 0.381276
O O17 0.114717 0.000000 0.318772
O O18 0.703745 0.388502 0.500000
#
# Coordination Sequence:
#
# PCOD8283973 Si02
#       7
#    16  32  32  32  32  32  32
#     4   9  16  26  44  66  89 122 161 195 228 271
#     4  10  20  33  48  70  97 131 165 204 248 294
#     4   9  18  30  44  68 100 130 163 201 240 291
#     4  11  17  29  49  68  91 130 168 207 245 282
#     4  10  18  31  49  69  96 130 168 203 247 296
#     4  10  19  33  49  69  97 129 164 200 239 286
#     4  10  20  31  46  72 102 129 161 204 247 287
#
# _framework density 17.032647000000001
#
# number of rings (size 3 to 8) (size 9 to 14) (size 15 to 20)
#    0.000    2.077    3.846    2.308    0.000    5.538 
#    0.000    0.000    0.000    4.154    0.000    0.000 
#    0.000    0.615    0.000    1.385    0.000    0.462 
#
# Total GULP energy -644253.781183 kJ/mol
# GULP energy per Si atom -12389.495792 kJ/mol
# Density = 1.699388 g / cm^3
# Si number density = 17.032647 Si / 1000 Ang^3
#
#
#
# Elastic Constant Matrix: (Units=GPa)
#
#
# Indices 1 2 3 4 5 6 
#
# 1 66.7294 31.2496 11.4704 0.0000 0.0000 0.0000
# 2 31.2496 104.3727 32.8692 0.0000 0.0000 0.0000
# 3 11.4704 32.8692 39.4006 0.0000 0.0000 0.0000
# 4 0.0000 0.0000 0.0000 12.4255 0.0000 0.0000
# 5 0.0000 0.0000 0.0000 0.0000 13.5016 0.0000
# 6 0.0000 0.0000 0.0000 0.0000 0.0000 25.7303
#
#
#
# Elastic Compliance Matrix: (Units=1/GPa)
#
#
# Indices 1 2 3 4 5 6 
#
# 1 0.017458 -0.004919 -0.000979 0.000000 0.000000 0.000000
# 2 -0.004919 0.014381 -0.010565 0.000000 0.000000 0.000000
# 3 -0.000979 -0.010565 0.034479 0.000000 0.000000 0.000000
# 4 0.000000 0.000000 0.000000 0.080479 0.000000 0.000000
# 5 0.000000 0.000000 0.000000 0.000000 0.074065 0.000000
# 6 0.000000 0.000000 0.000000 0.000000 0.000000 0.038865
#
#
# Mechanical properties :
#
#
# Convention : Reuss Voigt Hill
#
# Bulk Modulus (GPa) = 29.94718 40.18679 35.06699
# Shear Modulus (GPa) = 16.45910 19.32571 17.89241
#
# Velocity S-wave (km/s) = 3.11195 3.37208 3.24462
# Velocity P-wave (km/s) = 5.52564 6.22948 5.88809
#
# Compressibility (1/GPa) = 0.03339212
#
# Stress axis : x y z
#
# Youngs Moduli (GPa) = 57.28175 69.53693 29.00305
#
# Poissons Ratio (x) = 0.34202 0.02840
# Poissons Ratio (y) = 0.28174 0.30642
# Poissons Ratio (z) = 0.05609 0.73466
#
# Static dielectric constant tensor:
#      x y z
#    x 3.138530 0.000000 0.000000 
#    y 0.000000 3.143660 0.000000 
#    z 0.000000 0.000000 3.161580 
# 
# 
# High freq. dielectric constant tensor:
#      x y z
#    x 1.648880 0.000000 0.000000 
#    y 0.000000 1.640570 0.000000 
#    z 0.000000 0.000000 1.622160 
# 
# From -- ./inp_files/26138.got.cif
#   From: 2010.03.12/outbox.cif.g09.slc.cpg/sg69_14_cif.got.tgz:26138.got - 2010.04.10 23:52:46.
