data_PCOD8283669
_publ_section_title
;
Structure prediction by ZEFSAII (Michael W. Deem and Ramdas Pophale) SiO2 
 PCOD8283669
Probable space group: C C C A
;
_chemical_formula_sum "Si O2"
_cell_formula_units_Z 56
_cell_length_a 21.320377
_cell_length_b 12.443619
_cell_length_c 9.301426
_cell_angle_alpha 90.000000
_cell_angle_beta 90.000000
_cell_angle_gamma 90.000000
_cell_volume 2467.692951
_symmetry_space_group_name_H-M "C C C A"
_symmetry_group_IT_number 68
_space_group.IT_coordinate_system_code '2'
_symmetry_cell_setting 'orthorhombic'
loop_
_space_group_symop_operation_xyz
x,y,z
-x,1/2-y,z
x,1/2-y,1/2-z
-x,y,1/2-z
-x,-y,-z
x,1/2+y,-z
-x,1/2+y,1/2+z
x,-y,1/2+z
1/2+x,1/2+y,z
1/2-x,-y,z
1/2+x,-y,1/2-z
1/2-x,1/2+y,1/2-z
1/2-x,1/2-y,-z
1/2+x,y,-z
1/2-x,y,1/2+z
1/2+x,1/2-y,1/2+z
loop_
_atom_site_type_symbol
_atom_site_label
_atom_site_fract_x
_atom_site_fract_y
_atom_site_fract_z
Si Si1 0.750000 0.000000 0.196725
Si Si2 0.219474 0.820824 0.623756
Si Si3 0.635262 0.006345 0.012777
Si Si4 0.573838 0.629316 0.735442
O O1 0.772024 0.901158 0.301195
O O2 0.804950 0.046267 0.095189
O O3 0.190859 0.750000 0.750000
O O4 0.250000 0.750000 0.500000
O O5 0.160853 0.892024 0.575995
O O6 0.597982 0.920962 0.915559
O O7 0.590119 0.051398 0.134070
O O8 0.602759 0.750000 0.750000
O O9 0.500000 0.637787 0.750000
#
# Coordination Sequence:
#
# PCOD8283669 Si02
#       4
#     8  16  16  16
#     4  12  26  44  68 112 148 178 234 286 380 438
#     4  12  27  41  67 106 148 185 226 279 361 443
#     4  12  26  44  75 102 150 185 236 302 364 439
#     4  11  28  50  74 102 139 196 254 305 362 424
#
# _framework density 22.693261
#
# number of rings (size 3 to 8) (size 9 to 14) (size 15 to 20)
#    0.000    0.286    5.714    1.714    8.000    0.000 
#    0.000    0.000    0.000    5.143    0.000    0.000 
#    0.000    0.000    0.000    0.000    0.000    0.000 
#
# Total GULP energy -346985.676515 kJ/mol
# GULP energy per Si atom -12392.345590 kJ/mol
# Density = 2.264161 g / cm^3
# Si number density = 22.693261 Si / 1000 Ang^3
#
#
#
# Elastic Constant Matrix: (Units=GPa)
#
#
# Indices 1 2 3 4 5 6 
#
# 1 76.6813 40.8602 43.8338 0.0000 0.0000 0.0000
# 2 40.8602 152.1517 91.8279 0.0000 0.0000 0.0000
# 3 43.8338 91.8279 178.4217 0.0000 0.0000 0.0000
# 4 0.0000 0.0000 0.0000 32.5784 0.0000 0.0000
# 5 0.0000 0.0000 0.0000 0.0000 34.4179 0.0000
# 6 0.0000 0.0000 0.0000 0.0000 0.0000 34.4698
#
#
#
# Elastic Compliance Matrix: (Units=1/GPa)
#
#
# Indices 1 2 3 4 5 6 
#
# 1 0.015944 -0.002782 -0.002485 0.000000 0.000000 0.000000
# 2 -0.002782 0.010019 -0.004473 0.000000 0.000000 0.000000
# 3 -0.002485 -0.004473 0.008517 0.000000 0.000000 0.000000
# 4 0.000000 0.000000 0.000000 0.030695 0.000000 0.000000
# 5 0.000000 0.000000 0.000000 0.000000 0.029055 0.000000
# 6 0.000000 0.000000 0.000000 0.000000 0.000000 0.029011
#
#
# Mechanical properties :
#
#
# Convention : Reuss Voigt Hill
#
# Bulk Modulus (GPa) = 66.66625 84.47761 75.57193
# Shear Modulus (GPa) = 33.84743 35.67540 34.76142
#
# Velocity S-wave (km/s) = 3.86621 3.96924 3.91806
# Velocity P-wave (km/s) = 7.02645 7.63630 7.33771
#
# Compressibility (1/GPa) = 0.01500009
#
# Stress axis : x y z
#
# Youngs Moduli (GPa) = 62.71958 99.80977 117.40614
#
# Poissons Ratio (x) = 0.27765 0.29180
# Poissons Ratio (y) = 0.17447 0.52517
# Poissons Ratio (z) = 0.15588 0.44646
#
# Static dielectric constant tensor:
#      x y z
#    x 3.772830 0.000000 0.000000 
#    y 0.000000 4.896700 0.000000 
#    z 0.000000 0.000000 4.727480 
# 
# 
# High freq. dielectric constant tensor:
#      x y z
#    x 1.862590 0.000000 0.000000 
#    y 0.000000 1.917240 0.000000 
#    z 0.000000 0.000000 1.931600 
# 
# From -- ./inp_files/6653.got.cif
#   From: 2010.03.12/outbox.cif.g09.slc.cpg/sg68_4_cif.got.tgz:6653.got - 2010.04.10 23:14:56.
