data_PCOD8283691
_publ_section_title
;
Structure prediction by ZEFSAII (Michael W. Deem and Ramdas Pophale) SiO2 
 PCOD8283691
Probable space group: C C C A
;
_chemical_formula_sum "Si O2"
_cell_formula_units_Z 84
_cell_length_a 22.969378
_cell_length_b 18.745589
_cell_length_c 9.327342
_cell_angle_alpha 90.000000
_cell_angle_beta 90.000000
_cell_angle_gamma 90.000000
_cell_volume 4016.115801
_symmetry_space_group_name_H-M "C C C A"
_symmetry_group_IT_number 68
_space_group.IT_coordinate_system_code '2'
_symmetry_cell_setting 'orthorhombic'
loop_
_space_group_symop_operation_xyz
x,y,z
-x,1/2-y,z
x,1/2-y,1/2-z
-x,y,1/2-z
-x,-y,-z
x,1/2+y,-z
-x,1/2+y,1/2+z
x,-y,1/2+z
1/2+x,1/2+y,z
1/2-x,-y,z
1/2+x,-y,1/2-z
1/2-x,1/2+y,1/2-z
1/2-x,1/2-y,-z
1/2+x,y,-z
1/2-x,y,1/2+z
1/2+x,1/2-y,1/2+z
loop_
_atom_site_type_symbol
_atom_site_label
_atom_site_fract_x
_atom_site_fract_y
_atom_site_fract_z
Si Si1 0.216322 0.202595 0.890940
Si Si2 0.590516 0.847038 0.590570
Si Si3 0.857412 0.465721 0.706590
Si Si4 0.210729 0.061031 0.434884
Si Si5 0.000000 0.250000 0.750000
Si Si6 0.035762 0.451141 0.393108
O O1 0.212953 0.250000 0.750000
O O2 0.150983 0.191426 0.951667
O O3 0.251151 0.127339 0.872267
O O4 0.250000 0.250000 0.000000
O O5 0.608208 0.910416 0.696235
O O6 0.543303 0.795998 0.656980
O O7 0.554117 0.874810 0.455020
O O8 0.826207 0.419614 0.578328
O O9 0.820887 0.522821 0.800270
O O10 0.903300 0.511746 0.623990
O O11 0.250000 0.000000 0.504243
O O12 0.000000 0.437420 0.250000
O O13 0.000000 0.500000 0.500000
#
# Coordination Sequence:
#
# PCOD8283691 Si02
#       6
#    16  16  16  16   4  16
#     4  12  28  49  70 106 152 197 241 302 382 453
#     4  12  25  47  73 101 145 195 246 302 369 450
#     4  12  23  43  72 109 139 180 242 312 367 436
#     4  12  25  41  75 107 145 185 242 299 373 447
#     4  12  28  48  70  96 144 212 248 282 380 460
#     4  12  23  44  72 107 139 175 239 314 369 430
#
# _framework density 20.915731000000001
#
# number of rings (size 3 to 8) (size 9 to 14) (size 15 to 20)
#    0.000    0.000    6.667    2.857    5.333    0.000 
#    0.000    0.476    0.000    0.000    0.000    0.000 
#    0.000    0.000    0.000    0.000    0.000    0.000 
#
# Total GULP energy -520358.640951 kJ/mol
# GULP energy per Si atom -12389.491451 kJ/mol
# Density = 2.086813 g / cm^3
# Si number density = 20.915731 Si / 1000 Ang^3
#
#
#
# Elastic Constant Matrix: (Units=GPa)
#
#
# Indices 1 2 3 4 5 6 
#
# 1 152.8211 75.3366 70.7164 0.0000 0.0000 0.0000
# 2 75.3366 130.2650 47.3243 0.0000 0.0000 0.0000
# 3 70.7164 47.3243 128.6774 0.0000 0.0000 0.0000
# 4 0.0000 0.0000 0.0000 41.9511 0.0000 0.0000
# 5 0.0000 0.0000 0.0000 0.0000 48.8372 0.0000
# 6 0.0000 0.0000 0.0000 0.0000 0.0000 47.5237
#
#
#
# Elastic Compliance Matrix: (Units=1/GPa)
#
#
# Indices 1 2 3 4 5 6 
#
# 1 0.010823 -0.004730 -0.004208 0.000000 0.000000 0.000000
# 2 -0.004730 0.010928 -0.001419 0.000000 0.000000 0.000000
# 3 -0.004208 -0.001419 0.010606 0.000000 0.000000 0.000000
# 4 0.000000 0.000000 0.000000 0.023837 0.000000 0.000000
# 5 0.000000 0.000000 0.000000 0.000000 0.020476 0.000000
# 6 0.000000 0.000000 0.000000 0.000000 0.000000 0.021042
#
#
# Mechanical properties :
#
#
# Convention : Reuss Voigt Hill
#
# Bulk Modulus (GPa) = 85.90285 88.72426 87.31356
# Shear Modulus (GPa) = 40.88014 42.22146 41.55080
#
# Velocity S-wave (km/s) = 4.42579 4.49781 4.46194
# Velocity P-wave (km/s) = 8.20225 8.33581 8.26930
#
# Compressibility (1/GPa) = 0.01164106
#
# Stress axis : x y z
#
# Youngs Moduli (GPa) = 92.39730 91.50734 94.28613
#
# Poissons Ratio (x) = 0.43287 0.39677
# Poissons Ratio (y) = 0.43708 0.13383
# Poissons Ratio (z) = 0.38882 0.12989
#
# Static dielectric constant tensor:
#      x y z
#    x 4.162750 0.000000 0.000000 
#    y 0.000000 4.122820 0.000000 
#    z 0.000000 0.000000 3.743010 
# 
# 
# High freq. dielectric constant tensor:
#      x y z
#    x 1.844670 0.000000 0.000000 
#    y 0.000000 1.821450 0.000000 
#    z 0.000000 0.000000 1.827640 
# 
# From -- ./inp_files/7954.got.cif
#   From: 2010.03.12/outbox.cif.g09.slc.cpg/sg68_4_cif.got.tgz:7954.got - 2010.04.10 23:14:56.
