data_PCOD8283357
_publ_section_title
;
Structure prediction by ZEFSAII (Michael W. Deem and Ramdas Pophale) SiO2 
 PCOD8283357
Probable space group: C C C A
;
_chemical_formula_sum "Si O2"
_cell_formula_units_Z 96
_cell_length_a 9.911614
_cell_length_b 24.474370
_cell_length_c 21.348659
_cell_angle_alpha 90.000000
_cell_angle_beta 90.000000
_cell_angle_gamma 90.000000
_cell_volume 5178.768552
_symmetry_space_group_name_H-M "C C C A"
_symmetry_group_IT_number 68
_space_group.IT_coordinate_system_code '2'
_symmetry_cell_setting 'orthorhombic'
loop_
_space_group_symop_operation_xyz
x,y,z
-x,1/2-y,z
x,1/2-y,1/2-z
-x,y,1/2-z
-x,-y,-z
x,1/2+y,-z
-x,1/2+y,1/2+z
x,-y,1/2+z
1/2+x,1/2+y,z
1/2-x,-y,z
1/2+x,-y,1/2-z
1/2-x,1/2+y,1/2-z
1/2-x,1/2-y,-z
1/2+x,y,-z
1/2-x,y,1/2+z
1/2+x,1/2-y,1/2+z
loop_
_atom_site_type_symbol
_atom_site_label
_atom_site_fract_x
_atom_site_fract_y
_atom_site_fract_z
Si Si1 0.784053 0.250000 0.250000
Si Si2 0.000000 0.844082 0.750000
Si Si3 0.504637 0.619782 0.385419
Si Si4 0.785016 0.867678 0.442662
Si Si5 0.121556 0.963288 0.977735
Si Si6 0.627491 0.714843 0.451108
Si Si7 0.355609 0.727667 0.875653
O O1 0.869849 0.305251 0.251779
O O2 0.683718 0.251238 0.191883
O O3 0.987559 0.884558 0.810175
O O4 0.369033 0.619861 0.426294
O O5 0.591745 0.569876 0.413512
O O6 0.575195 0.678700 0.392997
O O7 0.853339 0.924204 0.462463
O O8 0.806110 0.825673 0.499435
O O9 0.855805 0.838904 0.381948
O O10 0.250000 0.000000 0.962037
O O11 0.000000 0.000000 0.000000
O O12 0.500000 0.750000 0.477282
O O13 0.745830 0.753913 0.427250
O O14 0.500000 0.750000 0.894718
#
# Coordination Sequence:
#
# PCOD8283357 Si02
#       7
#     8   8  16  16  16  16  16
#     4  11  21  38  58  84 130 180 206 242 288 370
#     4  11  20  40  66  90 120 168 224 240 285 382
#     4  11  22  38  67  92 117 163 210 253 305 375
#     4  11  23  35  61  93 120 159 204 256 311 368
#     4  11  24  43  67  92 120 153 205 269 331 371
#     4  11  21  36  55  90 129 165 202 245 304 375
#     4  12  24  35  55  90 134 171 204 249 302 360
#
# _framework density 18.537223999999998
#
# number of rings (size 3 to 8) (size 9 to 14) (size 15 to 20)
#    0.000    0.833    6.667    1.250    4.667    0.000 
#    0.000    0.000    3.667    0.000    0.000    0.000 
#    0.000    0.000    0.000    0.000    0.000    0.000 
#
# Total GULP energy -594940.456714 kJ/mol
# GULP energy per Si atom -12394.592848 kJ/mol
# Density = 1.849503 g / cm^3
# Si number density = 18.537224 Si / 1000 Ang^3
#
#
#
# Elastic Constant Matrix: (Units=GPa)
#
#
# Indices 1 2 3 4 5 6 
#
# 1 135.6549 56.9563 43.8668 0.0000 0.0000 0.0000
# 2 56.9563 108.8511 37.8205 0.0000 0.0000 0.0000
# 3 43.8668 37.8205 71.6320 0.0000 0.0000 0.0000
# 4 0.0000 0.0000 0.0000 26.9055 0.0000 0.0000
# 5 0.0000 0.0000 0.0000 0.0000 19.6630 0.0000
# 6 0.0000 0.0000 0.0000 0.0000 0.0000 33.0816
#
#
#
# Elastic Compliance Matrix: (Units=1/GPa)
#
#
# Indices 1 2 3 4 5 6 
#
# 1 0.010423 -0.003963 -0.004291 0.000000 0.000000 0.000000
# 2 -0.003963 0.012758 -0.004309 0.000000 0.000000 0.000000
# 3 -0.004291 -0.004309 0.018863 0.000000 0.000000 0.000000
# 4 0.000000 0.000000 0.000000 0.037167 0.000000 0.000000
# 5 0.000000 0.000000 0.000000 0.000000 0.050857 0.000000
# 6 0.000000 0.000000 0.000000 0.000000 0.000000 0.030228
#
#
# Mechanical properties :
#
#
# Convention : Reuss Voigt Hill
#
# Bulk Modulus (GPa) = 59.10710 65.93617 62.52163
# Shear Modulus (GPa) = 26.16976 27.76298 26.96637
#
# Velocity S-wave (km/s) = 3.76139 3.87420 3.81821
# Velocity P-wave (km/s) = 7.12874 7.46052 7.29652
#
# Compressibility (1/GPa) = 0.01691844
#
# Stress axis : x y z
#
# Youngs Moduli (GPa) = 95.94140 78.38421 53.01461
#
# Poissons Ratio (x) = 0.31064 0.22746
# Poissons Ratio (y) = 0.38023 0.22843
# Poissons Ratio (z) = 0.41164 0.33775
#
# Static dielectric constant tensor:
#      x y z
#    x 3.478030 0.000000 0.000000 
#    y 0.000000 3.587010 0.000000 
#    z 0.000000 0.000000 3.644020 
# 
# 
# High freq. dielectric constant tensor:
#      x y z
#    x 1.729100 0.000000 0.000000 
#    y 0.000000 1.707810 0.000000 
#    z 0.000000 0.000000 1.715280 
# 
# From -- ./inp_files/43334.got.cif
#   From: 2010.03.12/outbox.cif.g09.slc.cpg/sg68_22_cif.got.tgz:43334.got - 2010.04.10 23:14:56.
