data_PCOD8283087
_publ_section_title
;
Structure prediction by ZEFSAII (Michael W. Deem and Ramdas Pophale) SiO2 
 PCOD8283087
Probable space group: C C C A
;
_chemical_formula_sum "Si O2"
_cell_formula_units_Z 116
_cell_length_a 24.837584
_cell_length_b 9.206887
_cell_length_c 25.718274
_cell_angle_alpha 90.000000
_cell_angle_beta 90.000000
_cell_angle_gamma 90.000000
_cell_volume 5881.173352
_symmetry_space_group_name_H-M "C C C A"
_symmetry_group_IT_number 68
_space_group.IT_coordinate_system_code '2'
_symmetry_cell_setting 'orthorhombic'
loop_
_space_group_symop_operation_xyz
x,y,z
-x,1/2-y,z
x,1/2-y,1/2-z
-x,y,1/2-z
-x,-y,-z
x,1/2+y,-z
-x,1/2+y,1/2+z
x,-y,1/2+z
1/2+x,1/2+y,z
1/2-x,-y,z
1/2+x,-y,1/2-z
1/2-x,1/2+y,1/2-z
1/2-x,1/2-y,-z
1/2+x,y,-z
1/2-x,y,1/2+z
1/2+x,1/2-y,1/2+z
loop_
_atom_site_type_symbol
_atom_site_label
_atom_site_fract_x
_atom_site_fract_y
_atom_site_fract_z
Si Si1 0.126101 0.723036 0.507450
Si Si2 0.050544 0.856784 0.898584
Si Si3 0.689513 0.013267 0.829221
Si Si4 0.053651 0.184199 0.919929
Si Si5 0.500000 0.750000 0.750000
Si Si6 0.581943 0.106677 0.325424
Si Si7 0.898527 0.791952 0.808566
Si Si8 0.190535 0.524440 0.952207
O O1 0.082540 0.677302 0.549383
O O2 0.098794 0.826513 0.464101
O O3 0.173775 0.811086 0.535126
O O4 0.148858 0.581479 0.479816
O O5 0.087333 0.838722 0.847131
O O6 0.000000 0.750000 0.896183
O O7 0.036717 0.027430 0.897466
O O8 0.665704 0.170463 0.811317
O O9 0.689811 0.997776 0.891098
O O10 0.750000 0.000000 0.806276
O O11 0.646432 0.889183 0.809106
O O12 0.073433 0.293135 0.875134
O O13 0.000000 0.250000 0.945691
O O14 0.459891 0.849664 0.718102
O O15 0.569805 0.933596 0.332344
O O16 0.915691 0.750000 0.750000
O O17 0.250000 0.500000 0.974911
#
# Coordination Sequence:
#
# PCOD8283087 Si02
#       8
#    16  16  16  16   4  16  16  16
#     4  12  22  42  62  95 132 171 217 270 328 402
#     4  12  27  40  64  95 131 169 221 274 333 407
#     4   9  20  43  69  93 129 177 219 269 329 398
#     4  12  25  40  64  91 134 173 220 269 336 408
#     4  12  24  40  66 100 132 164 222 286 326 400
#     4  10  23  41  65  97 131 172 221 266 338 395
#     4  10  23  44  67  94 127 170 220 270 332 390
#     4  11  22  39  66  95 130 172 216 268 328 398
#
# _framework density 19.723955
#
# number of rings (size 3 to 8) (size 9 to 14) (size 15 to 20)
#    0.828    0.276    4.828    1.655    3.862    1.379 
#    1.241    0.000    0.000    0.000    0.000    0.000 
#    0.000    0.000    0.000    0.000    0.000    0.000 
#
# Total GULP energy -718581.790555 kJ/mol
# GULP energy per Si atom -12389.341216 kJ/mol
# Density = 1.967906 g / cm^3
# Si number density = 19.723955 Si / 1000 Ang^3
#
#
#
# Elastic Constant Matrix: (Units=GPa)
#
#
# Indices 1 2 3 4 5 6 
#
# 1 119.4708 34.1259 39.9499 0.0000 0.0000 0.0000
# 2 34.1259 104.7969 30.0214 0.0000 0.0000 0.0000
# 3 39.9499 30.0214 82.7310 0.0000 0.0000 0.0000
# 4 0.0000 0.0000 0.0000 20.7509 0.0000 0.0000
# 5 0.0000 0.0000 0.0000 0.0000 26.5535 0.0000
# 6 0.0000 0.0000 0.0000 0.0000 0.0000 29.5475
#
#
#
# Elastic Compliance Matrix: (Units=1/GPa)
#
#
# Indices 1 2 3 4 5 6 
#
# 1 0.010408 -0.002176 -0.004237 0.000000 0.000000 0.000000
# 2 -0.002176 0.011104 -0.002979 0.000000 0.000000 0.000000
# 3 -0.004237 -0.002979 0.015214 0.000000 0.000000 0.000000
# 4 0.000000 0.000000 0.000000 0.048191 0.000000 0.000000
# 5 0.000000 0.000000 0.000000 0.000000 0.037660 0.000000
# 6 0.000000 0.000000 0.000000 0.000000 0.000000 0.033844
#
#
# Mechanical properties :
#
#
# Convention : Reuss Voigt Hill
#
# Bulk Modulus (GPa) = 55.72773 57.24369 56.48571
# Shear Modulus (GPa) = 27.59616 28.89714 28.24665
#
# Velocity S-wave (km/s) = 3.74454 3.83179 3.78841
# Velocity P-wave (km/s) = 6.85643 6.97583 6.91639
#
# Compressibility (1/GPa) = 0.01794439
#
# Stress axis : x y z
#
# Youngs Moduli (GPa) = 96.07634 90.05671 65.72835
#
# Poissons Ratio (x) = 0.19594 0.27846
# Poissons Ratio (y) = 0.20903 0.19579
# Poissons Ratio (z) = 0.40703 0.26826
#
# Static dielectric constant tensor:
#      x y z
#    x 3.899800 0.000000 0.000000 
#    y 0.000000 3.467150 0.000000 
#    z 0.000000 0.000000 3.521160 
# 
# 
# High freq. dielectric constant tensor:
#      x y z
#    x 1.773930 0.000000 0.000000 
#    y 0.000000 1.763390 0.000000 
#    z 0.000000 0.000000 1.763850 
# 
# From -- ./inp_files/47312.got.cif
#   From: 2010.03.12/outbox.cif.g09.slc.cpg/sg68_24_cif.got.tgz:47312.got - 2010.04.10 23:14:56.
