data_PCOD8283683
_publ_section_title
;
Structure prediction by ZEFSAII (Michael W. Deem and Ramdas Pophale) SiO2 
 PCOD8283683
Probable space group: C C C A
;
_chemical_formula_sum "Si O2"
_cell_formula_units_Z 120
_cell_length_a 25.303312
_cell_length_b 18.090747
_cell_length_c 11.810759
_cell_angle_alpha 90.000000
_cell_angle_beta 90.000000
_cell_angle_gamma 90.000000
_cell_volume 5406.443620
_symmetry_space_group_name_H-M "C C C A"
_symmetry_group_IT_number 68
_space_group.IT_coordinate_system_code '2'
_symmetry_cell_setting 'orthorhombic'
loop_
_space_group_symop_operation_xyz
x,y,z
-x,1/2-y,z
x,1/2-y,1/2-z
-x,y,1/2-z
-x,-y,-z
x,1/2+y,-z
-x,1/2+y,1/2+z
x,-y,1/2+z
1/2+x,1/2+y,z
1/2-x,-y,z
1/2+x,-y,1/2-z
1/2-x,1/2+y,1/2-z
1/2-x,1/2-y,-z
1/2+x,y,-z
1/2-x,y,1/2+z
1/2+x,1/2-y,1/2+z
loop_
_atom_site_type_symbol
_atom_site_label
_atom_site_fract_x
_atom_site_fract_y
_atom_site_fract_z
Si Si1 0.388089 0.027425 0.634353
Si Si2 0.700862 0.544935 0.515081
Si Si3 0.940496 0.884446 0.282226
Si Si4 0.117791 0.641596 0.048287
Si Si5 0.056291 0.284481 0.987898
Si Si6 0.823345 0.750000 0.750000
Si Si7 0.118733 0.380369 0.143293
Si Si8 0.727681 0.824223 0.450119
O O1 0.406960 0.074911 0.525822
O O2 0.397989 0.078305 0.743249
O O3 0.326473 0.003485 0.615289
O O4 0.421632 0.953237 0.642902
O O5 0.750000 0.500000 0.461572
O O6 0.657040 0.562599 0.420813
O O7 0.722997 0.621140 0.564309
O O8 0.900971 0.871536 0.176763
O O9 0.941310 0.810779 0.357785
O O10 0.000000 0.903192 0.250000
O O11 0.098869 0.719607 0.998917
O O12 0.181557 0.641820 0.031229
O O13 0.000000 0.250000 0.019416
O O14 0.068309 0.355800 0.067500
O O15 0.856359 0.699576 0.834499
O O16 0.790546 0.690927 0.677497
O O17 0.750000 0.750000 0.500000
#
# Coordination Sequence:
#
# PCOD8283683 Si02
#       8
#    16  16  16  16  16   8  16  16
#     4  12  27  47  73 109 154 200 243 312 385 461
#     4  12  24  45  70 106 151 202 246 301 377 454
#     4  12  28  48  79 108 145 195 251 320 383 450
#     4  12  25  48  73 106 149 190 250 308 368 451
#     4  12  25  49  81 106 144 193 252 316 386 449
#     4  12  22  44  69  98 148 186 235 318 350 432
#     4  12  24  47  73 108 154 188 252 310 376 453
#     4  12  25  44  70 108 144 195 254 301 369 441
#
# _framework density 22.195736
#
# number of rings (size 3 to 8) (size 9 to 14) (size 15 to 20)
#    0.000    0.000    8.000    1.200    0.000    4.267 
#    0.000    2.333    0.000    0.000    0.000    0.000 
#    0.000    0.000    0.000    0.000    0.000    0.000 
#
# Total GULP energy -743934.510857 kJ/mol
# GULP energy per Si atom -12398.908514 kJ/mol
# Density = 2.214522 g / cm^3
# Si number density = 22.195736 Si / 1000 Ang^3
#
#
#
# Elastic Constant Matrix: (Units=GPa)
#
#
# Indices 1 2 3 4 5 6 
#
# 1 100.1139 38.5293 47.3901 0.0000 0.0000 0.0000
# 2 38.5293 113.3595 36.3486 0.0000 0.0000 0.0000
# 3 47.3901 36.3486 105.8035 0.0000 0.0000 0.0000
# 4 0.0000 0.0000 0.0000 51.4311 0.0000 0.0000
# 5 0.0000 0.0000 0.0000 0.0000 19.4867 0.0000
# 6 0.0000 0.0000 0.0000 0.0000 0.0000 46.2538
#
#
#
# Elastic Compliance Matrix: (Units=1/GPa)
#
#
# Indices 1 2 3 4 5 6 
#
# 1 0.013517 -0.002981 -0.005030 0.000000 0.000000 0.000000
# 2 -0.002981 0.010571 -0.002296 0.000000 0.000000 0.000000
# 3 -0.005030 -0.002296 0.012493 0.000000 0.000000 0.000000
# 4 0.000000 0.000000 0.000000 0.019443 0.000000 0.000000
# 5 0.000000 0.000000 0.000000 0.000000 0.051317 0.000000
# 6 0.000000 0.000000 0.000000 0.000000 0.000000 0.021620
#
#
# Mechanical properties :
#
#
# Convention : Reuss Voigt Hill
#
# Bulk Modulus (GPa) = 62.63323 62.64590 62.63957
# Shear Modulus (GPa) = 32.27894 36.56824 34.42359
#
# Velocity S-wave (km/s) = 3.81765 4.06339 3.94243
# Velocity P-wave (km/s) = 6.90742 7.09228 7.00046
#
# Compressibility (1/GPa) = 0.01596597
#
# Stress axis : x y z
#
# Youngs Moduli (GPa) = 73.98038 94.59725 80.04212
#
# Poissons Ratio (x) = 0.28203 0.40262
# Poissons Ratio (y) = 0.22056 0.18380
# Poissons Ratio (z) = 0.37213 0.21723
#
# Static dielectric constant tensor:
#      x y z
#    x 4.047730 0.000000 0.000000 
#    y 0.000000 4.246640 0.000000 
#    z 0.000000 0.000000 3.794680 
# 
# 
# High freq. dielectric constant tensor:
#      x y z
#    x 1.862880 0.000000 0.000000 
#    y 0.000000 1.905010 0.000000 
#    z 0.000000 0.000000 1.868960 
# 
# From -- ./inp_files/16612.got.cif
#   From: 2010.03.12/outbox.cif.g09.slc.cpg/sg68_9_cif.got.tgz:16612.got - 2010.04.10 23:14:56.
