data_PCOD8283843
_publ_section_title
;
Structure prediction by ZEFSAII (Michael W. Deem and Ramdas Pophale) SiO2 
 PCOD8283843
Probable space group: F M M M
;
_chemical_formula_sum "Si O2"
_cell_formula_units_Z 128
_cell_length_a 20.099400
_cell_length_b 29.660546
_cell_length_c 14.176905
_cell_angle_alpha 90.000000
_cell_angle_beta 90.000000
_cell_angle_gamma 90.000000
_cell_volume 8451.692035
_symmetry_space_group_name_H-M "F M M M"
_symmetry_group_IT_number 69
_symmetry_cell_setting 'orthorhombic'
loop_
_space_group_symop_operation_xyz
x,y,z
-x,-y,z
x,-y,-z
-x,y,-z
-x,-y,-z
x,y,-z
-x,y,z
x,-y,z
x,1/2+y,1/2+z
-x,1/2-y,1/2+z
x,1/2-y,1/2-z
-x,1/2+y,1/2-z
-x,1/2-y,1/2-z
x,1/2+y,1/2-z
-x,1/2+y,1/2+z
x,1/2-y,1/2+z
1/2+x,y,1/2+z
1/2-x,-y,1/2+z
1/2+x,-y,1/2-z
1/2-x,y,1/2-z
1/2-x,-y,1/2-z
1/2+x,y,1/2-z
1/2-x,y,1/2+z
1/2+x,-y,1/2+z
1/2+x,1/2+y,z
1/2-x,1/2-y,z
1/2+x,1/2-y,-z
1/2-x,1/2+y,-z
1/2-x,1/2-y,-z
1/2+x,1/2+y,-z
1/2-x,1/2+y,z
1/2+x,1/2-y,z
loop_
_atom_site_type_symbol
_atom_site_label
_atom_site_fract_x
_atom_site_fract_y
_atom_site_fract_z
Si Si1 0.574764 0.696258 0.000000
Si Si2 0.821451 0.299558 0.208976
Si Si3 0.680631 0.725998 0.500000
Si Si4 0.578823 0.950565 0.394662
Si Si5 0.422974 0.359083 0.812456
O O1 0.620834 0.739257 0.000000
O O2 0.588833 0.665555 0.089320
O O3 0.500000 0.715017 0.000000
O O4 0.839469 0.250000 0.250000
O O5 0.750000 0.314505 0.250000
O O6 0.877891 0.335226 0.235056
O O7 0.821779 0.302810 0.095662
O O8 0.750000 0.750000 0.500000
O O9 0.608667 0.944125 0.500000
O O10 0.500000 0.947099 0.402991
O O11 0.602504 0.910769 0.324793
O O12 0.600022 0.000000 0.354882
O O13 0.500000 0.356628 0.780390
#
# Coordination Sequence:
#
# PCOD8283843 Si02
#       5
#    16  32  16  32  32
#     4  10  18  26  43  68  94 120 149 190 230 264
#     4  11  21  33  48  66  89 123 158 191 226 272
#     4  12  20  34  48  63  88 122 162 193 220 267
#     4   8  13  23  42  69  98 123 149 186 230 274
#     4  10  18  29  45  69  97 124 153 188 233 275
#
# _framework density 15.144895999999999
#
# number of rings (size 3 to 8) (size 9 to 14) (size 15 to 20)
#    0.000    2.000    6.250    0.750    0.000    1.500 
#    0.000    0.000    0.000    0.750    0.000    0.875 
#    0.000    4.000    0.000    0.000    0.000    0.000 
#
# Total GULP energy -396590.991229 kJ/mol
# GULP energy per Si atom -12393.468476 kJ/mol
# Density = 1.511043 g / cm^3
# Si number density = 15.144896 Si / 1000 Ang^3
#
#
#
# Elastic Constant Matrix: (Units=GPa)
#
#
# Indices 1 2 3 4 5 6 
#
# 1 69.5890 53.8015 42.7003 0.0000 0.0000 0.0000
# 2 53.8015 94.4207 50.4030 0.0000 0.0000 0.0000
# 3 42.7003 50.4030 112.2292 0.0000 0.0000 0.0000
# 4 0.0000 0.0000 0.0000 19.6785 0.0000 0.0000
# 5 0.0000 0.0000 0.0000 0.0000 28.0289 0.0000
# 6 0.0000 0.0000 0.0000 0.0000 0.0000 11.6142
#
#
#
# Elastic Compliance Matrix: (Units=1/GPa)
#
#
# Indices 1 2 3 4 5 6 
#
# 1 0.027291 -0.013164 -0.004472 0.000000 0.000000 0.000000
# 2 -0.013164 0.020280 -0.004099 0.000000 0.000000 0.000000
# 3 -0.004472 -0.004099 0.012453 0.000000 0.000000 0.000000
# 4 0.000000 0.000000 0.000000 0.050817 0.000000 0.000000
# 5 0.000000 0.000000 0.000000 0.000000 0.035677 0.000000
# 6 0.000000 0.000000 0.000000 0.000000 0.000000 0.086102
#
#
# Mechanical properties :
#
#
# Convention : Reuss Voigt Hill
#
# Bulk Modulus (GPa) = 60.40705 63.33871 61.87288
# Shear Modulus (GPa) = 17.75520 20.48659 19.12090
#
# Velocity S-wave (km/s) = 3.42768 3.68191 3.55707
# Velocity P-wave (km/s) = 7.45909 7.74518 7.60348
#
# Compressibility (1/GPa) = 0.01655436
#
# Stress axis : x y z
#
# Youngs Moduli (GPa) = 36.64193 49.30977 80.30315
#
# Poissons Ratio (x) = 0.64909 0.35909
# Poissons Ratio (y) = 0.48234 0.32920
# Poissons Ratio (z) = 0.16385 0.20214
#
# Static dielectric constant tensor:
#      x y z
#    x 2.802650 0.000000 0.000000 
#    y 0.000000 3.019660 0.000000 
#    z 0.000000 0.000000 2.973690 
# 
# 
# High freq. dielectric constant tensor:
#      x y z
#    x 1.561090 0.000000 0.000000 
#    y 0.000000 1.568770 0.000000 
#    z 0.000000 0.000000 1.565240 
# 
# From -- ./inp_files/15466.got.cif
#   From: 2010.03.12/outbox.cif.g09.slc.cpg/sg69_8_cif.got.tgz:15466.got - 2010.04.10 23:52:46.
