data_PCOD8284124
_publ_section_title
;
Structure prediction by ZEFSAII (Michael W. Deem and Ramdas Pophale) SiO2 
 PCOD8284124
Probable space group: F M M M
;
_chemical_formula_sum "Si O2"
_cell_formula_units_Z 176
_cell_length_a 14.419583
_cell_length_b 28.715335
_cell_length_c 26.930728
_cell_angle_alpha 90.000000
_cell_angle_beta 90.000000
_cell_angle_gamma 90.000000
_cell_volume 11151.022240
_symmetry_space_group_name_H-M "F M M M"
_symmetry_group_IT_number 69
_symmetry_cell_setting 'orthorhombic'
loop_
_space_group_symop_operation_xyz
x,y,z
-x,-y,z
x,-y,-z
-x,y,-z
-x,-y,-z
x,y,-z
-x,y,z
x,-y,z
x,1/2+y,1/2+z
-x,1/2-y,1/2+z
x,1/2-y,1/2-z
-x,1/2+y,1/2-z
-x,1/2-y,1/2-z
x,1/2+y,1/2-z
-x,1/2+y,1/2+z
x,1/2-y,1/2+z
1/2+x,y,1/2+z
1/2-x,-y,1/2+z
1/2+x,-y,1/2-z
1/2-x,y,1/2-z
1/2-x,-y,1/2-z
1/2+x,y,1/2-z
1/2-x,y,1/2+z
1/2+x,-y,1/2+z
1/2+x,1/2+y,z
1/2-x,1/2-y,z
1/2+x,1/2-y,-z
1/2-x,1/2+y,-z
1/2-x,1/2-y,-z
1/2+x,1/2+y,-z
1/2-x,1/2+y,z
1/2+x,1/2-y,z
loop_
_atom_site_type_symbol
_atom_site_label
_atom_site_fract_x
_atom_site_fract_y
_atom_site_fract_z
Si Si1 0.252861 0.698420 0.191085
Si Si2 0.109267 0.623243 0.321960
Si Si3 0.399349 0.946747 0.871583
Si Si4 0.896832 0.371854 0.208909
Si Si5 0.604318 0.055307 0.500000
Si Si6 0.199687 0.945238 0.099891
O O1 0.250000 0.703669 0.250000
O O2 0.250000 0.750000 0.166829
O O3 0.343629 0.673521 0.167379
O O4 0.163630 0.666474 0.179370
O O5 0.135210 0.614306 0.264378
O O6 0.155144 0.582284 0.354094
O O7 0.000000 0.625602 0.332884
O O8 0.500000 0.935500 0.897788
O O9 0.391375 0.919685 0.820354
O O10 0.310280 0.935404 0.905852
O O11 0.395801 0.000000 0.855520
O O12 0.000000 0.350720 0.211000
O O13 0.500000 0.074817 0.500000
O O14 0.655284 0.073951 0.450875
O O15 0.605822 0.000000 0.500000
O O16 0.178730 0.000000 0.108014
#
# Coordination Sequence:
#
# PCOD8284124 Si02
#       6
#    32  32  32  32  16  32
#     4   9  17  29  43  61  88 120 153 187 224 262
#     4  10  19  29  43  66  93 119 153 190 219 260
#     4   9  17  29  45  66  92 120 149 181 217 262
#     4   9  17  29  44  63  91 123 152 182 220 264
#     4   9  18  32  47  65  90 119 150 182 221 267
#     4  10  19  31  48  67  91 121 150 183 224 267
#
# _framework density 15.783306
#
# number of rings (size 3 to 8) (size 9 to 14) (size 15 to 20)
#    0.000    2.636    1.818    0.545    0.000    2.545 
#    0.000    7.727    0.000    2.727    0.000    0.636 
#    0.000    0.000    0.000    0.000    0.000    0.000 
#
# Total GULP energy -545118.589086 kJ/mol
# GULP energy per Si atom -12389.058843 kJ/mol
# Density = 1.574738 g / cm^3
# Si number density = 15.783306 Si / 1000 Ang^3
#
#
#
# Elastic Constant Matrix: (Units=GPa)
#
#
# Indices 1 2 3 4 5 6 
#
# 1 145.9763 51.0045 49.1901 0.0000 0.0000 0.0000
# 2 51.0045 70.8196 30.2801 0.0000 0.0000 0.0000
# 3 49.1901 30.2801 58.1511 0.0000 0.0000 0.0000
# 4 0.0000 0.0000 0.0000 2.0734 0.0000 0.0000
# 5 0.0000 0.0000 0.0000 0.0000 21.4935 0.0000
# 6 0.0000 0.0000 0.0000 0.0000 0.0000 18.8728
#
#
#
# Elastic Compliance Matrix: (Units=1/GPa)
#
#
# Indices 1 2 3 4 5 6 
#
# 1 0.010793 -0.004978 -0.006538 0.000000 0.000000 0.000000
# 2 -0.004978 0.020460 -0.006443 0.000000 0.000000 0.000000
# 3 -0.006538 -0.006443 0.026082 0.000000 0.000000 0.000000
# 4 0.000000 0.000000 0.000000 0.482297 0.000000 0.000000
# 5 0.000000 0.000000 0.000000 0.000000 0.046526 0.000000
# 6 0.000000 0.000000 0.000000 0.000000 0.000000 0.052986
#
#
# Mechanical properties :
#
#
# Convention : Reuss Voigt Hill
#
# Bulk Modulus (GPa) = 46.69053 59.54406 53.11729
# Shear Modulus (GPa) = 7.32923 18.11943 12.72433
#
# Velocity S-wave (km/s) = 2.15725 3.39191 2.84243
# Velocity P-wave (km/s) = 5.98761 7.29026 6.67081
#
# Compressibility (1/GPa) = 0.02141762
#
# Stress axis : x y z
#
# Youngs Moduli (GPa) = 92.65605 48.87530 38.34088
#
# Poissons Ratio (x) = 0.24328 0.25066
# Poissons Ratio (y) = 0.46121 0.24704
# Poissons Ratio (z) = 0.60574 0.31492
#
# Static dielectric constant tensor:
#      x y z
#    x 3.493090 0.000000 0.000000 
#    y 0.000000 3.030230 0.000000 
#    z 0.000000 0.000000 2.710060 
# 
# 
# High freq. dielectric constant tensor:
#      x y z
#    x 1.631750 0.000000 0.000000 
#    y 0.000000 1.588490 0.000000 
#    z 0.000000 0.000000 1.559900 
# 
# From -- ./inp_files/18058.got.cif
#   From: 2010.03.12/outbox.cif.g09.slc.cpg/sg69_10_cif.got.tgz:18058.got - 2010.04.10 23:52:46.
