data_PCOD8284349
_publ_section_title
;
Structure prediction by ZEFSAII (Michael W. Deem and Ramdas Pophale) SiO2 
 PCOD8284349
Probable space group: F M M M
;
_chemical_formula_sum "Si O2"
_cell_formula_units_Z 192
_cell_length_a 28.656619
_cell_length_b 15.425066
_cell_length_c 23.284554
_cell_angle_alpha 90.000000
_cell_angle_beta 90.000000
_cell_angle_gamma 90.000000
_cell_volume 10292.476979
_symmetry_space_group_name_H-M "F M M M"
_symmetry_group_IT_number 69
_symmetry_cell_setting 'orthorhombic'
loop_
_space_group_symop_operation_xyz
x,y,z
-x,-y,z
x,-y,-z
-x,y,-z
-x,-y,-z
x,y,-z
-x,y,z
x,-y,z
x,1/2+y,1/2+z
-x,1/2-y,1/2+z
x,1/2-y,1/2-z
-x,1/2+y,1/2-z
-x,1/2-y,1/2-z
x,1/2+y,1/2-z
-x,1/2+y,1/2+z
x,1/2-y,1/2+z
1/2+x,y,1/2+z
1/2-x,-y,1/2+z
1/2+x,-y,1/2-z
1/2-x,y,1/2-z
1/2-x,-y,1/2-z
1/2+x,y,1/2-z
1/2-x,y,1/2+z
1/2+x,-y,1/2+z
1/2+x,1/2+y,z
1/2-x,1/2-y,z
1/2+x,1/2-y,-z
1/2-x,1/2+y,-z
1/2-x,1/2-y,-z
1/2+x,1/2+y,-z
1/2-x,1/2+y,z
1/2+x,1/2-y,z
loop_
_atom_site_type_symbol
_atom_site_label
_atom_site_fract_x
_atom_site_fract_y
_atom_site_fract_z
Si Si1 0.000000 0.262468 0.564196
Si Si2 0.898143 0.597764 0.146742
Si Si3 0.100813 0.741116 0.431850
Si Si4 0.676630 0.599489 0.065436
Si Si5 0.176452 0.154738 0.732068
Si Si6 0.761784 0.902372 0.168596
Si Si7 0.500000 0.905122 0.123672
O O1 0.950372 0.292064 0.591467
O O2 0.000000 0.157769 0.568693
O O3 0.000000 0.296156 0.500000
O O4 0.888906 0.500000 0.122733
O O5 0.883051 0.670297 0.099783
O O6 0.868666 0.609090 0.204984
O O7 0.953247 0.609043 0.161996
O O8 0.098949 0.760435 0.500000
O O9 0.135032 0.662963 0.416422
O O10 0.660219 0.500000 0.075035
O O11 0.721221 0.621412 0.104738
O O12 0.692077 0.615498 0.000000
O O13 0.161098 0.250000 0.750000
O O14 0.194416 0.103228 0.787832
O O15 0.219184 0.160427 0.686043
O O16 0.742069 0.000000 0.170606
O O17 0.500000 0.000000 0.096050
#
# Coordination Sequence:
#
# PCOD8284349 Si02
#       7
#    16  32  32  32  32  32  16
#     4   8  14  25  43  67  96 130 169 213 253 293
#     4  10  19  33  52  75 103 134 169 208 254 303
#     4   9  17  30  48  72 102 135 172 212 254 301
#     4   9  18  33  53  76 103 135 169 207 255 308
#     4  11  21  33  51  74  99 128 165 208 249 294
#     4  10  19  33  52  73  97 128 168 208 248 292
#     4   8  16  29  47  70  97 131 167 205 250 301
#
# _framework density 18.654401
#
# number of rings (size 3 to 8) (size 9 to 14) (size 15 to 20)
#    0.000    2.500    0.000    4.000    0.000    0.500 
#    0.000    5.000    0.000    9.500    0.000    1.167 
#    0.000    0.000    0.000    0.000    0.000    0.000 
#
# Total GULP energy -594713.868263 kJ/mol
# GULP energy per Si atom -12389.872255 kJ/mol
# Density = 1.861194 g / cm^3
# Si number density = 18.654401 Si / 1000 Ang^3
#
#
#
# Elastic Constant Matrix: (Units=GPa)
#
#
# Indices 1 2 3 4 5 6 
#
# 1 73.1320 36.4997 41.6494 0.0000 0.0000 0.0000
# 2 36.4997 84.5614 32.2460 0.0000 0.0000 0.0000
# 3 41.6494 32.2460 67.5457 0.0000 0.0000 0.0000
# 4 0.0000 0.0000 0.0000 28.7492 0.0000 0.0000
# 5 0.0000 0.0000 0.0000 0.0000 25.9037 0.0000
# 6 0.0000 0.0000 0.0000 0.0000 0.0000 22.3278
#
#
#
# Elastic Compliance Matrix: (Units=1/GPa)
#
#
# Indices 1 2 3 4 5 6 
#
# 1 0.023010 -0.005528 -0.011549 0.000000 0.000000 0.000000
# 2 -0.005528 0.015786 -0.004127 0.000000 0.000000 0.000000
# 3 -0.011549 -0.004127 0.023897 0.000000 0.000000 0.000000
# 4 0.000000 0.000000 0.000000 0.034784 0.000000 0.000000
# 5 0.000000 0.000000 0.000000 0.000000 0.038604 0.000000
# 6 0.000000 0.000000 0.000000 0.000000 0.000000 0.044787
#
#
# Mechanical properties :
#
#
# Convention : Reuss Voigt Hill
#
# Bulk Modulus (GPa) = 49.30192 49.55882 49.43037
# Shear Modulus (GPa) = 21.73546 23.05240 22.39393
#
# Velocity S-wave (km/s) = 3.41715 3.51915 3.46853
# Velocity P-wave (km/s) = 6.48504 6.56788 6.52659
#
# Compressibility (1/GPa) = 0.02028319
#
# Stress axis : x y z
#
# Youngs Moduli (GPa) = 43.45869 63.34841 41.84673
#
# Poissons Ratio (x) = 0.35018 0.48331
# Poissons Ratio (y) = 0.24024 0.17272
# Poissons Ratio (z) = 0.50192 0.26147
#
# Static dielectric constant tensor:
#      x y z
#    x 3.571610 0.000000 0.000000 
#    y 0.000000 3.443200 0.000000 
#    z 0.000000 0.000000 3.272300 
# 
# 
# High freq. dielectric constant tensor:
#      x y z
#    x 1.724400 0.000000 0.000000 
#    y 0.000000 1.724610 0.000000 
#    z 0.000000 0.000000 1.697170 
# 
# From -- ./inp_files/38989.got.cif
#   From: 2010.03.12/outbox.cif.g09.slc.cpg/sg69_20_cif.got.tgz:38989.got - 2010.04.10 23:52:46.
