data_PCOD8284965
_publ_section_title
;
Structure prediction by ZEFSAII (Michael W. Deem and Ramdas Pophale) SiO2 
 PCOD8284965
Probable space group: F M M M
;
_chemical_formula_sum "Si O2"
_cell_formula_units_Z 192
_cell_length_a 26.775644
_cell_length_b 16.784020
_cell_length_c 22.024825
_cell_angle_alpha 90.000000
_cell_angle_beta 90.000000
_cell_angle_gamma 90.000000
_cell_volume 9898.021205
_symmetry_space_group_name_H-M "F M M M"
_symmetry_group_IT_number 69
_symmetry_cell_setting 'orthorhombic'
loop_
_space_group_symop_operation_xyz
x,y,z
-x,-y,z
x,-y,-z
-x,y,-z
-x,-y,-z
x,y,-z
-x,y,z
x,-y,z
x,1/2+y,1/2+z
-x,1/2-y,1/2+z
x,1/2-y,1/2-z
-x,1/2+y,1/2-z
-x,1/2-y,1/2-z
x,1/2+y,1/2-z
-x,1/2+y,1/2+z
x,1/2-y,1/2+z
1/2+x,y,1/2+z
1/2-x,-y,1/2+z
1/2+x,-y,1/2-z
1/2-x,y,1/2-z
1/2-x,-y,1/2-z
1/2+x,y,1/2-z
1/2-x,y,1/2+z
1/2+x,-y,1/2+z
1/2+x,1/2+y,z
1/2-x,1/2-y,z
1/2+x,1/2-y,-z
1/2-x,1/2+y,-z
1/2-x,1/2-y,-z
1/2+x,1/2+y,-z
1/2-x,1/2+y,z
1/2+x,1/2-y,z
loop_
_atom_site_type_symbol
_atom_site_label
_atom_site_fract_x
_atom_site_fract_y
_atom_site_fract_z
Si Si1 0.500000 0.587415 0.428211
Si Si2 0.331794 0.408758 0.359614
Si Si3 0.440604 0.846440 0.359165
Si Si4 0.092475 0.691318 0.928143
Si Si5 0.137926 0.594569 0.722938
Si Si6 0.236876 0.158471 0.182139
Si Si7 0.558810 0.000000 0.566309
O O1 0.500000 0.500000 0.398066
O O2 0.500000 0.580571 0.500000
O O3 0.548923 0.632654 0.406048
O O4 0.343829 0.500000 0.376148
O O5 0.355914 0.350702 0.409590
O O6 0.352546 0.384757 0.293197
O O7 0.271939 0.394718 0.361722
O O8 0.500000 0.836362 0.350800
O O9 0.415917 0.772400 0.392597
O O10 0.414891 0.863460 0.293886
O O11 0.424259 0.921563 0.399050
O O12 0.091452 0.707951 0.000000
O O13 0.137342 0.500000 0.712574
O O14 0.178597 0.635075 0.676797
O O15 0.250000 0.133446 0.250000
O O16 0.250000 0.250000 0.168499
O O17 0.500000 0.000000 0.559653
O O18 0.584093 0.000000 0.500000
#
# Coordination Sequence:
#
# PCOD8284965 Si02
#       7
#    16  32  32  32  32  32  16
#     4   9  18  34  54  74 103 143 191 239 279 327
#     4  10  21  37  58  87 118 154 198 240 291 352
#     4  11  21  36  57  83 117 152 189 241 296 350
#     4  11  22  37  58  84 113 149 199 249 288 338
#     4  10  20  36  58  86 120 155 192 237 292 356
#     4   9  17  32  57  86 115 148 192 239 284 345
#     4   9  18  32  54  78 103 144 189 225 272 338
#
# _framework density 19.397817
#
# number of rings (size 3 to 8) (size 9 to 14) (size 15 to 20)
#    0.000    2.000    1.667    2.500    0.000    5.667 
#    1.500    0.833    0.000    5.500    0.000    0.000 
#    0.000    0.000    0.000    0.000    0.000    0.000 
#
# Total GULP energy -595037.722915 kJ/mol
# GULP energy per Si atom -12396.619227 kJ/mol
# Density = 1.935367 g / cm^3
# Si number density = 19.397817 Si / 1000 Ang^3
#
#
#
# Elastic Constant Matrix: (Units=GPa)
#
#
# Indices 1 2 3 4 5 6 
#
# 1 72.9942 17.4220 12.5305 0.0000 0.0000 0.0000
# 2 17.4220 105.1469 10.6165 0.0000 0.0000 0.0000
# 3 12.5305 10.6165 34.5819 0.0000 0.0000 0.0000
# 4 0.0000 0.0000 0.0000 17.3288 0.0000 0.0000
# 5 0.0000 0.0000 0.0000 0.0000 26.6215 0.0000
# 6 0.0000 0.0000 0.0000 0.0000 0.0000 33.5087
#
#
#
# Elastic Compliance Matrix: (Units=1/GPa)
#
#
# Indices 1 2 3 4 5 6 
#
# 1 0.015005 -0.001999 -0.004823 0.000000 0.000000 0.000000
# 2 -0.001999 0.010081 -0.002370 0.000000 0.000000 0.000000
# 3 -0.004823 -0.002370 0.031392 0.000000 0.000000 0.000000
# 4 0.000000 0.000000 0.000000 0.057707 0.000000 0.000000
# 5 0.000000 0.000000 0.000000 0.000000 0.037564 0.000000
# 6 0.000000 0.000000 0.000000 0.000000 0.000000 0.029843
#
#
# Mechanical properties :
#
#
# Convention : Reuss Voigt Hill
#
# Bulk Modulus (GPa) = 26.25187 32.65124 29.45156
# Shear Modulus (GPa) = 23.51002 26.96873 25.23938
#
# Velocity S-wave (km/s) = 3.48515 3.73271 3.61105
# Velocity P-wave (km/s) = 5.45507 5.95370 5.70983
#
# Compressibility (1/GPa) = 0.03809252
#
# Stress axis : x y z
#
# Youngs Moduli (GPa) = 66.64513 99.19557 31.85500
#
# Poissons Ratio (x) = 0.19831 0.15364
# Poissons Ratio (y) = 0.13324 0.07551
# Poissons Ratio (z) = 0.32144 0.23514
#
# Static dielectric constant tensor:
#      x y z
#    x 3.661020 0.000000 0.000000 
#    y 0.000000 3.680050 0.000000 
#    z 0.000000 0.000000 3.304010 
# 
# 
# High freq. dielectric constant tensor:
#      x y z
#    x 1.753140 0.000000 0.000000 
#    y 0.000000 1.773020 0.000000 
#    z 0.000000 0.000000 1.718750 
# 
# From -- ./inp_files/38387.got.cif
#   From: 2010.03.12/outbox.cif.g09.slc.cpg/sg69_20_cif.got.tgz:38387.got - 2010.04.10 23:52:46.
