data_PCOD8284608
_publ_section_title
;
Structure prediction by ZEFSAII (Michael W. Deem and Ramdas Pophale) SiO2 
 PCOD8284608
Probable space group: F M M M
;
_chemical_formula_sum "Si O2"
_cell_formula_units_Z 176
_cell_length_a 14.017408
_cell_length_b 28.535792
_cell_length_c 23.130538
_cell_angle_alpha 90.000000
_cell_angle_beta 90.000000
_cell_angle_gamma 90.000000
_cell_volume 9252.165216
_symmetry_space_group_name_H-M "F M M M"
_symmetry_group_IT_number 69
_symmetry_cell_setting 'orthorhombic'
loop_
_space_group_symop_operation_xyz
x,y,z
-x,-y,z
x,-y,-z
-x,y,-z
-x,-y,-z
x,y,-z
-x,y,z
x,-y,z
x,1/2+y,1/2+z
-x,1/2-y,1/2+z
x,1/2-y,1/2-z
-x,1/2+y,1/2-z
-x,1/2-y,1/2-z
x,1/2+y,1/2-z
-x,1/2+y,1/2+z
x,1/2-y,1/2+z
1/2+x,y,1/2+z
1/2-x,-y,1/2+z
1/2+x,-y,1/2-z
1/2-x,y,1/2-z
1/2-x,-y,1/2-z
1/2+x,y,1/2-z
1/2-x,y,1/2+z
1/2+x,-y,1/2+z
1/2+x,1/2+y,z
1/2-x,1/2-y,z
1/2+x,1/2-y,-z
1/2-x,1/2+y,-z
1/2-x,1/2-y,-z
1/2+x,1/2+y,-z
1/2-x,1/2+y,z
1/2+x,1/2-y,z
loop_
_atom_site_type_symbol
_atom_site_label
_atom_site_fract_x
_atom_site_fract_y
_atom_site_fract_z
Si Si1 0.607807 0.329660 0.657631
Si Si2 0.394707 0.906683 0.066026
Si Si3 0.609757 0.222612 0.343039
Si Si4 0.202430 0.050488 0.067474
Si Si5 0.250000 0.313020 0.750000
Si Si6 0.612498 0.645328 0.065433
O O1 0.500000 0.338174 0.680495
O O2 0.630421 0.360615 0.602122
O O3 0.621040 0.276114 0.636700
O O4 0.682868 0.344137 0.707997
O O5 0.500000 0.926779 0.081200
O O6 0.316226 0.946263 0.078738
O O7 0.389483 0.890123 0.000000
O O8 0.500000 0.211134 0.326313
O O9 0.676637 0.218336 0.287166
O O10 0.646322 0.188133 0.393962
O O11 0.149447 0.096118 0.093334
O O12 0.169124 0.000000 0.094276
O O13 0.178709 0.049650 0.000000
O O14 0.500000 0.642984 0.063713
O O15 0.652631 0.652739 0.000000
#
# Coordination Sequence:
#
# PCOD8284608 Si02
#       6
#    32  32  32  32  16  32
#     4  10  20  32  48  71  97 127 162 196 232 277
#     4   9  18  32  49  71  99 127 156 192 234 282
#     4  10  20  32  48  71  97 127 162 196 232 277
#     4   9  17  29  46  69  97 127 157 190 231 281
#     4  12  21  32  48  66  95 132 165 200 236 268
#     4   9  18  32  49  71  99 127 156 192 234 282
#
# _framework density 19.022575
#
# number of rings (size 3 to 8) (size 9 to 14) (size 15 to 20)
#    0.000    2.364    0.000    3.273    0.000    2.909 
#    0.000    7.273    0.000    5.455    0.000   10.182 
#    0.000   23.273    0.000    0.000    0.000    0.000 
#
# Total GULP energy -545251.552300 kJ/mol
# GULP energy per Si atom -12392.080734 kJ/mol
# Density = 1.897928 g / cm^3
# Si number density = 19.022575 Si / 1000 Ang^3
#
#
#
# Elastic Constant Matrix: (Units=GPa)
#
#
# Indices 1 2 3 4 5 6 
#
# 1 46.8760 27.3078 28.6180 0.0000 0.0000 0.0000
# 2 27.3078 85.7790 41.1296 0.0000 0.0000 0.0000
# 3 28.6180 41.1296 67.5787 0.0000 0.0000 0.0000
# 4 0.0000 0.0000 0.0000 6.9503 0.0000 0.0000
# 5 0.0000 0.0000 0.0000 0.0000 28.7084 0.0000
# 6 0.0000 0.0000 0.0000 0.0000 0.0000 14.4457
#
#
#
# Elastic Compliance Matrix: (Units=1/GPa)
#
#
# Indices 1 2 3 4 5 6 
#
# 1 0.030169 -0.004912 -0.009786 0.000000 0.000000 0.000000
# 2 -0.004912 0.017262 -0.008426 0.000000 0.000000 0.000000
# 3 -0.009786 -0.008426 0.024070 0.000000 0.000000 0.000000
# 4 0.000000 0.000000 0.000000 0.143879 0.000000 0.000000
# 5 0.000000 0.000000 0.000000 0.000000 0.034833 0.000000
# 6 0.000000 0.000000 0.000000 0.000000 0.000000 0.069225
#
#
# Mechanical properties :
#
#
# Convention : Reuss Voigt Hill
#
# Bulk Modulus (GPa) = 39.59995 43.81606 41.70800
# Shear Modulus (GPa) = 13.36534 16.89943 15.13239
#
# Velocity S-wave (km/s) = 2.65354 2.98382 2.82351
# Velocity P-wave (km/s) = 5.50008 5.91224 5.70988
#
# Compressibility (1/GPa) = 0.02525256
#
# Stress axis : x y z
#
# Youngs Moduli (GPa) = 33.14668 57.93232 41.54575
#
# Poissons Ratio (x) = 0.28456 0.40658
# Poissons Ratio (y) = 0.16281 0.35005
# Poissons Ratio (z) = 0.32439 0.48812
#
# Static dielectric constant tensor:
#      x y z
#    x 3.888410 0.000000 0.000000 
#    y 0.000000 3.451790 0.000000 
#    z 0.000000 0.000000 3.429550 
# 
# 
# High freq. dielectric constant tensor:
#      x y z
#    x 1.762760 0.000000 0.000000 
#    y 0.000000 1.717470 0.000000 
#    z 0.000000 0.000000 1.705500 
# 
# From -- ./inp_files/18092.got.cif
#   From: 2010.03.12/outbox.cif.g09.slc.cpg/sg69_10_cif.got.tgz:18092.got - 2010.04.10 23:52:46.
