data_PCOD8284887
_publ_section_title
;
Structure prediction by ZEFSAII (Michael W. Deem and Ramdas Pophale) SiO2 
 PCOD8284887
Probable space group: F M M M
;
_chemical_formula_sum "Si O2"
_cell_formula_units_Z 144
_cell_length_a 23.160634
_cell_length_b 18.257954
_cell_length_c 17.368679
_cell_angle_alpha 90.000000
_cell_angle_beta 90.000000
_cell_angle_gamma 90.000000
_cell_volume 7344.620170
_symmetry_space_group_name_H-M "F M M M"
_symmetry_group_IT_number 69
_symmetry_cell_setting 'orthorhombic'
loop_
_space_group_symop_operation_xyz
x,y,z
-x,-y,z
x,-y,-z
-x,y,-z
-x,-y,-z
x,y,-z
-x,y,z
x,-y,z
x,1/2+y,1/2+z
-x,1/2-y,1/2+z
x,1/2-y,1/2-z
-x,1/2+y,1/2-z
-x,1/2-y,1/2-z
x,1/2+y,1/2-z
-x,1/2+y,1/2+z
x,1/2-y,1/2+z
1/2+x,y,1/2+z
1/2-x,-y,1/2+z
1/2+x,-y,1/2-z
1/2-x,y,1/2-z
1/2-x,-y,1/2-z
1/2+x,y,1/2-z
1/2-x,y,1/2+z
1/2+x,-y,1/2+z
1/2+x,1/2+y,z
1/2-x,1/2-y,z
1/2+x,1/2-y,-z
1/2-x,1/2+y,-z
1/2-x,1/2-y,-z
1/2+x,1/2+y,-z
1/2-x,1/2+y,z
1/2+x,1/2-y,z
loop_
_atom_site_type_symbol
_atom_site_label
_atom_site_fract_x
_atom_site_fract_y
_atom_site_fract_z
Si Si1 0.936448 0.167208 0.723307
Si Si2 0.745364 0.082694 0.088523
Si Si3 0.568069 0.084422 0.500000
Si Si4 0.139562 0.144863 0.862032
Si Si5 0.142811 0.691687 0.909330
O O1 0.942769 0.250000 0.750000
O O2 0.890643 0.129121 0.780195
O O3 0.913520 0.162296 0.635646
O O4 0.000000 0.129660 0.726366
O O5 0.802854 0.096236 0.137988
O O6 0.695595 0.138758 0.112016
O O7 0.723318 0.000000 0.102851
O O8 0.763156 0.095105 0.000000
O O9 0.500000 0.095601 0.500000
O O10 0.592903 0.122948 0.425174
O O11 0.586440 0.000000 0.500000
O O12 0.159043 0.228379 0.877291
O O13 0.129262 0.692274 0.000000
#
# Coordination Sequence:
#
# PCOD8284887 Si02
#       5
#    32  32  16  32  32
#     4   9  20  36  54  82 117 147 187 241 287 331
#     4  10  20  35  57  83 116 149 185 237 291 344
#     4  11  22  34  53  86 123 155 187 224 278 350
#     4  11  19  35  58  83 115 152 189 232 285 342
#     4  10  20  36  58  86 111 148 197 241 280 336
#
# _framework density 19.606188
#
# number of rings (size 3 to 8) (size 9 to 14) (size 15 to 20)
#    0.000    1.889    2.222    2.000    0.000    4.000 
#    0.000    6.667    0.000    3.333    0.000    3.111 
#    0.000    0.000    0.000    0.000    0.000    0.000 
#
# Total GULP energy -446423.109792 kJ/mol
# GULP energy per Si atom -12400.641939 kJ/mol
# Density = 1.956156 g / cm^3
# Si number density = 19.606188 Si / 1000 Ang^3
#
#
#
# Elastic Constant Matrix: (Units=GPa)
#
#
# Indices 1 2 3 4 5 6 
#
# 1 125.8733 41.1934 46.1416 0.0000 0.0000 0.0000
# 2 41.1934 88.0468 10.9351 0.0000 0.0000 0.0000
# 3 46.1416 10.9351 92.2072 0.0000 0.0000 0.0000
# 4 0.0000 0.0000 0.0000 7.3382 0.0000 0.0000
# 5 0.0000 0.0000 0.0000 0.0000 22.9129 0.0000
# 6 0.0000 0.0000 0.0000 0.0000 0.0000 23.6538
#
#
#
# Elastic Compliance Matrix: (Units=1/GPa)
#
#
# Indices 1 2 3 4 5 6 
#
# 1 0.011354 -0.004675 -0.005127 0.000000 0.000000 0.000000
# 2 -0.004675 0.013453 0.000744 0.000000 0.000000 0.000000
# 3 -0.005127 0.000744 0.013323 0.000000 0.000000 0.000000
# 4 0.000000 0.000000 0.000000 0.136274 0.000000 0.000000
# 5 0.000000 0.000000 0.000000 0.000000 0.043644 0.000000
# 6 0.000000 0.000000 0.000000 0.000000 0.000000 0.042277
#
#
# Mechanical properties :
#
#
# Convention : Reuss Voigt Hill
#
# Bulk Modulus (GPa) = 49.96870 55.85195 52.91032
# Shear Modulus (GPa) = 17.53704 24.63812 21.08758
#
# Velocity S-wave (km/s) = 2.99400 3.54877 3.28313
# Velocity P-wave (km/s) = 6.12320 6.73353 6.43561
#
# Compressibility (1/GPa) = 0.02001253
#
# Stress axis : x y z
#
# Youngs Moduli (GPa) = 88.07431 74.33539 75.06032
#
# Poissons Ratio (x) = 0.34754 0.38485
# Poissons Ratio (y) = 0.41177 -0.05586
# Poissons Ratio (z) = 0.45158 -0.05532
#
# Static dielectric constant tensor:
#      x y z
#    x 3.664640 0.000000 0.000000 
#    y 0.000000 3.489730 0.000000 
#    z 0.000000 0.000000 3.647500 
# 
# 
# High freq. dielectric constant tensor:
#      x y z
#    x 1.769910 0.000000 0.000000 
#    y 0.000000 1.746870 0.000000 
#    z 0.000000 0.000000 1.759350 
# 
# From -- ./inp_files/22842.got.cif
#   From: 2010.03.12/outbox.cif.g09.slc.cpg/sg69_12_cif.got.tgz:22842.got - 2010.04.10 23:52:46.
