data_PCOD8284300
_publ_section_title
;
Structure prediction by ZEFSAII (Michael W. Deem and Ramdas Pophale) SiO2 
 PCOD8284300
Probable space group: F M M M
;
_chemical_formula_sum "Si O2"
_cell_formula_units_Z 160
_cell_length_a 17.887770
_cell_length_b 22.632908
_cell_length_c 21.482140
_cell_angle_alpha 90.000000
_cell_angle_beta 90.000000
_cell_angle_gamma 90.000000
_cell_volume 8697.092773
_symmetry_space_group_name_H-M "F M M M"
_symmetry_group_IT_number 69
_symmetry_cell_setting 'orthorhombic'
loop_
_space_group_symop_operation_xyz
x,y,z
-x,-y,z
x,-y,-z
-x,y,-z
-x,-y,-z
x,y,-z
-x,y,z
x,-y,z
x,1/2+y,1/2+z
-x,1/2-y,1/2+z
x,1/2-y,1/2-z
-x,1/2+y,1/2-z
-x,1/2-y,1/2-z
x,1/2+y,1/2-z
-x,1/2+y,1/2+z
x,1/2-y,1/2+z
1/2+x,y,1/2+z
1/2-x,-y,1/2+z
1/2+x,-y,1/2-z
1/2-x,y,1/2-z
1/2-x,-y,1/2-z
1/2+x,y,1/2-z
1/2-x,y,1/2+z
1/2+x,-y,1/2+z
1/2+x,1/2+y,z
1/2-x,1/2-y,z
1/2+x,1/2-y,-z
1/2-x,1/2+y,-z
1/2-x,1/2-y,-z
1/2+x,1/2+y,-z
1/2-x,1/2+y,z
1/2+x,1/2-y,z
loop_
_atom_site_type_symbol
_atom_site_label
_atom_site_fract_x
_atom_site_fract_y
_atom_site_fract_z
Si Si1 0.220953 0.568217 0.928509
Si Si2 0.700080 0.843164 0.344355
Si Si3 0.917657 0.354454 0.896399
Si Si4 0.848679 0.186352 0.720149
Si Si5 0.414810 0.275571 0.069272
O O1 0.217521 0.500000 0.910065
O O2 0.282644 0.598552 0.884326
O O3 0.139610 0.595505 0.917308
O O4 0.245182 0.577087 0.000000
O O5 0.776375 0.808833 0.325644
O O6 0.662020 0.859343 0.277882
O O7 0.644810 0.801663 0.383149
O O8 0.914808 0.338545 0.822571
O O9 0.902546 0.294679 0.934572
O O10 0.000000 0.379418 0.910763
O O11 0.866647 0.250000 0.750000
O O12 0.500000 0.290110 0.090961
O O13 0.400687 0.301129 0.000000
#
# Coordination Sequence:
#
# PCOD8284300 Si02
#       5
#    32  32  32  32  32
#     4  10  22  38  56  77 101 139 185 222 263 308
#     4  10  19  33  54  77 106 136 173 223 263 310
#     4  10  21  35  52  78 110 142 175 211 258 317
#     4  10  19  32  52  80 110 139 172 208 260 323
#     4  10  20  32  50  79 111 140 170 211 269 326
#
# _framework density 18.396951999999999
#
# number of rings (size 3 to 8) (size 9 to 14) (size 15 to 20)
#    0.000    2.000    2.000    2.400    2.800    2.800 
#    0.000   12.000    0.000    0.600    0.000    2.800 
#    0.000    0.000    0.000    0.000    0.000    0.000 
#
# Total GULP energy -495722.891347 kJ/mol
# GULP energy per Si atom -12393.072284 kJ/mol
# Density = 1.835508 g / cm^3
# Si number density = 18.396952 Si / 1000 Ang^3
#
#
#
# Elastic Constant Matrix: (Units=GPa)
#
#
# Indices 1 2 3 4 5 6 
#
# 1 69.5666 35.3174 40.5973 0.0000 0.0000 0.0000
# 2 35.3174 90.1239 41.7468 0.0000 0.0000 0.0000
# 3 40.5973 41.7468 117.8444 0.0000 0.0000 0.0000
# 4 0.0000 0.0000 0.0000 24.9770 0.0000 0.0000
# 5 0.0000 0.0000 0.0000 0.0000 20.9932 0.0000
# 6 0.0000 0.0000 0.0000 0.0000 0.0000 17.6072
#
#
#
# Elastic Compliance Matrix: (Units=1/GPa)
#
#
# Indices 1 2 3 4 5 6 
#
# 1 0.020095 -0.005585 -0.004944 0.000000 0.000000 0.000000
# 2 -0.005585 0.014826 -0.003328 0.000000 0.000000 0.000000
# 3 -0.004944 -0.003328 0.011368 0.000000 0.000000 0.000000
# 4 0.000000 0.000000 0.000000 0.040037 0.000000 0.000000
# 5 0.000000 0.000000 0.000000 0.000000 0.047635 0.000000
# 6 0.000000 0.000000 0.000000 0.000000 0.000000 0.056795
#
#
# Mechanical properties :
#
#
# Convention : Reuss Voigt Hill
#
# Bulk Modulus (GPa) = 53.83607 56.98422 55.41015
# Shear Modulus (GPa) = 22.25565 23.37371 22.81468
#
# Velocity S-wave (km/s) = 3.48191 3.56830 3.52537
# Velocity P-wave (km/s) = 6.74478 6.92958 6.83781
#
# Compressibility (1/GPa) = 0.01857491
#
# Stress axis : x y z
#
# Youngs Moduli (GPa) = 49.76284 67.44913 87.96469
#
# Poissons Ratio (x) = 0.37667 0.43494
# Poissons Ratio (y) = 0.27790 0.29277
# Poissons Ratio (z) = 0.24605 0.22449
#
# Static dielectric constant tensor:
#      x y z
#    x 3.404130 0.000000 0.000000 
#    y 0.000000 3.023620 0.000000 
#    z 0.000000 0.000000 3.954700 
# 
# 
# High freq. dielectric constant tensor:
#      x y z
#    x 1.705090 0.000000 0.000000 
#    y 0.000000 1.668350 0.000000 
#    z 0.000000 0.000000 1.739380 
# 
# From -- ./inp_files/30798.got.cif
#   From: 2010.03.12/outbox.cif.g09.slc.cpg/sg69_16_cif.got.tgz:30798.got - 2010.04.10 23:52:46.
