data_PCOD8284834
_publ_section_title
;
Structure prediction by ZEFSAII (Michael W. Deem and Ramdas Pophale) SiO2 
 PCOD8284834
Probable space group: F M M M
;
_chemical_formula_sum "Si O2"
_cell_formula_units_Z 176
_cell_length_a 24.656806
_cell_length_b 18.614364
_cell_length_c 18.881818
_cell_angle_alpha 90.000000
_cell_angle_beta 90.000000
_cell_angle_gamma 90.000000
_cell_volume 8666.202395
_symmetry_space_group_name_H-M "F M M M"
_symmetry_group_IT_number 69
_symmetry_cell_setting 'orthorhombic'
loop_
_space_group_symop_operation_xyz
x,y,z
-x,-y,z
x,-y,-z
-x,y,-z
-x,-y,-z
x,y,-z
-x,y,z
x,-y,z
x,1/2+y,1/2+z
-x,1/2-y,1/2+z
x,1/2-y,1/2-z
-x,1/2+y,1/2-z
-x,1/2-y,1/2-z
x,1/2+y,1/2-z
-x,1/2+y,1/2+z
x,1/2-y,1/2+z
1/2+x,y,1/2+z
1/2-x,-y,1/2+z
1/2+x,-y,1/2-z
1/2-x,y,1/2-z
1/2-x,-y,1/2-z
1/2+x,y,1/2-z
1/2-x,y,1/2+z
1/2+x,-y,1/2+z
1/2+x,1/2+y,z
1/2-x,1/2-y,z
1/2+x,1/2-y,-z
1/2-x,1/2+y,-z
1/2-x,1/2-y,-z
1/2+x,1/2+y,-z
1/2-x,1/2+y,z
1/2+x,1/2-y,z
loop_
_atom_site_type_symbol
_atom_site_label
_atom_site_fract_x
_atom_site_fract_y
_atom_site_fract_z
Si Si1 0.343126 0.634563 0.918938
Si Si2 0.435628 0.000000 0.921051
Si Si3 0.562718 0.362900 0.335077
Si Si4 0.730389 0.919955 0.083829
Si Si5 0.149250 0.202225 0.418676
Si Si6 0.437977 0.584029 0.180168
O O1 0.291630 0.591634 0.887154
O O2 0.326593 0.718217 0.912836
O O3 0.397775 0.614192 0.878440
O O4 0.354439 0.613230 0.000000
O O5 0.415107 0.069116 0.879245
O O6 0.500000 0.000000 0.924215
O O7 0.410078 0.000000 0.000000
O O8 0.500000 0.347713 0.349689
O O9 0.596488 0.296986 0.367561
O O10 0.573912 0.373584 0.252529
O O11 0.691083 0.857221 0.112368
O O12 0.710285 0.000000 0.106639
O O13 0.733240 0.912275 0.000000
O O14 0.133016 0.184812 0.500000
O O15 0.500000 0.597603 0.155600
O O16 0.428359 0.500000 0.194062
#
# Coordination Sequence:
#
# PCOD8284834 Si02
#       6
#    32  16  32  32  32  32
#     4  10  21  38  58  82 114 151 189 235 288 336
#     4   9  16  28  50  78 106 141 181 221 268 323
#     4  10  20  35  54  79 115 153 185 225 280 338
#     4   9  18  34  58  85 111 143 186 236 288 340
#     4  10  21  35  56  86 118 149 185 231 281 342
#     4  10  21  38  59  82 111 149 194 240 285 335
#
# _framework density 20.308779999999999
#
# number of rings (size 3 to 8) (size 9 to 14) (size 15 to 20)
#    0.000    2.273    0.909    1.636    1.273    6.182 
#    0.000    5.455    0.000    4.364    0.000    0.000 
#    0.000    0.000    0.000    0.000    0.000    0.000 
#
# Total GULP energy -545530.366751 kJ/mol
# GULP energy per Si atom -12398.417426 kJ/mol
# Density = 2.026256 g / cm^3
# Si number density = 20.308780 Si / 1000 Ang^3
#
#
#
# Elastic Constant Matrix: (Units=GPa)
#
#
# Indices 1 2 3 4 5 6 
#
# 1 94.1256 28.5930 42.7702 0.0000 0.0000 0.0000
# 2 28.5930 65.4025 12.9462 0.0000 0.0000 0.0000
# 3 42.7702 12.9462 64.9363 0.0000 0.0000 0.0000
# 4 0.0000 0.0000 0.0000 24.1568 0.0000 0.0000
# 5 0.0000 0.0000 0.0000 0.0000 20.1556 0.0000
# 6 0.0000 0.0000 0.0000 0.0000 0.0000 33.6424
#
#
#
# Elastic Compliance Matrix: (Units=1/GPa)
#
#
# Indices 1 2 3 4 5 6 
#
# 1 0.016794 -0.005364 -0.009992 0.000000 0.000000 0.000000
# 2 -0.005364 0.017632 0.000018 0.000000 0.000000 0.000000
# 3 -0.009992 0.000018 0.021977 0.000000 0.000000 0.000000
# 4 0.000000 0.000000 0.000000 0.041396 0.000000 0.000000
# 5 0.000000 0.000000 0.000000 0.000000 0.049614 0.000000
# 6 0.000000 0.000000 0.000000 0.000000 0.000000 0.029724
#
#
# Mechanical properties :
#
#
# Convention : Reuss Voigt Hill
#
# Bulk Modulus (GPa) = 38.87038 43.67589 41.27314
# Shear Modulus (GPa) = 23.10660 24.93464 24.02062
#
# Velocity S-wave (km/s) = 3.37673 3.50777 3.44287
# Velocity P-wave (km/s) = 5.86382 6.16105 6.01427
#
# Compressibility (1/GPa) = 0.02572653
#
# Stress axis : x y z
#
# Youngs Moduli (GPa) = 59.54584 56.71661 45.50175
#
# Poissons Ratio (x) = 0.30424 0.45464
# Poissons Ratio (y) = 0.31941 -0.00082
# Poissons Ratio (z) = 0.59497 -0.00102
#
# Static dielectric constant tensor:
#      x y z
#    x 3.682630 0.000000 0.000000 
#    y 0.000000 3.739070 0.000000 
#    z 0.000000 0.000000 3.412270 
# 
# 
# High freq. dielectric constant tensor:
#      x y z
#    x 1.796540 0.000000 0.000000 
#    y 0.000000 1.797120 0.000000 
#    z 0.000000 0.000000 1.762320 
# 
# From -- ./inp_files/26778.got.cif
#   From: 2010.03.12/outbox.cif.g09.slc.cpg/sg69_14_cif.got.tgz:26778.got - 2010.04.10 23:52:46.
