data_PCOD8284119
_publ_section_title
;
Structure prediction by ZEFSAII (Michael W. Deem and Ramdas Pophale) SiO2 
 PCOD8284119
Probable space group: F M M M
;
_chemical_formula_sum "Si O2"
_cell_formula_units_Z 144
_cell_length_a 26.322568
_cell_length_b 13.543846
_cell_length_c 25.567085
_cell_angle_alpha 90.000000
_cell_angle_beta 90.000000
_cell_angle_gamma 90.000000
_cell_volume 9114.890980
_symmetry_space_group_name_H-M "F M M M"
_symmetry_group_IT_number 69
_symmetry_cell_setting 'orthorhombic'
loop_
_space_group_symop_operation_xyz
x,y,z
-x,-y,z
x,-y,-z
-x,y,-z
-x,-y,-z
x,y,-z
-x,y,z
x,-y,z
x,1/2+y,1/2+z
-x,1/2-y,1/2+z
x,1/2-y,1/2-z
-x,1/2+y,1/2-z
-x,1/2-y,1/2-z
x,1/2+y,1/2-z
-x,1/2+y,1/2+z
x,1/2-y,1/2+z
1/2+x,y,1/2+z
1/2-x,-y,1/2+z
1/2+x,-y,1/2-z
1/2-x,y,1/2-z
1/2-x,-y,1/2-z
1/2+x,y,1/2-z
1/2-x,y,1/2+z
1/2+x,-y,1/2+z
1/2+x,1/2+y,z
1/2-x,1/2-y,z
1/2+x,1/2-y,-z
1/2-x,1/2+y,-z
1/2-x,1/2-y,-z
1/2+x,1/2+y,-z
1/2-x,1/2+y,z
1/2+x,1/2-y,z
loop_
_atom_site_type_symbol
_atom_site_label
_atom_site_fract_x
_atom_site_fract_y
_atom_site_fract_z
Si Si1 0.944881 0.883934 0.792807
Si Si2 0.154662 0.384295 0.236440
Si Si3 0.057457 0.382824 0.500000
Si Si4 0.112934 0.616736 0.604546
Si Si5 0.806839 0.275249 0.333820
O O1 0.903082 0.851979 0.750269
O O2 0.927111 0.854060 0.850723
O O3 0.000000 0.835023 0.781007
O O4 0.950341 0.000000 0.790689
O O5 0.161515 0.500000 0.227865
O O6 0.191317 0.350292 0.284223
O O7 0.167517 0.328491 0.182899
O O8 0.053600 0.500000 0.500000
O O9 0.088690 0.346246 0.449595
O O10 0.000000 0.339123 0.500000
O O11 0.125073 0.500000 0.604126
O O12 0.165001 0.676163 0.616313
O O13 0.750000 0.250000 0.351109
#
# Coordination Sequence:
#
# PCOD8284119 Si02
#       5
#    32  32  16  32  32
#     4   8  13  23  39  58  83 111 133 162 207 252
#     4   9  17  28  42  61  86 116 150 181 207 247
#     4   9  16  28  49  72  91 111 134 169 220 272
#     4   9  17  29  44  64  88 110 137 173 216 266
#     4  10  19  29  41  60  86 116 149 180 212 248
#
# _framework density 15.798323999999999
#
# number of rings (size 3 to 8) (size 9 to 14) (size 15 to 20)
#    0.000    3.000    0.000    4.000    0.000    5.333 
#    0.000   10.556    0.000    0.000    0.000    0.778 
#    0.000    0.889    0.000    0.000    0.000    0.000 
#
# Total GULP energy -446152.111763 kJ/mol
# GULP energy per Si atom -12393.114216 kJ/mol
# Density = 1.576237 g / cm^3
# Si number density = 15.798324 Si / 1000 Ang^3
#
#
#
# Elastic Constant Matrix: (Units=GPa)
#
#
# Indices 1 2 3 4 5 6 
#
# 1 147.4746 34.5499 56.3546 0.0000 0.0000 0.0000
# 2 34.5499 74.5116 29.2306 0.0000 0.0000 0.0000
# 3 56.3546 29.2306 79.0247 0.0000 0.0000 0.0000
# 4 0.0000 0.0000 0.0000 15.0648 0.0000 0.0000
# 5 0.0000 0.0000 0.0000 0.0000 161.0775 0.0000
# 6 0.0000 0.0000 0.0000 0.0000 0.0000 12.6066
#
#
#
# Elastic Compliance Matrix: (Units=1/GPa)
#
#
# Indices 1 2 3 4 5 6 
#
# 1 0.009584 -0.002062 -0.006072 0.000000 0.000000 0.000000
# 2 -0.002062 0.016142 -0.004500 0.000000 0.000000 0.000000
# 3 -0.006072 -0.004500 0.018649 0.000000 0.000000 0.000000
# 4 0.000000 0.000000 0.000000 0.066380 0.000000 0.000000
# 5 0.000000 0.000000 0.000000 0.000000 0.006208 0.000000
# 6 0.000000 0.000000 0.000000 0.000000 0.000000 0.079323
#
#
# Mechanical properties :
#
#
# Convention : Reuss Voigt Hill
#
# Bulk Modulus (GPa) = 52.33781 60.14236 56.24009
# Shear Modulus (GPa) = 21.93703 49.80817 35.87260
#
# Velocity S-wave (km/s) = 3.73039 5.62103 4.77031
# Velocity P-wave (km/s) = 7.19410 8.95988 8.12510
#
# Compressibility (1/GPa) = 0.01910665
#
# Stress axis : x y z
#
# Youngs Moduli (GPa) = 104.33814 61.94882 53.62195
#
# Poissons Ratio (x) = 0.12774 0.32559
# Poissons Ratio (y) = 0.21515 0.24132
# Poissons Ratio (z) = 0.63354 0.27880
#
# Static dielectric constant tensor:
#      x y z
#    x 3.177190 0.000000 0.000000 
#    y 0.000000 2.852620 0.000000 
#    z 0.000000 0.000000 2.793220 
# 
# 
# High freq. dielectric constant tensor:
#      x y z
#    x 1.615510 0.000000 0.000000 
#    y 0.000000 1.586220 0.000000 
#    z 0.000000 0.000000 1.568150 
# 
# From -- ./inp_files/19037.got.cif
#   From: 2010.03.12/outbox.cif.g09.slc.cpg/sg69_10_cif.got.tgz:19037.got - 2010.04.10 23:52:46.
