data_PCOD8284397
_publ_section_title
;
Structure prediction by ZEFSAII (Michael W. Deem and Ramdas Pophale) SiO2 
 PCOD8284397
Probable space group: F M M M
;
_chemical_formula_sum "Si O2"
_cell_formula_units_Z 160
_cell_length_a 18.102891
_cell_length_b 18.258318
_cell_length_c 25.736189
_cell_angle_alpha 90.000000
_cell_angle_beta 90.000000
_cell_angle_gamma 90.000000
_cell_volume 8506.539843
_symmetry_space_group_name_H-M "F M M M"
_symmetry_group_IT_number 69
_symmetry_cell_setting 'orthorhombic'
loop_
_space_group_symop_operation_xyz
x,y,z
-x,-y,z
x,-y,-z
-x,y,-z
-x,-y,-z
x,y,-z
-x,y,z
x,-y,z
x,1/2+y,1/2+z
-x,1/2-y,1/2+z
x,1/2-y,1/2-z
-x,1/2+y,1/2-z
-x,1/2-y,1/2-z
x,1/2+y,1/2-z
-x,1/2+y,1/2+z
x,1/2-y,1/2+z
1/2+x,y,1/2+z
1/2-x,-y,1/2+z
1/2+x,-y,1/2-z
1/2-x,y,1/2-z
1/2-x,-y,1/2-z
1/2+x,y,1/2-z
1/2-x,y,1/2+z
1/2+x,-y,1/2+z
1/2+x,1/2+y,z
1/2-x,1/2-y,z
1/2+x,1/2-y,-z
1/2-x,1/2+y,-z
1/2-x,1/2-y,-z
1/2+x,1/2+y,-z
1/2-x,1/2+y,z
1/2+x,1/2-y,z
loop_
_atom_site_type_symbol
_atom_site_label
_atom_site_fract_x
_atom_site_fract_y
_atom_site_fract_z
Si Si1 0.916214 0.583591 0.747134
Si Si2 0.328144 0.845170 0.163613
Si Si3 0.825100 0.414685 0.057291
Si Si4 0.656108 0.680143 0.836701
Si Si5 0.694126 0.683445 0.055933
O O1 0.905228 0.500000 0.730412
O O2 0.862303 0.599764 0.794836
O O3 0.898822 0.631957 0.696723
O O4 0.000000 0.599610 0.764542
O O5 0.358373 0.868266 0.105896
O O6 0.352978 0.764176 0.180610
O O7 0.239605 0.850363 0.167879
O O8 0.831156 0.500000 0.070896
O O9 0.739516 0.392033 0.052117
O O10 0.862650 0.398557 0.000000
O O11 0.634036 0.676388 0.898175
O O12 0.750000 0.750000 0.071658
O O13 0.656439 0.700630 0.000000
#
# Coordination Sequence:
#
# PCOD8284397 Si02
#       5
#    32  32  32  32  32
#     4  11  25  40  52  70 102 144 186 228 271 316
#     4  10  19  34  55  81 108 136 174 219 269 325
#     4   9  16  26  46  78 111 139 168 207 259 317
#     4  10  19  33  55  84 106 135 174 220 267 320
#     4   9  15  28  49  78 112 140 163 204 259 312
#
# _framework density 18.809056999999999
#
# number of rings (size 3 to 8) (size 9 to 14) (size 15 to 20)
#    0.000    2.200    4.000    1.800    0.000    8.000 
#    0.000    0.000    0.000    1.200    0.000    7.000 
#    0.000    0.000    0.000    0.000    0.000    0.000 
#
# Total GULP energy -495550.228943 kJ/mol
# GULP energy per Si atom -12388.755724 kJ/mol
# Density = 1.876625 g / cm^3
# Si number density = 18.809057 Si / 1000 Ang^3
#
#
#
# Elastic Constant Matrix: (Units=GPa)
#
#
# Indices 1 2 3 4 5 6 
#
# 1 33.9973 31.4997 19.5548 0.0000 0.0000 0.0000
# 2 31.4997 100.3922 42.9003 0.0000 0.0000 0.0000
# 3 19.5548 42.9003 126.2739 0.0000 0.0000 0.0000
# 4 0.0000 0.0000 0.0000 33.2224 0.0000 0.0000
# 5 0.0000 0.0000 0.0000 0.0000 2.7123 0.0000
# 6 0.0000 0.0000 0.0000 0.0000 0.0000 20.3143
#
#
#
# Elastic Compliance Matrix: (Units=1/GPa)
#
#
# Indices 1 2 3 4 5 6 
#
# 1 0.042070 -0.012185 -0.002375 0.000000 0.000000 0.000000
# 2 -0.012185 0.015182 -0.003271 0.000000 0.000000 0.000000
# 3 -0.002375 -0.003271 0.009398 0.000000 0.000000 0.000000
# 4 0.000000 0.000000 0.000000 0.030100 0.000000 0.000000
# 5 0.000000 0.000000 0.000000 0.000000 0.368694 0.000000
# 6 0.000000 0.000000 0.000000 0.000000 0.000000 0.049226
#
#
# Mechanical properties :
#
#
# Convention : Reuss Voigt Hill
#
# Bulk Modulus (GPa) = 32.27056 49.84145 41.05600
# Shear Modulus (GPa) = 8.91800 22.36372 15.64086
#
# Velocity S-wave (km/s) = 2.17982 3.45191 2.88681
# Velocity P-wave (km/s) = 4.85074 6.51489 5.74341
#
# Compressibility (1/GPa) = 0.03098800
#
# Stress axis : x y z
#
# Youngs Moduli (GPa) = 23.76963 65.86738 106.40133
#
# Poissons Ratio (x) = 0.80261 0.25273
# Poissons Ratio (y) = 0.28964 0.34803
# Poissons Ratio (z) = 0.05646 0.21545
#
# Static dielectric constant tensor:
#      x y z
#    x 2.845460 0.000000 0.000000 
#    y 0.000000 3.527990 0.000000 
#    z 0.000000 0.000000 3.913350 
# 
# 
# High freq. dielectric constant tensor:
#      x y z
#    x 1.647800 0.000000 0.000000 
#    y 0.000000 1.741600 0.000000 
#    z 0.000000 0.000000 1.759970 
# 
# From -- ./inp_files/26628.got.cif
#   From: 2010.03.12/outbox.cif.g09.slc.cpg/sg69_14_cif.got.tgz:26628.got - 2010.04.10 23:52:46.
