data_PCOD8284309
_publ_section_title
;
Structure prediction by ZEFSAII (Michael W. Deem and Ramdas Pophale) SiO2 
 PCOD8284309
Probable space group: F M M M
;
_chemical_formula_sum "Si O2"
_cell_formula_units_Z 208
_cell_length_a 18.721396
_cell_length_b 20.464604
_cell_length_c 28.727904
_cell_angle_alpha 90.000000
_cell_angle_beta 90.000000
_cell_angle_gamma 90.000000
_cell_volume 11006.405669
_symmetry_space_group_name_H-M "F M M M"
_symmetry_group_IT_number 69
_symmetry_cell_setting 'orthorhombic'
loop_
_space_group_symop_operation_xyz
x,y,z
-x,-y,z
x,-y,-z
-x,y,-z
-x,-y,-z
x,y,-z
-x,y,z
x,-y,z
x,1/2+y,1/2+z
-x,1/2-y,1/2+z
x,1/2-y,1/2-z
-x,1/2+y,1/2-z
-x,1/2-y,1/2-z
x,1/2+y,1/2-z
-x,1/2+y,1/2+z
x,1/2-y,1/2+z
1/2+x,y,1/2+z
1/2-x,-y,1/2+z
1/2+x,-y,1/2-z
1/2-x,y,1/2-z
1/2-x,-y,1/2-z
1/2+x,y,1/2-z
1/2-x,y,1/2+z
1/2+x,-y,1/2+z
1/2+x,1/2+y,z
1/2-x,1/2-y,z
1/2+x,1/2-y,-z
1/2-x,1/2+y,-z
1/2-x,1/2-y,-z
1/2+x,1/2+y,-z
1/2-x,1/2+y,z
1/2+x,1/2-y,z
loop_
_atom_site_type_symbol
_atom_site_label
_atom_site_fract_x
_atom_site_fract_y
_atom_site_fract_z
Si Si1 0.582832 0.650518 0.862804
Si Si2 0.916713 0.857515 0.555488
Si Si3 0.917263 0.073585 0.229084
Si Si4 0.326455 0.273413 0.626397
Si Si5 0.415427 0.427606 0.948992
Si Si6 0.675220 0.681373 0.272677
Si Si7 0.415918 0.500000 0.449474
O O1 0.500000 0.669783 0.866959
O O2 0.595455 0.596218 0.823703
O O3 0.627198 0.714747 0.852267
O O4 0.614982 0.621428 0.910696
O O5 0.902146 0.851088 0.500000
O O6 0.868004 0.807624 0.584107
O O7 0.895546 0.930760 0.574556
O O8 0.000000 0.842362 0.565670
O O9 0.880431 0.123601 0.264160
O O10 0.000000 0.074479 0.242042
O O11 0.886634 0.000000 0.234546
O O12 0.250000 0.250000 0.606708
O O13 0.314082 0.318036 0.671675
O O14 0.500000 0.432404 0.943315
O O15 0.382845 0.500000 0.942108
O O16 0.394681 0.400407 0.000000
O O17 0.648512 0.750000 0.250000
O O18 0.750000 0.661559 0.250000
O O19 0.500000 0.500000 0.456790
O O20 0.378808 0.500000 0.500000
#
# Coordination Sequence:
#
# PCOD8284309 Si02
#       7
#    32  32  32  32  32  32  16
#     4  10  19  32  53  78 106 145 185 227 287 350
#     4   9  19  37  62  91 120 151 190 237 291 351
#     4  10  21  36  57  86 114 140 183 245 301 350
#     4  12  23  37  58  82 114 151 196 236 285 342
#     4   8  14  26  46  72 101 133 171 215 260 314
#     4  11  21  42  62  78 109 158 200 241 286 344
#     4   7  12  30  60  86 111 148 187 227 284 345
#
# _framework density 18.898085999999999
#
# number of rings (size 3 to 8) (size 9 to 14) (size 15 to 20)
#    0.000    2.231    3.077    2.308    0.000    4.615 
#    1.385    1.538    3.385    0.000    0.000    0.000 
#    0.000    0.000    0.000    0.000    0.000    0.000 
#
# Total GULP energy -644451.431952 kJ/mol
# GULP energy per Si atom -12393.296768 kJ/mol
# Density = 1.885507 g / cm^3
# Si number density = 18.898086 Si / 1000 Ang^3
#
#
#
# Elastic Constant Matrix: (Units=GPa)
#
#
# Indices 1 2 3 4 5 6 
#
# 1 74.5451 55.4635 42.4740 0.0000 0.0000 0.0000
# 2 55.4635 111.6340 33.7651 0.0000 0.0000 0.0000
# 3 42.4740 33.7651 95.2339 0.0000 0.0000 0.0000
# 4 0.0000 0.0000 0.0000 25.2442 0.0000 0.0000
# 5 0.0000 0.0000 0.0000 0.0000 25.3564 0.0000
# 6 0.0000 0.0000 0.0000 0.0000 0.0000 13.8029
#
#
#
# Elastic Compliance Matrix: (Units=1/GPa)
#
#
# Indices 1 2 3 4 5 6 
#
# 1 0.025496 -0.010336 -0.007706 0.000000 0.000000 0.000000
# 2 -0.010336 0.014224 -0.000433 0.000000 0.000000 0.000000
# 3 -0.007706 -0.000433 0.014091 0.000000 0.000000 0.000000
# 4 0.000000 0.000000 0.000000 0.039613 0.000000 0.000000
# 5 0.000000 0.000000 0.000000 0.000000 0.039438 0.000000
# 6 0.000000 0.000000 0.000000 0.000000 0.000000 0.072449
#
#
# Mechanical properties :
#
#
# Convention : Reuss Voigt Hill
#
# Bulk Modulus (GPa) = 59.31387 60.53536 59.92461
# Shear Modulus (GPa) = 20.17079 22.86140 21.51609
#
# Velocity S-wave (km/s) = 3.27057 3.48188 3.37788
# Velocity P-wave (km/s) = 6.76140 6.94742 6.85504
#
# Compressibility (1/GPa) = 0.01685946
#
# Stress axis : x y z
#
# Youngs Moduli (GPa) = 39.22143 70.30187 70.96668
#
# Poissons Ratio (x) = 0.72667 0.54690
# Poissons Ratio (y) = 0.40541 0.03074
# Poissons Ratio (z) = 0.30226 0.03045
#
# Static dielectric constant tensor:
#      x y z
#    x 3.186550 0.000000 0.000000 
#    y 0.000000 3.652810 0.000000 
#    z 0.000000 0.000000 3.423210 
# 
# 
# High freq. dielectric constant tensor:
#      x y z
#    x 1.703340 0.000000 0.000000 
#    y 0.000000 1.737060 0.000000 
#    z 0.000000 0.000000 1.730680 
# 
# From -- ./inp_files/46489.got.cif
#   From: 2010.03.12/outbox.cif.g09.slc.cpg/sg69_24_cif.got.tgz:46489.got - 2010.04.10 23:52:46.
