data_PCOD8284452
_publ_section_title
;
Structure prediction by ZEFSAII (Michael W. Deem and Ramdas Pophale) SiO2 
 PCOD8284452
Probable space group: F M M M
;
_chemical_formula_sum "Si O2"
_cell_formula_units_Z 160
_cell_length_a 16.046813
_cell_length_b 30.655009
_cell_length_c 17.751794
_cell_angle_alpha 90.000000
_cell_angle_beta 90.000000
_cell_angle_gamma 90.000000
_cell_volume 8732.377241
_symmetry_space_group_name_H-M "F M M M"
_symmetry_group_IT_number 69
_symmetry_cell_setting 'orthorhombic'
loop_
_space_group_symop_operation_xyz
x,y,z
-x,-y,z
x,-y,-z
-x,y,-z
-x,-y,-z
x,y,-z
-x,y,z
x,-y,z
x,1/2+y,1/2+z
-x,1/2-y,1/2+z
x,1/2-y,1/2-z
-x,1/2+y,1/2-z
-x,1/2-y,1/2-z
x,1/2+y,1/2-z
-x,1/2+y,1/2+z
x,1/2-y,1/2+z
1/2+x,y,1/2+z
1/2-x,-y,1/2+z
1/2+x,-y,1/2-z
1/2-x,y,1/2-z
1/2-x,-y,1/2-z
1/2+x,y,1/2-z
1/2-x,y,1/2+z
1/2+x,-y,1/2+z
1/2+x,1/2+y,z
1/2-x,1/2-y,z
1/2+x,1/2-y,-z
1/2-x,1/2+y,-z
1/2-x,1/2-y,-z
1/2+x,1/2+y,-z
1/2-x,1/2+y,z
1/2+x,1/2-y,z
loop_
_atom_site_type_symbol
_atom_site_label
_atom_site_fract_x
_atom_site_fract_y
_atom_site_fract_z
Si Si1 0.500000 0.348446 0.417840
Si Si2 0.159887 0.853998 0.227073
Si Si3 0.358180 0.410971 0.631875
Si Si4 0.000000 0.699642 0.768505
Si Si5 0.825261 0.589333 0.584498
Si Si6 0.599640 0.000000 0.643890
Si Si7 0.907175 0.500000 0.190482
O O1 0.500000 0.326293 0.500000
O O2 0.580782 0.378637 0.411353
O O3 0.500000 0.309167 0.358001
O O4 0.250000 0.832168 0.250000
O O5 0.151292 0.895098 0.282227
O O6 0.084552 0.820117 0.234378
O O7 0.151015 0.872085 0.142349
O O8 0.273904 0.414447 0.585622
O O9 0.392693 0.459350 0.636543
O O10 0.000000 0.750000 0.750000
O O11 0.853007 0.602994 0.500000
O O12 0.867100 0.543235 0.603293
O O13 0.500000 0.000000 0.638753
O O14 0.640007 0.000000 0.728642
O O15 0.000000 0.500000 0.220081
#
# Coordination Sequence:
#
# PCOD8284452 Si02
#       7
#    16  32  32  16  32  16  16
#     4  10  20  37  60  86 114 140 172 228 287 328
#     4   9  20  37  59  83 110 147 185 228 277 330
#     4  10  19  34  56  78 107 151 193 227 273 326
#     4  10  22  40  65  91 112 140 182 218 270 357
#     4  11  22  35  51  78 112 149 193 236 274 318
#     4  11  24  34  50  70 109 152 198 238 279 314
#     4  11  19  31  53  80 104 150 198 241 268 320
#
# _framework density 18.322617000000001
#
# number of rings (size 3 to 8) (size 9 to 14) (size 15 to 20)
#    0.000    1.800    3.000    1.500    1.400    2.000 
#    0.000    3.000    0.000    0.000    0.000    8.400 
#    0.000    0.000    0.000    0.000    0.000    0.000 
#
# Total GULP energy -495784.667213 kJ/mol
# GULP energy per Si atom -12394.616680 kJ/mol
# Density = 1.828091 g / cm^3
# Si number density = 18.322617 Si / 1000 Ang^3
#
#
#
# Elastic Constant Matrix: (Units=GPa)
#
#
# Indices 1 2 3 4 5 6 
#
# 1 125.3466 56.2087 32.0578 0.0000 0.0000 0.0000
# 2 56.2087 114.1161 53.6478 0.0000 0.0000 0.0000
# 3 32.0578 53.6478 141.3067 0.0000 0.0000 0.0000
# 4 0.0000 0.0000 0.0000 11.2793 0.0000 0.0000
# 5 0.0000 0.0000 0.0000 0.0000 22.0942 0.0000
# 6 0.0000 0.0000 0.0000 0.0000 0.0000 27.6790
#
#
#
# Elastic Compliance Matrix: (Units=1/GPa)
#
#
# Indices 1 2 3 4 5 6 
#
# 1 0.010268 -0.004823 -0.000498 0.000000 0.000000 0.000000
# 2 -0.004823 0.012933 -0.003816 0.000000 0.000000 0.000000
# 3 -0.000498 -0.003816 0.008638 0.000000 0.000000 0.000000
# 4 0.000000 0.000000 0.000000 0.088658 0.000000 0.000000
# 5 0.000000 0.000000 0.000000 0.000000 0.045261 0.000000
# 6 0.000000 0.000000 0.000000 0.000000 0.000000 0.036129
#
#
# Mechanical properties :
#
#
# Convention : Reuss Voigt Hill
#
# Bulk Modulus (GPa) = 73.72130 73.84421 73.78275
# Shear Modulus (GPa) = 22.25359 28.13417 25.19388
#
# Velocity S-wave (km/s) = 3.48881 3.92278 3.71214
# Velocity P-wave (km/s) = 7.52008 7.80432 7.66351
#
# Compressibility (1/GPa) = 0.01356460
#
# Stress axis : x y z
#
# Youngs Moduli (GPa) = 97.38720 77.32367 115.76109
#
# Poissons Ratio (x) = 0.37297 0.05768
# Poissons Ratio (y) = 0.46974 0.44171
# Poissons Ratio (z) = 0.04853 0.29504
#
# Static dielectric constant tensor:
#      x y z
#    x 3.414570 0.000000 0.000000 
#    y 0.000000 2.962450 0.000000 
#    z 0.000000 0.000000 3.417020 
# 
# 
# High freq. dielectric constant tensor:
#      x y z
#    x 1.725970 0.000000 0.000000 
#    y 0.000000 1.672920 0.000000 
#    z 0.000000 0.000000 1.713510 
# 
# From -- ./inp_files/15736.got.cif
#   From: 2010.03.12/outbox.cif.g09.slc.cpg/sg69_8_cif.got.tgz:15736.got - 2010.04.10 23:52:46.
