data_PCOD8284071
_publ_section_title
;
Structure prediction by ZEFSAII (Michael W. Deem and Ramdas Pophale) SiO2 
 PCOD8284071
Probable space group: F M M M
;
_chemical_formula_sum "Si O2"
_cell_formula_units_Z 136
_cell_length_a 22.557442
_cell_length_b 17.929272
_cell_length_c 12.690154
_cell_angle_alpha 90.000000
_cell_angle_beta 90.000000
_cell_angle_gamma 90.000000
_cell_volume 5132.387017
_symmetry_space_group_name_H-M "F M M M"
_symmetry_group_IT_number 69
_symmetry_cell_setting 'orthorhombic'
loop_
_space_group_symop_operation_xyz
x,y,z
-x,-y,z
x,-y,-z
-x,y,-z
-x,-y,-z
x,y,-z
-x,y,z
x,-y,z
x,1/2+y,1/2+z
-x,1/2-y,1/2+z
x,1/2-y,1/2-z
-x,1/2+y,1/2-z
-x,1/2-y,1/2-z
x,1/2+y,1/2-z
-x,1/2+y,1/2+z
x,1/2-y,1/2+z
1/2+x,y,1/2+z
1/2-x,-y,1/2+z
1/2+x,-y,1/2-z
1/2-x,y,1/2-z
1/2-x,-y,1/2-z
1/2+x,y,1/2-z
1/2-x,y,1/2+z
1/2+x,-y,1/2+z
1/2+x,1/2+y,z
1/2-x,1/2-y,z
1/2+x,1/2-y,-z
1/2-x,1/2+y,-z
1/2-x,1/2-y,-z
1/2+x,1/2+y,-z
1/2-x,1/2+y,z
1/2+x,1/2-y,z
loop_
_atom_site_type_symbol
_atom_site_label
_atom_site_fract_x
_atom_site_fract_y
_atom_site_fract_z
Si Si1 0.156942 0.869183 0.379691
Si Si2 0.000000 0.836740 0.887738
Si Si3 0.784099 0.417029 0.374272
Si Si4 0.932711 0.000000 0.655065
Si Si5 0.124429 0.206742 0.872792
Si Si6 0.000000 0.000000 0.149440
O O1 0.172626 0.850591 0.500000
O O2 0.217317 0.902789 0.327788
O O3 0.140421 0.789029 0.327469
O O4 0.102496 0.926403 0.379053
O O5 0.059436 0.813636 0.826158
O O6 0.000000 0.924806 0.916928
O O7 0.000000 0.794307 0.000000
O O8 0.781882 0.410121 0.500000
O O9 0.804711 0.500000 0.341465
O O10 0.830559 0.356435 0.327888
O O11 0.939848 0.000000 0.780718
O O12 0.000000 0.000000 0.604916
O O13 0.124660 0.204073 0.000000
#
# Coordination Sequence:
#
# PCOD8284071 Si02
#       6
#    32  16  32  16  32   8
#     4  10  18  33  55  83 119 155 190 228 270 325
#     4  10  21  39  62  85 106 137 183 236 290 349
#     4   9  16  28  49  83 120 151 183 227 283 330
#     4  10  23  37  53  79 109 153 191 228 273 331
#     4   9  19  31  53  87 117 143 182 236 285 326
#     4  10  25  42  55  78 114 146 184 232 293 336
#
# _framework density 26.498391999999999
#
# number of rings (size 3 to 8) (size 9 to 14) (size 15 to 20)
#    0.353    2.118    1.176    1.235    3.294    3.765 
#    0.000    2.353    0.000    2.824    0.000    3.294 
#    0.000    0.000    0.000    0.000    0.000    0.000 
#
# Total GULP energy -421590.402720 kJ/mol
# GULP energy per Si atom -12399.717727 kJ/mol
# Density = 2.643808 g / cm^3
# Si number density = 26.498392 Si / 1000 Ang^3
#
#
#
# Elastic Constant Matrix: (Units=GPa)
#
#
# Indices 1 2 3 4 5 6 
#
# 1 245.2327 131.4978 25.6726 0.0000 0.0000 0.0000
# 2 131.4978 266.8726 26.0421 0.0000 0.0000 0.0000
# 3 25.6726 26.0421 38.0969 0.0000 0.0000 0.0000
# 4 0.0000 0.0000 0.0000 40.4638 0.0000 0.0000
# 5 0.0000 0.0000 0.0000 0.0000 6.4062 0.0000
# 6 0.0000 0.0000 0.0000 0.0000 0.0000 36.8164
#
#
#
# Elastic Compliance Matrix: (Units=1/GPa)
#
#
# Indices 1 2 3 4 5 6 
#
# 1 0.005688 -0.002602 -0.002054 0.000000 0.000000 0.000000
# 2 -0.002602 0.005205 -0.001805 0.000000 0.000000 0.000000
# 3 -0.002054 -0.001805 0.028867 0.000000 0.000000 0.000000
# 4 0.000000 0.000000 0.000000 0.024713 0.000000 0.000000
# 5 0.000000 0.000000 0.000000 0.000000 0.156098 0.000000
# 6 0.000000 0.000000 0.000000 0.000000 0.000000 0.027162
#
#
# Mechanical properties :
#
#
# Convention : Reuss Voigt Hill
#
# Bulk Modulus (GPa) = 37.26067 101.84747 69.55407
# Shear Modulus (GPa) = 18.54585 41.20328 29.87456
#
# Velocity S-wave (km/s) = 2.64841 3.94754 3.36134
# Velocity P-wave (km/s) = 4.84191 7.70041 6.43196
#
# Compressibility (1/GPa) = 0.02683795
#
# Stress axis : x y z
#
# Youngs Moduli (GPa) = 175.80155 192.10535 34.64184
#
# Poissons Ratio (x) = 0.49992 0.07116
# Poissons Ratio (y) = 0.45749 0.06252
# Poissons Ratio (z) = 0.36115 0.34669
#
# Static dielectric constant tensor:
#      x y z
#    x 4.849930 0.000000 0.000000 
#    y 0.000000 4.681010 0.000000 
#    z 0.000000 0.000000 4.741430 
# 
# 
# High freq. dielectric constant tensor:
#      x y z
#    x 2.063500 0.000000 0.000000 
#    y 0.000000 2.064130 0.000000 
#    z 0.000000 0.000000 2.104940 
# 
# From -- ./inp_files/24241.got.cif
#   From: 2010.03.12/outbox.cif.g09.slc.cpg/sg69_13_cif.got.tgz:24241.got - 2010.04.10 23:52:46.
