data_PCOD8284100
_publ_section_title
;
Structure prediction by ZEFSAII (Michael W. Deem and Ramdas Pophale) SiO2 
 PCOD8284100
Probable space group: F M M M
;
_chemical_formula_sum "Si O2"
_cell_formula_units_Z 160
_cell_length_a 18.055214
_cell_length_b 25.216820
_cell_length_c 19.261005
_cell_angle_alpha 90.000000
_cell_angle_beta 90.000000
_cell_angle_gamma 90.000000
_cell_volume 8769.440841
_symmetry_space_group_name_H-M "F M M M"
_symmetry_group_IT_number 69
_symmetry_cell_setting 'orthorhombic'
loop_
_space_group_symop_operation_xyz
x,y,z
-x,-y,z
x,-y,-z
-x,y,-z
-x,-y,-z
x,y,-z
-x,y,z
x,-y,z
x,1/2+y,1/2+z
-x,1/2-y,1/2+z
x,1/2-y,1/2-z
-x,1/2+y,1/2-z
-x,1/2-y,1/2-z
x,1/2+y,1/2-z
-x,1/2+y,1/2+z
x,1/2-y,1/2+z
1/2+x,y,1/2+z
1/2-x,-y,1/2+z
1/2+x,-y,1/2-z
1/2-x,y,1/2-z
1/2-x,-y,1/2-z
1/2+x,y,1/2-z
1/2-x,y,1/2+z
1/2+x,-y,1/2+z
1/2+x,1/2+y,z
1/2-x,1/2-y,z
1/2+x,1/2-y,-z
1/2-x,1/2+y,-z
1/2-x,1/2-y,-z
1/2+x,1/2+y,-z
1/2-x,1/2+y,z
1/2+x,1/2-y,z
loop_
_atom_site_type_symbol
_atom_site_label
_atom_site_fract_x
_atom_site_fract_y
_atom_site_fract_z
Si Si1 0.582784 0.806417 0.158589
Si Si2 0.912877 0.000000 0.382068
Si Si3 0.916257 0.186701 0.177919
Si Si4 0.202756 0.103936 0.819155
Si Si5 0.162750 0.000000 0.764100
Si Si6 0.831561 0.103647 0.579038
O O1 0.500000 0.816900 0.131216
O O2 0.587691 0.818759 0.239503
O O3 0.603786 0.744807 0.148854
O O4 0.636372 0.843877 0.115283
O O5 0.887694 0.000000 0.302981
O O6 0.885737 0.946757 0.419792
O O7 0.000000 0.000000 0.385426
O O8 0.851077 0.149154 0.150355
O O9 0.000000 0.171233 0.153738
O O10 0.250000 0.120355 0.750000
O O11 0.257469 0.087442 0.880737
O O12 0.147611 0.054207 0.805487
O O13 0.250000 0.000000 0.750000
O O14 0.813195 0.118191 0.500000
#
# Coordination Sequence:
#
# PCOD8284100 Si02
#       6
#    32  16  32  32  16  32
#     4   9  18  34  53  79 112 146 185 235 288 339
#     4  12  23  37  60  90 118 154 197 230 275 352
#     4   9  18  34  58  82 104 139 196 246 282 328
#     4  11  19  36  59  80 113 154 190 237 285 336
#     4  10  18  36  58  81 115 149 188 235 279 324
#     4  12  24  37  54  84 122 158 189 228 289 358
#
# _framework density 18.245177999999999
#
# number of rings (size 3 to 8) (size 9 to 14) (size 15 to 20)
#    0.000    1.600    6.000    2.100    0.000    5.200 
#    0.000    2.000    0.000    1.800    0.000    0.000 
#    0.000    4.000    0.000    0.000    0.000    0.000 
#
# Total GULP energy -495817.626475 kJ/mol
# GULP energy per Si atom -12395.440662 kJ/mol
# Density = 1.820365 g / cm^3
# Si number density = 18.245178 Si / 1000 Ang^3
#
#
#
# Elastic Constant Matrix: (Units=GPa)
#
#
# Indices 1 2 3 4 5 6 
#
# 1 73.6970 35.9609 22.2414 0.0000 0.0000 0.0000
# 2 35.9609 102.2448 26.3456 0.0000 0.0000 0.0000
# 3 22.2414 26.3456 82.1385 0.0000 0.0000 0.0000
# 4 0.0000 0.0000 0.0000 11.5404 0.0000 0.0000
# 5 0.0000 0.0000 0.0000 0.0000 12.4729 0.0000
# 6 0.0000 0.0000 0.0000 0.0000 0.0000 36.6167
#
#
#
# Elastic Compliance Matrix: (Units=1/GPa)
#
#
# Indices 1 2 3 4 5 6 
#
# 1 0.017003 -0.005226 -0.002928 0.000000 0.000000 0.000000
# 2 -0.005226 0.012268 -0.002520 0.000000 0.000000 0.000000
# 3 -0.002928 -0.002520 0.013776 0.000000 0.000000 0.000000
# 4 0.000000 0.000000 0.000000 0.086652 0.000000 0.000000
# 5 0.000000 0.000000 0.000000 0.000000 0.080174 0.000000
# 6 0.000000 0.000000 0.000000 0.000000 0.000000 0.027310
#
#
# Mechanical properties :
#
#
# Convention : Reuss Voigt Hill
#
# Bulk Modulus (GPa) = 46.08453 47.46399 46.77426
# Shear Modulus (GPa) = 18.81389 23.69483 21.25436
#
# Velocity S-wave (km/s) = 3.21467 3.60764 3.41681
# Velocity P-wave (km/s) = 6.25237 6.58972 6.42326
#
# Compressibility (1/GPa) = 0.02169926
#
# Stress axis : x y z
#
# Youngs Moduli (GPa) = 58.81473 81.51519 72.59223
#
# Poissons Ratio (x) = 0.42597 0.21254
# Poissons Ratio (y) = 0.30734 0.18292
# Poissons Ratio (z) = 0.17220 0.20540
#
# Static dielectric constant tensor:
#      x y z
#    x 3.445170 0.000000 0.000000 
#    y 0.000000 3.859890 0.000000 
#    z 0.000000 0.000000 5.407960 
# 
# 
# High freq. dielectric constant tensor:
#      x y z
#    x 1.701850 0.000000 0.000000 
#    y 0.000000 1.722270 0.000000 
#    z 0.000000 0.000000 1.666880 
# 
# From -- ./inp_files/23211.got.cif
#   From: 2010.03.12/outbox.cif.g09.slc.cpg/sg69_12_cif.got.tgz:23211.got - 2010.04.10 23:52:46.
