data_PCOD8284658
_publ_section_title
;
Structure prediction by ZEFSAII (Michael W. Deem and Ramdas Pophale) SiO2 
 PCOD8284658
Probable space group: F M M M
;
_chemical_formula_sum "Si O2"
_cell_formula_units_Z 208
_cell_length_a 16.899256
_cell_length_b 24.981423
_cell_length_c 26.052967
_cell_angle_alpha 90.000000
_cell_angle_beta 90.000000
_cell_angle_gamma 90.000000
_cell_volume 10998.714970
_symmetry_space_group_name_H-M "F M M M"
_symmetry_group_IT_number 69
_symmetry_cell_setting 'orthorhombic'
loop_
_space_group_symop_operation_xyz
x,y,z
-x,-y,z
x,-y,-z
-x,y,-z
-x,-y,-z
x,y,-z
-x,y,z
x,-y,z
x,1/2+y,1/2+z
-x,1/2-y,1/2+z
x,1/2-y,1/2-z
-x,1/2+y,1/2-z
-x,1/2-y,1/2-z
x,1/2+y,1/2-z
-x,1/2+y,1/2+z
x,1/2-y,1/2+z
1/2+x,y,1/2+z
1/2-x,-y,1/2+z
1/2+x,-y,1/2-z
1/2-x,y,1/2-z
1/2-x,-y,1/2-z
1/2+x,y,1/2-z
1/2-x,y,1/2+z
1/2+x,-y,1/2+z
1/2+x,1/2+y,z
1/2-x,1/2-y,z
1/2+x,1/2-y,-z
1/2-x,1/2+y,-z
1/2-x,1/2-y,-z
1/2+x,1/2+y,-z
1/2-x,1/2+y,z
1/2+x,1/2-y,z
loop_
_atom_site_type_symbol
_atom_site_label
_atom_site_fract_x
_atom_site_fract_y
_atom_site_fract_z
Si Si1 0.410248 0.310762 0.737780
Si Si2 0.087068 0.844641 0.060975
Si Si3 0.659091 0.236744 0.057361
Si Si4 0.804366 0.440725 0.441345
Si Si5 0.192331 0.060341 0.653355
Si Si6 0.586811 0.847237 0.873136
Si Si7 0.250000 0.877392 0.750000
O O1 0.500000 0.328530 0.758393
O O2 0.391681 0.250000 0.750000
O O3 0.413861 0.310907 0.676808
O O4 0.333192 0.344677 0.757366
O O5 0.117200 0.788094 0.083860
O O6 0.135756 0.895982 0.079286
O O7 0.000000 0.854049 0.082529
O O8 0.090195 0.840944 0.000000
O O9 0.750000 0.250000 0.056477
O O10 0.645551 0.181493 0.087198
O O11 0.626445 0.227917 0.000000
O O12 0.775843 0.428446 0.500000
O O13 0.844192 0.500000 0.439633
O O14 0.732552 0.439081 0.402216
O O15 0.112667 0.093507 0.643872
O O16 0.244600 0.086527 0.698708
O O17 0.170772 0.000000 0.669940
O O18 0.500000 0.850978 0.898252
#
# Coordination Sequence:
#
# PCOD8284658 Si02
#       7
#    32  32  32  32  32  32  16
#     4   9  19  35  54  80 112 142 176 220 270 326
#     4   9  17  29  46  70 101 136 171 207 252 305
#     4  10  20  33  50  74 106 142 178 216 260 316
#     4   9  18  33  52  74 102 136 173 213 257 307
#     4  10  21  37  57  78 101 134 177 222 269 323
#     4  10  21  35  53  78 105 136 175 218 268 323
#     4  10  20  36  58  80 106 142 182 224 272 324
#
# _framework density 18.911301000000002
#
# number of rings (size 3 to 8) (size 9 to 14) (size 15 to 20)
#    0.000    2.462    0.000    1.846    0.000    7.077 
#    0.000    3.846    0.000    2.308    0.000    3.231 
#    0.000    0.000    0.000    0.000    0.000    0.000 
#
# Total GULP energy -644221.601327 kJ/mol
# GULP energy per Si atom -12388.876949 kJ/mol
# Density = 1.886826 g / cm^3
# Si number density = 18.911301 Si / 1000 Ang^3
#
#
#
# Elastic Constant Matrix: (Units=GPa)
#
#
# Indices 1 2 3 4 5 6 
#
# 1 92.5182 51.0097 29.6302 0.0000 0.0000 0.0000
# 2 51.0097 133.9519 43.0778 0.0000 0.0000 0.0000
# 3 29.6302 43.0778 65.5624 0.0000 0.0000 0.0000
# 4 0.0000 0.0000 0.0000 27.8571 0.0000 0.0000
# 5 0.0000 0.0000 0.0000 0.0000 4.9267 0.0000
# 6 0.0000 0.0000 0.0000 0.0000 0.0000 14.5937
#
#
#
# Elastic Compliance Matrix: (Units=1/GPa)
#
#
# Indices 1 2 3 4 5 6 
#
# 1 0.014345 -0.004283 -0.003669 0.000000 0.000000 0.000000
# 2 -0.004283 0.010744 -0.005124 0.000000 0.000000 0.000000
# 3 -0.003669 -0.005124 0.020277 0.000000 0.000000 0.000000
# 4 0.000000 0.000000 0.000000 0.035898 0.000000 0.000000
# 5 0.000000 0.000000 0.000000 0.000000 0.202978 0.000000
# 6 0.000000 0.000000 0.000000 0.000000 0.000000 0.068523
#
#
# Mechanical properties :
#
#
# Convention : Reuss Voigt Hill
#
# Bulk Modulus (GPa) = 52.04215 59.94087 55.99151
# Shear Modulus (GPa) = 12.97621 20.69649 16.83635
#
# Velocity S-wave (km/s) = 2.62231 3.31176 2.98699
# Velocity P-wave (km/s) = 6.06197 6.81089 6.44732
#
# Compressibility (1/GPa) = 0.01921519
#
# Stress axis : x y z
#
# Youngs Moduli (GPa) = 69.71058 93.07495 49.31586
#
# Poissons Ratio (x) = 0.39861 0.18095
# Poissons Ratio (y) = 0.29855 0.25269
# Poissons Ratio (z) = 0.25578 0.47690
#
# Static dielectric constant tensor:
#      x y z
#    x 3.611440 0.000000 0.000000 
#    y 0.000000 3.848370 0.000000 
#    z 0.000000 0.000000 3.379180 
# 
# 
# High freq. dielectric constant tensor:
#      x y z
#    x 1.729160 0.000000 0.000000 
#    y 0.000000 1.742710 0.000000 
#    z 0.000000 0.000000 1.720540 
# 
# From -- ./inp_files/42131.got.cif
#   From: 2010.03.12/outbox.cif.g09.slc.cpg/sg69_22_cif.got.tgz:42131.got - 2010.04.10 23:52:46.
