data_PCOD8284613
_publ_section_title
;
Structure prediction by ZEFSAII (Michael W. Deem and Ramdas Pophale) SiO2 
 PCOD8284613
Probable space group: F M M M
;
_chemical_formula_sum "Si O2"
_cell_formula_units_Z 176
_cell_length_a 9.133350
_cell_length_b 29.013360
_cell_length_c 36.361719
_cell_angle_alpha 90.000000
_cell_angle_beta 90.000000
_cell_angle_gamma 90.000000
_cell_volume 9635.461794
_symmetry_space_group_name_H-M "F M M M"
_symmetry_group_IT_number 69
_symmetry_cell_setting 'orthorhombic'
loop_
_space_group_symop_operation_xyz
x,y,z
-x,-y,z
x,-y,-z
-x,y,-z
-x,-y,-z
x,y,-z
-x,y,z
x,-y,z
x,1/2+y,1/2+z
-x,1/2-y,1/2+z
x,1/2-y,1/2-z
-x,1/2+y,1/2-z
-x,1/2-y,1/2-z
x,1/2+y,1/2-z
-x,1/2+y,1/2+z
x,1/2-y,1/2+z
1/2+x,y,1/2+z
1/2-x,-y,1/2+z
1/2+x,-y,1/2-z
1/2-x,y,1/2-z
1/2-x,-y,1/2-z
1/2+x,y,1/2-z
1/2-x,y,1/2+z
1/2+x,-y,1/2+z
1/2+x,1/2+y,z
1/2-x,1/2-y,z
1/2+x,1/2-y,-z
1/2-x,1/2+y,-z
1/2-x,1/2-y,-z
1/2+x,1/2+y,-z
1/2-x,1/2+y,z
1/2+x,1/2-y,z
loop_
_atom_site_type_symbol
_atom_site_label
_atom_site_fract_x
_atom_site_fract_y
_atom_site_fract_z
Si Si1 0.674312 0.949838 0.404133
Si Si2 0.174847 0.799288 0.000000
Si Si3 0.672601 0.298533 0.142574
Si Si4 0.826218 0.353561 0.428722
Si Si5 0.827419 0.357174 0.713314
Si Si6 0.173568 0.449648 0.321287
O O1 0.500000 0.948966 0.403260
O O2 0.732119 0.906737 0.428477
O O3 0.734170 0.943540 0.362652
O O4 0.727161 0.000000 0.419742
O O5 0.250000 0.750000 0.000000
O O6 0.232635 0.827355 0.964605
O O7 0.000000 0.793197 0.000000
O O8 0.500000 0.291071 0.140208
O O9 0.750000 0.250000 0.141648
O O10 0.729763 0.328025 0.107904
O O11 0.717662 0.324261 0.179871
O O12 0.000000 0.353785 0.429370
O O13 0.750000 0.338738 0.750000
O O14 0.766880 0.408740 0.704527
O O15 0.000000 0.356765 0.719732
O O16 0.221527 0.500000 0.305738
O O17 0.000000 0.445603 0.323073
#
# Coordination Sequence:
#
# PCOD8284613 Si02
#       6
#    32  16  32  32  32  32
#     4   8  12  21  42  69  95 124 156 187 225 279
#     4  10  20  32  49  73 103 131 158 198 241 276
#     4  10  20  34  51  68  90 122 161 198 234 280
#     4   9  16  29  47  70  99 128 156 191 235 280
#     4  10  20  33  48  68  94 122 154 196 238 279
#     4   8  13  24  44  68  92 120 154 188 226 278
#
# _framework density 18.265861000000001
#
# number of rings (size 3 to 8) (size 9 to 14) (size 15 to 20)
#    0.000    2.909    1.818    1.636    0.000    1.455 
#    0.000    2.273    0.000    2.727    0.000    0.000 
#    0.000    3.636    0.000    0.000    0.000    0.000 
#
# Total GULP energy -545249.220511 kJ/mol
# GULP energy per Si atom -12392.027739 kJ/mol
# Density = 1.822429 g / cm^3
# Si number density = 18.265861 Si / 1000 Ang^3
#
#
#
# Elastic Constant Matrix: (Units=GPa)
#
#
# Indices 1 2 3 4 5 6 
#
# 1 11.1199 24.5764 21.4144 0.0000 0.0000 0.0000
# 2 24.5764 177.8487 86.2490 0.0000 0.0000 0.0000
# 3 21.4144 86.2490 139.2982 0.0000 0.0000 0.0000
# 4 0.0000 0.0000 0.0000 24.3463 0.0000 0.0000
# 5 0.0000 0.0000 0.0000 0.0000 15.5612 0.0000
# 6 0.0000 0.0000 0.0000 0.0000 0.0000 20.3192
#
#
#
# Elastic Compliance Matrix: (Units=1/GPa)
#
#
# Indices 1 2 3 4 5 6 
#
# 1 0.147089 -0.013377 -0.014330 0.000000 0.000000 0.000000
# 2 -0.013377 0.009252 -0.003672 0.000000 0.000000 0.000000
# 3 -0.014330 -0.003672 0.011655 0.000000 0.000000 0.000000
# 4 0.000000 0.000000 0.000000 0.041074 0.000000 0.000000
# 5 0.000000 0.000000 0.000000 0.000000 0.064262 0.000000
# 6 0.000000 0.000000 0.000000 0.000000 0.000000 0.049215
#
#
# Mechanical properties :
#
#
# Convention : Reuss Voigt Hill
#
# Bulk Modulus (GPa) = 9.50211 65.86071 37.68141
# Shear Modulus (GPa) = 11.89387 25.11381 18.50384
#
# Velocity S-wave (km/s) = 2.55454 3.71199 3.18626
# Velocity P-wave (km/s) = 3.73019 7.38288 5.84898
#
# Compressibility (1/GPa) = 0.10523981
#
# Stress axis : x y z
#
# Youngs Moduli (GPa) = 6.79859 108.08361 85.79654
#
# Poissons Ratio (x) = 1.44579 1.22944
# Poissons Ratio (y) = 0.09094 0.31506
# Poissons Ratio (z) = 0.09742 0.39691
#
# Static dielectric constant tensor:
#      x y z
#    x 2.715250 0.000000 0.000000 
#    y 0.000000 3.800510 0.000000 
#    z 0.000000 0.000000 3.494820 
# 
# 
# High freq. dielectric constant tensor:
#      x y z
#    x 1.637880 0.000000 0.000000 
#    y 0.000000 1.730180 0.000000 
#    z 0.000000 0.000000 1.699500 
# 
# From -- ./inp_files/43878.got.cif
#   From: 2010.03.12/outbox.cif.g09.slc.cpg/sg69_22_cif.got.tgz:43878.got - 2010.04.10 23:52:46.
