data_PCOD8284598
_publ_section_title
;
Structure prediction by ZEFSAII (Michael W. Deem and Ramdas Pophale) SiO2 
 PCOD8284598
Probable space group: F M M M
;
_chemical_formula_sum "Si O2"
_cell_formula_units_Z 112
_cell_length_a 8.984629
_cell_length_b 25.683479
_cell_length_c 28.615254
_cell_angle_alpha 90.000000
_cell_angle_beta 90.000000
_cell_angle_gamma 90.000000
_cell_volume 6603.156725
_symmetry_space_group_name_H-M "F M M M"
_symmetry_group_IT_number 69
_symmetry_cell_setting 'orthorhombic'
loop_
_space_group_symop_operation_xyz
x,y,z
-x,-y,z
x,-y,-z
-x,y,-z
-x,-y,-z
x,y,-z
-x,y,z
x,-y,z
x,1/2+y,1/2+z
-x,1/2-y,1/2+z
x,1/2-y,1/2-z
-x,1/2+y,1/2-z
-x,1/2-y,1/2-z
x,1/2+y,1/2-z
-x,1/2+y,1/2+z
x,1/2-y,1/2+z
1/2+x,y,1/2+z
1/2-x,-y,1/2+z
1/2+x,-y,1/2-z
1/2-x,y,1/2-z
1/2-x,-y,1/2-z
1/2+x,y,1/2-z
1/2-x,y,1/2+z
1/2+x,-y,1/2+z
1/2+x,1/2+y,z
1/2-x,1/2-y,z
1/2+x,1/2-y,-z
1/2-x,1/2+y,-z
1/2-x,1/2-y,-z
1/2+x,1/2+y,-z
1/2-x,1/2+y,z
1/2+x,1/2-y,z
loop_
_atom_site_type_symbol
_atom_site_label
_atom_site_fract_x
_atom_site_fract_y
_atom_site_fract_z
Si Si1 0.676585 0.303323 0.299033
Si Si2 0.675070 0.940911 0.447692
Si Si3 0.673968 0.401923 0.640078
Si Si4 0.176372 0.000000 0.300159
O O1 0.500000 0.296537 0.292386
O O2 0.750000 0.319389 0.250000
O O3 0.750000 0.250000 0.317526
O O4 0.716501 0.347557 0.336196
O O5 0.719671 0.922975 0.500000
O O6 0.500000 0.937712 0.440981
O O7 0.751356 0.902730 0.410738
O O8 0.730384 0.000000 0.439281
O O9 0.500000 0.407813 0.632616
O O10 0.732866 0.449168 0.672104
O O11 0.250000 0.000000 0.250000
O O12 0.000000 0.000000 0.293590
#
# Coordination Sequence:
#
# PCOD8284598 Si02
#       4
#    32  32  32  16
#     4  10  20  34  52  74  99 131 171 210 246 291
#     4   9  18  32  50  74 102 131 165 202 243 296
#     4  10  20  33  50  73 101 131 165 203 246 295
#     4  10  20  32  45  68 101 131 160 195 239 292
#
# _framework density 16.961583000000001
#
# number of rings (size 3 to 8) (size 9 to 14) (size 15 to 20)
#    0.000    2.286    1.429    3.429    0.000    4.000 
#    0.000    1.429    0.000    0.857    0.000    0.000 
#    0.000    0.000    0.000    0.000    0.000    0.000 
#
# Total GULP energy -347224.433065 kJ/mol
# GULP energy per Si atom -12400.872609 kJ/mol
# Density = 1.692298 g / cm^3
# Si number density = 16.961583 Si / 1000 Ang^3
#
#
#
# Elastic Constant Matrix: (Units=GPa)
#
#
# Indices 1 2 3 4 5 6 
#
# 1 54.7343 49.5212 53.1877 0.0000 0.0000 0.0000
# 2 49.5212 116.6287 85.5456 0.0000 0.0000 0.0000
# 3 53.1877 85.5456 152.0056 0.0000 0.0000 0.0000
# 4 0.0000 0.0000 0.0000 28.6992 0.0000 0.0000
# 5 0.0000 0.0000 0.0000 0.0000 35.0616 0.0000
# 6 0.0000 0.0000 0.0000 0.0000 0.0000 25.8963
#
#
#
# Elastic Compliance Matrix: (Units=1/GPa)
#
#
# Indices 1 2 3 4 5 6 
#
# 1 0.032764 -0.009371 -0.006191 0.000000 0.000000 0.000000
# 2 -0.009371 0.017282 -0.006447 0.000000 0.000000 0.000000
# 3 -0.006191 -0.006447 0.012373 0.000000 0.000000 0.000000
# 4 0.000000 0.000000 0.000000 0.034844 0.000000 0.000000
# 5 0.000000 0.000000 0.000000 0.000000 0.028521 0.000000
# 6 0.000000 0.000000 0.000000 0.000000 0.000000 0.038616
#
#
# Mechanical properties :
#
#
# Convention : Reuss Voigt Hill
#
# Bulk Modulus (GPa) = 54.34181 77.76419 66.05300
# Shear Modulus (GPa) = 23.30438 26.93901 25.12170
#
# Velocity S-wave (km/s) = 3.71071 3.98959 3.85267
# Velocity P-wave (km/s) = 7.10400 8.19568 7.66929
#
# Compressibility (1/GPa) = 0.01840204
#
# Stress axis : x y z
#
# Youngs Moduli (GPa) = 30.52090 57.86354 80.82125
#
# Poissons Ratio (x) = 0.54226 0.50032
# Poissons Ratio (y) = 0.28602 0.52105
# Poissons Ratio (z) = 0.18894 0.37304
#
# Static dielectric constant tensor:
#      x y z
#    x 3.103500 0.000000 0.000000 
#    y 0.000000 3.163080 0.000000 
#    z 0.000000 0.000000 3.185400 
# 
# 
# High freq. dielectric constant tensor:
#      x y z
#    x 1.654560 0.000000 0.000000 
#    y 0.000000 1.640940 0.000000 
#    z 0.000000 0.000000 1.654920 
# 
# From -- ./inp_files/3730.got.cif
#   From: 2010.03.12/outbox.cif.g09.slc.cpg/sg69_2_cif.got.tgz:3730.got - 2010.04.10 23:52:46.
