data_PCOD8284049
_publ_section_title
;
Structure prediction by ZEFSAII (Michael W. Deem and Ramdas Pophale) SiO2 
 PCOD8284049
Probable space group: F M M M
;
_chemical_formula_sum "Si O2"
_cell_formula_units_Z 112
_cell_length_a 15.178744
_cell_length_b 36.024182
_cell_length_c 9.983340
_cell_angle_alpha 90.000000
_cell_angle_beta 90.000000
_cell_angle_gamma 90.000000
_cell_volume 5458.908645
_symmetry_space_group_name_H-M "F M M M"
_symmetry_group_IT_number 69
_symmetry_cell_setting 'orthorhombic'
loop_
_space_group_symop_operation_xyz
x,y,z
-x,-y,z
x,-y,-z
-x,y,-z
-x,-y,-z
x,y,-z
-x,y,z
x,-y,z
x,1/2+y,1/2+z
-x,1/2-y,1/2+z
x,1/2-y,1/2-z
-x,1/2+y,1/2-z
-x,1/2-y,1/2-z
x,1/2+y,1/2-z
-x,1/2+y,1/2+z
x,1/2-y,1/2+z
1/2+x,y,1/2+z
1/2-x,-y,1/2+z
1/2+x,-y,1/2-z
1/2-x,y,1/2-z
1/2-x,-y,1/2-z
1/2+x,y,1/2-z
1/2-x,y,1/2+z
1/2+x,-y,1/2+z
1/2+x,1/2+y,z
1/2-x,1/2-y,z
1/2+x,1/2-y,-z
1/2-x,1/2+y,-z
1/2-x,1/2-y,-z
1/2+x,1/2+y,-z
1/2-x,1/2+y,z
1/2+x,1/2-y,z
loop_
_atom_site_type_symbol
_atom_site_label
_atom_site_fract_x
_atom_site_fract_y
_atom_site_fract_z
Si Si1 0.104137 0.777569 0.000000
Si Si2 0.395765 0.835238 0.718953
Si Si3 0.395564 0.304913 0.500000
Si Si4 0.500000 0.458298 0.841128
Si Si5 0.670828 0.585403 0.154230
O O1 0.134130 0.799812 0.131944
O O2 0.146786 0.736425 0.000000
O O3 0.000000 0.773258 0.000000
O O4 0.500000 0.841939 0.706509
O O5 0.364531 0.827789 0.870519
O O6 0.345943 0.870854 0.663649
O O7 0.500000 0.300910 0.500000
O O8 0.500000 0.500000 0.782623
O O9 0.586318 0.436803 0.790427
O O10 0.500000 0.458696 0.000000
O O11 0.750000 0.572998 0.250000
O O12 0.692660 0.575156 0.000000
#
# Coordination Sequence:
#
# PCOD8284049 Si02
#       5
#    16  32  16  16  32
#     4   9  16  28  51  79 113 155 209 258 303 362
#     4  10  18  32  55  81 116 161 204 255 303 360
#     4   9  18  28  47  85 117 151 205 262 313 350
#     4   9  20  42  71  97 124 160 201 240 293 367
#     4  11  23  39  63  94 125 163 203 247 299 357
#
# _framework density 20.516922000000001
#
# number of rings (size 3 to 8) (size 9 to 14) (size 15 to 20)
#    0.000    2.143    2.857    0.857    2.000    4.000 
#    0.000    0.714    0.000    6.000    0.000    0.000 
#    0.000    0.000    0.000    0.000    0.000    0.000 
#
# Total GULP energy -347236.684810 kJ/mol
# GULP energy per Si atom -12401.310172 kJ/mol
# Density = 2.047022 g / cm^3
# Si number density = 20.516922 Si / 1000 Ang^3
#
#
#
# Elastic Constant Matrix: (Units=GPa)
#
#
# Indices 1 2 3 4 5 6 
#
# 1 95.0493 36.2367 37.6718 0.0000 0.0000 0.0000
# 2 36.2367 97.5479 18.4917 0.0000 0.0000 0.0000
# 3 37.6718 18.4917 124.5937 0.0000 0.0000 0.0000
# 4 0.0000 0.0000 0.0000 13.6905 0.0000 0.0000
# 5 0.0000 0.0000 0.0000 0.0000 25.7676 0.0000
# 6 0.0000 0.0000 0.0000 0.0000 0.0000 5.0814
#
#
#
# Elastic Compliance Matrix: (Units=1/GPa)
#
#
# Indices 1 2 3 4 5 6 
#
# 1 0.013559 -0.004383 -0.003449 0.000000 0.000000 0.000000
# 2 -0.004383 0.011965 -0.000451 0.000000 0.000000 0.000000
# 3 -0.003449 -0.000451 0.009136 0.000000 0.000000 0.000000
# 4 0.000000 0.000000 0.000000 0.073044 0.000000 0.000000
# 5 0.000000 0.000000 0.000000 0.000000 0.038808 0.000000
# 6 0.000000 0.000000 0.000000 0.000000 0.000000 0.196796
#
#
# Mechanical properties :
#
#
# Convention : Reuss Voigt Hill
#
# Bulk Modulus (GPa) = 55.26592 55.77682 55.52137
# Shear Modulus (GPa) = 13.66478 23.89394 18.77936
#
# Velocity S-wave (km/s) = 2.58355 3.41632 3.02869
# Velocity P-wave (km/s) = 5.99123 6.54266 6.27301
#
# Compressibility (1/GPa) = 0.01809433
#
# Stress axis : x y z
#
# Youngs Moduli (GPa) = 73.75270 83.57749 109.45924
#
# Poissons Ratio (x) = 0.36632 0.37754
# Poissons Ratio (y) = 0.32325 0.04932
# Poissons Ratio (z) = 0.25438 0.03766
#
# Static dielectric constant tensor:
#      x y z
#    x 3.529460 0.000000 0.000000 
#    y 0.000000 3.747750 0.000000 
#    z 0.000000 0.000000 3.755200 
# 
# 
# High freq. dielectric constant tensor:
#      x y z
#    x 1.784970 0.000000 0.000000 
#    y 0.000000 1.796010 0.000000 
#    z 0.000000 0.000000 1.793980 
# 
# From -- ./inp_files/7429.got.cif
#   From: 2010.03.12/outbox.cif.g09.slc.cpg/sg69_4_cif.got.tgz:7429.got - 2010.04.10 23:52:46.
