data_PCOD8284147
_publ_section_title
;
Structure prediction by ZEFSAII (Michael W. Deem and Ramdas Pophale) SiO2 
 PCOD8284147
Probable space group: F M M M
;
_chemical_formula_sum "Si O2"
_cell_formula_units_Z 208
_cell_length_a 17.009483
_cell_length_b 28.368751
_cell_length_c 25.257266
_cell_angle_alpha 90.000000
_cell_angle_beta 90.000000
_cell_angle_gamma 90.000000
_cell_volume 12187.585263
_symmetry_space_group_name_H-M "F M M M"
_symmetry_group_IT_number 69
_symmetry_cell_setting 'orthorhombic'
loop_
_space_group_symop_operation_xyz
x,y,z
-x,-y,z
x,-y,-z
-x,y,-z
-x,-y,-z
x,y,-z
-x,y,z
x,-y,z
x,1/2+y,1/2+z
-x,1/2-y,1/2+z
x,1/2-y,1/2-z
-x,1/2+y,1/2-z
-x,1/2-y,1/2-z
x,1/2+y,1/2-z
-x,1/2+y,1/2+z
x,1/2-y,1/2+z
1/2+x,y,1/2+z
1/2-x,-y,1/2+z
1/2+x,-y,1/2-z
1/2-x,y,1/2-z
1/2-x,-y,1/2-z
1/2+x,y,1/2-z
1/2-x,y,1/2+z
1/2+x,-y,1/2+z
1/2+x,1/2+y,z
1/2-x,1/2-y,z
1/2+x,1/2-y,-z
1/2-x,1/2+y,-z
1/2-x,1/2-y,-z
1/2+x,1/2+y,-z
1/2-x,1/2+y,z
1/2+x,1/2-y,z
loop_
_atom_site_type_symbol
_atom_site_label
_atom_site_fract_x
_atom_site_fract_y
_atom_site_fract_z
Si Si1 0.500000 0.054921 0.061445
Si Si2 0.171115 0.444662 0.062207
Si Si3 0.679693 0.827648 0.788703
Si Si4 0.411476 0.360125 0.803028
Si Si5 0.676259 0.216189 0.558945
Si Si6 0.412583 0.254378 0.157369
Si Si7 0.722851 0.874342 0.377916
O O1 0.415503 0.074328 0.083173
O O2 0.500000 0.000000 0.072514
O O3 0.500000 0.065755 0.000000
O O4 0.178964 0.500000 0.073385
O O5 0.242389 0.419706 0.092707
O O6 0.179312 0.434016 0.000000
O O7 0.750000 0.812875 0.750000
O O8 0.619646 0.862617 0.757471
O O9 0.641894 0.779526 0.808834
O O10 0.710036 0.855662 0.839189
O O11 0.500000 0.380422 0.807406
O O12 0.407569 0.305010 0.815898
O O13 0.355138 0.388442 0.843876
O O14 0.640559 0.210949 0.500000
O O15 0.750000 0.250000 0.558166
O O16 0.612053 0.240706 0.596268
O O17 0.700902 0.164722 0.578940
O O18 0.500000 0.233522 0.158890
#
# Coordination Sequence:
#
# PCOD8284147 Si02
#       7
#    16  32  32  32  32  32  32
#     4   7  12  26  48  72 100 128 149 178 230 288
#     4   9  17  32  54  78 102 127 158 198 240 288
#     4  10  19  30  47  69  98 124 163 207 251 286
#     4   9  19  32  48  67  94 131 168 206 248 290
#     4  10  19  31  45  63  96 135 162 189 230 286
#     4  10  19  31  47  68  92 127 171 208 242 280
#     4  10  19  31  50  74  96 126 167 200 242 294
#
# _framework density 17.066547
#
# number of rings (size 3 to 8) (size 9 to 14) (size 15 to 20)
#    0.000    2.538    1.538    2.308    0.000    4.615 
#    2.769    0.000    0.000    6.000    0.000    1.077 
#    0.000    0.000    0.000    0.000    0.000    0.000 
#
# Total GULP energy -644397.082242 kJ/mol
# GULP energy per Si atom -12392.251582 kJ/mol
# Density = 1.702770 g / cm^3
# Si number density = 17.066547 Si / 1000 Ang^3
#
#
#
# Elastic Constant Matrix: (Units=GPa)
#
#
# Indices 1 2 3 4 5 6 
#
# 1 121.2172 34.9159 40.3747 0.0000 0.0000 0.0000
# 2 34.9159 41.1720 23.8556 0.0000 0.0000 0.0000
# 3 40.3747 23.8556 89.7572 0.0000 0.0000 0.0000
# 4 0.0000 0.0000 0.0000 24.4276 0.0000 0.0000
# 5 0.0000 0.0000 0.0000 0.0000 16.7058 0.0000
# 6 0.0000 0.0000 0.0000 0.0000 0.0000 14.2931
#
#
#
# Elastic Compliance Matrix: (Units=1/GPa)
#
#
# Indices 1 2 3 4 5 6 
#
# 1 0.011592 -0.008049 -0.003075 0.000000 0.000000 0.000000
# 2 -0.008049 0.034298 -0.005495 0.000000 0.000000 0.000000
# 3 -0.003075 -0.005495 0.013985 0.000000 0.000000 0.000000
# 4 0.000000 0.000000 0.000000 0.040937 0.000000 0.000000
# 5 0.000000 0.000000 0.000000 0.000000 0.059859 0.000000
# 6 0.000000 0.000000 0.000000 0.000000 0.000000 0.069964
#
#
# Mechanical properties :
#
#
# Convention : Reuss Voigt Hill
#
# Bulk Modulus (GPa) = 37.54206 50.04877 43.79541
# Shear Modulus (GPa) = 18.33151 21.28531 19.80841
#
# Velocity S-wave (km/s) = 3.28093 3.53540 3.41054
# Velocity P-wave (km/s) = 6.03307 6.78636 6.42077
#
# Compressibility (1/GPa) = 0.02663679
#
# Stress axis : x y z
#
# Youngs Moduli (GPa) = 86.26299 29.15588 71.50537
#
# Poissons Ratio (x) = 0.23468 0.21990
# Poissons Ratio (y) = 0.69434 0.39293
# Poissons Ratio (z) = 0.26528 0.16022
#
# Static dielectric constant tensor:
#      x y z
#    x 3.455920 0.000000 0.000000 
#    y 0.000000 2.696040 0.000000 
#    z 0.000000 0.000000 3.439390 
# 
# 
# High freq. dielectric constant tensor:
#      x y z
#    x 1.668120 0.000000 0.000000 
#    y 0.000000 1.606410 0.000000 
#    z 0.000000 0.000000 1.662400 
# 
# From -- ./inp_files/36805.got.cif
#   From: 2010.03.12/outbox.cif.g09.slc.cpg/sg69_19_cif.got.tgz:36805.got - 2010.04.10 23:52:46.
