data_PCOD8284009
_publ_section_title
;
Structure prediction by ZEFSAII (Michael W. Deem and Ramdas Pophale) SiO2 
 PCOD8284009
Probable space group: F M M M
;
_chemical_formula_sum "Si O2"
_cell_formula_units_Z 160
_cell_length_a 34.172356
_cell_length_b 14.775288
_cell_length_c 17.057606
_cell_angle_alpha 90.000000
_cell_angle_beta 90.000000
_cell_angle_gamma 90.000000
_cell_volume 8612.494464
_symmetry_space_group_name_H-M "F M M M"
_symmetry_group_IT_number 69
_symmetry_cell_setting 'orthorhombic'
loop_
_space_group_symop_operation_xyz
x,y,z
-x,-y,z
x,-y,-z
-x,y,-z
-x,-y,-z
x,y,-z
-x,y,z
x,-y,z
x,1/2+y,1/2+z
-x,1/2-y,1/2+z
x,1/2-y,1/2-z
-x,1/2+y,1/2-z
-x,1/2-y,1/2-z
x,1/2+y,1/2-z
-x,1/2+y,1/2+z
x,1/2-y,1/2+z
1/2+x,y,1/2+z
1/2-x,-y,1/2+z
1/2+x,-y,1/2-z
1/2-x,y,1/2-z
1/2-x,-y,1/2-z
1/2+x,y,1/2-z
1/2-x,y,1/2+z
1/2+x,-y,1/2+z
1/2+x,1/2+y,z
1/2-x,1/2-y,z
1/2+x,1/2-y,-z
1/2-x,1/2+y,-z
1/2-x,1/2-y,-z
1/2+x,1/2+y,-z
1/2-x,1/2+y,z
1/2+x,1/2-y,z
loop_
_atom_site_type_symbol
_atom_site_label
_atom_site_fract_x
_atom_site_fract_y
_atom_site_fract_z
Si Si1 0.000000 0.897250 0.406376
Si Si2 0.130236 0.500000 0.086594
Si Si3 0.419441 0.181802 0.088603
Si Si4 0.637178 0.809799 0.321681
Si Si5 0.145167 0.500000 0.738982
Si Si6 0.218827 0.679115 0.591962
Si Si7 0.271444 0.500000 0.168723
O O1 0.962153 0.841723 0.376410
O O2 0.000000 0.903394 0.500000
O O3 0.000000 0.000000 0.372488
O O4 0.104417 0.410917 0.091382
O O5 0.155818 0.500000 0.167052
O O6 0.152300 0.500000 0.000000
O O7 0.399920 0.262791 0.137404
O O8 0.422773 0.217432 0.000000
O O9 0.651866 0.750000 0.250000
O O10 0.622904 0.908278 0.288850
O O11 0.674640 0.811325 0.377960
O O12 0.183411 0.500000 0.687765
O O13 0.215733 0.689263 0.500000
O O14 0.250000 0.750000 0.627155
O O15 0.238919 0.585479 0.615956
O O16 0.250000 0.500000 0.250000
#
# Coordination Sequence:
#
# PCOD8284009 Si02
#       7
#    16  16  32  32  16  32  16
#     4   9  16  30  55  87 121 155 187 235 295 348
#     4  10  18  31  55  83 113 139 180 235 283 331
#     4  10  19  33  56  86 116 149 190 236 285 338
#     4  11  22  36  59  82 114 151 192 236 286 352
#     4  10  22  39  53  81 112 154 186 228 287 346
#     4  10  23  40  59  83 113 148 191 238 285 339
#     4  10  23  37  60  81 110 150 191 230 284 343
#
# _framework density 18.577660999999999
#
# number of rings (size 3 to 8) (size 9 to 14) (size 15 to 20)
#    0.000    1.900    3.000    0.900    5.600    0.000 
#    0.000    3.000    0.000    0.600    0.000    2.100 
#    0.000    0.000    0.000    0.000    0.000    0.200 
#
# Total GULP energy -495632.375480 kJ/mol
# GULP energy per Si atom -12390.809387 kJ/mol
# Density = 1.853538 g / cm^3
# Si number density = 18.577661 Si / 1000 Ang^3
#
#
#
# Elastic Constant Matrix: (Units=GPa)
#
#
# Indices 1 2 3 4 5 6 
#
# 1 70.6866 50.7871 26.7805 0.0000 0.0000 0.0000
# 2 50.7871 153.7160 48.3393 0.0000 0.0000 0.0000
# 3 26.7805 48.3393 81.6750 0.0000 0.0000 0.0000
# 4 0.0000 0.0000 0.0000 24.0966 0.0000 0.0000
# 5 0.0000 0.0000 0.0000 0.0000 20.2588 0.0000
# 6 0.0000 0.0000 0.0000 0.0000 0.0000 18.6645
#
#
#
# Elastic Compliance Matrix: (Units=1/GPa)
#
#
# Indices 1 2 3 4 5 6 
#
# 1 0.019176 -0.005355 -0.003118 0.000000 0.000000 0.000000
# 2 -0.005355 0.009489 -0.003860 0.000000 0.000000 0.000000
# 3 -0.003118 -0.003860 0.015551 0.000000 0.000000 0.000000
# 4 0.000000 0.000000 0.000000 0.041500 0.000000 0.000000
# 5 0.000000 0.000000 0.000000 0.000000 0.049361 0.000000
# 6 0.000000 0.000000 0.000000 0.000000 0.000000 0.053578
#
#
# Mechanical properties :
#
#
# Convention : Reuss Voigt Hill
#
# Bulk Modulus (GPa) = 51.15447 61.98792 56.57120
# Shear Modulus (GPa) = 22.74420 24.61535 23.67978
#
# Velocity S-wave (km/s) = 3.50276 3.64400 3.57408
# Velocity P-wave (km/s) = 6.62981 7.15153 6.89560
#
# Compressibility (1/GPa) = 0.01954863
#
# Stress axis : x y z
#
# Youngs Moduli (GPa) = 52.14908 105.38930 64.30612
#
# Poissons Ratio (x) = 0.56436 0.20052
# Poissons Ratio (y) = 0.27926 0.24822
# Poissons Ratio (z) = 0.16261 0.40680
#
# Static dielectric constant tensor:
#      x y z
#    x 3.249210 0.000000 0.000000 
#    y 0.000000 3.897210 0.000000 
#    z 0.000000 0.000000 3.510130 
# 
# 
# High freq. dielectric constant tensor:
#      x y z
#    x 1.698110 0.000000 0.000000 
#    y 0.000000 1.730170 0.000000 
#    z 0.000000 0.000000 1.720670 
# 
# From -- ./inp_files/27544.got.cif
#   From: 2010.03.12/outbox.cif.g09.slc.cpg/sg69_14_cif.got.tgz:27544.got - 2010.04.10 23:52:46.
