data_PCOD8284858
_publ_section_title
;
Structure prediction by ZEFSAII (Michael W. Deem and Ramdas Pophale) SiO2 
 PCOD8284858
Probable space group: F M M M
;
_chemical_formula_sum "Si O2"
_cell_formula_units_Z 160
_cell_length_a 23.716117
_cell_length_b 26.898702
_cell_length_c 13.776057
_cell_angle_alpha 90.000000
_cell_angle_beta 90.000000
_cell_angle_gamma 90.000000
_cell_volume 8788.198116
_symmetry_space_group_name_H-M "F M M M"
_symmetry_group_IT_number 69
_symmetry_cell_setting 'orthorhombic'
loop_
_space_group_symop_operation_xyz
x,y,z
-x,-y,z
x,-y,-z
-x,y,-z
-x,-y,-z
x,y,-z
-x,y,z
x,-y,z
x,1/2+y,1/2+z
-x,1/2-y,1/2+z
x,1/2-y,1/2-z
-x,1/2+y,1/2-z
-x,1/2-y,1/2-z
x,1/2+y,1/2-z
-x,1/2+y,1/2+z
x,1/2-y,1/2+z
1/2+x,y,1/2+z
1/2-x,-y,1/2+z
1/2+x,-y,1/2-z
1/2-x,y,1/2-z
1/2-x,-y,1/2-z
1/2+x,y,1/2-z
1/2-x,y,1/2+z
1/2+x,-y,1/2+z
1/2+x,1/2+y,z
1/2-x,1/2-y,z
1/2+x,1/2-y,-z
1/2-x,1/2+y,-z
1/2-x,1/2-y,-z
1/2+x,1/2+y,-z
1/2-x,1/2+y,z
1/2+x,1/2-y,z
loop_
_atom_site_type_symbol
_atom_site_label
_atom_site_fract_x
_atom_site_fract_y
_atom_site_fract_z
Si Si1 0.808704 0.272577 0.610926
Si Si2 0.500000 0.193001 0.777670
Si Si3 0.315109 0.869732 0.732994
Si Si4 0.113849 0.557407 0.612219
Si Si5 0.500000 0.885208 0.611533
Si Si6 0.114751 0.678589 0.112048
O O1 0.800456 0.289179 0.500000
O O2 0.750000 0.250000 0.651030
O O3 0.826995 0.320332 0.670969
O O4 0.858248 0.233037 0.623756
O O5 0.500000 0.250000 0.750000
O O6 0.500000 0.163685 0.676644
O O7 0.446529 0.178512 0.841547
O O8 0.250000 0.879674 0.750000
O O9 0.338377 0.917368 0.677106
O O10 0.346244 0.862628 0.835934
O O11 0.130114 0.564427 0.500000
O O12 0.110507 0.500000 0.641157
O O13 0.053859 0.581534 0.635684
O O14 0.500000 0.867196 0.500000
O O15 0.110735 0.663093 0.000000
#
# Coordination Sequence:
#
# PCOD8284858 Si02
#       6
#    32  16  32  32  16  32
#     4  10  20  35  55  83 119 157 198 239 281 344
#     4  12  23  40  59  86 126 163 190 237 291 352
#     4  12  22  35  60  87 120 156 200 243 292 349
#     4  10  22  41  64  90 116 145 191 253 314 359
#     4  10  21  39  66  93 114 148 195 246 300 359
#     4  11  24  38  55  84 122 165 204 238 281 346
#
# _framework density 18.206235
#
# number of rings (size 3 to 8) (size 9 to 14) (size 15 to 20)
#    0.000    1.200    4.000    3.000    0.000    3.200 
#    0.000    0.000    0.000    0.600    0.000    1.400 
#    0.000    0.000    0.000    0.000    0.000    0.000 
#
# Total GULP energy -496242.248379 kJ/mol
# GULP energy per Si atom -12406.056209 kJ/mol
# Density = 1.816480 g / cm^3
# Si number density = 18.206235 Si / 1000 Ang^3
#
#
#
# Elastic Constant Matrix: (Units=GPa)
#
#
# Indices 1 2 3 4 5 6 
#
# 1 148.6041 48.5613 65.7721 0.0000 0.0000 0.0000
# 2 48.5613 115.4923 69.4232 0.0000 0.0000 0.0000
# 3 65.7721 69.4232 123.4788 0.0000 0.0000 0.0000
# 4 0.0000 0.0000 0.0000 26.4114 0.0000 0.0000
# 5 0.0000 0.0000 0.0000 0.0000 21.8509 0.0000
# 6 0.0000 0.0000 0.0000 0.0000 0.0000 17.2321
#
#
#
# Elastic Compliance Matrix: (Units=1/GPa)
#
#
# Indices 1 2 3 4 5 6 
#
# 1 0.008943 -0.001355 -0.004002 0.000000 0.000000 0.000000
# 2 -0.001355 0.013284 -0.006747 0.000000 0.000000 0.000000
# 3 -0.004002 -0.006747 0.014024 0.000000 0.000000 0.000000
# 4 0.000000 0.000000 0.000000 0.037862 0.000000 0.000000
# 5 0.000000 0.000000 0.000000 0.000000 0.045765 0.000000
# 6 0.000000 0.000000 0.000000 0.000000 0.000000 0.058031
#
#
# Mechanical properties :
#
#
# Convention : Reuss Voigt Hill
#
# Bulk Modulus (GPa) = 83.03381 83.89869 83.46625
# Shear Modulus (GPa) = 24.25642 26.68679 25.47161
#
# Velocity S-wave (km/s) = 3.65405 3.83274 3.74446
# Velocity P-wave (km/s) = 7.96926 8.10980 8.03984
#
# Compressibility (1/GPa) = 0.01204329
#
# Stress axis : x y z
#
# Youngs Moduli (GPa) = 111.81545 75.27943 71.30833
#
# Poissons Ratio (x) = 0.10198 0.28538
# Poissons Ratio (y) = 0.15148 0.48111
# Poissons Ratio (z) = 0.44749 0.50791
#
# Static dielectric constant tensor:
#      x y z
#    x 3.513550 0.000000 0.000000 
#    y 0.000000 3.214700 0.000000 
#    z 0.000000 0.000000 3.571980 
# 
# 
# High freq. dielectric constant tensor:
#      x y z
#    x 1.720830 0.000000 0.000000 
#    y 0.000000 1.681440 0.000000 
#    z 0.000000 0.000000 1.716520 
# 
# From -- ./inp_files/17754.got.cif
#   From: 2010.03.12/outbox.cif.g09.slc.cpg/sg69_9_cif.got.tgz:17754.got - 2010.04.10 23:52:46.
