data_PCOD8284237
_publ_section_title
;
Structure prediction by ZEFSAII (Michael W. Deem and Ramdas Pophale) SiO2 
 PCOD8284237
Probable space group: F M M M
;
_chemical_formula_sum "Si O2"
_cell_formula_units_Z 120
_cell_length_a 25.970292
_cell_length_b 14.563966
_cell_length_c 16.594808
_cell_angle_alpha 90.000000
_cell_angle_beta 90.000000
_cell_angle_gamma 90.000000
_cell_volume 6276.661692
_symmetry_space_group_name_H-M "F M M M"
_symmetry_group_IT_number 69
_symmetry_cell_setting 'orthorhombic'
loop_
_space_group_symop_operation_xyz
x,y,z
-x,-y,z
x,-y,-z
-x,y,-z
-x,-y,-z
x,y,-z
-x,y,z
x,-y,z
x,1/2+y,1/2+z
-x,1/2-y,1/2+z
x,1/2-y,1/2-z
-x,1/2+y,1/2-z
-x,1/2-y,1/2-z
x,1/2+y,1/2-z
-x,1/2+y,1/2+z
x,1/2-y,1/2+z
1/2+x,y,1/2+z
1/2-x,-y,1/2+z
1/2+x,-y,1/2-z
1/2-x,y,1/2-z
1/2-x,-y,1/2-z
1/2+x,y,1/2-z
1/2-x,y,1/2+z
1/2+x,-y,1/2+z
1/2+x,1/2+y,z
1/2-x,1/2-y,z
1/2+x,1/2-y,-z
1/2-x,1/2+y,-z
1/2-x,1/2-y,-z
1/2+x,1/2+y,-z
1/2-x,1/2+y,z
1/2+x,1/2-y,z
loop_
_atom_site_type_symbol
_atom_site_label
_atom_site_fract_x
_atom_site_fract_y
_atom_site_fract_z
Si Si1 0.296534 0.813760 0.405011
Si Si2 0.500000 0.000000 0.849130
Si Si3 0.612896 0.000000 0.815383
Si Si4 0.797996 0.500000 0.308992
Si Si5 0.389492 0.687495 0.596057
Si Si6 0.000000 0.805339 0.410355
O O1 0.293623 0.828557 0.500000
O O2 0.250000 0.750000 0.374644
O O3 0.293562 0.911744 0.364601
O O4 0.349096 0.764452 0.378170
O O5 0.551642 0.000000 0.793452
O O6 0.500000 0.084358 0.910529
O O7 0.627139 0.090288 0.866655
O O8 0.646934 0.000000 0.735113
O O9 0.750000 0.500000 0.250000
O O10 0.391992 0.673891 0.500000
O O11 0.445447 0.723872 0.630203
O O12 0.000000 0.765649 0.500000
#
# Coordination Sequence:
#
# PCOD8284237 Si02
#       6
#    32   8  16  16  32  16
#     4  10  22  40  59  77 100 133 173 215 258 307
#     4   8  15  28  44  72 111 144 172 204 254 306
#     4  10  19  31  52  81 112 142 172 212 259 307
#     4  12  25  38  55  78 106 137 169 211 259 311
#     4   9  17  31  53  80 109 140 175 215 257 302
#     4   8  13  24  47  77 105 135 174 217 255 292
#
# _framework density 19.118442000000002
#
# number of rings (size 3 to 8) (size 9 to 14) (size 15 to 20)
#    0.000    2.400    0.000    2.600    0.000    6.933 
#    0.000    6.667    0.000    4.800    0.000    5.600 
#    0.000    0.000    0.000    0.000    0.000    0.000 
#
# Total GULP energy -371758.815501 kJ/mol
# GULP energy per Si atom -12391.960517 kJ/mol
# Density = 1.907493 g / cm^3
# Si number density = 19.118442 Si / 1000 Ang^3
#
#
#
# Elastic Constant Matrix: (Units=GPa)
#
#
# Indices 1 2 3 4 5 6 
#
# 1 164.8997 81.1805 41.4783 0.0000 0.0000 0.0000
# 2 81.1805 149.0369 45.4178 0.0000 0.0000 0.0000
# 3 41.4783 45.4178 38.6601 0.0000 0.0000 0.0000
# 4 0.0000 0.0000 0.0000 7.0117 0.0000 0.0000
# 5 0.0000 0.0000 0.0000 0.0000 21.4740 0.0000
# 6 0.0000 0.0000 0.0000 0.0000 0.0000 29.5482
#
#
#
# Elastic Compliance Matrix: (Units=1/GPa)
#
#
# Indices 1 2 3 4 5 6 
#
# 1 0.009142 -0.003101 -0.006165 0.000000 0.000000 0.000000
# 2 -0.003101 0.011503 -0.010187 0.000000 0.000000 0.000000
# 3 -0.006165 -0.010187 0.044449 0.000000 0.000000 0.000000
# 4 0.000000 0.000000 0.000000 0.142618 0.000000 0.000000
# 5 0.000000 0.000000 0.000000 0.000000 0.046568 0.000000
# 6 0.000000 0.000000 0.000000 0.000000 0.000000 0.033843
#
#
# Mechanical properties :
#
#
# Convention : Reuss Voigt Hill
#
# Bulk Modulus (GPa) = 38.18622 76.52778 57.35700
# Shear Modulus (GPa) = 14.89164 23.90813 19.39988
#
# Velocity S-wave (km/s) = 2.79393 3.54012 3.18892
# Velocity P-wave (km/s) = 5.51588 7.53824 6.60492
#
# Compressibility (1/GPa) = 0.02618746
#
# Stress axis : x y z
#
# Youngs Moduli (GPa) = 109.39104 86.93318 22.49759
#
# Poissons Ratio (x) = 0.26954 0.13871
# Poissons Ratio (y) = 0.33917 0.22919
# Poissons Ratio (z) = 0.67444 0.88561
#
# Static dielectric constant tensor:
#      x y z
#    x 4.118040 0.000000 0.000000 
#    y 0.000000 3.287790 0.000000 
#    z 0.000000 0.000000 3.140330 
# 
# 
# High freq. dielectric constant tensor:
#      x y z
#    x 1.772280 0.000000 0.000000 
#    y 0.000000 1.732220 0.000000 
#    z 0.000000 0.000000 1.711020 
# 
# From -- ./inp_files/33203.got.cif
#   From: 2010.03.12/outbox.cif.g09.slc.cpg/sg69_17_cif.got.tgz:33203.got - 2010.04.10 23:52:46.
