data_PCOD8284835
_publ_section_title
;
Structure prediction by ZEFSAII (Michael W. Deem and Ramdas Pophale) SiO2 
 PCOD8284835
Probable space group: F M M M
;
_chemical_formula_sum "Si O2"
_cell_formula_units_Z 176
_cell_length_a 26.778245
_cell_length_b 18.464054
_cell_length_c 19.744907
_cell_angle_alpha 90.000000
_cell_angle_beta 90.000000
_cell_angle_gamma 90.000000
_cell_volume 9762.572336
_symmetry_space_group_name_H-M "F M M M"
_symmetry_group_IT_number 69
_symmetry_cell_setting 'orthorhombic'
loop_
_space_group_symop_operation_xyz
x,y,z
-x,-y,z
x,-y,-z
-x,y,-z
-x,-y,-z
x,y,-z
-x,y,z
x,-y,z
x,1/2+y,1/2+z
-x,1/2-y,1/2+z
x,1/2-y,1/2-z
-x,1/2+y,1/2-z
-x,1/2-y,1/2-z
x,1/2+y,1/2-z
-x,1/2+y,1/2+z
x,1/2-y,1/2+z
1/2+x,y,1/2+z
1/2-x,-y,1/2+z
1/2+x,-y,1/2-z
1/2-x,y,1/2-z
1/2-x,-y,1/2-z
1/2+x,y,1/2-z
1/2-x,y,1/2+z
1/2+x,-y,1/2+z
1/2+x,1/2+y,z
1/2-x,1/2-y,z
1/2+x,1/2-y,-z
1/2-x,1/2+y,-z
1/2-x,1/2-y,-z
1/2+x,1/2+y,-z
1/2-x,1/2+y,z
1/2+x,1/2-y,z
loop_
_atom_site_type_symbol
_atom_site_label
_atom_site_fract_x
_atom_site_fract_y
_atom_site_fract_z
Si Si1 0.108596 0.083009 0.732129
Si Si2 0.558211 0.914416 0.500000
Si Si3 0.614493 0.158217 0.376235
Si Si4 0.772662 0.328988 0.423022
Si Si5 0.279292 0.082524 0.813094
Si Si6 0.055328 0.285986 0.822915
O O1 0.108217 0.111348 0.808653
O O2 0.162529 0.090438 0.699242
O O3 0.072869 0.130926 0.684409
O O4 0.089885 0.000000 0.731504
O O5 0.500000 0.892439 0.500000
O O6 0.584810 0.883276 0.565936
O O7 0.565012 0.000000 0.500000
O O8 0.672433 0.167382 0.391944
O O9 0.592022 0.239141 0.370076
O O10 0.774676 0.356359 0.500000
O O11 0.750000 0.250000 0.417494
O O12 0.735035 0.380247 0.383017
O O13 0.250000 0.119149 0.750000
O O14 0.261761 0.000000 0.819498
O O15 0.054622 0.250000 0.750000
O O16 0.000000 0.285839 0.855113
#
# Coordination Sequence:
#
# PCOD8284835 Si02
#       6
#    32  16  32  32  32  32
#     4  10  20  35  57  84 112 143 187 237 283 333
#     4  11  24  38  55  84 119 153 190 231 283 344
#     4  11  20  37  57  81 112 152 189 231 276 340
#     4  11  23  37  54  82 114 147 187 233 279 336
#     4  10  20  35  54  80 111 144 184 229 278 336
#     4   9  19  34  53  77 106 141 182 226 277 328
#
# _framework density 18.028034999999999
#
# number of rings (size 3 to 8) (size 9 to 14) (size 15 to 20)
#    0.000    1.727    2.727    2.182    0.000    2.545 
#    0.000    0.000    0.000    0.000    0.000    0.000 
#    0.000    2.182    0.000    0.000    0.000    0.000 
#
# Total GULP energy -545631.728310 kJ/mol
# GULP energy per Si atom -12400.721098 kJ/mol
# Density = 1.798700 g / cm^3
# Si number density = 18.028035 Si / 1000 Ang^3
#
#
#
# Elastic Constant Matrix: (Units=GPa)
#
#
# Indices 1 2 3 4 5 6 
#
# 1 77.1898 45.3660 31.0751 0.0000 0.0000 0.0000
# 2 45.3660 116.5699 47.9441 0.0000 0.0000 0.0000
# 3 31.0751 47.9441 83.3740 0.0000 0.0000 0.0000
# 4 0.0000 0.0000 0.0000 61.8020 0.0000 0.0000
# 5 0.0000 0.0000 0.0000 0.0000 -50.0633 0.0000
# 6 0.0000 0.0000 0.0000 0.0000 0.0000 28.7204
#
#
#
# Elastic Compliance Matrix: (Units=1/GPa)
#
#
# Indices 1 2 3 4 5 6 
#
# 1 0.017509 -0.005409 -0.003415 0.000000 0.000000 0.000000
# 2 -0.005409 0.012907 -0.005406 0.000000 0.000000 0.000000
# 3 -0.003415 -0.005406 0.016376 0.000000 0.000000 0.000000
# 4 0.000000 0.000000 0.000000 0.016181 0.000000 0.000000
# 5 0.000000 0.000000 0.000000 0.000000 -0.019975 0.000000
# 6 0.000000 0.000000 0.000000 0.000000 0.000000 0.034818
#
#
# Mechanical properties :
#
#
# Convention : Reuss Voigt Hill
#
# Bulk Modulus (GPa) = 54.55352 58.43379 56.49366
# Shear Modulus (GPa) = 44.48842 18.27505 31.38174
#
# Velocity S-wave (km/s) = 4.97302 3.18732 4.17672
# Velocity P-wave (km/s) = 7.95617 6.78443 7.39355
#
# Compressibility (1/GPa) = 0.01833062
#
# Stress axis : x y z
#
# Youngs Moduli (GPa) = 57.11256 77.47587 61.06544
#
# Poissons Ratio (x) = 0.41910 0.20856
# Poissons Ratio (y) = 0.30895 0.33012
# Poissons Ratio (z) = 0.19506 0.41884
#
# Static dielectric constant tensor:
#      x y z
#    x 3.230880 0.000000 0.000000 
#    y 0.000000 3.490130 0.000000 
#    z 0.000000 0.000000 3.315940 
# 
# 
# High freq. dielectric constant tensor:
#      x y z
#    x 1.710590 0.000000 0.000000 
#    y 0.000000 1.701870 0.000000 
#    z 0.000000 0.000000 1.686280 
# 
# From -- ./inp_files/23571.got.cif
#   From: 2010.03.12/outbox.cif.g09.slc.cpg/sg69_12_cif.got.tgz:23571.got - 2010.04.10 23:52:46.
