data_PCOD8284199
_publ_section_title
;
Structure prediction by ZEFSAII (Michael W. Deem and Ramdas Pophale) SiO2 
 PCOD8284199
Probable space group: F M M M
;
_chemical_formula_sum "Si O2"
_cell_formula_units_Z 192
_cell_length_a 18.935639
_cell_length_b 25.817716
_cell_length_c 20.510525
_cell_angle_alpha 90.000000
_cell_angle_beta 90.000000
_cell_angle_gamma 90.000000
_cell_volume 10027.081883
_symmetry_space_group_name_H-M "F M M M"
_symmetry_group_IT_number 69
_symmetry_cell_setting 'orthorhombic'
loop_
_space_group_symop_operation_xyz
x,y,z
-x,-y,z
x,-y,-z
-x,y,-z
-x,-y,-z
x,y,-z
-x,y,z
x,-y,z
x,1/2+y,1/2+z
-x,1/2-y,1/2+z
x,1/2-y,1/2-z
-x,1/2+y,1/2-z
-x,1/2-y,1/2-z
x,1/2+y,1/2-z
-x,1/2+y,1/2+z
x,1/2-y,1/2+z
1/2+x,y,1/2+z
1/2-x,-y,1/2+z
1/2+x,-y,1/2-z
1/2-x,y,1/2-z
1/2-x,-y,1/2-z
1/2+x,y,1/2-z
1/2-x,y,1/2+z
1/2+x,-y,1/2+z
1/2+x,1/2+y,z
1/2-x,1/2-y,z
1/2+x,1/2-y,-z
1/2-x,1/2+y,-z
1/2-x,1/2-y,-z
1/2+x,1/2+y,-z
1/2-x,1/2+y,z
1/2+x,1/2-y,z
loop_
_atom_site_type_symbol
_atom_site_label
_atom_site_fract_x
_atom_site_fract_y
_atom_site_fract_z
Si Si1 0.419861 0.849431 0.141534
Si Si2 0.786265 0.798686 0.073426
Si Si3 0.207160 0.058719 0.186628
Si Si4 0.420930 0.729863 0.867929
Si Si5 0.079795 0.869466 0.788610
Si Si6 0.790678 0.602081 0.923326
O O1 0.500000 0.855402 0.116252
O O2 0.399880 0.788801 0.148319
O O3 0.410178 0.875619 0.211535
O O4 0.371288 0.880827 0.090454
O O5 0.750000 0.750000 0.110319
O O6 0.870536 0.792656 0.075740
O O7 0.759319 0.851753 0.103802
O O8 0.758127 0.799986 0.000000
O O9 0.250000 0.078776 0.250000
O O10 0.137186 0.094040 0.175964
O O11 0.260034 0.057303 0.123461
O O12 0.181171 0.000000 0.197692
O O13 0.500000 0.727171 0.895380
O O14 0.410466 0.691676 0.806013
O O15 0.000000 0.886705 0.808837
O O16 0.782513 0.587583 0.000000
#
# Coordination Sequence:
#
# PCOD8284199 Si02
#       6
#    32  32  32  32  32  32
#     4  10  20  34  54  84 120 155 189 225 272 340
#     4  10  19  31  48  74 107 147 192 229 266 325
#     4  11  23  40  63  87 108 140 193 246 291 343
#     4  10  19  31  51  80 115 153 188 226 273 331
#     4  10  20  36  57  83 116 150 188 237 286 332
#     4  11  22  37  58  83 115 152 189 236 290 339
#
# _framework density 19.148143000000001
#
# number of rings (size 3 to 8) (size 9 to 14) (size 15 to 20)
#    0.000    1.667    5.000    0.500    0.000    3.333 
#    0.000    1.667    0.000    1.000    0.000    2.333 
#    0.000    0.000    0.000    0.000    0.000    0.000 
#
# Total GULP energy -594799.554444 kJ/mol
# GULP energy per Si atom -12391.657384 kJ/mol
# Density = 1.910456 g / cm^3
# Si number density = 19.148143 Si / 1000 Ang^3
#
#
#
# Elastic Constant Matrix: (Units=GPa)
#
#
# Indices 1 2 3 4 5 6 
#
# 1 115.2977 28.5173 31.9016 0.0000 0.0000 0.0000
# 2 28.5173 54.7617 10.8794 0.0000 0.0000 0.0000
# 3 31.9016 10.8794 77.4941 0.0000 0.0000 0.0000
# 4 0.0000 0.0000 0.0000 13.8082 0.0000 0.0000
# 5 0.0000 0.0000 0.0000 0.0000 28.7885 0.0000
# 6 0.0000 0.0000 0.0000 0.0000 0.0000 22.0247
#
#
#
# Elastic Compliance Matrix: (Units=1/GPa)
#
#
# Indices 1 2 3 4 5 6 
#
# 1 0.010952 -0.004945 -0.003814 0.000000 0.000000 0.000000
# 2 -0.004945 0.021018 -0.000915 0.000000 0.000000 0.000000
# 3 -0.003814 -0.000915 0.014603 0.000000 0.000000 0.000000
# 4 0.000000 0.000000 0.000000 0.072421 0.000000 0.000000
# 5 0.000000 0.000000 0.000000 0.000000 0.034736 0.000000
# 6 0.000000 0.000000 0.000000 0.000000 0.000000 0.045404
#
#
# Mechanical properties :
#
#
# Convention : Reuss Voigt Hill
#
# Bulk Modulus (GPa) = 36.73269 43.35002 40.04136
# Shear Modulus (GPa) = 21.97258 24.67463 23.32360
#
# Velocity S-wave (km/s) = 3.39116 3.59363 3.49386
# Velocity P-wave (km/s) = 5.87863 6.31722 6.10187
#
# Compressibility (1/GPa) = 0.02722370
#
# Stress axis : x y z
#
# Youngs Moduli (GPa) = 91.30988 47.57822 68.48003
#
# Poissons Ratio (x) = 0.23529 0.26119
# Poissons Ratio (y) = 0.45156 0.06265
# Poissons Ratio (z) = 0.34827 0.04353
#
# Static dielectric constant tensor:
#      x y z
#    x 3.590670 0.000000 0.000000 
#    y 0.000000 3.369480 0.000000 
#    z 0.000000 0.000000 3.178900 
# 
# 
# High freq. dielectric constant tensor:
#      x y z
#    x 1.754510 0.000000 0.000000 
#    y 0.000000 1.726940 0.000000 
#    z 0.000000 0.000000 1.722150 
# 
# From -- ./inp_files/32051.got.cif
#   From: 2010.03.12/outbox.cif.g09.slc.cpg/sg69_17_cif.got.tgz:32051.got - 2010.04.10 23:52:46.
