data_PCOD8284411
_publ_section_title
;
Structure prediction by ZEFSAII (Michael W. Deem and Ramdas Pophale) SiO2 
 PCOD8284411
Probable space group: F M M M
;
_chemical_formula_sum "Si O2"
_cell_formula_units_Z 160
_cell_length_a 15.072243
_cell_length_b 31.835453
_cell_length_c 16.934965
_cell_angle_alpha 90.000000
_cell_angle_beta 90.000000
_cell_angle_gamma 90.000000
_cell_volume 8125.932768
_symmetry_space_group_name_H-M "F M M M"
_symmetry_group_IT_number 69
_symmetry_cell_setting 'orthorhombic'
loop_
_space_group_symop_operation_xyz
x,y,z
-x,-y,z
x,-y,-z
-x,y,-z
-x,-y,-z
x,y,-z
-x,y,z
x,-y,z
x,1/2+y,1/2+z
-x,1/2-y,1/2+z
x,1/2-y,1/2-z
-x,1/2+y,1/2-z
-x,1/2-y,1/2-z
x,1/2+y,1/2-z
-x,1/2+y,1/2+z
x,1/2-y,1/2+z
1/2+x,y,1/2+z
1/2-x,-y,1/2+z
1/2+x,-y,1/2-z
1/2-x,y,1/2-z
1/2-x,-y,1/2-z
1/2+x,y,1/2-z
1/2-x,y,1/2+z
1/2+x,-y,1/2+z
1/2+x,1/2+y,z
1/2-x,1/2-y,z
1/2+x,1/2-y,-z
1/2-x,1/2+y,-z
1/2-x,1/2-y,-z
1/2+x,1/2+y,-z
1/2-x,1/2+y,z
1/2+x,1/2-y,z
loop_
_atom_site_type_symbol
_atom_site_label
_atom_site_fract_x
_atom_site_fract_y
_atom_site_fract_z
Si Si1 0.145574 0.256655 0.086102
Si Si2 0.097873 0.846514 0.646166
Si Si3 0.900797 0.953074 0.093828
Si Si4 0.338044 0.689669 0.201456
Si Si5 0.729725 0.618508 0.093616
O O1 0.250000 0.250000 0.087578
O O2 0.119618 0.304887 0.096454
O O3 0.110090 0.229033 0.160631
O O4 0.108077 0.242460 0.000000
O O5 0.098663 0.835470 0.739191
O O6 0.168070 0.883271 0.623971
O O7 0.000000 0.863129 0.624363
O O8 0.825464 0.921487 0.126431
O O9 0.000000 0.939671 0.122421
O O10 0.878934 0.000000 0.124815
O O11 0.898961 0.952605 0.000000
O O12 0.250000 0.704027 0.250000
O O13 0.312878 0.660440 0.128071
O O14 0.726017 0.621075 0.000000
#
# Coordination Sequence:
#
# PCOD8284411 Si02
#       5
#    32  32  32  32  32
#     4  11  20  33  54  75  99 136 184 239 284 314
#     4  11  24  37  51  74 109 153 190 218 262 325
#     4   8  15  30  54  85 115 137 164 212 275 332
#     4  10  20  33  52  73 102 141 181 226 271 318
#     4  10  19  33  57  83 109 140 175 221 271 319
#
# _framework density 19.690048000000001
#
# number of rings (size 3 to 8) (size 9 to 14) (size 15 to 20)
#    0.000    2.000    4.000    2.400    0.000    4.000 
#    0.000    0.000    0.000    9.600    0.000    2.800 
#    0.000    0.000    0.000    0.000    0.000    0.000 
#
# Total GULP energy -495655.680232 kJ/mol
# GULP energy per Si atom -12391.392006 kJ/mol
# Density = 1.964523 g / cm^3
# Si number density = 19.690048 Si / 1000 Ang^3
#
#
#
# Elastic Constant Matrix: (Units=GPa)
#
#
# Indices 1 2 3 4 5 6 
#
# 1 136.0780 65.1443 22.6764 0.0000 0.0000 0.0000
# 2 65.1443 91.9115 27.2483 0.0000 0.0000 0.0000
# 3 22.6764 27.2483 99.6770 0.0000 0.0000 0.0000
# 4 0.0000 0.0000 0.0000 8.7457 0.0000 0.0000
# 5 0.0000 0.0000 0.0000 0.0000 9.7433 0.0000
# 6 0.0000 0.0000 0.0000 0.0000 0.0000 28.4259
#
#
#
# Elastic Compliance Matrix: (Units=1/GPa)
#
#
# Indices 1 2 3 4 5 6 
#
# 1 0.011138 -0.007773 -0.000409 0.000000 0.000000 0.000000
# 2 -0.007773 0.017264 -0.002951 0.000000 0.000000 0.000000
# 3 -0.000409 -0.002951 0.010932 0.000000 0.000000 0.000000
# 4 0.000000 0.000000 0.000000 0.114341 0.000000 0.000000
# 5 0.000000 0.000000 0.000000 0.000000 0.102635 0.000000
# 6 0.000000 0.000000 0.000000 0.000000 0.000000 0.035179
#
#
# Mechanical properties :
#
#
# Convention : Reuss Voigt Hill
#
# Bulk Modulus (GPa) = 58.58865 61.97825 60.28345
# Shear Modulus (GPa) = 15.65211 23.55615 19.60413
#
# Velocity S-wave (km/s) = 2.82250 3.46258 3.15879
# Velocity P-wave (km/s) = 6.35941 6.89429 6.63224
#
# Compressibility (1/GPa) = 0.01706815
#
# Stress axis : x y z
#
# Youngs Moduli (GPa) = 89.78197 57.92304 91.47305
#
# Poissons Ratio (x) = 0.45024 0.03741
# Poissons Ratio (y) = 0.69789 0.26995
# Poissons Ratio (z) = 0.03672 0.17094
#
# Static dielectric constant tensor:
#      x y z
#    x 3.687940 0.000000 0.000000 
#    y 0.000000 3.605680 0.000000 
#    z 0.000000 0.000000 3.866070 
# 
# 
# High freq. dielectric constant tensor:
#      x y z
#    x 1.751570 0.000000 0.000000 
#    y 0.000000 1.730100 0.000000 
#    z 0.000000 0.000000 1.765910 
# 
# From -- ./inp_files/23442.got.cif
#   From: 2010.03.12/outbox.cif.g09.slc.cpg/sg69_12_cif.got.tgz:23442.got - 2010.04.10 23:52:46.
