data_PCOD8284440
_publ_section_title
;
Structure prediction by ZEFSAII (Michael W. Deem and Ramdas Pophale) SiO2 
 PCOD8284440
Probable space group: F M M M
;
_chemical_formula_sum "Si O2"
_cell_formula_units_Z 192
_cell_length_a 14.890273
_cell_length_b 23.095165
_cell_length_c 27.625444
_cell_angle_alpha 90.000000
_cell_angle_beta 90.000000
_cell_angle_gamma 90.000000
_cell_volume 9500.205428
_symmetry_space_group_name_H-M "F M M M"
_symmetry_group_IT_number 69
_symmetry_cell_setting 'orthorhombic'
loop_
_space_group_symop_operation_xyz
x,y,z
-x,-y,z
x,-y,-z
-x,y,-z
-x,-y,-z
x,y,-z
-x,y,z
x,-y,z
x,1/2+y,1/2+z
-x,1/2-y,1/2+z
x,1/2-y,1/2-z
-x,1/2+y,1/2-z
-x,1/2-y,1/2-z
x,1/2+y,1/2-z
-x,1/2+y,1/2+z
x,1/2-y,1/2+z
1/2+x,y,1/2+z
1/2-x,-y,1/2+z
1/2+x,-y,1/2-z
1/2-x,y,1/2-z
1/2-x,-y,1/2-z
1/2+x,y,1/2-z
1/2-x,y,1/2+z
1/2+x,-y,1/2+z
1/2+x,1/2+y,z
1/2-x,1/2-y,z
1/2+x,1/2-y,-z
1/2-x,1/2+y,-z
1/2-x,1/2-y,-z
1/2+x,1/2+y,-z
1/2-x,1/2+y,z
1/2+x,1/2-y,z
loop_
_atom_site_type_symbol
_atom_site_label
_atom_site_fract_x
_atom_site_fract_y
_atom_site_fract_z
Si Si1 0.605569 0.678006 0.642423
Si Si2 0.396063 0.875823 0.410816
Si Si3 0.646336 0.879560 0.761284
Si Si4 0.601615 0.000000 0.376810
Si Si5 0.770535 0.315892 0.946309
Si Si6 0.898535 0.200470 0.177733
Si Si7 0.152234 0.500000 0.272108
O O1 0.500000 0.680456 0.629794
O O2 0.624550 0.628745 0.682327
O O3 0.658894 0.660754 0.593511
O O4 0.647604 0.737827 0.665080
O O5 0.500000 0.860443 0.424612
O O6 0.381378 0.944528 0.410253
O O7 0.324910 0.849630 0.448158
O O8 0.367231 0.850163 0.358492
O O9 0.750000 0.884043 0.750000
O O10 0.611033 0.823085 0.732269
O O11 0.601106 0.940769 0.744743
O O12 0.664565 0.000000 0.329966
O O13 0.500000 0.000000 0.356527
O O14 0.750000 0.250000 0.933932
O O15 0.813239 0.322397 0.000000
O O16 0.000000 0.215693 0.167470
O O17 0.250000 0.500000 0.250000
#
# Coordination Sequence:
#
# PCOD8284440 Si02
#       7
#    32  32  32  16  32  32  16
#     4  11  24  39  57  87 124 162 205 248 296 356
#     4  10  20  37  63  94 124 155 194 247 308 375
#     4  11  22  34  55  83 121 164 197 242 289 350
#     4  10  20  36  63  89 121 163 197 239 304 374
#     4  11  24  41  64  88 114 154 203 257 316 366
#     4  10  19  34  54  81 119 155 191 234 286 351
#     4  10  22  34  50  84 121 160 198 241 282 344
#
# _framework density 20.210089
#
# number of rings (size 3 to 8) (size 9 to 14) (size 15 to 20)
#    0.000    1.500    3.333    2.000    2.333    3.333 
#    0.000    2.083    0.000    1.500    0.000    0.000 
#    0.000    2.667    0.000    0.000    0.000    0.000 
#
# Total GULP energy -594918.748675 kJ/mol
# GULP energy per Si atom -12394.140597 kJ/mol
# Density = 2.016409 g / cm^3
# Si number density = 20.210089 Si / 1000 Ang^3
#
#
#
# Elastic Constant Matrix: (Units=GPa)
#
#
# Indices 1 2 3 4 5 6 
#
# 1 77.4884 29.6794 31.6421 0.0000 0.0000 0.0000
# 2 29.6794 113.7680 25.4074 0.0000 0.0000 0.0000
# 3 31.6421 25.4074 109.1851 0.0000 0.0000 0.0000
# 4 0.0000 0.0000 0.0000 14.9170 0.0000 0.0000
# 5 0.0000 0.0000 0.0000 0.0000 23.3871 0.0000
# 6 0.0000 0.0000 0.0000 0.0000 0.0000 16.2245
#
#
#
# Elastic Compliance Matrix: (Units=1/GPa)
#
#
# Indices 1 2 3 4 5 6 
#
# 1 0.015698 -0.003248 -0.003794 0.000000 0.000000 0.000000
# 2 -0.003248 0.009944 -0.001373 0.000000 0.000000 0.000000
# 3 -0.003794 -0.001373 0.010578 0.000000 0.000000 0.000000
# 4 0.000000 0.000000 0.000000 0.067038 0.000000 0.000000
# 5 0.000000 0.000000 0.000000 0.000000 0.042759 0.000000
# 6 0.000000 0.000000 0.000000 0.000000 0.000000 0.061635
#
#
# Mechanical properties :
#
#
# Convention : Reuss Voigt Hill
#
# Bulk Modulus (GPa) = 51.57027 52.65549 52.11288
# Shear Modulus (GPa) = 21.65032 25.15320 23.40176
#
# Velocity S-wave (km/s) = 3.27657 3.53170 3.40652
# Velocity P-wave (km/s) = 6.31562 6.53767 6.42760
#
# Compressibility (1/GPa) = 0.01939102
#
# Stress axis : x y z
#
# Youngs Moduli (GPa) = 63.70095 100.56602 94.53981
#
# Poissons Ratio (x) = 0.32665 0.35864
# Poissons Ratio (y) = 0.20691 0.12976
# Poissons Ratio (z) = 0.24165 0.13804
#
# Static dielectric constant tensor:
#      x y z
#    x 3.406990 0.000000 0.000000 
#    y 0.000000 4.277940 0.000000 
#    z 0.000000 0.000000 3.863750 
# 
# 
# High freq. dielectric constant tensor:
#      x y z
#    x 1.778200 0.000000 0.000000 
#    y 0.000000 1.788250 0.000000 
#    z 0.000000 0.000000 1.770910 
# 
# From -- ./inp_files/38410.got.cif
#   From: 2010.03.12/outbox.cif.g09.slc.cpg/sg69_20_cif.got.tgz:38410.got - 2010.04.10 23:52:46.
