data_PCOD8284916
_publ_section_title
;
Structure prediction by ZEFSAII (Michael W. Deem and Ramdas Pophale) SiO2 
 PCOD8284916
Probable space group: F M M M
;
_chemical_formula_sum "Si O2"
_cell_formula_units_Z 176
_cell_length_a 21.425613
_cell_length_b 25.017725
_cell_length_c 16.074719
_cell_angle_alpha 90.000000
_cell_angle_beta 90.000000
_cell_angle_gamma 90.000000
_cell_volume 8616.372389
_symmetry_space_group_name_H-M "F M M M"
_symmetry_group_IT_number 69
_symmetry_cell_setting 'orthorhombic'
loop_
_space_group_symop_operation_xyz
x,y,z
-x,-y,z
x,-y,-z
-x,y,-z
-x,-y,-z
x,y,-z
-x,y,z
x,-y,z
x,1/2+y,1/2+z
-x,1/2-y,1/2+z
x,1/2-y,1/2-z
-x,1/2+y,1/2-z
-x,1/2-y,1/2-z
x,1/2+y,1/2-z
-x,1/2+y,1/2+z
x,1/2-y,1/2+z
1/2+x,y,1/2+z
1/2-x,-y,1/2+z
1/2+x,-y,1/2-z
1/2-x,y,1/2-z
1/2-x,-y,1/2-z
1/2+x,y,1/2-z
1/2-x,y,1/2+z
1/2+x,-y,1/2+z
1/2+x,1/2+y,z
1/2-x,1/2-y,z
1/2+x,1/2-y,-z
1/2-x,1/2+y,-z
1/2-x,1/2-y,-z
1/2+x,1/2+y,-z
1/2-x,1/2+y,z
1/2+x,1/2-y,z
loop_
_atom_site_type_symbol
_atom_site_label
_atom_site_fract_x
_atom_site_fract_y
_atom_site_fract_z
Si Si1 0.929058 0.244934 0.593276
Si Si2 0.750000 0.612755 0.750000
Si Si3 0.070949 0.637140 0.365911
Si Si4 0.623768 0.652250 0.694736
Si Si5 0.816018 0.437908 0.405882
Si Si6 0.070786 0.059049 0.597213
O O1 0.923166 0.222618 0.500000
O O2 0.907606 0.306408 0.594792
O O3 0.885558 0.209201 0.651463
O O4 0.000000 0.240035 0.625367
O O5 0.693279 0.652239 0.730394
O O6 0.767435 0.578398 0.667252
O O7 0.073107 0.643368 0.266638
O O8 0.117731 0.591929 0.397748
O O9 0.000000 0.622599 0.392590
O O10 0.618049 0.602303 0.632794
O O11 0.789289 0.426895 0.500000
O O12 0.830580 0.500000 0.394285
O O13 0.081562 0.056408 0.500000
O O14 0.000000 0.076267 0.617815
O O15 0.084731 0.000000 0.635157
#
# Coordination Sequence:
#
# PCOD8284916 Si02
#       6
#    32  16  32  32  32  32
#     4  10  20  35  59  89 116 142 179 231 291 355
#     4  10  25  42  57  82 118 154 198 254 290 322
#     4  10  21  37  58  87 121 150 181 231 290 344
#     4  11  21  36  56  79 111 154 197 232 280 343
#     4  10  22  41  63  85 113 153 199 243 289 343
#     4   9  18  32  52  83 118 145 179 236 300 357
#
# _framework density 20.42623
#
# number of rings (size 3 to 8) (size 9 to 14) (size 15 to 20)
#    0.000    2.000    0.000    4.091    0.000    9.455 
#    0.000   10.000    0.000    5.455    0.000    0.000 
#    0.000    0.000    0.000    0.000    0.000    0.000 
#
# Total GULP energy -545518.559159 kJ/mol
# GULP energy per Si atom -12398.149072 kJ/mol
# Density = 2.037974 g / cm^3
# Si number density = 20.426230 Si / 1000 Ang^3
#
#
#
# Elastic Constant Matrix: (Units=GPa)
#
#
# Indices 1 2 3 4 5 6 
#
# 1 83.2754 42.4057 42.8283 0.0000 0.0000 0.0000
# 2 42.4057 97.0743 48.5113 0.0000 0.0000 0.0000
# 3 42.8283 48.5113 108.9429 0.0000 0.0000 0.0000
# 4 0.0000 0.0000 0.0000 4.5934 0.0000 0.0000
# 5 0.0000 0.0000 0.0000 0.0000 25.5510 0.0000
# 6 0.0000 0.0000 0.0000 0.0000 0.0000 24.7320
#
#
#
# Elastic Compliance Matrix: (Units=1/GPa)
#
#
# Indices 1 2 3 4 5 6 
#
# 1 0.016885 -0.005221 -0.004313 0.000000 0.000000 0.000000
# 2 -0.005221 0.014864 -0.004566 0.000000 0.000000 0.000000
# 3 -0.004313 -0.004566 0.012908 0.000000 0.000000 0.000000
# 4 0.000000 0.000000 0.000000 0.217705 0.000000 0.000000
# 5 0.000000 0.000000 0.000000 0.000000 0.039137 0.000000
# 6 0.000000 0.000000 0.000000 0.000000 0.000000 0.040433
#
#
# Mechanical properties :
#
#
# Convention : Reuss Voigt Hill
#
# Bulk Modulus (GPa) = 60.76583 61.86481 61.31532
# Shear Modulus (GPa) = 13.31135 21.34509 17.32822
#
# Velocity S-wave (km/s) = 2.55557 3.23613 2.91577
# Velocity P-wave (km/s) = 6.20656 6.65703 6.43574
#
# Compressibility (1/GPa) = 0.01645662
#
# Stress axis : x y z
#
# Youngs Moduli (GPa) = 59.22387 67.27702 77.47018
#
# Poissons Ratio (x) = 0.35122 0.33415
# Poissons Ratio (y) = 0.30918 0.35376
# Poissons Ratio (z) = 0.25545 0.30722
#
# Static dielectric constant tensor:
#      x y z
#    x 3.480850 0.000000 0.000000 
#    y 0.000000 3.758660 0.000000 
#    z 0.000000 0.000000 3.977100 
# 
# 
# High freq. dielectric constant tensor:
#      x y z
#    x 1.777530 0.000000 0.000000 
#    y 0.000000 1.799360 0.000000 
#    z 0.000000 0.000000 1.812010 
# 
# From -- ./inp_files/17927.got.cif
#   From: 2010.03.12/outbox.cif.g09.slc.cpg/sg69_9_cif.got.tgz:17927.got - 2010.04.10 23:52:46.
