data_PCOD8284583
_publ_section_title
;
Structure prediction by ZEFSAII (Michael W. Deem and Ramdas Pophale) SiO2 
 PCOD8284583
Probable space group: F M M M
;
_chemical_formula_sum "Si O2"
_cell_formula_units_Z 128
_cell_length_a 7.769149
_cell_length_b 28.171773
_cell_length_c 39.174377
_cell_angle_alpha 90.000000
_cell_angle_beta 90.000000
_cell_angle_gamma 90.000000
_cell_volume 8574.123396
_symmetry_space_group_name_H-M "F M M M"
_symmetry_group_IT_number 69
_symmetry_cell_setting 'orthorhombic'
loop_
_space_group_symop_operation_xyz
x,y,z
-x,-y,z
x,-y,-z
-x,y,-z
-x,-y,-z
x,y,-z
-x,y,z
x,-y,z
x,1/2+y,1/2+z
-x,1/2-y,1/2+z
x,1/2-y,1/2-z
-x,1/2+y,1/2-z
-x,1/2-y,1/2-z
x,1/2+y,1/2-z
-x,1/2+y,1/2+z
x,1/2-y,1/2+z
1/2+x,y,1/2+z
1/2-x,-y,1/2+z
1/2+x,-y,1/2-z
1/2-x,y,1/2-z
1/2-x,-y,1/2-z
1/2+x,y,1/2-z
1/2-x,y,1/2+z
1/2+x,-y,1/2+z
1/2+x,1/2+y,z
1/2-x,1/2-y,z
1/2+x,1/2-y,-z
1/2-x,1/2+y,-z
1/2-x,1/2-y,-z
1/2+x,1/2+y,-z
1/2-x,1/2+y,z
1/2+x,1/2-y,z
loop_
_atom_site_type_symbol
_atom_site_label
_atom_site_fract_x
_atom_site_fract_y
_atom_site_fract_z
Si Si1 0.000000 0.631252 0.040331
Si Si2 0.692663 0.801008 0.540511
Si Si3 0.500000 0.556359 0.595873
Si Si4 0.299159 0.553658 0.714197
Si Si5 0.690416 0.443946 0.142733
O O1 0.170220 0.659636 0.052298
O O2 0.000000 0.580530 0.058845
O O3 0.000000 0.621849 0.000000
O O4 0.692742 0.797906 0.500000
O O5 0.500000 0.813842 0.553753
O O6 0.750000 0.750000 0.555506
O O7 0.500000 0.500000 0.590078
O O8 0.667792 0.574946 0.616303
O O9 0.500000 0.554794 0.707917
O O10 0.227504 0.500000 0.716825
O O11 0.250000 0.579861 0.750000
O O12 0.214015 0.578267 0.680846
O O13 0.500000 0.430955 0.129045
O O14 0.718033 0.500000 0.146071
#
# Coordination Sequence:
#
# PCOD8284583 Si02
#       5
#    16  32  16  32  32
#     4  10  20  31  46  68  88 112 148 185 223 262
#     4   9  15  26  46  70  93 110 126 162 219 280
#     4  10  20  33  44  56  82 120 161 194 214 245
#     4   9  14  20  32  53  77  97 127 176 222 258
#     4   9  16  27  41  54  72 105 147 186 221 254
#
# _framework density 14.92864
#
# number of rings (size 3 to 8) (size 9 to 14) (size 15 to 20)
#    0.000    2.750    2.500    0.750    0.000    4.250 
#    0.000    0.000    0.000    0.000    0.000    7.000 
#    0.000    0.000    0.000    0.000    0.000    3.750 
#
# Total GULP energy -396513.979398 kJ/mol
# GULP energy per Si atom -12391.061856 kJ/mol
# Density = 1.489466 g / cm^3
# Si number density = 14.928640 Si / 1000 Ang^3
#
#
#
# Elastic Constant Matrix: (Units=GPa)
#
#
# Indices 1 2 3 4 5 6 
#
# 1 124.9665 27.2537 37.4018 0.0000 0.0000 0.0000
# 2 27.2537 37.5527 30.6498 0.0000 0.0000 0.0000
# 3 37.4018 30.6498 69.4275 0.0000 0.0000 0.0000
# 4 0.0000 0.0000 0.0000 1.9192 0.0000 0.0000
# 5 0.0000 0.0000 0.0000 0.0000 14.3983 0.0000
# 6 0.0000 0.0000 0.0000 0.0000 0.0000 9.9769
#
#
#
# Elastic Compliance Matrix: (Units=1/GPa)
#
#
# Indices 1 2 3 4 5 6 
#
# 1 0.009999 -0.004471 -0.003413 0.000000 0.000000 0.000000
# 2 -0.004471 0.043628 -0.016852 0.000000 0.000000 0.000000
# 3 -0.003413 -0.016852 0.023681 0.000000 0.000000 0.000000
# 4 0.000000 0.000000 0.000000 0.521048 0.000000 0.000000
# 5 0.000000 0.000000 0.000000 0.000000 0.069453 0.000000
# 6 0.000000 0.000000 0.000000 0.000000 0.000000 0.100232
#
#
# Mechanical properties :
#
#
# Convention : Reuss Voigt Hill
#
# Bulk Modulus (GPa) = 35.92288 46.95082 41.43685
# Shear Modulus (GPa) = 6.04748 14.36830 10.20789
#
# Velocity S-wave (km/s) = 2.01487 3.10573 2.61775
# Velocity P-wave (km/s) = 5.43399 6.66177 6.07896
#
# Compressibility (1/GPa) = 0.02783741
#
# Stress axis : x y z
#
# Youngs Moduli (GPa) = 100.01387 22.92094 42.22731
#
# Poissons Ratio (x) = 0.10248 0.14410
# Poissons Ratio (y) = 0.44718 0.71160
# Poissons Ratio (z) = 0.34130 0.38626
#
# Static dielectric constant tensor:
#      x y z
#    x 3.160600 0.000000 0.000000 
#    y 0.000000 2.322490 0.000000 
#    z 0.000000 0.000000 2.770130 
# 
# 
# High freq. dielectric constant tensor:
#      x y z
#    x 1.596510 0.000000 0.000000 
#    y 0.000000 1.492040 0.000000 
#    z 0.000000 0.000000 1.553770 
# 
# From -- ./inp_files/39662.got.cif
#   From: 2010.03.12/outbox.cif.g09.slc.cpg/sg69_20_cif.got.tgz:39662.got - 2010.04.10 23:52:46.
