data_PCOD8284557
_publ_section_title
;
Structure prediction by ZEFSAII (Michael W. Deem and Ramdas Pophale) SiO2 
 PCOD8284557
Probable space group: F M M M
;
_chemical_formula_sum "Si O2"
_cell_formula_units_Z 192
_cell_length_a 19.099646
_cell_length_b 16.075622
_cell_length_c 28.988312
_cell_angle_alpha 90.000000
_cell_angle_beta 90.000000
_cell_angle_gamma 90.000000
_cell_volume 8900.533325
_symmetry_space_group_name_H-M "F M M M"
_symmetry_group_IT_number 69
_symmetry_cell_setting 'orthorhombic'
loop_
_space_group_symop_operation_xyz
x,y,z
-x,-y,z
x,-y,-z
-x,y,-z
-x,-y,-z
x,y,-z
-x,y,z
x,-y,z
x,1/2+y,1/2+z
-x,1/2-y,1/2+z
x,1/2-y,1/2-z
-x,1/2+y,1/2-z
-x,1/2-y,1/2-z
x,1/2+y,1/2-z
-x,1/2+y,1/2+z
x,1/2-y,1/2+z
1/2+x,y,1/2+z
1/2-x,-y,1/2+z
1/2+x,-y,1/2-z
1/2-x,y,1/2-z
1/2-x,-y,1/2-z
1/2+x,y,1/2-z
1/2-x,y,1/2+z
1/2+x,-y,1/2+z
1/2+x,1/2+y,z
1/2-x,1/2-y,z
1/2+x,1/2-y,-z
1/2-x,1/2+y,-z
1/2-x,1/2-y,-z
1/2+x,1/2+y,-z
1/2-x,1/2+y,z
1/2+x,1/2-y,z
loop_
_atom_site_type_symbol
_atom_site_label
_atom_site_fract_x
_atom_site_fract_y
_atom_site_fract_z
Si Si1 0.326634 0.094466 0.905500
Si Si2 0.796163 0.832733 0.855986
Si Si3 0.920159 0.906436 0.097205
Si Si4 0.319429 0.696925 0.500000
Si Si5 0.329110 0.091133 0.262636
Si Si6 0.420313 0.599086 0.677060
Si Si7 0.422210 0.346026 0.000000
O O1 0.253545 0.095356 0.876826
O O2 0.386290 0.131841 0.870884
O O3 0.344362 0.000000 0.918205
O O4 0.322738 0.142836 0.953532
O O5 0.750000 0.750000 0.861959
O O6 0.868759 0.834662 0.883936
O O7 0.825527 0.844859 0.804629
O O8 0.000000 0.883096 0.110595
O O9 0.902796 0.000000 0.115263
O O10 0.907703 0.906125 0.042745
O O11 0.250000 0.750000 0.500000
O O12 0.381968 0.760194 0.500000
O O13 0.250000 0.075515 0.250000
O O14 0.374502 0.131299 0.220838
O O15 0.361089 0.000000 0.276325
O O16 0.500000 0.631803 0.681213
O O17 0.417018 0.500000 0.676973
O O18 0.500000 0.311610 0.000000
#
# Coordination Sequence:
#
# PCOD8284557 Si02
#       7
#    32  32  32  16  32  32  16
#     4  11  22  40  63  89 122 166 218 268 318 384
#     4  12  24  38  60  93 131 169 206 260 330 399
#     4  10  21  39  65  95 125 165 221 276 322 379
#     4  12  25  40  59  92 126 165 211 263 323 389
#     4  10  19  37  63  89 118 161 213 258 312 378
#     4   9  19  37  63  93 123 158 207 267 322 376
#     4  10  21  39  61  87 126 169 204 253 331 396
#
# _framework density 21.571739999999998
#
# number of rings (size 3 to 8) (size 9 to 14) (size 15 to 20)
#    0.000    1.500    1.667    4.500    0.000    2.667 
#    0.000    5.000    0.000    3.500    0.000    0.000 
#    0.000    0.000    0.000    0.000    0.000    0.000 
#
# Total GULP energy -594779.280546 kJ/mol
# GULP energy per Si atom -12391.235011 kJ/mol
# Density = 2.152264 g / cm^3
# Si number density = 21.571740 Si / 1000 Ang^3
#
#
#
# Elastic Constant Matrix: (Units=GPa)
#
#
# Indices 1 2 3 4 5 6 
#
# 1 153.8321 48.8372 86.8258 0.0000 0.0000 0.0000
# 2 48.8372 79.9183 44.5024 0.0000 0.0000 0.0000
# 3 86.8258 44.5024 163.0659 0.0000 0.0000 0.0000
# 4 0.0000 0.0000 0.0000 48.4966 0.0000 0.0000
# 5 0.0000 0.0000 0.0000 0.0000 35.6682 0.0000
# 6 0.0000 0.0000 0.0000 0.0000 0.0000 34.3840
#
#
#
# Elastic Compliance Matrix: (Units=1/GPa)
#
#
# Indices 1 2 3 4 5 6 
#
# 1 0.010176 -0.003775 -0.004388 0.000000 0.000000 0.000000
# 2 -0.003775 0.016155 -0.002399 0.000000 0.000000 0.000000
# 3 -0.004388 -0.002399 0.009124 0.000000 0.000000 0.000000
# 4 0.000000 0.000000 0.000000 0.020620 0.000000 0.000000
# 5 0.000000 0.000000 0.000000 0.000000 0.028036 0.000000
# 6 0.000000 0.000000 0.000000 0.000000 0.000000 0.029083
#
#
# Mechanical properties :
#
#
# Convention : Reuss Voigt Hill
#
# Bulk Modulus (GPa) = 69.77833 84.12744 76.95288
# Shear Modulus (GPa) = 35.94674 38.15314 37.04994
#
# Velocity S-wave (km/s) = 4.08656 4.21011 4.14880
# Velocity P-wave (km/s) = 7.39486 7.91940 7.66162
#
# Compressibility (1/GPa) = 0.01433110
#
# Stress axis : x y z
#
# Youngs Moduli (GPa) = 98.27432 61.89872 109.60595
#
# Poissons Ratio (x) = 0.23366 0.48094
# Poissons Ratio (y) = 0.37097 0.26295
# Poissons Ratio (z) = 0.43122 0.14850
#
# Static dielectric constant tensor:
#      x y z
#    x 4.089440 0.000000 0.000000 
#    y 0.000000 3.621730 0.000000 
#    z 0.000000 0.000000 3.809650 
# 
# 
# High freq. dielectric constant tensor:
#      x y z
#    x 1.849020 0.000000 0.000000 
#    y 0.000000 1.826680 0.000000 
#    z 0.000000 0.000000 1.855610 
# 
# From -- ./inp_files/46451.got.cif
#   From: 2010.03.12/outbox.cif.g09.slc.cpg/sg69_24_cif.got.tgz:46451.got - 2010.04.10 23:52:46.
