data_PCOD8284127
_publ_section_title
;
Structure prediction by ZEFSAII (Michael W. Deem and Ramdas Pophale) SiO2 
 PCOD8284127
Probable space group: F M M M
;
_chemical_formula_sum "Si O2"
_cell_formula_units_Z 192
_cell_length_a 18.897732
_cell_length_b 29.897885
_cell_length_c 18.540240
_cell_angle_alpha 90.000000
_cell_angle_beta 90.000000
_cell_angle_gamma 90.000000
_cell_volume 10475.276724
_symmetry_space_group_name_H-M "F M M M"
_symmetry_group_IT_number 69
_symmetry_cell_setting 'orthorhombic'
loop_
_space_group_symop_operation_xyz
x,y,z
-x,-y,z
x,-y,-z
-x,y,-z
-x,-y,-z
x,y,-z
-x,y,z
x,-y,z
x,1/2+y,1/2+z
-x,1/2-y,1/2+z
x,1/2-y,1/2-z
-x,1/2+y,1/2-z
-x,1/2-y,1/2-z
x,1/2+y,1/2-z
-x,1/2+y,1/2+z
x,1/2-y,1/2+z
1/2+x,y,1/2+z
1/2-x,-y,1/2+z
1/2+x,-y,1/2-z
1/2-x,y,1/2-z
1/2-x,-y,1/2-z
1/2+x,y,1/2-z
1/2-x,y,1/2+z
1/2+x,-y,1/2+z
1/2+x,1/2+y,z
1/2-x,1/2-y,z
1/2+x,1/2-y,-z
1/2-x,1/2+y,-z
1/2-x,1/2-y,-z
1/2+x,1/2+y,-z
1/2-x,1/2+y,z
1/2+x,1/2-y,z
loop_
_atom_site_type_symbol
_atom_site_label
_atom_site_fract_x
_atom_site_fract_y
_atom_site_fract_z
Si Si1 0.579861 0.698567 0.917498
Si Si2 0.420937 0.049832 0.345818
Si Si3 0.832684 0.368082 0.826118
Si Si4 0.079376 0.549175 0.174282
Si Si5 0.675892 0.372048 0.843501
Si Si6 0.419808 0.278871 0.318322
O O1 0.500000 0.679686 0.908993
O O2 0.632898 0.670992 0.868095
O O3 0.582417 0.749399 0.890387
O O4 0.604986 0.697005 0.000000
O O5 0.500000 0.062231 0.373954
O O6 0.421282 0.052321 0.260100
O O7 0.362734 0.084253 0.377470
O O8 0.400399 0.000000 0.372036
O O9 0.874663 0.410518 0.859281
O O10 0.757468 0.367432 0.867953
O O11 0.823843 0.375765 0.741859
O O12 0.872611 0.321514 0.837235
O O13 0.109376 0.500000 0.151506
O O14 0.000000 0.554567 0.144471
O O15 0.500000 0.294734 0.300327
O O16 0.390871 0.250000 0.250000
#
# Coordination Sequence:
#
# PCOD8284127 Si02
#       6
#    32  32  32  32  32  32
#     4  10  21  37  55  74  98 132 175 217 257 304
#     4   8  14  25  43  66  93 129 170 208 248 297
#     4  10  19  29  45  73 103 132 166 206 255 308
#     4   8  14  25  42  66  98 132 162 198 248 304
#     4  10  19  30  45  71 102 132 165 207 259 306
#     4  10  19  33  53  73  95 129 173 219 256 294
#
# _framework density 18.328872
#
# number of rings (size 3 to 8) (size 9 to 14) (size 15 to 20)
#    0.000    2.667    1.667    2.000    0.000    2.667 
#    0.000    5.000    0.000    0.500    0.000    2.333 
#    0.000    2.000    0.000   11.833    0.000    3.167 
#
# Total GULP energy -594888.601075 kJ/mol
# GULP energy per Si atom -12393.512522 kJ/mol
# Density = 1.828715 g / cm^3
# Si number density = 18.328872 Si / 1000 Ang^3
#
#
#
# Elastic Constant Matrix: (Units=GPa)
#
#
# Indices 1 2 3 4 5 6 
#
# 1 135.6987 89.9376 14.8808 0.0000 0.0000 0.0000
# 2 89.9376 144.8233 7.5915 0.0000 0.0000 0.0000
# 3 14.8808 7.5915 20.6143 0.0000 0.0000 0.0000
# 4 0.0000 0.0000 0.0000 2.7086 0.0000 0.0000
# 5 0.0000 0.0000 0.0000 0.0000 9.9118 0.0000
# 6 0.0000 0.0000 0.0000 0.0000 0.0000 16.0141
#
#
#
# Elastic Compliance Matrix: (Units=1/GPa)
#
#
# Indices 1 2 3 4 5 6 
#
# 1 0.013381 -0.007957 -0.006729 0.000000 0.000000 0.000000
# 2 -0.007957 0.011773 0.001408 0.000000 0.000000 0.000000
# 3 -0.006729 0.001408 0.052849 0.000000 0.000000 0.000000
# 4 0.000000 0.000000 0.000000 0.369190 0.000000 0.000000
# 5 0.000000 0.000000 0.000000 0.000000 0.100890 0.000000
# 6 0.000000 0.000000 0.000000 0.000000 0.000000 0.062445
#
#
# Mechanical properties :
#
#
# Convention : Reuss Voigt Hill
#
# Bulk Modulus (GPa) = 19.43742 58.43957 38.93849
# Shear Modulus (GPa) = 7.64256 18.30866 12.97561
#
# Velocity S-wave (km/s) = 2.04420 3.16396 2.66359
# Velocity P-wave (km/s) = 4.02486 6.73058 5.54527
#
# Compressibility (1/GPa) = 0.05144717
#
# Stress axis : x y z
#
# Youngs Moduli (GPa) = 74.73363 84.94326 18.92198
#
# Poissons Ratio (x) = 0.67589 0.12732
# Poissons Ratio (y) = 0.59466 -0.02665
# Poissons Ratio (z) = 0.50288 -0.11964
#
# Static dielectric constant tensor:
#      x y z
#    x 3.680280 0.000000 0.000000 
#    y 0.000000 3.552840 0.000000 
#    z 0.000000 0.000000 2.783900 
# 
# 
# High freq. dielectric constant tensor:
#      x y z
#    x 1.710340 0.000000 0.000000 
#    y 0.000000 1.722470 0.000000 
#    z 0.000000 0.000000 1.642370 
# 
# From -- ./inp_files/32113.got.cif
#   From: 2010.03.12/outbox.cif.g09.slc.cpg/sg69_17_cif.got.tgz:32113.got - 2010.04.10 23:52:46.
