data_PCOD8285003
_publ_section_title
;
Structure prediction by ZEFSAII (Michael W. Deem and Ramdas Pophale) SiO2 
 PCOD8285003
Probable space group: F M M M
;
_chemical_formula_sum "Si O2"
_cell_formula_units_Z 224
_cell_length_a 19.628974
_cell_length_b 26.562556
_cell_length_c 22.413328
_cell_angle_alpha 90.000000
_cell_angle_beta 90.000000
_cell_angle_gamma 90.000000
_cell_volume 11686.213315
_symmetry_space_group_name_H-M "F M M M"
_symmetry_group_IT_number 69
_symmetry_cell_setting 'orthorhombic'
loop_
_space_group_symop_operation_xyz
x,y,z
-x,-y,z
x,-y,-z
-x,y,-z
-x,-y,-z
x,y,-z
-x,y,z
x,-y,z
x,1/2+y,1/2+z
-x,1/2-y,1/2+z
x,1/2-y,1/2-z
-x,1/2+y,1/2-z
-x,1/2-y,1/2-z
x,1/2+y,1/2-z
-x,1/2+y,1/2+z
x,1/2-y,1/2+z
1/2+x,y,1/2+z
1/2-x,-y,1/2+z
1/2+x,-y,1/2-z
1/2-x,y,1/2-z
1/2-x,-y,1/2-z
1/2+x,y,1/2-z
1/2-x,y,1/2+z
1/2+x,-y,1/2+z
1/2+x,1/2+y,z
1/2-x,1/2-y,z
1/2+x,1/2-y,-z
1/2-x,1/2+y,-z
1/2-x,1/2-y,-z
1/2+x,1/2+y,-z
1/2-x,1/2+y,z
1/2+x,1/2-y,z
loop_
_atom_site_type_symbol
_atom_site_label
_atom_site_fract_x
_atom_site_fract_y
_atom_site_fract_z
Si Si1 0.921046 0.693206 0.258225
Si Si2 0.380325 0.656325 0.879662
Si Si3 0.500000 0.839374 0.070519
Si Si4 0.741794 0.808949 0.068512
Si Si5 0.874069 0.861038 0.641263
Si Si6 0.578468 0.943766 0.332984
Si Si7 0.678490 0.057777 0.223856
Si Si8 0.500000 0.723599 0.929829
O O1 0.898035 0.750000 0.250000
O O2 0.874019 0.669358 0.309640
O O3 0.908213 0.665219 0.197339
O O4 0.000000 0.688785 0.277994
O O5 0.309651 0.661461 0.913619
O O6 0.402616 0.597434 0.883637
O O7 0.433199 0.694532 0.909116
O O8 0.433987 0.869650 0.093525
O O9 0.500000 0.781139 0.094763
O O10 0.500000 0.840360 0.000000
O O11 0.750000 0.750000 0.078112
O O12 0.681516 0.825612 0.111244
O O13 0.723934 0.821667 0.000000
O O14 0.840067 0.913019 0.662937
O O15 0.500000 0.937405 0.314743
O O16 0.620071 0.934332 0.272671
O O17 0.593114 0.000000 0.358462
O O18 0.750000 0.078268 0.250000
O O19 0.686476 0.000000 0.204797
O O20 0.500000 0.725592 0.000000
#
# Coordination Sequence:
#
# PCOD8285003 Si02
#       8
#    32  32  16  32  32  32  32  16
#     4  11  21  33  54  89 127 156 184 237 306 366
#     4  12  21  37  61  87 124 159 200 256 309 360
#     4  11  24  41  60  85 120 165 213 248 290 364
#     4  11  25  43  61  85 120 164 214 255 293 355
#     4  12  23  38  63  88 120 160 198 251 306 358
#     4  10  20  36  60  91 127 162 198 245 307 373
#     4  10  22  40  61  90 124 160 201 243 300 376
#     4  11  22  37  60  85 114 167 217 246 292 362
#
# _framework density 19.167885999999999
#
# number of rings (size 3 to 8) (size 9 to 14) (size 15 to 20)
#    0.000    1.000    3.571    4.286    1.000    2.286 
#    0.000    1.429    0.000    5.143    0.000    0.000 
#    0.000    0.000    0.000    0.000    0.000    0.000 
#
# Total GULP energy -694535.240304 kJ/mol
# GULP energy per Si atom -12402.415005 kJ/mol
# Density = 1.912426 g / cm^3
# Si number density = 19.167886 Si / 1000 Ang^3
#
#
#
# Elastic Constant Matrix: (Units=GPa)
#
#
# Indices 1 2 3 4 5 6 
#
# 1 102.5604 36.4634 19.9440 0.0000 0.0000 0.0000
# 2 36.4634 113.7553 41.1821 0.0000 0.0000 0.0000
# 3 19.9440 41.1821 64.3657 0.0000 0.0000 0.0000
# 4 0.0000 0.0000 0.0000 21.1104 0.0000 0.0000
# 5 0.0000 0.0000 0.0000 0.0000 -53.5912 0.0000
# 6 0.0000 0.0000 0.0000 0.0000 0.0000 22.7796
#
#
#
# Elastic Compliance Matrix: (Units=1/GPa)
#
#
# Indices 1 2 3 4 5 6 
#
# 1 0.011117 -0.003015 -0.001516 0.000000 0.000000 0.000000
# 2 -0.003015 0.012258 -0.006909 0.000000 0.000000 0.000000
# 3 -0.001516 -0.006909 0.020426 0.000000 0.000000 0.000000
# 4 0.000000 0.000000 0.000000 0.047370 0.000000 0.000000
# 5 0.000000 0.000000 0.000000 0.000000 -0.018660 0.000000
# 6 0.000000 0.000000 0.000000 0.000000 0.000000 0.043899
#
#
# Mechanical properties :
#
#
# Convention : Reuss Voigt Hill
#
# Bulk Modulus (GPa) = 47.79482 52.87336 50.33409
# Shear Modulus (GPa) = 34.18481 10.26590 22.22535
#
# Velocity S-wave (km/s) = 4.22766 2.31677 3.40885
# Velocity P-wave (km/s) = 6.98712 5.89922 6.46609
#
# Compressibility (1/GPa) = 0.02092277
#
# Stress axis : x y z
#
# Youngs Moduli (GPa) = 89.95290 81.57715 48.95639
#
# Poissons Ratio (x) = 0.24593 0.07421
# Poissons Ratio (y) = 0.27118 0.33824
# Poissons Ratio (z) = 0.13635 0.56361
#
# Static dielectric constant tensor:
#      x y z
#    x 3.993420 0.000000 0.000000 
#    y 0.000000 3.767390 0.000000 
#    z 0.000000 0.000000 3.589210 
# 
# 
# High freq. dielectric constant tensor:
#      x y z
#    x 1.756540 0.000000 0.000000 
#    y 0.000000 1.746320 0.000000 
#    z 0.000000 0.000000 1.733870 
# 
# From -- ./inp_files/31222.got.cif
#   From: 2010.03.12/outbox.cif.g09.slc.cpg/sg69_16_cif.got.tgz:31222.got - 2010.04.10 23:52:46.
