data_PCOD8285401
_publ_section_title
;
Structure prediction by ZEFSAII (Michael W. Deem and Ramdas Pophale) SiO2 
 PCOD8285401
Probable space group: F M M M
;
_chemical_formula_sum "Si O2"
_cell_formula_units_Z 80
_cell_length_a 17.098728
_cell_length_b 9.691235
_cell_length_c 22.109742
_cell_angle_alpha 90.000000
_cell_angle_beta 90.000000
_cell_angle_gamma 90.000000
_cell_volume 3663.756512
_symmetry_space_group_name_H-M "F M M M"
_symmetry_group_IT_number 69
_symmetry_cell_setting 'orthorhombic'
loop_
_space_group_symop_operation_xyz
x,y,z
-x,-y,z
x,-y,-z
-x,y,-z
-x,-y,-z
x,y,-z
-x,y,z
x,-y,z
x,1/2+y,1/2+z
-x,1/2-y,1/2+z
x,1/2-y,1/2-z
-x,1/2+y,1/2-z
-x,1/2-y,1/2-z
x,1/2+y,1/2-z
-x,1/2+y,1/2+z
x,1/2-y,1/2+z
1/2+x,y,1/2+z
1/2-x,-y,1/2+z
1/2+x,-y,1/2-z
1/2-x,y,1/2-z
1/2-x,-y,1/2-z
1/2+x,y,1/2-z
1/2-x,y,1/2+z
1/2+x,-y,1/2+z
1/2+x,1/2+y,z
1/2-x,1/2-y,z
1/2+x,1/2-y,-z
1/2-x,1/2+y,-z
1/2-x,1/2-y,-z
1/2+x,1/2+y,-z
1/2-x,1/2+y,z
1/2+x,1/2-y,z
loop_
_atom_site_type_symbol
_atom_site_label
_atom_site_fract_x
_atom_site_fract_y
_atom_site_fract_z
Si Si1 0.701567 0.000000 0.567093
Si Si2 0.911629 0.295856 0.379412
Si Si3 0.353446 0.500000 0.354931
Si Si4 0.088770 0.500000 0.726305
O O1 0.648062 0.863830 0.573245
O O2 0.739220 0.000000 0.500000
O O3 0.766007 0.000000 0.619544
O O4 0.896554 0.363069 0.313514
O O5 0.000000 0.328139 0.400277
O O6 0.899315 0.133072 0.378408
O O7 0.350853 0.500000 0.281988
O O8 0.000000 0.500000 0.752090
#
# Coordination Sequence:
#
# PCOD8285401 Si02
#       4
#    16  32  16  16
#     4  11  26  46  61  80 121 169 206 248 307 365
#     4  10  22  40  65  94 121 158 204 245 296 363
#     4  12  22  36  64  96 127 156 194 253 305 347
#     4   9  19  38  63  93 130 164 192 233 301 376
#
# _framework density 21.835512000000001
#
# number of rings (size 3 to 8) (size 9 to 14) (size 15 to 20)
#    0.000    1.600    0.000    6.000    0.000   11.200 
#    0.000    8.000    0.000    6.600    0.000    0.000 
#    0.000    0.000    0.000    0.000    0.000    0.000 
#
# Total GULP energy -248042.530048 kJ/mol
# GULP energy per Si atom -12402.126502 kJ/mol
# Density = 2.178581 g / cm^3
# Si number density = 21.835512 Si / 1000 Ang^3
#
#
#
# Elastic Constant Matrix: (Units=GPa)
#
#
# Indices 1 2 3 4 5 6 
#
# 1 124.2366 32.3351 57.4034 0.0000 0.0000 0.0000
# 2 32.3351 164.8624 28.0848 0.0000 0.0000 0.0000
# 3 57.4034 28.0848 110.9617 0.0000 0.0000 0.0000
# 4 0.0000 0.0000 0.0000 10.0719 0.0000 0.0000
# 5 0.0000 0.0000 0.0000 0.0000 25.7152 0.0000
# 6 0.0000 0.0000 0.0000 0.0000 0.0000 30.5733
#
#
#
# Elastic Compliance Matrix: (Units=1/GPa)
#
#
# Indices 1 2 3 4 5 6 
#
# 1 0.010807 -0.001220 -0.005282 0.000000 0.000000 0.000000
# 2 -0.001220 0.006477 -0.001008 0.000000 0.000000 0.000000
# 3 -0.005282 -0.001008 0.012000 0.000000 0.000000 0.000000
# 4 0.000000 0.000000 0.000000 0.099286 0.000000 0.000000
# 5 0.000000 0.000000 0.000000 0.000000 0.038887 0.000000
# 6 0.000000 0.000000 0.000000 0.000000 0.000000 0.032708
#
#
# Mechanical properties :
#
#
# Convention : Reuss Voigt Hill
#
# Bulk Modulus (GPa) = 70.10931 70.63414 70.37172
# Shear Modulus (GPa) = 22.73344 32.08791 27.41067
#
# Velocity S-wave (km/s) = 3.23014 3.83760 3.54690
# Velocity P-wave (km/s) = 6.78892 7.21490 7.00515
#
# Compressibility (1/GPa) = 0.01426344
#
# Stress axis : x y z
#
# Youngs Moduli (GPa) = 92.53055 154.40039 83.33416
#
# Poissons Ratio (x) = 0.18834 0.44018
# Poissons Ratio (y) = 0.11287 0.08402
# Poissons Ratio (z) = 0.48876 0.15567
#
# Static dielectric constant tensor:
#      x y z
#    x 3.903140 0.000000 0.000000 
#    y 0.000000 4.114090 0.000000 
#    z 0.000000 0.000000 3.652170 
# 
# 
# High freq. dielectric constant tensor:
#      x y z
#    x 1.857050 0.000000 0.000000 
#    y 0.000000 1.871840 0.000000 
#    z 0.000000 0.000000 1.833000 
# 
# From -- ./inp_files/23858.got.cif
#   From: 2010.03.12/outbox.cif.g09.slc.cpg/sg69_12_cif.got.tgz:23858.got - 2010.04.10 23:52:46.
