data_PCOD8285285
_publ_section_title
;
Structure prediction by ZEFSAII (Michael W. Deem and Ramdas Pophale) SiO2 
 PCOD8285285
Probable space group: F M M M
;
_chemical_formula_sum "Si O2"
_cell_formula_units_Z 160
_cell_length_a 18.595767
_cell_length_b 27.785441
_cell_length_c 14.414304
_cell_angle_alpha 90.000000
_cell_angle_beta 90.000000
_cell_angle_gamma 90.000000
_cell_volume 7447.749607
_symmetry_space_group_name_H-M "F M M M"
_symmetry_group_IT_number 69
_symmetry_cell_setting 'orthorhombic'
loop_
_space_group_symop_operation_xyz
x,y,z
-x,-y,z
x,-y,-z
-x,y,-z
-x,-y,-z
x,y,-z
-x,y,z
x,-y,z
x,1/2+y,1/2+z
-x,1/2-y,1/2+z
x,1/2-y,1/2-z
-x,1/2+y,1/2-z
-x,1/2-y,1/2-z
x,1/2+y,1/2-z
-x,1/2+y,1/2+z
x,1/2-y,1/2+z
1/2+x,y,1/2+z
1/2-x,-y,1/2+z
1/2+x,-y,1/2-z
1/2-x,y,1/2-z
1/2-x,-y,1/2-z
1/2+x,y,1/2-z
1/2-x,y,1/2+z
1/2+x,-y,1/2+z
1/2+x,1/2+y,z
1/2-x,1/2-y,z
1/2+x,1/2-y,-z
1/2-x,1/2+y,-z
1/2-x,1/2-y,-z
1/2+x,1/2+y,-z
1/2-x,1/2+y,z
1/2+x,1/2-y,z
loop_
_atom_site_type_symbol
_atom_site_label
_atom_site_fract_x
_atom_site_fract_y
_atom_site_fract_z
Si Si1 0.270494 0.944752 0.106469
Si Si2 0.915439 0.830607 0.000000
Si Si3 0.077522 0.556412 0.821404
Si Si4 0.829575 0.702404 0.793280
Si Si5 0.670173 0.767665 0.000000
Si Si6 0.140399 0.614472 0.323349
O O1 0.353147 0.927167 0.118466
O O2 0.219920 0.908215 0.163407
O O3 0.260587 0.000000 0.141670
O O4 0.248277 0.941116 0.000000
O O5 0.883299 0.777298 0.000000
O O6 0.889175 0.861631 0.914565
O O7 0.000000 0.824535 0.000000
O O8 0.072929 0.500000 0.823248
O O9 0.088414 0.572490 0.714086
O O10 0.000000 0.576600 0.858869
O O11 0.868459 0.750000 0.750000
O O12 0.750000 0.702850 0.750000
O O13 0.837414 0.701440 0.905417
O O14 0.865426 0.653906 0.758157
O O15 0.750000 0.750000 0.000000
#
# Coordination Sequence:
#
# PCOD8285285 Si02
#       6
#    32  16  32  32  16  32
#     4  10  21  38  65  98 129 169 225 280 329 392
#     4  12  26  42  67  98 132 172 217 276 338 396
#     4  10  22  40  62  91 133 177 215 270 339 401
#     4  11  21  37  63  98 123 165 212 268 325 377
#     4  12  22  42  66  91 130 165 222 272 318 393
#     4  12  22  42  64  97 130 173 225 271 326 399
#
# _framework density 21.483000000000001
#
# number of rings (size 3 to 8) (size 9 to 14) (size 15 to 20)
#    0.000    1.000    5.000    3.000    0.000    2.000 
#    5.400    5.000    0.000    2.400    0.000    0.000 
#    0.000    0.000    0.000    0.000    0.000    0.000 
#
# Total GULP energy -495615.194588 kJ/mol
# GULP energy per Si atom -12390.379865 kJ/mol
# Density = 2.143410 g / cm^3
# Si number density = 21.483000 Si / 1000 Ang^3
#
#
#
# Elastic Constant Matrix: (Units=GPa)
#
#
# Indices 1 2 3 4 5 6 
#
# 1 141.9052 43.3254 22.5994 0.0000 0.0000 0.0000
# 2 43.3254 33.7971 23.8327 0.0000 0.0000 0.0000
# 3 22.5994 23.8327 135.2318 0.0000 0.0000 0.0000
# 4 0.0000 0.0000 0.0000 55.8928 0.0000 0.0000
# 5 0.0000 0.0000 0.0000 0.0000 2.9419 0.0000
# 6 0.0000 0.0000 0.0000 0.0000 0.0000 16.8896
#
#
#
# Elastic Compliance Matrix: (Units=1/GPa)
#
#
# Indices 1 2 3 4 5 6 
#
# 1 0.011651 -0.015487 0.000782 0.000000 0.000000 0.000000
# 2 -0.015487 0.054374 -0.006995 0.000000 0.000000 0.000000
# 3 0.000782 -0.006995 0.008497 0.000000 0.000000 0.000000
# 4 0.000000 0.000000 0.000000 0.017891 0.000000 0.000000
# 5 0.000000 0.000000 0.000000 0.000000 0.339915 0.000000
# 6 0.000000 0.000000 0.000000 0.000000 0.000000 0.059208
#
#
# Mechanical properties :
#
#
# Convention : Reuss Voigt Hill
#
# Bulk Modulus (GPa) = 32.13066 54.49435 43.31251
# Shear Modulus (GPa) = 9.16911 29.88995 19.52953
#
# Velocity S-wave (km/s) = 2.06817 3.73410 3.01835
# Velocity P-wave (km/s) = 4.54884 6.63421 5.68791
#
# Compressibility (1/GPa) = 0.03112292
#
# Stress axis : x y z
#
# Youngs Moduli (GPa) = 85.83108 18.39107 117.69339
#
# Poissons Ratio (x) = 0.28483 -0.09208
# Poissons Ratio (y) = 1.32928 0.82321
# Poissons Ratio (z) = -0.06715 0.12864
#
# Static dielectric constant tensor:
#      x y z
#    x 4.167670 0.000000 0.000000 
#    y 0.000000 4.302170 0.000000 
#    z 0.000000 0.000000 3.893390 
# 
# 
# High freq. dielectric constant tensor:
#      x y z
#    x 1.823970 0.000000 0.000000 
#    y 0.000000 1.854460 0.000000 
#    z 0.000000 0.000000 1.848690 
# 
# From -- ./inp_files/15694.got.cif
#   From: 2010.03.12/outbox.cif.g09.slc.cpg/sg69_8_cif.got.tgz:15694.got - 2010.04.10 23:52:46.
