data_PCOD8285218
_publ_section_title
;
Structure prediction by ZEFSAII (Michael W. Deem and Ramdas Pophale) SiO2 
 PCOD8285218
Probable space group: F M M M
;
_chemical_formula_sum "Si O2"
_cell_formula_units_Z 128
_cell_length_a 25.422958
_cell_length_b 27.546835
_cell_length_c 10.108309
_cell_angle_alpha 90.000000
_cell_angle_beta 90.000000
_cell_angle_gamma 90.000000
_cell_volume 7079.071471
_symmetry_space_group_name_H-M "F M M M"
_symmetry_group_IT_number 69
_symmetry_cell_setting 'orthorhombic'
loop_
_space_group_symop_operation_xyz
x,y,z
-x,-y,z
x,-y,-z
-x,y,-z
-x,-y,-z
x,y,-z
-x,y,z
x,-y,z
x,1/2+y,1/2+z
-x,1/2-y,1/2+z
x,1/2-y,1/2-z
-x,1/2+y,1/2-z
-x,1/2-y,1/2-z
x,1/2+y,1/2-z
-x,1/2+y,1/2+z
x,1/2-y,1/2+z
1/2+x,y,1/2+z
1/2-x,-y,1/2+z
1/2+x,-y,1/2-z
1/2-x,y,1/2-z
1/2-x,-y,1/2-z
1/2+x,y,1/2-z
1/2-x,y,1/2+z
1/2+x,-y,1/2+z
1/2+x,1/2+y,z
1/2-x,1/2-y,z
1/2+x,1/2-y,-z
1/2-x,1/2+y,-z
1/2-x,1/2-y,-z
1/2+x,1/2+y,-z
1/2-x,1/2+y,z
1/2+x,1/2-y,z
loop_
_atom_site_type_symbol
_atom_site_label
_atom_site_fract_x
_atom_site_fract_y
_atom_site_fract_z
Si Si1 0.500000 0.050680 0.857190
Si Si2 0.098788 0.895699 0.265271
Si Si3 0.437059 0.442817 0.000000
Si Si4 0.938688 0.705322 0.845259
Si Si5 0.204586 0.555836 0.849205
O O1 0.448573 0.082307 0.847098
O O2 0.500000 0.000000 0.766218
O O3 0.500000 0.028403 0.000000
O O4 0.095673 0.837945 0.282640
O O5 0.153818 0.911808 0.325206
O O6 0.091297 0.915243 0.118318
O O7 0.423622 0.500000 0.000000
O O8 0.500000 0.433297 0.000000
O O9 0.924621 0.750000 0.750000
O O10 0.000000 0.692164 0.833854
O O11 0.924028 0.715566 0.000000
O O12 0.189835 0.500000 0.820497
O O13 0.250000 0.573627 0.750000
O O14 0.224209 0.562698 0.000000
#
# Coordination Sequence:
#
# PCOD8285218 Si02
#       5
#    16  32  16  32  32
#     4  11  20  31  52  81 113 147 186 231 286 355
#     4  12  22  36  58  81 117 156 196 239 296 351
#     4  11  22  34  52  86 126 157 190 235 295 364
#     4  10  21  37  58  83 117 152 195 245 298 356
#     4  10  22  39  59  84 115 153 198 243 292 354
#
# _framework density 18.081467
#
# number of rings (size 3 to 8) (size 9 to 14) (size 15 to 20)
#    0.000    1.250    2.500    4.500    3.500    2.000 
#    0.000    0.000    0.000    0.750    0.000    3.500 
#    0.000    0.000    0.000    0.000    0.000    0.000 
#
# Total GULP energy -396586.118388 kJ/mol
# GULP energy per Si atom -12393.316200 kJ/mol
# Density = 1.804031 g / cm^3
# Si number density = 18.081467 Si / 1000 Ang^3
#
#
#
# Elastic Constant Matrix: (Units=GPa)
#
#
# Indices 1 2 3 4 5 6 
#
# 1 105.4408 52.4945 37.6293 0.0022 -0.0008 -0.0006
# 2 52.4945 128.1788 57.7503 0.0020 -0.0014 -0.0010
# 3 37.6293 57.7503 139.0324 0.0086 -0.0035 -0.0026
# 4 0.0022 0.0020 0.0086 16.3014 -0.0031 -0.0024
# 5 -0.0008 -0.0014 -0.0035 -0.0031 15.3090 0.0009
# 6 -0.0006 -0.0010 -0.0026 -0.0024 0.0009 26.6444
#
#
#
# Elastic Compliance Matrix: (Units=1/GPa)
#
#
# Indices 1 2 3 4 5 6 
#
# 1 0.012163 -0.004304 -0.001504 0.000000 0.000000 0.000000
# 2 -0.004304 0.011120 -0.003454 0.000001 0.000000 0.000000
# 3 -0.001504 -0.003454 0.009035 -0.000004 0.000002 0.000001
# 4 0.000000 0.000001 -0.000004 0.061345 0.000012 0.000005
# 5 0.000000 0.000000 0.000002 0.000012 0.065321 -0.000002
# 6 0.000000 0.000000 0.000001 0.000005 -0.000002 0.037531
#
#
# Mechanical properties :
#
#
# Convention : Reuss Voigt Hill
#
# Bulk Modulus (GPa) = 72.49700 74.26668 73.38184
# Shear Modulus (GPa) = 22.76472 26.63615 24.70044
#
# Velocity S-wave (km/s) = 3.55210 3.84229 3.70004
# Velocity P-wave (km/s) = 7.55016 7.80043 7.67632
#
# Compressibility (1/GPa) = 0.01379367
#
# Stress axis : x y z
#
# Youngs Moduli (GPa) = 82.21326 89.92438 110.68557
#
# Poissons Ratio (x) = 0.38700 0.16652
# Poissons Ratio (y) = 0.35381 0.38235
# Poissons Ratio (z) = 0.12369 0.31063
#
# Static dielectric constant tensor:
#      x y z
#    x 3.145080 0.000000 0.000000 
#    y 0.000000 3.371240 0.000000 
#    z 0.000000 0.000000 3.712990 
# 
# 
# High freq. dielectric constant tensor:
#      x y z
#    x 1.671610 0.000000 0.000000 
#    y 0.000000 1.695920 0.000000 
#    z 0.000000 0.000000 1.722180 
# 
# From -- ./inp_files/10107.got.cif
#   From: 2010.03.12/outbox.cif.g09.slc.cpg/sg69_6_cif.got.tgz:10107.got - 2010.04.10 23:52:46.
