data_PCOD8285774
_publ_section_title
;
Structure prediction by ZEFSAII (Michael W. Deem and Ramdas Pophale) SiO2 
 PCOD8285774
Probable space group: F D D D
;
_chemical_formula_sum "Si O2"
_cell_formula_units_Z 144
_cell_length_a 18.120250
_cell_length_b 15.672366
_cell_length_c 21.502332
_cell_angle_alpha 90.000000
_cell_angle_beta 90.000000
_cell_angle_gamma 90.000000
_cell_volume 6106.386843
_symmetry_space_group_name_H-M "F D D D"
_symmetry_group_IT_number 70
_space_group.IT_coordinate_system_code '2'
_symmetry_cell_setting 'orthorhombic'
loop_
_space_group_symop_operation_xyz
x,y,z
1/4-x,1/4-y,z
x,1/4-y,1/4-z
1/4-x,y,1/4-z
-x,-y,-z
3/4+x,3/4+y,-z
-x,3/4+y,3/4+z
3/4+x,-y,3/4+z
x,1/2+y,1/2+z
1/4-x,3/4-y,1/2+z
x,3/4-y,3/4-z
1/4-x,1/2+y,3/4-z
-x,1/2-y,1/2-z
3/4+x,1/4+y,1/2-z
-x,1/4+y,1/4+z
3/4+x,1/2-y,1/4+z
1/2+x,y,1/2+z
3/4-x,1/4-y,1/2+z
1/2+x,1/4-y,3/4-z
3/4-x,y,3/4-z
1/2-x,-y,1/2-z
1/4+x,3/4+y,1/2-z
1/2-x,3/4+y,1/4+z
1/4+x,-y,1/4+z
1/2+x,1/2+y,z
3/4-x,3/4-y,z
1/2+x,3/4-y,1/4-z
3/4-x,1/2+y,1/4-z
1/2-x,1/2-y,-z
1/4+x,1/4+y,-z
1/2-x,1/4+y,3/4+z
1/4+x,1/2-y,3/4+z
loop_
_atom_site_type_symbol
_atom_site_label
_atom_site_fract_x
_atom_site_fract_y
_atom_site_fract_z
Si Si1 0.735059 0.685465 0.916395
Si Si2 0.236609 0.875000 0.875000
Si Si3 0.739963 0.489893 0.531716
Si Si4 0.095784 0.798796 0.917544
Si Si5 0.362940 0.971436 0.282335
O O1 0.735682 0.583511 0.920283
O O2 0.690136 0.709679 0.854354
O O3 0.818507 0.725090 0.915037
O O4 0.687698 0.726159 0.971685
O O5 0.284156 0.927466 0.926544
O O6 0.184201 0.805535 0.910195
O O7 0.673876 0.448560 0.490972
O O8 0.808824 0.514429 0.486597
O O9 0.059012 0.875000 0.875000
O O10 0.375000 0.875000 0.306131
#
# Coordination Sequence:
#
# PCOD8285774 Si02
#       5
#    32  16  32  32  32
#     4  10  18  32  50  80 115 151 194 239 298 380
#     4  10  22  38  54  89 120 155 202 252 308 358
#     4  11  20  34  57  78 118 164 195 252 304 359
#     4  10  20  35  55  86 120 148 195 251 299 375
#     4   9  16  28  51  79 115 151 185 240 316 370
#
# _framework density 23.581866000000002
#
# number of rings (size 3 to 8) (size 9 to 14) (size 15 to 20)
#    0.667    1.333    2.222    5.333    0.000    0.889 
#    0.000    5.556    0.000    0.000    0.000    0.000 
#    0.000    0.000    0.000    0.000    0.000    0.000 
#
# Total GULP energy -446044.193699 kJ/mol
# GULP energy per Si atom -12390.116492 kJ/mol
# Density = 2.352819 g / cm^3
# Si number density = 23.581866 Si / 1000 Ang^3
#
#
#
# Elastic Constant Matrix: (Units=GPa)
#
#
# Indices 1 2 3 4 5 6 
#
# 1 40.7927 2.6094 0.2100 0.0000 0.0000 0.0000
# 2 2.6094 61.1380 41.1505 0.0000 0.0000 0.0000
# 3 0.2100 41.1505 69.5498 0.0000 0.0000 0.0000
# 4 0.0000 0.0000 0.0000 44.2721 0.0000 0.0000
# 5 0.0000 0.0000 0.0000 0.0000 5.8066 0.0000
# 6 0.0000 0.0000 0.0000 0.0000 0.0000 11.9686
#
#
#
# Elastic Compliance Matrix: (Units=1/GPa)
#
#
# Indices 1 2 3 4 5 6 
#
# 1 0.024616 -0.001663 0.000909 0.000000 0.000000 0.000000
# 2 -0.001663 0.027293 -0.016144 0.000000 0.000000 0.000000
# 3 0.000909 -0.016144 0.023927 0.000000 0.000000 0.000000
# 4 0.000000 0.000000 0.000000 0.022588 0.000000 0.000000
# 5 0.000000 0.000000 0.000000 0.000000 0.172217 0.000000
# 6 0.000000 0.000000 0.000000 0.000000 0.000000 0.083552
#
#
# Mechanical properties :
#
#
# Convention : Reuss Voigt Hill
#
# Bulk Modulus (GPa) = 23.78545 28.82449 26.30497
# Shear Modulus (GPa) = 12.43779 20.91018 16.67399
#
# Velocity S-wave (km/s) = 2.29908 2.98099 2.66196
# Velocity P-wave (km/s) = 4.14197 4.90898 4.54170
#
# Compressibility (1/GPa) = 0.04204251
#
# Stress axis : x y z
#
# Youngs Moduli (GPa) = 40.62416 36.63911 41.79358
#
# Poissons Ratio (x) = 0.06092 -0.03801
# Poissons Ratio (y) = 0.06755 0.67470
# Poissons Ratio (z) = -0.03695 0.59149
#
# Static dielectric constant tensor:
#      x y z
#    x 3.997760 0.000000 0.000000 
#    y 0.000000 3.934030 0.000000 
#    z 0.000000 0.000000 3.998810 
# 
# 
# High freq. dielectric constant tensor:
#      x y z
#    x 1.900180 0.000000 0.000000 
#    y 0.000000 1.909020 0.000000 
#    z 0.000000 0.000000 1.907040 
# 
# From -- ./inp_files/44647.got.cif
#   From: 2010.03.12/outbox.cif.g09.slc.cpg/sg70_23_cif.got.tgz:44647.got - 2010.04.16 13:46:32.
