data_PCOD8285258
_publ_section_title
;
Structure prediction by ZEFSAII (Michael W. Deem and Ramdas Pophale) SiO2 
 PCOD8285258
Probable space group: F M M M
;
_chemical_formula_sum "Si O2"
_cell_formula_units_Z 192
_cell_length_a 23.201342
_cell_length_b 23.070660
_cell_length_c 18.898799
_cell_angle_alpha 90.000000
_cell_angle_beta 90.000000
_cell_angle_gamma 90.000000
_cell_volume 10115.965297
_symmetry_space_group_name_H-M "F M M M"
_symmetry_group_IT_number 69
_symmetry_cell_setting 'orthorhombic'
loop_
_space_group_symop_operation_xyz
x,y,z
-x,-y,z
x,-y,-z
-x,y,-z
-x,-y,-z
x,y,-z
-x,y,z
x,-y,z
x,1/2+y,1/2+z
-x,1/2-y,1/2+z
x,1/2-y,1/2-z
-x,1/2+y,1/2-z
-x,1/2-y,1/2-z
x,1/2+y,1/2-z
-x,1/2+y,1/2+z
x,1/2-y,1/2+z
1/2+x,y,1/2+z
1/2-x,-y,1/2+z
1/2+x,-y,1/2-z
1/2-x,y,1/2-z
1/2-x,-y,1/2-z
1/2+x,y,1/2-z
1/2-x,y,1/2+z
1/2+x,-y,1/2+z
1/2+x,1/2+y,z
1/2-x,1/2-y,z
1/2+x,1/2-y,-z
1/2-x,1/2+y,-z
1/2-x,1/2-y,-z
1/2+x,1/2+y,-z
1/2-x,1/2+y,z
1/2+x,1/2-y,z
loop_
_atom_site_type_symbol
_atom_site_label
_atom_site_fract_x
_atom_site_fract_y
_atom_site_fract_z
Si Si1 0.364791 0.565800 0.419756
Si Si2 0.933117 0.126633 0.307153
Si Si3 0.351233 0.233924 0.172636
Si Si4 0.932324 0.067472 0.839559
Si Si5 0.727850 0.159546 0.081187
Si Si6 0.360376 0.841616 0.417874
O O1 0.384669 0.576777 0.500000
O O2 0.347510 0.500000 0.405887
O O3 0.418479 0.583529 0.371271
O O4 0.307814 0.601924 0.400718
O O5 0.900842 0.186770 0.318280
O O6 0.914160 0.094776 0.235379
O O7 0.000000 0.140903 0.307395
O O8 0.327864 0.250000 0.250000
O O9 0.296308 0.212167 0.128056
O O10 0.380237 0.287855 0.131076
O O11 0.897474 0.101360 0.900212
O O12 0.000000 0.075012 0.853965
O O13 0.914719 0.000000 0.841168
O O14 0.793634 0.145509 0.099589
O O15 0.720269 0.178706 0.000000
O O16 0.369865 0.825964 0.500000
#
# Coordination Sequence:
#
# PCOD8285258 Si02
#       6
#    32  32  32  32  32  32
#     4   9  18  34  56  84 117 151 189 233 282 338
#     4  10  21  38  59  82 114 152 191 236 287 342
#     4  11  21  37  59  87 114 149 189 233 283 342
#     4  10  22  41  62  84 113 151 196 244 290 335
#     4   9  20  37  57  83 118 153 185 228 284 341
#     4  11  23  39  59  86 117 153 193 234 287 346
#
# _framework density 18.979899
#
# number of rings (size 3 to 8) (size 9 to 14) (size 15 to 20)
#    0.000    2.000    1.667    1.500    0.000    7.000 
#    0.000    3.333    0.000    3.000    0.000    0.000 
#    0.000    0.000    0.000    0.000    0.000    0.000 
#
# Total GULP energy -595359.876072 kJ/mol
# GULP energy per Si atom -12403.330751 kJ/mol
# Density = 1.893670 g / cm^3
# Si number density = 18.979899 Si / 1000 Ang^3
#
#
#
# Elastic Constant Matrix: (Units=GPa)
#
#
# Indices 1 2 3 4 5 6 
#
# 1 71.6037 45.1479 42.8403 0.0000 0.0000 0.0000
# 2 45.1479 119.8035 59.9080 0.0000 0.0000 0.0000
# 3 42.8403 59.9080 112.8409 0.0000 0.0000 0.0000
# 4 0.0000 0.0000 0.0000 35.0408 0.0000 0.0000
# 5 0.0000 0.0000 0.0000 0.0000 30.7622 0.0000
# 6 0.0000 0.0000 0.0000 0.0000 0.0000 25.6426
#
#
#
# Elastic Compliance Matrix: (Units=1/GPa)
#
#
# Indices 1 2 3 4 5 6 
#
# 1 0.020147 -0.005129 -0.004926 0.000000 0.000000 0.000000
# 2 -0.005129 0.012670 -0.004779 0.000000 0.000000 0.000000
# 3 -0.004926 -0.004779 0.013269 0.000000 0.000000 0.000000
# 4 0.000000 0.000000 0.000000 0.028538 0.000000 0.000000
# 5 0.000000 0.000000 0.000000 0.000000 0.032507 0.000000
# 6 0.000000 0.000000 0.000000 0.000000 0.000000 0.038998
#
#
# Mechanical properties :
#
#
# Convention : Reuss Voigt Hill
#
# Bulk Modulus (GPa) = 60.90908 66.67117 63.79013
# Shear Modulus (GPa) = 27.58317 28.71258 28.14787
#
# Velocity S-wave (km/s) = 3.81633 3.89368 3.85520
# Velocity P-wave (km/s) = 7.18194 7.44431 7.31430
#
# Compressibility (1/GPa) = 0.01641791
#
# Stress axis : x y z
#
# Youngs Moduli (GPa) = 49.63539 78.92792 75.36159
#
# Poissons Ratio (x) = 0.40484 0.37121
# Poissons Ratio (y) = 0.25459 0.36016
# Poissons Ratio (z) = 0.24449 0.37721
#
# Static dielectric constant tensor:
#      x y z
#    x 3.327280 0.000000 0.000000 
#    y 0.000000 3.598830 0.000000 
#    z 0.000000 0.000000 3.643980 
# 
# 
# High freq. dielectric constant tensor:
#      x y z
#    x 1.726960 0.000000 0.000000 
#    y 0.000000 1.747410 0.000000 
#    z 0.000000 0.000000 1.746890 
# 
# From -- ./inp_files/32066.got.cif
#   From: 2010.03.12/outbox.cif.g09.slc.cpg/sg69_17_cif.got.tgz:32066.got - 2010.04.10 23:52:46.
