data_PCOD8285414
_publ_section_title
;
Structure prediction by ZEFSAII (Michael W. Deem and Ramdas Pophale) SiO2 
 PCOD8285414
Probable space group: F M M M
;
_chemical_formula_sum "Si O2"
_cell_formula_units_Z 112
_cell_length_a 18.885348
_cell_length_b 19.824456
_cell_length_c 14.163583
_cell_angle_alpha 90.000000
_cell_angle_beta 90.000000
_cell_angle_gamma 90.000000
_cell_volume 5302.728632
_symmetry_space_group_name_H-M "F M M M"
_symmetry_group_IT_number 69
_symmetry_cell_setting 'orthorhombic'
loop_
_space_group_symop_operation_xyz
x,y,z
-x,-y,z
x,-y,-z
-x,y,-z
-x,-y,-z
x,y,-z
-x,y,z
x,-y,z
x,1/2+y,1/2+z
-x,1/2-y,1/2+z
x,1/2-y,1/2-z
-x,1/2+y,1/2-z
-x,1/2-y,1/2-z
x,1/2+y,1/2-z
-x,1/2+y,1/2+z
x,1/2-y,1/2+z
1/2+x,y,1/2+z
1/2-x,-y,1/2+z
1/2+x,-y,1/2-z
1/2-x,y,1/2-z
1/2-x,-y,1/2-z
1/2+x,y,1/2-z
1/2-x,y,1/2+z
1/2+x,-y,1/2+z
1/2+x,1/2+y,z
1/2-x,1/2-y,z
1/2+x,1/2-y,-z
1/2-x,1/2+y,-z
1/2-x,1/2-y,-z
1/2+x,1/2+y,-z
1/2-x,1/2+y,z
1/2+x,1/2-y,z
loop_
_atom_site_type_symbol
_atom_site_label
_atom_site_fract_x
_atom_site_fract_y
_atom_site_fract_z
Si Si1 0.830735 0.574173 0.000000
Si Si2 0.672976 0.423691 0.792724
Si Si3 0.580459 0.246869 0.500000
Si Si4 0.815837 0.377704 0.500000
Si Si5 0.581553 0.861536 0.149647
O O1 0.769779 0.632074 0.000000
O O2 0.880337 0.579741 0.090872
O O3 0.794888 0.500000 0.000000
O O4 0.651337 0.500000 0.765072
O O5 0.750000 0.406715 0.750000
O O6 0.667242 0.419044 0.905564
O O7 0.618926 0.366731 0.751832
O O8 0.500000 0.217143 0.500000
O O9 0.641137 0.191489 0.500000
O O10 0.591239 0.290851 0.595056
O O11 0.500000 0.879166 0.162214
#
# Coordination Sequence:
#
# PCOD8285414 Si02
#       5
#    16  32  16  16  32
#     4  11  20  36  63  96 131 163 210 278 327 375
#     4  11  23  41  63  95 136 173 213 267 326 388
#     4   9  23  46  67  95 136 172 218 275 321 378
#     4  12  24  40  66  96 131 180 216 255 331 397
#     4  10  22  41  66  95 126 170 220 270 326 380
#
# _framework density 21.121200000000002
#
# number of rings (size 3 to 8) (size 9 to 14) (size 15 to 20)
#    0.000    1.429    2.857    3.429    0.000    7.429 
#    0.000    4.286    0.000    4.714    0.000    0.000 
#    0.000    0.000    0.000    0.000    0.000    0.000 
#
# Total GULP energy -346986.251942 kJ/mol
# GULP energy per Si atom -12392.366141 kJ/mol
# Density = 2.107313 g / cm^3
# Si number density = 21.121200 Si / 1000 Ang^3
#
#
#
# Elastic Constant Matrix: (Units=GPa)
#
#
# Indices 1 2 3 4 5 6 
#
# 1 170.4607 75.7280 57.5131 0.0000 0.0000 0.0000
# 2 75.7280 93.1587 29.7140 0.0000 0.0000 0.0000
# 3 57.5131 29.7140 135.4711 0.0000 0.0000 0.0000
# 4 0.0000 0.0000 0.0000 20.2262 0.0000 0.0000
# 5 0.0000 0.0000 0.0000 0.0000 39.2386 0.0000
# 6 0.0000 0.0000 0.0000 0.0000 0.0000 22.9918
#
#
#
# Elastic Compliance Matrix: (Units=1/GPa)
#
#
# Indices 1 2 3 4 5 6 
#
# 1 0.009993 -0.007279 -0.002646 0.000000 0.000000 0.000000
# 2 -0.007279 0.016844 -0.000604 0.000000 0.000000 0.000000
# 3 -0.002646 -0.000604 0.008637 0.000000 0.000000 0.000000
# 4 0.000000 0.000000 0.000000 0.049441 0.000000 0.000000
# 5 0.000000 0.000000 0.000000 0.000000 0.025485 0.000000
# 6 0.000000 0.000000 0.000000 0.000000 0.000000 0.043494
#
#
# Mechanical properties :
#
#
# Convention : Reuss Voigt Hill
#
# Bulk Modulus (GPa) = 69.36699 80.55564 74.96132
# Shear Modulus (GPa) = 27.81505 32.23368 30.02436
#
# Velocity S-wave (km/s) = 3.63288 3.91081 3.77440
# Velocity P-wave (km/s) = 7.10709 7.65605 7.38667
#
# Compressibility (1/GPa) = 0.01441608
#
# Stress axis : x y z
#
# Youngs Moduli (GPa) = 100.06971 59.36682 115.77506
#
# Poissons Ratio (x) = 0.43215 0.30632
# Poissons Ratio (y) = 0.72844 0.06996
# Poissons Ratio (z) = 0.26477 0.03587
#
# Static dielectric constant tensor:
#      x y z
#    x 3.901630 0.000000 0.000000 
#    y 0.000000 3.469860 0.000000 
#    z 0.000000 0.000000 3.833210 
# 
# 
# High freq. dielectric constant tensor:
#      x y z
#    x 1.831090 0.000000 0.000000 
#    y 0.000000 1.801360 0.000000 
#    z 0.000000 0.000000 1.842360 
# 
# From -- ./inp_files/14098.got.cif
#   From: 2010.03.12/outbox.cif.g09.slc.cpg/sg69_8_cif.got.tgz:14098.got - 2010.04.10 23:52:46.
