data_PCOD8285657
_publ_section_title
;
Structure prediction by ZEFSAII (Michael W. Deem and Ramdas Pophale) SiO2 
 PCOD8285657
Probable space group: F M M M
;
_chemical_formula_sum "Si O2"
_cell_formula_units_Z 160
_cell_length_a 17.537521
_cell_length_b 15.854721
_cell_length_c 28.324198
_cell_angle_alpha 90.000000
_cell_angle_beta 90.000000
_cell_angle_gamma 90.000000
_cell_volume 7875.614135
_symmetry_space_group_name_H-M "F M M M"
_symmetry_group_IT_number 69
_symmetry_cell_setting 'orthorhombic'
loop_
_space_group_symop_operation_xyz
x,y,z
-x,-y,z
x,-y,-z
-x,y,-z
-x,-y,-z
x,y,-z
-x,y,z
x,-y,z
x,1/2+y,1/2+z
-x,1/2-y,1/2+z
x,1/2-y,1/2-z
-x,1/2+y,1/2-z
-x,1/2-y,1/2-z
x,1/2+y,1/2-z
-x,1/2+y,1/2+z
x,1/2-y,1/2+z
1/2+x,y,1/2+z
1/2-x,-y,1/2+z
1/2+x,-y,1/2-z
1/2-x,y,1/2-z
1/2-x,-y,1/2-z
1/2+x,y,1/2-z
1/2-x,y,1/2+z
1/2+x,-y,1/2+z
1/2+x,1/2+y,z
1/2-x,1/2-y,z
1/2+x,1/2-y,-z
1/2-x,1/2+y,-z
1/2-x,1/2-y,-z
1/2+x,1/2+y,-z
1/2-x,1/2+y,z
1/2+x,1/2-y,z
loop_
_atom_site_type_symbol
_atom_site_label
_atom_site_fract_x
_atom_site_fract_y
_atom_site_fract_z
Si Si1 0.169997 0.643734 0.553353
Si Si2 0.086632 0.402188 0.146065
Si Si3 0.162668 0.658233 0.234718
Si Si4 0.910597 0.000000 0.783946
Si Si5 0.909754 0.500000 0.390288
Si Si6 0.154843 0.161373 0.553766
O O1 0.148238 0.620342 0.500000
O O2 0.121820 0.584679 0.586965
O O3 0.148279 0.739634 0.564224
O O4 0.259420 0.628999 0.561404
O O5 0.097620 0.500000 0.157612
O O6 0.147121 0.350400 0.178376
O O7 0.101534 0.386653 0.090680
O O8 0.000000 0.374182 0.157625
O O9 0.132293 0.750000 0.250000
O O10 0.250000 0.647800 0.250000
O O11 0.115879 0.584963 0.259293
O O12 0.879930 0.000000 0.837007
O O13 0.000000 0.000000 0.782209
O O14 0.000000 0.500000 0.394726
O O15 0.128518 0.141707 0.500000
#
# Coordination Sequence:
#
# PCOD8285657 Si02
#       6
#    32  32  32  16  16  32
#     4   9  20  39  61  88 125 163 208 260 310 372
#     4  11  25  42  63  93 128 166 207 258 319 376
#     4  11  26  44  69  98 124 166 214 264 316 374
#     4  11  25  44  63  93 133 165 206 264 320 380
#     4  11  25  37  58  94 127 165 206 253 318 380
#     4   9  21  40  64  92 122 164 214 262 310 367
#
# _framework density 20.315875999999999
#
# number of rings (size 3 to 8) (size 9 to 14) (size 15 to 20)
#    0.000    1.800    1.000    2.400    7.000    5.600 
#    0.000    3.000    0.000    0.000    0.000    0.000 
#    0.000    0.000    0.000    0.000    0.000    0.000 
#
# Total GULP energy -496044.768271 kJ/mol
# GULP energy per Si atom -12401.119207 kJ/mol
# Density = 2.026964 g / cm^3
# Si number density = 20.315876 Si / 1000 Ang^3
#
#
#
# Elastic Constant Matrix: (Units=GPa)
#
#
# Indices 1 2 3 4 5 6 
#
# 1 54.5781 22.1253 45.8452 0.0000 0.0000 0.0000
# 2 22.1253 84.1474 43.8891 0.0000 0.0000 0.0000
# 3 45.8452 43.8891 134.0774 0.0000 0.0000 0.0000
# 4 0.0000 0.0000 0.0000 59.2251 0.0000 0.0000
# 5 0.0000 0.0000 0.0000 0.0000 34.0874 0.0000
# 6 0.0000 0.0000 0.0000 0.0000 0.0000 -42.6019
#
#
#
# Elastic Compliance Matrix: (Units=1/GPa)
#
#
# Indices 1 2 3 4 5 6 
#
# 1 0.026194 -0.002672 -0.008082 0.000000 0.000000 0.000000
# 2 -0.002672 0.014603 -0.003867 0.000000 0.000000 0.000000
# 3 -0.008082 -0.003867 0.011488 0.000000 0.000000 0.000000
# 4 0.000000 0.000000 0.000000 0.016885 0.000000 0.000000
# 5 0.000000 0.000000 0.000000 0.000000 0.029336 0.000000
# 6 0.000000 0.000000 0.000000 0.000000 0.000000 -0.023473
#
#
# Mechanical properties :
#
#
# Convention : Reuss Voigt Hill
#
# Bulk Modulus (GPa) = 43.39546 55.16911 49.28229
# Shear Modulus (GPa) = 44.66052 20.87166 32.76609
#
# Velocity S-wave (km/s) = 4.69370 3.20872 4.02036
# Velocity P-wave (km/s) = 7.12609 6.39863 6.77213
#
# Compressibility (1/GPa) = 0.02304389
#
# Stress axis : x y z
#
# Youngs Moduli (GPa) = 38.17609 68.47824 87.05078
#
# Poissons Ratio (x) = 0.18298 0.70354
# Poissons Ratio (y) = 0.10201 0.33659
# Poissons Ratio (z) = 0.30854 0.26478
#
# Static dielectric constant tensor:
#      x y z
#    x 3.604150 0.000000 0.000000 
#    y 0.000000 3.773450 0.000000 
#    z 0.000000 0.000000 3.919340 
# 
# 
# High freq. dielectric constant tensor:
#      x y z
#    x 1.786840 0.000000 0.000000 
#    y 0.000000 1.800770 0.000000 
#    z 0.000000 0.000000 1.808020 
# 
# From -- ./inp_files/41769.got.cif
#   From: 2010.03.12/outbox.cif.g09.slc.cpg/sg69_21_cif.got.tgz:41769.got - 2010.04.10 23:52:46.
