data_PCOD8285261
_publ_section_title
;
Structure prediction by ZEFSAII (Michael W. Deem and Ramdas Pophale) SiO2 
 PCOD8285261
Probable space group: F M M M
;
_chemical_formula_sum "Si O2"
_cell_formula_units_Z 224
_cell_length_a 19.637104
_cell_length_b 26.840402
_cell_length_c 22.315721
_cell_angle_alpha 90.000000
_cell_angle_beta 90.000000
_cell_angle_gamma 90.000000
_cell_volume 11761.897202
_symmetry_space_group_name_H-M "F M M M"
_symmetry_group_IT_number 69
_symmetry_cell_setting 'orthorhombic'
loop_
_space_group_symop_operation_xyz
x,y,z
-x,-y,z
x,-y,-z
-x,y,-z
-x,-y,-z
x,y,-z
-x,y,z
x,-y,z
x,1/2+y,1/2+z
-x,1/2-y,1/2+z
x,1/2-y,1/2-z
-x,1/2+y,1/2-z
-x,1/2-y,1/2-z
x,1/2+y,1/2-z
-x,1/2+y,1/2+z
x,1/2-y,1/2+z
1/2+x,y,1/2+z
1/2-x,-y,1/2+z
1/2+x,-y,1/2-z
1/2-x,y,1/2-z
1/2-x,-y,1/2-z
1/2+x,y,1/2-z
1/2-x,y,1/2+z
1/2+x,-y,1/2+z
1/2+x,1/2+y,z
1/2-x,1/2-y,z
1/2+x,1/2-y,-z
1/2-x,1/2+y,-z
1/2-x,1/2-y,-z
1/2+x,1/2+y,-z
1/2-x,1/2+y,z
1/2+x,1/2-y,z
loop_
_atom_site_type_symbol
_atom_site_label
_atom_site_fract_x
_atom_site_fract_y
_atom_site_fract_z
Si Si1 0.830265 0.806725 0.244824
Si Si2 0.377232 0.655904 0.882145
Si Si3 0.500000 0.837179 0.071277
Si Si4 0.745231 0.805827 0.068078
Si Si5 0.867199 0.862186 0.641700
Si Si6 0.578856 0.943974 0.332843
Si Si7 0.679346 0.056663 0.223184
Si Si8 0.500000 0.719293 0.929921
O O1 0.850702 0.750000 0.250000
O O2 0.750000 0.815642 0.250000
O O3 0.853088 0.830200 0.183320
O O4 0.874632 0.833140 0.295906
O O5 0.316008 0.664373 0.928590
O O6 0.400180 0.597727 0.882275
O O7 0.435190 0.694073 0.900584
O O8 0.435743 0.863136 0.102979
O O9 0.500000 0.778105 0.083567
O O10 0.500000 0.848380 0.000000
O O11 0.750000 0.750000 0.096389
O O12 0.689309 0.836158 0.102414
O O13 0.720942 0.800993 0.000000
O O14 0.842376 0.917336 0.660758
O O15 0.500000 0.936805 0.316255
O O16 0.620405 0.936483 0.271938
O O17 0.592090 0.000000 0.358819
O O18 0.750000 0.079390 0.250000
O O19 0.692187 0.000000 0.205200
O O20 0.500000 0.708400 0.000000
#
# Coordination Sequence:
#
# PCOD8285261 Si02
#       8
#    32  32  16  32  32  32  32  16
#     4  11  21  33  54  88 124 151 181 240 313 370
#     4  12  21  37  62  88 120 155 199 255 308 364
#     4  11  26  43  58  81 122 169 211 248 290 356
#     4  11  23  39  61  86 115 162 214 246 288 364
#     4  12  22  38  61  86 121 159 197 251 303 357
#     4  10  21  38  59  86 123 161 196 239 302 374
#     4  10  21  38  62  94 124 154 196 246 305 370
#     4  11  24  41  58  83 120 163 207 250 298 358
#
# _framework density 19.044546
#
# number of rings (size 3 to 8) (size 9 to 14) (size 15 to 20)
#    0.000    1.000    3.571    4.714    1.000    2.857 
#    0.000    1.429    0.000    5.143    0.000    0.000 
#    0.000    0.000    0.000    0.000    0.000    0.000 
#
# Total GULP energy -694372.254454 kJ/mol
# GULP energy per Si atom -12399.504544 kJ/mol
# Density = 1.900120 g / cm^3
# Si number density = 19.044546 Si / 1000 Ang^3
#
#
#
# Elastic Constant Matrix: (Units=GPa)
#
#
# Indices 1 2 3 4 5 6 
#
# 1 120.9379 38.3576 31.7024 0.0000 0.0000 0.0000
# 2 38.3576 123.2993 32.7869 0.0000 0.0000 0.0000
# 3 31.7024 32.7869 77.9839 0.0000 0.0000 0.0000
# 4 0.0000 0.0000 0.0000 123.6976 0.0000 0.0000
# 5 0.0000 0.0000 0.0000 0.0000 44.5572 0.0000
# 6 0.0000 0.0000 0.0000 0.0000 0.0000 -83.1399
#
#
#
# Elastic Compliance Matrix: (Units=1/GPa)
#
#
# Indices 1 2 3 4 5 6 
#
# 1 0.009772 -0.002233 -0.003034 0.000000 0.000000 0.000000
# 2 -0.002233 0.009642 -0.003146 0.000000 0.000000 0.000000
# 3 -0.003034 -0.003146 0.015379 0.000000 0.000000 0.000000
# 4 0.000000 0.000000 0.000000 0.008084 0.000000 0.000000
# 5 0.000000 0.000000 0.000000 0.000000 0.022443 0.000000
# 6 0.000000 0.000000 0.000000 0.000000 0.000000 -0.012028
#
#
# Mechanical properties :
#
#
# Convention : Reuss Voigt Hill
#
# Bulk Modulus (GPa) = 55.65662 58.65720 57.15691
# Shear Modulus (GPa) = 65.69694 31.64793 48.67243
#
# Velocity S-wave (km/s) = 5.87974 4.08092 5.06089
# Velocity P-wave (km/s) = 8.68234 7.28506 8.01421
#
# Compressibility (1/GPa) = 0.01796732
#
# Stress axis : x y z
#
# Youngs Moduli (GPa) = 102.32983 103.71692 65.02373
#
# Poissons Ratio (x) = 0.23164 0.19726
# Poissons Ratio (y) = 0.22854 0.20455
# Poissons Ratio (z) = 0.31044 0.32626
#
# Static dielectric constant tensor:
#      x y z
#    x 3.073840 0.000000 0.000000 
#    y 0.000000 3.834670 0.000000 
#    z 0.000000 0.000000 2.637470 
# 
# 
# High freq. dielectric constant tensor:
#      x y z
#    x 1.751420 0.000000 0.000000 
#    y 0.000000 1.748290 0.000000 
#    z 0.000000 0.000000 1.727490 
# 
# From -- ./inp_files/31221.got.cif
#   From: 2010.03.12/outbox.cif.g09.slc.cpg/sg69_16_cif.got.tgz:31221.got - 2010.04.10 23:52:46.
