data_PCOD8285407
_publ_section_title
;
Structure prediction by ZEFSAII (Michael W. Deem and Ramdas Pophale) SiO2 
 PCOD8285407
Probable space group: F M M M
;
_chemical_formula_sum "Si O2"
_cell_formula_units_Z 128
_cell_length_a 30.899491
_cell_length_b 27.647256
_cell_length_c 7.452689
_cell_angle_alpha 90.000000
_cell_angle_beta 90.000000
_cell_angle_gamma 90.000000
_cell_volume 6366.728903
_symmetry_space_group_name_H-M "F M M M"
_symmetry_group_IT_number 69
_symmetry_cell_setting 'orthorhombic'
loop_
_space_group_symop_operation_xyz
x,y,z
-x,-y,z
x,-y,-z
-x,y,-z
-x,-y,-z
x,y,-z
-x,y,z
x,-y,z
x,1/2+y,1/2+z
-x,1/2-y,1/2+z
x,1/2-y,1/2-z
-x,1/2+y,1/2-z
-x,1/2-y,1/2-z
x,1/2+y,1/2-z
-x,1/2+y,1/2+z
x,1/2-y,1/2+z
1/2+x,y,1/2+z
1/2-x,-y,1/2+z
1/2+x,-y,1/2-z
1/2-x,y,1/2-z
1/2-x,-y,1/2-z
1/2+x,y,1/2-z
1/2-x,y,1/2+z
1/2+x,-y,1/2+z
1/2+x,1/2+y,z
1/2-x,1/2-y,z
1/2+x,1/2-y,-z
1/2-x,1/2+y,-z
1/2-x,1/2-y,-z
1/2+x,1/2+y,-z
1/2-x,1/2+y,z
1/2+x,1/2-y,z
loop_
_atom_site_type_symbol
_atom_site_label
_atom_site_fract_x
_atom_site_fract_y
_atom_site_fract_z
Si Si1 0.176836 0.944557 0.000000
Si Si2 0.048721 0.627715 0.207591
Si Si3 0.425457 0.944634 0.500000
Si Si4 0.297566 0.128694 0.209954
Si Si5 0.624913 0.193975 0.208185
O O1 0.125691 0.938872 0.000000
O O2 0.196253 0.920607 0.820574
O O3 0.191547 0.000000 0.000000
O O4 0.055075 0.579151 0.321003
O O5 0.081444 0.668725 0.284448
O O6 0.000000 0.647589 0.232783
O O7 0.058016 0.614939 0.000000
O O8 0.440196 0.000000 0.500000
O O9 0.250000 0.150117 0.250000
O O10 0.332030 0.168145 0.284433
O O11 0.303848 0.117156 0.000000
O O12 0.625197 0.250000 0.250000
O O13 0.624880 0.185695 0.000000
#
# Coordination Sequence:
#
# PCOD8285407 Si02
#       5
#    16  32  16  32  32
#     4  11  24  41  66  93 125 166 203 254 311 362
#     4  10  22  41  62  89 129 165 203 257 308 362
#     4  11  23  40  67  95 122 165 211 248 306 371
#     4  11  23  42  64  91 127 162 204 256 306 367
#     4  10  23  39  62  90 121 163 208 254 309 366
#
# _framework density 20.104517000000001
#
# number of rings (size 3 to 8) (size 9 to 14) (size 15 to 20)
#    0.000    1.500    3.750    0.375    3.500    3.500 
#    0.000    6.250    0.000    0.000    0.000    0.000 
#    0.000    0.000    0.000    0.000    0.000    0.000 
#
# Total GULP energy -396801.465123 kJ/mol
# GULP energy per Si atom -12400.045785 kJ/mol
# Density = 2.005876 g / cm^3
# Si number density = 20.104517 Si / 1000 Ang^3
#
#
#
# Elastic Constant Matrix: (Units=GPa)
#
#
# Indices 1 2 3 4 5 6 
#
# 1 175.7605 86.0940 39.0457 0.1124 0.0072 0.0026
# 2 86.0940 166.5570 53.1494 -0.1136 0.0828 0.0381
# 3 39.0457 53.1494 99.9824 0.3460 0.2311 0.0913
# 4 0.1124 -0.1136 0.3460 -6.0432 -0.1959 -0.0795
# 5 0.0072 0.0828 0.2311 -0.1959 17.3062 -0.0585
# 6 0.0026 0.0381 0.0913 -0.0795 -0.0585 17.2194
#
#
#
# Elastic Compliance Matrix: (Units=1/GPa)
#
#
# Indices 1 2 3 4 5 6 
#
# 1 0.007713 -0.003644 -0.001076 0.000149 0.000030 0.000013
# 2 -0.003644 0.008951 -0.003334 -0.000427 -0.000002 -0.000004
# 3 -0.001076 -0.003334 0.012192 0.000746 -0.000138 -0.000054
# 4 0.000149 -0.000427 0.000746 -0.165351 -0.001882 -0.000773
# 5 0.000030 -0.000002 -0.000138 -0.001882 0.057764 0.000188
# 6 0.000013 -0.000004 -0.000054 -0.000773 0.000188 0.058072
#
#
# Mechanical properties :
#
#
# Convention : Reuss Voigt Hill
#
# Bulk Modulus (GPa) = 78.43474 88.76422 83.59948
# Shear Modulus (GPa) = -16478.68839 23.29721 -8227.69559
#
# Velocity S-wave (km/s) = -90.63280 3.40781 -64.04175
# Velocity P-wave (km/s) = 104.46678 7.72862 73.66674
#
# Compressibility (1/GPa) = 0.01274945
#
# Stress axis : x y z
#
# Youngs Moduli (GPa) = 129.64710 111.72094 82.02149
#
# Poissons Ratio (x) = 0.40706 0.08825
# Poissons Ratio (y) = 0.47238 0.27344
# Poissons Ratio (z) = 0.13949 0.37245
#
# Static dielectric constant tensor:
#      x y z
#    x 4.179200 0.000060 0.000020 
#    y 0.000060 3.274630 -0.000830 
#    z 0.000020 -0.000830 3.975970 
# 
# 
# High freq. dielectric constant tensor:
#      x y z
#    x 1.805480 0.000000 0.000010 
#    y 0.000000 1.766060 -0.000010 
#    z 0.000010 -0.000010 1.793730 
# 
# From -- ./inp_files/5354.got.cif
#   From: 2010.03.12/outbox.cif.g09.slc.cpg/sg69_3_cif.got.tgz:5354.got - 2010.04.10 23:52:46.
