data_PCOD8285219
_publ_section_title
;
Structure prediction by ZEFSAII (Michael W. Deem and Ramdas Pophale) SiO2 
 PCOD8285219
Probable space group: F M M M
;
_chemical_formula_sum "Si O2"
_cell_formula_units_Z 160
_cell_length_a 14.394907
_cell_length_b 32.276853
_cell_length_c 18.472162
_cell_angle_alpha 90.000000
_cell_angle_beta 90.000000
_cell_angle_gamma 90.000000
_cell_volume 8582.578342
_symmetry_space_group_name_H-M "F M M M"
_symmetry_group_IT_number 69
_symmetry_cell_setting 'orthorhombic'
loop_
_space_group_symop_operation_xyz
x,y,z
-x,-y,z
x,-y,-z
-x,y,-z
-x,-y,-z
x,y,-z
-x,y,z
x,-y,z
x,1/2+y,1/2+z
-x,1/2-y,1/2+z
x,1/2-y,1/2-z
-x,1/2+y,1/2-z
-x,1/2-y,1/2-z
x,1/2+y,1/2-z
-x,1/2+y,1/2+z
x,1/2-y,1/2+z
1/2+x,y,1/2+z
1/2-x,-y,1/2+z
1/2+x,-y,1/2-z
1/2-x,y,1/2-z
1/2-x,-y,1/2-z
1/2+x,y,1/2-z
1/2-x,y,1/2+z
1/2+x,-y,1/2+z
1/2+x,1/2+y,z
1/2-x,1/2-y,z
1/2+x,1/2-y,-z
1/2-x,1/2+y,-z
1/2-x,1/2-y,-z
1/2+x,1/2+y,-z
1/2-x,1/2+y,z
1/2+x,1/2-y,z
loop_
_atom_site_type_symbol
_atom_site_label
_atom_site_fract_x
_atom_site_fract_y
_atom_site_fract_z
Si Si1 0.500000 0.189547 0.084653
Si Si2 0.844826 0.452697 0.082107
Si Si3 0.183789 0.952657 0.814508
Si Si4 0.000000 0.399507 0.686859
Si Si5 0.647292 0.252049 0.914319
Si Si6 0.000000 0.601534 0.149106
Si Si7 0.500000 0.320279 0.914904
O O1 0.408496 0.212196 0.116608
O O2 0.500000 0.141291 0.098691
O O3 0.500000 0.198041 0.000000
O O4 0.879771 0.500000 0.086076
O O5 0.739606 0.449256 0.110117
O O6 0.909565 0.425601 0.133551
O O7 0.849479 0.436065 0.000000
O O8 0.250000 0.935795 0.750000
O O9 0.091243 0.926663 0.825412
O O10 0.155561 0.000000 0.796928
O O11 0.000000 0.382812 0.768708
O O12 0.000000 0.361892 0.631210
O O13 0.750000 0.250000 0.878865
O O14 0.592214 0.294101 0.894078
O O15 0.656002 0.249167 0.000000
O O16 0.500000 0.331421 0.000000
#
# Coordination Sequence:
#
# PCOD8285219 Si02
#       7
#    16  32  32  16  32  16  16
#     4   9  18  31  51  80 108 135 181 234 277 332
#     4  10  21  37  58  84 114 150 196 245 290 339
#     4  10  21  39  59  79 110 155 200 236 281 341
#     4  12  24  37  58  86 118 155 192 234 293 356
#     4   8  15  33  58  79 103 144 190 230 280 339
#     4  12  22  34  54  85 122 153 184 237 295 344
#     4   9  20  37  57  85 116 145 189 243 287 344
#
# _framework density 18.642416000000001
#
# number of rings (size 3 to 8) (size 9 to 14) (size 15 to 20)
#    0.000    2.200    2.000    2.700    0.000    4.000 
#    0.000    4.000    0.000    4.200    0.000    0.000 
#    0.000    0.000    0.000    0.000    0.000    0.000 
#
# Total GULP energy -495895.569361 kJ/mol
# GULP energy per Si atom -12397.389234 kJ/mol
# Density = 1.859999 g / cm^3
# Si number density = 18.642416 Si / 1000 Ang^3
#
#
#
# Elastic Constant Matrix: (Units=GPa)
#
#
# Indices 1 2 3 4 5 6 
#
# 1 158.7428 73.6950 29.9789 0.0000 0.0000 0.0000
# 2 73.6950 108.1796 31.7096 0.0000 0.0000 0.0000
# 3 29.9789 31.7096 69.7499 0.0000 0.0000 0.0000
# 4 0.0000 0.0000 0.0000 23.0130 0.0000 0.0000
# 5 0.0000 0.0000 0.0000 0.0000 21.0769 0.0000
# 6 0.0000 0.0000 0.0000 0.0000 0.0000 33.1525
#
#
#
# Elastic Compliance Matrix: (Units=1/GPa)
#
#
# Indices 1 2 3 4 5 6 
#
# 1 0.009313 -0.005966 -0.001291 0.000000 0.000000 0.000000
# 2 -0.005966 0.014487 -0.004022 0.000000 0.000000 0.000000
# 3 -0.001291 -0.004022 0.016720 0.000000 0.000000 0.000000
# 4 0.000000 0.000000 0.000000 0.043454 0.000000 0.000000
# 5 0.000000 0.000000 0.000000 0.000000 0.047445 0.000000
# 6 0.000000 0.000000 0.000000 0.000000 0.000000 0.030164
#
#
# Mechanical properties :
#
#
# Convention : Reuss Voigt Hill
#
# Bulk Modulus (GPa) = 55.66915 67.49326 61.58121
# Shear Modulus (GPa) = 26.29826 28.86773 27.58300
#
# Velocity S-wave (km/s) = 3.75996 3.93936 3.85071
# Velocity P-wave (km/s) = 6.98399 7.54812 7.27153
#
# Compressibility (1/GPa) = 0.01796327
#
# Stress axis : x y z
#
# Youngs Moduli (GPa) = 107.37888 69.02789 59.80854
#
# Poissons Ratio (x) = 0.41181 0.07718
# Poissons Ratio (y) = 0.64061 0.24054
# Poissons Ratio (z) = 0.13857 0.27762
#
# Static dielectric constant tensor:
#      x y z
#    x 3.723420 0.000000 0.000000 
#    y 0.000000 3.260060 0.000000 
#    z 0.000000 0.000000 3.246760 
# 
# 
# High freq. dielectric constant tensor:
#      x y z
#    x 1.733590 0.000000 0.000000 
#    y 0.000000 1.715110 0.000000 
#    z 0.000000 0.000000 1.702060 
# 
# From -- ./inp_files/21918.got.cif
#   From: 2010.03.12/outbox.cif.g09.slc.cpg/sg69_11_cif.got.tgz:21918.got - 2010.04.10 23:52:46.
