data_PCOD8285406
_publ_section_title
;
Structure prediction by ZEFSAII (Michael W. Deem and Ramdas Pophale) SiO2 
 PCOD8285406
Probable space group: F M M M
;
_chemical_formula_sum "Si O2"
_cell_formula_units_Z 160
_cell_length_a 14.023069
_cell_length_b 18.442623
_cell_length_c 30.096778
_cell_angle_alpha 90.000000
_cell_angle_beta 90.000000
_cell_angle_gamma 90.000000
_cell_volume 7783.694183
_symmetry_space_group_name_H-M "F M M M"
_symmetry_group_IT_number 69
_symmetry_cell_setting 'orthorhombic'
loop_
_space_group_symop_operation_xyz
x,y,z
-x,-y,z
x,-y,-z
-x,y,-z
-x,-y,-z
x,y,-z
-x,y,z
x,-y,z
x,1/2+y,1/2+z
-x,1/2-y,1/2+z
x,1/2-y,1/2-z
-x,1/2+y,1/2-z
-x,1/2-y,1/2-z
x,1/2+y,1/2-z
-x,1/2+y,1/2+z
x,1/2-y,1/2+z
1/2+x,y,1/2+z
1/2-x,-y,1/2+z
1/2+x,-y,1/2-z
1/2-x,y,1/2-z
1/2-x,-y,1/2-z
1/2+x,y,1/2-z
1/2-x,y,1/2+z
1/2+x,-y,1/2+z
1/2+x,1/2+y,z
1/2-x,1/2-y,z
1/2+x,1/2-y,-z
1/2-x,1/2+y,-z
1/2-x,1/2-y,-z
1/2+x,1/2+y,-z
1/2-x,1/2+y,z
1/2+x,1/2-y,z
loop_
_atom_site_type_symbol
_atom_site_label
_atom_site_fract_x
_atom_site_fract_y
_atom_site_fract_z
Si Si1 0.719656 0.828714 0.342996
Si Si2 0.111588 0.828761 0.933005
Si Si3 0.391252 0.582117 0.227964
Si Si4 0.105970 0.584229 0.168614
Si Si5 0.890101 0.297004 0.000000
Si Si6 0.229116 0.914580 0.000000
O O1 0.750000 0.750000 0.327013
O O2 0.643827 0.824038 0.382371
O O3 0.674380 0.865924 0.300338
O O4 0.814439 0.872066 0.358887
O O5 0.134190 0.752148 0.956912
O O6 0.167532 0.894289 0.956631
O O7 0.000000 0.846736 0.935665
O O8 0.500000 0.592078 0.212947
O O9 0.357556 0.500000 0.219058
O O10 0.379569 0.601208 0.279491
O O11 0.118228 0.500000 0.158342
O O12 0.000000 0.609641 0.153785
O O13 0.827811 0.369612 0.000000
O O14 0.000000 0.321329 0.000000
O O15 0.252627 0.000000 0.000000
#
# Coordination Sequence:
#
# PCOD8285406 Si02
#       6
#    32  32  32  32  16  16
#     4  12  23  34  54  86 117 144 184 237 287 331
#     4  10  22  41  62  82 112 155 194 226 269 332
#     4   9  19  37  58  78 106 148 194 236 282 339
#     4   9  20  39  58  76 106 152 197 233 279 341
#     4   9  19  41  67  85 112 157 193 214 258 335
#     4  11  22  38  63  95 123 143 175 229 284 328
#
# _framework density 20.555792
#
# number of rings (size 3 to 8) (size 9 to 14) (size 15 to 20)
#    0.000    2.000    0.000    6.300    0.000    7.400 
#    0.000    3.000    0.000    0.000    0.000    0.000 
#    0.000    0.000    0.000    0.000    0.000    0.000 
#
# Total GULP energy -496069.052921 kJ/mol
# GULP energy per Si atom -12401.726323 kJ/mol
# Density = 2.050901 g / cm^3
# Si number density = 20.555792 Si / 1000 Ang^3
#
#
#
# Elastic Constant Matrix: (Units=GPa)
#
#
# Indices 1 2 3 4 5 6 
#
# 1 133.2565 66.5739 25.2336 0.0000 0.0000 0.0000
# 2 66.5739 117.6840 18.8906 0.0000 0.0000 0.0000
# 3 25.2336 18.8906 27.1437 0.0000 0.0000 0.0000
# 4 0.0000 0.0000 0.0000 34.0549 0.0000 0.0000
# 5 0.0000 0.0000 0.0000 0.0000 37.4932 0.0000
# 6 0.0000 0.0000 0.0000 0.0000 0.0000 22.1453
#
#
#
# Elastic Compliance Matrix: (Units=1/GPa)
#
#
# Indices 1 2 3 4 5 6 
#
# 1 0.011518 -0.005400 -0.006949 0.000000 0.000000 0.000000
# 2 -0.005400 0.012098 -0.003399 0.000000 0.000000 0.000000
# 3 -0.006949 -0.003399 0.045667 0.000000 0.000000 0.000000
# 4 0.000000 0.000000 0.000000 0.029364 0.000000 0.000000
# 5 0.000000 0.000000 0.000000 0.000000 0.026672 0.000000
# 6 0.000000 0.000000 0.000000 0.000000 0.000000 0.045156
#
#
# Mechanical properties :
#
#
# Convention : Reuss Voigt Hill
#
# Bulk Modulus (GPa) = 26.46532 55.49783 40.98157
# Shear Modulus (GPa) = 23.30263 29.89777 26.60020
#
# Velocity S-wave (km/s) = 3.37059 3.81789 3.60119
# Velocity P-wave (km/s) = 5.29629 6.81852 6.10504
#
# Compressibility (1/GPa) = 0.03778530
#
# Stress axis : x y z
#
# Youngs Moduli (GPa) = 86.81883 82.65863 21.89772
#
# Poissons Ratio (x) = 0.44639 0.15217
# Poissons Ratio (y) = 0.46885 0.07443
# Poissons Ratio (z) = 0.60333 0.28097
#
# Static dielectric constant tensor:
#      x y z
#    x 4.058700 0.000000 0.000000 
#    y 0.000000 3.580880 0.000000 
#    z 0.000000 0.000000 3.492070 
# 
# 
# High freq. dielectric constant tensor:
#      x y z
#    x 1.829610 0.000000 0.000000 
#    y 0.000000 1.790720 0.000000 
#    z 0.000000 0.000000 1.785950 
# 
# From -- ./inp_files/45681.got.cif
#   From: 2010.03.12/outbox.cif.g09.slc.cpg/sg69_23_cif.got.tgz:45681.got - 2010.04.10 23:52:46.
