data_PCOD8285701
_publ_section_title
;
Structure prediction by ZEFSAII (Michael W. Deem and Ramdas Pophale) SiO2 
 PCOD8285701
Probable space group: F M M M
;
_chemical_formula_sum "Si O2"
_cell_formula_units_Z 208
_cell_length_a 34.342645
_cell_length_b 18.114651
_cell_length_c 18.652378
_cell_angle_alpha 90.000000
_cell_angle_beta 90.000000
_cell_angle_gamma 90.000000
_cell_volume 11603.738149
_symmetry_space_group_name_H-M "F M M M"
_symmetry_group_IT_number 69
_symmetry_cell_setting 'orthorhombic'
loop_
_space_group_symop_operation_xyz
x,y,z
-x,-y,z
x,-y,-z
-x,y,-z
-x,-y,-z
x,y,-z
-x,y,z
x,-y,z
x,1/2+y,1/2+z
-x,1/2-y,1/2+z
x,1/2-y,1/2-z
-x,1/2+y,1/2-z
-x,1/2-y,1/2-z
x,1/2+y,1/2-z
-x,1/2+y,1/2+z
x,1/2-y,1/2+z
1/2+x,y,1/2+z
1/2-x,-y,1/2+z
1/2+x,-y,1/2-z
1/2-x,y,1/2-z
1/2-x,-y,1/2-z
1/2+x,y,1/2-z
1/2-x,y,1/2+z
1/2+x,-y,1/2+z
1/2+x,1/2+y,z
1/2-x,1/2-y,z
1/2+x,1/2-y,-z
1/2-x,1/2+y,-z
1/2-x,1/2-y,-z
1/2+x,1/2+y,-z
1/2-x,1/2+y,z
1/2+x,1/2-y,z
loop_
_atom_site_type_symbol
_atom_site_label
_atom_site_fract_x
_atom_site_fract_y
_atom_site_fract_z
Si Si1 0.955944 0.000000 0.914464
Si Si2 0.587089 0.355226 0.085236
Si Si3 0.543984 0.710055 0.414409
Si Si4 0.752702 0.837708 0.169070
Si Si5 0.320913 0.348013 0.417931
Si Si6 0.900377 0.917424 0.585375
Si Si7 0.826745 0.825928 0.082352
O O1 0.934271 0.927648 0.884329
O O2 0.000000 0.000000 0.885741
O O3 0.955285 0.000000 0.000000
O O4 0.565429 0.282874 0.116033
O O5 0.632087 0.358111 0.109400
O O6 0.585039 0.352385 0.000000
O O7 0.544213 0.711218 0.500000
O O8 0.500000 0.708100 0.384869
O O9 0.566376 0.637591 0.385215
O O10 0.750000 0.867410 0.250000
O O11 0.750000 0.750000 0.166101
O O12 0.716853 0.873315 0.126203
O O13 0.793269 0.861536 0.132068
O O14 0.312868 0.369062 0.500000
O O15 0.358102 0.391534 0.386820
O O16 0.329233 0.261716 0.409646
O O17 0.900103 0.914448 0.500000
O O18 0.909251 0.000000 0.613386
O O19 0.817963 0.847579 0.000000
#
# Coordination Sequence:
#
# PCOD8285701 Si02
#       7
#    16  32  32  32  32  32  32
#     4   9  16  24  36  58  89 122 150 180 224 271
#     4   9  15  24  38  58  85 118 151 182 217 264
#     4   9  15  23  36  56  85 118 146 176 221 270
#     4   9  17  27  42  67  93 114 143 190 229 263
#     4   9  15  26  43  62  86 117 151 183 219 266
#     4   9  16  25  38  58  84 115 150 186 220 260
#     4   9  15  25  43  64  87 119 154 182 218 267
#
# _framework density 17.925256999999998
#
# number of rings (size 3 to 8) (size 9 to 14) (size 15 to 20)
#    0.000    3.000    1.538    0.923    0.000    4.000 
#    0.000    1.538    1.692    0.462    0.000    0.000 
#    0.000    3.692    0.308    0.000    0.000    0.000 
#
# Total GULP energy -644634.944056 kJ/mol
# GULP energy per Si atom -12396.825847 kJ/mol
# Density = 1.788446 g / cm^3
# Si number density = 17.925257 Si / 1000 Ang^3
#
#
#
# Elastic Constant Matrix: (Units=GPa)
#
#
# Indices 1 2 3 4 5 6 
#
# 1 195.2317 75.9668 45.2277 0.0000 0.0000 0.0000
# 2 75.9668 100.2734 19.8495 0.0000 0.0000 0.0000
# 3 45.2277 19.8495 43.5484 0.0000 0.0000 0.0000
# 4 0.0000 0.0000 0.0000 4.5290 0.0000 0.0000
# 5 0.0000 0.0000 0.0000 0.0000 2.6830 0.0000
# 6 0.0000 0.0000 0.0000 0.0000 0.0000 22.8063
#
#
#
# Elastic Compliance Matrix: (Units=1/GPa)
#
#
# Indices 1 2 3 4 5 6 
#
# 1 0.008720 -0.005291 -0.006645 0.000000 0.000000 0.000000
# 2 -0.005291 0.014172 -0.000965 0.000000 0.000000 0.000000
# 3 -0.006645 -0.000965 0.030304 0.000000 0.000000 0.000000
# 4 0.000000 0.000000 0.000000 0.220800 0.000000 0.000000
# 5 0.000000 0.000000 0.000000 0.000000 0.372723 0.000000
# 6 0.000000 0.000000 0.000000 0.000000 0.000000 0.043848
#
#
# Mechanical properties :
#
#
# Convention : Reuss Voigt Hill
#
# Bulk Modulus (GPa) = 36.50290 69.01572 52.75931
# Shear Modulus (GPa) = 6.89181 19.20429 13.04805
#
# Velocity S-wave (km/s) = 1.96293 3.27671 2.70092
# Velocity P-wave (km/s) = 5.05427 7.27332 6.26286
#
# Compressibility (1/GPa) = 0.02739508
#
# Stress axis : x y z
#
# Youngs Moduli (GPa) = 114.67497 70.56069 32.99927
#
# Poissons Ratio (x) = 0.37334 0.21928
# Poissons Ratio (y) = 0.60676 0.03183
# Poissons Ratio (z) = 0.76200 0.06806
#
# Static dielectric constant tensor:
#      x y z
#    x 3.582200 0.000000 0.000000 
#    y 0.000000 3.231340 0.000000 
#    z 0.000000 0.000000 2.757200 
# 
# 
# High freq. dielectric constant tensor:
#      x y z
#    x 1.712990 0.000000 0.000000 
#    y 0.000000 1.673010 0.000000 
#    z 0.000000 0.000000 1.621790 
# 
# From -- ./inp_files/34011.got.cif
#   From: 2010.03.12/outbox.cif.g09.slc.cpg/sg69_18_cif.got.tgz:34011.got - 2010.04.10 23:52:46.
