data_PCOD8285067
_publ_section_title
;
Structure prediction by ZEFSAII (Michael W. Deem and Ramdas Pophale) SiO2 
 PCOD8285067
Probable space group: F M M M
;
_chemical_formula_sum "Si O2"
_cell_formula_units_Z 176
_cell_length_a 19.713306
_cell_length_b 26.639122
_cell_length_c 16.906675
_cell_angle_alpha 90.000000
_cell_angle_beta 90.000000
_cell_angle_gamma 90.000000
_cell_volume 8878.458608
_symmetry_space_group_name_H-M "F M M M"
_symmetry_group_IT_number 69
_symmetry_cell_setting 'orthorhombic'
loop_
_space_group_symop_operation_xyz
x,y,z
-x,-y,z
x,-y,-z
-x,y,-z
-x,-y,-z
x,y,-z
-x,y,z
x,-y,z
x,1/2+y,1/2+z
-x,1/2-y,1/2+z
x,1/2-y,1/2-z
-x,1/2+y,1/2-z
-x,1/2-y,1/2-z
x,1/2+y,1/2-z
-x,1/2+y,1/2+z
x,1/2-y,1/2+z
1/2+x,y,1/2+z
1/2-x,-y,1/2+z
1/2+x,-y,1/2-z
1/2-x,y,1/2-z
1/2-x,-y,1/2-z
1/2+x,y,1/2-z
1/2-x,y,1/2+z
1/2+x,-y,1/2+z
1/2+x,1/2+y,z
1/2-x,1/2-y,z
1/2+x,1/2-y,-z
1/2-x,1/2+y,-z
1/2-x,1/2-y,-z
1/2+x,1/2+y,-z
1/2-x,1/2+y,z
1/2+x,1/2-y,z
loop_
_atom_site_type_symbol
_atom_site_label
_atom_site_fract_x
_atom_site_fract_y
_atom_site_fract_z
Si Si1 0.117754 0.097004 0.592359
Si Si2 0.737729 0.896106 0.657184
Si Si3 0.500000 0.556959 0.906055
Si Si4 0.893905 0.638249 0.593598
Si Si5 0.000000 0.218476 0.906074
Si Si6 0.692961 0.000000 0.684250
Si Si7 0.500000 0.170099 0.093465
Si Si8 0.920292 0.000000 0.307971
O O1 0.107467 0.085010 0.500000
O O2 0.194051 0.115178 0.609008
O O3 0.101316 0.047873 0.641829
O O4 0.067172 0.140706 0.621314
O O5 0.750000 0.892081 0.750000
O O6 0.680218 0.856592 0.632357
O O7 0.706485 0.950456 0.631922
O O8 0.500000 0.500000 0.871765
O O9 0.566349 0.587898 0.877065
O O10 0.500000 0.555171 0.000000
O O11 0.886897 0.636837 0.500000
O O12 0.933778 0.687880 0.621949
O O13 0.000000 0.274216 0.868184
O O14 0.000000 0.221684 0.000000
O O15 0.750000 0.000000 0.750000
O O16 0.618715 0.000000 0.724371
O O17 0.500000 0.175169 0.000000
O O18 0.000000 0.000000 0.289989
#
# Coordination Sequence:
#
# PCOD8285067 Si02
#       8
#    32  32  16  32  16  16  16  16
#     4  11  21  34  57  87 111 142 184 229 277 324
#     4  11  21  37  54  74 115 152 187 220 266 328
#     4   8  15  29  46  74 109 130 163 219 270 313
#     4   9  18  33  57  83 105 140 184 225 274 327
#     4   8  16  37  61  83 112 139 174 231 290 332
#     4  10  20  38  52  73 114 160 188 208 268 334
#     4   9  19  35  59  87 113 139 176 234 287 327
#     4  12  21  37  56  84 114 149 184 228 271 331
#
# _framework density 19.823262
#
# number of rings (size 3 to 8) (size 9 to 14) (size 15 to 20)
#    0.000    2.091    4.545    1.909    1.273    0.364 
#    3.273    3.636    0.000    7.636    0.000    0.000 
#    0.000    0.000    0.000    0.000    0.000    0.000 
#
# Total GULP energy -545454.183735 kJ/mol
# GULP energy per Si atom -12396.685994 kJ/mol
# Density = 1.977814 g / cm^3
# Si number density = 19.823262 Si / 1000 Ang^3
#
#
#
# Elastic Constant Matrix: (Units=GPa)
#
#
# Indices 1 2 3 4 5 6 
#
# 1 191.1252 72.3465 25.2936 0.0000 0.0000 0.0000
# 2 72.3465 148.5025 20.8266 0.0000 0.0000 0.0000
# 3 25.2936 20.8266 28.2019 0.0000 0.0000 0.0000
# 4 0.0000 0.0000 0.0000 5.7689 0.0000 0.0000
# 5 0.0000 0.0000 0.0000 0.0000 33.3811 0.0000
# 6 0.0000 0.0000 0.0000 0.0000 0.0000 15.5686
#
#
#
# Elastic Compliance Matrix: (Units=1/GPa)
#
#
# Indices 1 2 3 4 5 6 
#
# 1 0.006812 -0.002746 -0.004081 0.000000 0.000000 0.000000
# 2 -0.002746 0.008619 -0.003902 0.000000 0.000000 0.000000
# 3 -0.004081 -0.003902 0.042001 0.000000 0.000000 0.000000
# 4 0.000000 0.000000 0.000000 0.173343 0.000000 0.000000
# 5 0.000000 0.000000 0.000000 0.000000 0.029957 0.000000
# 6 0.000000 0.000000 0.000000 0.000000 0.000000 0.064232
#
#
# Mechanical properties :
#
#
# Convention : Reuss Voigt Hill
#
# Bulk Modulus (GPa) = 27.79912 67.19587 47.49750
# Shear Modulus (GPa) = 13.95039 27.56793 20.75916
#
# Velocity S-wave (km/s) = 2.65568 3.73324 3.23958
# Velocity P-wave (km/s) = 4.84329 7.24940 6.16487
#
# Compressibility (1/GPa) = 0.03597236
#
# Stress axis : x y z
#
# Youngs Moduli (GPa) = 146.80422 116.02313 23.80921
#
# Poissons Ratio (x) = 0.31862 0.09717
# Poissons Ratio (y) = 0.40315 0.09290
# Poissons Ratio (z) = 0.59916 0.45272
#
# Static dielectric constant tensor:
#      x y z
#    x 3.926100 0.000000 0.000000 
#    y 0.000000 4.063090 0.000000 
#    z 0.000000 0.000000 3.276750 
# 
# 
# High freq. dielectric constant tensor:
#      x y z
#    x 1.790460 0.000000 0.000000 
#    y 0.000000 1.754200 0.000000 
#    z 0.000000 0.000000 1.745890 
# 
# From -- ./inp_files/23347.got.cif
#   From: 2010.03.12/outbox.cif.g09.slc.cpg/sg69_12_cif.got.tgz:23347.got - 2010.04.10 23:52:46.
