data_PCOD8285608
_publ_section_title
;
Structure prediction by ZEFSAII (Michael W. Deem and Ramdas Pophale) SiO2 
 PCOD8285608
Probable space group: F M M M
;
_chemical_formula_sum "Si O2"
_cell_formula_units_Z 104
_cell_length_a 16.875746
_cell_length_b 15.620372
_cell_length_c 18.776598
_cell_angle_alpha 90.000000
_cell_angle_beta 90.000000
_cell_angle_gamma 90.000000
_cell_volume 4949.613195
_symmetry_space_group_name_H-M "F M M M"
_symmetry_group_IT_number 69
_symmetry_cell_setting 'orthorhombic'
loop_
_space_group_symop_operation_xyz
x,y,z
-x,-y,z
x,-y,-z
-x,y,-z
-x,-y,-z
x,y,-z
-x,y,z
x,-y,z
x,1/2+y,1/2+z
-x,1/2-y,1/2+z
x,1/2-y,1/2-z
-x,1/2+y,1/2-z
-x,1/2-y,1/2-z
x,1/2+y,1/2-z
-x,1/2+y,1/2+z
x,1/2-y,1/2+z
1/2+x,y,1/2+z
1/2-x,-y,1/2+z
1/2+x,-y,1/2-z
1/2-x,y,1/2-z
1/2-x,-y,1/2-z
1/2+x,y,1/2-z
1/2-x,y,1/2+z
1/2+x,-y,1/2+z
1/2+x,1/2+y,z
1/2-x,1/2-y,z
1/2+x,1/2-y,-z
1/2-x,1/2+y,-z
1/2-x,1/2-y,-z
1/2+x,1/2+y,-z
1/2-x,1/2+y,z
1/2+x,1/2-y,z
loop_
_atom_site_type_symbol
_atom_site_label
_atom_site_fract_x
_atom_site_fract_y
_atom_site_fract_z
Si Si1 0.673179 0.811886 0.000000
Si Si2 0.000000 0.404411 0.630666
Si Si3 0.500000 0.721694 0.000000
Si Si4 0.716106 0.903182 0.142680
Si Si5 0.861063 0.344760 0.725325
O O1 0.750000 0.750000 0.000000
O O2 0.679438 0.870247 0.069516
O O3 0.584058 0.772577 0.000000
O O4 0.074399 0.392149 0.680066
O O5 0.000000 0.500000 0.598146
O O6 0.000000 0.336152 0.568794
O O7 0.784834 0.841007 0.172964
O O8 0.649604 0.902223 0.204092
O O9 0.747399 0.000000 0.131846
O O10 0.885598 0.250000 0.750000
#
# Coordination Sequence:
#
# PCOD8285608 Si02
#       5
#    16  16   8  32  32
#     4  12  25  44  65  90 128 172 214 266 326 387
#     4  12  24  41  63  92 126 164 208 268 327 383
#     4  12  27  44  65  96 126 166 220 268 323 394
#     4  11  22  40  63  92 124 164 211 261 317 382
#     4  11  22  39  64  93 125 164 210 261 317 384
#
# _framework density 21.011742999999999
#
# number of rings (size 3 to 8) (size 9 to 14) (size 15 to 20)
#    0.000    0.615    0.000   12.231    0.000    1.231 
#    0.000    7.692    0.000    0.000    0.000    0.000 
#    0.000    0.000    0.000    0.000    0.000    0.000 
#
# Total GULP energy -322288.109740 kJ/mol
# GULP energy per Si atom -12395.696528 kJ/mol
# Density = 2.096392 g / cm^3
# Si number density = 21.011743 Si / 1000 Ang^3
#
#
#
# Elastic Constant Matrix: (Units=GPa)
#
#
# Indices 1 2 3 4 5 6 
#
# 1 96.7172 31.9293 66.7847 0.0000 0.0000 0.0000
# 2 31.9293 106.1397 32.6181 0.0000 0.0000 0.0000
# 3 66.7847 32.6181 173.4455 0.0000 0.0000 0.0000
# 4 0.0000 0.0000 0.0000 168.7144 0.0000 0.0000
# 5 0.0000 0.0000 0.0000 0.0000 13.7840 0.0000
# 6 0.0000 0.0000 0.0000 0.0000 0.0000 26.8445
#
#
#
# Elastic Compliance Matrix: (Units=1/GPa)
#
#
# Indices 1 2 3 4 5 6 
#
# 1 0.014870 -0.002880 -0.005184 0.000000 0.000000 0.000000
# 2 -0.002880 0.010557 -0.000876 0.000000 0.000000 0.000000
# 3 -0.005184 -0.000876 0.007926 0.000000 0.000000 0.000000
# 4 0.000000 0.000000 0.000000 0.005927 0.000000 0.000000
# 5 0.000000 0.000000 0.000000 0.000000 0.072548 0.000000
# 6 0.000000 0.000000 0.000000 0.000000 0.000000 0.037252
#
#
# Mechanical properties :
#
#
# Convention : Reuss Voigt Hill
#
# Bulk Modulus (GPa) = 64.63062 70.99629 67.81345
# Shear Modulus (GPa) = 29.04973 58.19992 43.62483
#
# Velocity S-wave (km/s) = 3.72230 5.26867 4.56149
# Velocity P-wave (km/s) = 7.02140 8.41867 7.75158
#
# Compressibility (1/GPa) = 0.01547254
#
# Stress axis : x y z
#
# Youngs Moduli (GPa) = 67.25024 94.72129 126.16080
#
# Poissons Ratio (x) = 0.27281 0.65401
# Poissons Ratio (y) = 0.19369 0.11057
# Poissons Ratio (z) = 0.34862 0.08302
#
# Static dielectric constant tensor:
#      x y z
#    x -30.842450 0.000000 0.000000 
#    y 0.000000 3.839630 0.000000 
#    z 0.000000 0.000000 4.136090 
# 
# 
# High freq. dielectric constant tensor:
#      x y z
#    x 1.816500 0.000000 0.000000 
#    y 0.000000 1.829950 0.000000 
#    z 0.000000 0.000000 1.845100 
# 
# From -- ./inp_files/22283.got.cif
#   From: 2010.03.12/outbox.cif.g09.slc.cpg/sg69_12_cif.got.tgz:22283.got - 2010.04.10 23:52:46.
