data_PCOD8285263
_publ_section_title
;
Structure prediction by ZEFSAII (Michael W. Deem and Ramdas Pophale) SiO2 
 PCOD8285263
Probable space group: F M M M
;
_chemical_formula_sum "Si O2"
_cell_formula_units_Z 208
_cell_length_a 20.933172
_cell_length_b 17.656690
_cell_length_c 27.741880
_cell_angle_alpha 90.000000
_cell_angle_beta 90.000000
_cell_angle_gamma 90.000000
_cell_volume 10253.690935
_symmetry_space_group_name_H-M "F M M M"
_symmetry_group_IT_number 69
_symmetry_cell_setting 'orthorhombic'
loop_
_space_group_symop_operation_xyz
x,y,z
-x,-y,z
x,-y,-z
-x,y,-z
-x,-y,-z
x,y,-z
-x,y,z
x,-y,z
x,1/2+y,1/2+z
-x,1/2-y,1/2+z
x,1/2-y,1/2-z
-x,1/2+y,1/2-z
-x,1/2-y,1/2-z
x,1/2+y,1/2-z
-x,1/2+y,1/2+z
x,1/2-y,1/2+z
1/2+x,y,1/2+z
1/2-x,-y,1/2+z
1/2+x,-y,1/2-z
1/2-x,y,1/2-z
1/2-x,-y,1/2-z
1/2+x,y,1/2-z
1/2-x,y,1/2+z
1/2+x,-y,1/2+z
1/2+x,1/2+y,z
1/2-x,1/2-y,z
1/2+x,1/2-y,-z
1/2-x,1/2+y,-z
1/2-x,1/2-y,-z
1/2+x,1/2+y,-z
1/2-x,1/2+y,z
1/2+x,1/2-y,z
loop_
_atom_site_type_symbol
_atom_site_label
_atom_site_fract_x
_atom_site_fract_y
_atom_site_fract_z
Si Si1 0.071569 0.341236 0.091229
Si Si2 0.926894 0.838733 0.797024
Si Si3 0.107433 0.673513 0.806321
Si Si4 0.845995 0.585361 0.373398
Si Si5 0.321630 0.277647 0.943099
Si Si6 0.728972 0.414529 0.697628
Si Si7 0.075646 0.500000 0.946728
O O1 0.060907 0.339104 0.148609
O O2 0.123304 0.281135 0.072386
O O3 0.100030 0.423936 0.078839
O O4 0.000000 0.327534 0.068566
O O5 0.884278 0.763377 0.799694
O O6 0.918108 0.869204 0.742035
O O7 0.906093 0.897125 0.838383
O O8 0.000000 0.817055 0.805796
O O9 0.175207 0.640780 0.822189
O O10 0.854524 0.500000 0.393810
O O11 0.838702 0.642831 0.417693
O O12 0.785117 0.591538 0.339935
O O13 0.250000 0.250000 0.928699
O O14 0.325568 0.291143 0.000000
O O15 0.702683 0.500000 0.701875
O O16 0.750000 0.385032 0.750000
O O17 0.000000 0.500000 0.947332
O O18 0.104938 0.500000 0.000000
#
# Coordination Sequence:
#
# PCOD8285263 Si02
#       7
#    32  32  32  32  32  32  16
#     4  11  22  40  67  98 133 172 213 266 331 396
#     4  11  23  39  58  89 130 171 212 258 315 379
#     4  11  21  36  62  90 129 165 212 265 315 377
#     4  11  24  43  65  91 128 171 215 266 320 384
#     4  11  25  46  70  98 128 165 220 279 335 394
#     4  10  21  38  59  89 126 167 214 255 309 386
#     4   9  20  38  60  92 129 166 211 259 323 400
#
# _framework density 20.285378000000001
#
# number of rings (size 3 to 8) (size 9 to 14) (size 15 to 20)
#    0.000    1.308    3.077    3.231    1.077    1.538 
#    1.385    0.000    0.000    0.000    0.000    2.154 
#    0.000    0.000    0.000    0.000    0.000    0.000 
#
# Total GULP energy -644623.167005 kJ/mol
# GULP energy per Si atom -12396.599365 kJ/mol
# Density = 2.023921 g / cm^3
# Si number density = 20.285378 Si / 1000 Ang^3
#
#
#
# Elastic Constant Matrix: (Units=GPa)
#
#
# Indices 1 2 3 4 5 6 
#
# 1 98.7495 50.9086 23.7114 0.0000 0.0000 0.0000
# 2 50.9086 140.4561 60.4574 0.0000 0.0000 0.0000
# 3 23.7114 60.4574 127.9680 0.0000 0.0000 0.0000
# 4 0.0000 0.0000 0.0000 30.2624 0.0000 0.0000
# 5 0.0000 0.0000 0.0000 0.0000 11.7857 0.0000
# 6 0.0000 0.0000 0.0000 0.0000 0.0000 16.5536
#
#
#
# Elastic Compliance Matrix: (Units=1/GPa)
#
#
# Indices 1 2 3 4 5 6 
#
# 1 0.012459 -0.004421 -0.000220 0.000000 0.000000 0.000000
# 2 -0.004421 0.010506 -0.004144 0.000000 0.000000 0.000000
# 3 -0.000220 -0.004144 0.009813 0.000000 0.000000 0.000000
# 4 0.000000 0.000000 0.000000 0.033044 0.000000 0.000000
# 5 0.000000 0.000000 0.000000 0.000000 0.084848 0.000000
# 6 0.000000 0.000000 0.000000 0.000000 0.000000 0.060410
#
#
# Mechanical properties :
#
#
# Convention : Reuss Voigt Hill
#
# Bulk Modulus (GPa) = 65.75725 70.81426 68.28576
# Shear Modulus (GPa) = 21.39316 27.19341 24.29329
#
# Velocity S-wave (km/s) = 3.25100 3.66531 3.46436
# Velocity P-wave (km/s) = 6.82484 7.27307 7.05252
#
# Compressibility (1/GPa) = 0.01520745
#
# Stress axis : x y z
#
# Youngs Moduli (GPa) = 80.26585 95.18449 101.90467
#
# Poissons Ratio (x) = 0.42081 0.02240
# Poissons Ratio (y) = 0.35486 0.42232
# Poissons Ratio (z) = 0.01764 0.39447
#
# Static dielectric constant tensor:
#      x y z
#    x 3.607460 0.000000 0.000000 
#    y 0.000000 3.797750 0.000000 
#    z 0.000000 0.000000 3.676080 
# 
# 
# High freq. dielectric constant tensor:
#      x y z
#    x 1.787620 0.000000 0.000000 
#    y 0.000000 1.787840 0.000000 
#    z 0.000000 0.000000 1.795560 
# 
# From -- ./inp_files/42723.got.cif
#   From: 2010.03.12/outbox.cif.g09.slc.cpg/sg69_22_cif.got.tgz:42723.got - 2010.04.10 23:52:46.
