data_PCOD8285972
_publ_section_title
;
Structure prediction by ZEFSAII (Michael W. Deem and Ramdas Pophale) SiO2 
 PCOD8285972
Probable space group: F D D D
;
_chemical_formula_sum "Si O2"
_cell_formula_units_Z 216
_cell_length_a 23.692285
_cell_length_b 19.894182
_cell_length_c 24.303593
_cell_angle_alpha 90.000000
_cell_angle_beta 90.000000
_cell_angle_gamma 90.000000
_cell_volume 11455.222223
_symmetry_space_group_name_H-M "F D D D"
_symmetry_group_IT_number 70
_space_group.IT_coordinate_system_code '2'
_symmetry_cell_setting 'orthorhombic'
loop_
_space_group_symop_operation_xyz
x,y,z
1/4-x,1/4-y,z
x,1/4-y,1/4-z
1/4-x,y,1/4-z
-x,-y,-z
3/4+x,3/4+y,-z
-x,3/4+y,3/4+z
3/4+x,-y,3/4+z
x,1/2+y,1/2+z
1/4-x,3/4-y,1/2+z
x,3/4-y,3/4-z
1/4-x,1/2+y,3/4-z
-x,1/2-y,1/2-z
3/4+x,1/4+y,1/2-z
-x,1/4+y,1/4+z
3/4+x,1/2-y,1/4+z
1/2+x,y,1/2+z
3/4-x,1/4-y,1/2+z
1/2+x,1/4-y,3/4-z
3/4-x,y,3/4-z
1/2-x,-y,1/2-z
1/4+x,3/4+y,1/2-z
1/2-x,3/4+y,1/4+z
1/4+x,-y,1/4+z
1/2+x,1/2+y,z
3/4-x,3/4-y,z
1/2+x,3/4-y,1/4-z
3/4-x,1/2+y,1/4-z
1/2-x,1/2-y,-z
1/4+x,1/4+y,-z
1/2-x,1/4+y,3/4+z
1/4+x,1/2-y,3/4+z
loop_
_atom_site_type_symbol
_atom_site_label
_atom_site_fract_x
_atom_site_fract_y
_atom_site_fract_z
Si Si1 0.265558 0.432032 0.153170
Si Si2 0.067030 0.375000 0.375000
Si Si3 0.059810 0.550419 0.139929
Si Si4 0.875000 0.875000 0.875000
Si Si5 0.815452 0.341587 0.740956
Si Si6 0.522902 0.178331 0.815979
Si Si7 0.529716 0.183587 0.695594
Si Si8 0.360885 0.987064 0.107882
O O1 0.222653 0.494634 0.147262
O O2 0.270546 0.396860 0.214604
O O3 0.247797 0.378248 0.106630
O O4 0.326906 0.459360 0.139588
O O5 0.109616 0.317281 0.394855
O O6 0.026786 0.351245 0.326247
O O7 0.039365 0.625000 0.125000
O O8 0.125000 0.538850 0.125000
O O9 0.044941 0.549300 0.205512
O O10 0.914053 0.828084 0.838442
O O11 0.875000 0.375000 0.758379
O O12 0.825220 0.287507 0.694002
O O13 0.537886 0.150753 0.755682
O O14 0.475955 0.235848 0.806833
O O15 0.580884 0.209242 0.838106
#
# Coordination Sequence:
#
# PCOD8285972 Si02
#       8
#    32  16  32   8  32  32  32  32
#     4  10  22  36  62  87 111 151 202 239 289 354
#     4   9  18  33  50  84 119 142 185 242 286 336
#     4  11  23  41  60  85 118 154 192 236 300 361
#     4  10  20  32  52  84 108 152 188 232 284 356
#     4   9  18  40  60  81 114 154 183 239 293 339
#     4   9  18  37  55  79 112 150 191 234 289 341
#     4   9  19  33  55  78 114 153 186 231 287 352
#     4   9  19  34  58  84 112 148 192 239 286 338
#
# _framework density 18.856028999999999
#
# number of rings (size 3 to 8) (size 9 to 14) (size 15 to 20)
#    0.000    2.519    1.481    1.333    5.185    0.593 
#    1.333    0.000    0.000    0.000    0.000    0.000 
#    0.000    0.000    0.000    0.000    0.000    0.000 
#
# Total GULP energy -669050.945824 kJ/mol
# GULP energy per Si atom -12389.832330 kJ/mol
# Density = 1.881311 g / cm^3
# Si number density = 18.856029 Si / 1000 Ang^3
#
#
#
# Elastic Constant Matrix: (Units=GPa)
#
#
# Indices 1 2 3 4 5 6 
#
# 1 52.4635 21.1589 27.1071 0.0000 0.0000 0.0000
# 2 21.1589 89.8890 21.5461 0.0000 0.0000 0.0000
# 3 27.1071 21.5461 116.4312 0.0000 0.0000 0.0000
# 4 0.0000 0.0000 0.0000 22.3160 0.0000 0.0000
# 5 0.0000 0.0000 0.0000 0.0000 -30.2986 0.0000
# 6 0.0000 0.0000 0.0000 0.0000 0.0000 26.3136
#
#
#
# Elastic Compliance Matrix: (Units=1/GPa)
#
#
# Indices 1 2 3 4 5 6 
#
# 1 0.023192 -0.004358 -0.004593 0.000000 0.000000 0.000000
# 2 -0.004358 0.012460 -0.001291 0.000000 0.000000 0.000000
# 3 -0.004593 -0.001291 0.009897 0.000000 0.000000 0.000000
# 4 0.000000 0.000000 0.000000 0.044811 0.000000 0.000000
# 5 0.000000 0.000000 0.000000 0.000000 -0.033005 0.000000
# 6 0.000000 0.000000 0.000000 0.000000 0.000000 0.038003
#
#
# Mechanical properties :
#
#
# Convention : Reuss Voigt Hill
#
# Bulk Modulus (GPa) = 39.89725 44.26756 42.08240
# Shear Modulus (GPa) = 40.25849 16.26429 28.26139
#
# Velocity S-wave (km/s) = 4.62567 2.94011 3.87563
# Velocity P-wave (km/s) = 7.05223 5.92058 6.51103
#
# Compressibility (1/GPa) = 0.02506438
#
# Stress axis : x y z
#
# Youngs Moduli (GPa) = 43.11896 80.25566 101.04072
#
# Poissons Ratio (x) = 0.34977 0.46407
# Poissons Ratio (y) = 0.18792 0.13046
# Poissons Ratio (z) = 0.19804 0.10362
#
# Static dielectric constant tensor:
#      x y z
#    x 3.209880 0.000000 0.000000 
#    y 0.000000 3.938110 0.000000 
#    z 0.000000 0.000000 3.742390 
# 
# 
# High freq. dielectric constant tensor:
#      x y z
#    x 1.705160 0.000000 0.000000 
#    y 0.000000 1.735310 0.000000 
#    z 0.000000 0.000000 1.742380 
# 
# From -- ./inp_files/47078.got.cif
#   From: 2010.03.12/outbox.cif.g09.slc.cpg/sg70_24_cif.got.tgz:47078.got - 2010.04.16 13:46:32.
