data_PCOD8285969
_publ_section_title
;
Structure prediction by ZEFSAII (Michael W. Deem and Ramdas Pophale) SiO2 
 PCOD8285969
Probable space group: F D D D
;
_chemical_formula_sum "Si O2"
_cell_formula_units_Z 208
_cell_length_a 16.646195
_cell_length_b 20.275151
_cell_length_c 32.412656
_cell_angle_alpha 90.000000
_cell_angle_beta 90.000000
_cell_angle_gamma 90.000000
_cell_volume 10939.404849
_symmetry_space_group_name_H-M "F D D D"
_symmetry_group_IT_number 70
_space_group.IT_coordinate_system_code '2'
_symmetry_cell_setting 'orthorhombic'
loop_
_space_group_symop_operation_xyz
x,y,z
1/4-x,1/4-y,z
x,1/4-y,1/4-z
1/4-x,y,1/4-z
-x,-y,-z
3/4+x,3/4+y,-z
-x,3/4+y,3/4+z
3/4+x,-y,3/4+z
x,1/2+y,1/2+z
1/4-x,3/4-y,1/2+z
x,3/4-y,3/4-z
1/4-x,1/2+y,3/4-z
-x,1/2-y,1/2-z
3/4+x,1/4+y,1/2-z
-x,1/4+y,1/4+z
3/4+x,1/2-y,1/4+z
1/2+x,y,1/2+z
3/4-x,1/4-y,1/2+z
1/2+x,1/4-y,3/4-z
3/4-x,y,3/4-z
1/2-x,-y,1/2-z
1/4+x,3/4+y,1/2-z
1/2-x,3/4+y,1/4+z
1/4+x,-y,1/4+z
1/2+x,1/2+y,z
3/4-x,3/4-y,z
1/2+x,3/4-y,1/4-z
3/4-x,1/2+y,1/4-z
1/2-x,1/2-y,-z
1/4+x,1/4+y,-z
1/2-x,1/4+y,3/4+z
1/4+x,1/2-y,3/4+z
loop_
_atom_site_type_symbol
_atom_site_label
_atom_site_fract_x
_atom_site_fract_y
_atom_site_fract_z
Si Si1 0.821036 0.207439 0.795692
Si Si2 0.806945 0.426819 0.614843
Si Si3 0.323448 0.602584 0.915935
Si Si4 0.783689 0.997319 0.542944
Si Si5 0.466063 0.796348 0.785288
Si Si6 0.875000 0.375000 0.729910
Si Si7 0.645577 0.309836 0.901205
O O1 0.751908 0.199650 0.828853
O O2 0.875199 0.141177 0.799420
O O3 0.776270 0.220152 0.752194
O O4 0.882516 0.267805 0.804205
O O5 0.875000 0.375000 0.600128
O O6 0.754861 0.396552 0.653060
O O7 0.853823 0.493463 0.624843
O O8 0.375000 0.586081 0.875000
O O9 0.297633 0.534372 0.938499
O O10 0.853562 0.940322 0.546089
O O11 0.815095 0.056988 0.571234
O O12 0.500000 0.750000 0.750000
O O13 0.450898 0.863845 0.760210
O O14 0.524378 0.813620 0.821971
O O15 0.639434 0.375000 0.875000
#
# Coordination Sequence:
#
# PCOD8285969 Si02
#       7
#    32  32  32  32  32  16  32
#     4  10  22  35  63  94 119 150 222 254 295 374
#     4  11  22  41  62  87 125 168 211 253 300 370
#     4  10  20  37  64  87 116 165 216 249 297 374
#     4  11  21  38  60  87 122 166 201 252 307 373
#     4  11  20  37  55  90 127 161 195 240 307 378
#     4  10  20  30  61  80 116 166 196 222 288 376
#     4  12  25  35  58  91 133 162 196 255 317 368
#
# _framework density 19.013832000000001
#
# number of rings (size 3 to 8) (size 9 to 14) (size 15 to 20)
#    0.000    1.231    6.154    1.846    4.308    0.000 
#    0.000    0.000    3.385    2.769    0.000    0.000 
#    0.000    0.000    0.000    0.000    0.000    0.000 
#
# Total GULP energy -644327.270851 kJ/mol
# GULP energy per Si atom -12390.909055 kJ/mol
# Density = 1.897056 g / cm^3
# Si number density = 19.013832 Si / 1000 Ang^3
#
#
#
# Elastic Constant Matrix: (Units=GPa)
#
#
# Indices 1 2 3 4 5 6 
#
# 1 40.9340 21.8702 19.0875 0.0000 0.0000 0.0000
# 2 21.8702 85.4660 53.5305 0.0000 0.0000 0.0000
# 3 19.0875 53.5305 91.2989 0.0000 0.0000 0.0000
# 4 0.0000 0.0000 0.0000 36.3740 0.0000 0.0000
# 5 0.0000 0.0000 0.0000 0.0000 22.6004 0.0000
# 6 0.0000 0.0000 0.0000 0.0000 0.0000 35.6082
#
#
#
# Elastic Compliance Matrix: (Units=1/GPa)
#
#
# Indices 1 2 3 4 5 6 
#
# 1 0.028707 -0.005669 -0.002678 0.000000 0.000000 0.000000
# 2 -0.005669 0.019610 -0.010313 0.000000 0.000000 0.000000
# 3 -0.002678 -0.010313 0.017560 0.000000 0.000000 0.000000
# 4 0.000000 0.000000 0.000000 0.027492 0.000000 0.000000
# 5 0.000000 0.000000 0.000000 0.000000 0.044247 0.000000
# 6 0.000000 0.000000 0.000000 0.000000 0.000000 0.028083
#
#
# Mechanical properties :
#
#
# Convention : Reuss Voigt Hill
#
# Bulk Modulus (GPa) = 35.01653 45.18615 40.10134
# Shear Modulus (GPa) = 23.52521 27.13057 25.32789
#
# Velocity S-wave (km/s) = 3.52130 3.78151 3.65372
# Velocity P-wave (km/s) = 5.91515 6.54851 6.23987
#
# Compressibility (1/GPa) = 0.02855794
#
# Stress axis : x y z
#
# Youngs Moduli (GPa) = 34.83479 50.99316 56.94887
#
# Poissons Ratio (x) = 0.28906 0.15251
# Poissons Ratio (y) = 0.19746 0.58731
# Poissons Ratio (z) = 0.09329 0.52589
#
# Static dielectric constant tensor:
#      x y z
#    x 3.180880 0.000000 0.000000 
#    y 0.000000 3.092220 0.000000 
#    z 0.000000 0.000000 3.608010 
# 
# 
# High freq. dielectric constant tensor:
#      x y z
#    x 1.725540 0.000000 0.000000 
#    y 0.000000 1.722190 0.000000 
#    z 0.000000 0.000000 1.741070 
# 
# From -- ./inp_files/59635.got.cif
#   From: 2010.03.12/outbox.cif.g09.slc.cpg/sg70_30_cif.got.tgz:59635.got - 2010.04.16 13:46:32.
