data_PCOD8285273
_publ_section_title
;
Structure prediction by ZEFSAII (Michael W. Deem and Ramdas Pophale) SiO2 
 PCOD8285273
Probable space group: F M M M
;
_chemical_formula_sum "Si O2"
_cell_formula_units_Z 192
_cell_length_a 16.835159
_cell_length_b 18.105322
_cell_length_c 32.930000
_cell_angle_alpha 90.000000
_cell_angle_beta 90.000000
_cell_angle_gamma 90.000000
_cell_volume 10037.260744
_symmetry_space_group_name_H-M "F M M M"
_symmetry_group_IT_number 69
_symmetry_cell_setting 'orthorhombic'
loop_
_space_group_symop_operation_xyz
x,y,z
-x,-y,z
x,-y,-z
-x,y,-z
-x,-y,-z
x,y,-z
-x,y,z
x,-y,z
x,1/2+y,1/2+z
-x,1/2-y,1/2+z
x,1/2-y,1/2-z
-x,1/2+y,1/2-z
-x,1/2-y,1/2-z
x,1/2+y,1/2-z
-x,1/2+y,1/2+z
x,1/2-y,1/2+z
1/2+x,y,1/2+z
1/2-x,-y,1/2+z
1/2+x,-y,1/2-z
1/2-x,y,1/2-z
1/2-x,-y,1/2-z
1/2+x,y,1/2-z
1/2-x,y,1/2+z
1/2+x,-y,1/2+z
1/2+x,1/2+y,z
1/2-x,1/2-y,z
1/2+x,1/2-y,-z
1/2-x,1/2+y,-z
1/2-x,1/2-y,-z
1/2+x,1/2+y,-z
1/2-x,1/2+y,z
1/2+x,1/2-y,z
loop_
_atom_site_type_symbol
_atom_site_label
_atom_site_fract_x
_atom_site_fract_y
_atom_site_fract_z
Si Si1 0.662113 0.336142 0.758707
Si Si2 0.668723 0.704791 0.452468
Si Si3 0.852307 0.915851 0.841334
Si Si4 0.000000 0.583295 0.602551
Si Si5 0.590569 0.917433 0.186797
Si Si6 0.807980 0.414135 0.113242
Si Si7 0.000000 0.780074 0.952459
O O1 0.655993 0.250000 0.750000
O O2 0.750000 0.366390 0.750000
O O3 0.641892 0.357440 0.804742
O O4 0.600454 0.373860 0.728495
O O5 0.666481 0.686073 0.500000
O O6 0.750000 0.750000 0.442287
O O7 0.675184 0.628331 0.428331
O O8 0.583845 0.741493 0.439192
O O9 0.780235 0.899683 0.871330
O O10 0.926603 0.900890 0.868970
O O11 0.849470 0.000000 0.824236
O O12 0.000000 0.637552 0.564719
O O13 0.000000 0.500000 0.585148
O O14 0.500000 0.917658 0.174025
O O15 0.636800 0.881353 0.149095
O O16 0.623546 0.000000 0.193884
O O17 0.825644 0.500000 0.104555
O O18 0.000000 0.788995 0.000000
#
# Coordination Sequence:
#
# PCOD8285273 Si02
#       7
#    32  32  32  16  32  32  16
#     4  11  23  38  55  81 113 148 194 242 286 342
#     4  10  22  40  62  89 122 156 192 237 293 357
#     4  10  21  39  60  84 115 153 194 240 295 346
#     4  10  22  39  61  92 119 147 194 244 290 346
#     4  10  22  38  57  80 109 150 194 235 283 336
#     4  10  21  38  61  86 115 154 200 241 285 346
#     4  10  22  41  63  91 122 158 195 231 293 358
#
# _framework density 19.128724999999999
#
# number of rings (size 3 to 8) (size 9 to 14) (size 15 to 20)
#    0.000    1.833    1.667    1.500    2.333    4.167 
#    0.000    0.000    0.000    7.500    0.000    0.000 
#    0.000    0.000    0.000    0.000    0.000    0.000 
#
# Total GULP energy -595067.769589 kJ/mol
# GULP energy per Si atom -12397.245200 kJ/mol
# Density = 1.908519 g / cm^3
# Si number density = 19.128725 Si / 1000 Ang^3
#
#
#
# Elastic Constant Matrix: (Units=GPa)
#
#
# Indices 1 2 3 4 5 6 
#
# 1 130.0582 40.6096 33.5504 0.0000 0.0000 0.0000
# 2 40.6096 95.0285 57.3293 0.0000 0.0000 0.0000
# 3 33.5504 57.3293 73.6808 0.0000 0.0000 0.0000
# 4 0.0000 0.0000 0.0000 44.6086 0.0000 0.0000
# 5 0.0000 0.0000 0.0000 0.0000 -12.3072 0.0000
# 6 0.0000 0.0000 0.0000 0.0000 0.0000 27.1650
#
#
#
# Elastic Compliance Matrix: (Units=1/GPa)
#
#
# Indices 1 2 3 4 5 6 
#
# 1 0.009041 -0.002601 -0.002093 0.000000 0.000000 0.000000
# 2 -0.002601 0.020581 -0.014829 0.000000 0.000000 0.000000
# 3 -0.002093 -0.014829 0.026063 0.000000 0.000000 0.000000
# 4 0.000000 0.000000 0.000000 0.022417 0.000000 0.000000
# 5 0.000000 0.000000 0.000000 0.000000 -0.081253 0.000000
# 6 0.000000 0.000000 0.000000 0.000000 0.000000 0.036812
#
#
# Mechanical properties :
#
#
# Convention : Reuss Voigt Hill
#
# Bulk Modulus (GPa) = 60.10017 62.41624 61.25821
# Shear Modulus (GPa) = 63.89486 23.04518 43.47002
#
# Velocity S-wave (km/s) = 5.78577 3.47470 4.77225
# Velocity P-wave (km/s) = 8.72470 6.98559 7.90313
#
# Compressibility (1/GPa) = 0.01663889
#
# Stress axis : x y z
#
# Youngs Moduli (GPa) = 110.60853 48.58891 38.36798
#
# Poissons Ratio (x) = 0.12637 0.08031
# Poissons Ratio (y) = 0.28767 0.56897
# Poissons Ratio (z) = 0.23152 0.72053
#
# Static dielectric constant tensor:
#      x y z
#    x 3.807940 0.000000 0.000000 
#    y 0.000000 3.558780 0.000000 
#    z 0.000000 0.000000 3.367730 
# 
# 
# High freq. dielectric constant tensor:
#      x y z
#    x 1.764290 0.000000 0.000000 
#    y 0.000000 1.735120 0.000000 
#    z 0.000000 0.000000 1.741550 
# 
# From -- ./inp_files/27786.got.cif
#   From: 2010.03.12/outbox.cif.g09.slc.cpg/sg69_14_cif.got.tgz:27786.got - 2010.04.10 23:52:46.
