data_PCOD8285270
_publ_section_title
;
Structure prediction by ZEFSAII (Michael W. Deem and Ramdas Pophale) SiO2 
 PCOD8285270
Probable space group: F M M M
;
_chemical_formula_sum "Si O2"
_cell_formula_units_Z 176
_cell_length_a 23.903103
_cell_length_b 21.615599
_cell_length_c 17.705190
_cell_angle_alpha 90.000000
_cell_angle_beta 90.000000
_cell_angle_gamma 90.000000
_cell_volume 9147.915609
_symmetry_space_group_name_H-M "F M M M"
_symmetry_group_IT_number 69
_symmetry_cell_setting 'orthorhombic'
loop_
_space_group_symop_operation_xyz
x,y,z
-x,-y,z
x,-y,-z
-x,y,-z
-x,-y,-z
x,y,-z
-x,y,z
x,-y,z
x,1/2+y,1/2+z
-x,1/2-y,1/2+z
x,1/2-y,1/2-z
-x,1/2+y,1/2-z
-x,1/2-y,1/2-z
x,1/2+y,1/2-z
-x,1/2+y,1/2+z
x,1/2-y,1/2+z
1/2+x,y,1/2+z
1/2-x,-y,1/2+z
1/2+x,-y,1/2-z
1/2-x,y,1/2-z
1/2-x,-y,1/2-z
1/2+x,y,1/2-z
1/2-x,y,1/2+z
1/2+x,-y,1/2+z
1/2+x,1/2+y,z
1/2-x,1/2-y,z
1/2+x,1/2-y,-z
1/2-x,1/2+y,-z
1/2-x,1/2-y,-z
1/2+x,1/2+y,-z
1/2-x,1/2+y,z
1/2+x,1/2-y,z
loop_
_atom_site_type_symbol
_atom_site_label
_atom_site_fract_x
_atom_site_fract_y
_atom_site_fract_z
Si Si1 0.435503 0.137682 0.912209
Si Si2 0.933711 0.000000 0.086895
Si Si3 0.257319 0.571607 0.085953
Si Si4 0.651952 0.072153 0.183979
Si Si5 0.131429 0.113911 0.848646
Si Si6 0.935212 0.235392 0.836685
O O1 0.500000 0.126493 0.891861
O O2 0.401434 0.085560 0.867996
O O3 0.417225 0.206011 0.886618
O O4 0.423291 0.129897 0.000000
O O5 0.911275 0.939795 0.129054
O O6 0.000000 0.000000 0.092718
O O7 0.913258 0.000000 0.000000
O O8 0.272267 0.500000 0.101300
O O9 0.207689 0.593819 0.140464
O O10 0.312413 0.611514 0.101941
O O11 0.237795 0.581991 0.000000
O O12 0.647829 0.109966 0.260996
O O13 0.654192 0.000000 0.202682
O O14 0.101883 0.178719 0.865573
O O15 0.922749 0.250000 0.750000
O O16 0.000000 0.218211 0.849101
#
# Coordination Sequence:
#
# PCOD8285270 Si02
#       6
#    32  16  32  32  32  32
#     4  10  22  40  61  87 121 157 197 249 303 356
#     4  11  24  38  55  90 133 159 191 250 308 360
#     4  10  21  38  60  86 123 161 195 242 301 362
#     4  11  22  38  61  92 119 155 200 249 300 357
#     4  12  21  37  63  90 117 159 203 247 297 355
#     4  10  21  39  62  87 118 158 204 246 294 355
#
# _framework density 19.239355
#
# number of rings (size 3 to 8) (size 9 to 14) (size 15 to 20)
#    0.000    1.364    3.636    2.182    0.000    5.091 
#    0.000    3.636    0.000    2.182    0.000    0.000 
#    0.000    0.000    0.000    0.000    0.000    0.000 
#
# Total GULP energy -545869.366469 kJ/mol
# GULP energy per Si atom -12406.121965 kJ/mol
# Density = 1.919557 g / cm^3
# Si number density = 19.239355 Si / 1000 Ang^3
#
#
#
# Elastic Constant Matrix: (Units=GPa)
#
#
# Indices 1 2 3 4 5 6 
#
# 1 81.5547 20.8300 25.5210 0.0000 0.0000 0.0000
# 2 20.8300 36.0182 -4.3567 0.0000 0.0000 0.0000
# 3 25.5210 -4.3567 73.3370 0.0000 0.0000 0.0000
# 4 0.0000 0.0000 0.0000 26.1113 0.0000 0.0000
# 5 0.0000 0.0000 0.0000 0.0000 35.3962 0.0000
# 6 0.0000 0.0000 0.0000 0.0000 0.0000 33.7881
#
#
#
# Elastic Compliance Matrix: (Units=1/GPa)
#
#
# Indices 1 2 3 4 5 6 
#
# 1 0.017033 -0.010644 -0.006560 0.000000 0.000000 0.000000
# 2 -0.010644 0.034616 0.005760 0.000000 0.000000 0.000000
# 3 -0.006560 0.005760 0.016261 0.000000 0.000000 0.000000
# 4 0.000000 0.000000 0.000000 0.038298 0.000000 0.000000
# 5 0.000000 0.000000 0.000000 0.000000 0.028252 0.000000
# 6 0.000000 0.000000 0.000000 0.000000 0.000000 0.029596
#
#
# Mechanical properties :
#
#
# Convention : Reuss Voigt Hill
#
# Bulk Modulus (GPa) = 22.21072 30.54429 26.37751
# Shear Modulus (GPa) = 24.75863 28.98681 26.87272
#
# Velocity S-wave (km/s) = 3.59119 3.88576 3.74138
# Velocity P-wave (km/s) = 5.36331 6.00355 5.69243
#
# Compressibility (1/GPa) = 0.04502330
#
# Stress axis : x y z
#
# Youngs Moduli (GPa) = 58.70927 28.88825 61.49809
#
# Poissons Ratio (x) = 0.30749 0.40341
# Poissons Ratio (y) = 0.62490 -0.35426
# Poissons Ratio (z) = 0.38512 -0.16641
#
# Static dielectric constant tensor:
#      x y z
#    x 3.557210 0.000000 0.000000 
#    y 0.000000 3.442630 0.000000 
#    z 0.000000 0.000000 3.649520 
# 
# 
# High freq. dielectric constant tensor:
#      x y z
#    x 1.754800 0.000000 0.000000 
#    y 0.000000 1.731930 0.000000 
#    z 0.000000 0.000000 1.762710 
# 
# From -- ./inp_files/26748.got.cif
#   From: 2010.03.12/outbox.cif.g09.slc.cpg/sg69_14_cif.got.tgz:26748.got - 2010.04.10 23:52:46.
