data_PCOD8285559
_publ_section_title
;
Structure prediction by ZEFSAII (Michael W. Deem and Ramdas Pophale) SiO2 
 PCOD8285559
Probable space group: F M M M
;
_chemical_formula_sum "Si O2"
_cell_formula_units_Z 144
_cell_length_a 18.341373
_cell_length_b 19.657366
_cell_length_c 20.619706
_cell_angle_alpha 90.000000
_cell_angle_beta 90.000000
_cell_angle_gamma 90.000000
_cell_volume 7434.292351
_symmetry_space_group_name_H-M "F M M M"
_symmetry_group_IT_number 69
_symmetry_cell_setting 'orthorhombic'
loop_
_space_group_symop_operation_xyz
x,y,z
-x,-y,z
x,-y,-z
-x,y,-z
-x,-y,-z
x,y,-z
-x,y,z
x,-y,z
x,1/2+y,1/2+z
-x,1/2-y,1/2+z
x,1/2-y,1/2-z
-x,1/2+y,1/2-z
-x,1/2-y,1/2-z
x,1/2+y,1/2-z
-x,1/2+y,1/2+z
x,1/2-y,1/2+z
1/2+x,y,1/2+z
1/2-x,-y,1/2+z
1/2+x,-y,1/2-z
1/2-x,y,1/2-z
1/2-x,-y,1/2-z
1/2+x,y,1/2-z
1/2-x,y,1/2+z
1/2+x,-y,1/2+z
1/2+x,1/2+y,z
1/2-x,1/2-y,z
1/2+x,1/2-y,-z
1/2-x,1/2+y,-z
1/2-x,1/2-y,-z
1/2+x,1/2+y,-z
1/2-x,1/2+y,z
1/2+x,1/2-y,z
loop_
_atom_site_type_symbol
_atom_site_label
_atom_site_fract_x
_atom_site_fract_y
_atom_site_fract_z
Si Si1 0.833266 0.079939 0.626335
Si Si2 0.412873 0.131447 0.000000
Si Si3 0.164108 0.825284 0.747366
Si Si4 0.832727 0.772680 0.000000
Si Si5 0.085201 0.500000 0.430000
Si Si6 0.332243 0.624275 0.114907
O O1 0.883457 0.093309 0.563969
O O2 0.860175 0.128037 0.685995
O O3 0.750656 0.099008 0.608159
O O4 0.838087 0.000000 0.645926
O O5 0.387028 0.209252 0.000000
O O6 0.500000 0.128213 0.000000
O O7 0.128283 0.750000 0.750000
O O8 0.250000 0.817607 0.750000
O O9 0.140943 0.858449 0.813845
O O10 0.750000 0.750000 0.000000
O O11 0.847187 0.814732 0.934801
O O12 0.123086 0.500000 0.500000
O O13 0.110401 0.566225 0.394655
O O14 0.000000 0.500000 0.435279
#
# Coordination Sequence:
#
# PCOD8285559 Si02
#       6
#    32  16  32  16  16  32
#     4  11  22  38  65  95 125 168 217 261 317 384
#     4  12  27  43  63  94 134 167 210 271 327 379
#     4   9  20  35  59  94 131 160 206 267 314 366
#     4  12  22  37  67  96 122 166 215 261 308 378
#     4  11  24  40  57  88 124 153 196 263 321 367
#     4  11  21  37  66  93 122 162 213 259 314 373
#
# _framework density 19.369699000000001
#
# number of rings (size 3 to 8) (size 9 to 14) (size 15 to 20)
#    0.000    1.222    4.444    1.667    4.667    3.111 
#    0.000    1.111    0.000    2.667    0.000    0.000 
#    0.000    0.000    0.000    0.000    0.000    0.000 
#
# Total GULP energy -446183.500046 kJ/mol
# GULP energy per Si atom -12393.986112 kJ/mol
# Density = 1.932561 g / cm^3
# Si number density = 19.369699 Si / 1000 Ang^3
#
#
#
# Elastic Constant Matrix: (Units=GPa)
#
#
# Indices 1 2 3 4 5 6 
#
# 1 69.0599 32.4797 36.6457 0.0000 0.0000 0.0000
# 2 32.4797 162.8554 72.6012 0.0000 0.0000 0.0000
# 3 36.6457 72.6012 169.0414 0.0000 0.0000 0.0000
# 4 0.0000 0.0000 0.0000 -64.7232 0.0000 0.0000
# 5 0.0000 0.0000 0.0000 0.0000 14.3922 0.0000
# 6 0.0000 0.0000 0.0000 0.0000 0.0000 22.2104
#
#
#
# Elastic Compliance Matrix: (Units=1/GPa)
#
#
# Indices 1 2 3 4 5 6 
#
# 1 0.016953 -0.002155 -0.002749 0.000000 0.000000 0.000000
# 2 -0.002155 0.007869 -0.002912 0.000000 0.000000 0.000000
# 3 -0.002749 -0.002912 0.007762 0.000000 0.000000 0.000000
# 4 0.000000 0.000000 0.000000 -0.015450 0.000000 0.000000
# 5 0.000000 0.000000 0.000000 0.000000 0.069482 0.000000
# 6 0.000000 0.000000 0.000000 0.000000 0.000000 0.045024
#
#
# Mechanical properties :
#
#
# Convention : Reuss Voigt Hill
#
# Bulk Modulus (GPa) = 58.99736 76.04554 67.52145
# Shear Modulus (GPa) = 32.69616 11.65791 22.17703
#
# Velocity S-wave (km/s) = 4.11299 2.45595 3.38736
# Velocity P-wave (km/s) = 7.28562 6.88386 7.08759
#
# Compressibility (1/GPa) = 0.01694991
#
# Stress axis : x y z
#
# Youngs Moduli (GPa) = 58.98724 127.08844 128.82461
#
# Poissons Ratio (x) = 0.27392 0.35419
# Poissons Ratio (y) = 0.12714 0.37516
# Poissons Ratio (z) = 0.16218 0.37011
#
# Static dielectric constant tensor:
#      x y z
#    x 3.234570 0.000000 0.000000 
#    y 0.000000 3.826440 0.000000 
#    z 0.000000 0.000000 4.180730 
# 
# 
# High freq. dielectric constant tensor:
#      x y z
#    x 1.716070 0.000000 0.000000 
#    y 0.000000 1.776420 0.000000 
#    z 0.000000 0.000000 1.774020 
# 
# From -- ./inp_files/31710.got.cif
#   From: 2010.03.12/outbox.cif.g09.slc.cpg/sg69_16_cif.got.tgz:31710.got - 2010.04.10 23:52:46.
