data_PCOD8285091
_publ_section_title
;
Structure prediction by ZEFSAII (Michael W. Deem and Ramdas Pophale) SiO2 
 PCOD8285091
Probable space group: F M M M
;
_chemical_formula_sum "Si O2"
_cell_formula_units_Z 128
_cell_length_a 27.688803
_cell_length_b 18.172162
_cell_length_c 13.243371
_cell_angle_alpha 90.000000
_cell_angle_beta 90.000000
_cell_angle_gamma 90.000000
_cell_volume 6663.606248
_symmetry_space_group_name_H-M "F M M M"
_symmetry_group_IT_number 69
_symmetry_cell_setting 'orthorhombic'
loop_
_space_group_symop_operation_xyz
x,y,z
-x,-y,z
x,-y,-z
-x,y,-z
-x,-y,-z
x,y,-z
-x,y,z
x,-y,z
x,1/2+y,1/2+z
-x,1/2-y,1/2+z
x,1/2-y,1/2-z
-x,1/2+y,1/2-z
-x,1/2-y,1/2-z
x,1/2+y,1/2-z
-x,1/2+y,1/2+z
x,1/2-y,1/2+z
1/2+x,y,1/2+z
1/2-x,-y,1/2+z
1/2+x,-y,1/2-z
1/2-x,y,1/2-z
1/2-x,-y,1/2-z
1/2+x,y,1/2-z
1/2-x,y,1/2+z
1/2+x,-y,1/2+z
1/2+x,1/2+y,z
1/2-x,1/2-y,z
1/2+x,1/2-y,-z
1/2-x,1/2+y,-z
1/2-x,1/2-y,-z
1/2+x,1/2+y,-z
1/2-x,1/2+y,z
1/2+x,1/2-y,z
loop_
_atom_site_type_symbol
_atom_site_label
_atom_site_fract_x
_atom_site_fract_y
_atom_site_fract_z
Si Si1 0.054304 0.000000 0.881602
Si Si2 0.195071 0.500000 0.717178
Si Si3 0.619214 0.500000 0.617776
Si Si4 0.366517 0.118672 0.380374
Si Si5 0.945688 0.134924 0.616901
Si Si6 0.897856 0.250000 0.250000
O O1 0.084882 0.927246 0.850997
O O2 0.000000 0.000000 0.832941
O O3 0.048317 0.000000 0.000000
O O4 0.250000 0.500000 0.750000
O O5 0.169267 0.500000 0.825179
O O6 0.180670 0.571733 0.651472
O O7 0.630194 0.500000 0.500000
O O8 0.589024 0.429814 0.653446
O O9 0.364134 0.135393 0.500000
O O10 0.365169 0.194225 0.316222
O O11 0.938241 0.151609 0.500000
O O12 0.933169 0.209267 0.673614
O O13 0.000000 0.109979 0.640420
#
# Coordination Sequence:
#
# PCOD8285091 Si02
#       6
#    16  16  16  32  32  16
#     4   8  16  33  56  81 114 157 201 242 286 340
#     4  11  22  43  69  90 110 143 202 256 308 359
#     4  10  20  39  61  85 116 153 199 252 295 344
#     4  10  22  40  61  88 124 158 195 248 300 351
#     4  10  21  36  56  85 122 163 202 240 287 347
#     4  12  21  36  57  86 126 166 197 230 289 362
#
# _framework density 19.208818999999998
#
# number of rings (size 3 to 8) (size 9 to 14) (size 15 to 20)
#    0.000    1.875    2.500    2.625    0.000    4.500 
#    0.000    3.125    0.000    1.500    0.000    0.000 
#    0.000    0.000    0.000    0.000    0.000    0.000 
#
# Total GULP energy -396766.289901 kJ/mol
# GULP energy per Si atom -12398.946559 kJ/mol
# Density = 1.916510 g / cm^3
# Si number density = 19.208819 Si / 1000 Ang^3
#
#
#
# Elastic Constant Matrix: (Units=GPa)
#
#
# Indices 1 2 3 4 5 6 
#
# 1 136.2286 52.3804 55.5343 0.0000 0.0000 0.0000
# 2 52.3804 131.3081 62.3842 0.0000 0.0000 0.0000
# 3 55.5343 62.3842 104.7137 0.0000 0.0000 0.0000
# 4 0.0000 0.0000 0.0000 39.3388 0.0000 0.0000
# 5 0.0000 0.0000 0.0000 0.0000 30.2373 0.0000
# 6 0.0000 0.0000 0.0000 0.0000 0.0000 9.7811
#
#
#
# Elastic Compliance Matrix: (Units=1/GPa)
#
#
# Indices 1 2 3 4 5 6 
#
# 1 0.009726 -0.001993 -0.003970 0.000000 0.000000 0.000000
# 2 -0.001993 0.011031 -0.005515 0.000000 0.000000 0.000000
# 3 -0.003970 -0.005515 0.014941 0.000000 0.000000 0.000000
# 4 0.000000 0.000000 0.000000 0.025420 0.000000 0.000000
# 5 0.000000 0.000000 0.000000 0.000000 0.033072 0.000000
# 6 0.000000 0.000000 0.000000 0.000000 0.000000 0.102238
#
#
# Mechanical properties :
#
#
# Convention : Reuss Voigt Hill
#
# Bulk Modulus (GPa) = 78.48838 79.20537 78.84688
# Shear Modulus (GPa) = 22.35836 29.33489 25.84663
#
# Velocity S-wave (km/s) = 3.41539 3.91213 3.67217
# Velocity P-wave (km/s) = 7.51681 7.85682 7.68870
#
# Compressibility (1/GPa) = 0.01274074
#
# Stress axis : x y z
#
# Youngs Moduli (GPa) = 102.82155 90.65535 66.93065
#
# Poissons Ratio (x) = 0.18071 0.26574
# Poissons Ratio (y) = 0.20496 0.36909
# Poissons Ratio (z) = 0.40824 0.49992
#
# Static dielectric constant tensor:
#      x y z
#    x 3.196110 0.000000 0.000000 
#    y 0.000000 3.627470 0.000000 
#    z 0.000000 0.000000 3.688600 
# 
# 
# High freq. dielectric constant tensor:
#      x y z
#    x 1.708910 0.000000 0.000000 
#    y 0.000000 1.745010 0.000000 
#    z 0.000000 0.000000 1.779420 
# 
# From -- ./inp_files/18663.got.cif
#   From: 2010.03.12/outbox.cif.g09.slc.cpg/sg69_10_cif.got.tgz:18663.got - 2010.04.10 23:52:46.
