data_PCOD8286462
_publ_section_title
;
Structure prediction by ZEFSAII (Michael W. Deem and Ramdas Pophale) SiO2 
 PCOD8286462
Probable space group: F D D D
;
_chemical_formula_sum "Si O2"
_cell_formula_units_Z 192
_cell_length_a 21.477869
_cell_length_b 28.906890
_cell_length_c 16.127089
_cell_angle_alpha 90.000000
_cell_angle_beta 90.000000
_cell_angle_gamma 90.000000
_cell_volume 10012.638619
_symmetry_space_group_name_H-M "F D D D"
_symmetry_group_IT_number 70
_space_group.IT_coordinate_system_code '2'
_symmetry_cell_setting 'orthorhombic'
loop_
_space_group_symop_operation_xyz
x,y,z
1/4-x,1/4-y,z
x,1/4-y,1/4-z
1/4-x,y,1/4-z
-x,-y,-z
3/4+x,3/4+y,-z
-x,3/4+y,3/4+z
3/4+x,-y,3/4+z
x,1/2+y,1/2+z
1/4-x,3/4-y,1/2+z
x,3/4-y,3/4-z
1/4-x,1/2+y,3/4-z
-x,1/2-y,1/2-z
3/4+x,1/4+y,1/2-z
-x,1/4+y,1/4+z
3/4+x,1/2-y,1/4+z
1/2+x,y,1/2+z
3/4-x,1/4-y,1/2+z
1/2+x,1/4-y,3/4-z
3/4-x,y,3/4-z
1/2-x,-y,1/2-z
1/4+x,3/4+y,1/2-z
1/2-x,3/4+y,1/4+z
1/4+x,-y,1/4+z
1/2+x,1/2+y,z
3/4-x,3/4-y,z
1/2+x,3/4-y,1/4-z
3/4-x,1/2+y,1/4-z
1/2-x,1/2-y,-z
1/4+x,1/4+y,-z
1/2-x,1/4+y,3/4+z
1/4+x,1/2-y,3/4+z
loop_
_atom_site_type_symbol
_atom_site_label
_atom_site_fract_x
_atom_site_fract_y
_atom_site_fract_z
Si Si1 0.169875 0.760890 0.050821
Si Si2 0.226645 0.077301 0.754558
Si Si3 0.941297 0.125000 0.625000
Si Si4 0.386976 0.295802 0.739854
Si Si5 0.358419 0.038507 0.119880
Si Si6 0.375000 0.375000 0.617122
Si Si7 0.781095 0.320402 0.361029
O O1 0.125000 0.774235 0.125000
O O2 0.228508 0.795192 0.060656
O O3 0.190871 0.707350 0.058585
O O4 0.136871 0.766190 0.962337
O O5 0.265869 0.114658 0.703872
O O6 0.180241 0.105405 0.811668
O O7 0.897960 0.082275 0.649468
O O8 0.387254 0.246386 0.696143
O O9 0.404413 0.334752 0.672953
O O10 0.439652 0.294582 0.810069
O O11 0.319319 0.306787 0.778697
O O12 0.288665 0.053479 0.098880
O O13 0.785554 0.375000 0.375000
#
# Coordination Sequence:
#
# PCOD8286462 Si02
#       7
#    32  32  16  32  32  16  32
#     4  10  23  40  63  91 125 169 208 254 317 372
#     4  10  24  40  60  94 123 163 212 258 308 372
#     4  10  24  43  62  89 130 164 212 258 320 374
#     4  11  23  40  65  97 123 165 216 255 315 381
#     4  11  23  42  66  92 127 169 208 263 315 376
#     4  12  22  38  62  94 124 160 212 264 305 365
#     4  11  22  41  68  93 128 168 206 265 323 377
#
# _framework density 19.175764000000001
#
# number of rings (size 3 to 8) (size 9 to 14) (size 15 to 20)
#    0.000    1.333    4.167    1.000    4.667    1.333 
#    0.000    0.000    3.667    0.000    0.000    0.000 
#    0.000    0.000    0.000    0.000    0.000    0.000 
#
# Total GULP energy -595407.551351 kJ/mol
# GULP energy per Si atom -12404.323986 kJ/mol
# Density = 1.913212 g / cm^3
# Si number density = 19.175764 Si / 1000 Ang^3
#
#
#
# Elastic Constant Matrix: (Units=GPa)
#
#
# Indices 1 2 3 4 5 6 
#
# 1 126.5007 40.8886 52.3982 0.0000 0.0000 0.0000
# 2 40.8886 112.1653 55.5398 0.0000 0.0000 0.0000
# 3 52.3982 55.5398 83.5668 0.0000 0.0000 0.0000
# 4 0.0000 0.0000 0.0000 14.7581 0.0000 0.0000
# 5 0.0000 0.0000 0.0000 0.0000 18.4055 0.0000
# 6 0.0000 0.0000 0.0000 0.0000 0.0000 29.8600
#
#
#
# Elastic Compliance Matrix: (Units=1/GPa)
#
#
# Indices 1 2 3 4 5 6 
#
# 1 0.010735 -0.000865 -0.006156 0.000000 0.000000 0.000000
# 2 -0.000865 0.013358 -0.008336 0.000000 0.000000 0.000000
# 3 -0.006156 -0.008336 0.021366 0.000000 0.000000 0.000000
# 4 0.000000 0.000000 0.000000 0.067759 0.000000 0.000000
# 5 0.000000 0.000000 0.000000 0.000000 0.054332 0.000000
# 6 0.000000 0.000000 0.000000 0.000000 0.000000 0.033490
#
#
# Mechanical properties :
#
#
# Convention : Reuss Voigt Hill
#
# Bulk Modulus (GPa) = 67.81522 68.87622 68.34572
# Shear Modulus (GPa) = 21.12660 24.16514 22.64587
#
# Velocity S-wave (km/s) = 3.32284 3.55377 3.44024
# Velocity P-wave (km/s) = 7.08262 7.26880 7.17631
#
# Compressibility (1/GPa) = 0.01474595
#
# Stress axis : x y z
#
# Youngs Moduli (GPa) = 93.15726 74.86008 46.80240
#
# Poissons Ratio (x) = 0.06475 0.28811
# Poissons Ratio (y) = 0.08058 0.39013
# Poissons Ratio (z) = 0.57347 0.62401
#
# Static dielectric constant tensor:
#      x y z
#    x 3.911120 0.000000 0.000000 
#    y 0.000000 3.619000 0.000000 
#    z 0.000000 0.000000 3.416910 
# 
# 
# High freq. dielectric constant tensor:
#      x y z
#    x 1.759100 0.000000 0.000000 
#    y 0.000000 1.755790 0.000000 
#    z 0.000000 0.000000 1.742610 
# 
# From -- ./inp_files/29102.got.cif
#   From: 2010.03.12/outbox.cif.g09.slc.cpg/sg70_15_cif.got.tgz:29102.got - 2010.04.16 13:46:32.
