data_PCOD8286535
_publ_section_title
;
Structure prediction by ZEFSAII (Michael W. Deem and Ramdas Pophale) SiO2 
 PCOD8286535
Probable space group: F D D D
;
_chemical_formula_sum "Si O2"
_cell_formula_units_Z 176
_cell_length_a 17.012919
_cell_length_b 17.145579
_cell_length_c 27.267436
_cell_angle_alpha 90.000000
_cell_angle_beta 90.000000
_cell_angle_gamma 90.000000
_cell_volume 7953.811466
_symmetry_space_group_name_H-M "F D D D"
_symmetry_group_IT_number 70
_space_group.IT_coordinate_system_code '2'
_symmetry_cell_setting 'orthorhombic'
loop_
_space_group_symop_operation_xyz
x,y,z
1/4-x,1/4-y,z
x,1/4-y,1/4-z
1/4-x,y,1/4-z
-x,-y,-z
3/4+x,3/4+y,-z
-x,3/4+y,3/4+z
3/4+x,-y,3/4+z
x,1/2+y,1/2+z
1/4-x,3/4-y,1/2+z
x,3/4-y,3/4-z
1/4-x,1/2+y,3/4-z
-x,1/2-y,1/2-z
3/4+x,1/4+y,1/2-z
-x,1/4+y,1/4+z
3/4+x,1/2-y,1/4+z
1/2+x,y,1/2+z
3/4-x,1/4-y,1/2+z
1/2+x,1/4-y,3/4-z
3/4-x,y,3/4-z
1/2-x,-y,1/2-z
1/4+x,3/4+y,1/2-z
1/2-x,3/4+y,1/4+z
1/4+x,-y,1/4+z
1/2+x,1/2+y,z
3/4-x,3/4-y,z
1/2+x,3/4-y,1/4-z
3/4-x,1/2+y,1/4-z
1/2-x,1/2-y,-z
1/4+x,1/4+y,-z
1/2-x,1/4+y,3/4+z
1/4+x,1/2-y,3/4+z
loop_
_atom_site_type_symbol
_atom_site_label
_atom_site_fract_x
_atom_site_fract_y
_atom_site_fract_z
Si Si1 0.375000 0.875000 0.790748
Si Si2 0.423599 0.950460 0.272439
Si Si3 0.725949 0.305049 0.906066
Si Si4 0.696227 0.170476 0.834955
Si Si5 0.352739 0.647278 0.430414
Si Si6 0.400314 0.221874 0.512047
O O1 0.440475 0.833724 0.824035
O O2 0.334648 0.809793 0.756691
O O3 0.375000 0.875000 0.289856
O O4 0.413581 0.964048 0.213857
O O5 0.516813 0.941659 0.284370
O O6 0.386884 0.020877 0.302745
O O7 0.686758 0.375000 0.875000
O O8 0.738965 0.231278 0.870506
O O9 0.667038 0.278425 0.947836
O O10 0.625000 0.125000 0.861816
O O11 0.757896 0.104510 0.817350
O O12 0.375000 0.627932 0.375000
O O13 0.383069 0.579908 0.467112
#
# Coordination Sequence:
#
# PCOD8286535 Si02
#       6
#    16  32  32  32  32  32
#     4  12  25  44  68 102 140 180 222 284 345 408
#     4  10  24  46  69  98 139 178 229 282 343 401
#     4  12  25  42  70 102 141 175 228 284 337 411
#     4  10  24  42  68 100 134 181 226 279 341 409
#     4  11  23  42  69  96 135 182 224 276 345 408
#     4  11  25  44  70 101 138 179 228 282 341 405
#
# _framework density 22.127756000000002
#
# number of rings (size 3 to 8) (size 9 to 14) (size 15 to 20)
#    0.000    1.091    0.000    6.273    3.818    8.364 
#    0.000    0.000    0.000    0.000    0.000    0.000 
#    0.000    0.000    0.000    0.000    0.000    0.000 
#
# Total GULP energy -545580.857249 kJ/mol
# GULP energy per Si atom -12399.564937 kJ/mol
# Density = 2.207739 g / cm^3
# Si number density = 22.127756 Si / 1000 Ang^3
#
#
#
# Elastic Constant Matrix: (Units=GPa)
#
#
# Indices 1 2 3 4 5 6 
#
# 1 114.3510 41.8732 37.9119 0.0000 0.0000 0.0000
# 2 41.8732 110.6964 36.4320 0.0000 0.0000 0.0000
# 3 37.9119 36.4320 86.3849 0.0000 0.0000 0.0000
# 4 0.0000 0.0000 0.0000 32.6134 0.0000 0.0000
# 5 0.0000 0.0000 0.0000 0.0000 13.9232 0.0000
# 6 0.0000 0.0000 0.0000 0.0000 0.0000 38.3885
#
#
#
# Elastic Compliance Matrix: (Units=1/GPa)
#
#
# Indices 1 2 3 4 5 6 
#
# 1 0.011027 -0.002994 -0.003577 0.000000 0.000000 0.000000
# 2 -0.002994 0.011303 -0.003453 0.000000 0.000000 0.000000
# 3 -0.003577 -0.003453 0.014602 0.000000 0.000000 0.000000
# 4 0.000000 0.000000 0.000000 0.030662 0.000000 0.000000
# 5 0.000000 0.000000 0.000000 0.000000 0.071823 0.000000
# 6 0.000000 0.000000 0.000000 0.000000 0.000000 0.026049
#
#
# Mechanical properties :
#
#
# Convention : Reuss Voigt Hill
#
# Bulk Modulus (GPa) = 59.22561 60.42960 59.82761
# Shear Modulus (GPa) = 26.15859 29.99937 28.07898
#
# Velocity S-wave (km/s) = 3.44199 3.68603 3.56609
# Velocity P-wave (km/s) = 6.52838 6.74421 6.63718
#
# Compressibility (1/GPa) = 0.01688459
#
# Stress axis : x y z
#
# Youngs Moduli (GPa) = 90.68452 88.47484 68.48365
#
# Poissons Ratio (x) = 0.26490 0.24495
# Poissons Ratio (y) = 0.27152 0.23646
# Poissons Ratio (z) = 0.32436 0.30548
#
# Static dielectric constant tensor:
#      x y z
#    x 4.087190 0.000000 0.000000 
#    y 0.000000 4.049050 0.000000 
#    z 0.000000 0.000000 4.074030 
# 
# 
# High freq. dielectric constant tensor:
#      x y z
#    x 1.878280 0.000000 0.000000 
#    y 0.000000 1.871560 0.000000 
#    z 0.000000 0.000000 1.871070 
# 
# From -- ./inp_files/59466.got.cif
#   From: 2010.03.12/outbox.cif.g09.slc.cpg/sg70_30_cif.got.tgz:59466.got - 2010.04.16 13:46:32.
