data_PCOD8286616
_publ_section_title
;
Structure prediction by ZEFSAII (Michael W. Deem and Ramdas Pophale) SiO2 
 PCOD8286616
Probable space group: F D D D
;
_chemical_formula_sum "Si O2"
_cell_formula_units_Z 160
_cell_length_a 21.168987
_cell_length_b 17.196682
_cell_length_c 19.829984
_cell_angle_alpha 90.000000
_cell_angle_beta 90.000000
_cell_angle_gamma 90.000000
_cell_volume 7218.834752
_symmetry_space_group_name_H-M "F D D D"
_symmetry_group_IT_number 70
_space_group.IT_coordinate_system_code '2'
_symmetry_cell_setting 'orthorhombic'
loop_
_space_group_symop_operation_xyz
x,y,z
1/4-x,1/4-y,z
x,1/4-y,1/4-z
1/4-x,y,1/4-z
-x,-y,-z
3/4+x,3/4+y,-z
-x,3/4+y,3/4+z
3/4+x,-y,3/4+z
x,1/2+y,1/2+z
1/4-x,3/4-y,1/2+z
x,3/4-y,3/4-z
1/4-x,1/2+y,3/4-z
-x,1/2-y,1/2-z
3/4+x,1/4+y,1/2-z
-x,1/4+y,1/4+z
3/4+x,1/2-y,1/4+z
1/2+x,y,1/2+z
3/4-x,1/4-y,1/2+z
1/2+x,1/4-y,3/4-z
3/4-x,y,3/4-z
1/2-x,-y,1/2-z
1/4+x,3/4+y,1/2-z
1/2-x,3/4+y,1/4+z
1/4+x,-y,1/4+z
1/2+x,1/2+y,z
3/4-x,3/4-y,z
1/2+x,3/4-y,1/4-z
3/4-x,1/2+y,1/4-z
1/2-x,1/2-y,-z
1/4+x,1/4+y,-z
1/2-x,1/4+y,3/4+z
1/4+x,1/2-y,3/4+z
loop_
_atom_site_type_symbol
_atom_site_label
_atom_site_fract_x
_atom_site_fract_y
_atom_site_fract_z
Si Si1 0.986698 0.021487 0.748228
Si Si2 0.307796 0.345638 0.450470
Si Si3 0.697881 0.805560 0.621149
Si Si4 0.004826 0.277861 0.142646
Si Si5 0.648396 0.537511 0.248302
O O1 0.003019 0.113692 0.744247
O O2 0.004179 0.982353 0.821379
O O3 0.911673 0.016156 0.736982
O O4 0.027342 0.978193 0.692034
O O5 0.306612 0.375000 0.375000
O O6 0.375000 0.375000 0.482150
O O7 0.293765 0.252920 0.443208
O O8 0.625000 0.824668 0.625000
O O9 0.733244 0.886429 0.612998
O O10 0.941804 0.278446 0.186176
O O11 0.063887 0.241835 0.182718
O O12 0.625000 0.625000 0.236633
#
# Coordination Sequence:
#
# PCOD8286616 Si02
#       5
#    32  32  32  32  32
#     4  11  22  41  68 100 134 183 229 282 347 429
#     4   9  17  36  64  95 138 174 209 273 352 411
#     4  11  20  42  68 102 140 176 222 287 347 423
#     4  11  26  44  72  99 133 183 241 284 350 422
#     4  11  24  49  69  97 139 179 235 303 350 405
#
# _framework density 22.164242000000002
#
# number of rings (size 3 to 8) (size 9 to 14) (size 15 to 20)
#    0.000    1.400    6.000    1.800    0.000    3.200 
#    0.000   12.000    0.000    0.000    0.000    0.000 
#    0.000    0.000    0.000    0.000    0.000    0.000 
#
# Total GULP energy -495584.542994 kJ/mol
# GULP energy per Si atom -12389.613575 kJ/mol
# Density = 2.211380 g / cm^3
# Si number density = 22.164242 Si / 1000 Ang^3
#
#
#
# Elastic Constant Matrix: (Units=GPa)
#
#
# Indices 1 2 3 4 5 6 
#
# 1 139.8902 59.6032 75.2079 0.0000 0.0000 0.0000
# 2 59.6032 81.0145 24.2694 0.0000 0.0000 0.0000
# 3 75.2079 24.2694 114.1553 0.0000 0.0000 0.0000
# 4 0.0000 0.0000 0.0000 19.6272 0.0000 0.0000
# 5 0.0000 0.0000 0.0000 0.0000 19.3785 0.0000
# 6 0.0000 0.0000 0.0000 0.0000 0.0000 41.4061
#
#
#
# Elastic Compliance Matrix: (Units=1/GPa)
#
#
# Indices 1 2 3 4 5 6 
#
# 1 0.015322 -0.008810 -0.008222 0.000000 0.000000 0.000000
# 2 -0.008810 0.018248 0.001924 0.000000 0.000000 0.000000
# 3 -0.008222 0.001924 0.013767 0.000000 0.000000 0.000000
# 4 0.000000 0.000000 0.000000 0.050950 0.000000 0.000000
# 5 0.000000 0.000000 0.000000 0.000000 0.051604 0.000000
# 6 0.000000 0.000000 0.000000 0.000000 0.000000 0.024151
#
#
# Mechanical properties :
#
#
# Convention : Reuss Voigt Hill
#
# Bulk Modulus (GPa) = 58.39702 72.58009 65.48855
# Shear Modulus (GPa) = 23.81359 27.81433 25.81396
#
# Velocity S-wave (km/s) = 3.28138 3.54633 3.41642
# Velocity P-wave (km/s) = 6.38445 7.04174 6.72114
#
# Compressibility (1/GPa) = 0.01712416
#
# Stress axis : x y z
#
# Youngs Moduli (GPa) = 65.26504 54.79939 72.63520
#
# Poissons Ratio (x) = 0.48277 0.59718
# Poissons Ratio (y) = 0.57497 -0.13978
# Poissons Ratio (z) = 0.53658 -0.10546
#
# Static dielectric constant tensor:
#      x y z
#    x 4.306700 0.000000 0.000000 
#    y 0.000000 4.899660 0.000000 
#    z 0.000000 0.000000 4.152990 
# 
# 
# High freq. dielectric constant tensor:
#      x y z
#    x 1.873640 0.000000 0.000000 
#    y 0.000000 1.872610 0.000000 
#    z 0.000000 0.000000 1.878890 
# 
# From -- ./inp_files/44727.got.cif
#   From: 2010.03.12/outbox.cif.g09.slc.cpg/sg70_23_cif.got.tgz:44727.got - 2010.04.16 13:46:32.
