data_PCOD8286286
_publ_section_title
;
Structure prediction by ZEFSAII (Michael W. Deem and Ramdas Pophale) SiO2 
 PCOD8286286
Probable space group: F D D D
;
_chemical_formula_sum "Si O2"
_cell_formula_units_Z 224
_cell_length_a 23.525804
_cell_length_b 20.974101
_cell_length_c 22.257660
_cell_angle_alpha 90.000000
_cell_angle_beta 90.000000
_cell_angle_gamma 90.000000
_cell_volume 10982.654803
_symmetry_space_group_name_H-M "F D D D"
_symmetry_group_IT_number 70
_space_group.IT_coordinate_system_code '2'
_symmetry_cell_setting 'orthorhombic'
loop_
_space_group_symop_operation_xyz
x,y,z
1/4-x,1/4-y,z
x,1/4-y,1/4-z
1/4-x,y,1/4-z
-x,-y,-z
3/4+x,3/4+y,-z
-x,3/4+y,3/4+z
3/4+x,-y,3/4+z
x,1/2+y,1/2+z
1/4-x,3/4-y,1/2+z
x,3/4-y,3/4-z
1/4-x,1/2+y,3/4-z
-x,1/2-y,1/2-z
3/4+x,1/4+y,1/2-z
-x,1/4+y,1/4+z
3/4+x,1/2-y,1/4+z
1/2+x,y,1/2+z
3/4-x,1/4-y,1/2+z
1/2+x,1/4-y,3/4-z
3/4-x,y,3/4-z
1/2-x,-y,1/2-z
1/4+x,3/4+y,1/2-z
1/2-x,3/4+y,1/4+z
1/4+x,-y,1/4+z
1/2+x,1/2+y,z
3/4-x,3/4-y,z
1/2+x,3/4-y,1/4-z
3/4-x,1/2+y,1/4-z
1/2-x,1/2-y,-z
1/4+x,1/4+y,-z
1/2-x,1/4+y,3/4+z
1/4+x,1/2-y,3/4+z
loop_
_atom_site_type_symbol
_atom_site_label
_atom_site_fract_x
_atom_site_fract_y
_atom_site_fract_z
Si Si1 0.341476 0.316275 0.250704
Si Si2 0.901679 0.657314 0.967285
Si Si3 0.286769 0.602634 0.846249
Si Si4 0.094679 0.445540 0.848360
Si Si5 0.724696 0.501894 0.605538
Si Si6 0.917328 0.431595 0.618177
Si Si7 0.687990 0.983208 0.229324
O O1 0.375000 0.375000 0.281173
O O2 0.295571 0.288275 0.296170
O O3 0.313560 0.335556 0.187051
O O4 0.389478 0.265555 0.231180
O O5 0.936709 0.676734 0.907849
O O6 0.833843 0.657225 0.955209
O O7 0.926472 0.590155 0.986888
O O8 0.911668 0.700294 0.025808
O O9 0.270070 0.676714 0.846527
O O10 0.226972 0.567911 0.831318
O O11 0.110401 0.375000 0.875000
O O12 0.142516 0.497369 0.864272
O O13 0.034822 0.468286 0.876173
O O14 0.680483 0.509083 0.660736
O O15 0.875000 0.375000 0.595138
O O16 0.750000 0.000000 0.250000
#
# Coordination Sequence:
#
# PCOD8286286 Si02
#       7
#    32  32  32  32  32  32  32
#     4  11  24  35  55  89 126 165 206 244 306 372
#     4  10  22  40  62  88 117 167 208 261 309 373
#     4  10  21  42  66  84 119 165 222 252 310 387
#     4  12  25  39  61  95 127 158 210 268 330 370
#     4  11  22  37  59  85 127 172 205 246 299 388
#     4  11  23  42  62  90 123 167 209 262 321 381
#     4  11  22  36  55  85 126 165 200 246 304 375
#
# _framework density 20.395797000000002
#
# number of rings (size 3 to 8) (size 9 to 14) (size 15 to 20)
#    0.000    1.143    2.857    3.857   10.000    1.143 
#    0.000    0.000    0.000    0.000    0.000    2.000 
#    0.000    0.000    0.000    0.000    0.000    0.000 
#
# Total GULP energy -693966.192307 kJ/mol
# GULP energy per Si atom -12392.253434 kJ/mol
# Density = 2.034938 g / cm^3
# Si number density = 20.395797 Si / 1000 Ang^3
#
#
#
# Elastic Constant Matrix: (Units=GPa)
#
#
# Indices 1 2 3 4 5 6 
#
# 1 124.7034 30.5620 6.0699 0.0000 0.0000 0.0000
# 2 30.5620 78.2269 16.3178 0.0000 0.0000 0.0000
# 3 6.0699 16.3178 58.6842 0.0000 0.0000 0.0000
# 4 0.0000 0.0000 0.0000 25.6631 0.0000 0.0000
# 5 0.0000 0.0000 0.0000 0.0000 30.2740 0.0000
# 6 0.0000 0.0000 0.0000 0.0000 0.0000 34.2909
#
#
#
# Elastic Compliance Matrix: (Units=1/GPa)
#
#
# Indices 1 2 3 4 5 6 
#
# 1 0.008868 -0.003475 0.000049 0.000000 0.000000 0.000000
# 2 -0.003475 0.014932 -0.003793 0.000000 0.000000 0.000000
# 3 0.000049 -0.003793 0.018090 0.000000 0.000000 0.000000
# 4 0.000000 0.000000 0.000000 0.038966 0.000000 0.000000
# 5 0.000000 0.000000 0.000000 0.000000 0.033032 0.000000
# 6 0.000000 0.000000 0.000000 0.000000 0.000000 0.029162
#
#
# Mechanical properties :
#
#
# Convention : Reuss Voigt Hill
#
# Bulk Modulus (GPa) = 36.42577 40.83488 38.63033
# Shear Modulus (GPa) = 30.00504 31.95659 30.98081
#
# Velocity S-wave (km/s) = 3.83970 3.96260 3.90164
# Velocity P-wave (km/s) = 6.12829 6.40320 6.26726
#
# Compressibility (1/GPa) = 0.02745309
#
# Stress axis : x y z
#
# Youngs Moduli (GPa) = 112.76164 66.97011 55.27953
#
# Poissons Ratio (x) = 0.23271 -0.00271
# Poissons Ratio (y) = 0.39184 0.20965
# Poissons Ratio (z) = -0.00552 0.25399
#
# Static dielectric constant tensor:
#      x y z
#    x 3.784960 0.000000 0.000000 
#    y 0.000000 3.532080 0.000000 
#    z 0.000000 0.000000 3.714570 
# 
# 
# High freq. dielectric constant tensor:
#      x y z
#    x 1.805140 0.000000 0.000000 
#    y 0.000000 1.779110 0.000000 
#    z 0.000000 0.000000 1.790060 
# 
# From -- ./inp_files/53787.got.cif
#   From: 2010.03.12/outbox.cif.g09.slc.cpg/sg70_27_cif.got.tgz:53787.got - 2010.04.16 13:46:32.
