data_PCOD8286930
_publ_section_title
;
Structure prediction by ZEFSAII (Michael W. Deem and Ramdas Pophale) SiO2 
 PCOD8286930
Probable space group: I M M M
;
_chemical_formula_sum "Si O2"
_cell_formula_units_Z 120
_cell_length_a 20.708145
_cell_length_b 27.623929
_cell_length_c 15.580145
_cell_angle_alpha 90.000000
_cell_angle_beta 90.000000
_cell_angle_gamma 90.000000
_cell_volume 8912.471244
_symmetry_space_group_name_H-M "I M M M"
_symmetry_group_IT_number 71
_symmetry_cell_setting 'orthorhombic'
loop_
_space_group_symop_operation_xyz
x,y,z
-x,-y,z
x,-y,-z
-x,y,-z
-x,-y,-z
x,y,-z
-x,y,z
x,-y,z
1/2+x,1/2+y,1/2+z
1/2-x,1/2-y,1/2+z
1/2+x,1/2-y,1/2-z
1/2-x,1/2+y,1/2-z
1/2-x,1/2-y,1/2-z
1/2+x,1/2+y,1/2-z
1/2-x,1/2+y,1/2+z
1/2+x,1/2-y,1/2+z
loop_
_atom_site_type_symbol
_atom_site_label
_atom_site_fract_x
_atom_site_fract_y
_atom_site_fract_z
Si Si1 0.853266 0.766924 0.404765
Si Si2 0.661638 0.135305 0.750152
Si Si3 0.147537 0.232657 0.904605
Si Si4 0.232934 0.671867 0.595283
Si Si5 0.074838 0.269288 0.249552
Si Si6 0.733524 0.827882 0.404724
Si Si7 0.924248 0.552459 0.000000
Si Si8 0.425330 0.942971 0.686170
O O1 0.884400 0.771205 0.500000
O O2 0.809249 0.719836 0.399723
O O3 0.909090 0.762808 0.333636
O O4 0.808028 0.813493 0.386141
O O5 0.706235 0.134001 0.834960
O O6 0.613944 0.180861 0.749053
O O7 0.708840 0.135122 0.667511
O O8 0.619328 0.086324 0.752077
O O9 0.192869 0.186249 0.884271
O O10 0.091368 0.236916 0.834052
O O11 0.191403 0.279826 0.900530
O O12 0.116915 0.227554 0.000000
O O13 0.227886 0.648735 0.500000
O O14 0.000000 0.282434 0.248866
O O15 0.727458 0.851467 0.500000
O O16 0.907487 0.578550 0.909663
O O17 0.889892 0.500000 0.000000
O O18 0.000000 0.543201 0.000000
O O19 0.500000 0.933088 0.708273
O O20 0.410315 0.000000 0.691934
#
# Coordination Sequence:
#
# PCOD8286930 Si02
#       8
#    16  16  16  16  16  16   8  16
#     4   8  14  25  37  48  67  92 115 143 178 214
#     4  10  17  24  38  54  70  88 117 161 193 209
#     4   8  14  25  37  48  68  93 114 139 177 220
#     4   8  14  25  40  54  64  83 116 151 184 214
#     4  10  18  24  32  50  73  95 122 151 179 209
#     4   8  14  23  36  54  70  85 110 144 183 219
#     4   7  12  24  38  48  60  86 120 142 161 205
#     4   9  17  28  39  50  69  98 125 147 179 223
#
# _framework density 13.464278999999999
#
# number of rings (size 3 to 8) (size 9 to 14) (size 15 to 20)
#    0.000    3.400    0.000    3.600    0.933    3.733 
#    0.000    0.000    0.000    1.600    0.000    0.933 
#    0.000    0.000    0.000    0.000    0.000   10.667 
#
# Total GULP energy -743315.975342 kJ/mol
# GULP energy per Si atom -12388.599589 kJ/mol
# Density = 1.343363 g / cm^3
# Si number density = 13.464279 Si / 1000 Ang^3
#
#
#
# Elastic Constant Matrix: (Units=GPa)
#
#
# Indices 1 2 3 4 5 6 
#
# 1 36.2022 15.9556 31.4553 0.0000 0.0000 0.0000
# 2 15.9556 33.6466 26.0584 0.0000 0.0000 0.0000
# 3 31.4553 26.0584 92.5802 0.0000 0.0000 0.0000
# 4 0.0000 0.0000 0.0000 8.2093 0.0000 0.0000
# 5 0.0000 0.0000 0.0000 0.0000 15.8984 0.0000
# 6 0.0000 0.0000 0.0000 0.0000 0.0000 18.5949
#
#
#
# Elastic Compliance Matrix: (Units=1/GPa)
#
#
# Indices 1 2 3 4 5 6 
#
# 1 0.042377 -0.011438 -0.011179 0.000000 0.000000 0.000000
# 2 -0.011438 0.041093 -0.007680 0.000000 0.000000 0.000000
# 3 -0.011179 -0.007680 0.016761 0.000000 0.000000 0.000000
# 4 0.000000 0.000000 0.000000 0.121813 0.000000 0.000000
# 5 0.000000 0.000000 0.000000 0.000000 0.062899 0.000000
# 6 0.000000 0.000000 0.000000 0.000000 0.000000 0.053778
#
#
# Mechanical properties :
#
#
# Convention : Reuss Voigt Hill
#
# Bulk Modulus (GPa) = 25.22875 34.37415 29.80145
# Shear Modulus (GPa) = 12.12043 14.47117 13.29580
#
# Velocity S-wave (km/s) = 3.00357 3.28194 3.14584
# Velocity P-wave (km/s) = 5.55039 6.32035 5.94784
#
# Compressibility (1/GPa) = 0.03963731
#
# Stress axis : x y z
#
# Youngs Moduli (GPa) = 23.59795 24.33518 59.66155
#
# Poissons Ratio (x) = 0.27834 0.66693
# Poissons Ratio (y) = 0.26991 0.45821
# Poissons Ratio (z) = 0.26379 0.18690
#
# Static dielectric constant tensor:
#      x y z
#    x 2.528190 0.000000 0.000000 
#    y 0.000000 2.249260 0.000000 
#    z 0.000000 0.000000 3.059070 
# 
# 
# High freq. dielectric constant tensor:
#      x y z
#    x 1.487800 0.000000 0.000000 
#    y 0.000000 1.451980 0.000000 
#    z 0.000000 0.000000 1.526610 
# 
# From -- ./inp_files/38596.got.cif
#   From: 2010.06.25/outbox.cif.g09.slc.cpg/sg71_20_cif.got.tgz:38596.got - 2010.06.28 04:59:45.
