data_PCOD8286210
_publ_section_title
;
Structure prediction by ZEFSAII (Michael W. Deem and Ramdas Pophale) SiO2 
 PCOD8286210
Probable space group: F D D D
;
_chemical_formula_sum "Si O2"
_cell_formula_units_Z 208
_cell_length_a 29.578736
_cell_length_b 18.099677
_cell_length_c 17.927553
_cell_angle_alpha 90.000000
_cell_angle_beta 90.000000
_cell_angle_gamma 90.000000
_cell_volume 9597.794589
_symmetry_space_group_name_H-M "F D D D"
_symmetry_group_IT_number 70
_space_group.IT_coordinate_system_code '2'
_symmetry_cell_setting 'orthorhombic'
loop_
_space_group_symop_operation_xyz
x,y,z
1/4-x,1/4-y,z
x,1/4-y,1/4-z
1/4-x,y,1/4-z
-x,-y,-z
3/4+x,3/4+y,-z
-x,3/4+y,3/4+z
3/4+x,-y,3/4+z
x,1/2+y,1/2+z
1/4-x,3/4-y,1/2+z
x,3/4-y,3/4-z
1/4-x,1/2+y,3/4-z
-x,1/2-y,1/2-z
3/4+x,1/4+y,1/2-z
-x,1/4+y,1/4+z
3/4+x,1/2-y,1/4+z
1/2+x,y,1/2+z
3/4-x,1/4-y,1/2+z
1/2+x,1/4-y,3/4-z
3/4-x,y,3/4-z
1/2-x,-y,1/2-z
1/4+x,3/4+y,1/2-z
1/2-x,3/4+y,1/4+z
1/4+x,-y,1/4+z
1/2+x,1/2+y,z
3/4-x,3/4-y,z
1/2+x,3/4-y,1/4-z
3/4-x,1/2+y,1/4-z
1/2-x,1/2-y,-z
1/4+x,1/4+y,-z
1/2-x,1/4+y,3/4+z
1/4+x,1/2-y,3/4+z
loop_
_atom_site_type_symbol
_atom_site_label
_atom_site_fract_x
_atom_site_fract_y
_atom_site_fract_z
Si Si1 0.793858 0.268584 0.939092
Si Si2 0.176939 0.763900 0.781271
Si Si3 0.778126 0.125000 0.125000
Si Si4 0.768151 0.227983 0.366671
Si Si5 0.339027 0.583136 0.763189
Si Si6 0.031872 0.083529 0.413083
Si Si7 0.714738 0.875000 0.875000
Si Si8 0.125000 0.303397 0.625000
O O1 0.753714 0.309224 0.897501
O O2 0.768093 0.190039 0.944921
O O3 0.834875 0.254834 0.884244
O O4 0.811924 0.309761 0.014322
O O5 0.189552 0.845593 0.809886
O O6 0.202597 0.749801 0.704680
O O7 0.122432 0.767224 0.766553
O O8 0.193099 0.701253 0.840655
O O9 0.800839 0.199907 0.432407
O O10 0.726825 0.170285 0.351297
O O11 0.744734 0.303297 0.390824
O O12 0.316515 0.630635 0.697630
O O13 0.369672 0.644057 0.804046
#
# Coordination Sequence:
#
# PCOD8286210 Si02
#       8
#    32  32  16  32  32  32  16  16
#     4  10  21  37  63 104 140 179 215 272 340 420
#     4  11  22  39  72 100 133 176 230 279 344 410
#     4  10  21  37  64 104 143 181 220 268 345 435
#     4  12  23  50  67  99 131 185 228 282 345 406
#     4  12  25  46  68 101 133 179 226 288 340 397
#     4  10  21  39  69 100 136 176 226 273 338 417
#     4  12  31  44  73  94 135 179 236 287 336 415
#     4  12  24  39  68 101 146 176 220 278 346 409
#
# _framework density 21.671645000000002
#
# number of rings (size 3 to 8) (size 9 to 14) (size 15 to 20)
#    0.000    0.923    4.615    1.846    8.615    0.308 
#    0.000    3.846    0.000    0.000    0.000    0.000 
#    0.000    0.000    0.000    0.000    0.000    0.000 
#
# Total GULP energy -644182.978191 kJ/mol
# GULP energy per Si atom -12388.134196 kJ/mol
# Density = 2.162232 g / cm^3
# Si number density = 21.671645 Si / 1000 Ang^3
#
#
#
# Elastic Constant Matrix: (Units=GPa)
#
#
# Indices 1 2 3 4 5 6 
#
# 1 72.1783 26.3020 26.0724 0.0000 0.0000 0.0000
# 2 26.3020 88.2381 18.7246 0.0000 0.0000 0.0000
# 3 26.0724 18.7246 113.9941 0.0000 0.0000 0.0000
# 4 0.0000 0.0000 0.0000 23.3765 0.0000 0.0000
# 5 0.0000 0.0000 0.0000 0.0000 41.3231 0.0000
# 6 0.0000 0.0000 0.0000 0.0000 0.0000 34.5532
#
#
#
# Elastic Compliance Matrix: (Units=1/GPa)
#
#
# Indices 1 2 3 4 5 6 
#
# 1 0.016523 -0.004272 -0.003077 0.000000 0.000000 0.000000
# 2 -0.004272 0.012847 -0.001133 0.000000 0.000000 0.000000
# 3 -0.003077 -0.001133 0.009662 0.000000 0.000000 0.000000
# 4 0.000000 0.000000 0.000000 0.042778 0.000000 0.000000
# 5 0.000000 0.000000 0.000000 0.000000 0.024200 0.000000
# 6 0.000000 0.000000 0.000000 0.000000 0.000000 0.028941
#
#
# Mechanical properties :
#
#
# Convention : Reuss Voigt Hill
#
# Bulk Modulus (GPa) = 45.31656 46.28985 45.80321
# Shear Modulus (GPa) = 31.39297 33.40468 32.39882
#
# Velocity S-wave (km/s) = 3.81014 3.93033 3.87070
# Velocity P-wave (km/s) = 6.34919 6.48094 6.41540
#
# Compressibility (1/GPa) = 0.02206699
#
# Stress axis : x y z
#
# Youngs Moduli (GPa) = 60.52186 77.83997 103.49449
#
# Poissons Ratio (x) = 0.33254 0.31849
# Poissons Ratio (y) = 0.25856 0.11727
# Poissons Ratio (z) = 0.18625 0.08820
#
# Static dielectric constant tensor:
#      x y z
#    x 3.824060 0.000000 0.000000 
#    y 0.000000 2.989460 0.000000 
#    z 0.000000 0.000000 4.107920 
# 
# 
# High freq. dielectric constant tensor:
#      x y z
#    x 1.845000 0.000000 0.000000 
#    y 0.000000 1.838360 0.000000 
#    z 0.000000 0.000000 1.868600 
# 
# From -- ./inp_files/38778.got.cif
#   From: 2010.03.12/outbox.cif.g09.slc.cpg/sg70_20_cif.got.tgz:38778.got - 2010.04.16 13:46:32.
