data_PCOD8286786
_publ_section_title
;
Structure prediction by ZEFSAII (Michael W. Deem and Ramdas Pophale) SiO2 
 PCOD8286786
Probable space group: F D D D
;
_chemical_formula_sum "Si O2"
_cell_formula_units_Z 112
_cell_length_a 10.479511
_cell_length_b 13.400161
_cell_length_c 34.518859
_cell_angle_alpha 90.000000
_cell_angle_beta 90.000000
_cell_angle_gamma 90.000000
_cell_volume 4847.384459
_symmetry_space_group_name_H-M "F D D D"
_symmetry_group_IT_number 70
_space_group.IT_coordinate_system_code '2'
_symmetry_cell_setting 'orthorhombic'
loop_
_space_group_symop_operation_xyz
x,y,z
1/4-x,1/4-y,z
x,1/4-y,1/4-z
1/4-x,y,1/4-z
-x,-y,-z
3/4+x,3/4+y,-z
-x,3/4+y,3/4+z
3/4+x,-y,3/4+z
x,1/2+y,1/2+z
1/4-x,3/4-y,1/2+z
x,3/4-y,3/4-z
1/4-x,1/2+y,3/4-z
-x,1/2-y,1/2-z
3/4+x,1/4+y,1/2-z
-x,1/4+y,1/4+z
3/4+x,1/2-y,1/4+z
1/2+x,y,1/2+z
3/4-x,1/4-y,1/2+z
1/2+x,1/4-y,3/4-z
3/4-x,y,3/4-z
1/2-x,-y,1/2-z
1/4+x,3/4+y,1/2-z
1/2-x,3/4+y,1/4+z
1/4+x,-y,1/4+z
1/2+x,1/2+y,z
3/4-x,3/4-y,z
1/2+x,3/4-y,1/4-z
3/4-x,1/2+y,1/4-z
1/2-x,1/2-y,-z
1/4+x,1/4+y,-z
1/2-x,1/4+y,3/4+z
1/4+x,1/2-y,3/4+z
loop_
_atom_site_type_symbol
_atom_site_label
_atom_site_fract_x
_atom_site_fract_y
_atom_site_fract_z
Si Si1 0.335819 0.079648 0.772217
Si Si2 0.237405 0.762146 0.386100
Si Si3 0.625000 0.625000 0.830376
Si Si4 0.145823 0.234557 0.282144
O O1 0.252861 0.128490 0.805610
O O2 0.452136 0.016242 0.790805
O O3 0.386485 0.172658 0.745979
O O4 0.250000 0.000000 0.750000
O O5 0.247816 0.875000 0.375000
O O6 0.375000 0.712089 0.375000
O O7 0.126727 0.720388 0.358337
O O8 0.195289 0.743277 0.430342
O O9 0.125000 0.125000 0.262740
#
# Coordination Sequence:
#
# PCOD8286786 Si02
#       4
#    32  32  16  32
#     4  12  25  46  74 108 150 193 249 309 378 452
#     4  11  26  47  74 103 146 194 248 309 375 445
#     4  12  24  46  72 106 147 190 250 305 370 450
#     4  12  25  47  72 110 143 197 248 312 377 451
#
# _framework density 23.105243000000002
#
# number of rings (size 3 to 8) (size 9 to 14) (size 15 to 20)
#    0.000    0.286    4.286    4.286    0.000    0.000 
#    0.000    1.429    0.000    0.000    0.000    0.000 
#    0.000    0.000    0.000    0.000    0.000    0.000 
#
# Total GULP energy -346970.058698 kJ/mol
# GULP energy per Si atom -12391.787811 kJ/mol
# Density = 2.305265 g / cm^3
# Si number density = 23.105243 Si / 1000 Ang^3
#
#
#
# Elastic Constant Matrix: (Units=GPa)
#
#
# Indices 1 2 3 4 5 6 
#
# 1 141.7495 21.8319 60.3396 0.0000 0.0000 0.0000
# 2 21.8319 120.6991 47.0682 0.0000 0.0000 0.0000
# 3 60.3396 47.0682 140.8265 0.0000 0.0000 0.0000
# 4 0.0000 0.0000 0.0000 43.2479 0.0000 0.0000
# 5 0.0000 0.0000 0.0000 0.0000 60.8675 0.0000
# 6 0.0000 0.0000 0.0000 0.0000 0.0000 46.8923
#
#
#
# Elastic Compliance Matrix: (Units=1/GPa)
#
#
# Indices 1 2 3 4 5 6 
#
# 1 0.008630 -0.000137 -0.003652 0.000000 0.000000 0.000000
# 2 -0.000137 0.009529 -0.003126 0.000000 0.000000 0.000000
# 3 -0.003652 -0.003126 0.009711 0.000000 0.000000 0.000000
# 4 0.000000 0.000000 0.000000 0.023123 0.000000 0.000000
# 5 0.000000 0.000000 0.000000 0.000000 0.016429 0.000000
# 6 0.000000 0.000000 0.000000 0.000000 0.000000 0.021325
#
#
# Mechanical properties :
#
#
# Convention : Reuss Voigt Hill
#
# Bulk Modulus (GPa) = 71.22709 73.52826 72.37768
# Shear Modulus (GPa) = 46.61692 48.47057 47.54374
#
# Velocity S-wave (km/s) = 4.49663 4.58516 4.54111
# Velocity P-wave (km/s) = 7.60617 7.74105 7.67391
#
# Compressibility (1/GPa) = 0.01403960
#
# Stress axis : x y z
#
# Youngs Moduli (GPa) = 115.86955 104.94365 102.98024
#
# Poissons Ratio (x) = 0.01436 0.37609
# Poissons Ratio (y) = 0.01586 0.32194
# Poissons Ratio (z) = 0.42317 0.32807
#
# Static dielectric constant tensor:
#      x y z
#    x 5.761090 0.000000 0.000000 
#    y 0.000000 4.323710 0.000000 
#    z 0.000000 0.000000 4.187000 
# 
# 
# High freq. dielectric constant tensor:
#      x y z
#    x 1.940670 0.000000 0.000000 
#    y 0.000000 1.921740 0.000000 
#    z 0.000000 0.000000 1.902560 
# 
# From -- ./inp_files/15003.got.cif
#   From: 2010.03.12/outbox.cif.g09.slc.cpg/sg70_8_cif.got.tgz:15003.got - 2010.04.16 13:46:32.
