data_PCOD8286818
_publ_section_title
;
Structure prediction by ZEFSAII (Michael W. Deem and Ramdas Pophale) SiO2 
 PCOD8286818
Probable space group: F D D D
;
_chemical_formula_sum "Si O2"
_cell_formula_units_Z 112
_cell_length_a 10.186748
_cell_length_b 16.715990
_cell_length_c 26.331755
_cell_angle_alpha 90.000000
_cell_angle_beta 90.000000
_cell_angle_gamma 90.000000
_cell_volume 4483.812785
_symmetry_space_group_name_H-M "F D D D"
_symmetry_group_IT_number 70
_space_group.IT_coordinate_system_code '2'
_symmetry_cell_setting 'orthorhombic'
loop_
_space_group_symop_operation_xyz
x,y,z
1/4-x,1/4-y,z
x,1/4-y,1/4-z
1/4-x,y,1/4-z
-x,-y,-z
3/4+x,3/4+y,-z
-x,3/4+y,3/4+z
3/4+x,-y,3/4+z
x,1/2+y,1/2+z
1/4-x,3/4-y,1/2+z
x,3/4-y,3/4-z
1/4-x,1/2+y,3/4-z
-x,1/2-y,1/2-z
3/4+x,1/4+y,1/2-z
-x,1/4+y,1/4+z
3/4+x,1/2-y,1/4+z
1/2+x,y,1/2+z
3/4-x,1/4-y,1/2+z
1/2+x,1/4-y,3/4-z
3/4-x,y,3/4-z
1/2-x,-y,1/2-z
1/4+x,3/4+y,1/2-z
1/2-x,3/4+y,1/4+z
1/4+x,-y,1/4+z
1/2+x,1/2+y,z
3/4-x,3/4-y,z
1/2+x,3/4-y,1/4-z
3/4-x,1/2+y,1/4-z
1/2-x,1/2-y,-z
1/4+x,1/4+y,-z
1/2-x,1/4+y,3/4+z
1/4+x,1/2-y,3/4+z
loop_
_atom_site_type_symbol
_atom_site_label
_atom_site_fract_x
_atom_site_fract_y
_atom_site_fract_z
Si Si1 0.539125 0.789051 0.959594
Si Si2 0.875000 0.375000 0.875000
Si Si3 0.625000 0.625000 0.125000
Si Si4 0.028980 0.556831 0.877314
Si Si5 0.922150 0.052113 0.198434
O O1 0.450571 0.815625 0.912050
O O2 0.596407 0.712595 0.928822
O O3 0.636856 0.861590 0.973839
O O4 0.462012 0.761959 0.009162
O O5 0.540301 0.565503 0.159451
O O6 0.125000 0.625000 0.899660
O O7 0.046971 0.482908 0.918054
O O8 0.875000 0.583370 0.875000
#
# Coordination Sequence:
#
# PCOD8286818 Si02
#       5
#    32   8   8  32  32
#     4  12  26  50  79 119 160 221 269 353 415 510
#     4  12  22  48  78 104 168 194 278 324 414 492
#     4  12  26  56  80 118 164 218 268 356 412 512
#     4  12  28  50  77 120 167 211 278 346 412 510
#     4  12  29  49  85 117 166 218 282 345 432 499
#
# _framework density 24.978740999999999
#
# number of rings (size 3 to 8) (size 9 to 14) (size 15 to 20)
#    0.000    0.000    7.143    0.000   10.000    3.429 
#    0.000    0.000    0.000    0.000    0.000    0.000 
#    0.000    0.000    0.000    0.000    0.000    0.000 
#
# Total GULP energy -346877.552991 kJ/mol
# GULP energy per Si atom -12388.484035 kJ/mol
# Density = 2.492189 g / cm^3
# Si number density = 24.978741 Si / 1000 Ang^3
#
#
#
# Elastic Constant Matrix: (Units=GPa)
#
#
# Indices 1 2 3 4 5 6 
#
# 1 135.9284 64.7789 61.4533 0.0000 0.0000 0.0000
# 2 64.7789 116.5531 53.5802 0.0000 0.0000 0.0000
# 3 61.4533 53.5802 171.4636 0.0000 0.0000 0.0000
# 4 0.0000 0.0000 0.0000 50.9147 0.0000 0.0000
# 5 0.0000 0.0000 0.0000 0.0000 14.0731 0.0000
# 6 0.0000 0.0000 0.0000 0.0000 0.0000 58.2215
#
#
#
# Elastic Compliance Matrix: (Units=1/GPa)
#
#
# Indices 1 2 3 4 5 6 
#
# 1 0.010742 -0.004905 -0.002317 0.000000 0.000000 0.000000
# 2 -0.004905 0.012259 -0.002073 0.000000 0.000000 0.000000
# 3 -0.002317 -0.002073 0.007310 0.000000 0.000000 0.000000
# 4 0.000000 0.000000 0.000000 0.019641 0.000000 0.000000
# 5 0.000000 0.000000 0.000000 0.000000 0.071057 0.000000
# 6 0.000000 0.000000 0.000000 0.000000 0.000000 0.017176
#
#
# Mechanical properties :
#
#
# Convention : Reuss Voigt Hill
#
# Bulk Modulus (GPa) = 85.31573 87.06329 86.18951
# Shear Modulus (GPa) = 31.11736 40.91737 36.01736
#
# Velocity S-wave (km/s) = 3.53335 4.05172 3.80138
# Velocity P-wave (km/s) = 7.13271 7.53785 7.33808
#
# Compressibility (1/GPa) = 0.01172117
#
# Stress axis : x y z
#
# Youngs Moduli (GPa) = 93.09245 81.57406 136.79256
#
# Poissons Ratio (x) = 0.40012 0.31698
# Poissons Ratio (y) = 0.45662 0.28353
# Poissons Ratio (z) = 0.21572 0.16908
#
# Static dielectric constant tensor:
#      x y z
#    x 4.306560 0.000000 0.000000 
#    y 0.000000 5.523150 0.000000 
#    z 0.000000 0.000000 4.449540 
# 
# 
# High freq. dielectric constant tensor:
#      x y z
#    x 1.980360 0.000000 0.000000 
#    y 0.000000 2.018980 0.000000 
#    z 0.000000 0.000000 2.004150 
# 
# From -- ./inp_files/64500.got.cif
#   From: 2010.03.12/outbox.cif.g09.slc.cpg/sg70_33_cif.got.tgz:64500.got - 2010.04.16 13:46:32.
