data_PCOD8286960
_publ_section_title
;
Structure prediction by ZEFSAII (Michael W. Deem and Ramdas Pophale) SiO2 
 PCOD8286960
Probable space group: I M M M
;
_chemical_formula_sum "Si O2"
_cell_formula_units_Z 96
_cell_length_a 8.987691
_cell_length_b 28.164293
_cell_length_c 28.772513
_cell_angle_alpha 90.000000
_cell_angle_beta 90.000000
_cell_angle_gamma 90.000000
_cell_volume 7283.242688
_symmetry_space_group_name_H-M "I M M M"
_symmetry_group_IT_number 71
_symmetry_cell_setting 'orthorhombic'
loop_
_space_group_symop_operation_xyz
x,y,z
-x,-y,z
x,-y,-z
-x,y,-z
-x,-y,-z
x,y,-z
-x,y,z
x,-y,z
1/2+x,1/2+y,1/2+z
1/2-x,1/2-y,1/2+z
1/2+x,1/2-y,1/2-z
1/2-x,1/2+y,1/2-z
1/2-x,1/2-y,1/2-z
1/2+x,1/2+y,1/2-z
1/2-x,1/2+y,1/2+z
1/2+x,1/2-y,1/2+z
loop_
_atom_site_type_symbol
_atom_site_label
_atom_site_fract_x
_atom_site_fract_y
_atom_site_fract_z
Si Si1 0.334487 0.738895 0.179421
Si Si2 0.324568 0.904638 0.448604
Si Si3 0.177071 0.500000 0.097571
Si Si4 0.322892 0.000000 0.295841
Si Si5 0.824842 0.655011 0.862285
Si Si6 0.335260 0.316787 0.275775
Si Si7 0.822971 0.903826 0.281550
O O1 0.500000 0.742801 0.158663
O O2 0.233094 0.708745 0.143977
O O3 0.335852 0.712897 0.228482
O O4 0.271429 0.792244 0.186254
O O5 0.257485 0.894874 0.500000
O O6 0.500000 0.911015 0.452047
O O7 0.286109 0.860703 0.414848
O O8 0.257596 0.953578 0.428055
O O9 0.230270 0.500000 0.150784
O O10 0.000000 0.500000 0.096727
O O11 0.253105 0.954078 0.270866
O O12 0.500000 0.000000 0.290189
O O13 0.744364 0.618146 0.828369
O O14 0.000000 0.652810 0.851843
O O15 0.500000 0.317351 0.297438
O O16 0.283641 0.370052 0.262593
O O17 0.000000 0.908383 0.287798
#
# Coordination Sequence:
#
# PCOD8286960 Si02
#       7
#    16  16   8   8  16  16  16
#     4   9  16  25  38  55  73  91 111 137 176 218
#     4   9  16  25  38  55  72  90 118 158 195 226
#     4   9  15  25  38  54  68  84 116 156 194 225
#     4  11  19  28  41  57  72  94 126 153 184 224
#     4  10  17  26  40  56  72  91 117 148 183 225
#     4   8  15  26  38  53  71  91 114 139 171 212
#     4  10  19  29  40  54  73  95 117 146 184 219
#
# _framework density 13.180942
#
# number of rings (size 3 to 8) (size 9 to 14) (size 15 to 20)
#    0.000    2.667    1.667    3.000    0.000    5.667 
#    0.000    0.000    0.000    2.000    0.000    1.167 
#    0.000    0.000    0.000    0.000    0.000    0.000 
#
# Total GULP energy -594941.872509 kJ/mol
# GULP energy per Si atom -12394.622344 kJ/mol
# Density = 1.315094 g / cm^3
# Si number density = 13.180942 Si / 1000 Ang^3
#
#
#
# Elastic Constant Matrix: (Units=GPa)
#
#
# Indices 1 2 3 4 5 6 
#
# 1 66.8767 45.2632 23.0156 0.0000 0.0000 0.0000
# 2 45.2632 105.2090 46.5718 0.0000 0.0000 0.0000
# 3 23.0156 46.5718 38.8698 0.0000 0.0000 0.0000
# 4 0.0000 0.0000 0.0000 15.8603 0.0000 0.0000
# 5 0.0000 0.0000 0.0000 0.0000 8.2927 0.0000
# 6 0.0000 0.0000 0.0000 0.0000 0.0000 21.4790
#
#
#
# Elastic Compliance Matrix: (Units=1/GPa)
#
#
# Indices 1 2 3 4 5 6 
#
# 1 0.021314 -0.007630 -0.003479 0.000000 0.000000 0.000000
# 2 -0.007630 0.022970 -0.023004 0.000000 0.000000 0.000000
# 3 -0.003479 -0.023004 0.055349 0.000000 0.000000 0.000000
# 4 0.000000 0.000000 0.000000 0.063050 0.000000 0.000000
# 5 0.000000 0.000000 0.000000 0.000000 0.120588 0.000000
# 6 0.000000 0.000000 0.000000 0.000000 0.000000 0.046557
#
#
# Mechanical properties :
#
#
# Convention : Reuss Voigt Hill
#
# Bulk Modulus (GPa) = 31.83899 48.96184 40.40041
# Shear Modulus (GPa) = 12.23919 15.53342 13.88631
#
# Velocity S-wave (km/s) = 3.05052 3.43662 3.24931
# Velocity P-wave (km/s) = 6.05106 7.27830 6.69287
#
# Compressibility (1/GPa) = 0.03140803
#
# Stress axis : x y z
#
# Youngs Moduli (GPa) = 46.91725 43.53418 18.06714
#
# Poissons Ratio (x) = 0.33216 0.06285
# Poissons Ratio (y) = 0.35797 0.41562
# Poissons Ratio (z) = 0.16321 1.00147
#
# Static dielectric constant tensor:
#      x y z
#    x 2.656990 0.000000 0.000000 
#    y 0.000000 2.791350 0.000000 
#    z 0.000000 0.000000 2.435950 
# 
# 
# High freq. dielectric constant tensor:
#      x y z
#    x 1.500350 0.000000 0.000000 
#    y 0.000000 1.494920 0.000000 
#    z 0.000000 0.000000 1.447480 
# 
# From -- ./inp_files/68666.got.cif
#   From: 2010.06.25/outbox.cif.g09.slc.cpg/sg71_35_cif.got.tgz:68666.got - 2010.06.28 04:59:45.
