data_PCOD8286369
_publ_section_title
;
Structure prediction by ZEFSAII (Michael W. Deem and Ramdas Pophale) SiO2 
 PCOD8286369
Probable space group: F D D D
;
_chemical_formula_sum "Si O2"
_cell_formula_units_Z 176
_cell_length_a 21.190202
_cell_length_b 13.638398
_cell_length_c 26.310700
_cell_angle_alpha 90.000000
_cell_angle_beta 90.000000
_cell_angle_gamma 90.000000
_cell_volume 7603.803050
_symmetry_space_group_name_H-M "F D D D"
_symmetry_group_IT_number 70
_space_group.IT_coordinate_system_code '2'
_symmetry_cell_setting 'orthorhombic'
loop_
_space_group_symop_operation_xyz
x,y,z
1/4-x,1/4-y,z
x,1/4-y,1/4-z
1/4-x,y,1/4-z
-x,-y,-z
3/4+x,3/4+y,-z
-x,3/4+y,3/4+z
3/4+x,-y,3/4+z
x,1/2+y,1/2+z
1/4-x,3/4-y,1/2+z
x,3/4-y,3/4-z
1/4-x,1/2+y,3/4-z
-x,1/2-y,1/2-z
3/4+x,1/4+y,1/2-z
-x,1/4+y,1/4+z
3/4+x,1/2-y,1/4+z
1/2+x,y,1/2+z
3/4-x,1/4-y,1/2+z
1/2+x,1/4-y,3/4-z
3/4-x,y,3/4-z
1/2-x,-y,1/2-z
1/4+x,3/4+y,1/2-z
1/2-x,3/4+y,1/4+z
1/4+x,-y,1/4+z
1/2+x,1/2+y,z
3/4-x,3/4-y,z
1/2+x,3/4-y,1/4-z
3/4-x,1/2+y,1/4-z
1/2-x,1/2-y,-z
1/4+x,1/4+y,-z
1/2-x,1/4+y,3/4+z
1/4+x,1/2-y,3/4+z
loop_
_atom_site_type_symbol
_atom_site_label
_atom_site_fract_x
_atom_site_fract_y
_atom_site_fract_z
Si Si1 0.694624 0.518356 0.954325
Si Si2 0.497828 0.125000 0.125000
Si Si3 0.195801 0.735621 0.458643
Si Si4 0.236682 0.375000 0.875000
Si Si5 0.695024 0.754767 0.540856
Si Si6 0.625000 0.125000 0.971227
Si Si7 0.755902 0.047675 0.944097
O O1 0.702274 0.446486 0.906661
O O2 0.706913 0.628481 0.933811
O O3 0.625236 0.509260 0.980462
O O4 0.744147 0.494279 0.998680
O O5 0.543806 0.065100 0.088549
O O6 0.250000 0.750000 0.500000
O O7 0.195199 0.820413 0.416707
O O8 0.275139 0.288519 0.845737
O O9 0.750000 0.750000 0.500000
O O10 0.634862 0.718886 0.508647
O O11 0.691098 0.866818 0.561131
O O12 0.685198 0.094643 0.936047
#
# Coordination Sequence:
#
# PCOD8286369 Si02
#       7
#    32  16  32  16  32  16  32
#     4  11  24  44  71  98 139 179 229 291 353 414
#     4  12  21  43  70  98 136 181 227 280 364 412
#     4  11  25  45  69 102 133 179 239 289 340 424
#     4  12  25  44  77 100 136 189 241 276 362 418
#     4  10  22  40  66 102 142 178 230 292 348 418
#     4  10  22  43  70 102 148 178 236 297 366 414
#     4  11  24  44  69 105 142 185 234 297 347 431
#
# _framework density 23.146312999999999
#
# number of rings (size 3 to 8) (size 9 to 14) (size 15 to 20)
#    0.000    1.091    5.455    1.636    2.545    4.727 
#    0.000    1.818    4.000    0.000    0.000    0.000 
#    0.000    0.000    0.000    0.000    0.000    0.000 
#
# Total GULP energy -545201.251597 kJ/mol
# GULP energy per Si atom -12390.937536 kJ/mol
# Density = 2.309363 g / cm^3
# Si number density = 23.146313 Si / 1000 Ang^3
#
#
#
# Elastic Constant Matrix: (Units=GPa)
#
#
# Indices 1 2 3 4 5 6 
#
# 1 52.2582 18.3774 14.2393 0.0000 0.0000 0.0000
# 2 18.3774 177.2912 48.1800 0.0000 0.0000 0.0000
# 3 14.2393 48.1800 103.2964 0.0000 0.0000 0.0000
# 4 0.0000 0.0000 0.0000 59.6685 0.0000 0.0000
# 5 0.0000 0.0000 0.0000 0.0000 19.8037 0.0000
# 6 0.0000 0.0000 0.0000 0.0000 0.0000 26.8837
#
#
#
# Elastic Compliance Matrix: (Units=1/GPa)
#
#
# Indices 1 2 3 4 5 6 
#
# 1 0.020241 -0.001534 -0.002074 0.000000 0.000000 0.000000
# 2 -0.001534 0.006575 -0.002855 0.000000 0.000000 0.000000
# 3 -0.002074 -0.002855 0.011299 0.000000 0.000000 0.000000
# 4 0.000000 0.000000 0.000000 0.016759 0.000000 0.000000
# 5 0.000000 0.000000 0.000000 0.000000 0.050496 0.000000
# 6 0.000000 0.000000 0.000000 0.000000 0.000000 0.037197
#
#
# Mechanical properties :
#
#
# Convention : Reuss Voigt Hill
#
# Bulk Modulus (GPa) = 39.70427 54.93768 47.32097
# Shear Modulus (GPa) = 30.50812 38.07448 34.29130
#
# Velocity S-wave (km/s) = 3.63444 4.06020 3.85320
# Velocity P-wave (km/s) = 5.89941 6.76511 6.34704
#
# Compressibility (1/GPa) = 0.02518621
#
# Stress axis : x y z
#
# Youngs Moduli (GPa) = 49.40577 152.08050 88.50577
#
# Poissons Ratio (x) = 0.23334 0.18360
# Poissons Ratio (y) = 0.07580 0.25272
# Poissons Ratio (z) = 0.10249 0.43426
#
# Static dielectric constant tensor:
#      x y z
#    x 3.880030 0.000000 0.000000 
#    y 0.000000 5.125130 0.000000 
#    z 0.000000 0.000000 4.126680 
# 
# 
# High freq. dielectric constant tensor:
#      x y z
#    x 1.879700 0.000000 0.000000 
#    y 0.000000 1.944810 0.000000 
#    z 0.000000 0.000000 1.902980 
# 
# From -- ./inp_files/53667.got.cif
#   From: 2010.03.12/outbox.cif.g09.slc.cpg/sg70_27_cif.got.tgz:53667.got - 2010.04.16 13:46:32.
