data_PCOD8286626
_publ_section_title
;
Structure prediction by ZEFSAII (Michael W. Deem and Ramdas Pophale) SiO2 
 PCOD8286626
Probable space group: F D D D
;
_chemical_formula_sum "Si O2"
_cell_formula_units_Z 208
_cell_length_a 19.245110
_cell_length_b 18.118087
_cell_length_c 23.911656
_cell_angle_alpha 90.000000
_cell_angle_beta 90.000000
_cell_angle_gamma 90.000000
_cell_volume 8337.625665
_symmetry_space_group_name_H-M "F D D D"
_symmetry_group_IT_number 70
_space_group.IT_coordinate_system_code '2'
_symmetry_cell_setting 'orthorhombic'
loop_
_space_group_symop_operation_xyz
x,y,z
1/4-x,1/4-y,z
x,1/4-y,1/4-z
1/4-x,y,1/4-z
-x,-y,-z
3/4+x,3/4+y,-z
-x,3/4+y,3/4+z
3/4+x,-y,3/4+z
x,1/2+y,1/2+z
1/4-x,3/4-y,1/2+z
x,3/4-y,3/4-z
1/4-x,1/2+y,3/4-z
-x,1/2-y,1/2-z
3/4+x,1/4+y,1/2-z
-x,1/4+y,1/4+z
3/4+x,1/2-y,1/4+z
1/2+x,y,1/2+z
3/4-x,1/4-y,1/2+z
1/2+x,1/4-y,3/4-z
3/4-x,y,3/4-z
1/2-x,-y,1/2-z
1/4+x,3/4+y,1/2-z
1/2-x,3/4+y,1/4+z
1/4+x,-y,1/4+z
1/2+x,1/2+y,z
3/4-x,3/4-y,z
1/2+x,3/4-y,1/4-z
3/4-x,1/2+y,1/4-z
1/2-x,1/2-y,-z
1/4+x,1/4+y,-z
1/2-x,1/4+y,3/4+z
1/4+x,1/2-y,3/4+z
loop_
_atom_site_type_symbol
_atom_site_label
_atom_site_fract_x
_atom_site_fract_y
_atom_site_fract_z
Si Si1 0.339563 0.608673 0.992614
Si Si2 0.520633 0.207928 0.134347
Si Si3 0.375000 0.674643 0.875000
Si Si4 0.239160 0.043410 0.125955
Si Si5 0.869252 0.957987 0.785054
Si Si6 0.630370 0.269687 0.918714
Si Si7 0.058797 0.085189 0.503880
O O1 0.356942 0.623182 0.927273
O O2 0.366990 0.525606 0.007812
O O3 0.255753 0.608065 0.998193
O O4 0.377430 0.666008 0.034257
O O5 0.549000 0.125000 0.125000
O O6 0.562588 0.271756 0.102533
O O7 0.437764 0.208223 0.121389
O O8 0.533491 0.227221 0.201198
O O9 0.270951 0.125000 0.125000
O O10 0.206698 0.027041 0.187024
O O11 0.178489 0.036363 0.081522
O O12 0.307379 0.995559 0.109601
O O13 0.875000 0.875000 0.758030
O O14 0.663641 0.196990 0.945897
O O15 0.125000 0.125000 0.531943
#
# Coordination Sequence:
#
# PCOD8286626 Si02
#       7
#    32  32  16  32  32  32  32
#     4  11  22  36  61  92 124 163 210 273 314 378
#     4  11  22  36  57  85 124 168 204 243 305 392
#     4  12  19  36  55  84 124 168 206 250 307 376
#     4   9  18  36  64  87 115 160 209 254 308 380
#     4   9  19  39  64  92 112 158 219 253 316 387
#     4  11  21  39  57  96 126 160 207 263 317 373
#     4  11  21  38  58  89 129 164 206 257 319 378
#
# _framework density 24.947151000000002
#
# number of rings (size 3 to 8) (size 9 to 14) (size 15 to 20)
#    0.000    1.538    3.077    5.308    0.000    0.000 
#    0.000    3.077    0.000    0.000    0.000    1.077 
#    0.000    0.000    0.000    0.000    0.000    0.000 
#
# Total GULP energy -644270.259965 kJ/mol
# GULP energy per Si atom -12389.812692 kJ/mol
# Density = 2.489037 g / cm^3
# Si number density = 24.947151 Si / 1000 Ang^3
#
#
#
# Elastic Constant Matrix: (Units=GPa)
#
#
# Indices 1 2 3 4 5 6 
#
# 1 172.0464 34.4112 28.8969 0.0000 0.0000 0.0000
# 2 34.4112 116.4715 4.9597 0.0000 0.0000 0.0000
# 3 28.8969 4.9597 25.8631 0.0000 0.0000 0.0000
# 4 0.0000 0.0000 0.0000 22.7810 0.0000 0.0000
# 5 0.0000 0.0000 0.0000 0.0000 22.4503 0.0000
# 6 0.0000 0.0000 0.0000 0.0000 0.0000 27.5697
#
#
#
# Elastic Compliance Matrix: (Units=1/GPa)
#
#
# Indices 1 2 3 4 5 6 
#
# 1 0.007545 -0.001885 -0.008068 0.000000 0.000000 0.000000
# 2 -0.001885 0.009128 0.000356 0.000000 0.000000 0.000000
# 3 -0.008068 0.000356 0.047611 0.000000 0.000000 0.000000
# 4 0.000000 0.000000 0.000000 0.043896 0.000000 0.000000
# 5 0.000000 0.000000 0.000000 0.000000 0.044543 0.000000
# 6 0.000000 0.000000 0.000000 0.000000 0.000000 0.036272
#
#
# Mechanical properties :
#
#
# Convention : Reuss Voigt Hill
#
# Bulk Modulus (GPa) = 22.17832 50.10184 36.14008
# Shear Modulus (GPa) = 22.39957 30.96775 26.68366
#
# Velocity S-wave (km/s) = 2.99972 3.52708 3.27403
# Velocity P-wave (km/s) = 4.57243 6.05919 5.36754
#
# Compressibility (1/GPa) = 0.04508908
#
# Stress axis : x y z
#
# Youngs Moduli (GPa) = 132.54496 109.55685 21.00340
#
# Poissons Ratio (x) = 0.20657 0.16946
# Poissons Ratio (y) = 0.24991 -0.00748
# Poissons Ratio (z) = 1.06938 -0.03903
#
# Static dielectric constant tensor:
#      x y z
#    x 4.816180 0.000000 0.000000 
#    y 0.000000 4.797920 0.000000 
#    z 0.000000 0.000000 4.282960 
# 
# 
# High freq. dielectric constant tensor:
#      x y z
#    x 2.007890 0.000000 0.000000 
#    y 0.000000 1.984070 0.000000 
#    z 0.000000 0.000000 1.957930 
# 
# From -- ./inp_files/60441.got.cif
#   From: 2010.03.12/outbox.cif.g09.slc.cpg/sg70_31_cif.got.tgz:60441.got - 2010.04.16 13:46:32.
