data_PCOD8286402
_publ_section_title
;
Structure prediction by ZEFSAII (Michael W. Deem and Ramdas Pophale) SiO2 
 PCOD8286402
Probable space group: F D D D
;
_chemical_formula_sum "Si O2"
_cell_formula_units_Z 112
_cell_length_a 14.159352
_cell_length_b 11.382118
_cell_length_c 31.551741
_cell_angle_alpha 90.000000
_cell_angle_beta 90.000000
_cell_angle_gamma 90.000000
_cell_volume 5084.986337
_symmetry_space_group_name_H-M "F D D D"
_symmetry_group_IT_number 70
_space_group.IT_coordinate_system_code '2'
_symmetry_cell_setting 'orthorhombic'
loop_
_space_group_symop_operation_xyz
x,y,z
1/4-x,1/4-y,z
x,1/4-y,1/4-z
1/4-x,y,1/4-z
-x,-y,-z
3/4+x,3/4+y,-z
-x,3/4+y,3/4+z
3/4+x,-y,3/4+z
x,1/2+y,1/2+z
1/4-x,3/4-y,1/2+z
x,3/4-y,3/4-z
1/4-x,1/2+y,3/4-z
-x,1/2-y,1/2-z
3/4+x,1/4+y,1/2-z
-x,1/4+y,1/4+z
3/4+x,1/2-y,1/4+z
1/2+x,y,1/2+z
3/4-x,1/4-y,1/2+z
1/2+x,1/4-y,3/4-z
3/4-x,y,3/4-z
1/2-x,-y,1/2-z
1/4+x,3/4+y,1/2-z
1/2-x,3/4+y,1/4+z
1/4+x,-y,1/4+z
1/2+x,1/2+y,z
3/4-x,3/4-y,z
1/2+x,3/4-y,1/4-z
3/4-x,1/2+y,1/4-z
1/2-x,1/2-y,-z
1/4+x,1/4+y,-z
1/2-x,1/4+y,3/4+z
1/4+x,1/2-y,3/4+z
loop_
_atom_site_type_symbol
_atom_site_label
_atom_site_fract_x
_atom_site_fract_y
_atom_site_fract_z
Si Si1 0.422253 0.071286 0.694241
Si Si2 0.295378 0.019522 0.340004
Si Si3 0.907959 0.005833 0.758265
Si Si4 0.375000 0.375000 0.133271
O O1 0.498595 0.141375 0.665996
O O2 0.351263 0.159716 0.717758
O O3 0.482934 0.992263 0.727109
O O4 0.362259 0.989632 0.662840
O O5 0.375000 0.009955 0.375000
O O6 0.217525 0.115504 0.353847
O O7 0.340086 0.057835 0.295113
O O8 0.875000 0.875000 0.745330
#
# Coordination Sequence:
#
# PCOD8286402 Si02
#       4
#    32  32  32  16
#     4  11  25  42  68  99 134 173 217 269 336 395
#     4  11  23  44  68  98 128 172 228 276 318 379
#     4  10  22  42  71  98 126 172 223 275 317 393
#     4  12  26  38  68 102 135 174 209 278 338 384
#
# _framework density 22.025624000000001
#
# number of rings (size 3 to 8) (size 9 to 14) (size 15 to 20)
#    0.000    1.143    2.857    4.286   14.000    1.143 
#    0.000    0.000    0.000    3.429    0.000    0.000 
#    0.000    0.000    0.000    0.000    0.000    0.000 
#
# Total GULP energy -347259.348758 kJ/mol
# GULP energy per Si atom -12402.119598 kJ/mol
# Density = 2.197549 g / cm^3
# Si number density = 22.025624 Si / 1000 Ang^3
#
#
#
# Elastic Constant Matrix: (Units=GPa)
#
#
# Indices 1 2 3 4 5 6 
#
# 1 87.4865 33.8971 17.4388 0.0000 0.0000 0.0000
# 2 33.8971 72.6468 36.9309 0.0000 0.0000 0.0000
# 3 17.4388 36.9309 73.4997 0.0000 0.0000 0.0000
# 4 0.0000 0.0000 0.0000 51.0947 0.0000 0.0000
# 5 0.0000 0.0000 0.0000 0.0000 40.4324 0.0000
# 6 0.0000 0.0000 0.0000 0.0000 0.0000 34.2853
#
#
#
# Elastic Compliance Matrix: (Units=1/GPa)
#
#
# Indices 1 2 3 4 5 6 
#
# 1 0.013953 -0.006484 -0.000053 0.000000 0.000000 0.000000
# 2 -0.006484 0.021500 -0.009265 0.000000 0.000000 0.000000
# 3 -0.000053 -0.009265 0.018273 0.000000 0.000000 0.000000
# 4 0.000000 0.000000 0.000000 0.019571 0.000000 0.000000
# 5 0.000000 0.000000 0.000000 0.000000 0.024733 0.000000
# 6 0.000000 0.000000 0.000000 0.000000 0.000000 0.029167
#
#
# Mechanical properties :
#
#
# Convention : Reuss Voigt Hill
#
# Bulk Modulus (GPa) = 45.19942 45.57407 45.38675
# Shear Modulus (GPa) = 30.08877 34.85357 32.47117
#
# Velocity S-wave (km/s) = 3.70006 3.98227 3.84376
# Velocity P-wave (km/s) = 6.23055 6.47155 6.35219
#
# Compressibility (1/GPa) = 0.02212418
#
# Stress axis : x y z
#
# Youngs Moduli (GPa) = 71.66926 46.51075 54.72484
#
# Poissons Ratio (x) = 0.30156 0.00289
# Poissons Ratio (y) = 0.46468 0.50702
# Poissons Ratio (z) = 0.00378 0.43091
#
# Static dielectric constant tensor:
#      x y z
#    x 3.990140 0.000000 0.000000 
#    y 0.000000 3.721320 0.000000 
#    z 0.000000 0.000000 4.277550 
# 
# 
# High freq. dielectric constant tensor:
#      x y z
#    x 1.849670 0.000000 0.000000 
#    y 0.000000 1.834980 0.000000 
#    z 0.000000 0.000000 1.891590 
# 
# From -- ./inp_files/21738.got.cif
#   From: 2010.03.12/outbox.cif.g09.slc.cpg/sg70_11_cif.got.tgz:21738.got - 2010.04.16 13:46:32.
