data_PCOD8286447
_publ_section_title
;
Structure prediction by ZEFSAII (Michael W. Deem and Ramdas Pophale) SiO2 
 PCOD8286447
Probable space group: F D D D
;
_chemical_formula_sum "Si O2"
_cell_formula_units_Z 176
_cell_length_a 24.912326
_cell_length_b 12.339104
_cell_length_c 28.418734
_cell_angle_alpha 90.000000
_cell_angle_beta 90.000000
_cell_angle_gamma 90.000000
_cell_volume 8735.798944
_symmetry_space_group_name_H-M "F D D D"
_symmetry_group_IT_number 70
_space_group.IT_coordinate_system_code '2'
_symmetry_cell_setting 'orthorhombic'
loop_
_space_group_symop_operation_xyz
x,y,z
1/4-x,1/4-y,z
x,1/4-y,1/4-z
1/4-x,y,1/4-z
-x,-y,-z
3/4+x,3/4+y,-z
-x,3/4+y,3/4+z
3/4+x,-y,3/4+z
x,1/2+y,1/2+z
1/4-x,3/4-y,1/2+z
x,3/4-y,3/4-z
1/4-x,1/2+y,3/4-z
-x,1/2-y,1/2-z
3/4+x,1/4+y,1/2-z
-x,1/4+y,1/4+z
3/4+x,1/2-y,1/4+z
1/2+x,y,1/2+z
3/4-x,1/4-y,1/2+z
1/2+x,1/4-y,3/4-z
3/4-x,y,3/4-z
1/2-x,-y,1/2-z
1/4+x,3/4+y,1/2-z
1/2-x,3/4+y,1/4+z
1/4+x,-y,1/4+z
1/2+x,1/2+y,z
3/4-x,3/4-y,z
1/2+x,3/4-y,1/4-z
3/4-x,1/2+y,1/4-z
1/2-x,1/2-y,-z
1/4+x,1/4+y,-z
1/2-x,1/4+y,3/4+z
1/4+x,1/2-y,3/4+z
loop_
_atom_site_type_symbol
_atom_site_label
_atom_site_fract_x
_atom_site_fract_y
_atom_site_fract_z
Si Si1 0.133995 0.337847 0.966340
Si Si2 0.983243 0.619991 0.012581
Si Si3 0.625000 0.625000 0.221935
Si Si4 0.301387 0.125000 0.125000
Si Si5 0.959572 0.005048 0.830752
Si Si6 0.838755 0.973852 0.466373
Si Si7 0.125000 0.845474 0.125000
O O1 0.071988 0.371415 0.958345
O O2 0.161516 0.324626 0.915786
O O3 0.140190 0.226717 0.995418
O O4 0.163895 0.432345 0.994794
O O5 0.028674 0.680860 0.042946
O O6 0.976362 0.674044 0.962701
O O7 0.000000 0.500000 0.000000
O O8 0.675142 0.652032 0.187812
O O9 0.263734 0.220680 0.143488
O O10 0.925931 0.077882 0.866878
O O11 0.875000 0.875000 0.485453
O O12 0.864396 0.018430 0.418889
#
# Coordination Sequence:
#
# PCOD8286447 Si02
#       7
#    32  32  16  16  32  32  16
#     4  11  25  46  65 102 140 179 232 279 353 416
#     4  11  22  45  69  92 133 186 225 284 347 401
#     4  10  22  47  68  96 138 182 228 285 334 422
#     4  12  26  43  66 106 141 184 224 286 356 418
#     4  11  23  40  70  98 136 178 225 281 345 407
#     4  12  23  44  72  98 137 178 234 289 339 411
#     4  12  23  43  70 110 130 179 245 286 336 414
#
# _framework density 20.146982999999999
#
# number of rings (size 3 to 8) (size 9 to 14) (size 15 to 20)
#    0.000    0.727    7.273    1.364    0.000    3.636 
#   11.455    0.000    0.000    0.000    0.000    0.000 
#    0.000    0.000    0.000    0.000    0.000    0.000 
#
# Total GULP energy -545728.441518 kJ/mol
# GULP energy per Si atom -12402.919125 kJ/mol
# Density = 2.010113 g / cm^3
# Si number density = 20.146983 Si / 1000 Ang^3
#
#
#
# Elastic Constant Matrix: (Units=GPa)
#
#
# Indices 1 2 3 4 5 6 
#
# 1 150.9599 52.8535 44.4949 0.0000 0.0000 0.0000
# 2 52.8535 125.7464 34.3396 0.0000 0.0000 0.0000
# 3 44.4949 34.3396 91.7607 0.0000 0.0000 0.0000
# 4 0.0000 0.0000 0.0000 17.8083 0.0000 0.0000
# 5 0.0000 0.0000 0.0000 0.0000 33.9995 0.0000
# 6 0.0000 0.0000 0.0000 0.0000 0.0000 20.0289
#
#
#
# Elastic Compliance Matrix: (Units=1/GPa)
#
#
# Indices 1 2 3 4 5 6 
#
# 1 0.008491 -0.002723 -0.003098 0.000000 0.000000 0.000000
# 2 -0.002723 0.009731 -0.002321 0.000000 0.000000 0.000000
# 3 -0.003098 -0.002321 0.013269 0.000000 0.000000 0.000000
# 4 0.000000 0.000000 0.000000 0.056153 0.000000 0.000000
# 5 0.000000 0.000000 0.000000 0.000000 0.029412 0.000000
# 6 0.000000 0.000000 0.000000 0.000000 0.000000 0.049928
#
#
# Mechanical properties :
#
#
# Convention : Reuss Voigt Hill
#
# Bulk Modulus (GPa) = 65.76366 70.20477 67.98421
# Shear Modulus (GPa) = 26.54811 30.15262 28.35036
#
# Velocity S-wave (km/s) = 3.63398 3.87283 3.75530
# Velocity P-wave (km/s) = 7.09370 7.41083 7.25400
#
# Compressibility (1/GPa) = 0.01520597
#
# Stress axis : x y z
#
# Youngs Moduli (GPa) = 117.77535 102.76597 75.36381
#
# Poissons Ratio (x) = 0.27980 0.23350
# Poissons Ratio (y) = 0.32067 0.17494
# Poissons Ratio (z) = 0.36490 0.23855
#
# Static dielectric constant tensor:
#      x y z
#    x 4.645070 0.000000 0.000000 
#    y 0.000000 3.783500 0.000000 
#    z 0.000000 0.000000 3.557360 
# 
# 
# High freq. dielectric constant tensor:
#      x y z
#    x 1.798390 0.000000 0.000000 
#    y 0.000000 1.801300 0.000000 
#    z 0.000000 0.000000 1.779790 
# 
# From -- ./inp_files/55025.got.cif
#   From: 2010.03.12/outbox.cif.g09.slc.cpg/sg70_28_cif.got.tgz:55025.got - 2010.04.16 13:46:32.
