data_PCOD8286781
_publ_section_title
;
Structure prediction by ZEFSAII (Michael W. Deem and Ramdas Pophale) SiO2 
 PCOD8286781
Probable space group: F D D D
;
_chemical_formula_sum "Si O2"
_cell_formula_units_Z 112
_cell_length_a 33.197086
_cell_length_b 5.117704
_cell_length_c 28.653147
_cell_angle_alpha 90.000000
_cell_angle_beta 90.000000
_cell_angle_gamma 90.000000
_cell_volume 4867.965086
_symmetry_space_group_name_H-M "F D D D"
_symmetry_group_IT_number 70
_space_group.IT_coordinate_system_code '2'
_symmetry_cell_setting 'orthorhombic'
loop_
_space_group_symop_operation_xyz
x,y,z
1/4-x,1/4-y,z
x,1/4-y,1/4-z
1/4-x,y,1/4-z
-x,-y,-z
3/4+x,3/4+y,-z
-x,3/4+y,3/4+z
3/4+x,-y,3/4+z
x,1/2+y,1/2+z
1/4-x,3/4-y,1/2+z
x,3/4-y,3/4-z
1/4-x,1/2+y,3/4-z
-x,1/2-y,1/2-z
3/4+x,1/4+y,1/2-z
-x,1/4+y,1/4+z
3/4+x,1/2-y,1/4+z
1/2+x,y,1/2+z
3/4-x,1/4-y,1/2+z
1/2+x,1/4-y,3/4-z
3/4-x,y,3/4-z
1/2-x,-y,1/2-z
1/4+x,3/4+y,1/2-z
1/2-x,3/4+y,1/4+z
1/4+x,-y,1/4+z
1/2+x,1/2+y,z
3/4-x,3/4-y,z
1/2+x,3/4-y,1/4-z
3/4-x,1/2+y,1/4-z
1/2-x,1/2-y,-z
1/4+x,1/4+y,-z
1/2-x,1/4+y,3/4+z
1/4+x,1/2-y,3/4+z
loop_
_atom_site_type_symbol
_atom_site_label
_atom_site_fract_x
_atom_site_fract_y
_atom_site_fract_z
Si Si1 0.651848 0.375000 0.875000
Si Si2 0.292794 0.470717 0.673558
Si Si3 0.453652 0.122100 0.406894
Si Si4 0.152094 0.371398 0.746916
O O1 0.625000 0.625000 0.859638
O O2 0.680555 0.293843 0.831708
O O3 0.296929 0.625000 0.625000
O O4 0.246356 0.405113 0.683401
O O5 0.310576 0.630802 0.716934
O O6 0.454437 0.375000 0.375000
O O7 0.418787 0.147634 0.444685
O O8 0.443914 0.875000 0.375000
O O9 0.125000 0.625000 0.753444
O O10 0.125000 0.125000 0.758092
#
# Coordination Sequence:
#
# PCOD8286781 Si02
#       4
#    16  32  32  32
#     4  12  24  38  66 104 141 180 215 278 352 422
#     4  11  26  45  71 105 141 186 225 287 358 427
#     4  11  25  50  74  98 137 190 242 288 345 410
#     4  12  29  44  71 107 142 185 234 293 348 414
#
# _framework density 23.007560999999999
#
# number of rings (size 3 to 8) (size 9 to 14) (size 15 to 20)
#    0.000    0.571    2.857    3.429    8.000    3.429 
#    0.000    7.143    0.000    0.000    0.000    0.000 
#    0.000    0.000    0.000    0.000    0.000    0.000 
#
# Total GULP energy -347249.470983 kJ/mol
# GULP energy per Si atom -12401.766821 kJ/mol
# Density = 2.295520 g / cm^3
# Si number density = 23.007561 Si / 1000 Ang^3
#
#
#
# Elastic Constant Matrix: (Units=GPa)
#
#
# Indices 1 2 3 4 5 6 
#
# 1 67.5817 27.8723 34.9417 -0.0449 -0.0307 0.0040
# 2 27.8723 152.9738 35.4280 -0.2498 -0.0620 0.0213
# 3 34.9417 35.4280 114.3739 -0.0418 -0.0129 0.0150
# 4 -0.0449 -0.2498 -0.0418 26.7964 -0.0519 0.0041
# 5 -0.0307 -0.0620 -0.0129 -0.0519 58.8863 0.0260
# 6 0.0040 0.0213 0.0150 0.0041 0.0260 30.7384
#
#
#
# Elastic Compliance Matrix: (Units=1/GPa)
#
#
# Indices 1 2 3 4 5 6 
#
# 1 0.018228 -0.002189 -0.004891 0.000003 0.000006 0.000002
# 2 -0.002189 0.007305 -0.001594 0.000062 0.000006 -0.000004
# 3 -0.004891 -0.001594 0.010731 -0.000006 -0.000002 -0.000003
# 4 0.000003 0.000062 -0.000006 0.037319 0.000033 -0.000005
# 5 0.000006 0.000006 -0.000002 0.000033 0.016982 -0.000014
# 6 0.000002 -0.000004 -0.000003 -0.000005 -0.000014 0.032533
#
#
# Mechanical properties :
#
#
# Convention : Reuss Voigt Hill
#
# Bulk Modulus (GPa) = 52.86133 59.04593 55.95363
# Shear Modulus (GPa) = 34.07126 39.06337 36.56732
#
# Velocity S-wave (km/s) = 3.85239 4.12497 3.99100
# Velocity P-wave (km/s) = 6.54319 6.95748 6.75351
#
# Compressibility (1/GPa) = 0.01891742
#
# Stress axis : x y z
#
# Youngs Moduli (GPa) = 54.85993 136.89006 93.18579
#
# Poissons Ratio (x) = 0.29959 0.45576
# Poissons Ratio (y) = 0.12006 0.14856
# Poissons Ratio (z) = 0.26831 0.21823
#
# Static dielectric constant tensor:
#      x y z
#    x 4.590450 -0.000020 -0.000020 
#    y -0.000020 4.239630 -0.000230 
#    z -0.000020 -0.000230 4.021150 
# 
# 
# High freq. dielectric constant tensor:
#      x y z
#    x 1.923780 -0.000010 0.000000 
#    y -0.000010 1.920090 -0.000020 
#    z 0.000000 -0.000020 1.905590 
# 
# From -- ./inp_files/68605.got.cif
#   From: 2010.03.12/outbox.cif.g09.slc.cpg/sg70_35_cif.got.tgz:68605.got - 2010.04.16 13:46:32.
