data_PCOD8286355
_publ_section_title
;
Structure prediction by ZEFSAII (Michael W. Deem and Ramdas Pophale) SiO2 
 PCOD8286355
Probable space group: F D D D
;
_chemical_formula_sum "Si O2"
_cell_formula_units_Z 128
_cell_length_a 21.469882
_cell_length_b 11.540041
_cell_length_c 24.939776
_cell_angle_alpha 90.000000
_cell_angle_beta 90.000000
_cell_angle_gamma 90.000000
_cell_volume 6179.161666
_symmetry_space_group_name_H-M "F D D D"
_symmetry_group_IT_number 70
_space_group.IT_coordinate_system_code '2'
_symmetry_cell_setting 'orthorhombic'
loop_
_space_group_symop_operation_xyz
x,y,z
1/4-x,1/4-y,z
x,1/4-y,1/4-z
1/4-x,y,1/4-z
-x,-y,-z
3/4+x,3/4+y,-z
-x,3/4+y,3/4+z
3/4+x,-y,3/4+z
x,1/2+y,1/2+z
1/4-x,3/4-y,1/2+z
x,3/4-y,3/4-z
1/4-x,1/2+y,3/4-z
-x,1/2-y,1/2-z
3/4+x,1/4+y,1/2-z
-x,1/4+y,1/4+z
3/4+x,1/2-y,1/4+z
1/2+x,y,1/2+z
3/4-x,1/4-y,1/2+z
1/2+x,1/4-y,3/4-z
3/4-x,y,3/4-z
1/2-x,-y,1/2-z
1/4+x,3/4+y,1/2-z
1/2-x,3/4+y,1/4+z
1/4+x,-y,1/4+z
1/2+x,1/2+y,z
3/4-x,3/4-y,z
1/2+x,3/4-y,1/4-z
3/4-x,1/2+y,1/4-z
1/2-x,1/2-y,-z
1/4+x,1/4+y,-z
1/2-x,1/4+y,3/4+z
1/4+x,1/2-y,3/4+z
loop_
_atom_site_type_symbol
_atom_site_label
_atom_site_fract_x
_atom_site_fract_y
_atom_site_fract_z
Si Si1 0.352584 0.118883 0.318903
Si Si2 0.061112 0.441824 0.973449
Si Si3 0.875000 0.875000 0.965478
Si Si4 0.786605 0.440345 0.558023
Si Si5 0.875000 0.875000 0.148130
O O1 0.375000 0.172594 0.375000
O O2 0.398566 0.159428 0.273751
O O3 0.285325 0.164754 0.305004
O O4 0.355041 0.980052 0.322542
O O5 0.044865 0.329669 0.937081
O O6 0.106534 0.519242 0.936487
O O7 0.000000 0.500000 0.000000
O O8 0.815352 0.900119 0.002221
O O9 0.815753 0.365730 0.607638
#
# Coordination Sequence:
#
# PCOD8286355 Si02
#       5
#    32  32  16  32  16
#     4  11  22  38  61  89 122 159 204 259 313 380
#     4  11  23  41  63  91 125 164 209 258 319 389
#     4   9  21  40  61  86 119 156 203 255 316 384
#     4  10  22  40  62  90 121 159 207 257 318 386
#     4  11  22  40  62  88 124 164 208 261 316 382
#
# _framework density 20.714784999999999
#
# number of rings (size 3 to 8) (size 9 to 14) (size 15 to 20)
#    0.000    1.500    0.000    4.875    0.000    2.000 
#    0.000   16.875    0.000    0.000    0.000    0.000 
#    0.000    0.000    0.000    0.000    0.000    0.000 
#
# Total GULP energy -396525.738567 kJ/mol
# GULP energy per Si atom -12391.429330 kJ/mol
# Density = 2.066764 g / cm^3
# Si number density = 20.714785 Si / 1000 Ang^3
#
#
#
# Elastic Constant Matrix: (Units=GPa)
#
#
# Indices 1 2 3 4 5 6 
#
# 1 141.0221 85.6800 32.4467 0.0000 0.0000 0.0000
# 2 85.6800 103.9637 52.5044 0.0000 0.0000 0.0000
# 3 32.4467 52.5044 89.4992 0.0000 0.0000 0.0000
# 4 0.0000 0.0000 0.0000 19.3090 0.0000 0.0000
# 5 0.0000 0.0000 0.0000 0.0000 -63.2739 0.0000
# 6 0.0000 0.0000 0.0000 0.0000 0.0000 74.5150
#
#
#
# Elastic Compliance Matrix: (Units=1/GPa)
#
#
# Indices 1 2 3 4 5 6 
#
# 1 0.014588 -0.013288 0.002507 0.000000 0.000000 0.000000
# 2 -0.013288 0.025773 -0.010302 0.000000 0.000000 0.000000
# 3 0.002507 -0.010302 0.016308 0.000000 0.000000 0.000000
# 4 0.000000 0.000000 0.000000 0.051789 0.000000 0.000000
# 5 0.000000 0.000000 0.000000 0.000000 -0.015804 0.000000
# 6 0.000000 0.000000 0.000000 0.000000 0.000000 0.013420
#
#
# Mechanical properties :
#
#
# Convention : Reuss Voigt Hill
#
# Bulk Modulus (GPa) = 68.95666 75.08301 72.01983
# Shear Modulus (GPa) = 32.66366 17.03361 24.84864
#
# Velocity S-wave (km/s) = 3.97524 2.87068 3.46722
# Velocity P-wave (km/s) = 7.37773 6.87841 7.13244
#
# Compressibility (1/GPa) = 0.01450186
#
# Stress axis : x y z
#
# Youngs Moduli (GPa) = 68.55019 38.80023 61.31919
#
# Poissons Ratio (x) = 0.51559 -0.15373
# Poissons Ratio (y) = 0.91092 0.63172
# Poissons Ratio (z) = -0.17185 0.39972
#
# Static dielectric constant tensor:
#      x y z
#    x 3.668030 0.000000 0.000000 
#    y 0.000000 4.122080 0.000000 
#    z 0.000000 0.000000 3.834720 
# 
# 
# High freq. dielectric constant tensor:
#      x y z
#    x 1.817710 0.000000 0.000000 
#    y 0.000000 1.810040 0.000000 
#    z 0.000000 0.000000 1.827830 
# 
# From -- ./inp_files/18875.got.cif
#   From: 2010.03.12/outbox.cif.g09.slc.cpg/sg70_10_cif.got.tgz:18875.got - 2010.04.16 13:46:32.
