data_PCOD8286834
_publ_section_title
;
Structure prediction by ZEFSAII (Michael W. Deem and Ramdas Pophale) SiO2 
 PCOD8286834
Probable space group: F D D D
;
_chemical_formula_sum "Si O2"
_cell_formula_units_Z 176
_cell_length_a 24.256866
_cell_length_b 11.227838
_cell_length_c 26.570004
_cell_angle_alpha 90.000000
_cell_angle_beta 90.000000
_cell_angle_gamma 90.000000
_cell_volume 7236.398029
_symmetry_space_group_name_H-M "F D D D"
_symmetry_group_IT_number 70
_space_group.IT_coordinate_system_code '2'
_symmetry_cell_setting 'orthorhombic'
loop_
_space_group_symop_operation_xyz
x,y,z
1/4-x,1/4-y,z
x,1/4-y,1/4-z
1/4-x,y,1/4-z
-x,-y,-z
3/4+x,3/4+y,-z
-x,3/4+y,3/4+z
3/4+x,-y,3/4+z
x,1/2+y,1/2+z
1/4-x,3/4-y,1/2+z
x,3/4-y,3/4-z
1/4-x,1/2+y,3/4-z
-x,1/2-y,1/2-z
3/4+x,1/4+y,1/2-z
-x,1/4+y,1/4+z
3/4+x,1/2-y,1/4+z
1/2+x,y,1/2+z
3/4-x,1/4-y,1/2+z
1/2+x,1/4-y,3/4-z
3/4-x,y,3/4-z
1/2-x,-y,1/2-z
1/4+x,3/4+y,1/2-z
1/2-x,3/4+y,1/4+z
1/4+x,-y,1/4+z
1/2+x,1/2+y,z
3/4-x,3/4-y,z
1/2+x,3/4-y,1/4-z
3/4-x,1/2+y,1/4-z
1/2-x,1/2-y,-z
1/4+x,1/4+y,-z
1/2-x,1/4+y,3/4+z
1/4+x,1/2-y,3/4+z
loop_
_atom_site_type_symbol
_atom_site_label
_atom_site_fract_x
_atom_site_fract_y
_atom_site_fract_z
Si Si1 0.489619 0.820783 0.061642
Si Si2 0.468451 0.087949 0.071376
Si Si3 0.692242 0.375000 0.375000
Si Si4 0.875825 0.009646 0.713059
Si Si5 0.382103 0.078416 0.319468
Si Si6 0.676983 0.197655 0.215769
O O1 0.479218 0.739523 0.110698
O O2 0.553854 0.848146 0.058500
O O3 0.457973 0.948056 0.063220
O O4 0.463299 0.754576 0.012992
O O5 0.444565 0.125000 0.125000
O O6 0.435075 0.173301 0.032938
O O7 0.533442 0.114707 0.067713
O O8 0.658804 0.409168 0.325004
O O9 0.855858 0.004979 0.771881
O O10 0.875000 0.875000 0.692149
O O11 0.375000 0.017781 0.375000
O O12 0.346169 0.199080 0.320335
O O13 0.625000 0.125000 0.236888
#
# Coordination Sequence:
#
# PCOD8286834 Si02
#       6
#    32  32  16  32  32  32
#     4  12  26  48  77 113 155 202 259 326 401 462
#     4  12  24  44  76 114 156 199 257 327 396 468
#     4  12  28  48  77 118 155 202 262 326 390 474
#     4  12  27  48  76 113 154 206 265 322 393 467
#     4  12  27  51  75 113 159 208 257 324 394 471
#     4  12  24  43  77 114 153 196 261 325 391 465
#
# _framework density 24.321491999999999
#
# number of rings (size 3 to 8) (size 9 to 14) (size 15 to 20)
#    0.000    0.000    6.364    3.818    0.000    1.818 
#    0.000    2.727    0.000    0.000    0.000    0.000 
#    0.000    0.000    0.000    0.000    0.000    0.000 
#
# Total GULP energy -545206.519855 kJ/mol
# GULP energy per Si atom -12391.057269 kJ/mol
# Density = 2.426613 g / cm^3
# Si number density = 24.321492 Si / 1000 Ang^3
#
#
#
# Elastic Constant Matrix: (Units=GPa)
#
#
# Indices 1 2 3 4 5 6 
#
# 1 90.6776 45.8181 31.4211 0.0000 0.0000 0.0000
# 2 45.8181 144.1271 31.6308 0.0000 0.0000 0.0000
# 3 31.4211 31.6308 166.7208 0.0000 0.0000 0.0000
# 4 0.0000 0.0000 0.0000 30.3550 0.0000 0.0000
# 5 0.0000 0.0000 0.0000 0.0000 24.2340 0.0000
# 6 0.0000 0.0000 0.0000 0.0000 0.0000 24.6000
#
#
#
# Elastic Compliance Matrix: (Units=1/GPa)
#
#
# Indices 1 2 3 4 5 6 
#
# 1 0.013651 -0.003939 -0.001825 0.000000 0.000000 0.000000
# 2 -0.003939 0.008376 -0.000847 0.000000 0.000000 0.000000
# 3 -0.001825 -0.000847 0.006503 0.000000 0.000000 0.000000
# 4 0.000000 0.000000 0.000000 0.032944 0.000000 0.000000
# 5 0.000000 0.000000 0.000000 0.000000 0.041264 0.000000
# 6 0.000000 0.000000 0.000000 0.000000 0.000000 0.040650
#
#
# Mechanical properties :
#
#
# Convention : Reuss Voigt Hill
#
# Bulk Modulus (GPa) = 65.32723 68.80727 67.06725
# Shear Modulus (GPa) = 30.91890 35.34816 33.13353
#
# Velocity S-wave (km/s) = 3.56934 3.81645 3.69496
# Velocity P-wave (km/s) = 6.62609 6.91177 6.77044
#
# Compressibility (1/GPa) = 0.01530755
#
# Stress axis : x y z
#
# Youngs Moduli (GPa) = 73.25500 119.38321 153.78132
#
# Poissons Ratio (x) = 0.47025 0.28071
# Poissons Ratio (y) = 0.28855 0.13023
# Poissons Ratio (z) = 0.13372 0.10110
#
# Static dielectric constant tensor:
#      x y z
#    x 4.257370 0.000000 0.000000 
#    y 0.000000 4.289080 0.000000 
#    z 0.000000 0.000000 4.543650 
# 
# 
# High freq. dielectric constant tensor:
#      x y z
#    x 1.961840 0.000000 0.000000 
#    y 0.000000 1.947950 0.000000 
#    z 0.000000 0.000000 1.985060 
# 
# From -- ./inp_files/61656.got.cif
#   From: 2010.03.12/outbox.cif.g09.slc.cpg/sg70_31_cif.got.tgz:61656.got - 2010.04.16 13:46:32.
