data_PCOD8286299
_publ_section_title
;
Structure prediction by ZEFSAII (Michael W. Deem and Ramdas Pophale) SiO2 
 PCOD8286299
Probable space group: F D D D
;
_chemical_formula_sum "Si O2"
_cell_formula_units_Z 152
_cell_length_a 22.268000
_cell_length_b 24.763561
_cell_length_c 13.138831
_cell_angle_alpha 90.000000
_cell_angle_beta 90.000000
_cell_angle_gamma 90.000000
_cell_volume 7245.210962
_symmetry_space_group_name_H-M "F D D D"
_symmetry_group_IT_number 70
_space_group.IT_coordinate_system_code '2'
_symmetry_cell_setting 'orthorhombic'
loop_
_space_group_symop_operation_xyz
x,y,z
1/4-x,1/4-y,z
x,1/4-y,1/4-z
1/4-x,y,1/4-z
-x,-y,-z
3/4+x,3/4+y,-z
-x,3/4+y,3/4+z
3/4+x,-y,3/4+z
x,1/2+y,1/2+z
1/4-x,3/4-y,1/2+z
x,3/4-y,3/4-z
1/4-x,1/2+y,3/4-z
-x,1/2-y,1/2-z
3/4+x,1/4+y,1/2-z
-x,1/4+y,1/4+z
3/4+x,1/2-y,1/4+z
1/2+x,y,1/2+z
3/4-x,1/4-y,1/2+z
1/2+x,1/4-y,3/4-z
3/4-x,y,3/4-z
1/2-x,-y,1/2-z
1/4+x,3/4+y,1/2-z
1/2-x,3/4+y,1/4+z
1/4+x,-y,1/4+z
1/2+x,1/2+y,z
3/4-x,3/4-y,z
1/2+x,3/4-y,1/4-z
3/4-x,1/2+y,1/4-z
1/2-x,1/2-y,-z
1/4+x,1/4+y,-z
1/2-x,1/4+y,3/4+z
1/4+x,1/2-y,3/4+z
loop_
_atom_site_type_symbol
_atom_site_label
_atom_site_fract_x
_atom_site_fract_y
_atom_site_fract_z
Si Si1 0.817237 0.902566 0.993387
Si Si2 0.808952 0.807150 0.545022
Si Si3 0.997349 0.055190 0.063208
Si Si4 0.828591 0.558355 0.784043
Si Si5 0.875000 0.375000 0.875000
Si Si6 0.391922 0.625000 0.125000
O O1 0.875000 0.875000 0.942128
O O2 0.840432 0.926423 0.099968
O O3 0.768161 0.854823 0.008319
O O4 0.789573 0.947320 0.915015
O O5 0.825193 0.744951 0.534237
O O6 0.739195 0.819290 0.570010
O O7 0.832034 0.839204 0.446218
O O8 0.930041 0.071119 0.097409
O O9 0.000000 0.000000 0.000000
O O10 0.875000 0.548597 0.875000
O O11 0.849721 0.609684 0.719364
#
# Coordination Sequence:
#
# PCOD8286299 Si02
#       6
#    32  32  32  32   8  16
#     4  10  21  43  63  93 134 166 222 272 327 406
#     4  11  24  41  69  94 132 182 225 285 338 407
#     4  10  22  41  66  97 130 169 212 278 346 407
#     4  11  23  45  63  93 135 176 222 284 343 404
#     4  12  22  44  68 106 128 182 240 270 344 424
#     4  10  23  42  63  95 132 165 218 276 328 414
#
# _framework density 20.979375999999998
#
# number of rings (size 3 to 8) (size 9 to 14) (size 15 to 20)
#    0.000    1.684    2.105    4.421    2.947    0.000 
#   15.158    0.000    0.000    0.000    0.000    0.000 
#    0.000    0.000    0.000    0.000    0.000    0.000 
#
# Total GULP energy -470870.105555 kJ/mol
# GULP energy per Si atom -12391.318567 kJ/mol
# Density = 2.093163 g / cm^3
# Si number density = 20.979376 Si / 1000 Ang^3
#
#
#
# Elastic Constant Matrix: (Units=GPa)
#
#
# Indices 1 2 3 4 5 6 
#
# 1 111.2092 23.1505 34.5648 0.0000 0.0000 0.0000
# 2 23.1505 85.0674 45.5691 0.0000 0.0000 0.0000
# 3 34.5648 45.5691 139.5480 0.0000 0.0000 0.0000
# 4 0.0000 0.0000 0.0000 50.3110 0.0000 0.0000
# 5 0.0000 0.0000 0.0000 0.0000 39.7392 0.0000
# 6 0.0000 0.0000 0.0000 0.0000 0.0000 17.9624
#
#
#
# Elastic Compliance Matrix: (Units=1/GPa)
#
#
# Indices 1 2 3 4 5 6 
#
# 1 0.009936 -0.001679 -0.001913 0.000000 0.000000 0.000000
# 2 -0.001679 0.014532 -0.004329 0.000000 0.000000 0.000000
# 3 -0.001913 -0.004329 0.009053 0.000000 0.000000 0.000000
# 4 0.000000 0.000000 0.000000 0.019876 0.000000 0.000000
# 5 0.000000 0.000000 0.000000 0.000000 0.025164 0.000000
# 6 0.000000 0.000000 0.000000 0.000000 0.000000 0.055672
#
#
# Mechanical properties :
#
#
# Convention : Reuss Voigt Hill
#
# Bulk Modulus (GPa) = 56.56632 60.26592 58.41612
# Shear Modulus (GPa) = 32.05764 37.10521 34.58142
#
# Velocity S-wave (km/s) = 3.91328 4.21010 4.06440
# Velocity P-wave (km/s) = 6.88764 7.24029 7.06617
#
# Compressibility (1/GPa) = 0.01767837
#
# Stress axis : x y z
#
# Youngs Moduli (GPa) = 100.64253 68.81583 110.45515
#
# Poissons Ratio (x) = 0.11557 0.21126
# Poissons Ratio (y) = 0.16903 0.47819
# Poissons Ratio (z) = 0.19250 0.29792
#
# Static dielectric constant tensor:
#      x y z
#    x 3.981990 0.000000 0.000000 
#    y 0.000000 3.520450 0.000000 
#    z 0.000000 0.000000 3.664290 
# 
# 
# High freq. dielectric constant tensor:
#      x y z
#    x 1.833250 0.000000 0.000000 
#    y 0.000000 1.804220 0.000000 
#    z 0.000000 0.000000 1.832200 
# 
# From -- ./inp_files/27636.got.cif
#   From: 2010.03.12/outbox.cif.g09.slc.cpg/sg70_14_cif.got.tgz:27636.got - 2010.04.16 13:46:32.
