data_PCOD8286955
_publ_section_title
;
Structure prediction by ZEFSAII (Michael W. Deem and Ramdas Pophale) SiO2 
 PCOD8286955
Probable space group: I M M M
;
_chemical_formula_sum "Si O2"
_cell_formula_units_Z 88
_cell_length_a 8.118637
_cell_length_b 23.181879
_cell_length_c 36.780010
_cell_angle_alpha 90.000000
_cell_angle_beta 90.000000
_cell_angle_gamma 90.000000
_cell_volume 6922.191366
_symmetry_space_group_name_H-M "I M M M"
_symmetry_group_IT_number 71
_symmetry_cell_setting 'orthorhombic'
loop_
_space_group_symop_operation_xyz
x,y,z
-x,-y,z
x,-y,-z
-x,y,-z
-x,-y,-z
x,y,-z
-x,y,z
x,-y,z
1/2+x,1/2+y,1/2+z
1/2-x,1/2-y,1/2+z
1/2+x,1/2-y,1/2-z
1/2-x,1/2+y,1/2-z
1/2-x,1/2-y,1/2-z
1/2+x,1/2+y,1/2-z
1/2-x,1/2+y,1/2+z
1/2+x,1/2-y,1/2+z
loop_
_atom_site_type_symbol
_atom_site_label
_atom_site_fract_x
_atom_site_fract_y
_atom_site_fract_z
Si Si1 0.189670 0.877219 0.342142
Si Si2 0.500000 0.431594 0.040673
Si Si3 0.809892 0.726592 0.194584
Si Si4 0.305549 0.564360 0.767735
Si Si5 0.313731 0.067285 0.412936
Si Si6 0.308364 0.169821 0.769481
O O1 0.212291 0.807877 0.337007
O O2 0.257003 0.909742 0.306102
O O3 0.299486 0.898304 0.375439
O O4 0.000000 0.892297 0.350061
O O5 0.500000 0.500000 0.039166
O O6 0.669397 0.410266 0.060021
O O7 0.500000 0.405676 0.000000
O O8 0.772779 0.795513 0.196408
O O9 0.746116 0.699675 0.232455
O O10 0.000000 0.715269 0.187683
O O11 0.500000 0.563343 0.767676
O O12 0.233253 0.500000 0.762936
O O13 0.244934 0.602871 0.733399
O O14 0.500000 0.077784 0.428686
O O15 0.286124 0.000000 0.404818
O O16 0.500000 0.174894 0.775057
#
# Coordination Sequence:
#
# PCOD8286955 Si02
#       6
#    16   8  16  16  16  16
#     4  10  17  26  39  54  73  93 114 143 183 225
#     4   9  18  32  46  58  74  96 120 146 177 215
#     4   9  16  25  36  49  65  86 112 141 174 215
#     4   9  17  26  36  49  66  90 116 144 181 222
#     4  10  19  29  42  59  77  96 118 146 181 220
#     4   9  16  25  35  47  63  84 112 143 175 212
#
# _framework density 12.712736
#
# number of rings (size 3 to 8) (size 9 to 14) (size 15 to 20)
#    0.000    2.636    0.909    2.182    0.000    6.545 
#    0.000    1.818    0.000    0.000    0.000    0.000 
#    0.000    0.000    0.000    0.000    0.000    0.000 
#
# Total GULP energy -545270.278728 kJ/mol
# GULP energy per Si atom -12392.506335 kJ/mol
# Density = 1.268380 g / cm^3
# Si number density = 12.712736 Si / 1000 Ang^3
#
#
#
# Elastic Constant Matrix: (Units=GPa)
#
#
# Indices 1 2 3 4 5 6 
#
# 1 60.4018 18.8647 24.9298 0.0000 0.0000 0.0000
# 2 18.8647 66.0368 32.8593 0.0000 0.0000 0.0000
# 3 24.9298 32.8593 43.1249 0.0000 0.0000 0.0000
# 4 0.0000 0.0000 0.0000 9.5738 0.0000 0.0000
# 5 0.0000 0.0000 0.0000 0.0000 13.0767 0.0000
# 6 0.0000 0.0000 0.0000 0.0000 0.0000 17.6814
#
#
#
# Elastic Compliance Matrix: (Units=1/GPa)
#
#
# Indices 1 2 3 4 5 6 
#
# 1 0.021744 0.000069 -0.012623 0.000000 0.000000 0.000000
# 2 0.000069 0.024391 -0.018625 0.000000 0.000000 0.000000
# 3 -0.012623 -0.018625 0.044677 0.000000 0.000000 0.000000
# 4 0.000000 0.000000 0.000000 0.104452 0.000000 0.000000
# 5 0.000000 0.000000 0.000000 0.000000 0.076472 0.000000
# 6 0.000000 0.000000 0.000000 0.000000 0.000000 0.056556
#
#
# Mechanical properties :
#
#
# Convention : Reuss Voigt Hill
#
# Bulk Modulus (GPa) = 35.14298 35.87458 35.50878
# Shear Modulus (GPa) = 12.49583 14.26036 13.37809
#
# Velocity S-wave (km/s) = 3.13858 3.35287 3.24749
# Velocity P-wave (km/s) = 6.39048 6.57797 6.48490
#
# Compressibility (1/GPa) = 0.02845519
#
# Stress axis : x y z
#
# Youngs Moduli (GPa) = 45.98987 40.99902 22.38295
#
# Poissons Ratio (x) = -0.00284 0.28253
# Poissons Ratio (y) = -0.00319 0.41688
# Poissons Ratio (z) = 0.58052 0.76360
#
# Static dielectric constant tensor:
#      x y z
#    x 2.626140 0.000000 0.000000 
#    y 0.000000 2.696640 0.000000 
#    z 0.000000 0.000000 2.321090 
# 
# 
# High freq. dielectric constant tensor:
#      x y z
#    x 1.499460 0.000000 0.000000 
#    y 0.000000 1.462700 0.000000 
#    z 0.000000 0.000000 1.425960 
# 
# From -- ./inp_files/13509.got.cif
#   From: 2010.06.25/outbox.cif.g09.slc.cpg/sg71_7_cif.got.tgz:13509.got - 2010.06.28 04:59:45.
