data_PCOD8286812
_publ_section_title
;
Structure prediction by ZEFSAII (Michael W. Deem and Ramdas Pophale) SiO2 
 PCOD8286812
Probable space group: F D D D
;
_chemical_formula_sum "Si O2"
_cell_formula_units_Z 96
_cell_length_a 4.984669
_cell_length_b 27.399685
_cell_length_c 34.433164
_cell_angle_alpha 90.000000
_cell_angle_beta 90.000000
_cell_angle_gamma 90.000000
_cell_volume 4702.825084
_symmetry_space_group_name_H-M "F D D D"
_symmetry_group_IT_number 70
_space_group.IT_coordinate_system_code '2'
_symmetry_cell_setting 'orthorhombic'
loop_
_space_group_symop_operation_xyz
x,y,z
1/4-x,1/4-y,z
x,1/4-y,1/4-z
1/4-x,y,1/4-z
-x,-y,-z
3/4+x,3/4+y,-z
-x,3/4+y,3/4+z
3/4+x,-y,3/4+z
x,1/2+y,1/2+z
1/4-x,3/4-y,1/2+z
x,3/4-y,3/4-z
1/4-x,1/2+y,3/4-z
-x,1/2-y,1/2-z
3/4+x,1/4+y,1/2-z
-x,1/4+y,1/4+z
3/4+x,1/2-y,1/4+z
1/2+x,y,1/2+z
3/4-x,1/4-y,1/2+z
1/2+x,1/4-y,3/4-z
3/4-x,y,3/4-z
1/2-x,-y,1/2-z
1/4+x,3/4+y,1/2-z
1/2-x,3/4+y,1/4+z
1/4+x,-y,1/4+z
1/2+x,1/2+y,z
3/4-x,3/4-y,z
1/2+x,3/4-y,1/4-z
3/4-x,1/2+y,1/4-z
1/2-x,1/2-y,-z
1/4+x,1/4+y,-z
1/2-x,1/4+y,3/4+z
1/4+x,1/2-y,3/4+z
loop_
_atom_site_type_symbol
_atom_site_label
_atom_site_fract_x
_atom_site_fract_y
_atom_site_fract_z
Si Si1 0.749477 0.478100 0.977770
Si Si2 0.628869 0.720537 0.900621
Si Si3 0.375000 0.375000 0.055442
Si Si4 0.375000 0.375000 0.244986
O O1 0.720997 0.490638 0.932445
O O2 0.500000 0.500000 0.000000
O O3 0.764213 0.419372 0.979034
O O4 0.000000 0.500000 0.000000
O O5 0.375000 0.707036 0.875000
O O6 0.733842 0.670395 0.919708
O O7 0.875000 0.742059 0.875000
O O8 0.626399 0.355381 0.030599
#
# Coordination Sequence:
#
# PCOD8286812 Si02
#       4
#    32  32  16  16
#     4  12  23  43  67  93 131 174 223 268 322 402
#     4  12  24  40  62  98 138 170 211 270 341 399
#     4  12  22  39  66  98 133 167 212 279 337 398
#     4  12  22  41  69  98 124 171 230 273 318 386
#
# _framework density 20.413260999999999
#
# number of rings (size 3 to 8) (size 9 to 14) (size 15 to 20)
#    0.000    0.000    6.667    5.000    0.000    0.000 
#    0.000    0.833    0.000    2.000    0.000    0.000 
#    0.000    0.000    0.000    0.000    0.000    0.000 
#
# Total GULP energy -297690.933830 kJ/mol
# GULP energy per Si atom -12403.788910 kJ/mol
# Density = 2.036680 g / cm^3
# Si number density = 20.413261 Si / 1000 Ang^3
#
#
#
# Elastic Constant Matrix: (Units=GPa)
#
#
# Indices 1 2 3 4 5 6 
#
# 1 143.7126 32.8767 46.6843 0.0000 0.0000 0.0000
# 2 32.8767 142.3021 58.0190 0.0000 0.0000 0.0000
# 3 46.6843 58.0190 119.3588 0.0000 0.0000 0.0000
# 4 0.0000 0.0000 0.0000 18.5443 0.0000 0.0000
# 5 0.0000 0.0000 0.0000 0.0000 43.2435 0.0000
# 6 0.0000 0.0000 0.0000 0.0000 0.0000 30.3504
#
#
#
# Elastic Compliance Matrix: (Units=1/GPa)
#
#
# Indices 1 2 3 4 5 6 
#
# 1 0.008029 -0.000717 -0.002792 0.000000 0.000000 0.000000
# 2 -0.000717 0.008828 -0.004011 0.000000 0.000000 0.000000
# 3 -0.002792 -0.004011 0.011420 0.000000 0.000000 0.000000
# 4 0.000000 0.000000 0.000000 0.053925 0.000000 0.000000
# 5 0.000000 0.000000 0.000000 0.000000 0.023125 0.000000
# 6 0.000000 0.000000 0.000000 0.000000 0.000000 0.032949
#
#
# Mechanical properties :
#
#
# Convention : Reuss Voigt Hill
#
# Bulk Modulus (GPa) = 75.54090 75.61483 75.57787
# Shear Modulus (GPa) = 31.70019 36.28054 33.99037
#
# Velocity S-wave (km/s) = 3.94499 4.22038 4.08501
# Velocity P-wave (km/s) = 7.60504 7.80200 7.70415
#
# Compressibility (1/GPa) = 0.01323786
#
# Stress axis : x y z
#
# Youngs Moduli (GPa) = 124.54423 113.27300 87.56669
#
# Poissons Ratio (x) = 0.08118 0.24449
# Poissons Ratio (y) = 0.08925 0.35123
# Poissons Ratio (z) = 0.34774 0.45434
#
# Static dielectric constant tensor:
#      x y z
#    x 3.806940 0.000000 0.000000 
#    y 0.000000 3.696930 0.000000 
#    z 0.000000 0.000000 4.198530 
# 
# 
# High freq. dielectric constant tensor:
#      x y z
#    x 1.822420 0.000000 0.000000 
#    y 0.000000 1.789800 0.000000 
#    z 0.000000 0.000000 1.791240 
# 
# From -- ./inp_files/3984.got.cif
#   From: 2010.03.12/outbox.cif.g09.slc.cpg/sg70_2_cif.got.tgz:3984.got - 2010.04.16 13:46:32.
