data_PCOD8286477
_publ_section_title
;
Structure prediction by ZEFSAII (Michael W. Deem and Ramdas Pophale) SiO2 
 PCOD8286477
Probable space group: F D D D
;
_chemical_formula_sum "Si O2"
_cell_formula_units_Z 176
_cell_length_a 16.392904
_cell_length_b 20.411588
_cell_length_c 24.333309
_cell_angle_alpha 90.000000
_cell_angle_beta 90.000000
_cell_angle_gamma 90.000000
_cell_volume 8142.051787
_symmetry_space_group_name_H-M "F D D D"
_symmetry_group_IT_number 70
_space_group.IT_coordinate_system_code '2'
_symmetry_cell_setting 'orthorhombic'
loop_
_space_group_symop_operation_xyz
x,y,z
1/4-x,1/4-y,z
x,1/4-y,1/4-z
1/4-x,y,1/4-z
-x,-y,-z
3/4+x,3/4+y,-z
-x,3/4+y,3/4+z
3/4+x,-y,3/4+z
x,1/2+y,1/2+z
1/4-x,3/4-y,1/2+z
x,3/4-y,3/4-z
1/4-x,1/2+y,3/4-z
-x,1/2-y,1/2-z
3/4+x,1/4+y,1/2-z
-x,1/4+y,1/4+z
3/4+x,1/2-y,1/4+z
1/2+x,y,1/2+z
3/4-x,1/4-y,1/2+z
1/2+x,1/4-y,3/4-z
3/4-x,y,3/4-z
1/2-x,-y,1/2-z
1/4+x,3/4+y,1/2-z
1/2-x,3/4+y,1/4+z
1/4+x,-y,1/4+z
1/2+x,1/2+y,z
3/4-x,3/4-y,z
1/2+x,3/4-y,1/4-z
3/4-x,1/2+y,1/4-z
1/2-x,1/2-y,-z
1/4+x,1/4+y,-z
1/2-x,1/4+y,3/4+z
1/4+x,1/2-y,3/4+z
loop_
_atom_site_type_symbol
_atom_site_label
_atom_site_fract_x
_atom_site_fract_y
_atom_site_fract_z
Si Si1 0.416538 0.066823 0.585870
Si Si2 0.096778 0.195361 0.186371
Si Si3 0.625000 0.829157 0.625000
Si Si4 0.152128 0.919478 0.026640
Si Si5 0.794787 0.906107 0.257045
Si Si6 0.717389 0.998482 0.339211
O O1 0.444806 0.125000 0.625000
O O2 0.500821 0.035176 0.563682
O O3 0.377724 0.101609 0.533346
O O4 0.353840 0.016279 0.615912
O O5 0.125000 0.125000 0.212464
O O6 0.125000 0.197554 0.125000
O O7 0.143061 0.252491 0.218860
O O8 0.606655 0.876765 0.573231
O O9 0.544559 0.784620 0.632507
O O10 0.246846 0.899936 0.026737
O O11 0.875000 0.875000 0.282383
O O12 0.818794 0.960619 0.211856
O O13 0.747810 0.931692 0.310965
#
# Coordination Sequence:
#
# PCOD8286477 Si02
#       6
#    32  32  16  32  32  32
#     4  12  24  42  66 100 136 173 225 280 340 403
#     4  11  24  44  70  96 130 179 226 280 343 404
#     4  10  24  44  68  96 136 180 226 276 344 406
#     4  11  24  45  68  97 135 177 224 286 337 409
#     4  10  23  41  68  97 134 181 226 277 343 406
#     4  10  24  42  63 102 137 174 228 281 334 411
#
# _framework density 21.616171999999999
#
# number of rings (size 3 to 8) (size 9 to 14) (size 15 to 20)
#    0.000    1.273    4.545    0.545    5.091    1.455 
#    0.000    0.909    0.000    0.000    0.000    0.000 
#    0.000    0.000    0.000    0.000    0.000    0.000 
#
# Total GULP energy -545267.749634 kJ/mol
# GULP energy per Si atom -12392.448855 kJ/mol
# Density = 2.156697 g / cm^3
# Si number density = 21.616172 Si / 1000 Ang^3
#
#
#
# Elastic Constant Matrix: (Units=GPa)
#
#
# Indices 1 2 3 4 5 6 
#
# 1 120.9146 64.6665 26.7711 0.0000 0.0000 0.0000
# 2 64.6665 131.5136 39.1007 0.0000 0.0000 0.0000
# 3 26.7711 39.1007 103.0655 0.0000 0.0000 0.0000
# 4 0.0000 0.0000 0.0000 -0.3262 0.0000 0.0000
# 5 0.0000 0.0000 0.0000 0.0000 18.9417 0.0000
# 6 0.0000 0.0000 0.0000 0.0000 0.0000 28.5477
#
#
#
# Elastic Compliance Matrix: (Units=1/GPa)
#
#
# Indices 1 2 3 4 5 6 
#
# 1 0.011300 -0.005279 -0.000932 0.000000 0.000000 0.000000
# 2 -0.005279 0.011037 -0.002816 0.000000 0.000000 0.000000
# 3 -0.000932 -0.002816 0.011013 0.000000 0.000000 0.000000
# 4 0.000000 0.000000 0.000000 -3.065673 0.000000 0.000000
# 5 0.000000 0.000000 0.000000 0.000000 0.052794 0.000000
# 6 0.000000 0.000000 0.000000 0.000000 0.000000 0.035029
#
#
# Mechanical properties :
#
#
# Convention : Reuss Voigt Hill
#
# Bulk Modulus (GPa) = 65.38039 68.50779 66.94409
# Shear Modulus (GPa) = -1.71154 24.42967 11.35906
#
# Velocity S-wave (km/s) = -0.89079 3.36543 2.29484
# Velocity P-wave (km/s) = 5.40867 6.84566 6.16915
#
# Compressibility (1/GPa) = 0.01529511
#
# Stress axis : x y z
#
# Youngs Moduli (GPa) = 88.49500 90.60626 90.80159
#
# Poissons Ratio (x) = 0.47832 0.08466
# Poissons Ratio (y) = 0.46718 0.25568
# Poissons Ratio (z) = 0.08251 0.25513
#
# Static dielectric constant tensor:
#      x y z
#    x 5.535560 0.000000 0.000000 
#    y 0.000000 4.219020 0.000000 
#    z 0.000000 0.000000 3.858070 
# 
# 
# High freq. dielectric constant tensor:
#      x y z
#    x 1.850510 0.000000 0.000000 
#    y 0.000000 1.847950 0.000000 
#    z 0.000000 0.000000 1.850670 
# 
# From -- ./inp_files/51195.got.cif
#   From: 2010.03.12/outbox.cif.g09.slc.cpg/sg70_26_cif.got.tgz:51195.got - 2010.04.16 13:46:32.
