data_PCOD8287340
_publ_section_title
;
Structure prediction by ZEFSAII (Michael W. Deem and Ramdas Pophale) SiO2 
 PCOD8287340
Probable space group: I M M M
;
_chemical_formula_sum "Si O2"
_cell_formula_units_Z 80
_cell_length_a 8.655642
_cell_length_b 20.074706
_cell_length_c 25.920415
_cell_angle_alpha 90.000000
_cell_angle_beta 90.000000
_cell_angle_gamma 90.000000
_cell_volume 4503.917531
_symmetry_space_group_name_H-M "I M M M"
_symmetry_group_IT_number 71
_symmetry_cell_setting 'orthorhombic'
loop_
_space_group_symop_operation_xyz
x,y,z
-x,-y,z
x,-y,-z
-x,y,-z
-x,-y,-z
x,y,-z
-x,y,z
x,-y,z
1/2+x,1/2+y,1/2+z
1/2-x,1/2-y,1/2+z
1/2+x,1/2-y,1/2-z
1/2-x,1/2+y,1/2-z
1/2-x,1/2-y,1/2-z
1/2+x,1/2+y,1/2-z
1/2-x,1/2+y,1/2+z
1/2+x,1/2-y,1/2+z
loop_
_atom_site_type_symbol
_atom_site_label
_atom_site_fract_x
_atom_site_fract_y
_atom_site_fract_z
Si Si1 0.183536 0.574440 0.304899
Si Si2 0.329200 0.674068 0.000000
Si Si3 0.314297 0.176524 0.889575
Si Si4 0.831559 0.668288 0.500000
Si Si5 0.816399 0.425762 0.189874
Si Si6 0.683250 0.821001 0.606623
O O1 0.241444 0.500000 0.318974
O O2 0.251239 0.626962 0.346017
O O3 0.240787 0.593982 0.247479
O O4 0.000000 0.576479 0.307176
O O5 0.347341 0.752655 0.000000
O O6 0.236986 0.651878 0.050984
O O7 0.500000 0.641254 0.000000
O O8 0.500000 0.179478 0.891462
O O9 0.249210 0.149669 0.945573
O O10 0.252470 0.249843 0.877900
O O11 0.000000 0.634209 0.500000
O O12 0.756079 0.500000 0.175994
O O13 0.751681 0.372973 0.148866
O O14 0.000000 0.425647 0.188860
O O15 0.500000 0.815956 0.607053
#
# Coordination Sequence:
#
# PCOD8287340 Si02
#       6
#    16   8  16   8  16  16
#     4   8  14  26  44  64  87 120 160 194 224 262
#     4   9  17  31  48  65  90 120 146 178 222 270
#     4   9  16  27  44  65  91 122 153 188 228 266
#     4   7  12  23  38  58  84 112 138 167 212 260
#     4   8  15  28  44  63  89 119 152 192 231 264
#     4  10  18  28  46  70  91 114 148 187 227 273
#
# _framework density 17.762314
#
# number of rings (size 3 to 8) (size 9 to 14) (size 15 to 20)
#    0.000    3.400    0.000    3.300    0.000    0.800 
#    0.000    1.000    0.000   10.200    0.000    5.600 
#    0.000    4.800    0.000    0.000    0.000    0.000 
#
# Total GULP energy -495548.685771 kJ/mol
# GULP energy per Si atom -12388.717144 kJ/mol
# Density = 1.772189 g / cm^3
# Si number density = 17.762314 Si / 1000 Ang^3
#
#
#
# Elastic Constant Matrix: (Units=GPa)
#
#
# Indices 1 2 3 4 5 6 
#
# 1 29.3401 16.6562 21.0191 0.0000 0.0000 0.0000
# 2 16.6562 108.3354 106.2051 0.0000 0.0000 0.0000
# 3 21.0191 106.2051 189.7958 0.0000 0.0000 0.0000
# 4 0.0000 0.0000 0.0000 18.3357 0.0000 0.0000
# 5 0.0000 0.0000 0.0000 0.0000 14.8701 0.0000
# 6 0.0000 0.0000 0.0000 0.0000 0.0000 16.6676
#
#
#
# Elastic Compliance Matrix: (Units=1/GPa)
#
#
# Indices 1 2 3 4 5 6 
#
# 1 0.037704 -0.003773 -0.002064 0.000000 0.000000 0.000000
# 2 -0.003773 0.020825 -0.011235 0.000000 0.000000 0.000000
# 3 -0.002064 -0.011235 0.011784 0.000000 0.000000 0.000000
# 4 0.000000 0.000000 0.000000 0.054538 0.000000 0.000000
# 5 0.000000 0.000000 0.000000 0.000000 0.067249 0.000000
# 6 0.000000 0.000000 0.000000 0.000000 0.000000 0.059997
#
#
# Mechanical properties :
#
#
# Convention : Reuss Voigt Hill
#
# Bulk Modulus (GPa) = 27.64886 68.35911 48.00399
# Shear Modulus (GPa) = 16.76170 22.21408 19.48789
#
# Velocity S-wave (km/s) = 3.07525 3.54026 3.31592
# Velocity P-wave (km/s) = 5.31125 7.43507 6.46102
#
# Compressibility (1/GPa) = 0.03616786
#
# Stress axis : x y z
#
# Youngs Moduli (GPa) = 26.52251 48.01877 84.85755
#
# Poissons Ratio (x) = 0.18119 0.17515
# Poissons Ratio (y) = 0.10008 0.95341
# Poissons Ratio (z) = 0.05474 0.53951
#
# Static dielectric constant tensor:
#      x y z
#    x 2.857710 0.000000 0.000000 
#    y 0.000000 3.259480 0.000000 
#    z 0.000000 0.000000 3.910360 
# 
# 
# High freq. dielectric constant tensor:
#      x y z
#    x 1.640970 0.000000 0.000000 
#    y 0.000000 1.662930 0.000000 
#    z 0.000000 0.000000 1.706160 
# 
# From -- ./inp_files/10239.got.cif
#   From: 2010.06.25/outbox.cif.g09.slc.cpg/sg71_6_cif.got.tgz:10239.got - 2010.06.28 04:59:45.
