data_PCOD8287070
_publ_section_title
;
Structure prediction by ZEFSAII (Michael W. Deem and Ramdas Pophale) SiO2 
 PCOD8287070
Probable space group: I M M M
;
_chemical_formula_sum "Si O2"
_cell_formula_units_Z 88
_cell_length_a 22.783464
_cell_length_b 24.206030
_cell_length_c 8.979691
_cell_angle_alpha 90.000000
_cell_angle_beta 90.000000
_cell_angle_gamma 90.000000
_cell_volume 4952.274561
_symmetry_space_group_name_H-M "I M M M"
_symmetry_group_IT_number 71
_symmetry_cell_setting 'orthorhombic'
loop_
_space_group_symop_operation_xyz
x,y,z
-x,-y,z
x,-y,-z
-x,y,-z
-x,-y,-z
x,y,-z
-x,y,z
x,-y,z
1/2+x,1/2+y,1/2+z
1/2-x,1/2-y,1/2+z
1/2+x,1/2-y,1/2-z
1/2-x,1/2+y,1/2-z
1/2-x,1/2-y,1/2-z
1/2+x,1/2+y,1/2-z
1/2-x,1/2+y,1/2+z
1/2+x,1/2-y,1/2+z
loop_
_atom_site_type_symbol
_atom_site_label
_atom_site_fract_x
_atom_site_fract_y
_atom_site_fract_z
Si Si1 0.649530 0.935146 0.670895
Si Si2 0.567734 0.261112 0.675069
Si Si3 0.389087 0.367909 0.822919
Si Si4 0.932471 0.351270 0.326715
Si Si5 0.719019 0.561113 0.823591
Si Si6 0.000000 0.938014 0.676767
O O1 0.638528 0.917856 0.500000
O O2 0.604735 0.903829 0.776981
O O3 0.715696 0.919263 0.721011
O O4 0.639101 0.000000 0.691661
O O5 0.577470 0.261680 0.500000
O O6 0.500000 0.271317 0.719184
O O7 0.607304 0.308059 0.749210
O O8 0.589331 0.202536 0.737951
O O9 0.328968 0.395620 0.764155
O O10 0.442572 0.405975 0.766178
O O11 0.390400 0.361083 0.000000
O O12 0.922946 0.339972 0.500000
O O13 0.000000 0.364243 0.289129
O O14 0.706158 0.500000 0.757080
O O15 0.714530 0.556826 0.000000
O O16 0.000000 0.941026 0.500000
O O17 0.000000 0.000000 0.743364
#
# Coordination Sequence:
#
# PCOD8287070 Si02
#       6
#    16  16  16  16  16   8
#     4   9  18  34  55  78 105 136 167 199 243 301
#     4  10  20  34  51  71 100 136 171 208 255 308
#     4  10  17  28  49  75 102 133 173 215 252 291
#     4  10  21  36  55  78 102 127 162 209 256 301
#     4   8  15  29  50  75 103 136 172 209 247 291
#     4   9  16  24  41  73 105 131 166 213 254 289
#
# _framework density 17.769611999999999
#
# number of rings (size 3 to 8) (size 9 to 14) (size 15 to 20)
#    0.000    2.636    0.909    2.727    0.000    4.727 
#    0.000    3.636    0.000    3.818    0.000    0.000 
#    0.000    0.000    0.000    0.000    0.000    0.000 
#
# Total GULP energy -545613.504239 kJ/mol
# GULP energy per Si atom -12400.306915 kJ/mol
# Density = 1.772917 g / cm^3
# Si number density = 17.769612 Si / 1000 Ang^3
#
#
#
# Elastic Constant Matrix: (Units=GPa)
#
#
# Indices 1 2 3 4 5 6 
#
# 1 106.9086 68.1931 34.2083 0.0000 0.0000 0.0000
# 2 68.1931 104.6591 35.2391 0.0000 0.0000 0.0000
# 3 34.2083 35.2391 46.6914 0.0000 0.0000 0.0000
# 4 0.0000 0.0000 0.0000 27.4753 0.0000 0.0000
# 5 0.0000 0.0000 0.0000 0.0000 18.8946 0.0000
# 6 0.0000 0.0000 0.0000 0.0000 0.0000 28.8035
#
#
#
# Elastic Compliance Matrix: (Units=1/GPa)
#
#
# Indices 1 2 3 4 5 6 
#
# 1 0.016994 -0.009225 -0.005488 0.000000 0.000000 0.000000
# 2 -0.009225 0.017818 -0.006689 0.000000 0.000000 0.000000
# 3 -0.005488 -0.006689 0.030487 0.000000 0.000000 0.000000
# 4 0.000000 0.000000 0.000000 0.036396 0.000000 0.000000
# 5 0.000000 0.000000 0.000000 0.000000 0.052925 0.000000
# 6 0.000000 0.000000 0.000000 0.000000 0.000000 0.034718
#
#
# Mechanical properties :
#
#
# Convention : Reuss Voigt Hill
#
# Bulk Modulus (GPa) = 44.45634 59.28226 51.86930
# Shear Modulus (GPa) = 20.86457 23.07591 21.97024
#
# Velocity S-wave (km/s) = 3.43034 3.60754 3.52005
# Velocity P-wave (km/s) = 6.38452 7.12646 6.76567
#
# Compressibility (1/GPa) = 0.02249398
#
# Stress axis : x y z
#
# Youngs Moduli (GPa) = 58.84336 56.12378 32.80140
#
# Poissons Ratio (x) = 0.51774 0.18003
# Poissons Ratio (y) = 0.54283 0.21940
# Poissons Ratio (z) = 0.32296 0.37540
#
# Static dielectric constant tensor:
#      x y z
#    x 3.377980 0.000000 0.000000 
#    y 0.000000 3.327520 0.000000 
#    z 0.000000 0.000000 2.968040 
# 
# 
# High freq. dielectric constant tensor:
#      x y z
#    x 1.681260 0.000000 0.000000 
#    y 0.000000 1.691470 0.000000 
#    z 0.000000 0.000000 1.659480 
# 
# From -- ./inp_files/10480.got.cif
#   From: 2010.06.25/outbox.cif.g09.slc.cpg/sg71_6_cif.got.tgz:10480.got - 2010.06.28 04:59:45.
