data_PCOD8287417
_publ_section_title
;
Structure prediction by ZEFSAII (Michael W. Deem and Ramdas Pophale) SiO2 
 PCOD8287417
Probable space group: I M M M
;
_chemical_formula_sum "Si O2"
_cell_formula_units_Z 128
_cell_length_a 23.106829
_cell_length_b 18.284585
_cell_length_c 17.766543
_cell_angle_alpha 90.000000
_cell_angle_beta 90.000000
_cell_angle_gamma 90.000000
_cell_volume 7506.342723
_symmetry_space_group_name_H-M "I M M M"
_symmetry_group_IT_number 71
_symmetry_cell_setting 'orthorhombic'
loop_
_space_group_symop_operation_xyz
x,y,z
-x,-y,z
x,-y,-z
-x,y,-z
-x,-y,-z
x,y,-z
-x,y,z
x,-y,z
1/2+x,1/2+y,1/2+z
1/2-x,1/2-y,1/2+z
1/2+x,1/2-y,1/2-z
1/2-x,1/2+y,1/2-z
1/2-x,1/2-y,1/2-z
1/2+x,1/2+y,1/2-z
1/2-x,1/2+y,1/2+z
1/2+x,1/2-y,1/2+z
loop_
_atom_site_type_symbol
_atom_site_label
_atom_site_fract_x
_atom_site_fract_y
_atom_site_fract_z
Si Si1 0.787761 0.580599 0.764285
Si Si2 0.181178 0.631795 0.083165
Si Si3 0.566669 0.280651 0.912671
Si Si4 0.718973 0.295986 0.416670
Si Si5 0.167209 0.711080 0.676001
Si Si6 0.330332 0.353908 0.274967
Si Si7 0.061718 0.581474 0.088528
Si Si8 0.934100 0.916131 0.311129
O O1 0.808270 0.500000 0.739115
O O2 0.784903 0.584889 0.855116
O O3 0.832985 0.639734 0.729914
O O4 0.721940 0.590594 0.738359
O O5 0.206599 0.711264 0.078909
O O6 0.113868 0.635471 0.110167
O O7 0.186358 0.594620 0.000000
O O8 0.500000 0.256770 0.901891
O O9 0.605989 0.223116 0.866250
O O10 0.576587 0.363508 0.882845
O O11 0.584754 0.279866 0.000000
O O12 0.715438 0.331311 0.500000
O O13 0.783665 0.304292 0.385468
O O14 0.671024 0.334096 0.363536
O O15 0.182378 0.781258 0.726459
O O16 0.391433 0.391703 0.256094
O O17 0.075619 0.500000 0.119779
O O18 0.000000 0.609371 0.122609
O O19 0.055103 0.577584 0.000000
O O20 0.000000 0.907748 0.281651
O O21 0.921713 0.000000 0.335425
#
# Coordination Sequence:
#
# PCOD8287417 Si02
#       8
#    16  16  16  16  16  16  16  16
#     4  11  20  31  49  73  99 133 167 205 251 298
#     4  10  18  29  45  70  98 125 158 199 246 299
#     4   9  18  32  54  80 103 133 169 204 246 296
#     4  10  18  30  51  73  94 127 167 207 249 290
#     4  10  18  34  51  70 101 136 169 205 244 303
#     4  10  18  34  51  70 100 135 171 203 244 301
#     4   8  14  25  39  54  80 121 157 183 220 273
#     4   9  18  32  52  78 106 135 164 198 247 304
#
# _framework density 17.052244999999999
#
# number of rings (size 3 to 8) (size 9 to 14) (size 15 to 20)
#    0.000    2.375    2.500    2.250    0.000    1.000 
#    0.000    2.500    0.000   16.500    0.000    1.750 
#    0.000    0.000    0.000    0.000    0.000    0.000 
#
# Total GULP energy -793085.639071 kJ/mol
# GULP energy per Si atom -12391.963110 kJ/mol
# Density = 1.701343 g / cm^3
# Si number density = 17.052245 Si / 1000 Ang^3
#
#
#
# Elastic Constant Matrix: (Units=GPa)
#
#
# Indices 1 2 3 4 5 6 
#
# 1 68.3714 26.6571 37.2312 0.0000 0.0000 0.0000
# 2 26.6571 83.7418 34.5218 0.0000 0.0000 0.0000
# 3 37.2312 34.5218 109.4269 0.0000 0.0000 0.0000
# 4 0.0000 0.0000 0.0000 29.2256 0.0000 0.0000
# 5 0.0000 0.0000 0.0000 0.0000 23.5337 0.0000
# 6 0.0000 0.0000 0.0000 0.0000 0.0000 12.1472
#
#
#
# Elastic Compliance Matrix: (Units=1/GPa)
#
#
# Indices 1 2 3 4 5 6 
#
# 1 0.018993 -0.003888 -0.005236 0.000000 0.000000 0.000000
# 2 -0.003888 0.014522 -0.003259 0.000000 0.000000 0.000000
# 3 -0.005236 -0.003259 0.011948 0.000000 0.000000 0.000000
# 4 0.000000 0.000000 0.000000 0.034217 0.000000 0.000000
# 5 0.000000 0.000000 0.000000 0.000000 0.042492 0.000000
# 6 0.000000 0.000000 0.000000 0.000000 0.000000 0.082324
#
#
# Mechanical properties :
#
#
# Convention : Reuss Voigt Hill
#
# Bulk Modulus (GPa) = 48.31116 50.92892 49.62004
# Shear Modulus (GPa) = 21.17217 23.85664 22.51441
#
# Velocity S-wave (km/s) = 3.52747 3.74442 3.63756
# Velocity P-wave (km/s) = 6.70697 6.97320 6.84138
#
# Compressibility (1/GPa) = 0.02069915
#
# Stress axis : x y z
#
# Youngs Moduli (GPa) = 52.65176 68.85920 83.69626
#
# Poissons Ratio (x) = 0.26769 0.43820
# Poissons Ratio (y) = 0.20469 0.27275
# Poissons Ratio (z) = 0.27566 0.22440
#
# Static dielectric constant tensor:
#      x y z
#    x 3.362570 0.000000 0.000000 
#    y 0.000000 3.043940 0.000000 
#    z 0.000000 0.000000 3.392830 
# 
# 
# High freq. dielectric constant tensor:
#      x y z
#    x 1.659070 0.000000 0.000000 
#    y 0.000000 1.635780 0.000000 
#    z 0.000000 0.000000 1.644930 
# 
# From -- ./inp_files/48411.got.cif
#   From: 2010.06.25/outbox.cif.g09.slc.cpg/sg71_25_cif.got.tgz:48411.got - 2010.06.28 04:59:45.
