data_PCOD8287747
_publ_section_title
;
Structure prediction by ZEFSAII (Michael W. Deem and Ramdas Pophale) SiO2 
 PCOD8287747
Probable space group: I M M M
;
_chemical_formula_sum "Si O2"
_cell_formula_units_Z 96
_cell_length_a 28.617527
_cell_length_b 9.220789
_cell_length_c 27.722430
_cell_angle_alpha 90.000000
_cell_angle_beta 90.000000
_cell_angle_gamma 90.000000
_cell_volume 7315.288878
_symmetry_space_group_name_H-M "I M M M"
_symmetry_group_IT_number 71
_symmetry_cell_setting 'orthorhombic'
loop_
_space_group_symop_operation_xyz
x,y,z
-x,-y,z
x,-y,-z
-x,y,-z
-x,-y,-z
x,y,-z
-x,y,z
x,-y,z
1/2+x,1/2+y,1/2+z
1/2-x,1/2-y,1/2+z
1/2+x,1/2-y,1/2-z
1/2-x,1/2+y,1/2-z
1/2-x,1/2-y,1/2-z
1/2+x,1/2+y,1/2-z
1/2-x,1/2+y,1/2+z
1/2+x,1/2-y,1/2+z
loop_
_atom_site_type_symbol
_atom_site_label
_atom_site_fract_x
_atom_site_fract_y
_atom_site_fract_z
Si Si1 0.275841 0.665907 0.603384
Si Si2 0.808502 0.167449 0.000000
Si Si3 0.905594 0.672666 0.000000
Si Si4 0.226599 0.836306 0.680458
Si Si5 0.553712 0.666339 0.410173
Si Si6 0.367493 0.666549 0.337623
Si Si7 0.679057 0.836215 0.741645
O O1 0.262602 0.500000 0.614192
O O2 0.276483 0.699691 0.546483
O O3 0.236410 0.764153 0.628533
O O4 0.327169 0.701907 0.623713
O O5 0.852963 0.270674 0.000000
O O6 0.825805 0.000000 0.000000
O O7 0.933069 0.727954 0.953398
O O8 0.905074 0.500000 0.000000
O O9 0.273479 0.830448 0.711520
O O10 0.185870 0.749629 0.708259
O O11 0.209485 0.000000 0.672336
O O12 0.500000 0.689302 0.396232
O O13 0.563937 0.500000 0.425933
O O14 0.583496 0.705491 0.362670
O O15 0.365035 0.500000 0.321197
O O16 0.361970 0.762900 0.289665
O O17 0.664425 0.000000 0.753785
#
# Coordination Sequence:
#
# PCOD8287747 Si02
#       7
#    16   8   8  16  16  16  16
#     4   9  16  26  41  55  71  93 120 152 184 219
#     4  10  18  31  45  56  72  99 130 156 187 231
#     4  12  23  31  42  57  74  92 120 162 204 237
#     4   9  16  25  37  54  75  94 114 141 175 215
#     4  10  20  34  48  57  69  94 126 157 193 240
#     4   9  16  27  42  57  71  89 116 150 187 225
#     4   9  16  25  38  55  74  93 114 138 174 220
#
# _framework density 13.123200000000001
#
# number of rings (size 3 to 8) (size 9 to 14) (size 15 to 20)
#    0.000    2.500    1.667    2.000    0.000    6.667 
#    0.000    0.000    0.000    0.000    0.000    0.000 
#    0.000    0.000    0.000    0.000    0.000    0.000 
#
# Total GULP energy -595198.416113 kJ/mol
# GULP energy per Si atom -12399.967002 kJ/mol
# Density = 1.309333 g / cm^3
# Si number density = 13.123200 Si / 1000 Ang^3
#
#
#
# Elastic Constant Matrix: (Units=GPa)
#
#
# Indices 1 2 3 4 5 6 
#
# 1 43.0330 40.0285 47.2387 0.0000 0.0000 0.0000
# 2 40.0285 99.2860 57.3934 0.0000 0.0000 0.0000
# 3 47.2387 57.3934 90.6993 0.0000 0.0000 0.0000
# 4 0.0000 0.0000 0.0000 21.2911 0.0000 0.0000
# 5 0.0000 0.0000 0.0000 0.0000 -1.1933 0.0000
# 6 0.0000 0.0000 0.0000 0.0000 0.0000 12.1194
#
#
#
# Elastic Compliance Matrix: (Units=1/GPa)
#
#
# Indices 1 2 3 4 5 6 
#
# 1 0.059531 -0.009583 -0.024941 0.000000 0.000000 0.000000
# 2 -0.009583 0.017424 -0.006034 0.000000 0.000000 0.000000
# 3 -0.024941 -0.006034 0.027834 0.000000 0.000000 0.000000
# 4 0.000000 0.000000 0.000000 0.046968 0.000000 0.000000
# 5 0.000000 0.000000 0.000000 0.000000 -0.838025 0.000000
# 6 0.000000 0.000000 0.000000 0.000000 0.000000 0.082512
#
#
# Mechanical properties :
#
#
# Convention : Reuss Voigt Hill
#
# Bulk Modulus (GPa) = 42.24554 58.03772 50.14163
# Shear Modulus (GPa) = -9.71349 12.33395 1.31023
#
# Velocity S-wave (km/s) = -2.72357 3.06904 1.00029
# Velocity P-wave (km/s) = 4.72979 7.54188 6.29487
#
# Compressibility (1/GPa) = 0.02367114
#
# Stress axis : x y z
#
# Youngs Moduli (GPa) = 16.79799 57.39310 35.92723
#
# Poissons Ratio (x) = 0.55000 0.89607
# Poissons Ratio (y) = 0.16098 0.21680
# Poissons Ratio (z) = 0.41896 0.34633
#
# Static dielectric constant tensor:
#      x y z
#    x 2.327140 0.000000 0.000000 
#    y 0.000000 2.739320 0.000000 
#    z 0.000000 0.000000 2.620510 
# 
# 
# High freq. dielectric constant tensor:
#      x y z
#    x 1.446610 0.000000 0.000000 
#    y 0.000000 1.508860 0.000000 
#    z 0.000000 0.000000 1.486290 
# 
# From -- ./inp_files/71230.got.cif
#   From: 2010.06.25/outbox.cif.g09.slc.cpg/sg71_36_cif.got.tgz:71230.got - 2010.06.28 04:59:45.
