data_PCOD8287606
_publ_section_title
;
Structure prediction by ZEFSAII (Michael W. Deem and Ramdas Pophale) SiO2 
 PCOD8287606
Probable space group: I M M M
;
_chemical_formula_sum "Si O2"
_cell_formula_units_Z 128
_cell_length_a 12.822665
_cell_length_b 25.109937
_cell_length_c 22.289000
_cell_angle_alpha 90.000000
_cell_angle_beta 90.000000
_cell_angle_gamma 90.000000
_cell_volume 7176.529981
_symmetry_space_group_name_H-M "I M M M"
_symmetry_group_IT_number 71
_symmetry_cell_setting 'orthorhombic'
loop_
_space_group_symop_operation_xyz
x,y,z
-x,-y,z
x,-y,-z
-x,y,-z
-x,-y,-z
x,y,-z
-x,y,z
x,-y,z
1/2+x,1/2+y,1/2+z
1/2-x,1/2-y,1/2+z
1/2+x,1/2-y,1/2-z
1/2-x,1/2+y,1/2-z
1/2-x,1/2-y,1/2-z
1/2+x,1/2+y,1/2-z
1/2-x,1/2+y,1/2+z
1/2+x,1/2-y,1/2+z
loop_
_atom_site_type_symbol
_atom_site_label
_atom_site_fract_x
_atom_site_fract_y
_atom_site_fract_z
Si Si1 0.380519 0.677589 0.729736
Si Si2 0.881498 0.839181 0.431496
Si Si3 0.121156 0.562195 0.256095
Si Si4 0.801413 0.724378 0.569518
Si Si5 0.240610 0.362852 0.169575
Si Si6 0.613950 0.559438 0.570700
Si Si7 0.772093 0.375946 0.641933
Si Si8 0.615737 0.766185 0.361362
O O1 0.500000 0.659733 0.739764
O O2 0.318840 0.674272 0.791987
O O3 0.325185 0.637979 0.683944
O O4 0.373179 0.736980 0.703025
O O5 0.846549 0.848611 0.500000
O O6 0.872098 0.775991 0.416010
O O7 0.807448 0.876573 0.390225
O O8 0.000000 0.856855 0.421039
O O9 0.147180 0.500000 0.261639
O O10 0.196100 0.585552 0.203668
O O11 0.144122 0.590513 0.319755
O O12 0.000000 0.571563 0.239831
O O13 0.809889 0.707673 0.500000
O O14 0.832975 0.674395 0.612052
O O15 0.683055 0.739501 0.586049
O O16 0.142436 0.327485 0.150323
O O17 0.617211 0.557843 0.500000
O O18 0.500000 0.583357 0.590941
O O19 0.623038 0.500000 0.597302
O O20 0.716748 0.591098 0.589861
O O21 0.500000 0.762233 0.386654
#
# Coordination Sequence:
#
# PCOD8287606 Si02
#       8
#    16  16  16  16  16  16  16  16
#     4   9  17  27  41  66  97 124 156 199 245 294
#     4   9  18  33  53  78 108 135 157 188 234 292
#     4  10  22  38  54  73  97 127 166 212 257 294
#     4   9  18  30  45  71 103 135 170 201 235 285
#     4  10  18  31  52  72  93 127 166 200 240 295
#     4   9  17  28  43  64  89 122 169 222 271 311
#     4  10  18  30  48  68  95 132 170 208 248 293
#     4   9  17  28  42  65  97 129 163 205 247 287
#
# _framework density 17.835919000000001
#
# number of rings (size 3 to 8) (size 9 to 14) (size 15 to 20)
#    0.000    2.625    0.000    2.625    0.000    2.250 
#    0.000    0.000    0.000   10.125    0.000    6.125 
#    0.000    0.000    0.000    0.000    0.000    0.000 
#
# Total GULP energy -793188.882482 kJ/mol
# GULP energy per Si atom -12393.576289 kJ/mol
# Density = 1.779532 g / cm^3
# Si number density = 17.835919 Si / 1000 Ang^3
#
#
#
# Elastic Constant Matrix: (Units=GPa)
#
#
# Indices 1 2 3 4 5 6 
#
# 1 73.9788 21.0743 30.1588 0.0000 0.0000 0.0000
# 2 21.0743 63.8197 29.3470 0.0000 0.0000 0.0000
# 3 30.1588 29.3470 80.7089 0.0000 0.0000 0.0000
# 4 0.0000 0.0000 0.0000 22.1037 0.0000 0.0000
# 5 0.0000 0.0000 0.0000 0.0000 25.9386 0.0000
# 6 0.0000 0.0000 0.0000 0.0000 0.0000 21.8698
#
#
#
# Elastic Compliance Matrix: (Units=1/GPa)
#
#
# Indices 1 2 3 4 5 6 
#
# 1 0.016451 -0.003129 -0.005010 0.000000 0.000000 0.000000
# 2 -0.003129 0.019410 -0.005889 0.000000 0.000000 0.000000
# 3 -0.005010 -0.005889 0.016403 0.000000 0.000000 0.000000
# 4 0.000000 0.000000 0.000000 0.045241 0.000000 0.000000
# 5 0.000000 0.000000 0.000000 0.000000 0.038553 0.000000
# 6 0.000000 0.000000 0.000000 0.000000 0.000000 0.045725
#
#
# Mechanical properties :
#
#
# Convention : Reuss Voigt Hill
#
# Bulk Modulus (GPa) = 41.30462 42.18530 41.74496
# Shear Modulus (GPa) = 22.94546 23.17756 23.06151
#
# Velocity S-wave (km/s) = 3.59064 3.60875 3.59971
# Velocity P-wave (km/s) = 6.35599 6.40838 6.38224
#
# Compressibility (1/GPa) = 0.02421037
#
# Stress axis : x y z
#
# Youngs Moduli (GPa) = 60.78685 51.51931 60.96297
#
# Poissons Ratio (x) = 0.16119 0.30540
# Poissons Ratio (y) = 0.19019 0.35899
# Poissons Ratio (z) = 0.30452 0.30338
#
# Static dielectric constant tensor:
#      x y z
#    x 3.299380 0.000000 0.000000 
#    y 0.000000 3.102560 0.000000 
#    z 0.000000 0.000000 3.302490 
# 
# 
# High freq. dielectric constant tensor:
#      x y z
#    x 1.689670 0.000000 0.000000 
#    y 0.000000 1.660780 0.000000 
#    z 0.000000 0.000000 1.686620 
# 
# From -- ./inp_files/59291.got.cif
#   From: 2010.06.25/outbox.cif.g09.slc.cpg/sg71_30_cif.got.tgz:59291.got - 2010.06.28 04:59:45.
