data_PCOD8287375
_publ_section_title
;
Structure prediction by ZEFSAII (Michael W. Deem and Ramdas Pophale) SiO2 
 PCOD8287375
Probable space group: I M M M
;
_chemical_formula_sum "Si O2"
_cell_formula_units_Z 88
_cell_length_a 23.935523
_cell_length_b 30.343735
_cell_length_c 8.817099
_cell_angle_alpha 90.000000
_cell_angle_beta 90.000000
_cell_angle_gamma 90.000000
_cell_volume 6403.798756
_symmetry_space_group_name_H-M "I M M M"
_symmetry_group_IT_number 71
_symmetry_cell_setting 'orthorhombic'
loop_
_space_group_symop_operation_xyz
x,y,z
-x,-y,z
x,-y,-z
-x,y,-z
-x,-y,-z
x,y,-z
-x,y,z
x,-y,z
1/2+x,1/2+y,1/2+z
1/2-x,1/2-y,1/2+z
1/2+x,1/2-y,1/2-z
1/2-x,1/2+y,1/2-z
1/2-x,1/2-y,1/2-z
1/2+x,1/2+y,1/2-z
1/2-x,1/2+y,1/2+z
1/2+x,1/2-y,1/2+z
loop_
_atom_site_type_symbol
_atom_site_label
_atom_site_fract_x
_atom_site_fract_y
_atom_site_fract_z
Si Si1 0.892623 0.587180 0.175577
Si Si2 0.500000 0.763230 0.822720
Si Si3 0.278636 0.709460 0.325188
Si Si4 0.325668 0.160581 0.179148
Si Si5 0.614568 0.754329 0.320927
Si Si6 0.935886 0.500000 0.320273
Si Si7 0.000000 0.645766 0.171075
O O1 0.840896 0.613675 0.247881
O O2 0.901515 0.541641 0.261453
O O3 0.946887 0.616225 0.201531
O O4 0.880629 0.577590 0.000000
O O5 0.444944 0.741475 0.749673
O O6 0.500000 0.815241 0.791410
O O7 0.500000 0.753967 0.000000
O O8 0.272692 0.718807 0.500000
O O9 0.250000 0.750000 0.250000
O O10 0.241335 0.666447 0.284018
O O11 0.344637 0.712199 0.282413
O O12 0.362175 0.200103 0.250927
O O13 0.337604 0.159953 0.000000
O O14 0.608117 0.762077 0.500000
O O15 0.936263 0.500000 0.500000
O O16 0.000000 0.500000 0.258154
O O17 0.000000 0.665102 0.000000
#
# Coordination Sequence:
#
# PCOD8287375 Si02
#       7
#    16   8  16  16  16   8   8
#     4  11  21  33  47  60  77 104 135 166 208 254
#     4  12  22  28  39  59  82 106 135 172 208 240
#     4   8  16  28  42  58  77 101 128 162 200 238
#     4  10  18  29  44  62  80  99 130 169 205 239
#     4  10  18  29  42  57  79 106 134 163 201 244
#     4  11  23  35  47  61  79 101 131 172 215 250
#     4  10  20  31  43  56  77 104 134 167 204 247
#
# _framework density 13.741844
#
# number of rings (size 3 to 8) (size 9 to 14) (size 15 to 20)
#    0.000    1.909    2.727    2.727    0.000    2.545 
#    0.000    0.000    0.000    0.000    0.000    0.000 
#    0.000    0.000    0.000    0.000    0.000    0.909 
#
# Total GULP energy -545170.505943 kJ/mol
# GULP energy per Si atom -12390.238771 kJ/mol
# Density = 1.371057 g / cm^3
# Si number density = 13.741844 Si / 1000 Ang^3
#
#
#
# Elastic Constant Matrix: (Units=GPa)
#
#
# Indices 1 2 3 4 5 6 
#
# 1 106.8495 52.1698 43.1532 0.0000 0.0000 0.0000
# 2 52.1698 62.3541 30.8970 0.0000 0.0000 0.0000
# 3 43.1532 30.8970 71.7183 0.0000 0.0000 0.0000
# 4 0.0000 0.0000 0.0000 17.7418 0.0000 0.0000
# 5 0.0000 0.0000 0.0000 0.0000 8.7885 0.0000
# 6 0.0000 0.0000 0.0000 0.0000 0.0000 23.7392
#
#
#
# Elastic Compliance Matrix: (Units=1/GPa)
#
#
# Indices 1 2 3 4 5 6 
#
# 1 0.017273 -0.011827 -0.005298 0.000000 0.000000 0.000000
# 2 -0.011827 0.028488 -0.005157 0.000000 0.000000 0.000000
# 3 -0.005298 -0.005157 0.019353 0.000000 0.000000 0.000000
# 4 0.000000 0.000000 0.000000 0.056364 0.000000 0.000000
# 5 0.000000 0.000000 0.000000 0.000000 0.113785 0.000000
# 6 0.000000 0.000000 0.000000 0.000000 0.000000 0.042124
#
#
# Mechanical properties :
#
#
# Convention : Reuss Voigt Hill
#
# Bulk Modulus (GPa) = 48.66027 54.81798 51.73913
# Shear Modulus (GPa) = 15.20678 17.70069 16.45373
#
# Velocity S-wave (km/s) = 3.33017 3.59289 3.46402
# Velocity P-wave (km/s) = 7.09041 7.56238 7.33020
#
# Compressibility (1/GPa) = 0.02055065
#
# Stress axis : x y z
#
# Youngs Moduli (GPa) = 57.89325 35.10303 51.67155
#
# Poissons Ratio (x) = 0.41515 0.27377
# Poissons Ratio (y) = 0.68468 0.26645
# Poissons Ratio (z) = 0.30674 0.18101
#
# Static dielectric constant tensor:
#      x y z
#    x 3.845570 0.000000 0.000000 
#    y 0.000000 2.742090 0.000000 
#    z 0.000000 0.000000 2.638880 
# 
# 
# High freq. dielectric constant tensor:
#      x y z
#    x 1.519400 0.000000 0.000000 
#    y 0.000000 1.476640 0.000000 
#    z 0.000000 0.000000 1.542510 
# 
# From -- ./inp_files/13580.got.cif
#   From: 2010.06.25/outbox.cif.g09.slc.cpg/sg71_7_cif.got.tgz:13580.got - 2010.06.28 04:59:45.
