data_PCOD8287903
_publ_section_title
;
Structure prediction by ZEFSAII (Michael W. Deem and Ramdas Pophale) SiO2 
 PCOD8287903
Probable space group: I M M M
;
_chemical_formula_sum "Si O2"
_cell_formula_units_Z 88
_cell_length_a 23.266680
_cell_length_b 13.870051
_cell_length_c 16.118089
_cell_angle_alpha 90.000000
_cell_angle_beta 90.000000
_cell_angle_gamma 90.000000
_cell_volume 5201.469117
_symmetry_space_group_name_H-M "I M M M"
_symmetry_group_IT_number 71
_symmetry_cell_setting 'orthorhombic'
loop_
_space_group_symop_operation_xyz
x,y,z
-x,-y,z
x,-y,-z
-x,y,-z
-x,-y,-z
x,y,-z
-x,y,z
x,-y,z
1/2+x,1/2+y,1/2+z
1/2-x,1/2-y,1/2+z
1/2+x,1/2-y,1/2-z
1/2-x,1/2+y,1/2-z
1/2-x,1/2-y,1/2-z
1/2+x,1/2+y,1/2-z
1/2-x,1/2+y,1/2+z
1/2+x,1/2-y,1/2+z
loop_
_atom_site_type_symbol
_atom_site_label
_atom_site_fract_x
_atom_site_fract_y
_atom_site_fract_z
Si Si1 0.775042 0.606264 0.592670
Si Si2 0.357230 0.889971 0.750058
Si Si3 0.735394 0.787394 0.660045
Si Si4 0.932555 0.393191 0.500000
Si Si5 0.067178 0.734621 0.655689
Si Si6 0.651810 0.611014 0.097251
O O1 0.802944 0.615837 0.500000
O O2 0.746348 0.500000 0.602462
O O3 0.822386 0.621305 0.663573
O O4 0.727360 0.691274 0.603011
O O5 0.322012 0.851947 0.669516
O O6 0.413720 0.823081 0.761056
O O7 0.375212 0.000000 0.733692
O O8 0.750000 0.750000 0.750000
O O9 0.785355 0.853253 0.622732
O O10 0.903104 0.500000 0.500000
O O11 0.914334 0.334449 0.580574
O O12 0.000000 0.408109 0.500000
O O13 0.102001 0.834034 0.647580
O O14 0.000000 0.758993 0.658823
O O15 0.646540 0.500000 0.122346
O O16 0.642299 0.627070 0.000000
#
# Coordination Sequence:
#
# PCOD8287903 Si02
#       6
#    16  16  16   8  16  16
#     4   9  17  28  46  71  96 122 154 194 243 294
#     4  10  20  32  48  70  96 129 164 205 252 295
#     4  10  18  32  49  69  95 127 163 205 247 298
#     4   9  18  30  45  65  89 119 162 212 244 269
#     4  11  21  33  47  67  95 131 172 205 240 284
#     4  11  22  35  51  70  98 135 170 204 241 288
#
# _framework density 16.918296999999999
#
# number of rings (size 3 to 8) (size 9 to 14) (size 15 to 20)
#    0.000    1.909    4.545    1.636    1.273    2.182 
#    0.000    0.909    0.000    0.000    0.000    0.000 
#    0.000    2.909    0.000   10.909    0.000    0.000 
#
# Total GULP energy -545249.258580 kJ/mol
# GULP energy per Si atom -12392.028604 kJ/mol
# Density = 1.687979 g / cm^3
# Si number density = 16.918297 Si / 1000 Ang^3
#
#
#
# Elastic Constant Matrix: (Units=GPa)
#
#
# Indices 1 2 3 4 5 6 
#
# 1 75.8262 50.3469 18.5216 0.0000 0.0000 0.0000
# 2 50.3469 143.7502 26.1147 0.0000 0.0000 0.0000
# 3 18.5216 26.1147 25.2378 0.0000 0.0000 0.0000
# 4 0.0000 0.0000 0.0000 25.3801 0.0000 0.0000
# 5 0.0000 0.0000 0.0000 0.0000 20.8969 0.0000
# 6 0.0000 0.0000 0.0000 0.0000 0.0000 20.1457
#
#
#
# Elastic Compliance Matrix: (Units=1/GPa)
#
#
# Indices 1 2 3 4 5 6 
#
# 1 0.018552 -0.004956 -0.008487 0.000000 0.000000 0.000000
# 2 -0.004956 0.009891 -0.006597 0.000000 0.000000 0.000000
# 3 -0.008487 -0.006597 0.052678 0.000000 0.000000 0.000000
# 4 0.000000 0.000000 0.000000 0.039401 0.000000 0.000000
# 5 0.000000 0.000000 0.000000 0.000000 0.047854 0.000000
# 6 0.000000 0.000000 0.000000 0.000000 0.000000 0.049638
#
#
# Mechanical properties :
#
#
# Convention : Reuss Voigt Hill
#
# Bulk Modulus (GPa) = 24.36619 48.30896 36.33758
# Shear Modulus (GPa) = 18.39765 23.27328 20.83547
#
# Velocity S-wave (km/s) = 3.30121 3.71297 3.51313
# Velocity P-wave (km/s) = 5.38184 6.85549 6.16287
#
# Compressibility (1/GPa) = 0.04104047
#
# Stress axis : x y z
#
# Youngs Moduli (GPa) = 53.90389 101.10475 18.98320
#
# Poissons Ratio (x) = 0.50104 0.16111
# Poissons Ratio (y) = 0.26713 0.12524
# Poissons Ratio (z) = 0.45747 0.66704
#
# Static dielectric constant tensor:
#      x y z
#    x 3.006150 0.000000 0.000000 
#    y 0.000000 3.708080 0.000000 
#    z 0.000000 0.000000 3.117290 
# 
# 
# High freq. dielectric constant tensor:
#      x y z
#    x 1.614650 0.000000 0.000000 
#    y 0.000000 1.678000 0.000000 
#    z 0.000000 0.000000 1.617630 
# 
# From -- ./inp_files/48185.got.cif
#   From: 2010.06.25/outbox.cif.g09.slc.cpg/sg71_25_cif.got.tgz:48185.got - 2010.06.28 04:59:45.
