data_PCOD8287666
_publ_section_title
;
Structure prediction by ZEFSAII (Michael W. Deem and Ramdas Pophale) SiO2 
 PCOD8287666
Probable space group: I M M M
;
_chemical_formula_sum "Si O2"
_cell_formula_units_Z 56
_cell_length_a 7.976110
_cell_length_b 32.704023
_cell_length_c 12.792308
_cell_angle_alpha 90.000000
_cell_angle_beta 90.000000
_cell_angle_gamma 90.000000
_cell_volume 3336.884862
_symmetry_space_group_name_H-M "I M M M"
_symmetry_group_IT_number 71
_symmetry_cell_setting 'orthorhombic'
loop_
_space_group_symop_operation_xyz
x,y,z
-x,-y,z
x,-y,-z
-x,y,-z
-x,-y,-z
x,y,-z
-x,y,z
x,-y,z
1/2+x,1/2+y,1/2+z
1/2-x,1/2-y,1/2+z
1/2+x,1/2-y,1/2-z
1/2-x,1/2+y,1/2-z
1/2-x,1/2-y,1/2-z
1/2+x,1/2+y,1/2-z
1/2-x,1/2+y,1/2+z
1/2+x,1/2-y,1/2+z
loop_
_atom_site_type_symbol
_atom_site_label
_atom_site_fract_x
_atom_site_fract_y
_atom_site_fract_z
Si Si1 0.000000 0.218635 0.123101
Si Si2 0.681771 0.340936 0.753696
Si Si3 0.692895 0.913317 0.119404
Si Si4 0.500000 0.186917 0.622920
Si Si5 0.311553 0.500000 0.623917
O O1 0.833040 0.196998 0.171266
O O2 0.000000 0.265884 0.155037
O O3 0.000000 0.212842 0.000000
O O4 0.500000 0.344055 0.813112
O O5 0.702546 0.382566 0.689793
O O6 0.833318 0.334424 0.833150
O O7 0.500000 0.900857 0.126176
O O8 0.717781 0.959259 0.163891
O O9 0.758208 0.910379 0.000000
O O10 0.500000 0.180365 0.500000
O O11 0.500000 0.500000 0.667678
O O12 0.307912 0.500000 0.500000
#
# Coordination Sequence:
#
# PCOD8287666 Si02
#       5
#     8  16  16   8   8
#     4   9  20  36  57  80 110 139 171 218 273 330
#     4  10  21  34  56  77 106 137 182 215 265 316
#     4  10  18  30  49  76 111 145 176 210 262 325
#     4  11  22  40  55  74 105 141 184 234 272 304
#     4   9  17  27  43  71 109 146 175 207 253 321
#
# _framework density 16.782118000000001
#
# number of rings (size 3 to 8) (size 9 to 14) (size 15 to 20)
#    0.857    1.286    1.429    3.000    0.000    3.429 
#    0.000    0.000    0.000    0.000    0.000    2.000 
#    0.000    3.429    0.000    0.000    0.000    0.000 
#
# Total GULP energy -347001.432554 kJ/mol
# GULP energy per Si atom -12392.908305 kJ/mol
# Density = 1.674392 g / cm^3
# Si number density = 16.782118 Si / 1000 Ang^3
#
#
#
# Elastic Constant Matrix: (Units=GPa)
#
#
# Indices 1 2 3 4 5 6 
#
# 1 116.0918 42.9767 39.1557 0.0001 0.0000 -0.0001
# 2 42.9767 117.8925 43.3590 0.0001 0.0002 0.0000
# 3 39.1557 43.3590 56.6577 0.0014 0.0009 -0.0002
# 4 0.0001 0.0001 0.0014 21.8034 0.0004 0.0000
# 5 0.0000 0.0002 0.0009 0.0004 15.6395 0.0001
# 6 -0.0001 0.0000 -0.0002 0.0000 0.0001 29.3187
#
#
#
# Elastic Compliance Matrix: (Units=1/GPa)
#
#
# Indices 1 2 3 4 5 6 
#
# 1 0.011490 -0.001765 -0.006590 0.000000 0.000000 0.000000
# 2 -0.001765 0.012076 -0.008022 0.000000 0.000000 0.000000
# 3 -0.006590 -0.008022 0.028343 -0.000002 -0.000002 0.000000
# 4 0.000000 0.000000 -0.000002 0.045864 -0.000001 0.000000
# 5 0.000000 0.000000 -0.000002 -0.000001 0.063941 0.000000
# 6 0.000000 0.000000 0.000000 0.000000 0.000000 0.034108
#
#
# Mechanical properties :
#
#
# Convention : Reuss Voigt Hill
#
# Bulk Modulus (GPa) = 52.20391 60.18051 56.19221
# Shear Modulus (GPa) = 21.28019 24.36237 22.82128
#
# Velocity S-wave (km/s) = 3.56480 3.81423 3.69162
# Velocity P-wave (km/s) = 6.93672 7.43879 7.19214
#
# Compressibility (1/GPa) = 0.01915565
#
# Stress axis : x y z
#
# Youngs Moduli (GPa) = 87.03300 82.80914 35.28199
#
# Poissons Ratio (x) = 0.14615 0.23251
# Poissons Ratio (y) = 0.15360 0.28303
# Poissons Ratio (z) = 0.57354 0.66428
#
# Static dielectric constant tensor:
#      x y z
#    x 3.176350 0.000000 0.000000 
#    y 0.000000 3.315230 0.000000 
#    z 0.000000 0.000000 2.702090 
# 
# 
# High freq. dielectric constant tensor:
#      x y z
#    x 1.655300 0.000000 0.000000 
#    y 0.000000 1.659340 0.000000 
#    z 0.000000 0.000000 1.594970 
# 
# From -- ./inp_files/18425.got.cif
#   From: 2010.06.25/outbox.cif.g09.slc.cpg/sg71_10_cif.got.tgz:18425.got - 2010.06.28 04:59:45.
