data_PCOD8287042
_publ_section_title
;
Structure prediction by ZEFSAII (Michael W. Deem and Ramdas Pophale) SiO2 
 PCOD8287042
Probable space group: I M M M
;
_chemical_formula_sum "Si O2"
_cell_formula_units_Z 84
_cell_length_a 18.873168
_cell_length_b 11.957886
_cell_length_c 21.674907
_cell_angle_alpha 90.000000
_cell_angle_beta 90.000000
_cell_angle_gamma 90.000000
_cell_volume 4891.662185
_symmetry_space_group_name_H-M "I M M M"
_symmetry_group_IT_number 71
_symmetry_cell_setting 'orthorhombic'
loop_
_space_group_symop_operation_xyz
x,y,z
-x,-y,z
x,-y,-z
-x,y,-z
-x,-y,-z
x,y,-z
-x,y,z
x,-y,z
1/2+x,1/2+y,1/2+z
1/2-x,1/2-y,1/2+z
1/2+x,1/2-y,1/2-z
1/2-x,1/2+y,1/2-z
1/2-x,1/2-y,1/2-z
1/2+x,1/2+y,1/2-z
1/2-x,1/2+y,1/2+z
1/2+x,1/2-y,1/2+z
loop_
_atom_site_type_symbol
_atom_site_label
_atom_site_fract_x
_atom_site_fract_y
_atom_site_fract_z
Si Si1 0.400976 0.000000 0.000000
Si Si2 0.083632 0.260184 0.500000
Si Si3 0.650722 0.367886 0.110090
Si Si4 0.919060 0.629927 0.833890
Si Si5 0.194433 0.632409 0.931236
Si Si6 0.923855 0.500000 0.638588
Si Si7 0.916992 0.718221 0.701210
O O1 0.366625 0.874542 0.000000
O O2 0.440388 0.000000 0.934203
O O3 0.099223 0.187036 0.440114
O O4 0.000000 0.294680 0.500000
O O5 0.642076 0.500000 0.106220
O O6 0.731126 0.329924 0.097716
O O7 0.626481 0.326083 0.177674
O O8 0.903554 0.500000 0.819134
O O9 0.869390 0.676594 0.888473
O O10 0.901650 0.701624 0.773286
O O11 0.000000 0.646601 0.855071
O O12 0.190839 0.500000 0.935608
O O13 0.186453 0.683706 0.000000
O O14 0.885575 0.612617 0.662091
O O15 0.000000 0.500000 0.673547
O O16 0.000000 0.736630 0.688325
#
# Coordination Sequence:
#
# PCOD8287042 Si02
#       7
#     4   8  16  16  16   8  16
#     4  12  21  30  48  76  98 124 171 218 257 290
#     4  12  22  32  49  71  99 134 173 213 250 289
#     4  11  22  34  47  68 102 143 177 202 239 295
#     4   9  17  31  53  78 100 124 163 213 265 314
#     4   9  18  33  50  71 102 136 166 203 255 308
#     4  10  17  28  44  66  97 126 159 206 255 289
#     4  10  19  31  49  72  99 132 168 209 251 295
#
# _framework density 17.172077000000002
#
# number of rings (size 3 to 8) (size 9 to 14) (size 15 to 20)
#    0.000    1.905    3.810    1.714    0.000    3.048 
#    0.000    1.905    0.000    0.000    0.000    0.000 
#    0.000    0.000    0.000    5.048    0.000    0.571 
#
# Total GULP energy -520389.651932 kJ/mol
# GULP energy per Si atom -12390.229808 kJ/mol
# Density = 1.713299 g / cm^3
# Si number density = 17.172077 Si / 1000 Ang^3
#
#
#
# Elastic Constant Matrix: (Units=GPa)
#
#
# Indices 1 2 3 4 5 6 
#
# 1 88.5412 34.0058 70.8472 0.0000 0.0000 0.0000
# 2 34.0058 74.7406 39.8622 0.0000 0.0000 0.0000
# 3 70.8472 39.8622 124.2200 0.0000 0.0000 0.0000
# 4 0.0000 0.0000 0.0000 18.9923 0.0000 0.0000
# 5 0.0000 0.0000 0.0000 0.0000 27.1174 0.0000
# 6 0.0000 0.0000 0.0000 0.0000 0.0000 12.7253
#
#
#
# Elastic Compliance Matrix: (Units=1/GPa)
#
#
# Indices 1 2 3 4 5 6 
#
# 1 0.021700 -0.003948 -0.011109 0.000000 0.000000 0.000000
# 2 -0.003948 0.016861 -0.003159 0.000000 0.000000 0.000000
# 3 -0.011109 -0.003159 0.015400 0.000000 0.000000 0.000000
# 4 0.000000 0.000000 0.000000 0.052653 0.000000 0.000000
# 5 0.000000 0.000000 0.000000 0.000000 0.036877 0.000000
# 6 0.000000 0.000000 0.000000 0.000000 0.000000 0.078584
#
#
# Mechanical properties :
#
#
# Convention : Reuss Voigt Hill
#
# Bulk Modulus (GPa) = 57.05150 64.10357 60.57754
# Shear Modulus (GPa) = 18.91446 21.28612 20.10029
#
# Velocity S-wave (km/s) = 3.32243 3.52458 3.42500
# Velocity P-wave (km/s) = 6.92919 7.34675 7.14102
#
# Compressibility (1/GPa) = 0.01752802
#
# Stress axis : x y z
#
# Youngs Moduli (GPa) = 46.08376 59.30971 64.93554
#
# Poissons Ratio (x) = 0.23416 0.72138
# Poissons Ratio (y) = 0.18194 0.20512
# Poissons Ratio (z) = 0.51195 0.18735
#
# Static dielectric constant tensor:
#      x y z
#    x 3.064570 0.000000 0.000000 
#    y 0.000000 3.096660 0.000000 
#    z 0.000000 0.000000 3.363650 
# 
# 
# High freq. dielectric constant tensor:
#      x y z
#    x 1.635540 0.000000 0.000000 
#    y 0.000000 1.636440 0.000000 
#    z 0.000000 0.000000 1.670080 
# 
# From -- ./inp_files/54862.got.cif
#   From: 2010.06.25/outbox.cif.g09.slc.cpg/sg71_28_cif.got.tgz:54862.got - 2010.06.28 04:59:45.
