data_PCOD8287934
_publ_section_title
;
Structure prediction by ZEFSAII (Michael W. Deem and Ramdas Pophale) SiO2 
 PCOD8287934
Probable space group: I M M M
;
_chemical_formula_sum "Si O2"
_cell_formula_units_Z 120
_cell_length_a 25.458656
_cell_length_b 12.596980
_cell_length_c 22.033051
_cell_angle_alpha 90.000000
_cell_angle_beta 90.000000
_cell_angle_gamma 90.000000
_cell_volume 7066.047498
_symmetry_space_group_name_H-M "I M M M"
_symmetry_group_IT_number 71
_symmetry_cell_setting 'orthorhombic'
loop_
_space_group_symop_operation_xyz
x,y,z
-x,-y,z
x,-y,-z
-x,y,-z
-x,-y,-z
x,y,-z
-x,y,z
x,-y,z
1/2+x,1/2+y,1/2+z
1/2-x,1/2-y,1/2+z
1/2+x,1/2-y,1/2-z
1/2-x,1/2+y,1/2-z
1/2-x,1/2-y,1/2-z
1/2+x,1/2+y,1/2-z
1/2-x,1/2+y,1/2+z
1/2+x,1/2-y,1/2+z
loop_
_atom_site_type_symbol
_atom_site_label
_atom_site_fract_x
_atom_site_fract_y
_atom_site_fract_z
Si Si1 0.730956 0.875450 0.428785
Si Si2 0.137321 0.262379 0.132211
Si Si3 0.791931 0.875258 0.215358
Si Si4 0.699053 0.253831 0.166259
Si Si5 0.096455 0.621778 0.352622
Si Si6 0.500000 0.126129 0.068157
Si Si7 0.058095 0.379527 0.217261
Si Si8 0.942329 0.116070 0.071101
O O1 0.735433 0.847396 0.500000
O O2 0.673208 0.845540 0.404266
O O3 0.773790 0.807089 0.392201
O O4 0.740342 0.000000 0.417339
O O5 0.170756 0.172019 0.164312
O O6 0.104011 0.320161 0.183116
O O7 0.098855 0.206882 0.085401
O O8 0.733211 0.835622 0.200715
O O9 0.811085 0.843733 0.282910
O O10 0.793020 0.000000 0.210010
O O11 0.646240 0.199056 0.142687
O O12 0.113290 0.500000 0.367185
O O13 0.069248 0.628397 0.287940
O O14 0.053301 0.666225 0.399826
O O15 0.500000 0.000000 0.070992
O O16 0.500000 0.170578 0.000000
O O17 0.058929 0.500000 0.194773
O O18 0.000000 0.331115 0.204450
O O19 0.000000 0.146332 0.097295
O O20 0.925592 0.000000 0.097342
O O21 0.945971 0.107385 0.000000
#
# Coordination Sequence:
#
# PCOD8287934 Si02
#       8
#    16  16  16  16  16   8  16  16
#     4  10  22  38  54  73 100 134 175 219 257 300
#     4  11  19  32  52  76 101 133 170 211 255 307
#     4  10  20  32  48  75 104 129 164 209 256 305
#     4  10  20  34  52  75  99 136 170 206 254 306
#     4  10  18  32  52  77 109 137 166 205 252 305
#     4   9  18  32  52  78 107 139 170 203 247 301
#     4  10  19  31  49  76 108 138 166 204 254 310
#     4   9  18  32  49  70  98 135 176 212 250 299
#
# _framework density 16.982620000000001
#
# number of rings (size 3 to 8) (size 9 to 14) (size 15 to 20)
#    0.000    2.067    2.000    2.800    0.000    0.533 
#    0.000    0.000    0.000    7.600    0.000    7.000 
#    0.000    3.200    0.000    0.000    0.000    0.000 
#
# Total GULP energy -743857.544946 kJ/mol
# GULP energy per Si atom -12397.625749 kJ/mol
# Density = 1.694397 g / cm^3
# Si number density = 16.982620 Si / 1000 Ang^3
#
#
#
# Elastic Constant Matrix: (Units=GPa)
#
#
# Indices 1 2 3 4 5 6 
#
# 1 103.8020 43.8789 32.6009 0.0000 0.0000 0.0000
# 2 43.8789 84.8109 35.1181 0.0000 0.0000 0.0000
# 3 32.6009 35.1181 83.3082 0.0000 0.0000 0.0000
# 4 0.0000 0.0000 0.0000 22.5280 0.0000 0.0000
# 5 0.0000 0.0000 0.0000 0.0000 32.4090 0.0000
# 6 0.0000 0.0000 0.0000 0.0000 0.0000 29.4144
#
#
#
# Elastic Compliance Matrix: (Units=1/GPa)
#
#
# Indices 1 2 3 4 5 6 
#
# 1 0.012809 -0.005514 -0.002688 0.000000 0.000000 0.000000
# 2 -0.005514 0.016658 -0.004864 0.000000 0.000000 0.000000
# 3 -0.002688 -0.004864 0.015106 0.000000 0.000000 0.000000
# 4 0.000000 0.000000 0.000000 0.044389 0.000000 0.000000
# 5 0.000000 0.000000 0.000000 0.000000 0.030856 0.000000
# 6 0.000000 0.000000 0.000000 0.000000 0.000000 0.033997
#
#
# Mechanical properties :
#
#
# Convention : Reuss Voigt Hill
#
# Bulk Modulus (GPa) = 54.22935 55.01296 54.62115
# Shear Modulus (GPa) = 26.86819 27.55850 27.21334
#
# Velocity S-wave (km/s) = 3.98188 4.03270 4.00737
# Velocity P-wave (km/s) = 7.28986 7.35851 7.32426
#
# Compressibility (1/GPa) = 0.01844020
#
# Stress axis : x y z
#
# Youngs Moduli (GPa) = 78.07155 60.03181 66.19857
#
# Poissons Ratio (x) = 0.33101 0.17795
# Poissons Ratio (y) = 0.43047 0.32201
# Poissons Ratio (z) = 0.20986 0.29201
#
# Static dielectric constant tensor:
#      x y z
#    x 3.387720 0.000000 0.000000 
#    y 0.000000 3.149190 0.000000 
#    z 0.000000 0.000000 3.166520 
# 
# 
# High freq. dielectric constant tensor:
#      x y z
#    x 1.662440 0.000000 0.000000 
#    y 0.000000 1.643440 0.000000 
#    z 0.000000 0.000000 1.653500 
# 
# From -- ./inp_files/55840.got.cif
#   From: 2010.06.25/outbox.cif.g09.slc.cpg/sg71_28_cif.got.tgz:55840.got - 2010.06.28 04:59:45.
