data_PCOD8287856
_publ_section_title
;
Structure prediction by ZEFSAII (Michael W. Deem and Ramdas Pophale) SiO2 
 PCOD8287856
Probable space group: I M M M
;
_chemical_formula_sum "Si O2"
_cell_formula_units_Z 104
_cell_length_a 9.199242
_cell_length_b 22.476412
_cell_length_c 26.031609
_cell_angle_alpha 90.000000
_cell_angle_beta 90.000000
_cell_angle_gamma 90.000000
_cell_volume 5382.450450
_symmetry_space_group_name_H-M "I M M M"
_symmetry_group_IT_number 71
_symmetry_cell_setting 'orthorhombic'
loop_
_space_group_symop_operation_xyz
x,y,z
-x,-y,z
x,-y,-z
-x,y,-z
-x,-y,-z
x,y,-z
-x,y,z
x,-y,z
1/2+x,1/2+y,1/2+z
1/2-x,1/2-y,1/2+z
1/2+x,1/2-y,1/2-z
1/2-x,1/2+y,1/2-z
1/2-x,1/2-y,1/2-z
1/2+x,1/2+y,1/2-z
1/2-x,1/2+y,1/2+z
1/2+x,1/2-y,1/2+z
loop_
_atom_site_type_symbol
_atom_site_label
_atom_site_fract_x
_atom_site_fract_y
_atom_site_fract_z
Si Si1 0.834073 0.388122 0.443416
Si Si2 0.333002 0.065727 0.838187
Si Si3 0.670027 0.295976 0.180677
Si Si4 0.157767 0.778513 0.059504
Si Si5 0.827086 0.432443 0.000000
Si Si6 0.830669 0.178944 0.798995
Si Si7 0.827771 0.650253 0.907889
O O1 0.772693 0.407809 0.500000
O O2 0.811724 0.438366 0.400296
O O3 0.760381 0.329643 0.418173
O O4 0.000000 0.370686 0.450397
O O5 0.500000 0.082082 0.825160
O O6 0.229331 0.114191 0.812980
O O7 0.293838 0.000000 0.816756
O O8 0.500000 0.288894 0.168129
O O9 0.751221 0.232660 0.169781
O O10 0.698823 0.314113 0.238841
O O11 0.740545 0.349181 0.146122
O O12 0.218427 0.712500 0.066592
O O13 0.000000 0.784463 0.086276
O O14 0.143864 0.791574 0.000000
O O15 0.772216 0.400518 0.052457
O O16 0.768957 0.500000 0.000000
O O17 0.000000 0.429336 0.000000
O O18 0.000000 0.182312 0.812135
O O19 0.000000 0.643844 0.897882
#
# Coordination Sequence:
#
# PCOD8287856 Si02
#       7
#    16  16  16  16   8  16  16
#     4   9  18  31  47  71 103 136 171 210 255 305
#     4  10  21  36  54  76 105 143 183 222 263 311
#     4  10  21  36  57  84 111 137 172 225 286 338
#     4   9  16  27  44  69 101 133 166 207 254 299
#     4   9  18  34  55  79 111 151 192 231 272 327
#     4  10  21  38  58  81 109 142 180 225 278 332
#     4  10  18  31  53  80 108 142 182 222 268 324
#
# _framework density 19.322054999999999
#
# number of rings (size 3 to 8) (size 9 to 14) (size 15 to 20)
#    0.000    2.385    0.769    1.846    0.000    6.154 
#    0.000    2.692    0.000    3.692    0.000    3.231 
#    0.000    0.000    0.000    0.000    0.000    0.000 
#
# Total GULP energy -644397.504449 kJ/mol
# GULP energy per Si atom -12392.259701 kJ/mol
# Density = 1.927808 g / cm^3
# Si number density = 19.322055 Si / 1000 Ang^3
#
#
#
# Elastic Constant Matrix: (Units=GPa)
#
#
# Indices 1 2 3 4 5 6 
#
# 1 72.9271 41.8934 39.8217 0.0000 0.0000 0.0000
# 2 41.8934 111.7609 49.5592 0.0000 0.0000 0.0000
# 3 39.8217 49.5592 75.4696 0.0000 0.0000 0.0000
# 4 0.0000 0.0000 0.0000 25.1281 0.0000 0.0000
# 5 0.0000 0.0000 0.0000 0.0000 24.3141 0.0000
# 6 0.0000 0.0000 0.0000 0.0000 0.0000 23.9559
#
#
#
# Elastic Compliance Matrix: (Units=1/GPa)
#
#
# Indices 1 2 3 4 5 6 
#
# 1 0.020498 -0.004074 -0.008141 0.000000 0.000000 0.000000
# 2 -0.004074 0.013433 -0.006672 0.000000 0.000000 0.000000
# 3 -0.008141 -0.006672 0.021927 0.000000 0.000000 0.000000
# 4 0.000000 0.000000 0.000000 0.039796 0.000000 0.000000
# 5 0.000000 0.000000 0.000000 0.000000 0.041128 0.000000
# 6 0.000000 0.000000 0.000000 0.000000 0.000000 0.041743
#
#
# Mechanical properties :
#
#
# Convention : Reuss Voigt Hill
#
# Bulk Modulus (GPa) = 55.29207 58.07848 56.68528
# Shear Modulus (GPa) = 22.48947 23.27183 22.88065
#
# Velocity S-wave (km/s) = 3.41534 3.47424 3.44491
# Velocity P-wave (km/s) = 6.65063 6.79832 6.72488
#
# Compressibility (1/GPa) = 0.01808577
#
# Stress axis : x y z
#
# Youngs Moduli (GPa) = 48.78625 74.44229 45.60594
#
# Poissons Ratio (x) = 0.30325 0.37126
# Poissons Ratio (y) = 0.19874 0.30427
# Poissons Ratio (z) = 0.39715 0.49667
#
# Static dielectric constant tensor:
#      x y z
#    x 3.568450 0.000000 0.000000 
#    y 0.000000 3.391890 0.000000 
#    z 0.000000 0.000000 3.723500 
# 
# 
# High freq. dielectric constant tensor:
#      x y z
#    x 1.735580 0.000000 0.000000 
#    y 0.000000 1.730930 0.000000 
#    z 0.000000 0.000000 1.763460 
# 
# From -- ./inp_files/63522.got.cif
#   From: 2010.06.25/outbox.cif.g09.slc.cpg/sg71_32_cif.got.tgz:63522.got - 2010.06.28 04:59:45.
