data_PCOD8287098
_publ_section_title
;
Structure prediction by ZEFSAII (Michael W. Deem and Ramdas Pophale) SiO2 
 PCOD8287098
Probable space group: I M M M
;
_chemical_formula_sum "Si O2"
_cell_formula_units_Z 120
_cell_length_a 20.240254
_cell_length_b 13.854043
_cell_length_c 24.657829
_cell_angle_alpha 90.000000
_cell_angle_beta 90.000000
_cell_angle_gamma 90.000000
_cell_volume 6914.285784
_symmetry_space_group_name_H-M "I M M M"
_symmetry_group_IT_number 71
_symmetry_cell_setting 'orthorhombic'
loop_
_space_group_symop_operation_xyz
x,y,z
-x,-y,z
x,-y,-z
-x,y,-z
-x,-y,-z
x,y,-z
-x,y,z
x,-y,z
1/2+x,1/2+y,1/2+z
1/2-x,1/2-y,1/2+z
1/2+x,1/2-y,1/2-z
1/2-x,1/2+y,1/2-z
1/2-x,1/2-y,1/2-z
1/2+x,1/2+y,1/2-z
1/2-x,1/2+y,1/2+z
1/2+x,1/2-y,1/2+z
loop_
_atom_site_type_symbol
_atom_site_label
_atom_site_fract_x
_atom_site_fract_y
_atom_site_fract_z
Si Si1 0.574857 0.610649 0.585558
Si Si2 0.573400 0.886098 0.144286
Si Si3 0.873688 0.387086 0.129229
Si Si4 0.500000 0.885452 0.438624
Si Si5 0.921512 0.691372 0.240535
Si Si6 0.077456 0.896738 0.210666
Si Si7 0.683876 0.888279 0.937352
Si Si8 0.307818 0.739642 0.559970
O O1 0.500000 0.648454 0.575049
O O2 0.580302 0.500000 0.566255
O O3 0.594459 0.620800 0.648240
O O4 0.626250 0.675563 0.553298
O O5 0.500000 0.842063 0.134374
O O6 0.600423 0.855575 0.203145
O O7 0.622578 0.848134 0.097919
O O8 0.569180 0.000000 0.142256
O O9 0.859262 0.500000 0.121843
O O10 0.884397 0.364645 0.192407
O O11 0.813144 0.326196 0.103797
O O12 0.936161 0.349954 0.094268
O O13 0.500000 0.844153 0.500000
O O14 0.500000 0.000000 0.440076
O O15 0.897305 0.803266 0.243376
O O16 0.000000 0.682137 0.230557
O O17 0.000000 0.906136 0.218064
O O18 0.109122 0.000000 0.230255
O O19 0.748127 0.828252 0.920672
O O20 0.698675 0.000000 0.924076
O O21 0.664751 0.874359 0.000000
O O22 0.293498 0.783002 0.500000
#
# Coordination Sequence:
#
# PCOD8287098 Si02
#       8
#    16  16  16   8  16  16  16  16
#     4   9  17  29  44  64  92 126 168 214 253 288
#     4   9  18  32  55  86 110 128 157 198 247 311
#     4  11  21  32  46  66  96 137 178 218 260 295
#     4   9  18  30  42  60  89 127 176 226 259 282
#     4  10  17  29  50  75 103 134 167 209 262 308
#     4   8  14  25  42  64  92 129 169 205 243 288
#     4   9  19  37  57  77 104 134 163 200 253 314
#     4  11  22  33  48  68  93 132 178 217 254 300
#
# _framework density 17.355371999999999
#
# number of rings (size 3 to 8) (size 9 to 14) (size 15 to 20)
#    0.000    2.467    2.000    2.000    0.933    2.667 
#    0.000    2.667    0.000    0.800    0.000    0.000 
#    0.000    0.000    0.000    8.133    0.000    0.267 
#
# Total GULP energy -743740.108758 kJ/mol
# GULP energy per Si atom -12395.668479 kJ/mol
# Density = 1.731587 g / cm^3
# Si number density = 17.355372 Si / 1000 Ang^3
#
#
#
# Elastic Constant Matrix: (Units=GPa)
#
#
# Indices 1 2 3 4 5 6 
#
# 1 73.6700 38.9579 54.1856 0.0000 0.0000 0.0000
# 2 38.9579 58.2905 34.8607 0.0000 0.0000 0.0000
# 3 54.1856 34.8607 93.8380 0.0000 0.0000 0.0000
# 4 0.0000 0.0000 0.0000 20.8627 0.0000 0.0000
# 5 0.0000 0.0000 0.0000 0.0000 21.8444 0.0000
# 6 0.0000 0.0000 0.0000 0.0000 0.0000 17.5038
#
#
#
# Elastic Compliance Matrix: (Units=1/GPa)
#
#
# Indices 1 2 3 4 5 6 
#
# 1 0.028933 -0.012015 -0.012244 0.000000 0.000000 0.000000
# 2 -0.012015 0.027045 -0.003109 0.000000 0.000000 0.000000
# 3 -0.012244 -0.003109 0.018882 0.000000 0.000000 0.000000
# 4 0.000000 0.000000 0.000000 0.047932 0.000000 0.000000
# 5 0.000000 0.000000 0.000000 0.000000 0.045778 0.000000
# 6 0.000000 0.000000 0.000000 0.000000 0.000000 0.057130
#
#
# Mechanical properties :
#
#
# Convention : Reuss Voigt Hill
#
# Bulk Modulus (GPa) = 49.69134 53.53410 51.61272
# Shear Modulus (GPa) = 17.41284 18.56181 17.98732
#
# Velocity S-wave (km/s) = 3.17095 3.27389 3.22283
# Velocity P-wave (km/s) = 6.48848 6.72339 6.60698
#
# Compressibility (1/GPa) = 0.02012423
#
# Stress axis : x y z
#
# Youngs Moduli (GPa) = 34.56253 36.97541 52.96151
#
# Poissons Ratio (x) = 0.44426 0.64844
# Poissons Ratio (y) = 0.41527 0.16467
# Poissons Ratio (z) = 0.42317 0.11497
#
# Static dielectric constant tensor:
#      x y z
#    x 3.024420 0.000000 0.000000 
#    y 0.000000 3.308060 0.000000 
#    z 0.000000 0.000000 3.145330 
# 
# 
# High freq. dielectric constant tensor:
#      x y z
#    x 1.627250 0.000000 0.000000 
#    y 0.000000 1.672140 0.000000 
#    z 0.000000 0.000000 1.659320 
# 
# From -- ./inp_files/61424.got.cif
#   From: 2010.06.25/outbox.cif.g09.slc.cpg/sg71_31_cif.got.tgz:61424.got - 2010.06.28 04:59:45.
