data_PCOD8287880
_publ_section_title
;
Structure prediction by ZEFSAII (Michael W. Deem and Ramdas Pophale) SiO2 
 PCOD8287880
Probable space group: I M M M
;
_chemical_formula_sum "Si O2"
_cell_formula_units_Z 104
_cell_length_a 16.645839
_cell_length_b 18.454407
_cell_length_c 18.661812
_cell_angle_alpha 90.000000
_cell_angle_beta 90.000000
_cell_angle_gamma 90.000000
_cell_volume 5732.705004
_symmetry_space_group_name_H-M "I M M M"
_symmetry_group_IT_number 71
_symmetry_cell_setting 'orthorhombic'
loop_
_space_group_symop_operation_xyz
x,y,z
-x,-y,z
x,-y,-z
-x,y,-z
-x,-y,-z
x,y,-z
-x,y,z
x,-y,z
1/2+x,1/2+y,1/2+z
1/2-x,1/2-y,1/2+z
1/2+x,1/2-y,1/2-z
1/2-x,1/2+y,1/2-z
1/2-x,1/2-y,1/2-z
1/2+x,1/2+y,1/2-z
1/2-x,1/2+y,1/2+z
1/2+x,1/2-y,1/2+z
loop_
_atom_site_type_symbol
_atom_site_label
_atom_site_fract_x
_atom_site_fract_y
_atom_site_fract_z
Si Si1 0.092192 0.296788 0.917041
Si Si2 0.408181 0.080489 0.312188
Si Si3 0.595554 0.420718 0.080603
Si Si4 0.406200 0.712095 0.170587
Si Si5 0.312144 0.291197 0.303227
Si Si6 0.664560 0.134472 0.169127
Si Si7 0.594192 0.000000 0.084302
O O1 0.100093 0.378802 0.887823
O O2 0.155854 0.248911 0.873666
O O3 0.000000 0.269489 0.906737
O O4 0.116821 0.295896 0.000000
O O5 0.500000 0.076746 0.286818
O O6 0.361743 0.123951 0.251091
O O7 0.372213 0.000000 0.321017
O O8 0.500000 0.416822 0.083024
O O9 0.623394 0.500000 0.110151
O O10 0.632361 0.354622 0.126078
O O11 0.626926 0.411322 0.000000
O O12 0.500000 0.718420 0.158493
O O13 0.389094 0.692412 0.253759
O O14 0.368989 0.787759 0.142686
O O15 0.250000 0.250000 0.250000
O O16 0.262332 0.361315 0.331821
O O17 0.634291 0.071064 0.117823
O O18 0.500000 0.000000 0.102541
O O19 0.610203 0.000000 0.000000
#
# Coordination Sequence:
#
# PCOD8287880 Si02
#       7
#    16  16  16  16  16  16   8
#     4  10  20  35  57  85 116 149 190 241 291 345
#     4  10  18  31  56  83 112 151 193 232 284 346
#     4   8  15  29  48  73 106 138 168 211 268 321
#     4  10  18  31  56  82 107 141 190 232 268 328
#     4  10  20  34  53  79 108 143 184 230 282 333
#     4  11  21  35  56  81 112 150 184 234 288 335
#     4  11  24  40  58  84 114 146 190 235 282 342
#
# _framework density 18.141522999999999
#
# number of rings (size 3 to 8) (size 9 to 14) (size 15 to 20)
#    0.000    2.077    3.846    2.308    0.000    1.538 
#    1.385    5.385    0.000    0.000    0.000    0.000 
#    0.000    2.462    0.000    0.000    0.000    0.000 
#
# Total GULP energy -644375.748687 kJ/mol
# GULP energy per Si atom -12391.841321 kJ/mol
# Density = 1.810023 g / cm^3
# Si number density = 18.141523 Si / 1000 Ang^3
#
#
#
# Elastic Constant Matrix: (Units=GPa)
#
#
# Indices 1 2 3 4 5 6 
#
# 1 46.8851 39.2011 28.6464 0.0000 0.0000 0.0000
# 2 39.2011 147.3197 66.3710 0.0000 0.0000 0.0000
# 3 28.6464 66.3710 120.8207 0.0000 0.0000 0.0000
# 4 0.0000 0.0000 0.0000 29.2652 0.0000 0.0000
# 5 0.0000 0.0000 0.0000 0.0000 20.2455 0.0000
# 6 0.0000 0.0000 0.0000 0.0000 0.0000 23.2698
#
#
#
# Elastic Compliance Matrix: (Units=1/GPa)
#
#
# Indices 1 2 3 4 5 6 
#
# 1 0.028468 -0.006026 -0.003440 0.000000 0.000000 0.000000
# 2 -0.006026 0.010296 -0.004227 0.000000 0.000000 0.000000
# 3 -0.003440 -0.004227 0.011414 0.000000 0.000000 0.000000
# 4 0.000000 0.000000 0.000000 0.034170 0.000000 0.000000
# 5 0.000000 0.000000 0.000000 0.000000 0.049394 0.000000
# 6 0.000000 0.000000 0.000000 0.000000 0.000000 0.042974
#
#
# Mechanical properties :
#
#
# Convention : Reuss Voigt Hill
#
# Bulk Modulus (GPa) = 43.87199 64.82916 54.35058
# Shear Modulus (GPa) = 23.61835 26.60989 25.11412
#
# Velocity S-wave (km/s) = 3.61209 3.83403 3.72471
# Velocity P-wave (km/s) = 6.45228 7.44396 6.96579
#
# Compressibility (1/GPa) = 0.02279359
#
# Stress axis : x y z
#
# Youngs Moduli (GPa) = 35.12661 97.12703 87.60851
#
# Poissons Ratio (x) = 0.58525 0.30135
# Poissons Ratio (y) = 0.21166 0.37034
# Poissons Ratio (z) = 0.12083 0.41057
#
# Static dielectric constant tensor:
#      x y z
#    x 3.469670 0.000000 0.000000 
#    y 0.000000 3.534310 0.000000 
#    z 0.000000 0.000000 3.395170 
# 
# 
# High freq. dielectric constant tensor:
#      x y z
#    x 1.691000 0.000000 0.000000 
#    y 0.000000 1.698020 0.000000 
#    z 0.000000 0.000000 1.694830 
# 
# From -- ./inp_files/46141.got.cif
#   From: 2010.06.25/outbox.cif.g09.slc.cpg/sg71_24_cif.got.tgz:46141.got - 2010.06.28 04:59:45.
