data_PCOD8287351
_publ_section_title
;
Structure prediction by ZEFSAII (Michael W. Deem and Ramdas Pophale) SiO2 
 PCOD8287351
Probable space group: I M M M
;
_chemical_formula_sum "Si O2"
_cell_formula_units_Z 104
_cell_length_a 9.928230
_cell_length_b 22.016877
_cell_length_c 27.462167
_cell_angle_alpha 90.000000
_cell_angle_beta 90.000000
_cell_angle_gamma 90.000000
_cell_volume 6002.917152
_symmetry_space_group_name_H-M "I M M M"
_symmetry_group_IT_number 71
_symmetry_cell_setting 'orthorhombic'
loop_
_space_group_symop_operation_xyz
x,y,z
-x,-y,z
x,-y,-z
-x,y,-z
-x,-y,-z
x,y,-z
-x,y,z
x,-y,z
1/2+x,1/2+y,1/2+z
1/2-x,1/2-y,1/2+z
1/2+x,1/2-y,1/2-z
1/2-x,1/2+y,1/2-z
1/2-x,1/2-y,1/2-z
1/2+x,1/2+y,1/2-z
1/2-x,1/2+y,1/2+z
1/2+x,1/2-y,1/2+z
loop_
_atom_site_type_symbol
_atom_site_label
_atom_site_fract_x
_atom_site_fract_y
_atom_site_fract_z
Si Si1 0.343403 0.619799 0.607477
Si Si2 0.000000 0.572185 0.056560
Si Si3 0.342431 0.697266 0.809685
Si Si4 0.154533 0.188462 0.800408
Si Si5 0.753111 0.138286 0.403437
Si Si6 0.160927 0.000000 0.056263
Si Si7 0.846596 0.760582 0.943208
Si Si8 0.500000 0.566552 0.943257
O O1 0.500000 0.616333 0.594981
O O2 0.318075 0.629117 0.665605
O O3 0.278584 0.558419 0.585308
O O4 0.283840 0.679242 0.581026
O O5 0.875839 0.597352 0.086917
O O6 0.000000 0.500000 0.057364
O O7 0.000000 0.595485 0.000000
O O8 0.500000 0.711182 0.820253
O O9 0.256089 0.758434 0.816193
O O10 0.322363 0.669996 0.755578
O O11 0.284094 0.646384 0.846081
O O12 0.000000 0.211236 0.808344
O O13 0.743785 0.204139 0.427783
O O14 0.871424 0.103614 0.428816
O O15 0.000000 0.000000 0.058016
O O16 0.210385 0.000000 0.000000
O O17 0.000000 0.748707 0.925533
O O18 0.840316 0.770687 0.000000
O O19 0.500000 0.500000 0.917950
O O20 0.500000 0.556842 0.000000
#
# Coordination Sequence:
#
# PCOD8287351 Si02
#       8
#    16   8  16  16  16   8  16   8
#     4   9  16  27  46  71 104 139 175 212 259 314
#     4  11  24  40  58  79 104 139 187 230 269 332
#     4  10  20  34  52  81 110 139 178 222 278 333
#     4   9  18  33  55  78 106 142 181 224 270 323
#     4  12  21  35  56  78 107 138 176 229 276 324
#     4   9  16  26  42  70 111 149 173 203 260 325
#     4  10  18  28  46  75 104 130 168 223 275 315
#     4  11  24  40  56  73 104 147 181 212 271 346
#
# _framework density 17.324909999999999
#
# number of rings (size 3 to 8) (size 9 to 14) (size 15 to 20)
#    0.000    1.923    3.077    2.308    1.077    3.077 
#    0.000    0.000    3.385    0.000    0.000    0.538 
#    0.000    0.615    0.000    0.000    0.000    0.000 
#
# Total GULP energy -644572.490582 kJ/mol
# GULP energy per Si atom -12395.624819 kJ/mol
# Density = 1.728548 g / cm^3
# Si number density = 17.324910 Si / 1000 Ang^3
#
#
#
# Elastic Constant Matrix: (Units=GPa)
#
#
# Indices 1 2 3 4 5 6 
#
# 1 89.4725 45.7323 40.8146 0.0000 0.0000 0.0000
# 2 45.7323 132.5562 62.0489 0.0000 0.0000 0.0000
# 3 40.8146 62.0489 120.3126 0.0000 0.0000 0.0000
# 4 0.0000 0.0000 0.0000 27.3462 0.0000 0.0000
# 5 0.0000 0.0000 0.0000 0.0000 20.9147 0.0000
# 6 0.0000 0.0000 0.0000 0.0000 0.0000 36.4056
#
#
#
# Elastic Compliance Matrix: (Units=1/GPa)
#
#
# Indices 1 2 3 4 5 6 
#
# 1 0.014374 -0.003528 -0.003057 0.000000 0.000000 0.000000
# 2 -0.003528 0.010811 -0.004379 0.000000 0.000000 0.000000
# 3 -0.003057 -0.004379 0.011607 0.000000 0.000000 0.000000
# 4 0.000000 0.000000 0.000000 0.036568 0.000000 0.000000
# 5 0.000000 0.000000 0.000000 0.000000 0.047813 0.000000
# 6 0.000000 0.000000 0.000000 0.000000 0.000000 0.027468
#
#
# Mechanical properties :
#
#
# Convention : Reuss Voigt Hill
#
# Bulk Modulus (GPa) = 67.27266 71.05922 69.16594
# Shear Modulus (GPa) = 28.48615 29.84967 29.16791
#
# Velocity S-wave (km/s) = 4.05931 4.15533 4.10760
# Velocity P-wave (km/s) = 7.80288 8.00793 7.90607
#
# Compressibility (1/GPa) = 0.01486488
#
# Stress axis : x y z
#
# Youngs Moduli (GPa) = 69.56780 92.49967 86.15684
#
# Poissons Ratio (x) = 0.32638 0.26335
# Poissons Ratio (y) = 0.24547 0.37724
# Poissons Ratio (z) = 0.21264 0.40501
#
# Static dielectric constant tensor:
#      x y z
#    x 3.070250 0.000000 0.000000 
#    y 0.000000 3.346410 0.000000 
#    z 0.000000 0.000000 3.473620 
# 
# 
# High freq. dielectric constant tensor:
#      x y z
#    x 1.642620 0.000000 0.000000 
#    y 0.000000 1.659300 0.000000 
#    z 0.000000 0.000000 1.682140 
# 
# From -- ./inp_files/63602.got.cif
#   From: 2010.06.25/outbox.cif.g09.slc.cpg/sg71_32_cif.got.tgz:63602.got - 2010.06.28 04:59:45.
