data_PCOD8287348
_publ_section_title
;
Structure prediction by ZEFSAII (Michael W. Deem and Ramdas Pophale) SiO2 
 PCOD8287348
Probable space group: I M M M
;
_chemical_formula_sum "Si O2"
_cell_formula_units_Z 112
_cell_length_a 17.462468
_cell_length_b 23.893976
_cell_length_c 13.990471
_cell_angle_alpha 90.000000
_cell_angle_beta 90.000000
_cell_angle_gamma 90.000000
_cell_volume 5837.493124
_symmetry_space_group_name_H-M "I M M M"
_symmetry_group_IT_number 71
_symmetry_cell_setting 'orthorhombic'
loop_
_space_group_symop_operation_xyz
x,y,z
-x,-y,z
x,-y,-z
-x,y,-z
-x,-y,-z
x,y,-z
-x,y,z
x,-y,z
1/2+x,1/2+y,1/2+z
1/2-x,1/2-y,1/2+z
1/2+x,1/2-y,1/2-z
1/2-x,1/2+y,1/2-z
1/2-x,1/2-y,1/2-z
1/2+x,1/2+y,1/2-z
1/2-x,1/2+y,1/2+z
1/2+x,1/2-y,1/2+z
loop_
_atom_site_type_symbol
_atom_site_label
_atom_site_fract_x
_atom_site_fract_y
_atom_site_fract_z
Si Si1 0.221478 0.560913 0.612272
Si Si2 0.088907 0.619371 0.706594
Si Si3 0.153139 0.724310 0.389987
Si Si4 0.688636 0.668474 0.390241
Si Si5 0.909265 0.938330 0.393171
Si Si6 0.090672 0.437365 0.104567
Si Si7 0.590797 0.671485 0.787071
O O1 0.224893 0.558123 0.500000
O O2 0.242805 0.500000 0.655966
O O3 0.135036 0.577496 0.638659
O O4 0.280749 0.608207 0.646228
O O5 0.105383 0.683367 0.679176
O O6 0.117139 0.607322 0.815572
O O7 0.000000 0.605432 0.693891
O O8 0.129059 0.713596 0.500000
O O9 0.243941 0.714059 0.378249
O O10 0.132485 0.786900 0.360314
O O11 0.659529 0.666809 0.500000
O O12 0.618143 0.683706 0.321283
O O13 0.877545 0.925805 0.500000
O O14 0.882534 0.890486 0.319567
O O15 0.000000 0.938394 0.397234
O O16 0.880274 0.000000 0.359017
O O17 0.120781 0.500000 0.129885
O O18 0.000000 0.438860 0.100148
O O19 0.122784 0.419033 0.000000
O O20 0.500000 0.679986 0.791810
#
# Coordination Sequence:
#
# PCOD8287348 Si02
#       7
#    16  16  16  16  16  16  16
#     4   9  18  32  50  72  99 136 177 212 257 317
#     4  10  18  28  46  74 106 138 175 221 266 302
#     4  10  21  37  55  76 106 143 179 212 256 320
#     4   9  20  38  55  72 102 143 178 211 254 307
#     4   8  15  29  49  76 109 136 160 204 270 333
#     4   8  14  25  41  62  91 130 175 218 257 297
#     4  11  21  33  56  85 106 131 172 220 270 321
#
# _framework density 19.186318
#
# number of rings (size 3 to 8) (size 9 to 14) (size 15 to 20)
#    0.000    2.714    0.000    3.857    0.000    4.286 
#    0.000    1.429    0.000    8.571    0.000   12.000 
#    0.000    0.000    0.000    0.000    0.000    0.000 
#
# Total GULP energy -694039.343023 kJ/mol
# GULP energy per Si atom -12393.559697 kJ/mol
# Density = 1.914265 g / cm^3
# Si number density = 19.186318 Si / 1000 Ang^3
#
#
#
# Elastic Constant Matrix: (Units=GPa)
#
#
# Indices 1 2 3 4 5 6 
#
# 1 38.4699 28.5130 31.2303 0.0000 0.0000 0.0000
# 2 28.5130 119.2774 54.2102 0.0000 0.0000 0.0000
# 3 31.2303 54.2102 88.5262 0.0000 0.0000 0.0000
# 4 0.0000 0.0000 0.0000 28.8136 0.0000 0.0000
# 5 0.0000 0.0000 0.0000 0.0000 23.1414 0.0000
# 6 0.0000 0.0000 0.0000 0.0000 0.0000 12.6769
#
#
#
# Elastic Compliance Matrix: (Units=1/GPa)
#
#
# Indices 1 2 3 4 5 6 
#
# 1 0.037838 -0.004127 -0.010821 0.000000 0.000000 0.000000
# 2 -0.004127 0.012067 -0.005934 0.000000 0.000000 0.000000
# 3 -0.010821 -0.005934 0.018747 0.000000 0.000000 0.000000
# 4 0.000000 0.000000 0.000000 0.034706 0.000000 0.000000
# 5 0.000000 0.000000 0.000000 0.000000 0.043213 0.000000
# 6 0.000000 0.000000 0.000000 0.000000 0.000000 0.078884
#
#
# Mechanical properties :
#
#
# Convention : Reuss Voigt Hill
#
# Bulk Modulus (GPa) = 37.19046 52.68674 44.93860
# Shear Modulus (GPa) = 18.10406 21.74770 19.92588
#
# Velocity S-wave (km/s) = 3.07513 3.37040 3.22614
# Velocity P-wave (km/s) = 5.65990 6.53195 6.11150
#
# Compressibility (1/GPa) = 0.02688862
#
# Stress axis : x y z
#
# Youngs Moduli (GPa) = 26.42845 82.87013 53.34147
#
# Poissons Ratio (x) = 0.34200 0.57723
# Poissons Ratio (y) = 0.10907 0.31650
# Poissons Ratio (z) = 0.28599 0.49171
#
# Static dielectric constant tensor:
#      x y z
#    x 3.092340 0.000000 0.000000 
#    y 0.000000 3.971220 0.000000 
#    z 0.000000 0.000000 3.686110 
# 
# 
# High freq. dielectric constant tensor:
#      x y z
#    x 1.709650 0.000000 0.000000 
#    y 0.000000 1.747460 0.000000 
#    z 0.000000 0.000000 1.749280 
# 
# From -- ./inp_files/34914.got.cif
#   From: 2010.06.25/outbox.cif.g09.slc.cpg/sg71_18_cif.got.tgz:34914.got - 2010.06.28 04:59:45.
