data_PCOD8287403
_publ_section_title
;
Structure prediction by ZEFSAII (Michael W. Deem and Ramdas Pophale) SiO2 
 PCOD8287403
Probable space group: I M M M
;
_chemical_formula_sum "Si O2"
_cell_formula_units_Z 72
_cell_length_a 8.733632
_cell_length_b 33.592359
_cell_length_c 14.371607
_cell_angle_alpha 90.000000
_cell_angle_beta 90.000000
_cell_angle_gamma 90.000000
_cell_volume 4216.389510
_symmetry_space_group_name_H-M "I M M M"
_symmetry_group_IT_number 71
_symmetry_cell_setting 'orthorhombic'
loop_
_space_group_symop_operation_xyz
x,y,z
-x,-y,z
x,-y,-z
-x,y,-z
-x,-y,-z
x,y,-z
-x,y,z
x,-y,z
1/2+x,1/2+y,1/2+z
1/2-x,1/2-y,1/2+z
1/2+x,1/2-y,1/2-z
1/2-x,1/2+y,1/2-z
1/2-x,1/2-y,1/2-z
1/2+x,1/2+y,1/2-z
1/2-x,1/2+y,1/2+z
1/2+x,1/2-y,1/2+z
loop_
_atom_site_type_symbol
_atom_site_label
_atom_site_fract_x
_atom_site_fract_y
_atom_site_fract_z
Si Si1 0.676403 0.312236 0.601338
Si Si2 0.318738 0.841118 0.288608
Si Si3 0.172469 0.000000 0.389509
Si Si4 0.182144 0.764026 0.653277
Si Si5 0.180398 0.419477 0.894652
O O1 0.689946 0.333885 0.500000
O O2 0.500000 0.307772 0.632031
O O3 0.762432 0.336918 0.681817
O O4 0.749497 0.268394 0.582804
O O5 0.500000 0.835451 0.290662
O O6 0.243377 0.808987 0.359555
O O7 0.266748 0.883812 0.327492
O O8 0.252872 0.039837 0.351387
O O9 0.184938 0.000000 0.500000
O O10 0.000000 0.000000 0.353222
O O11 0.250000 0.750000 0.750000
O O12 0.000000 0.763558 0.648740
O O13 0.000000 0.423503 0.895957
O O14 0.241132 0.411929 0.000000
#
# Coordination Sequence:
#
# PCOD8287403 Si02
#       5
#    16  16   8  16  16
#     4  10  20  33  48  65  89 124 162 199 239 279
#     4  10  19  31  48  70  95 123 157 195 232 273
#     4   9  17  29  47  71  96 121 150 185 223 266
#     4  10  18  29  45  63  87 118 152 192 234 273
#     4   9  18  32  49  69  95 126 154 181 221 275
#
# _framework density 17.076222000000001
#
# number of rings (size 3 to 8) (size 9 to 14) (size 15 to 20)
#    0.000    2.333    0.000    6.333    0.000    5.778 
#    0.000    2.222    0.000    0.000    0.000    0.778 
#    0.000    6.222    0.000    0.000    0.000    0.000 
#
# Total GULP energy -446077.945396 kJ/mol
# GULP energy per Si atom -12391.054039 kJ/mol
# Density = 1.703736 g / cm^3
# Si number density = 17.076222 Si / 1000 Ang^3
#
#
#
# Elastic Constant Matrix: (Units=GPa)
#
#
# Indices 1 2 3 4 5 6 
#
# 1 93.5698 47.9062 23.6211 0.0003 0.0000 0.0000
# 2 47.9062 145.6496 45.6485 0.0004 0.0001 0.0000
# 3 23.6211 45.6485 70.7796 0.0017 0.0003 0.0001
# 4 0.0003 0.0004 0.0017 21.1710 0.0001 0.0000
# 5 0.0000 0.0001 0.0003 0.0001 19.0305 0.0002
# 6 0.0000 0.0000 0.0001 0.0000 0.0002 28.0164
#
#
#
# Elastic Compliance Matrix: (Units=1/GPa)
#
#
# Indices 1 2 3 4 5 6 
#
# 1 0.013072 -0.003675 -0.001992 0.000000 0.000000 0.000000
# 2 -0.003675 0.009638 -0.004990 0.000000 0.000000 0.000000
# 3 -0.001992 -0.004990 0.018011 -0.000001 0.000000 0.000000
# 4 0.000000 0.000000 -0.000001 0.047234 0.000000 0.000000
# 5 0.000000 0.000000 0.000000 0.000000 0.052547 0.000000
# 6 0.000000 0.000000 0.000000 0.000000 0.000000 0.035693
#
#
# Mechanical properties :
#
#
# Convention : Reuss Voigt Hill
#
# Bulk Modulus (GPa) = 51.52666 60.48341 56.00503
# Shear Modulus (GPa) = 24.51225 26.49846 25.50536
#
# Velocity S-wave (km/s) = 3.79286 3.94353 3.86893
# Velocity P-wave (km/s) = 7.03001 7.49879 7.26818
#
# Compressibility (1/GPa) = 0.01940743
#
# Stress axis : x y z
#
# Youngs Moduli (GPa) = 76.50101 103.75139 55.52080
#
# Poissons Ratio (x) = 0.38130 0.11061
# Poissons Ratio (y) = 0.28115 0.27703
# Poissons Ratio (z) = 0.15240 0.51769
#
# Static dielectric constant tensor:
#      x y z
#    x 3.266640 0.000000 0.000000 
#    y 0.000000 3.556040 0.000000 
#    z 0.000000 0.000000 3.266580 
# 
# 
# High freq. dielectric constant tensor:
#      x y z
#    x 1.672850 0.000000 0.000000 
#    y 0.000000 1.644200 0.000000 
#    z 0.000000 0.000000 1.634110 
# 
# From -- ./inp_files/16367.got.cif
#   From: 2010.06.25/outbox.cif.g09.slc.cpg/sg71_9_cif.got.tgz:16367.got - 2010.06.28 04:59:45.
