data_PCOD8287130
_publ_section_title
;
Structure prediction by ZEFSAII (Michael W. Deem and Ramdas Pophale) SiO2 
 PCOD8287130
Probable space group: I M M M
;
_chemical_formula_sum "Si O2"
_cell_formula_units_Z 88
_cell_length_a 14.630406
_cell_length_b 19.824319
_cell_length_c 18.067313
_cell_angle_alpha 90.000000
_cell_angle_beta 90.000000
_cell_angle_gamma 90.000000
_cell_volume 5240.204358
_symmetry_space_group_name_H-M "I M M M"
_symmetry_group_IT_number 71
_symmetry_cell_setting 'orthorhombic'
loop_
_space_group_symop_operation_xyz
x,y,z
-x,-y,z
x,-y,-z
-x,y,-z
-x,-y,-z
x,y,-z
-x,y,z
x,-y,z
1/2+x,1/2+y,1/2+z
1/2-x,1/2-y,1/2+z
1/2+x,1/2-y,1/2-z
1/2-x,1/2+y,1/2-z
1/2-x,1/2-y,1/2-z
1/2+x,1/2+y,1/2-z
1/2-x,1/2+y,1/2+z
1/2+x,1/2-y,1/2+z
loop_
_atom_site_type_symbol
_atom_site_label
_atom_site_fract_x
_atom_site_fract_y
_atom_site_fract_z
Si Si1 0.900145 0.729088 0.151361
Si Si2 0.664321 0.376975 0.322634
Si Si3 0.711735 0.308081 0.086004
Si Si4 0.823214 0.706864 0.704160
Si Si5 0.394713 0.422131 0.837728
Si Si6 0.603917 0.500000 0.587188
O O1 0.885252 0.809508 0.148995
O O2 0.820112 0.692533 0.105012
O O3 0.905496 0.700831 0.237048
O O4 0.000000 0.713313 0.116482
O O5 0.774049 0.364176 0.314370
O O6 0.619595 0.400238 0.246485
O O7 0.654437 0.433776 0.384134
O O8 0.655116 0.249448 0.129843
O O9 0.670270 0.380341 0.107450
O O10 0.697447 0.294180 0.000000
O O11 0.750000 0.750000 0.750000
O O12 0.500000 0.409749 0.859425
O O13 0.367688 0.500000 0.847135
O O14 0.500000 0.500000 0.616219
O O15 0.609335 0.500000 0.500000
#
# Coordination Sequence:
#
# PCOD8287130 Si02
#       6
#    16  16  16  16  16   8
#     4  10  18  32  55  76  97 131 175 213 250 299
#     4  10  17  31  49  72 102 135 168 201 241 294
#     4  10  20  34  48  72 105 132 165 212 258 298
#     4   8  16  31  49  72  94 128 172 210 242 289
#     4  11  20  31  52  76  99 134 172 200 241 302
#     4  11  22  30  42  74 112 138 163 198 244 302
#
# _framework density 16.793237999999999
#
# number of rings (size 3 to 8) (size 9 to 14) (size 15 to 20)
#    0.000    2.455    6.364    1.636    0.000    4.000 
#    0.000    0.909    0.000    0.545    0.000    1.273 
#    0.000    0.727    0.000    0.000    0.000    0.727 
#
# Total GULP energy -545216.040652 kJ/mol
# GULP energy per Si atom -12391.273651 kJ/mol
# Density = 1.675502 g / cm^3
# Si number density = 16.793238 Si / 1000 Ang^3
#
#
#
# Elastic Constant Matrix: (Units=GPa)
#
#
# Indices 1 2 3 4 5 6 
#
# 1 57.2391 45.9010 11.9932 0.0000 0.0000 0.0000
# 2 45.9010 103.9248 34.3155 0.0000 0.0000 0.0000
# 3 11.9932 34.3155 93.6405 0.0000 0.0000 0.0000
# 4 0.0000 0.0000 0.0000 23.1695 0.0000 0.0000
# 5 0.0000 0.0000 0.0000 0.0000 14.6945 0.0000
# 6 0.0000 0.0000 0.0000 0.0000 0.0000 22.4131
#
#
#
# Elastic Compliance Matrix: (Units=1/GPa)
#
#
# Indices 1 2 3 4 5 6 
#
# 1 0.027141 -0.012332 0.001043 0.000000 0.000000 0.000000
# 2 -0.012332 0.016550 -0.004486 0.000000 0.000000 0.000000
# 3 0.001043 -0.004486 0.012189 0.000000 0.000000 0.000000
# 4 0.000000 0.000000 0.000000 0.043160 0.000000 0.000000
# 5 0.000000 0.000000 0.000000 0.000000 0.068053 0.000000
# 6 0.000000 0.000000 0.000000 0.000000 0.000000 0.044617
#
#
# Mechanical properties :
#
#
# Convention : Reuss Voigt Hill
#
# Bulk Modulus (GPa) = 41.09860 48.80264 44.95062
# Shear Modulus (GPa) = 19.89100 22.89507 21.39303
#
# Velocity S-wave (km/s) = 3.44534 3.69636 3.57306
# Velocity P-wave (km/s) = 6.35245 6.88051 6.62175
#
# Compressibility (1/GPa) = 0.02433173
#
# Stress axis : x y z
#
# Youngs Moduli (GPa) = 36.84418 60.42219 82.03895
#
# Poissons Ratio (x) = 0.74513 -0.08557
# Poissons Ratio (y) = 0.45436 0.36799
# Poissons Ratio (z) = -0.03843 0.27103
#
# Static dielectric constant tensor:
#      x y z
#    x 3.463240 0.000000 0.000000 
#    y 0.000000 3.338800 0.000000 
#    z 0.000000 0.000000 3.248590 
# 
# 
# High freq. dielectric constant tensor:
#      x y z
#    x 1.628320 0.000000 0.000000 
#    y 0.000000 1.630190 0.000000 
#    z 0.000000 0.000000 1.642530 
# 
# From -- ./inp_files/44893.got.cif
#   From: 2010.06.25/outbox.cif.g09.slc.cpg/sg71_23_cif.got.tgz:44893.got - 2010.06.28 04:59:45.
