data_PCOD8287506
_publ_section_title
;
Structure prediction by ZEFSAII (Michael W. Deem and Ramdas Pophale) SiO2 
 PCOD8287506
Probable space group: I M M M
;
_chemical_formula_sum "Si O2"
_cell_formula_units_Z 64
_cell_length_a 21.647816
_cell_length_b 12.980940
_cell_length_c 13.452510
_cell_angle_alpha 90.000000
_cell_angle_beta 90.000000
_cell_angle_gamma 90.000000
_cell_volume 3780.276391
_symmetry_space_group_name_H-M "I M M M"
_symmetry_group_IT_number 71
_symmetry_cell_setting 'orthorhombic'
loop_
_space_group_symop_operation_xyz
x,y,z
-x,-y,z
x,-y,-z
-x,y,-z
-x,-y,-z
x,y,-z
-x,y,z
x,-y,z
1/2+x,1/2+y,1/2+z
1/2-x,1/2-y,1/2+z
1/2+x,1/2-y,1/2-z
1/2-x,1/2+y,1/2-z
1/2-x,1/2-y,1/2-z
1/2+x,1/2+y,1/2-z
1/2-x,1/2+y,1/2+z
1/2+x,1/2-y,1/2+z
loop_
_atom_site_type_symbol
_atom_site_label
_atom_site_fract_x
_atom_site_fract_y
_atom_site_fract_z
Si Si1 0.290162 0.277242 0.613301
Si Si2 0.844610 0.290341 0.694346
Si Si3 0.928756 0.882821 0.615053
Si Si4 0.143889 0.500000 0.617913
Si Si5 0.219261 0.000000 0.115023
O O1 0.306518 0.246048 0.500000
O O2 0.215942 0.275005 0.625425
O O3 0.324072 0.200914 0.689743
O O4 0.315571 0.393267 0.640581
O O5 0.888610 0.192697 0.682187
O O6 0.883273 0.393156 0.662827
O O7 0.918764 0.854931 0.500000
O O8 0.000000 0.869511 0.644711
O O9 0.907327 0.000000 0.635675
O O10 0.134561 0.500000 0.500000
O O11 0.213102 0.500000 0.663738
O O12 0.235395 0.000000 0.000000
#
# Coordination Sequence:
#
# PCOD8287506 Si02
#       5
#    16  16  16   8   8
#     4   9  17  28  44  70  97 123 158 197 238 285
#     4  10  18  29  49  67  92 128 163 189 239 288
#     4   9  18  32  49  70  96 124 156 200 248 286
#     4   9  16  28  44  63  90 121 150 187 230 277
#     4   7  12  24  40  58  88 121 146 180 229 278
#
# _framework density 16.929977999999998
#
# number of rings (size 3 to 8) (size 9 to 14) (size 15 to 20)
#    0.000    3.000    0.000    4.500    1.750    0.000 
#    2.250    1.250    0.000    3.000    0.000    1.750 
#    0.000    2.000    0.000    0.000    0.000    0.000 
#
# Total GULP energy -396432.850144 kJ/mol
# GULP energy per Si atom -12388.526567 kJ/mol
# Density = 1.689145 g / cm^3
# Si number density = 16.929978 Si / 1000 Ang^3
#
#
#
# Elastic Constant Matrix: (Units=GPa)
#
#
# Indices 1 2 3 4 5 6 
#
# 1 35.0861 32.6274 21.2658 0.0000 0.0000 0.0000
# 2 32.6274 101.4419 44.8636 0.0000 0.0000 0.0000
# 3 21.2658 44.8636 96.5074 0.0000 0.0000 0.0000
# 4 0.0000 0.0000 0.0000 27.3039 0.0000 0.0000
# 5 0.0000 0.0000 0.0000 0.0000 13.0554 0.0000
# 6 0.0000 0.0000 0.0000 0.0000 0.0000 22.1450
#
#
#
# Elastic Compliance Matrix: (Units=1/GPa)
#
#
# Indices 1 2 3 4 5 6 
#
# 1 0.041697 -0.011767 -0.003718 0.000000 0.000000 0.000000
# 2 -0.011767 0.015730 -0.004719 0.000000 0.000000 0.000000
# 3 -0.003718 -0.004719 0.013375 0.000000 0.000000 0.000000
# 4 0.000000 0.000000 0.000000 0.036625 0.000000 0.000000
# 5 0.000000 0.000000 0.000000 0.000000 0.076597 0.000000
# 6 0.000000 0.000000 0.000000 0.000000 0.000000 0.045157
#
#
# Mechanical properties :
#
#
# Convention : Reuss Voigt Hill
#
# Bulk Modulus (GPa) = 32.90204 47.83879 40.37042
# Shear Modulus (GPa) = 17.87498 21.45275 19.66387
#
# Velocity S-wave (km/s) = 3.25286 3.56356 3.41175
# Velocity P-wave (km/s) = 5.79521 6.72682 6.27832
#
# Compressibility (1/GPa) = 0.03039325
#
# Stress axis : x y z
#
# Youngs Moduli (GPa) = 23.98233 63.57363 74.76577
#
# Poissons Ratio (x) = 0.74808 0.27798
# Poissons Ratio (y) = 0.28220 0.35285
# Poissons Ratio (z) = 0.08917 0.30003
#
# Static dielectric constant tensor:
#      x y z
#    x 2.667560 0.000000 0.000000 
#    y 0.000000 3.516490 0.000000 
#    z 0.000000 0.000000 2.970530 
# 
# 
# High freq. dielectric constant tensor:
#      x y z
#    x 1.594590 0.000000 0.000000 
#    y 0.000000 1.662460 0.000000 
#    z 0.000000 0.000000 1.639530 
# 
# From -- ./inp_files/36014.got.cif
#   From: 2010.06.25/outbox.cif.g09.slc.cpg/sg71_19_cif.got.tgz:36014.got - 2010.06.28 04:59:45.
