data_PCOD8287537
_publ_section_title
;
Structure prediction by ZEFSAII (Michael W. Deem and Ramdas Pophale) SiO2 
 PCOD8287537
Probable space group: I M M M
;
_chemical_formula_sum "Si O2"
_cell_formula_units_Z 80
_cell_length_a 8.921839
_cell_length_b 21.640763
_cell_length_c 21.801330
_cell_angle_alpha 90.000000
_cell_angle_beta 90.000000
_cell_angle_gamma 90.000000
_cell_volume 4209.300583
_symmetry_space_group_name_H-M "I M M M"
_symmetry_group_IT_number 71
_symmetry_cell_setting 'orthorhombic'
loop_
_space_group_symop_operation_xyz
x,y,z
-x,-y,z
x,-y,-z
-x,y,-z
-x,-y,-z
x,y,-z
-x,y,z
x,-y,z
1/2+x,1/2+y,1/2+z
1/2-x,1/2-y,1/2+z
1/2+x,1/2-y,1/2-z
1/2-x,1/2+y,1/2-z
1/2-x,1/2-y,1/2-z
1/2+x,1/2+y,1/2-z
1/2-x,1/2+y,1/2+z
1/2+x,1/2-y,1/2+z
loop_
_atom_site_type_symbol
_atom_site_label
_atom_site_fract_x
_atom_site_fract_y
_atom_site_fract_z
Si Si1 0.169481 0.500000 0.927685
Si Si2 0.323019 0.856877 0.118882
Si Si3 0.323143 0.735888 0.183944
Si Si4 0.175882 0.900096 0.649835
Si Si5 0.820910 0.571829 0.500000
Si Si6 0.166737 0.431940 0.268589
O O1 0.247582 0.436650 0.905818
O O2 0.000000 0.500000 0.902394
O O3 0.175371 0.500000 0.000000
O O4 0.500000 0.866043 0.115986
O O5 0.279759 0.785151 0.130271
O O6 0.255766 0.889261 0.058054
O O7 0.258839 0.890506 0.178956
O O8 0.500000 0.735850 0.195811
O O9 0.250000 0.750000 0.250000
O O10 0.268380 0.670776 0.155832
O O11 0.221482 0.934359 0.711817
O O12 0.000000 0.903927 0.639321
O O13 0.764377 0.500000 0.500000
O O14 0.000000 0.572055 0.500000
O O15 0.152032 0.500000 0.296413
O O16 0.000000 0.407554 0.249532
#
# Coordination Sequence:
#
# PCOD8287537 Si02
#       6
#     8  16  16  16   8  16
#     4  11  25  45  65  83 107 146 195 238 289 355
#     4   9  17  30  48  74 111 151 187 227 277 331
#     4  10  20  34  53  82 115 150 187 228 281 337
#     4  11  22  35  55  84 115 145 182 233 290 337
#     4   9  16  28  48  76 111 146 185 232 273 318
#     4  10  18  29  51  80 108 143 188 234 282 333
#
# _framework density 19.005534000000001
#
# number of rings (size 3 to 8) (size 9 to 14) (size 15 to 20)
#    0.000    2.000    3.000    1.500    0.000    4.000 
#    1.800    0.000    0.000    0.000    0.000    2.100 
#    0.000    4.800    0.000    0.000    0.000    0.000 
#
# Total GULP energy -495710.975824 kJ/mol
# GULP energy per Si atom -12392.774396 kJ/mol
# Density = 1.896228 g / cm^3
# Si number density = 19.005534 Si / 1000 Ang^3
#
#
#
# Elastic Constant Matrix: (Units=GPa)
#
#
# Indices 1 2 3 4 5 6 
#
# 1 49.0697 33.8193 23.9568 0.0000 0.0000 0.0000
# 2 33.8193 160.4102 55.9059 0.0000 0.0000 0.0000
# 3 23.9568 55.9059 97.2110 0.0000 0.0000 0.0000
# 4 0.0000 0.0000 0.0000 37.0333 0.0000 0.0000
# 5 0.0000 0.0000 0.0000 0.0000 14.3553 0.0000
# 6 0.0000 0.0000 0.0000 0.0000 0.0000 19.9441
#
#
#
# Elastic Compliance Matrix: (Units=1/GPa)
#
#
# Indices 1 2 3 4 5 6 
#
# 1 0.024979 -0.003903 -0.003911 0.000000 0.000000 0.000000
# 2 -0.003903 0.008407 -0.003873 0.000000 0.000000 0.000000
# 3 -0.003911 -0.003873 0.013478 0.000000 0.000000 0.000000
# 4 0.000000 0.000000 0.000000 0.027003 0.000000 0.000000
# 5 0.000000 0.000000 0.000000 0.000000 0.069661 0.000000
# 6 0.000000 0.000000 0.000000 0.000000 0.000000 0.050140
#
#
# Mechanical properties :
#
#
# Convention : Reuss Voigt Hill
#
# Bulk Modulus (GPa) = 42.57250 59.33944 50.95597
# Shear Modulus (GPa) = 22.23502 27.13382 24.68442
#
# Velocity S-wave (km/s) = 3.42413 3.78256 3.60780
# Velocity P-wave (km/s) = 6.17102 7.09697 6.65013
#
# Compressibility (1/GPa) = 0.02348934
#
# Stress axis : x y z
#
# Youngs Moduli (GPa) = 40.03401 118.95347 74.19514
#
# Poissons Ratio (x) = 0.46430 0.29018
# Poissons Ratio (y) = 0.15626 0.28734
# Poissons Ratio (z) = 0.15658 0.46068
#
# Static dielectric constant tensor:
#      x y z
#    x 3.202770 0.000000 0.000000 
#    y 0.000000 3.862010 0.000000 
#    z 0.000000 0.000000 3.452520 
# 
# 
# High freq. dielectric constant tensor:
#      x y z
#    x 1.700990 0.000000 0.000000 
#    y 0.000000 1.759420 0.000000 
#    z 0.000000 0.000000 1.726510 
# 
# From -- ./inp_files/57439.got.cif
#   From: 2010.06.25/outbox.cif.g09.slc.cpg/sg71_29_cif.got.tgz:57439.got - 2010.06.28 04:59:45.
