data_PCOD8287787
_publ_section_title
;
Structure prediction by ZEFSAII (Michael W. Deem and Ramdas Pophale) SiO2 
 PCOD8287787
Probable space group: I M M M
;
_chemical_formula_sum "Si O2"
_cell_formula_units_Z 96
_cell_length_a 19.056920
_cell_length_b 21.506403
_cell_length_c 13.511437
_cell_angle_alpha 90.000000
_cell_angle_beta 90.000000
_cell_angle_gamma 90.000000
_cell_volume 5537.605726
_symmetry_space_group_name_H-M "I M M M"
_symmetry_group_IT_number 71
_symmetry_cell_setting 'orthorhombic'
loop_
_space_group_symop_operation_xyz
x,y,z
-x,-y,z
x,-y,-z
-x,y,-z
-x,-y,-z
x,y,-z
-x,y,z
x,-y,z
1/2+x,1/2+y,1/2+z
1/2-x,1/2-y,1/2+z
1/2+x,1/2-y,1/2-z
1/2-x,1/2+y,1/2-z
1/2-x,1/2-y,1/2-z
1/2+x,1/2+y,1/2-z
1/2-x,1/2+y,1/2+z
1/2+x,1/2-y,1/2+z
loop_
_atom_site_type_symbol
_atom_site_label
_atom_site_fract_x
_atom_site_fract_y
_atom_site_fract_z
Si Si1 0.715745 0.153452 0.791484
Si Si2 0.326833 0.570978 0.386704
Si Si3 0.417062 0.325007 0.318906
Si Si4 0.201511 0.261757 0.113387
Si Si5 0.076748 0.344729 0.611818
Si Si6 0.579143 0.697642 0.105244
O O1 0.768784 0.096666 0.810362
O O2 0.738474 0.211213 0.861469
O O3 0.714482 0.176127 0.677816
O O4 0.638576 0.128224 0.820200
O O5 0.300409 0.577701 0.500000
O O6 0.343687 0.500000 0.359950
O O7 0.398336 0.610752 0.373890
O O8 0.500000 0.311416 0.325498
O O9 0.375648 0.267450 0.367931
O O10 0.388152 0.331514 0.205121
O O11 0.208657 0.281757 0.000000
O O12 0.087811 0.368156 0.500000
O O13 0.080004 0.270979 0.617801
O O14 0.000000 0.367262 0.650211
O O15 0.500000 0.673269 0.098414
O O16 0.617042 0.679018 0.000000
#
# Coordination Sequence:
#
# PCOD8287787 Si02
#       6
#    16  16  16  16  16  16
#     4  10  18  32  49  66  94 129 157 194 243 296
#     4  10  22  38  52  68  92 128 174 212 242 279
#     4  10  18  31  50  74 105 135 162 198 242 288
#     4  10  20  30  44  71 100 126 156 193 242 298
#     4   9  15  24  43  71  97 119 148 184 229 289
#     4   8  14  24  40  67 101 130 152 182 232 288
#
# _framework density 17.336013000000001
#
# number of rings (size 3 to 8) (size 9 to 14) (size 15 to 20)
#    0.000    2.500    1.667    4.000    0.000    1.667 
#    0.000    0.833    0.000    2.500    0.000    4.667 
#    0.000    0.000    0.000    3.000    0.000    0.167 
#
# Total GULP energy -594738.607886 kJ/mol
# GULP energy per Si atom -12390.387664 kJ/mol
# Density = 1.729656 g / cm^3
# Si number density = 17.336013 Si / 1000 Ang^3
#
#
#
# Elastic Constant Matrix: (Units=GPa)
#
#
# Indices 1 2 3 4 5 6 
#
# 1 85.8544 0.8891 23.3683 0.0000 0.0000 0.0000
# 2 0.8891 42.3205 25.1088 0.0000 0.0000 0.0000
# 3 23.3683 25.1088 114.6539 0.0000 0.0000 0.0000
# 4 0.0000 0.0000 0.0000 16.1424 0.0000 0.0000
# 5 0.0000 0.0000 0.0000 0.0000 21.1578 0.0000
# 6 0.0000 0.0000 0.0000 0.0000 0.0000 9.4418
#
#
#
# Elastic Compliance Matrix: (Units=1/GPa)
#
#
# Indices 1 2 3 4 5 6 
#
# 1 0.012406 0.001425 -0.002841 0.000000 0.000000 0.000000
# 2 0.001425 0.027321 -0.006274 0.000000 0.000000 0.000000
# 3 -0.002841 -0.006274 0.010675 0.000000 0.000000 0.000000
# 4 0.000000 0.000000 0.000000 0.061949 0.000000 0.000000
# 5 0.000000 0.000000 0.000000 0.000000 0.047264 0.000000
# 6 0.000000 0.000000 0.000000 0.000000 0.000000 0.105912
#
#
# Mechanical properties :
#
#
# Convention : Reuss Voigt Hill
#
# Bulk Modulus (GPa) = 28.55256 37.95124 33.25190
# Shear Modulus (GPa) = 17.08933 22.24591 19.66762
#
# Velocity S-wave (km/s) = 3.14310 3.58609 3.37188
# Velocity P-wave (km/s) = 5.44775 6.25187 5.86361
#
# Compressibility (1/GPa) = 0.03502313
#
# Stress axis : x y z
#
# Youngs Moduli (GPa) = 80.60600 36.60131 93.67893
#
# Poissons Ratio (x) = -0.05214 0.26610
# Poissons Ratio (y) = -0.11484 0.58771
# Poissons Ratio (z) = 0.22896 0.22962
#
# Static dielectric constant tensor:
#      x y z
#    x 3.454700 0.000000 0.000000 
#    y 0.000000 2.744580 0.000000 
#    z 0.000000 0.000000 3.493870 
# 
# 
# High freq. dielectric constant tensor:
#      x y z
#    x 1.677620 0.000000 0.000000 
#    y 0.000000 1.598810 0.000000 
#    z 0.000000 0.000000 1.671830 
# 
# From -- ./inp_files/26133.got.cif
#   From: 2010.06.25/outbox.cif.g09.slc.cpg/sg71_14_cif.got.tgz:26133.got - 2010.06.28 04:59:45.
