data_PCOD8287327
_publ_section_title
;
Structure prediction by ZEFSAII (Michael W. Deem and Ramdas Pophale) SiO2 
 PCOD8287327
Probable space group: I M M M
;
_chemical_formula_sum "Si O2"
_cell_formula_units_Z 120
_cell_length_a 19.610468
_cell_length_b 12.593162
_cell_length_c 29.054392
_cell_angle_alpha 90.000000
_cell_angle_beta 90.000000
_cell_angle_gamma 90.000000
_cell_volume 7175.208741
_symmetry_space_group_name_H-M "I M M M"
_symmetry_group_IT_number 71
_symmetry_cell_setting 'orthorhombic'
loop_
_space_group_symop_operation_xyz
x,y,z
-x,-y,z
x,-y,-z
-x,y,-z
-x,-y,-z
x,y,-z
-x,y,z
x,-y,z
1/2+x,1/2+y,1/2+z
1/2-x,1/2-y,1/2+z
1/2+x,1/2-y,1/2-z
1/2-x,1/2+y,1/2-z
1/2-x,1/2-y,1/2-z
1/2+x,1/2+y,1/2-z
1/2-x,1/2+y,1/2+z
1/2+x,1/2-y,1/2+z
loop_
_atom_site_type_symbol
_atom_site_label
_atom_site_fract_x
_atom_site_fract_y
_atom_site_fract_z
Si Si1 0.146583 0.875383 0.446997
Si Si2 0.203615 0.195870 0.639378
Si Si3 0.269165 0.123469 0.796435
Si Si4 0.924036 0.879013 0.696926
Si Si5 0.077271 0.374125 0.050837
Si Si6 0.000000 0.124877 0.449935
Si Si7 0.859021 0.252155 0.771329
Si Si8 0.352656 0.122111 0.643244
O O1 0.154610 0.841687 0.500000
O O2 0.198498 0.807832 0.416108
O O3 0.071427 0.844838 0.426139
O O4 0.162006 0.000000 0.441210
O O5 0.209471 0.316411 0.656550
O O6 0.136937 0.140373 0.660910
O O7 0.271759 0.131618 0.652580
O O8 0.193516 0.156942 0.781717
O O9 0.321485 0.153325 0.756122
O O10 0.272308 0.000000 0.806976
O O11 0.918231 0.800404 0.740763
O O12 0.000000 0.859777 0.675055
O O13 0.918489 0.000000 0.713967
O O14 0.079623 0.500000 0.049725
O O15 0.125648 0.333825 0.092594
O O16 0.000000 0.335137 0.060162
O O17 0.101677 0.332277 0.000000
O O18 0.000000 0.179492 0.500000
O O19 0.000000 0.000000 0.457682
O O20 0.889507 0.305110 0.817856
O O21 0.375513 0.000000 0.648873
#
# Coordination Sequence:
#
# PCOD8287327 Si02
#       8
#    16  16  16  16  16   8  16  16
#     4   9  16  26  41  63  92 121 150 188 230 272
#     4  10  20  30  44  69  94 121 158 189 225 282
#     4   9  17  31  49  64  86 119 150 190 238 275
#     4  10  20  32  46  65  93 125 152 185 227 272
#     4   8  15  28  44  63  90 124 155 179 214 267
#     4   7  12  22  36  56  81 113 147 177 220 268
#     4   9  18  29  46  69  87 112 152 190 224 275
#     4  10  18  28  45  69  96 122 149 186 228 268
#
# _framework density 16.724252
#
# number of rings (size 3 to 8) (size 9 to 14) (size 15 to 20)
#    0.000    2.867    0.000    4.000    0.933    1.067 
#    0.000    1.333    0.000   10.000    0.000    0.000 
#    0.000    3.200    0.000   38.133    0.000    3.333 
#
# Total GULP energy -743309.655973 kJ/mol
# GULP energy per Si atom -12388.494266 kJ/mol
# Density = 1.668619 g / cm^3
# Si number density = 16.724252 Si / 1000 Ang^3
#
#
#
# Elastic Constant Matrix: (Units=GPa)
#
#
# Indices 1 2 3 4 5 6 
#
# 1 60.4839 17.4899 27.6440 0.0000 0.0000 0.0000
# 2 17.4899 70.6823 31.9820 0.0000 0.0000 0.0000
# 3 27.6440 31.9820 104.1096 0.0000 0.0000 0.0000
# 4 0.0000 0.0000 0.0000 21.9875 0.0000 0.0000
# 5 0.0000 0.0000 0.0000 0.0000 25.2190 0.0000
# 6 0.0000 0.0000 0.0000 0.0000 0.0000 12.9459
#
#
#
# Elastic Compliance Matrix: (Units=1/GPa)
#
#
# Indices 1 2 3 4 5 6 
#
# 1 0.019300 -0.002854 -0.004248 0.000000 0.000000 0.000000
# 2 -0.002854 0.016854 -0.004420 0.000000 0.000000 0.000000
# 3 -0.004248 -0.004420 0.012091 0.000000 0.000000 0.000000
# 4 0.000000 0.000000 0.000000 0.045480 0.000000 0.000000
# 5 0.000000 0.000000 0.000000 0.000000 0.039653 0.000000
# 6 0.000000 0.000000 0.000000 0.000000 0.000000 0.077244
#
#
# Mechanical properties :
#
#
# Convention : Reuss Voigt Hill
#
# Bulk Modulus (GPa) = 39.67925 43.27861 41.47893
# Shear Modulus (GPa) = 20.65559 22.57450 21.61505
#
# Velocity S-wave (km/s) = 3.51817 3.67796 3.59895
# Velocity P-wave (km/s) = 6.34668 6.63102 6.49041
#
# Compressibility (1/GPa) = 0.02520209
#
# Stress axis : x y z
#
# Youngs Moduli (GPa) = 51.81332 59.33420 82.70643
#
# Poissons Ratio (x) = 0.16931 0.35135
# Poissons Ratio (y) = 0.14785 0.36554
# Poissons Ratio (z) = 0.22011 0.26224
#
# Static dielectric constant tensor:
#      x y z
#    x 3.221750 0.000000 0.000000 
#    y 0.000000 2.716320 0.000000 
#    z 0.000000 0.000000 3.397090 
# 
# 
# High freq. dielectric constant tensor:
#      x y z
#    x 1.639930 0.000000 0.000000 
#    y 0.000000 1.590550 0.000000 
#    z 0.000000 0.000000 1.651370 
# 
# From -- ./inp_files/70871.got.cif
#   From: 2010.06.25/outbox.cif.g09.slc.cpg/sg71_36_cif.got.tgz:70871.got - 2010.06.28 04:59:45.
