data_PCOD8287835
_publ_section_title
;
Structure prediction by ZEFSAII (Michael W. Deem and Ramdas Pophale) SiO2 
 PCOD8287835
Probable space group: I M M M
;
_chemical_formula_sum "Si O2"
_cell_formula_units_Z 128
_cell_length_a 21.146828
_cell_length_b 18.871495
_cell_length_c 17.907120
_cell_angle_alpha 90.000000
_cell_angle_beta 90.000000
_cell_angle_gamma 90.000000
_cell_volume 7146.234828
_symmetry_space_group_name_H-M "I M M M"
_symmetry_group_IT_number 71
_symmetry_cell_setting 'orthorhombic'
loop_
_space_group_symop_operation_xyz
x,y,z
-x,-y,z
x,-y,-z
-x,y,-z
-x,-y,-z
x,y,-z
-x,y,z
x,-y,z
1/2+x,1/2+y,1/2+z
1/2-x,1/2-y,1/2+z
1/2+x,1/2-y,1/2-z
1/2-x,1/2+y,1/2-z
1/2-x,1/2-y,1/2-z
1/2+x,1/2+y,1/2-z
1/2-x,1/2+y,1/2+z
1/2+x,1/2-y,1/2+z
loop_
_atom_site_type_symbol
_atom_site_label
_atom_site_fract_x
_atom_site_fract_y
_atom_site_fract_z
Si Si1 0.706975 0.777409 0.417034
Si Si2 0.128943 0.921066 0.585619
Si Si3 0.266277 0.922128 0.640969
Si Si4 0.266058 0.918096 0.189433
Si Si5 0.168047 0.308313 0.413414
Si Si6 0.641166 0.325797 0.687200
Si Si7 0.426601 0.708098 0.840007
Si Si8 0.073658 0.077200 0.081285
O O1 0.685217 0.755178 0.500000
O O2 0.702235 0.862202 0.409925
O O3 0.778620 0.751882 0.402102
O O4 0.660689 0.745043 0.355953
O O5 0.148818 0.905957 0.500000
O O6 0.190395 0.914630 0.637898
O O7 0.077254 0.863872 0.611442
O O8 0.099441 0.000000 0.593625
O O9 0.290462 0.912885 0.725719
O O10 0.286058 0.000000 0.610625
O O11 0.314764 0.878192 0.134362
O O12 0.198211 0.881166 0.187641
O O13 0.260476 0.000000 0.163859
O O14 0.161765 0.330615 0.500000
O O15 0.102121 0.274639 0.385385
O O16 0.615204 0.301764 0.766323
O O17 0.585674 0.363621 0.642544
O O18 0.500000 0.723807 0.822089
O O19 0.000000 0.071079 0.071680
O O20 0.100610 0.000000 0.106073
O O21 0.103489 0.097477 0.000000
#
# Coordination Sequence:
#
# PCOD8287835 Si02
#       8
#    16  16  16  16  16  16  16  16
#     4  10  19  32  53  79 105 139 173 215 274 328
#     4  10  20  34  51  72 103 142 181 221 261 305
#     4  10  18  31  52  77 106 139 169 205 259 323
#     4  10  20  34  56  82 107 137 171 217 282 339
#     4  10  21  37  54  76 108 141 181 232 279 326
#     4  11  20  33  51  77 110 137 176 224 268 325
#     4  12  24  36  54  76 105 149 194 230 269 315
#     4   9  18  32  48  67  98 142 183 217 259 315
#
# _framework density 17.911531
#
# number of rings (size 3 to 8) (size 9 to 14) (size 15 to 20)
#    0.000    1.750    2.500    3.000    0.000    5.250 
#    0.000    0.625    0.000    0.375    0.000    0.875 
#    0.000    1.500    0.000   10.125    0.000    0.125 
#
# Total GULP energy -793428.560863 kJ/mol
# GULP energy per Si atom -12397.321263 kJ/mol
# Density = 1.787076 g / cm^3
# Si number density = 17.911531 Si / 1000 Ang^3
#
#
#
# Elastic Constant Matrix: (Units=GPa)
#
#
# Indices 1 2 3 4 5 6 
#
# 1 61.0077 36.9989 29.9359 0.0000 0.0000 0.0000
# 2 36.9989 111.3069 41.1367 0.0000 0.0000 0.0000
# 3 29.9359 41.1367 89.7598 0.0000 0.0000 0.0000
# 4 0.0000 0.0000 0.0000 17.8611 0.0000 0.0000
# 5 0.0000 0.0000 0.0000 0.0000 19.8611 0.0000
# 6 0.0000 0.0000 0.0000 0.0000 0.0000 21.3701
#
#
#
# Elastic Compliance Matrix: (Units=1/GPa)
#
#
# Indices 1 2 3 4 5 6 
#
# 1 0.022142 -0.005575 -0.004830 0.000000 0.000000 0.000000
# 2 -0.005575 0.012220 -0.003741 0.000000 0.000000 0.000000
# 3 -0.004830 -0.003741 0.014466 0.000000 0.000000 0.000000
# 4 0.000000 0.000000 0.000000 0.055988 0.000000 0.000000
# 5 0.000000 0.000000 0.000000 0.000000 0.050350 0.000000
# 6 0.000000 0.000000 0.000000 0.000000 0.000000 0.046794
#
#
# Mechanical properties :
#
#
# Convention : Reuss Voigt Hill
#
# Bulk Modulus (GPa) = 48.69325 53.13523 50.91424
# Shear Modulus (GPa) = 21.08837 22.08531 21.58684
#
# Velocity S-wave (km/s) = 3.43499 3.51525 3.47535
# Velocity P-wave (km/s) = 6.55566 6.79748 6.67767
#
# Compressibility (1/GPa) = 0.02053673
#
# Stress axis : x y z
#
# Youngs Moduli (GPa) = 45.16220 81.83297 69.12739
#
# Poissons Ratio (x) = 0.45624 0.33386
# Poissons Ratio (y) = 0.25179 0.25860
# Poissons Ratio (z) = 0.21811 0.30613
#
# Static dielectric constant tensor:
#      x y z
#    x 2.870270 0.000000 0.000000 
#    y 0.000000 3.397760 0.000000 
#    z 0.000000 0.000000 3.483730 
# 
# 
# High freq. dielectric constant tensor:
#      x y z
#    x 1.643080 0.000000 0.000000 
#    y 0.000000 1.694990 0.000000 
#    z 0.000000 0.000000 1.709230 
# 
# From -- ./inp_files/48431.got.cif
#   From: 2010.06.25/outbox.cif.g09.slc.cpg/sg71_25_cif.got.tgz:48431.got - 2010.06.28 04:59:45.
