data_PCOD8288671
_publ_section_title
;
Structure prediction by ZEFSAII (Michael W. Deem and Ramdas Pophale) SiO2 
 PCOD8288671
Probable space group: I M M M
;
_chemical_formula_sum "Si O2"
_cell_formula_units_Z 120
_cell_length_a 23.173776
_cell_length_b 14.013866
_cell_length_c 21.769330
_cell_angle_alpha 90.000000
_cell_angle_beta 90.000000
_cell_angle_gamma 90.000000
_cell_volume 7069.681165
_symmetry_space_group_name_H-M "I M M M"
_symmetry_group_IT_number 71
_symmetry_cell_setting 'orthorhombic'
loop_
_space_group_symop_operation_xyz
x,y,z
-x,-y,z
x,-y,-z
-x,y,-z
-x,-y,-z
x,y,-z
-x,y,z
x,-y,z
1/2+x,1/2+y,1/2+z
1/2-x,1/2-y,1/2+z
1/2+x,1/2-y,1/2-z
1/2-x,1/2+y,1/2-z
1/2-x,1/2-y,1/2-z
1/2+x,1/2+y,1/2-z
1/2-x,1/2+y,1/2+z
1/2+x,1/2-y,1/2+z
loop_
_atom_site_type_symbol
_atom_site_label
_atom_site_fract_x
_atom_site_fract_y
_atom_site_fract_z
Si Si1 0.762284 0.609552 0.757389
Si Si2 0.066072 0.744035 0.663469
Si Si3 0.387132 0.887552 0.931475
Si Si4 0.768336 0.607252 0.613005
Si Si5 0.641433 0.385477 0.613785
Si Si6 0.564727 0.386941 0.500000
Si Si7 0.068623 0.105744 0.567347
Si Si8 0.655217 0.272594 0.732080
O O1 0.764738 0.500000 0.782066
O O2 0.777328 0.613337 0.685683
O O3 0.698553 0.654334 0.767275
O O4 0.809428 0.677998 0.790617
O O5 0.069294 0.650570 0.620310
O O6 0.092402 0.828486 0.621499
O O7 0.103995 0.737080 0.724295
O O8 0.000000 0.760464 0.683435
O O9 0.322875 0.842512 0.919837
O O10 0.385533 0.000000 0.922775
O O11 0.408080 0.859448 0.000000
O O12 0.767752 0.500000 0.589022
O O13 0.705870 0.649453 0.594368
O O14 0.639618 0.500000 0.626327
O O15 0.597606 0.352291 0.560987
O O16 0.625137 0.328308 0.675557
O O17 0.562985 0.500000 0.500000
O O18 0.500000 0.344425 0.500000
O O19 0.089626 0.141696 0.500000
O O20 0.000000 0.106710 0.568729
O O21 0.092489 0.000000 0.579407
#
# Coordination Sequence:
#
# PCOD8288671 Si02
#       8
#    16  16  16  16  16   8  16  16
#     4   9  17  32  52  71  99 131 163 205 254 305
#     4  11  22  33  46  68 100 134 168 207 246 293
#     4  10  20  32  48  71 100 135 172 211 250 288
#     4   8  14  27  46  68  94 124 160 203 244 282
#     4   9  18  31  50  76 104 131 161 200 246 305
#     4   9  18  32  50  74 107 143 166 188 242 315
#     4   8  15  29  46  60  79 117 167 208 239 274
#     4  10  19  31  50  75  99 129 168 202 254 301
#
# _framework density 16.973890999999998
#
# number of rings (size 3 to 8) (size 9 to 14) (size 15 to 20)
#    0.000    2.733    1.333    2.000    0.933    2.667 
#    0.000    0.667    0.000    0.000    0.000    0.467 
#    0.000    0.533    0.000    0.000    0.000    0.000 
#
# Total GULP energy -743434.611957 kJ/mol
# GULP energy per Si atom -12390.576866 kJ/mol
# Density = 1.693526 g / cm^3
# Si number density = 16.973891 Si / 1000 Ang^3
#
#
#
# Elastic Constant Matrix: (Units=GPa)
#
#
# Indices 1 2 3 4 5 6 
#
# 1 71.2305 24.9774 40.1290 0.0000 0.0000 0.0000
# 2 24.9774 72.4862 25.6219 0.0000 0.0000 0.0000
# 3 40.1290 25.6219 77.8638 0.0000 0.0000 0.0000
# 4 0.0000 0.0000 0.0000 22.2306 0.0000 0.0000
# 5 0.0000 0.0000 0.0000 0.0000 19.5370 0.0000
# 6 0.0000 0.0000 0.0000 0.0000 0.0000 17.2942
#
#
#
# Elastic Compliance Matrix: (Units=1/GPa)
#
#
# Indices 1 2 3 4 5 6 
#
# 1 0.020667 -0.003798 -0.009402 0.000000 0.000000 0.000000
# 2 -0.003798 0.016310 -0.003409 0.000000 0.000000 0.000000
# 3 -0.009402 -0.003409 0.018810 0.000000 0.000000 0.000000
# 4 0.000000 0.000000 0.000000 0.044983 0.000000 0.000000
# 5 0.000000 0.000000 0.000000 0.000000 0.051185 0.000000
# 6 0.000000 0.000000 0.000000 0.000000 0.000000 0.057823
#
#
# Mechanical properties :
#
#
# Convention : Reuss Voigt Hill
#
# Bulk Modulus (GPa) = 44.30907 44.78190 44.54548
# Shear Modulus (GPa) = 19.95855 20.53585 20.24720
#
# Velocity S-wave (km/s) = 3.43277 3.48206 3.45750
# Velocity P-wave (km/s) = 6.47092 6.52736 6.49920
#
# Compressibility (1/GPa) = 0.02256874
#
# Stress axis : x y z
#
# Youngs Moduli (GPa) = 48.38540 61.31325 53.16291
#
# Poissons Ratio (x) = 0.23289 0.49981
# Poissons Ratio (y) = 0.18379 0.18125
# Poissons Ratio (z) = 0.45490 0.20903
#
# Static dielectric constant tensor:
#      x y z
#    x 3.180540 0.000000 0.000000 
#    y 0.000000 3.201000 0.000000 
#    z 0.000000 0.000000 3.059400 
# 
# 
# High freq. dielectric constant tensor:
#      x y z
#    x 1.642720 0.000000 0.000000 
#    y 0.000000 1.634230 0.000000 
#    z 0.000000 0.000000 1.633530 
# 
# From -- ./inp_files/55905.got.cif
#   From: 2010.06.25/outbox.cif.g09.slc.cpg/sg71_28_cif.got.tgz:55905.got - 2010.06.28 04:59:45.
