data_PCOD8288856
_publ_section_title
;
Structure prediction by ZEFSAII (Michael W. Deem and Ramdas Pophale) SiO2 
 PCOD8288856
Probable space group: I M M M
;
_chemical_formula_sum "Si O2"
_cell_formula_units_Z 120
_cell_length_a 19.158699
_cell_length_b 28.602174
_cell_length_c 13.251585
_cell_angle_alpha 90.000000
_cell_angle_beta 90.000000
_cell_angle_gamma 90.000000
_cell_volume 7261.609411
_symmetry_space_group_name_H-M "I M M M"
_symmetry_group_IT_number 71
_symmetry_cell_setting 'orthorhombic'
loop_
_space_group_symop_operation_xyz
x,y,z
-x,-y,z
x,-y,-z
-x,y,-z
-x,-y,-z
x,y,-z
-x,y,z
x,-y,z
1/2+x,1/2+y,1/2+z
1/2-x,1/2-y,1/2+z
1/2+x,1/2-y,1/2-z
1/2-x,1/2+y,1/2-z
1/2-x,1/2-y,1/2-z
1/2+x,1/2+y,1/2-z
1/2-x,1/2+y,1/2+z
1/2+x,1/2-y,1/2+z
loop_
_atom_site_type_symbol
_atom_site_label
_atom_site_fract_x
_atom_site_fract_y
_atom_site_fract_z
Si Si1 0.274963 0.449295 0.882173
Si Si2 0.360424 0.897126 0.379574
Si Si3 0.714916 0.187553 0.306288
Si Si4 0.082657 0.050553 0.886864
Si Si5 0.850724 0.142298 0.386742
Si Si6 0.297883 0.289535 0.383762
Si Si7 0.500000 0.947391 0.619823
Si Si8 0.419370 0.649192 0.310154
O O1 0.293179 0.500000 0.833472
O O2 0.200853 0.431226 0.840444
O O3 0.336040 0.412164 0.860907
O O4 0.265242 0.455386 0.000000
O O5 0.358732 0.889358 0.500000
O O6 0.349717 0.847567 0.323105
O O7 0.432560 0.919352 0.341884
O O8 0.779666 0.171644 0.375919
O O9 0.688256 0.237509 0.343838
O O10 0.738609 0.187568 0.188398
O O11 0.107684 0.095799 0.825057
O O12 0.000000 0.050559 0.888839
O O13 0.108445 0.000000 0.841835
O O14 0.112036 0.055634 0.000000
O O15 0.879585 0.148585 0.500000
O O16 0.909018 0.160562 0.308682
O O17 0.272320 0.290308 0.500000
O O18 0.371360 0.316909 0.376742
O O19 0.500000 0.950390 0.500000
O O20 0.500000 0.000000 0.664530
O O21 0.500000 0.656590 0.341281
#
# Coordination Sequence:
#
# PCOD8288856 Si02
#       8
#    16  16  16  16  16  16   8  16
#     4   8  13  22  38  59  83 114 152 191 224 252
#     4   9  15  25  41  63  95 129 156 186 223 268
#     4   9  18  32  49  69  89 115 153 189 225 270
#     4   8  14  26  43  58  75 105 141 174 212 260
#     4   9  17  29  45  62  85 120 158 189 217 258
#     4  10  19  32  51  70  89 115 147 187 232 276
#     4   9  16  24  38  66 103 139 165 183 217 275
#     4  10  20  31  43  65  93 117 146 184 227 273
#
# _framework density 16.525262999999999
#
# number of rings (size 3 to 8) (size 9 to 14) (size 15 to 20)
#    0.000    3.000    0.000    3.200    0.000    3.200 
#    1.200    0.000    0.000    0.000    0.000    4.200 
#    0.000    0.533    0.000    0.000    0.000    0.000 
#
# Total GULP energy -743462.325758 kJ/mol
# GULP energy per Si atom -12391.038763 kJ/mol
# Density = 1.648765 g / cm^3
# Si number density = 16.525263 Si / 1000 Ang^3
#
#
#
# Elastic Constant Matrix: (Units=GPa)
#
#
# Indices 1 2 3 4 5 6 
#
# 1 44.3759 31.6216 22.1574 0.0000 0.0000 0.0000
# 2 31.6216 109.2075 24.4512 0.0000 0.0000 0.0000
# 3 22.1574 24.4512 79.2503 0.0002 0.0002 -0.0001
# 4 0.0000 0.0000 0.0002 18.8317 0.0001 0.0000
# 5 0.0000 0.0000 0.0002 0.0001 14.4085 0.0000
# 6 0.0000 0.0000 -0.0001 0.0000 0.0000 17.4510
#
#
#
# Elastic Compliance Matrix: (Units=1/GPa)
#
#
# Indices 1 2 3 4 5 6 
#
# 1 0.031115 -0.007586 -0.006359 0.000000 0.000000 0.000000
# 2 -0.007586 0.011686 -0.001485 0.000000 0.000000 0.000000
# 3 -0.006359 -0.001485 0.014854 0.000000 0.000000 0.000000
# 4 0.000000 0.000000 0.000000 0.053102 0.000000 0.000000
# 5 0.000000 0.000000 0.000000 0.000000 0.069404 0.000000
# 6 0.000000 0.000000 0.000000 0.000000 0.000000 0.057303
#
#
# Mechanical properties :
#
#
# Convention : Reuss Voigt Hill
#
# Bulk Modulus (GPa) = 37.31815 43.25489 40.28652
# Shear Modulus (GPa) = 18.03391 20.44512 19.23952
#
# Velocity S-wave (km/s) = 3.30706 3.52121 3.41581
# Velocity P-wave (km/s) = 6.10030 6.53940 6.32366
#
# Compressibility (1/GPa) = 0.02679661
#
# Stress axis : x y z
#
# Youngs Moduli (GPa) = 32.13834 85.57395 67.32116
#
# Poissons Ratio (x) = 0.64916 0.42810
# Poissons Ratio (y) = 0.24380 0.09994
# Poissons Ratio (z) = 0.20437 0.12704
#
# Static dielectric constant tensor:
#      x y z
#    x 2.825740 0.000000 0.000000 
#    y 0.000000 3.512180 0.000000 
#    z 0.000000 0.000000 2.920150 
# 
# 
# High freq. dielectric constant tensor:
#      x y z
#    x 1.603460 0.000000 0.000000 
#    y 0.000000 1.649100 0.000000 
#    z 0.000000 0.000000 1.610590 
# 
# From -- ./inp_files/26632.got.cif
#   From: 2010.06.25/outbox.cif.g09.slc.cpg/sg71_14_cif.got.tgz:26632.got - 2010.06.28 04:59:45.
