data_PCOD8288260
_publ_section_title
;
Structure prediction by ZEFSAII (Michael W. Deem and Ramdas Pophale) SiO2 
 PCOD8288260
Probable space group: I M M M
;
_chemical_formula_sum "Si O2"
_cell_formula_units_Z 96
_cell_length_a 30.426505
_cell_length_b 13.864172
_cell_length_c 15.362152
_cell_angle_alpha 90.000000
_cell_angle_beta 90.000000
_cell_angle_gamma 90.000000
_cell_volume 6480.344064
_symmetry_space_group_name_H-M "I M M M"
_symmetry_group_IT_number 71
_symmetry_cell_setting 'orthorhombic'
loop_
_space_group_symop_operation_xyz
x,y,z
-x,-y,z
x,-y,-z
-x,y,-z
-x,-y,-z
x,y,-z
-x,y,z
x,-y,z
1/2+x,1/2+y,1/2+z
1/2-x,1/2-y,1/2+z
1/2+x,1/2-y,1/2-z
1/2-x,1/2+y,1/2-z
1/2-x,1/2-y,1/2-z
1/2+x,1/2+y,1/2-z
1/2-x,1/2+y,1/2+z
1/2+x,1/2-y,1/2+z
loop_
_atom_site_type_symbol
_atom_site_label
_atom_site_fract_x
_atom_site_fract_y
_atom_site_fract_z
Si Si1 0.451627 0.108043 0.897059
Si Si2 0.185073 0.888588 0.349608
Si Si3 0.188329 0.394638 0.262450
Si Si4 0.784516 0.895917 0.166243
Si Si5 0.367451 0.780570 0.899795
Si Si6 0.779016 0.693297 0.903532
O O1 0.500000 0.135166 0.859221
O O2 0.416109 0.188267 0.866954
O O3 0.438100 0.000000 0.865109
O O4 0.454405 0.107624 0.000000
O O5 0.180954 0.878311 0.244911
O O6 0.142379 0.833696 0.390074
O O7 0.229027 0.837782 0.385811
O O8 0.184004 0.000000 0.379587
O O9 0.165929 0.500000 0.260009
O O10 0.239189 0.402901 0.282519
O O11 0.167204 0.332412 0.338005
O O12 0.185985 0.348594 0.165833
O O13 0.783758 0.809741 0.097507
O O14 0.793923 0.000000 0.120026
O O15 0.360644 0.813563 0.000000
O O16 0.792542 0.658490 0.000000
#
# Coordination Sequence:
#
# PCOD8288260 Si02
#       6
#    16  16  16  16  16  16
#     4   8  15  28  44  63  87 111 133 162 209 265
#     4  10  19  31  44  58  82 115 150 182 211 250
#     4  10  19  30  42  60  85 109 143 182 212 246
#     4   9  17  30  44  57  81 113 143 182 224 250
#     4  11  19  28  45  66  86 110 142 179 216 249
#     4  11  19  30  44  58  83 118 150 179 215 252
#
# _framework density 14.814028
#
# number of rings (size 3 to 8) (size 9 to 14) (size 15 to 20)
#    0.000    2.167    3.333    4.000    0.000    3.667 
#    0.000    1.667    0.000    0.500    0.000    2.333 
#    0.000    0.667    0.000    3.500    0.000    5.500 
#
# Total GULP energy -594656.151460 kJ/mol
# GULP energy per Si atom -12388.669822 kJ/mol
# Density = 1.478031 g / cm^3
# Si number density = 14.814028 Si / 1000 Ang^3
#
#
#
# Elastic Constant Matrix: (Units=GPa)
#
#
# Indices 1 2 3 4 5 6 
#
# 1 59.2014 33.9002 20.3929 0.0000 0.0000 0.0000
# 2 33.9002 106.0260 27.1833 0.0000 0.0000 0.0000
# 3 20.3929 27.1833 59.7959 0.0000 0.0000 0.0000
# 4 0.0000 0.0000 0.0000 14.5608 0.0000 0.0000
# 5 0.0000 0.0000 0.0000 0.0000 8.6523 0.0000
# 6 0.0000 0.0000 0.0000 0.0000 0.0000 16.6226
#
#
#
# Elastic Compliance Matrix: (Units=1/GPa)
#
#
# Indices 1 2 3 4 5 6 
#
# 1 0.021848 -0.005745 -0.004840 0.000000 0.000000 0.000000
# 2 -0.005745 0.012187 -0.003581 0.000000 0.000000 0.000000
# 3 -0.004840 -0.003581 0.020002 0.000000 0.000000 0.000000
# 4 0.000000 0.000000 0.000000 0.068678 0.000000 0.000000
# 5 0.000000 0.000000 0.000000 0.000000 0.115577 0.000000
# 6 0.000000 0.000000 0.000000 0.000000 0.000000 0.060159
#
#
# Mechanical properties :
#
#
# Convention : Reuss Voigt Hill
#
# Bulk Modulus (GPa) = 38.90101 43.10844 41.00473
# Shear Modulus (GPa) = 14.90984 17.53692 16.22338
#
# Velocity S-wave (km/s) = 3.17593 3.44438 3.31287
# Velocity P-wave (km/s) = 6.30597 6.70681 6.50948
#
# Compressibility (1/GPa) = 0.02570627
#
# Stress axis : x y z
#
# Youngs Moduli (GPa) = 45.77039 82.05784 49.99537
#
# Poissons Ratio (x) = 0.47141 0.24195
# Poissons Ratio (y) = 0.26294 0.17902
# Poissons Ratio (z) = 0.22151 0.29383
#
# Static dielectric constant tensor:
#      x y z
#    x 2.763900 0.000000 0.000000 
#    y 0.000000 3.252820 0.000000 
#    z 0.000000 0.000000 2.730030 
# 
# 
# High freq. dielectric constant tensor:
#      x y z
#    x 1.510410 0.000000 0.000000 
#    y 0.000000 1.581470 0.000000 
#    z 0.000000 0.000000 1.547490 
# 
# From -- ./inp_files/35277.got.cif
#   From: 2010.06.25/outbox.cif.g09.slc.cpg/sg71_18_cif.got.tgz:35277.got - 2010.06.28 04:59:45.
