data_PCOD8288623
_publ_section_title
;
Structure prediction by ZEFSAII (Michael W. Deem and Ramdas Pophale) SiO2 
 PCOD8288623
Probable space group: I M M M
;
_chemical_formula_sum "Si O2"
_cell_formula_units_Z 112
_cell_length_a 13.773824
_cell_length_b 15.436382
_cell_length_c 29.477470
_cell_angle_alpha 90.000000
_cell_angle_beta 90.000000
_cell_angle_gamma 90.000000
_cell_volume 6267.440978
_symmetry_space_group_name_H-M "I M M M"
_symmetry_group_IT_number 71
_symmetry_cell_setting 'orthorhombic'
loop_
_space_group_symop_operation_xyz
x,y,z
-x,-y,z
x,-y,-z
-x,y,-z
-x,-y,-z
x,y,-z
-x,y,z
x,-y,z
1/2+x,1/2+y,1/2+z
1/2-x,1/2-y,1/2+z
1/2+x,1/2-y,1/2-z
1/2-x,1/2+y,1/2-z
1/2-x,1/2-y,1/2-z
1/2+x,1/2+y,1/2-z
1/2-x,1/2+y,1/2+z
1/2+x,1/2-y,1/2+z
loop_
_atom_site_type_symbol
_atom_site_label
_atom_site_fract_x
_atom_site_fract_y
_atom_site_fract_z
Si Si1 0.712991 0.747708 0.605451
Si Si2 0.610686 0.598278 0.446697
Si Si3 0.105313 0.196364 0.805581
Si Si4 0.193620 0.094671 0.269945
Si Si5 0.612438 0.099412 0.552820
Si Si6 0.612669 0.737586 0.162527
Si Si7 0.895735 0.643473 0.741709
O O1 0.686453 0.663487 0.576107
O O2 0.666484 0.738339 0.654665
O O3 0.678005 0.836127 0.582001
O O4 0.828836 0.753920 0.614731
O O5 0.625801 0.605113 0.500000
O O6 0.500000 0.624317 0.434105
O O7 0.631820 0.500000 0.430268
O O8 0.155997 0.115683 0.780817
O O9 0.093432 0.265537 0.766356
O O10 0.000000 0.167489 0.824482
O O11 0.159130 0.159052 0.308865
O O12 0.310701 0.089216 0.264943
O O13 0.155960 0.000000 0.283921
O O14 0.633136 0.116447 0.500000
O O15 0.500000 0.118219 0.563789
O O16 0.638171 0.000000 0.565403
O O17 0.500000 0.717929 0.151803
O O18 0.625267 0.828538 0.189520
O O19 0.000000 0.593549 0.744922
#
# Coordination Sequence:
#
# PCOD8288623 Si02
#       7
#    16  16  16  16  16  16  16
#     4  12  19  32  57  80 106 138 177 218 273 312
#     4   9  19  35  55  83 116 144 170 204 257 330
#     4  10  19  31  49  74 101 131 173 217 254 303
#     4  11  20  34  52  72 102 141 178 217 267 315
#     4   9  19  35  54  80 112 142 173 209 258 327
#     4  10  21  37  54  70  98 139 183 222 258 309
#     4   9  17  35  53  67  96 138 175 210 256 308
#
# _framework density 17.870132999999999
#
# number of rings (size 3 to 8) (size 9 to 14) (size 15 to 20)
#    0.000    2.000    2.857    4.714    0.000    3.714 
#    0.000    0.000    0.000    2.143    0.000    2.000 
#    0.000    0.000    0.000    0.000    0.000    0.000 
#
# Total GULP energy -693980.322400 kJ/mol
# GULP energy per Si atom -12392.505757 kJ/mol
# Density = 1.782946 g / cm^3
# Si number density = 17.870133 Si / 1000 Ang^3
#
#
#
# Elastic Constant Matrix: (Units=GPa)
#
#
# Indices 1 2 3 4 5 6 
#
# 1 127.2467 42.3120 42.6752 0.0000 0.0000 0.0000
# 2 42.3120 90.6568 36.5038 0.0000 0.0000 0.0000
# 3 42.6752 36.5038 66.2077 0.0000 0.0000 0.0000
# 4 0.0000 0.0000 0.0000 18.4184 0.0000 0.0000
# 5 0.0000 0.0000 0.0000 0.0000 32.4353 0.0000
# 6 0.0000 0.0000 0.0000 0.0000 0.0000 8.1925
#
#
#
# Elastic Compliance Matrix: (Units=1/GPa)
#
#
# Indices 1 2 3 4 5 6 
#
# 1 0.010555 -0.002811 -0.005254 0.000000 0.000000 0.000000
# 2 -0.002811 0.014927 -0.006418 0.000000 0.000000 0.000000
# 3 -0.005254 -0.006418 0.022029 0.000000 0.000000 0.000000
# 4 0.000000 0.000000 0.000000 0.054293 0.000000 0.000000
# 5 0.000000 0.000000 0.000000 0.000000 0.030831 0.000000
# 6 0.000000 0.000000 0.000000 0.000000 0.000000 0.122063
#
#
# Mechanical properties :
#
#
# Convention : Reuss Voigt Hill
#
# Bulk Modulus (GPa) = 53.92137 58.56594 56.24365
# Shear Modulus (GPa) = 17.25050 22.65057 19.95054
#
# Velocity S-wave (km/s) = 3.11034 3.56407 3.34491
# Velocity P-wave (km/s) = 6.56799 7.05557 6.81614
#
# Compressibility (1/GPa) = 0.01854552
#
# Stress axis : x y z
#
# Youngs Moduli (GPa) = 94.73761 66.99311 45.39452
#
# Poissons Ratio (x) = 0.18832 0.23850
# Poissons Ratio (y) = 0.26631 0.29135
# Poissons Ratio (z) = 0.49774 0.42997
#
# Static dielectric constant tensor:
#      x y z
#    x 3.604520 0.000000 0.000000 
#    y 0.000000 3.162370 0.000000 
#    z 0.000000 0.000000 3.197590 
# 
# 
# High freq. dielectric constant tensor:
#      x y z
#    x 1.686490 0.000000 0.000000 
#    y 0.000000 1.682890 0.000000 
#    z 0.000000 0.000000 1.671030 
# 
# From -- ./inp_files/70093.got.cif
#   From: 2010.06.25/outbox.cif.g09.slc.cpg/sg71_36_cif.got.tgz:70093.got - 2010.06.28 04:59:45.
