data_PCOD8288694
_publ_section_title
;
Structure prediction by ZEFSAII (Michael W. Deem and Ramdas Pophale) SiO2 
 PCOD8288694
Probable space group: I M M M
;
_chemical_formula_sum "Si O2"
_cell_formula_units_Z 88
_cell_length_a 8.969491
_cell_length_b 17.891955
_cell_length_c 28.840129
_cell_angle_alpha 90.000000
_cell_angle_beta 90.000000
_cell_angle_gamma 90.000000
_cell_volume 4628.313776
_symmetry_space_group_name_H-M "I M M M"
_symmetry_group_IT_number 71
_symmetry_cell_setting 'orthorhombic'
loop_
_space_group_symop_operation_xyz
x,y,z
-x,-y,z
x,-y,-z
-x,y,-z
-x,-y,-z
x,y,-z
-x,y,z
x,-y,z
1/2+x,1/2+y,1/2+z
1/2-x,1/2-y,1/2+z
1/2+x,1/2-y,1/2-z
1/2-x,1/2+y,1/2-z
1/2-x,1/2-y,1/2-z
1/2+x,1/2+y,1/2-z
1/2-x,1/2+y,1/2+z
1/2+x,1/2-y,1/2+z
loop_
_atom_site_type_symbol
_atom_site_label
_atom_site_fract_x
_atom_site_fract_y
_atom_site_fract_z
Si Si1 0.176880 0.582607 0.388572
Si Si2 0.824357 0.277895 0.446474
Si Si3 0.822973 0.643734 0.892933
Si Si4 0.325771 0.413026 0.804014
Si Si5 0.334752 0.911425 0.212785
Si Si6 0.322802 0.000000 0.448215
O O1 0.243268 0.500000 0.400130
O O2 0.226637 0.640706 0.428049
O O3 0.230542 0.611987 0.337739
O O4 0.000000 0.576366 0.386341
O O5 0.778122 0.272097 0.500000
O O6 0.735184 0.217552 0.417361
O O7 0.000000 0.265400 0.439480
O O8 0.759082 0.637548 0.841305
O O9 0.763077 0.573138 0.922160
O O10 0.000000 0.645634 0.890605
O O11 0.500000 0.399602 0.809253
O O12 0.282956 0.500000 0.811145
O O13 0.275100 0.384005 0.753394
O O14 0.500000 0.877153 0.221135
O O15 0.346521 0.000000 0.213182
O O16 0.500000 0.000000 0.449566
O O17 0.256228 0.000000 0.500000
#
# Coordination Sequence:
#
# PCOD8288694 Si02
#       6
#    16  16  16  16  16   8
#     4   8  15  31  56  83 108 138 177 218 259 314
#     4  10  21  36  54  79 111 141 172 219 276 320
#     4  11  21  35  54  75 104 142 185 223 260 312
#     4  10  19  31  50  78 111 140 171 216 269 317
#     4   8  14  27  50  77 104 136 176 215 254 306
#     4   9  18  32  51  73  95 127 177 227 258 295
#
# _framework density 19.013404000000001
#
# number of rings (size 3 to 8) (size 9 to 14) (size 15 to 20)
#    0.000    2.636    0.909    2.727    0.000    2.182 
#    0.000    3.636    0.000    3.818    0.000    1.273 
#    0.000    0.000    0.000    0.000    0.000    0.000 
#
# Total GULP energy -545484.402126 kJ/mol
# GULP energy per Si atom -12397.372776 kJ/mol
# Density = 1.897013 g / cm^3
# Si number density = 19.013404 Si / 1000 Ang^3
#
#
#
# Elastic Constant Matrix: (Units=GPa)
#
#
# Indices 1 2 3 4 5 6 
#
# 1 54.8999 29.0666 32.9648 0.0000 0.0000 0.0000
# 2 29.0666 90.0314 41.5199 0.0000 0.0000 0.0000
# 3 32.9648 41.5199 98.2501 0.0000 0.0000 0.0000
# 4 0.0000 0.0000 0.0000 28.8387 0.0000 0.0000
# 5 0.0000 0.0000 0.0000 0.0000 21.6035 0.0000
# 6 0.0000 0.0000 0.0000 0.0000 0.0000 18.6532
#
#
#
# Elastic Compliance Matrix: (Units=1/GPa)
#
#
# Indices 1 2 3 4 5 6 
#
# 1 0.024583 -0.005133 -0.006079 0.000000 0.000000 0.000000
# 2 -0.005133 0.014868 -0.004561 0.000000 0.000000 0.000000
# 3 -0.006079 -0.004561 0.014145 0.000000 0.000000 0.000000
# 4 0.000000 0.000000 0.000000 0.034676 0.000000 0.000000
# 5 0.000000 0.000000 0.000000 0.000000 0.046289 0.000000
# 6 0.000000 0.000000 0.000000 0.000000 0.000000 0.053610
#
#
# Mechanical properties :
#
#
# Convention : Reuss Voigt Hill
#
# Bulk Modulus (GPa) = 45.35117 50.03155 47.69136
# Shear Modulus (GPa) = 22.02011 23.12777 22.57394
#
# Velocity S-wave (km/s) = 3.40683 3.49147 3.44941
# Velocity P-wave (km/s) = 6.27530 6.52876 6.40328
#
# Compressibility (1/GPa) = 0.02205015
#
# Stress axis : x y z
#
# Youngs Moduli (GPa) = 40.67905 67.25961 70.69658
#
# Poissons Ratio (x) = 0.34526 0.42974
# Poissons Ratio (y) = 0.20881 0.32243
# Poissons Ratio (z) = 0.24728 0.30675
#
# Static dielectric constant tensor:
#      x y z
#    x 3.181210 0.000000 0.000000 
#    y 0.000000 3.420300 0.000000 
#    z 0.000000 0.000000 3.822220 
# 
# 
# High freq. dielectric constant tensor:
#      x y z
#    x 1.708330 0.000000 0.000000 
#    y 0.000000 1.717530 0.000000 
#    z 0.000000 0.000000 1.754050 
# 
# From -- ./inp_files/16659.got.cif
#   From: 2010.06.25/outbox.cif.g09.slc.cpg/sg71_9_cif.got.tgz:16659.got - 2010.06.28 04:59:45.
