data_PCOD8288301
_publ_section_title
;
Structure prediction by ZEFSAII (Michael W. Deem and Ramdas Pophale) SiO2 
 PCOD8288301
Probable space group: I M M M
;
_chemical_formula_sum "Si O2"
_cell_formula_units_Z 80
_cell_length_a 31.723752
_cell_length_b 9.066543
_cell_length_c 17.990550
_cell_angle_alpha 90.000000
_cell_angle_beta 90.000000
_cell_angle_gamma 90.000000
_cell_volume 5174.527655
_symmetry_space_group_name_H-M "I M M M"
_symmetry_group_IT_number 71
_symmetry_cell_setting 'orthorhombic'
loop_
_space_group_symop_operation_xyz
x,y,z
-x,-y,z
x,-y,-z
-x,y,-z
-x,-y,-z
x,y,-z
-x,y,z
x,-y,z
1/2+x,1/2+y,1/2+z
1/2-x,1/2-y,1/2+z
1/2+x,1/2-y,1/2-z
1/2-x,1/2+y,1/2-z
1/2-x,1/2-y,1/2-z
1/2+x,1/2+y,1/2-z
1/2-x,1/2+y,1/2+z
1/2+x,1/2-y,1/2+z
loop_
_atom_site_type_symbol
_atom_site_label
_atom_site_fract_x
_atom_site_fract_y
_atom_site_fract_z
Si Si1 0.548574 0.168648 0.085740
Si Si2 0.119424 0.825889 0.671634
Si Si3 0.301277 0.166153 0.856571
Si Si4 0.787521 0.828134 0.086107
Si Si5 0.337686 0.833994 0.706340
O O1 0.500000 0.192077 0.107098
O O2 0.575370 0.277849 0.136585
O O3 0.562122 0.000000 0.100876
O O4 0.556051 0.209300 0.000000
O O5 0.158329 0.766109 0.620086
O O6 0.123753 0.755402 0.754686
O O7 0.121648 0.000000 0.677582
O O8 0.258554 0.233023 0.890808
O O9 0.298911 0.164446 0.766015
O O10 0.308400 0.000000 0.887261
O O11 0.823679 0.743345 0.130558
O O12 0.790275 0.000000 0.106313
O O13 0.795536 0.797328 0.000000
O O14 0.352610 0.000000 0.687967
#
# Coordination Sequence:
#
# PCOD8288301 Si02
#       5
#    16  16  16  16  16
#     4   9  18  33  51  69  92 122 151 180 219 267
#     4  10  19  30  47  67  89 117 151 190 226 262
#     4   8  17  31  45  62  86 119 154 187 224 269
#     4  10  19  30  45  65  88 115 150 192 236 274
#     4   9  18  32  47  62  85 118 155 189 224 270
#
# _framework density 15.460349000000001
#
# number of rings (size 3 to 8) (size 9 to 14) (size 15 to 20)
#    1.200    1.600    0.000    3.000    0.000    2.800 
#    0.000    3.000    0.000    0.000    0.000    0.000 
#    0.000    0.800    0.000    8.400    0.000    3.600 
#
# Total GULP energy -495659.466961 kJ/mol
# GULP energy per Si atom -12391.486674 kJ/mol
# Density = 1.542516 g / cm^3
# Si number density = 15.460349 Si / 1000 Ang^3
#
#
#
# Elastic Constant Matrix: (Units=GPa)
#
#
# Indices 1 2 3 4 5 6 
#
# 1 65.6495 44.4237 40.3774 0.0000 0.0000 0.0000
# 2 44.4237 103.0704 42.8629 0.0000 0.0000 0.0000
# 3 40.3774 42.8629 66.6107 0.0000 0.0000 0.0000
# 4 0.0000 0.0000 0.0000 23.6450 0.0000 0.0000
# 5 0.0000 0.0000 0.0000 0.0000 21.8034 0.0000
# 6 0.0000 0.0000 0.0000 0.0000 0.0000 23.2293
#
#
#
# Elastic Compliance Matrix: (Units=1/GPa)
#
#
# Indices 1 2 3 4 5 6 
#
# 1 0.027271 -0.006662 -0.012244 0.000000 0.000000 0.000000
# 2 -0.006662 0.014875 -0.005533 0.000000 0.000000 0.000000
# 3 -0.012244 -0.005533 0.025995 0.000000 0.000000 0.000000
# 4 0.000000 0.000000 0.000000 0.042292 0.000000 0.000000
# 5 0.000000 0.000000 0.000000 0.000000 0.045864 0.000000
# 6 0.000000 0.000000 0.000000 0.000000 0.000000 0.043049
#
#
# Mechanical properties :
#
#
# Convention : Reuss Voigt Hill
#
# Bulk Modulus (GPa) = 51.91516 54.51761 53.21638
# Shear Modulus (GPa) = 19.63513 20.91331 20.27422
#
# Velocity S-wave (km/s) = 3.56762 3.68191 3.62521
# Velocity P-wave (km/s) = 7.11498 7.30853 7.21241
#
# Compressibility (1/GPa) = 0.01926220
#
# Stress axis : x y z
#
# Youngs Moduli (GPa) = 36.66873 67.22907 38.46896
#
# Poissons Ratio (x) = 0.44789 0.47101
# Poissons Ratio (y) = 0.24429 0.21285
# Poissons Ratio (z) = 0.44897 0.37198
#
# Static dielectric constant tensor:
#      x y z
#    x 2.678760 0.000000 0.000000 
#    y 0.000000 2.890460 0.000000 
#    z 0.000000 0.000000 2.704750 
# 
# 
# High freq. dielectric constant tensor:
#      x y z
#    x 1.561770 0.000000 0.000000 
#    y 0.000000 1.596630 0.000000 
#    z 0.000000 0.000000 1.568050 
# 
# From -- ./inp_files/49128.got.cif
#   From: 2010.06.25/outbox.cif.g09.slc.cpg/sg71_25_cif.got.tgz:49128.got - 2010.06.28 04:59:45.
