data_PCOD8288858
_publ_section_title
;
Structure prediction by ZEFSAII (Michael W. Deem and Ramdas Pophale) SiO2 
 PCOD8288858
Probable space group: I M M M
;
_chemical_formula_sum "Si O2"
_cell_formula_units_Z 120
_cell_length_a 27.807608
_cell_length_b 26.511857
_cell_length_c 9.258289
_cell_angle_alpha 90.000000
_cell_angle_beta 90.000000
_cell_angle_gamma 90.000000
_cell_volume 6825.500683
_symmetry_space_group_name_H-M "I M M M"
_symmetry_group_IT_number 71
_symmetry_cell_setting 'orthorhombic'
loop_
_space_group_symop_operation_xyz
x,y,z
-x,-y,z
x,-y,-z
-x,y,-z
-x,-y,-z
x,y,-z
-x,y,z
x,-y,z
1/2+x,1/2+y,1/2+z
1/2-x,1/2-y,1/2+z
1/2+x,1/2-y,1/2-z
1/2-x,1/2+y,1/2-z
1/2-x,1/2-y,1/2-z
1/2+x,1/2+y,1/2-z
1/2-x,1/2+y,1/2+z
1/2+x,1/2-y,1/2+z
loop_
_atom_site_type_symbol
_atom_site_label
_atom_site_fract_x
_atom_site_fract_y
_atom_site_fract_z
Si Si1 0.134180 0.651383 0.333987
Si Si2 0.305062 0.942840 0.833610
Si Si3 0.946395 0.000000 0.171600
Si Si4 0.619473 0.590441 0.333868
Si Si5 0.554072 0.795778 0.669203
Si Si6 0.118364 0.203399 0.834890
Si Si7 0.290130 0.441246 0.166052
Si Si8 0.800335 0.745142 0.330157
O O1 0.119555 0.657386 0.500000
O O2 0.151298 0.594744 0.297708
O O3 0.086528 0.661204 0.241576
O O4 0.176986 0.690336 0.295961
O O5 0.260355 0.926519 0.736355
O O6 0.321807 0.000000 0.798896
O O7 0.289152 0.937378 0.000000
O O8 0.918892 0.050061 0.226971
O O9 0.000000 0.000000 0.238434
O O10 0.949680 0.000000 0.000000
O O11 0.631603 0.577743 0.500000
O O12 0.598232 0.646659 0.316280
O O13 0.668345 0.589406 0.244406
O O14 0.554540 0.805856 0.500000
O O15 0.500000 0.798820 0.730822
O O16 0.574946 0.740601 0.707557
O O17 0.163900 0.212243 0.731336
O O18 0.135031 0.212914 0.000000
O O19 0.301015 0.500000 0.186674
O O20 0.288351 0.425140 0.000000
O O21 0.792798 0.753933 0.500000
O O22 0.750000 0.750000 0.250000
#
# Coordination Sequence:
#
# PCOD8288858 Si02
#       8
#    16  16   8  16  16  16  16  16
#     4   9  19  34  52  76 103 132 167 206 247 297
#     4   9  18  33  53  76 103 135 169 205 247 296
#     4   9  18  32  51  75  97 123 167 219 266 307
#     4  10  19  32  51  71  97 131 168 213 259 305
#     4   9  18  34  55  77 101 130 166 208 255 304
#     4   9  19  33  49  72  99 130 168 210 255 302
#     4  10  20  32  47  70 100 134 171 208 246 294
#     4  10  20  33  48  70 102 136 168 205 249 300
#
# _framework density 17.581128
#
# number of rings (size 3 to 8) (size 9 to 14) (size 15 to 20)
#    0.000    2.600    0.667    0.800    1.867    2.933 
#    0.000    2.667    0.000    1.200    0.000    4.667 
#    0.000    0.000    0.000    0.000    0.000    0.000 
#
# Total GULP energy -744051.930764 kJ/mol
# GULP energy per Si atom -12400.865513 kJ/mol
# Density = 1.754111 g / cm^3
# Si number density = 17.581128 Si / 1000 Ang^3
#
#
#
# Elastic Constant Matrix: (Units=GPa)
#
#
# Indices 1 2 3 4 5 6 
#
# 1 141.6845 64.1792 56.5175 0.0000 0.0000 0.0000
# 2 64.1792 104.1336 35.1937 0.0000 0.0000 0.0000
# 3 56.5175 35.1937 67.4285 0.0000 0.0000 0.0000
# 4 0.0000 0.0000 0.0000 22.8406 0.0000 0.0000
# 5 0.0000 0.0000 0.0000 0.0000 23.5762 0.0000
# 6 0.0000 0.0000 0.0000 0.0000 0.0000 18.1951
#
#
#
# Elastic Compliance Matrix: (Units=1/GPa)
#
#
# Indices 1 2 3 4 5 6 
#
# 1 0.012455 -0.005036 -0.007811 0.000000 0.000000 0.000000
# 2 -0.005036 0.013696 -0.002927 0.000000 0.000000 0.000000
# 3 -0.007811 -0.002927 0.022905 0.000000 0.000000 0.000000
# 4 0.000000 0.000000 0.000000 0.043782 0.000000 0.000000
# 5 0.000000 0.000000 0.000000 0.000000 0.042416 0.000000
# 6 0.000000 0.000000 0.000000 0.000000 0.000000 0.054960
#
#
# Mechanical properties :
#
#
# Convention : Reuss Voigt Hill
#
# Bulk Modulus (GPa) = 57.11798 69.44747 63.28272
# Shear Modulus (GPa) = 21.96847 23.41281 22.69064
#
# Velocity S-wave (km/s) = 3.53873 3.65321 3.59642
# Velocity P-wave (km/s) = 7.01823 7.57506 7.30195
#
# Compressibility (1/GPa) = 0.01750762
#
# Stress axis : x y z
#
# Youngs Moduli (GPa) = 80.28889 73.01203 43.65795
#
# Poissons Ratio (x) = 0.36772 0.34101
# Poissons Ratio (y) = 0.40437 0.12780
# Poissons Ratio (z) = 0.62713 0.21372
#
# Static dielectric constant tensor:
#      x y z
#    x 3.188680 0.000000 0.000000 
#    y 0.000000 3.319620 0.000000 
#    z 0.000000 0.000000 3.223550 
# 
# 
# High freq. dielectric constant tensor:
#      x y z
#    x 1.663990 0.000000 0.000000 
#    y 0.000000 1.678770 0.000000 
#    z 0.000000 0.000000 1.672300 
# 
# From -- ./inp_files/15599.got.cif
#   From: 2010.06.25/outbox.cif.g09.slc.cpg/sg71_8_cif.got.tgz:15599.got - 2010.06.28 04:59:45.
