data_PCOD8288361
_publ_section_title
;
Structure prediction by ZEFSAII (Michael W. Deem and Ramdas Pophale) SiO2 
 PCOD8288361
Probable space group: I M M M
;
_chemical_formula_sum "Si O2"
_cell_formula_units_Z 88
_cell_length_a 25.300369
_cell_length_b 20.482677
_cell_length_c 8.769394
_cell_angle_alpha 90.000000
_cell_angle_beta 90.000000
_cell_angle_gamma 90.000000
_cell_volume 4544.469099
_symmetry_space_group_name_H-M "I M M M"
_symmetry_group_IT_number 71
_symmetry_cell_setting 'orthorhombic'
loop_
_space_group_symop_operation_xyz
x,y,z
-x,-y,z
x,-y,-z
-x,y,-z
-x,-y,-z
x,y,-z
-x,y,z
x,-y,z
1/2+x,1/2+y,1/2+z
1/2-x,1/2-y,1/2+z
1/2+x,1/2-y,1/2-z
1/2-x,1/2+y,1/2-z
1/2-x,1/2-y,1/2-z
1/2+x,1/2+y,1/2-z
1/2-x,1/2+y,1/2+z
1/2+x,1/2-y,1/2+z
loop_
_atom_site_type_symbol
_atom_site_label
_atom_site_fract_x
_atom_site_fract_y
_atom_site_fract_z
Si Si1 0.896744 0.252874 0.173236
Si Si2 0.207130 0.297916 0.321668
Si Si3 0.056938 0.388527 0.174588
Si Si4 0.329712 0.926821 0.680256
Si Si5 0.936828 0.000000 0.171541
Si Si6 0.437880 0.628504 0.168976
O O1 0.849026 0.265731 0.288091
O O2 0.939365 0.310359 0.189139
O O3 0.924889 0.186479 0.217158
O O4 0.875256 0.248828 0.000000
O O5 0.217606 0.302998 0.500000
O O6 0.250000 0.250000 0.250000
O O7 0.208413 0.372140 0.254322
O O8 0.109889 0.420846 0.246687
O O9 0.000000 0.409330 0.250793
O O10 0.054759 0.410737 0.000000
O O11 0.330746 0.912982 0.500000
O O12 0.308755 0.000000 0.717158
O O13 0.913839 0.062708 0.259505
O O14 0.000000 0.000000 0.169417
O O15 0.914569 0.000000 0.000000
O O16 0.500000 0.620889 0.156237
O O17 0.413712 0.639782 0.000000
#
# Coordination Sequence:
#
# PCOD8288361 Si02
#       6
#    16  16  16  16   8  16
#     4  10  19  32  51  76 104 136 177 221 267 318
#     4  11  22  38  60  82 105 135 176 225 279 333
#     4   8  14  25  44  74 110 145 181 218 252 292
#     4   9  18  33  54  82 115 149 185 224 267 318
#     4   9  17  29  45  65  91 131 179 217 253 305
#     4  10  19  30  46  71 104 139 174 215 265 318
#
# _framework density 19.364197999999998
#
# number of rings (size 3 to 8) (size 9 to 14) (size 15 to 20)
#    0.000    2.455    0.000    4.636    0.000    3.636 
#    0.000    1.818    2.000    4.909    0.000    5.091 
#    0.000    0.000    0.000    0.000    0.000    0.000 
#
# Total GULP energy -545260.099467 kJ/mol
# GULP energy per Si atom -12392.274988 kJ/mol
# Density = 1.932012 g / cm^3
# Si number density = 19.364198 Si / 1000 Ang^3
#
#
#
# Elastic Constant Matrix: (Units=GPa)
#
#
# Indices 1 2 3 4 5 6 
#
# 1 56.9595 23.1248 25.0358 0.0000 0.0000 0.0000
# 2 23.1248 137.3187 52.5673 0.0000 0.0000 0.0000
# 3 25.0358 52.5673 93.6825 0.0000 0.0000 0.0000
# 4 0.0000 0.0000 0.0000 29.4524 0.0000 0.0000
# 5 0.0000 0.0000 0.0000 0.0000 21.2929 0.0000
# 6 0.0000 0.0000 0.0000 0.0000 0.0000 20.1334
#
#
#
# Elastic Compliance Matrix: (Units=1/GPa)
#
#
# Indices 1 2 3 4 5 6 
#
# 1 0.020200 -0.001700 -0.004444 0.000000 0.000000 0.000000
# 2 -0.001700 0.009418 -0.004830 0.000000 0.000000 0.000000
# 3 -0.004444 -0.004830 0.014572 0.000000 0.000000 0.000000
# 4 0.000000 0.000000 0.000000 0.033953 0.000000 0.000000
# 5 0.000000 0.000000 0.000000 0.000000 0.046964 0.000000
# 6 0.000000 0.000000 0.000000 0.000000 0.000000 0.049669
#
#
# Mechanical properties :
#
#
# Convention : Reuss Voigt Hill
#
# Bulk Modulus (GPa) = 44.96252 54.37960 49.67106
# Shear Modulus (GPa) = 24.49318 26.65794 25.57556
#
# Velocity S-wave (km/s) = 3.56036 3.71436 3.63818
# Velocity P-wave (km/s) = 6.33809 6.82194 6.58446
#
# Compressibility (1/GPa) = 0.02224075
#
# Stress axis : x y z
#
# Youngs Moduli (GPa) = 49.50483 106.18309 68.62362
#
# Poissons Ratio (x) = 0.18056 0.30497
# Poissons Ratio (y) = 0.08418 0.33145
# Poissons Ratio (z) = 0.22000 0.51287
#
# Static dielectric constant tensor:
#      x y z
#    x 3.318690 0.000000 0.000000 
#    y 0.000000 3.657600 0.000000 
#    z 0.000000 0.000000 3.468300 
# 
# 
# High freq. dielectric constant tensor:
#      x y z
#    x 1.716660 0.000000 0.000000 
#    y 0.000000 1.764670 0.000000 
#    z 0.000000 0.000000 1.737180 
# 
# From -- ./inp_files/12507.got.cif
#   From: 2010.06.25/outbox.cif.g09.slc.cpg/sg71_7_cif.got.tgz:12507.got - 2010.06.28 04:59:45.
