data_PCOD8288517
_publ_section_title
;
Structure prediction by ZEFSAII (Michael W. Deem and Ramdas Pophale) SiO2 
 PCOD8288517
Probable space group: I M M M
;
_chemical_formula_sum "Si O2"
_cell_formula_units_Z 120
_cell_length_a 9.324492
_cell_length_b 24.744528
_cell_length_c 29.711474
_cell_angle_alpha 90.000000
_cell_angle_beta 90.000000
_cell_angle_gamma 90.000000
_cell_volume 6855.332953
_symmetry_space_group_name_H-M "I M M M"
_symmetry_group_IT_number 71
_symmetry_cell_setting 'orthorhombic'
loop_
_space_group_symop_operation_xyz
x,y,z
-x,-y,z
x,-y,-z
-x,y,-z
-x,-y,-z
x,y,-z
-x,y,z
x,-y,z
1/2+x,1/2+y,1/2+z
1/2-x,1/2-y,1/2+z
1/2+x,1/2-y,1/2-z
1/2-x,1/2+y,1/2-z
1/2-x,1/2-y,1/2-z
1/2+x,1/2+y,1/2-z
1/2-x,1/2+y,1/2+z
1/2+x,1/2-y,1/2+z
loop_
_atom_site_type_symbol
_atom_site_label
_atom_site_fract_x
_atom_site_fract_y
_atom_site_fract_z
Si Si1 0.662816 0.707879 0.721096
Si Si2 0.331325 0.439364 0.843277
Si Si3 0.170014 0.627586 0.084794
Si Si4 0.170305 0.439916 0.000000
Si Si5 0.662807 0.587396 0.746630
Si Si6 0.829013 0.173078 0.123867
Si Si7 0.329491 0.755941 0.449268
Si Si8 0.670995 0.558685 0.650549
O O1 0.500000 0.728568 0.718377
O O2 0.750000 0.750000 0.750000
O O3 0.673630 0.651808 0.747346
O O4 0.724812 0.700919 0.670260
O O5 0.500000 0.425685 0.844860
O O6 0.301150 0.500000 0.861560
O O7 0.247783 0.394195 0.871164
O O8 0.268373 0.435551 0.792445
O O9 0.219151 0.688725 0.074644
O O10 0.000000 0.623554 0.091629
O O11 0.225428 0.591118 0.043730
O O12 0.235727 0.500000 0.000000
O O13 0.000000 0.441300 0.000000
O O14 0.500000 0.567489 0.746225
O O15 0.735294 0.563584 0.701261
O O16 0.770027 0.206023 0.080748
O O17 0.774359 0.110258 0.121234
O O18 0.000000 0.173977 0.124332
O O19 0.266240 0.751718 0.500000
O O20 0.500000 0.754627 0.452045
O O21 0.500000 0.562669 0.653065
O O22 0.718407 0.500000 0.630215
#
# Coordination Sequence:
#
# PCOD8288517 Si02
#       8
#    16  16  16   8  16  16  16  16
#     4   9  17  28  42  62  89 117 145 178 217 258
#     4  10  20  32  45  63  88 116 145 179 221 263
#     4  10  19  31  47  65  82 108 147 186 222 261
#     4   9  16  28  45  61  77  99 136 186 226 257
#     4   8  15  27  41  59  84 115 147 176 208 251
#     4   8  15  25  39  62  87 110 141 184 223 255
#     4   9  16  28  45  63  83 109 145 185 225 269
#     4   8  12  21  39  60  83 114 149 179 208 249
#
# _framework density 17.504619999999999
#
# number of rings (size 3 to 8) (size 9 to 14) (size 15 to 20)
#    0.000    3.133    0.667    2.400    1.867    2.400 
#    0.000    0.333    0.000    1.600    0.000    2.800 
#    0.000    4.800    0.000    0.000    0.000    0.000 
#
# Total GULP energy -743408.569326 kJ/mol
# GULP energy per Si atom -12390.142822 kJ/mol
# Density = 1.746478 g / cm^3
# Si number density = 17.504620 Si / 1000 Ang^3
#
#
#
# Elastic Constant Matrix: (Units=GPa)
#
#
# Indices 1 2 3 4 5 6 
#
# 1 16.7284 18.8777 14.3819 0.0000 0.0000 0.0000
# 2 18.8777 149.2354 73.7913 0.0000 0.0000 0.0000
# 3 14.3819 73.7913 102.5809 0.0000 0.0000 0.0000
# 4 0.0000 0.0000 0.0000 31.3354 0.0000 0.0000
# 5 0.0000 0.0000 0.0000 0.0000 12.5570 0.0000
# 6 0.0000 0.0000 0.0000 0.0000 0.0000 13.3296
#
#
#
# Elastic Compliance Matrix: (Units=1/GPa)
#
#
# Indices 1 2 3 4 5 6 
#
# 1 0.071659 -0.006359 -0.005473 0.000000 0.000000 0.000000
# 2 -0.006359 0.010964 -0.006996 0.000000 0.000000 0.000000
# 3 -0.005473 -0.006996 0.015548 0.000000 0.000000 0.000000
# 4 0.000000 0.000000 0.000000 0.031913 0.000000 0.000000
# 5 0.000000 0.000000 0.000000 0.000000 0.079637 0.000000
# 6 0.000000 0.000000 0.000000 0.000000 0.000000 0.075021
#
#
# Mechanical properties :
#
#
# Convention : Reuss Voigt Hill
#
# Bulk Modulus (GPa) = 16.52409 53.62740 35.07574
# Shear Modulus (GPa) = 14.59562 22.21065 18.40313
#
# Velocity S-wave (km/s) = 2.89072 3.56595 3.24594
# Velocity P-wave (km/s) = 4.53894 6.90343 5.84206
#
# Compressibility (1/GPa) = 0.06051772
#
# Stress axis : x y z
#
# Youngs Moduli (GPa) = 13.95493 91.20578 64.31717
#
# Poissons Ratio (x) = 0.57994 0.35199
# Poissons Ratio (y) = 0.08873 0.44994
# Poissons Ratio (z) = 0.07637 0.63804
#
# Static dielectric constant tensor:
#      x y z
#    x 2.592360 0.000000 0.000000 
#    y 0.000000 3.555740 0.000000 
#    z 0.000000 0.000000 3.417320 
# 
# 
# High freq. dielectric constant tensor:
#      x y z
#    x 1.599700 0.000000 0.000000 
#    y 0.000000 1.691220 0.000000 
#    z 0.000000 0.000000 1.670010 
# 
# From -- ./inp_files/69615.got.cif
#   From: 2010.06.25/outbox.cif.g09.slc.cpg/sg71_35_cif.got.tgz:69615.got - 2010.06.28 04:59:45.
