data_PCOD8288676
_publ_section_title
;
Structure prediction by ZEFSAII (Michael W. Deem and Ramdas Pophale) SiO2 
 PCOD8288676
Probable space group: I M M M
;
_chemical_formula_sum "Si O2"
_cell_formula_units_Z 88
_cell_length_a 27.841584
_cell_length_b 9.550294
_cell_length_c 17.821720
_cell_angle_alpha 90.000000
_cell_angle_beta 90.000000
_cell_angle_gamma 90.000000
_cell_volume 4738.711811
_symmetry_space_group_name_H-M "I M M M"
_symmetry_group_IT_number 71
_symmetry_cell_setting 'orthorhombic'
loop_
_space_group_symop_operation_xyz
x,y,z
-x,-y,z
x,-y,-z
-x,y,-z
-x,-y,-z
x,y,-z
-x,y,z
x,-y,z
1/2+x,1/2+y,1/2+z
1/2-x,1/2-y,1/2+z
1/2+x,1/2-y,1/2-z
1/2-x,1/2+y,1/2-z
1/2-x,1/2-y,1/2-z
1/2+x,1/2+y,1/2-z
1/2-x,1/2+y,1/2+z
1/2+x,1/2-y,1/2+z
loop_
_atom_site_type_symbol
_atom_site_label
_atom_site_fract_x
_atom_site_fract_y
_atom_site_fract_z
Si Si1 0.853853 0.337169 0.670227
Si Si2 0.553432 0.833845 0.915713
Si Si3 0.500000 0.842412 0.589614
Si Si4 0.260091 0.162835 0.082661
Si Si5 0.414013 0.342522 0.586050
Si Si6 0.822826 0.161094 0.812485
O O1 0.857493 0.500000 0.692787
O O2 0.905228 0.277841 0.640553
O O3 0.815439 0.313926 0.604161
O O4 0.835850 0.251837 0.741044
O O5 0.500000 0.788471 0.887308
O O6 0.557203 0.000000 0.918780
O O7 0.561781 0.774936 0.000000
O O8 0.500000 0.837409 0.500000
O O9 0.546917 0.763531 0.620714
O O10 0.500000 0.000000 0.620945
O O11 0.224731 0.224649 0.146871
O O12 0.247290 0.000000 0.077345
O O13 0.251763 0.230958 0.000000
O O14 0.403707 0.305924 0.500000
O O15 0.434161 0.500000 0.594611
O O16 0.364656 0.322567 0.627897
O O17 0.815579 0.000000 0.787272
#
# Coordination Sequence:
#
# PCOD8288676 Si02
#       6
#    16  16   8  16  16  16
#     4  10  19  31  50  76 104 131 162 204 255 304
#     4   8  14  27  49  75 100 127 164 207 244 284
#     4   9  17  29  47  71  95 119 152 203 260 299
#     4   9  17  31  53  77  97 125 171 217 250 289
#     4   9  17  31  50  68  89 125 173 213 243 288
#     4  10  20  33  49  71 101 134 165 203 251 300
#
# _framework density 18.570447000000001
#
# number of rings (size 3 to 8) (size 9 to 14) (size 15 to 20)
#    0.000    2.818    0.000    2.455    0.000    6.182 
#    1.636    0.000    0.000    4.909    0.000    1.273 
#    0.000    0.000    0.000    0.000    0.000    0.000 
#
# Total GULP energy -545384.188347 kJ/mol
# GULP energy per Si atom -12395.095190 kJ/mol
# Density = 1.852818 g / cm^3
# Si number density = 18.570447 Si / 1000 Ang^3
#
#
#
# Elastic Constant Matrix: (Units=GPa)
#
#
# Indices 1 2 3 4 5 6 
#
# 1 134.9742 33.8145 58.6250 0.0000 0.0000 0.0000
# 2 33.8145 51.6894 30.8382 0.0000 0.0000 0.0000
# 3 58.6250 30.8382 107.9403 0.0000 0.0000 0.0000
# 4 0.0000 0.0000 0.0000 22.1357 0.0000 0.0000
# 5 0.0000 0.0000 0.0000 0.0000 63.4079 0.0000
# 6 0.0000 0.0000 0.0000 0.0000 0.0000 16.0743
#
#
#
# Elastic Compliance Matrix: (Units=1/GPa)
#
#
# Indices 1 2 3 4 5 6 
#
# 1 0.010380 -0.004131 -0.004457 0.000000 0.000000 0.000000
# 2 -0.004131 0.024966 -0.004889 0.000000 0.000000 0.000000
# 3 -0.004457 -0.004889 0.013082 0.000000 0.000000 0.000000
# 4 0.000000 0.000000 0.000000 0.045176 0.000000 0.000000
# 5 0.000000 0.000000 0.000000 0.000000 0.015771 0.000000
# 6 0.000000 0.000000 0.000000 0.000000 0.000000 0.062211
#
#
# Mechanical properties :
#
#
# Convention : Reuss Voigt Hill
#
# Bulk Modulus (GPa) = 46.57047 60.12880 53.34963
# Shear Modulus (GPa) = 24.30760 31.74534 28.02647
#
# Velocity S-wave (km/s) = 3.62185 4.13904 3.88905
# Velocity P-wave (km/s) = 6.52860 7.43581 6.99692
#
# Compressibility (1/GPa) = 0.02147283
#
# Stress axis : x y z
#
# Youngs Moduli (GPa) = 96.34160 40.05519 76.44104
#
# Poissons Ratio (x) = 0.16547 0.34072
# Poissons Ratio (y) = 0.39799 0.37371
# Poissons Ratio (z) = 0.42942 0.19583
#
# Static dielectric constant tensor:
#      x y z
#    x 3.747620 0.000000 0.000000 
#    y 0.000000 3.118300 0.000000 
#    z 0.000000 0.000000 3.362980 
# 
# 
# High freq. dielectric constant tensor:
#      x y z
#    x 1.739840 0.000000 0.000000 
#    y 0.000000 1.670560 0.000000 
#    z 0.000000 0.000000 1.710870 
# 
# From -- ./inp_files/49256.got.cif
#   From: 2010.06.25/outbox.cif.g09.slc.cpg/sg71_25_cif.got.tgz:49256.got - 2010.06.28 04:59:45.
