data_PCOD8288485
_publ_section_title
;
Structure prediction by ZEFSAII (Michael W. Deem and Ramdas Pophale) SiO2 
 PCOD8288485
Probable space group: I M M M
;
_chemical_formula_sum "Si O2"
_cell_formula_units_Z 88
_cell_length_a 8.067129
_cell_length_b 25.446385
_cell_length_c 21.421660
_cell_angle_alpha 90.000000
_cell_angle_beta 90.000000
_cell_angle_gamma 90.000000
_cell_volume 4397.422735
_symmetry_space_group_name_H-M "I M M M"
_symmetry_group_IT_number 71
_symmetry_cell_setting 'orthorhombic'
loop_
_space_group_symop_operation_xyz
x,y,z
-x,-y,z
x,-y,-z
-x,y,-z
-x,-y,-z
x,y,-z
-x,y,z
x,-y,z
1/2+x,1/2+y,1/2+z
1/2-x,1/2-y,1/2+z
1/2+x,1/2-y,1/2-z
1/2-x,1/2+y,1/2-z
1/2-x,1/2-y,1/2-z
1/2+x,1/2+y,1/2-z
1/2-x,1/2+y,1/2+z
1/2+x,1/2-y,1/2+z
loop_
_atom_site_type_symbol
_atom_site_label
_atom_site_fract_x
_atom_site_fract_y
_atom_site_fract_z
Si Si1 0.813196 0.687995 0.309360
Si Si2 0.803171 0.611390 0.928856
Si Si3 0.691675 0.202013 0.336081
Si Si4 0.188933 0.500000 0.116438
Si Si5 0.310690 0.500000 0.251438
Si Si6 0.500000 0.938532 0.932247
Si Si7 0.685046 0.585497 0.647709
O O1 0.786576 0.742995 0.345288
O O2 0.780630 0.687912 0.235702
O O3 0.681709 0.646682 0.335410
O O4 0.000000 0.668990 0.323190
O O5 0.734100 0.656686 0.881888
O O6 0.728391 0.553857 0.910313
O O7 0.000000 0.609417 0.921433
O O8 0.750538 0.624792 0.000000
O O9 0.500000 0.210967 0.351819
O O10 0.194894 0.500000 0.191217
O O11 0.000000 0.500000 0.094130
O O12 0.500000 0.500000 0.228645
O O13 0.268824 0.551460 0.291596
O O14 0.327353 0.921877 0.902315
O O15 0.500000 0.000000 0.936492
O O16 0.500000 0.911951 0.000000
O O17 0.500000 0.569706 0.623188
#
# Coordination Sequence:
#
# PCOD8288485 Si02
#       7
#    16  16  16   8   8   8  16
#     4  10  19  33  56  82 114 148 192 250 303 357
#     4   9  17  31  51  78 111 147 193 241 285 343
#     4   9  18  32  51  80 111 152 197 243 305 358
#     4  10  19  30  54  84 111 149 191 236 285 341
#     4  10  22  35  53  86 120 149 185 230 288 345
#     4  11  24  42  64  88 118 158 196 237 291 355
#     4  11  22  38  60  89 121 156 194 243 296 352
#
# _framework density 20.011721000000001
#
# number of rings (size 3 to 8) (size 9 to 14) (size 15 to 20)
#    0.000    2.091    1.818    1.909    1.273    3.636 
#    0.000    2.727    0.000    4.364    0.000    0.000 
#    0.000    0.000    0.000    0.000    0.000    0.000 
#
# Total GULP energy -545355.589381 kJ/mol
# GULP energy per Si atom -12394.445213 kJ/mol
# Density = 1.996617 g / cm^3
# Si number density = 20.011721 Si / 1000 Ang^3
#
#
#
# Elastic Constant Matrix: (Units=GPa)
#
#
# Indices 1 2 3 4 5 6 
#
# 1 64.8576 24.8543 35.0886 0.0000 0.0000 -0.0001
# 2 24.8543 151.8004 65.4445 0.0000 0.0000 0.0000
# 3 35.0886 65.4445 113.9121 -0.0001 0.0000 -0.0003
# 4 0.0000 0.0000 -0.0001 23.6925 0.0000 -0.0003
# 5 0.0000 0.0000 0.0000 0.0000 12.3611 -0.0001
# 6 -0.0001 0.0000 -0.0003 -0.0003 -0.0001 -161.9367
#
#
#
# Elastic Compliance Matrix: (Units=1/GPa)
#
#
# Indices 1 2 3 4 5 6 
#
# 1 0.018568 -0.000763 -0.005281 0.000000 0.000000 0.000000
# 2 -0.000763 0.008788 -0.004814 0.000000 0.000000 0.000000
# 3 -0.005281 -0.004814 0.013171 0.000000 0.000000 0.000000
# 4 0.000000 0.000000 0.000000 0.042207 0.000000 0.000000
# 5 0.000000 0.000000 0.000000 0.000000 0.080899 0.000000
# 6 0.000000 0.000000 0.000000 0.000000 0.000000 -0.006175
#
#
# Mechanical properties :
#
#
# Convention : Reuss Voigt Hill
#
# Bulk Modulus (GPa) = 53.16093 64.59386 58.87740
# Shear Modulus (GPa) = 26.96225 -11.49778 7.73224
#
# Velocity S-wave (km/s) = 3.67457 -2.39958 1.96780
# Velocity P-wave (km/s) = 6.68026 4.96697 5.88628
#
# Compressibility (1/GPa) = 0.01881081
#
# Stress axis : x y z
#
# Youngs Moduli (GPa) = 53.85613 113.79344 75.92493
#
# Poissons Ratio (x) = 0.08687 0.40096
# Poissons Ratio (y) = 0.04111 0.36547
# Poissons Ratio (z) = 0.28441 0.54776
#
# Static dielectric constant tensor:
#      x y z
#    x 3.394830 0.000000 0.000000 
#    y 0.000000 3.905270 0.000000 
#    z 0.000000 0.000000 3.762910 
# 
# 
# High freq. dielectric constant tensor:
#      x y z
#    x 1.764250 0.000000 0.000000 
#    y 0.000000 1.793430 0.000000 
#    z 0.000000 0.000000 1.759420 
# 
# From -- ./inp_files/50574.got.cif
#   From: 2010.06.25/outbox.cif.g09.slc.cpg/sg71_26_cif.got.tgz:50574.got - 2010.06.28 04:59:45.
