data_PCOD8288829
_publ_section_title
;
Structure prediction by ZEFSAII (Michael W. Deem and Ramdas Pophale) SiO2 
 PCOD8288829
Probable space group: I M M M
;
_chemical_formula_sum "Si O2"
_cell_formula_units_Z 96
_cell_length_a 8.408994
_cell_length_b 24.298804
_cell_length_c 24.087001
_cell_angle_alpha 90.000000
_cell_angle_beta 90.000000
_cell_angle_gamma 90.000000
_cell_volume 4921.660713
_symmetry_space_group_name_H-M "I M M M"
_symmetry_group_IT_number 71
_symmetry_cell_setting 'orthorhombic'
loop_
_space_group_symop_operation_xyz
x,y,z
-x,-y,z
x,-y,-z
-x,y,-z
-x,-y,-z
x,y,-z
-x,y,z
x,-y,z
1/2+x,1/2+y,1/2+z
1/2-x,1/2-y,1/2+z
1/2+x,1/2-y,1/2-z
1/2-x,1/2+y,1/2-z
1/2-x,1/2-y,1/2-z
1/2+x,1/2+y,1/2-z
1/2-x,1/2+y,1/2+z
1/2+x,1/2-y,1/2+z
loop_
_atom_site_type_symbol
_atom_site_label
_atom_site_fract_x
_atom_site_fract_y
_atom_site_fract_z
Si Si1 0.812490 0.846953 0.646401
Si Si2 0.315167 0.629021 0.562760
Si Si3 0.684145 0.937340 0.157242
Si Si4 0.684932 0.223233 0.133523
Si Si5 0.185156 0.844101 0.229471
Si Si6 0.189180 0.938175 0.562421
O O1 0.770189 0.786671 0.623157
O O2 0.742996 0.851092 0.708741
O O3 0.738034 0.893783 0.605940
O O4 0.000000 0.855734 0.649233
O O5 0.253426 0.630553 0.500000
O O6 0.500000 0.614310 0.566245
O O7 0.215835 0.582120 0.594361
O O8 0.287613 0.688561 0.590103
O O9 0.500000 0.928619 0.171776
O O10 0.791765 0.902022 0.198668
O O11 0.736899 0.000000 0.163880
O O12 0.500000 0.212212 0.122560
O O13 0.724336 0.204669 0.196659
O O14 0.000000 0.828643 0.231592
O O15 0.250152 0.924593 0.500000
O O16 0.000000 0.934859 0.563015
O O17 0.243922 0.000000 0.579445
#
# Coordination Sequence:
#
# PCOD8288829 Si02
#       6
#    16  16  16  16  16  16
#     4   9  18  29  45  73 100 127 167 205 241 292
#     4  10  21  36  53  74 101 132 168 209 251 298
#     4  10  21  36  53  74 101 132 168 209 251 298
#     4  10  19  32  50  72 101 133 165 204 249 295
#     4  10  19  32  50  72 101 133 165 204 249 295
#     4   8  14  26  43  63  92 127 158 194 241 287
#
# _framework density 19.505610999999998
#
# number of rings (size 3 to 8) (size 9 to 14) (size 15 to 20)
#    0.000    2.500    0.000    5.000    0.000    4.333 
#    0.000    7.500    0.000    0.000    0.000    0.000 
#    0.000    0.000    0.000   29.333    0.000   26.000 
#
# Total GULP energy -595112.430414 kJ/mol
# GULP energy per Si atom -12398.175634 kJ/mol
# Density = 1.946121 g / cm^3
# Si number density = 19.505611 Si / 1000 Ang^3
#
#
#
# Elastic Constant Matrix: (Units=GPa)
#
#
# Indices 1 2 3 4 5 6 
#
# 1 27.6653 6.0626 0.4874 0.0000 0.0000 0.0000
# 2 6.0626 111.3492 19.0943 0.0000 0.0000 0.0000
# 3 0.4874 19.0943 66.4050 -0.0001 0.0000 0.0000
# 4 0.0000 0.0000 -0.0001 23.3100 0.0000 0.0000
# 5 0.0000 0.0000 0.0000 0.0000 13.8961 0.0000
# 6 0.0000 0.0000 0.0000 0.0000 0.0000 18.7563
#
#
#
# Elastic Compliance Matrix: (Units=1/GPa)
#
#
# Indices 1 2 3 4 5 6 
#
# 1 0.036589 -0.002047 0.000320 0.000000 0.000000 0.000000
# 2 -0.002047 0.009561 -0.002734 0.000000 0.000000 0.000000
# 3 0.000320 -0.002734 0.015843 0.000000 0.000000 0.000000
# 4 0.000000 0.000000 0.000000 0.042900 0.000000 0.000000
# 5 0.000000 0.000000 0.000000 0.000000 0.071963 0.000000
# 6 0.000000 0.000000 0.000000 0.000000 0.000000 0.053315
#
#
# Mechanical properties :
#
#
# Convention : Reuss Voigt Hill
#
# Bulk Modulus (GPa) = 18.84272 28.52313 23.68292
# Shear Modulus (GPa) = 19.47159 23.17748 21.32453
#
# Velocity S-wave (km/s) = 3.16295 3.45084 3.31002
# Velocity P-wave (km/s) = 4.79793 5.52562 5.17458
#
# Compressibility (1/GPa) = 0.05307091
#
# Stress axis : x y z
#
# Youngs Moduli (GPa) = 27.33040 104.59082 63.11956
#
# Poissons Ratio (x) = 0.21410 -0.02020
# Poissons Ratio (y) = 0.05595 0.17258
# Poissons Ratio (z) = -0.00875 0.28597
#
# Static dielectric constant tensor:
#      x y z
#    x 3.206200 0.000000 0.000000 
#    y 0.000000 3.661140 0.000000 
#    z 0.000000 0.000000 3.785210 
# 
# 
# High freq. dielectric constant tensor:
#      x y z
#    x 1.731110 0.000000 0.000000 
#    y 0.000000 1.763510 0.000000 
#    z 0.000000 0.000000 1.759750 
# 
# From -- ./inp_files/57731.got.cif
#   From: 2010.06.25/outbox.cif.g09.slc.cpg/sg71_29_cif.got.tgz:57731.got - 2010.06.28 04:59:45.
