data_PCOD8288028
_publ_section_title
;
Structure prediction by ZEFSAII (Michael W. Deem and Ramdas Pophale) SiO2 
 PCOD8288028
Probable space group: I M M M
;
_chemical_formula_sum "Si O2"
_cell_formula_units_Z 96
_cell_length_a 26.875776
_cell_length_b 16.344992
_cell_length_c 12.233106
_cell_angle_alpha 90.000000
_cell_angle_beta 90.000000
_cell_angle_gamma 90.000000
_cell_volume 5373.811941
_symmetry_space_group_name_H-M "I M M M"
_symmetry_group_IT_number 71
_symmetry_cell_setting 'orthorhombic'
loop_
_space_group_symop_operation_xyz
x,y,z
-x,-y,z
x,-y,-z
-x,y,-z
-x,-y,-z
x,y,-z
-x,y,z
x,-y,z
1/2+x,1/2+y,1/2+z
1/2-x,1/2-y,1/2+z
1/2+x,1/2-y,1/2-z
1/2-x,1/2+y,1/2-z
1/2-x,1/2-y,1/2-z
1/2+x,1/2+y,1/2-z
1/2-x,1/2+y,1/2+z
1/2+x,1/2-y,1/2+z
loop_
_atom_site_type_symbol
_atom_site_label
_atom_site_fract_x
_atom_site_fract_y
_atom_site_fract_z
Si Si1 0.851188 0.906001 0.500000
Si Si2 0.445369 0.315030 0.000000
Si Si3 0.638246 0.725029 0.626746
Si Si4 0.786305 0.673148 0.237957
Si Si5 0.057685 0.288956 0.282765
Si Si6 0.632563 0.093853 0.127441
Si Si7 0.310769 0.406233 0.224293
O O1 0.910111 0.893465 0.500000
O O2 0.829099 0.866223 0.610013
O O3 0.836604 0.000000 0.500000
O O4 0.435840 0.261392 0.893491
O O5 0.500000 0.352794 0.000000
O O6 0.628304 0.708793 0.500000
O O7 0.674667 0.804059 0.641609
O O8 0.585126 0.740972 0.684451
O O9 0.665033 0.645153 0.677356
O O10 0.750000 0.750000 0.250000
O O11 0.819482 0.650076 0.343822
O O12 0.749510 0.596985 0.217695
O O13 0.084162 0.376119 0.304874
O O14 0.000000 0.302384 0.251139
O O15 0.642743 0.000000 0.160515
O O16 0.621763 0.102943 0.000000
O O17 0.327763 0.500000 0.239206
#
# Coordination Sequence:
#
# PCOD8288028 Si02
#       7
#     8   8  16  16  16  16  16
#     4  10  20  33  54  81 109 142 177 223 277 325
#     4  10  18  33  57  80 106 139 179 229 277 320
#     4  10  21  36  54  78 105 140 183 223 261 310
#     4   9  20  34  50  76 106 143 181 216 257 314
#     4  10  20  35  56  80 106 140 178 222 273 323
#     4  10  20  34  54  82 114 141 172 223 280 327
#     4  10  20  35  54  78 108 142 177 217 268 320
#
# _framework density 17.864412999999999
#
# number of rings (size 3 to 8) (size 9 to 14) (size 15 to 20)
#    0.000    2.167    2.500    0.500    1.167    3.833 
#    0.000    0.833    0.000    5.000    0.000    5.833 
#    0.000    0.000    0.000    0.000    0.000    0.000 
#
# Total GULP energy -594825.023837 kJ/mol
# GULP energy per Si atom -12392.187997 kJ/mol
# Density = 1.782375 g / cm^3
# Si number density = 17.864413 Si / 1000 Ang^3
#
#
#
# Elastic Constant Matrix: (Units=GPa)
#
#
# Indices 1 2 3 4 5 6 
#
# 1 142.6817 39.8190 52.4248 0.0000 0.0000 0.0000
# 2 39.8190 67.0842 36.1314 0.0000 0.0000 0.0000
# 3 52.4248 36.1314 129.2089 0.0000 0.0000 0.0000
# 4 0.0000 0.0000 0.0000 22.5745 0.0000 0.0000
# 5 0.0000 0.0000 0.0000 0.0000 23.3602 0.0000
# 6 0.0000 0.0000 0.0000 0.0000 0.0000 25.0769
#
#
#
# Elastic Compliance Matrix: (Units=1/GPa)
#
#
# Indices 1 2 3 4 5 6 
#
# 1 0.009066 -0.004003 -0.002559 0.000000 0.000000 0.000000
# 2 -0.004003 0.019317 -0.003778 0.000000 0.000000 0.000000
# 3 -0.002559 -0.003778 0.009834 0.000000 0.000000 0.000000
# 4 0.000000 0.000000 0.000000 0.044298 0.000000 0.000000
# 5 0.000000 0.000000 0.000000 0.000000 0.042808 0.000000
# 6 0.000000 0.000000 0.000000 0.000000 0.000000 0.039877
#
#
# Mechanical properties :
#
#
# Convention : Reuss Voigt Hill
#
# Bulk Modulus (GPa) = 57.01892 66.19169 61.60530
# Shear Modulus (GPa) = 26.07892 28.24229 27.16060
#
# Velocity S-wave (km/s) = 3.82491 3.98040 3.90343
# Velocity P-wave (km/s) = 7.17590 7.63266 7.40780
#
# Compressibility (1/GPa) = 0.01753804
#
# Stress axis : x y z
#
# Youngs Moduli (GPa) = 110.30227 51.76700 101.68738
#
# Poissons Ratio (x) = 0.20722 0.26022
# Poissons Ratio (y) = 0.44154 0.38414
# Poissons Ratio (z) = 0.28227 0.19556
#
# Static dielectric constant tensor:
#      x y z
#    x 3.547380 0.000000 0.000000 
#    y 0.000000 3.283290 0.000000 
#    z 0.000000 0.000000 3.196990 
# 
# 
# High freq. dielectric constant tensor:
#      x y z
#    x 1.699440 0.000000 0.000000 
#    y 0.000000 1.682570 0.000000 
#    z 0.000000 0.000000 1.676130 
# 
# From -- ./inp_files/24262.got.cif
#   From: 2010.06.25/outbox.cif.g09.slc.cpg/sg71_13_cif.got.tgz:24262.got - 2010.06.28 04:59:45.
