data_PCOD8288250
_publ_section_title
;
Structure prediction by ZEFSAII (Michael W. Deem and Ramdas Pophale) SiO2 
 PCOD8288250
Probable space group: I M M M
;
_chemical_formula_sum "Si O2"
_cell_formula_units_Z 64
_cell_length_a 34.961353
_cell_length_b 20.423700
_cell_length_c 5.317653
_cell_angle_alpha 90.000000
_cell_angle_beta 90.000000
_cell_angle_gamma 90.000000
_cell_volume 3797.017933
_symmetry_space_group_name_H-M "I M M M"
_symmetry_group_IT_number 71
_symmetry_cell_setting 'orthorhombic'
loop_
_space_group_symop_operation_xyz
x,y,z
-x,-y,z
x,-y,-z
-x,y,-z
-x,-y,-z
x,y,-z
-x,y,z
x,-y,z
1/2+x,1/2+y,1/2+z
1/2-x,1/2-y,1/2+z
1/2+x,1/2-y,1/2-z
1/2-x,1/2+y,1/2-z
1/2-x,1/2-y,1/2-z
1/2+x,1/2+y,1/2-z
1/2-x,1/2+y,1/2+z
1/2+x,1/2-y,1/2+z
loop_
_atom_site_type_symbol
_atom_site_label
_atom_site_fract_x
_atom_site_fract_y
_atom_site_fract_z
Si Si1 0.413669 0.922256 0.000000
Si Si2 0.277769 0.575711 0.500000
Si Si3 0.042983 0.577753 0.000000
Si Si4 0.859621 0.188180 0.500000
Si Si5 0.344941 0.170879 0.000000
Si Si6 0.650619 0.649610 0.500000
Si Si7 0.229773 0.151708 0.500000
Si Si8 0.306619 0.788886 0.500000
O O1 0.435780 0.897243 0.751207
O O2 0.371366 0.892775 0.000000
O O3 0.409514 0.000000 0.000000
O O4 0.266940 0.500000 0.500000
O O5 0.324029 0.584399 0.500000
O O6 0.261748 0.607866 0.754230
O O7 0.041610 0.500000 0.000000
O O8 0.000000 0.606294 0.000000
O O9 0.871618 0.263772 0.500000
O O10 0.875683 0.152356 0.250075
O O11 0.812809 0.182112 0.500000
O O12 0.320182 0.171209 0.745916
O O13 0.678648 0.714061 0.500000
O O14 0.260289 0.211355 0.500000
#
# Coordination Sequence:
#
# PCOD8288250 Si02
#       8
#     8   8   8   8   8   8   8   8
#     4  10  19  31  45  62  87 112 131 159 206 253
#     4  10  19  30  41  56  75  91 113 154 214 259
#     4   9  17  30  49  68  82 102 136 170 195 228
#     4   8  16  27  42  60  74  92 127 166 199 228
#     4  10  19  30  43  60  80 103 128 159 201 245
#     4   8  16  27  42  57  69  89 118 156 196 230
#     4  10  19  31  46  58  71  97 133 173 206 232
#     4  10  19  31  45  58  73  98 137 172 198 233
#
# _framework density 16.855333000000002
#
# number of rings (size 3 to 8) (size 9 to 14) (size 15 to 20)
#    0.000    2.625    0.000    2.250    0.000   10.500 
#    0.000    3.750    0.000    0.000    0.000    0.000 
#    0.000    0.000    0.000    0.000    0.000    0.000 
#
# Total GULP energy -396470.879459 kJ/mol
# GULP energy per Si atom -12389.714983 kJ/mol
# Density = 1.681697 g / cm^3
# Si number density = 16.855333 Si / 1000 Ang^3
#
#
#
# Elastic Constant Matrix: (Units=GPa)
#
#
# Indices 1 2 3 4 5 6 
#
# 1 32.7559 13.7832 13.6740 -0.0001 -0.0008 0.0001
# 2 13.7832 39.5703 13.6636 0.0001 0.0000 0.0000
# 3 13.6740 13.6636 169.8634 -0.0001 0.0139 0.0002
# 4 -0.0001 0.0001 -0.0001 13.1411 -0.0023 -0.0002
# 5 -0.0008 0.0000 0.0139 -0.0023 -43.2513 -0.0001
# 6 0.0001 0.0000 0.0002 -0.0002 -0.0001 9.2711
#
#
#
# Elastic Compliance Matrix: (Units=1/GPa)
#
#
# Indices 1 2 3 4 5 6 
#
# 1 0.036398 -0.012000 -0.001965 0.000000 -0.000001 0.000000
# 2 -0.012000 0.029950 -0.001443 0.000000 0.000000 0.000000
# 3 -0.001965 -0.001443 0.006161 0.000000 0.000002 0.000000
# 4 0.000000 0.000000 0.000000 0.076097 -0.000004 0.000001
# 5 -0.000001 0.000000 0.000002 -0.000004 -0.023121 0.000000
# 6 0.000000 0.000000 0.000000 0.000001 0.000000 0.107862
#
#
# Mechanical properties :
#
#
# Convention : Reuss Voigt Hill
#
# Bulk Modulus (GPa) = 23.98445 36.04793 30.01619
# Shear Modulus (GPa) = 17.98168 9.23678 13.60923
#
# Velocity S-wave (km/s) = 3.26977 2.34349 2.84459
# Velocity P-wave (km/s) = 5.34001 5.36243 5.35123
#
# Compressibility (1/GPa) = 0.04169368
#
# Stress axis : x y z
#
# Youngs Moduli (GPa) = 27.47371 33.38945 162.30254
#
# Poissons Ratio (x) = 0.40067 0.31890
# Poissons Ratio (y) = 0.32968 0.23422
# Poissons Ratio (z) = 0.05398 0.04818
#
# Static dielectric constant tensor:
#      x y z
#    x 2.623010 0.000000 0.000000 
#    y 0.000000 2.820760 0.000000 
#    z 0.000000 0.000000 4.483570 
# 
# 
# High freq. dielectric constant tensor:
#      x y z
#    x 1.574610 0.000000 0.000000 
#    y 0.000000 1.613600 0.000000 
#    z 0.000000 0.000000 1.698110 
# 
# From -- ./inp_files/862.got.cif
#   From: 2010.06.25/outbox.cif.g09.slc.cpg/sg71_1_cif.got.tgz:862.got - 2010.06.28 04:59:45.
