data_PCOD8288567
_publ_section_title
;
Structure prediction by ZEFSAII (Michael W. Deem and Ramdas Pophale) SiO2 
 PCOD8288567
Probable space group: I M M M
;
_chemical_formula_sum "Si O2"
_cell_formula_units_Z 88
_cell_length_a 22.500474
_cell_length_b 25.951945
_cell_length_c 7.855967
_cell_angle_alpha 90.000000
_cell_angle_beta 90.000000
_cell_angle_gamma 90.000000
_cell_volume 4587.343167
_symmetry_space_group_name_H-M "I M M M"
_symmetry_group_IT_number 71
_symmetry_cell_setting 'orthorhombic'
loop_
_space_group_symop_operation_xyz
x,y,z
-x,-y,z
x,-y,-z
-x,y,-z
-x,-y,-z
x,y,-z
-x,y,z
x,-y,z
1/2+x,1/2+y,1/2+z
1/2-x,1/2-y,1/2+z
1/2+x,1/2-y,1/2-z
1/2-x,1/2+y,1/2-z
1/2-x,1/2-y,1/2-z
1/2+x,1/2+y,1/2-z
1/2-x,1/2+y,1/2+z
1/2+x,1/2-y,1/2+z
loop_
_atom_site_type_symbol
_atom_site_label
_atom_site_fract_x
_atom_site_fract_y
_atom_site_fract_z
Si Si1 0.626265 0.942738 0.697390
Si Si2 0.500000 0.059395 0.801720
Si Si3 0.565575 0.773366 0.500000
Si Si4 0.649044 0.653234 0.193861
Si Si5 0.780828 0.360593 0.800813
Si Si6 0.066678 0.849046 0.000000
Si Si7 0.356008 0.772930 0.811350
O O1 0.638670 0.948260 0.500000
O O2 0.561204 0.916827 0.727512
O O3 0.677672 0.906245 0.774873
O O4 0.629768 0.000000 0.782775
O O5 0.500000 0.000000 0.746558
O O6 0.500000 0.068540 0.000000
O O7 0.500000 0.797296 0.500000
O O8 0.562881 0.712022 0.500000
O O9 0.597429 0.793283 0.329103
O O10 0.711881 0.625461 0.232375
O O11 0.600562 0.632196 0.328536
O O12 0.660880 0.713778 0.220396
O O13 0.627385 0.641640 0.000000
O O14 0.796892 0.307460 0.704871
O O15 0.792404 0.351903 0.000000
O O16 0.000000 0.872615 0.000000
O O17 0.383952 0.779245 0.000000
#
# Coordination Sequence:
#
# PCOD8288567 Si02
#       7
#    16   8   8  16  16   8  16
#     4   9  18  33  52  70  91 125 166 207 249 293
#     4   9  17  31  49  67  91 123 163 211 255 291
#     4   9  18  34  48  64  97 131 167 208 245 284
#     4   9  19  32  49  74 101 129 161 201 240 288
#     4  10  19  32  48  70  99 127 161 204 251 292
#     4   9  18  32  52  74  97 132 163 193 238 285
#     4  10  19  31  48  70  95 129 165 203 246 291
#
# _framework density 19.183218
#
# number of rings (size 3 to 8) (size 9 to 14) (size 15 to 20)
#    0.000    2.636    0.909    0.818    1.273    2.545 
#    1.636    3.636    0.000    0.000    0.000    0.000 
#    0.000    1.455    0.000    7.091    0.000    0.182 
#
# Total GULP energy -545372.343876 kJ/mol
# GULP energy per Si atom -12394.825997 kJ/mol
# Density = 1.913956 g / cm^3
# Si number density = 19.183218 Si / 1000 Ang^3
#
#
#
# Elastic Constant Matrix: (Units=GPa)
#
#
# Indices 1 2 3 4 5 6 
#
# 1 153.3396 33.6655 66.4475 0.0000 0.0000 0.0000
# 2 33.6655 33.7509 12.8832 0.0000 0.0000 0.0000
# 3 66.4475 12.8832 102.6960 0.0000 0.0000 0.0000
# 4 0.0000 0.0000 0.0000 9.4868 0.0000 0.0000
# 5 0.0000 0.0000 0.0000 0.0000 26.2449 0.0000
# 6 0.0000 0.0000 0.0000 0.0000 0.0000 21.4021
#
#
#
# Elastic Compliance Matrix: (Units=1/GPa)
#
#
# Indices 1 2 3 4 5 6 
#
# 1 0.011064 -0.008721 -0.006065 0.000000 0.000000 0.000000
# 2 -0.008721 0.037994 0.000877 0.000000 0.000000 0.000000
# 3 -0.006065 0.000877 0.013552 0.000000 0.000000 0.000000
# 4 0.000000 0.000000 0.000000 0.105410 0.000000 0.000000
# 5 0.000000 0.000000 0.000000 0.000000 0.038103 0.000000
# 6 0.000000 0.000000 0.000000 0.000000 0.000000 0.046724
#
#
# Mechanical properties :
#
#
# Convention : Reuss Voigt Hill
#
# Bulk Modulus (GPa) = 28.74350 57.30878 43.02614
# Shear Modulus (GPa) = 17.10792 23.21277 20.16035
#
# Velocity S-wave (km/s) = 2.98957 3.48236 3.24533
# Velocity P-wave (km/s) = 5.18969 6.79032 6.04323
#
# Compressibility (1/GPa) = 0.03479047
#
# Stress axis : x y z
#
# Youngs Moduli (GPa) = 90.38022 26.32027 73.79167
#
# Poissons Ratio (x) = 0.22955 0.44754
# Poissons Ratio (y) = 0.78824 -0.06469
# Poissons Ratio (z) = 0.54815 -0.02307
#
# Static dielectric constant tensor:
#      x y z
#    x 3.642830 0.000000 0.000000 
#    y 0.000000 3.221400 0.000000 
#    z 0.000000 0.000000 3.547670 
# 
# 
# High freq. dielectric constant tensor:
#      x y z
#    x 1.740020 0.000000 0.000000 
#    y 0.000000 1.688700 0.000000 
#    z 0.000000 0.000000 1.749610 
# 
# From -- ./inp_files/8921.got.cif
#   From: 2010.06.25/outbox.cif.g09.slc.cpg/sg71_5_cif.got.tgz:8921.got - 2010.06.28 04:59:45.
