data_PCOD8288066
_publ_section_title
;
Structure prediction by ZEFSAII (Michael W. Deem and Ramdas Pophale) SiO2 
 PCOD8288066
Probable space group: I M M M
;
_chemical_formula_sum "Si O2"
_cell_formula_units_Z 96
_cell_length_a 14.010600
_cell_length_b 15.590636
_cell_length_c 23.122872
_cell_angle_alpha 90.000000
_cell_angle_beta 90.000000
_cell_angle_gamma 90.000000
_cell_volume 5050.825232
_symmetry_space_group_name_H-M "I M M M"
_symmetry_group_IT_number 71
_symmetry_cell_setting 'orthorhombic'
loop_
_space_group_symop_operation_xyz
x,y,z
-x,-y,z
x,-y,-z
-x,y,-z
-x,-y,-z
x,y,-z
-x,y,z
x,-y,z
1/2+x,1/2+y,1/2+z
1/2-x,1/2-y,1/2+z
1/2+x,1/2-y,1/2-z
1/2-x,1/2+y,1/2-z
1/2-x,1/2-y,1/2-z
1/2+x,1/2+y,1/2-z
1/2-x,1/2+y,1/2+z
1/2+x,1/2-y,1/2+z
loop_
_atom_site_type_symbol
_atom_site_label
_atom_site_fract_x
_atom_site_fract_y
_atom_site_fract_z
Si Si1 0.702059 0.406173 0.147533
Si Si2 0.296828 0.250445 0.063905
Si Si3 0.000000 0.332612 0.688522
Si Si4 0.204693 0.655273 0.742713
Si Si5 0.800215 0.902656 0.870513
Si Si6 0.000000 0.141023 0.694577
Si Si7 0.500000 0.823676 0.063298
Si Si8 0.000000 0.099126 0.175815
O O1 0.717373 0.500000 0.119188
O O2 0.727040 0.333031 0.101807
O O3 0.779072 0.395630 0.198452
O O4 0.595019 0.405509 0.172857
O O5 0.249039 0.163402 0.086538
O O6 0.409510 0.238318 0.063747
O O7 0.256819 0.268033 0.000000
O O8 0.092644 0.348625 0.727529
O O9 0.000000 0.234982 0.667458
O O10 0.000000 0.380244 0.624129
O O11 0.250000 0.750000 0.750000
O O12 0.257182 0.603461 0.693033
O O13 0.910988 0.877930 0.864796
O O14 0.786454 0.000000 0.893848
O O15 0.000000 0.151468 0.764261
O O16 0.500000 0.874724 0.000000
O O17 0.000000 0.000000 0.194657
#
# Coordination Sequence:
#
# PCOD8288066 Si02
#       8
#    16  16   8  16  16   8   8   8
#     4  12  23  37  58  88 123 157 197 245 299 354
#     4  11  23  41  60  81 114 158 206 249 294 351
#     4  12  20  34  59  87 119 159 195 240 295 347
#     4  12  20  36  58  87 123 156 190 234 297 356
#     4  11  21  37  60  89 120 153 192 242 302 361
#     4  12  18  31  56  92 120 149 191 236 297 365
#     4  10  18  35  58  81 116 158 195 238 287 345
#     4  10  20  32  55  90 122 147 178 230 301 369
#
# _framework density 19.006796000000001
#
# number of rings (size 3 to 8) (size 9 to 14) (size 15 to 20)
#    0.000    0.667    8.333    1.250    0.000    0.667 
#    0.000    3.333    0.000    5.500    0.000    0.000 
#    0.000    2.667    0.000    0.000    0.000    0.000 
#
# Total GULP energy -594924.002263 kJ/mol
# GULP energy per Si atom -12394.250047 kJ/mol
# Density = 1.896354 g / cm^3
# Si number density = 19.006796 Si / 1000 Ang^3
#
#
#
# Elastic Constant Matrix: (Units=GPa)
#
#
# Indices 1 2 3 4 5 6 
#
# 1 122.2257 46.2624 55.5664 0.0000 0.0000 0.0000
# 2 46.2624 105.8387 47.4772 0.0000 0.0000 0.0000
# 3 55.5664 47.4772 140.7351 0.0000 0.0000 0.0000
# 4 0.0000 0.0000 0.0000 7.2347 0.0000 0.0000
# 5 0.0000 0.0000 0.0000 0.0000 19.6469 0.0000
# 6 0.0000 0.0000 0.0000 0.0000 0.0000 23.3746
#
#
#
# Elastic Compliance Matrix: (Units=1/GPa)
#
#
# Indices 1 2 3 4 5 6 
#
# 1 0.010887 -0.003335 -0.003173 0.000000 0.000000 0.000000
# 2 -0.003335 0.012155 -0.002784 0.000000 0.000000 0.000000
# 3 -0.003173 -0.002784 0.009298 0.000000 0.000000 0.000000
# 4 0.000000 0.000000 0.000000 0.138223 0.000000 0.000000
# 5 0.000000 0.000000 0.000000 0.000000 0.050899 0.000000
# 6 0.000000 0.000000 0.000000 0.000000 0.000000 0.042782
#
#
# Mechanical properties :
#
#
# Convention : Reuss Voigt Hill
#
# Bulk Modulus (GPa) = 72.70131 74.15682 73.42906
# Shear Modulus (GPa) = 17.39669 24.68414 21.04041
#
# Velocity S-wave (km/s) = 3.02865 3.60766 3.33076
# Velocity P-wave (km/s) = 7.11080 7.51360 7.31498
#
# Compressibility (1/GPa) = 0.01375491
#
# Stress axis : x y z
#
# Youngs Moduli (GPa) = 91.85661 82.27199 107.55577
#
# Poissons Ratio (x) = 0.27438 0.34130
# Poissons Ratio (y) = 0.30635 0.29940
# Poissons Ratio (z) = 0.29148 0.22902
#
# Static dielectric constant tensor:
#      x y z
#    x 3.867830 0.000000 0.000000 
#    y 0.000000 3.364740 0.000000 
#    z 0.000000 0.000000 3.636710 
# 
# 
# High freq. dielectric constant tensor:
#      x y z
#    x 1.739880 0.000000 0.000000 
#    y 0.000000 1.724050 0.000000 
#    z 0.000000 0.000000 1.731140 
# 
# From -- ./inp_files/34576.got.cif
#   From: 2010.06.25/outbox.cif.g09.slc.cpg/sg71_18_cif.got.tgz:34576.got - 2010.06.28 04:59:45.
