data_PCOD8288311
_publ_section_title
;
Structure prediction by ZEFSAII (Michael W. Deem and Ramdas Pophale) SiO2 
 PCOD8288311
Probable space group: I M M M
;
_chemical_formula_sum "Si O2"
_cell_formula_units_Z 80
_cell_length_a 15.006420
_cell_length_b 33.267566
_cell_length_c 8.952074
_cell_angle_alpha 90.000000
_cell_angle_beta 90.000000
_cell_angle_gamma 90.000000
_cell_volume 4469.117654
_symmetry_space_group_name_H-M "I M M M"
_symmetry_group_IT_number 71
_symmetry_cell_setting 'orthorhombic'
loop_
_space_group_symop_operation_xyz
x,y,z
-x,-y,z
x,-y,-z
-x,y,-z
-x,-y,-z
x,y,-z
-x,y,z
x,-y,z
1/2+x,1/2+y,1/2+z
1/2-x,1/2-y,1/2+z
1/2+x,1/2-y,1/2-z
1/2-x,1/2+y,1/2-z
1/2-x,1/2-y,1/2-z
1/2+x,1/2+y,1/2-z
1/2-x,1/2+y,1/2+z
1/2+x,1/2-y,1/2+z
loop_
_atom_site_type_symbol
_atom_site_label
_atom_site_fract_x
_atom_site_fract_y
_atom_site_fract_z
Si Si1 0.399937 0.544883 0.677780
Si Si2 0.098381 0.652001 0.677562
Si Si3 0.097610 0.185931 0.831404
Si Si4 0.343059 0.760318 0.823450
Si Si5 0.722261 0.615458 0.677926
O O1 0.398197 0.546195 0.500000
O O2 0.500000 0.556517 0.732445
O O3 0.375744 0.500000 0.733985
O O4 0.325370 0.575485 0.743827
O O5 0.096977 0.652295 0.500000
O O6 0.121417 0.696732 0.734839
O O7 0.174818 0.620441 0.732747
O O8 0.000000 0.639317 0.738412
O O9 0.090430 0.225479 0.729363
O O10 0.168096 0.154317 0.764680
O O11 0.000000 0.165490 0.831679
O O12 0.125928 0.198082 0.000000
O O13 0.250000 0.750000 0.750000
O O14 0.334204 0.760627 0.000000
O O15 0.717444 0.614026 0.500000
#
# Coordination Sequence:
#
# PCOD8288311 Si02
#       5
#    16  16  16  16  16
#     4   8  13  21  35  57  84 113 142 173 216 269
#     4   9  17  28  42  58  78 110 150 183 215 263
#     4  10  19  30  45  66  90 118 152 188 228 271
#     4  11  20  32  47  63  87 118 155 193 232 269
#     4   9  15  25  40  59  84 112 144 183 223 263
#
# _framework density 17.900625000000002
#
# number of rings (size 3 to 8) (size 9 to 14) (size 15 to 20)
#    0.000    2.600    2.000    2.400    0.000    3.600 
#    0.000    0.000    0.000    0.600    0.000    4.200 
#    0.000    0.800    0.000    4.200    0.000    6.000 
#
# Total GULP energy -495615.037926 kJ/mol
# GULP energy per Si atom -12390.375948 kJ/mol
# Density = 1.785988 g / cm^3
# Si number density = 17.900625 Si / 1000 Ang^3
#
#
#
# Elastic Constant Matrix: (Units=GPa)
#
#
# Indices 1 2 3 4 5 6 
#
# 1 166.1932 80.0122 9.1072 0.0018 -0.0005 -0.0005
# 2 80.0122 122.6072 9.3224 0.0012 0.0005 -0.0001
# 3 9.1072 9.3224 19.5907 0.0214 0.0022 -0.0005
# 4 0.0018 0.0012 0.0214 12.4170 -0.0004 -0.0001
# 5 -0.0005 0.0005 0.0022 -0.0004 11.7784 0.0004
# 6 -0.0005 -0.0001 -0.0005 -0.0001 0.0004 33.6674
#
#
#
# Elastic Compliance Matrix: (Units=1/GPa)
#
#
# Indices 1 2 3 4 5 6 
#
# 1 0.008811 -0.005643 -0.001411 0.000002 0.000001 0.000000
# 2 -0.005643 0.012076 -0.003123 0.000005 0.000000 0.000000
# 3 -0.001411 -0.003123 0.053187 -0.000091 -0.000010 0.000001
# 4 0.000002 0.000005 -0.000091 0.080535 0.000003 0.000000
# 5 0.000001 0.000000 -0.000010 0.000003 0.084901 -0.000001
# 6 0.000000 0.000000 0.000001 0.000000 -0.000001 0.029702
#
#
# Mechanical properties :
#
#
# Convention : Reuss Voigt Hill
#
# Bulk Modulus (GPa) = 18.61499 56.14163 37.37831
# Shear Modulus (GPa) = 16.26159 25.56917 20.91538
#
# Velocity S-wave (km/s) = 3.01730 3.78351 3.42192
# Velocity P-wave (km/s) = 4.74978 7.10758 6.04475
#
# Compressibility (1/GPa) = 0.05372015
#
# Stress axis : x y z
#
# Youngs Moduli (GPa) = 113.49395 82.80898 18.80160
#
# Poissons Ratio (x) = 0.46727 0.02653
# Poissons Ratio (y) = 0.64041 0.05872
# Poissons Ratio (z) = 0.16013 0.25864
#
# Static dielectric constant tensor:
#      x y z
#    x 3.749650 0.000030 0.000030 
#    y 0.000030 3.557750 -0.000070 
#    z 0.000030 -0.000070 2.815260 
# 
# 
# High freq. dielectric constant tensor:
#      x y z
#    x 1.706780 0.000000 0.000000 
#    y 0.000000 1.674940 0.000000 
#    z 0.000000 0.000000 1.624620 
# 
# From -- ./inp_files/22421.got.cif
#   From: 2010.06.25/outbox.cif.g09.slc.cpg/sg71_12_cif.got.tgz:22421.got - 2010.06.28 04:59:45.
