data_PCOD8289793
_publ_section_title
;
Structure prediction by ZEFSAII (Michael W. Deem and Ramdas Pophale) SiO2 
 PCOD8289793
Probable space group: I M M M
;
_chemical_formula_sum "Si O2"
_cell_formula_units_Z 96
_cell_length_a 15.037496
_cell_length_b 13.409371
_cell_length_c 27.163628
_cell_angle_alpha 90.000000
_cell_angle_beta 90.000000
_cell_angle_gamma 90.000000
_cell_volume 5477.365295
_symmetry_space_group_name_H-M "I M M M"
_symmetry_group_IT_number 71
_symmetry_cell_setting 'orthorhombic'
loop_
_space_group_symop_operation_xyz
x,y,z
-x,-y,z
x,-y,-z
-x,y,-z
-x,-y,-z
x,y,-z
-x,y,z
x,-y,z
1/2+x,1/2+y,1/2+z
1/2-x,1/2-y,1/2+z
1/2+x,1/2-y,1/2-z
1/2-x,1/2+y,1/2-z
1/2-x,1/2-y,1/2-z
1/2+x,1/2+y,1/2-z
1/2-x,1/2+y,1/2+z
1/2+x,1/2-y,1/2+z
loop_
_atom_site_type_symbol
_atom_site_label
_atom_site_fract_x
_atom_site_fract_y
_atom_site_fract_z
Si Si1 0.098838 0.889114 0.058434
Si Si2 0.102033 0.385770 0.407131
Si Si3 0.601936 0.233468 0.189761
Si Si4 0.235765 0.115448 0.353417
Si Si5 0.600917 0.886158 0.713559
Si Si6 0.746482 0.251506 0.944133
O O1 0.170399 0.810412 0.078400
O O2 0.000000 0.855558 0.075132
O O3 0.119317 0.000000 0.079331
O O4 0.105138 0.892587 0.000000
O O5 0.132277 0.500000 0.411533
O O6 0.117981 0.350737 0.351305
O O7 0.160317 0.319528 0.444067
O O8 0.000000 0.372433 0.423017
O O9 0.500000 0.269896 0.189298
O O10 0.663529 0.328809 0.180216
O O11 0.627889 0.185685 0.241787
O O12 0.334071 0.134892 0.332041
O O13 0.232578 0.152792 0.409723
O O14 0.209993 0.000000 0.353324
O O15 0.500000 0.865107 0.695953
O O16 0.610554 0.000000 0.731935
O O17 0.763335 0.288050 0.000000
#
# Coordination Sequence:
#
# PCOD8289793 Si02
#       6
#    16  16  16  16  16  16
#     4   8  14  26  45  67  88 112 147 192 241 290
#     4   9  17  29  47  73 101 123 147 187 240 296
#     4   9  17  31  52  75  98 124 152 185 233 292
#     4  10  21  34  48  69  96 128 167 205 235 267
#     4   9  17  31  53  78 100 120 145 184 238 297
#     4  10  20  32  46  65  92 129 170 206 238 273
#
# _framework density 17.526675000000001
#
# number of rings (size 3 to 8) (size 9 to 14) (size 15 to 20)
#    0.000    2.833    0.000    2.000    0.000    4.667 
#    0.000    0.833    0.000    1.000    0.000    9.333 
#    0.000    0.000    0.000    0.000    0.000    0.000 
#
# Total GULP energy -595147.740060 kJ/mol
# GULP energy per Si atom -12398.911251 kJ/mol
# Density = 1.748678 g / cm^3
# Si number density = 17.526675 Si / 1000 Ang^3
#
#
#
# Elastic Constant Matrix: (Units=GPa)
#
#
# Indices 1 2 3 4 5 6 
#
# 1 90.5640 53.3339 35.0831 0.0000 0.0000 0.0000
# 2 53.3339 105.2067 45.9416 0.0000 0.0000 0.0000
# 3 35.0831 45.9416 71.3742 0.0000 0.0000 0.0000
# 4 0.0000 0.0000 0.0000 18.3062 0.0000 0.0000
# 5 0.0000 0.0000 0.0000 0.0000 22.4770 0.0000
# 6 0.0000 0.0000 0.0000 0.0000 0.0000 28.2213
#
#
#
# Elastic Compliance Matrix: (Units=1/GPa)
#
#
# Indices 1 2 3 4 5 6 
#
# 1 0.016443 -0.006685 -0.003779 0.000000 0.000000 0.000000
# 2 -0.006685 0.015939 -0.006974 0.000000 0.000000 0.000000
# 3 -0.003779 -0.006974 0.020357 0.000000 0.000000 0.000000
# 4 0.000000 0.000000 0.000000 0.054626 0.000000 0.000000
# 5 0.000000 0.000000 0.000000 0.000000 0.044490 0.000000
# 6 0.000000 0.000000 0.000000 0.000000 0.000000 0.035434
#
#
# Mechanical properties :
#
#
# Convention : Reuss Voigt Hill
#
# Bulk Modulus (GPa) = 55.98149 59.54024 57.76086
# Shear Modulus (GPa) = 21.91821 22.65331 22.28576
#
# Velocity S-wave (km/s) = 3.54017 3.59904 3.56973
# Velocity P-wave (km/s) = 6.98000 7.16350 7.07235
#
# Compressibility (1/GPa) = 0.01786305
#
# Stress axis : x y z
#
# Youngs Moduli (GPa) = 60.81628 62.73731 49.12313
#
# Poissons Ratio (x) = 0.41942 0.18564
# Poissons Ratio (y) = 0.40658 0.34257
# Poissons Ratio (z) = 0.22983 0.43751
#
# Static dielectric constant tensor:
#      x y z
#    x 3.471960 0.000000 0.000000 
#    y 0.000000 3.153720 0.000000 
#    z 0.000000 0.000000 2.972290 
# 
# 
# High freq. dielectric constant tensor:
#      x y z
#    x 1.688140 0.000000 0.000000 
#    y 0.000000 1.664870 0.000000 
#    z 0.000000 0.000000 1.655540 
# 
# From -- ./inp_files/27413.got.cif
#   From: 2010.06.25/outbox.cif.g09.slc.cpg/sg71_14_cif.got.tgz:27413.got - 2010.06.28 04:59:45.
