data_PCOD8289341
_publ_section_title
;
Structure prediction by ZEFSAII (Michael W. Deem and Ramdas Pophale) SiO2 
 PCOD8289341
Probable space group: I M M M
;
_chemical_formula_sum "Si O2"
_cell_formula_units_Z 88
_cell_length_a 17.768279
_cell_length_b 28.315708
_cell_length_c 8.857986
_cell_angle_alpha 90.000000
_cell_angle_beta 90.000000
_cell_angle_gamma 90.000000
_cell_volume 4456.642316
_symmetry_space_group_name_H-M "I M M M"
_symmetry_group_IT_number 71
_symmetry_cell_setting 'orthorhombic'
loop_
_space_group_symop_operation_xyz
x,y,z
-x,-y,z
x,-y,-z
-x,y,-z
-x,-y,-z
x,y,-z
-x,y,z
x,-y,z
1/2+x,1/2+y,1/2+z
1/2-x,1/2-y,1/2+z
1/2+x,1/2-y,1/2-z
1/2-x,1/2+y,1/2-z
1/2-x,1/2-y,1/2-z
1/2+x,1/2+y,1/2-z
1/2-x,1/2+y,1/2+z
1/2+x,1/2-y,1/2+z
loop_
_atom_site_type_symbol
_atom_site_label
_atom_site_fract_x
_atom_site_fract_y
_atom_site_fract_z
Si Si1 0.672045 0.193628 0.173192
Si Si2 0.171989 0.201243 0.672711
Si Si3 0.500000 0.944501 0.167943
Si Si4 0.139519 0.601868 0.177526
Si Si5 0.085911 0.108423 0.675034
Si Si6 0.717497 0.445299 0.677002
O O1 0.759880 0.191520 0.214552
O O2 0.639123 0.246167 0.202308
O O3 0.626194 0.156215 0.273867
O O4 0.663329 0.178526 0.000000
O O5 0.201828 0.197709 0.500000
O O6 0.107237 0.163140 0.704330
O O7 0.574291 0.929901 0.255473
O O8 0.500000 0.000000 0.156059
O O9 0.500000 0.922199 0.000000
O O10 0.220207 0.584551 0.235249
O O11 0.137145 0.597458 0.000000
O O12 0.097415 0.095449 0.500000
O O13 0.135706 0.073217 0.774660
O O14 0.000000 0.101435 0.725512
O O15 0.729109 0.437680 0.500000
O O16 0.724744 0.500000 0.721460
#
# Coordination Sequence:
#
# PCOD8289341 Si02
#       6
#    16  16   8  16  16  16
#     4  10  19  33  58  89 120 156 198 244 295 352
#     4   9  18  34  56  86 119 156 199 245 297 354
#     4  11  25  45  67  91 121 157 199 249 306 365
#     4  12  24  40  63  91 124 158 198 246 299 362
#     4  10  21  38  60  87 121 159 202 251 301 357
#     4  11  24  41  62  88 117 153 201 252 303 362
#
# _framework density 19.745806999999999
#
# number of rings (size 3 to 8) (size 9 to 14) (size 15 to 20)
#    0.000    1.545    1.818    3.545    0.000    5.818 
#    1.636    1.818    0.000    0.000    0.000    0.000 
#    0.000    0.000    0.000    0.000    0.000    0.000 
#
# Total GULP energy -545748.200425 kJ/mol
# GULP energy per Si atom -12403.368191 kJ/mol
# Density = 1.970087 g / cm^3
# Si number density = 19.745807 Si / 1000 Ang^3
#
#
#
# Elastic Constant Matrix: (Units=GPa)
#
#
# Indices 1 2 3 4 5 6 
#
# 1 77.4360 19.8803 34.8932 -0.0002 -0.0001 0.0016
# 2 19.8803 99.3175 48.1702 -0.0001 -0.0003 0.0019
# 3 34.8932 48.1702 116.4611 -0.0033 -0.0019 0.0041
# 4 -0.0002 -0.0001 -0.0033 31.6026 -0.0004 0.0000
# 5 -0.0001 -0.0003 -0.0019 -0.0004 30.0709 -0.0009
# 6 0.0016 0.0019 0.0041 0.0000 -0.0009 156.5909
#
#
#
# Elastic Compliance Matrix: (Units=1/GPa)
#
#
# Indices 1 2 3 4 5 6 
#
# 1 0.015013 -0.001030 -0.004072 0.000000 0.000000 0.000000
# 2 -0.001030 0.012666 -0.004930 0.000000 0.000000 0.000000
# 3 -0.004072 -0.004930 0.011846 0.000001 0.000001 0.000000
# 4 0.000000 0.000000 0.000001 0.031643 0.000000 0.000000
# 5 0.000000 0.000000 0.000001 0.000000 0.033255 0.000000
# 6 0.000000 0.000000 0.000000 0.000000 0.000000 0.006386
#
#
# Mechanical properties :
#
#
# Convention : Reuss Voigt Hill
#
# Bulk Modulus (GPa) = 51.38687 55.45578 53.42133
# Shear Modulus (GPa) = 36.40048 56.33762 46.36905
#
# Velocity S-wave (km/s) = 4.29820 5.34728 4.85118
# Velocity P-wave (km/s) = 7.12134 8.14066 7.64800
#
# Compressibility (1/GPa) = 0.01946022
#
# Stress axis : x y z
#
# Youngs Moduli (GPa) = 66.60777 78.95047 84.41787
#
# Poissons Ratio (x) = 0.08133 0.34375
# Poissons Ratio (y) = 0.06862 0.41620
# Poissons Ratio (z) = 0.27123 0.38925
#
# Static dielectric constant tensor:
#      x y z
#    x 3.394470 0.000000 0.000000 
#    y 0.000000 3.893060 0.000000 
#    z 0.000000 0.000000 3.680070 
# 
# 
# High freq. dielectric constant tensor:
#      x y z
#    x 1.749100 0.000000 0.000000 
#    y 0.000000 1.787460 0.000000 
#    z 0.000000 0.000000 1.775520 
# 
# From -- ./inp_files/8870.got.cif
#   From: 2010.06.25/outbox.cif.g09.slc.cpg/sg71_5_cif.got.tgz:8870.got - 2010.06.28 04:59:45.
