data_PCOD8289445
_publ_section_title
;
Structure prediction by ZEFSAII (Michael W. Deem and Ramdas Pophale) SiO2 
 PCOD8289445
Probable space group: I M M M
;
_chemical_formula_sum "Si O2"
_cell_formula_units_Z 88
_cell_length_a 9.004564
_cell_length_b 17.863418
_cell_length_c 29.053827
_cell_angle_alpha 90.000000
_cell_angle_beta 90.000000
_cell_angle_gamma 90.000000
_cell_volume 4673.374625
_symmetry_space_group_name_H-M "I M M M"
_symmetry_group_IT_number 71
_symmetry_cell_setting 'orthorhombic'
loop_
_space_group_symop_operation_xyz
x,y,z
-x,-y,z
x,-y,-z
-x,y,-z
-x,-y,-z
x,y,-z
-x,y,z
x,-y,z
1/2+x,1/2+y,1/2+z
1/2-x,1/2-y,1/2+z
1/2+x,1/2-y,1/2-z
1/2-x,1/2+y,1/2-z
1/2-x,1/2-y,1/2-z
1/2+x,1/2+y,1/2-z
1/2-x,1/2+y,1/2+z
1/2+x,1/2-y,1/2+z
loop_
_atom_site_type_symbol
_atom_site_label
_atom_site_fract_x
_atom_site_fract_y
_atom_site_fract_z
Si Si1 0.824332 0.799987 0.053466
Si Si2 0.171133 0.326489 0.798707
Si Si3 0.171498 0.586960 0.620948
Si Si4 0.676525 0.852195 0.400341
Si Si5 0.328672 0.348914 0.708337
Si Si6 0.322748 0.000000 0.551649
O O1 0.749617 0.868418 0.079925
O O2 0.762662 0.722078 0.074429
O O3 0.000000 0.806309 0.060648
O O4 0.780365 0.803956 0.000000
O O5 0.227765 0.357367 0.847470
O O6 0.265505 0.367024 0.759021
O O7 0.196944 0.238067 0.801315
O O8 0.000000 0.345634 0.789370
O O9 0.191822 0.500000 0.609532
O O10 0.243266 0.603613 0.670317
O O11 0.000000 0.610239 0.623228
O O12 0.500000 0.850327 0.403511
O O13 0.742173 0.925748 0.424556
O O14 0.500000 0.371775 0.706513
O O15 0.500000 0.000000 0.554043
O O16 0.264268 0.000000 0.500000
#
# Coordination Sequence:
#
# PCOD8289445 Si02
#       6
#    16  16  16  16  16   8
#     4  10  20  36  59  84 110 143 186 233 279 332
#     4   9  17  31  53  80 112 145 179 222 271 322
#     4  11  24  40  57  79 110 146 186 235 287 338
#     4   9  16  30  50  78 114 148 182 223 269 321
#     4  10  19  34  56  81 108 141 183 227 272 327
#     4   9  16  26  46  78 113 147 181 221 270 317
#
# _framework density 18.830076999999999
#
# number of rings (size 3 to 8) (size 9 to 14) (size 15 to 20)
#    0.000    2.273    1.818    1.636    0.000    5.091 
#    1.636    1.818    0.000    0.000    0.000    1.909 
#    0.000    4.364    0.000    0.000    0.000    0.000 
#
# Total GULP energy -545638.275936 kJ/mol
# GULP energy per Si atom -12400.869908 kJ/mol
# Density = 1.878722 g / cm^3
# Si number density = 18.830077 Si / 1000 Ang^3
#
#
#
# Elastic Constant Matrix: (Units=GPa)
#
#
# Indices 1 2 3 4 5 6 
#
# 1 55.8544 40.1062 47.5514 0.0000 0.0000 0.0000
# 2 40.1062 104.1823 82.0443 0.0000 0.0000 0.0000
# 3 47.5514 82.0443 170.7901 0.0000 0.0000 0.0000
# 4 0.0000 0.0000 0.0000 29.6656 0.0000 0.0000
# 5 0.0000 0.0000 0.0000 0.0000 30.0461 0.0000
# 6 0.0000 0.0000 0.0000 0.0000 0.0000 17.5224
#
#
#
# Elastic Compliance Matrix: (Units=1/GPa)
#
#
# Indices 1 2 3 4 5 6 
#
# 1 0.026306 -0.007012 -0.003956 0.000000 0.000000 0.000000
# 2 -0.007012 0.017308 -0.006362 0.000000 0.000000 0.000000
# 3 -0.003956 -0.006362 0.010013 0.000000 0.000000 0.000000
# 4 0.000000 0.000000 0.000000 0.033709 0.000000 0.000000
# 5 0.000000 0.000000 0.000000 0.000000 0.033282 0.000000
# 6 0.000000 0.000000 0.000000 0.000000 0.000000 0.057070
#
#
# Mechanical properties :
#
#
# Convention : Reuss Voigt Hill
#
# Bulk Modulus (GPa) = 52.72160 74.47007 63.59583
# Shear Modulus (GPa) = 22.86546 26.18849 24.52698
#
# Velocity S-wave (km/s) = 3.48847 3.73336 3.61299
# Velocity P-wave (km/s) = 6.65472 7.63009 7.15904
#
# Compressibility (1/GPa) = 0.01896756
#
# Stress axis : x y z
#
# Youngs Moduli (GPa) = 38.01379 57.77636 99.87118
#
# Poissons Ratio (x) = 0.40510 0.39509
# Poissons Ratio (y) = 0.26654 0.63541
# Poissons Ratio (z) = 0.15038 0.36759
#
# Static dielectric constant tensor:
#      x y z
#    x 3.198840 0.000000 0.000000 
#    y 0.000000 3.425230 0.000000 
#    z 0.000000 0.000000 3.656850 
# 
# 
# High freq. dielectric constant tensor:
#      x y z
#    x 1.699890 0.000000 0.000000 
#    y 0.000000 1.723860 0.000000 
#    z 0.000000 0.000000 1.749400 
# 
# From -- ./inp_files/16662.got.cif
#   From: 2010.06.25/outbox.cif.g09.slc.cpg/sg71_9_cif.got.tgz:16662.got - 2010.06.28 04:59:45.
