data_PCOD8289409
_publ_section_title
;
Structure prediction by ZEFSAII (Michael W. Deem and Ramdas Pophale) SiO2 
 PCOD8289409
Probable space group: I M M M
;
_chemical_formula_sum "Si O2"
_cell_formula_units_Z 96
_cell_length_a 25.249003
_cell_length_b 23.484186
_cell_length_c 8.917177
_cell_angle_alpha 90.000000
_cell_angle_beta 90.000000
_cell_angle_gamma 90.000000
_cell_volume 5287.460458
_symmetry_space_group_name_H-M "I M M M"
_symmetry_group_IT_number 71
_symmetry_cell_setting 'orthorhombic'
loop_
_space_group_symop_operation_xyz
x,y,z
-x,-y,z
x,-y,-z
-x,y,-z
-x,-y,-z
x,y,-z
-x,y,z
x,-y,z
1/2+x,1/2+y,1/2+z
1/2-x,1/2-y,1/2+z
1/2+x,1/2-y,1/2-z
1/2-x,1/2+y,1/2-z
1/2-x,1/2-y,1/2-z
1/2+x,1/2+y,1/2-z
1/2-x,1/2+y,1/2+z
1/2+x,1/2-y,1/2+z
loop_
_atom_site_type_symbol
_atom_site_label
_atom_site_fract_x
_atom_site_fract_y
_atom_site_fract_z
Si Si1 0.252339 0.189329 0.824740
Si Si2 0.849878 0.612036 0.324170
Si Si3 0.314605 0.500000 0.177862
Si Si4 0.693077 0.000000 0.322396
Si Si5 0.346353 0.614706 0.678280
Si Si6 0.938361 0.320537 0.827786
Si Si7 0.941558 0.192689 0.178173
O O1 0.250000 0.250000 0.750000
O O2 0.306730 0.159186 0.778867
O O3 0.204210 0.150496 0.767025
O O4 0.247207 0.198884 0.000000
O O5 0.849253 0.599163 0.500000
O O6 0.837528 0.554446 0.237969
O O7 0.906913 0.635010 0.274596
O O8 0.253826 0.500000 0.235195
O O9 0.345484 0.445835 0.241703
O O10 0.317572 0.500000 0.000000
O O11 0.691060 0.000000 0.500000
O O12 0.346527 0.605938 0.500000
O O13 0.398623 0.647589 0.736592
O O14 0.926987 0.256500 0.767921
O O15 0.000000 0.335222 0.811901
O O16 0.919896 0.326791 0.000000
O O17 0.000000 0.175331 0.238596
O O18 0.942474 0.193788 0.000000
#
# Coordination Sequence:
#
# PCOD8289409 Si02
#       7
#    16  16   8   8  16  16  16
#     4  10  21  33  50  78 109 141 175 216 271 326
#     4  11  22  36  55  81 112 142 178 226 274 324
#     4  11  23  37  54  77 104 140 184 227 271 322
#     4  11  23  39  58  77 102 145 188 226 271 324
#     4  10  19  34  55  77 106 142 180 222 267 318
#     4   9  18  35  59  84 112 146 182 220 264 321
#     4   8  15  30  55  84 109 139 182 226 265 309
#
# _framework density 18.156164
#
# number of rings (size 3 to 8) (size 9 to 14) (size 15 to 20)
#    0.000    2.167    1.667    3.000    0.000    4.333 
#    0.000    1.667    0.000    6.500    0.000    0.000 
#    0.000    0.000    0.000    0.000    0.000    0.000 
#
# Total GULP energy -595295.554493 kJ/mol
# GULP energy per Si atom -12401.990719 kJ/mol
# Density = 1.811484 g / cm^3
# Si number density = 18.156164 Si / 1000 Ang^3
#
#
#
# Elastic Constant Matrix: (Units=GPa)
#
#
# Indices 1 2 3 4 5 6 
#
# 1 101.9245 53.2551 34.3872 0.0000 0.0000 0.0000
# 2 53.2551 128.6345 44.8063 0.0000 0.0000 0.0000
# 3 34.3872 44.8063 45.5361 0.0000 0.0000 0.0000
# 4 0.0000 0.0000 0.0000 32.9615 0.0000 0.0000
# 5 0.0000 0.0000 0.0000 0.0000 22.5938 0.0000
# 6 0.0000 0.0000 0.0000 0.0000 0.0000 13.7279
#
#
#
# Elastic Compliance Matrix: (Units=1/GPa)
#
#
# Indices 1 2 3 4 5 6 
#
# 1 0.013987 -0.003213 -0.007401 0.000000 0.000000 0.000000
# 2 -0.003213 0.012566 -0.009938 0.000000 0.000000 0.000000
# 3 -0.007401 -0.009938 0.037329 0.000000 0.000000 0.000000
# 4 0.000000 0.000000 0.000000 0.030338 0.000000 0.000000
# 5 0.000000 0.000000 0.000000 0.000000 0.044260 0.000000
# 6 0.000000 0.000000 0.000000 0.000000 0.000000 0.072844
#
#
# Mechanical properties :
#
#
# Convention : Reuss Voigt Hill
#
# Bulk Modulus (GPa) = 43.90387 60.11026 52.00706
# Shear Modulus (GPa) = 19.22927 23.43308 21.33118
#
# Velocity S-wave (km/s) = 3.25792 3.59645 3.43136
# Velocity P-wave (km/s) = 6.19563 7.10107 6.66374
#
# Compressibility (1/GPa) = 0.02277704
#
# Stress axis : x y z
#
# Youngs Moduli (GPa) = 71.49630 79.58162 26.78903
#
# Poissons Ratio (x) = 0.25566 0.19827
# Poissons Ratio (y) = 0.22969 0.26624
# Poissons Ratio (z) = 0.52916 0.79091
#
# Static dielectric constant tensor:
#      x y z
#    x 3.632970 0.000000 0.000000 
#    y 0.000000 3.333280 0.000000 
#    z 0.000000 0.000000 3.120930 
# 
# 
# High freq. dielectric constant tensor:
#      x y z
#    x 1.707270 0.000000 0.000000 
#    y 0.000000 1.706990 0.000000 
#    z 0.000000 0.000000 1.684330 
# 
# From -- ./inp_files/12901.got.cif
#   From: 2010.06.25/outbox.cif.g09.slc.cpg/sg71_7_cif.got.tgz:12901.got - 2010.06.28 04:59:45.
