data_PCOD8289033
_publ_section_title
;
Structure prediction by ZEFSAII (Michael W. Deem and Ramdas Pophale) SiO2 
 PCOD8289033
Probable space group: I M M M
;
_chemical_formula_sum "Si O2"
_cell_formula_units_Z 104
_cell_length_a 9.446385
_cell_length_b 24.152798
_cell_length_c 25.194018
_cell_angle_alpha 90.000000
_cell_angle_beta 90.000000
_cell_angle_gamma 90.000000
_cell_volume 5748.182211
_symmetry_space_group_name_H-M "I M M M"
_symmetry_group_IT_number 71
_symmetry_cell_setting 'orthorhombic'
loop_
_space_group_symop_operation_xyz
x,y,z
-x,-y,z
x,-y,-z
-x,y,-z
-x,-y,-z
x,y,-z
-x,y,z
x,-y,z
1/2+x,1/2+y,1/2+z
1/2-x,1/2-y,1/2+z
1/2+x,1/2-y,1/2-z
1/2-x,1/2+y,1/2-z
1/2-x,1/2-y,1/2-z
1/2+x,1/2+y,1/2-z
1/2-x,1/2+y,1/2+z
1/2+x,1/2-y,1/2+z
loop_
_atom_site_type_symbol
_atom_site_label
_atom_site_fract_x
_atom_site_fract_y
_atom_site_fract_z
Si Si1 0.835436 0.564067 0.760995
Si Si2 0.835623 0.104671 0.561355
Si Si3 0.842754 0.500000 0.937365
Si Si4 0.342892 0.264721 0.700844
Si Si5 0.658673 0.149424 0.353498
Si Si6 0.831955 0.115955 0.834488
Si Si7 0.331984 0.562382 0.558123
O O1 0.807181 0.500000 0.778120
O O2 0.790264 0.606744 0.807677
O O3 0.743599 0.577843 0.709240
O O4 0.000000 0.573253 0.747122
O O5 0.809474 0.119128 0.500000
O O6 0.746293 0.052228 0.581407
O O7 0.770735 0.152138 0.598084
O O8 0.000000 0.094081 0.572572
O O9 0.000000 0.500000 0.911197
O O10 0.857051 0.500000 0.000000
O O11 0.500000 0.276331 0.722286
O O12 0.250000 0.250000 0.750000
O O13 0.341064 0.213067 0.662138
O O14 0.286915 0.319996 0.672079
O O15 0.500000 0.132312 0.372058
O O16 0.775515 0.099419 0.893118
O O17 0.000000 0.106583 0.829169
O O18 0.279564 0.584574 0.500000
O O19 0.500000 0.562715 0.558701
O O20 0.276015 0.500000 0.566421
#
# Coordination Sequence:
#
# PCOD8289033 Si02
#       7
#    16  16   8  16  16  16  16
#     4  10  21  35  51  75 108 142 172 210 263 318
#     4  10  21  36  53  76 105 135 173 221 268 314
#     4   9  17  31  53  77 101 135 173 207 254 315
#     4  10  20  35  54  76 102 136 178 220 265 317
#     4  10  21  36  53  74 102 137 180 220 264 325
#     4  10  19  32  54  81 105 132 176 224 263 310
#     4   8  14  26  46  74 108 140 166 201 256 315
#
# _framework density 18.092676000000001
#
# number of rings (size 3 to 8) (size 9 to 14) (size 15 to 20)
#    0.000    2.385    1.538    1.615    1.077    4.000 
#    0.000    0.769    0.000    3.231    0.000    2.154 
#    0.000    0.000    0.000    0.000    0.000    0.000 
#
# Total GULP energy -644503.693328 kJ/mol
# GULP energy per Si atom -12394.301795 kJ/mol
# Density = 1.805150 g / cm^3
# Si number density = 18.092676 Si / 1000 Ang^3
#
#
#
# Elastic Constant Matrix: (Units=GPa)
#
#
# Indices 1 2 3 4 5 6 
#
# 1 72.3988 25.9799 50.0388 0.0000 0.0000 0.0000
# 2 25.9799 101.7176 47.0240 0.0000 0.0000 0.0000
# 3 50.0388 47.0240 115.2034 0.0000 0.0000 0.0000
# 4 0.0000 0.0000 0.0000 25.5674 0.0000 0.0000
# 5 0.0000 0.0000 0.0000 0.0000 29.5738 0.0000
# 6 0.0000 0.0000 0.0000 0.0000 0.0000 21.1620
#
#
#
# Elastic Compliance Matrix: (Units=1/GPa)
#
#
# Indices 1 2 3 4 5 6 
#
# 1 0.019885 -0.001339 -0.008091 0.000000 0.000000 0.000000
# 2 -0.001339 0.012208 -0.004402 0.000000 0.000000 0.000000
# 3 -0.008091 -0.004402 0.013991 0.000000 0.000000 0.000000
# 4 0.000000 0.000000 0.000000 0.039112 0.000000 0.000000
# 5 0.000000 0.000000 0.000000 0.000000 0.033814 0.000000
# 6 0.000000 0.000000 0.000000 0.000000 0.000000 0.047254
#
#
# Mechanical properties :
#
#
# Convention : Reuss Voigt Hill
#
# Bulk Modulus (GPa) = 54.28249 59.48945 56.88597
# Shear Modulus (GPa) = 24.99174 26.34578 25.66876
#
# Velocity S-wave (km/s) = 3.72064 3.82010 3.77070
# Velocity P-wave (km/s) = 6.96600 7.23943 7.10403
#
# Compressibility (1/GPa) = 0.01842215
#
# Stress axis : x y z
#
# Youngs Moduli (GPa) = 50.29043 81.91415 71.47398
#
# Poissons Ratio (x) = 0.10964 0.57826
# Poissons Ratio (y) = 0.06731 0.31460
# Poissons Ratio (z) = 0.40687 0.36056
#
# Static dielectric constant tensor:
#      x y z
#    x 3.089220 0.000000 0.000000 
#    y 0.000000 3.378990 0.000000 
#    z 0.000000 0.000000 3.447840 
# 
# 
# High freq. dielectric constant tensor:
#      x y z
#    x 1.685160 0.000000 0.000000 
#    y 0.000000 1.697880 0.000000 
#    z 0.000000 0.000000 1.699020 
# 
# From -- ./inp_files/63540.got.cif
#   From: 2010.06.25/outbox.cif.g09.slc.cpg/sg71_32_cif.got.tgz:63540.got - 2010.06.28 04:59:45.
