data_PCOD8289479
_publ_section_title
;
Structure prediction by ZEFSAII (Michael W. Deem and Ramdas Pophale) SiO2 
 PCOD8289479
Probable space group: I M M M
;
_chemical_formula_sum "Si O2"
_cell_formula_units_Z 104
_cell_length_a 9.594796
_cell_length_b 18.276541
_cell_length_c 31.778406
_cell_angle_alpha 90.000000
_cell_angle_beta 90.000000
_cell_angle_gamma 90.000000
_cell_volume 5572.651186
_symmetry_space_group_name_H-M "I M M M"
_symmetry_group_IT_number 71
_symmetry_cell_setting 'orthorhombic'
loop_
_space_group_symop_operation_xyz
x,y,z
-x,-y,z
x,-y,-z
-x,y,-z
-x,-y,-z
x,y,-z
-x,y,z
x,-y,z
1/2+x,1/2+y,1/2+z
1/2-x,1/2-y,1/2+z
1/2+x,1/2-y,1/2-z
1/2-x,1/2+y,1/2-z
1/2-x,1/2-y,1/2-z
1/2+x,1/2+y,1/2-z
1/2-x,1/2+y,1/2+z
1/2+x,1/2-y,1/2+z
loop_
_atom_site_type_symbol
_atom_site_label
_atom_site_fract_x
_atom_site_fract_y
_atom_site_fract_z
Si Si1 0.660285 0.916253 0.253886
Si Si2 0.159481 0.666356 0.837420
Si Si3 0.334388 0.417044 0.000000
Si Si4 0.160407 0.915795 0.106302
Si Si5 0.340173 0.825780 0.951893
Si Si6 0.336635 0.328104 0.311662
Si Si7 0.662670 0.332402 0.081979
O O1 0.500000 0.905706 0.240106
O O2 0.678367 0.896671 0.302879
O O3 0.754140 0.861301 0.227345
O O4 0.708398 0.000000 0.247170
O O5 0.205814 0.743649 0.817210
O O6 0.254052 0.643363 0.876754
O O7 0.000000 0.672380 0.852983
O O8 0.278661 0.377406 0.957998
O O9 0.280234 0.500000 0.000000
O O10 0.500000 0.411733 0.000000
O O11 0.247677 0.891517 0.065798
O O12 0.210326 0.871130 0.146787
O O13 0.000000 0.900168 0.096006
O O14 0.189565 0.000000 0.115829
O O15 0.500000 0.849556 0.947801
O O16 0.309609 0.752898 0.925657
O O17 0.299618 0.810917 0.000000
O O18 0.500000 0.337853 0.302560
O O19 0.500000 0.348916 0.089208
#
# Coordination Sequence:
#
# PCOD8289479 Si02
#       7
#    16  16   8  16  16  16  16
#     4  10  22  38  55  79 112 146 177 216 271 326
#     4  10  21  37  57  81 110 143 180 223 271 323
#     4   9  18  34  57  85 116 147 182 228 277 319
#     4  10  21  36  54  79 110 142 179 223 271 321
#     4  10  20  35  55  78 107 142 180 223 269 317
#     4  10  20  36  58  81 106 141 184 226 267 316
#     4  10  19  34  57  83 109 141 182 225 268 318
#
# _framework density 18.662569999999999
#
# number of rings (size 3 to 8) (size 9 to 14) (size 15 to 20)
#    0.000    2.077    2.308    0.923    0.000    4.308 
#    0.000    1.923    0.000    0.462    0.000    0.000 
#    0.000    0.000    0.000    0.000    0.000    0.000 
#
# Total GULP energy -645001.271063 kJ/mol
# GULP energy per Si atom -12403.870597 kJ/mol
# Density = 1.862009 g / cm^3
# Si number density = 18.662570 Si / 1000 Ang^3
#
#
#
# Elastic Constant Matrix: (Units=GPa)
#
#
# Indices 1 2 3 4 5 6 
#
# 1 53.5977 28.2419 49.0969 0.0000 0.0000 0.0000
# 2 28.2419 74.3922 29.7658 0.0000 0.0000 0.0000
# 3 49.0969 29.7658 99.1689 0.0000 0.0000 0.0000
# 4 0.0000 0.0000 0.0000 27.6713 0.0000 0.0000
# 5 0.0000 0.0000 0.0000 0.0000 38.0160 0.0000
# 6 0.0000 0.0000 0.0000 0.0000 0.0000 19.3657
#
#
#
# Elastic Compliance Matrix: (Units=1/GPa)
#
#
# Indices 1 2 3 4 5 6 
#
# 1 0.037730 -0.007784 -0.016343 0.000000 0.000000 0.000000
# 2 -0.007784 0.016883 -0.001214 0.000000 0.000000 0.000000
# 3 -0.016343 -0.001214 0.018539 0.000000 0.000000 0.000000
# 4 0.000000 0.000000 0.000000 0.036139 0.000000 0.000000
# 5 0.000000 0.000000 0.000000 0.000000 0.026305 0.000000
# 6 0.000000 0.000000 0.000000 0.000000 0.000000 0.051638
#
#
# Mechanical properties :
#
#
# Convention : Reuss Voigt Hill
#
# Bulk Modulus (GPa) = 44.50320 49.04087 46.77203
# Shear Modulus (GPa) = 20.37450 25.01422 22.69436
#
# Velocity S-wave (km/s) = 3.30772 3.66504 3.49095
# Velocity P-wave (km/s) = 6.20371 6.65167 6.43159
#
# Compressibility (1/GPa) = 0.02247029
#
# Stress axis : x y z
#
# Youngs Moduli (GPa) = 26.50425 59.23089 53.93989
#
# Poissons Ratio (x) = 0.46108 0.88153
# Poissons Ratio (y) = 0.20632 0.06546
# Poissons Ratio (z) = 0.43316 0.07188
#
# Static dielectric constant tensor:
#      x y z
#    x 3.252140 0.000000 0.000000 
#    y 0.000000 3.444020 0.000000 
#    z 0.000000 0.000000 3.383110 
# 
# 
# High freq. dielectric constant tensor:
#      x y z
#    x 1.708790 0.000000 0.000000 
#    y 0.000000 1.728080 0.000000 
#    z 0.000000 0.000000 1.728860 
# 
# From -- ./inp_files/63308.got.cif
#   From: 2010.06.25/outbox.cif.g09.slc.cpg/sg71_32_cif.got.tgz:63308.got - 2010.06.28 04:59:45.
