data_PCOD8289062
_publ_section_title
;
Structure prediction by ZEFSAII (Michael W. Deem and Ramdas Pophale) SiO2 
 PCOD8289062
Probable space group: I M M M
;
_chemical_formula_sum "Si O2"
_cell_formula_units_Z 84
_cell_length_a 11.993118
_cell_length_b 14.042869
_cell_length_c 29.782452
_cell_angle_alpha 90.000000
_cell_angle_beta 90.000000
_cell_angle_gamma 90.000000
_cell_volume 5015.894597
_symmetry_space_group_name_H-M "I M M M"
_symmetry_group_IT_number 71
_symmetry_cell_setting 'orthorhombic'
loop_
_space_group_symop_operation_xyz
x,y,z
-x,-y,z
x,-y,-z
-x,y,-z
-x,-y,-z
x,y,-z
-x,y,z
x,-y,z
1/2+x,1/2+y,1/2+z
1/2-x,1/2-y,1/2+z
1/2+x,1/2-y,1/2-z
1/2-x,1/2+y,1/2-z
1/2-x,1/2-y,1/2-z
1/2+x,1/2+y,1/2-z
1/2-x,1/2+y,1/2+z
1/2+x,1/2-y,1/2+z
loop_
_atom_site_type_symbol
_atom_site_label
_atom_site_fract_x
_atom_site_fract_y
_atom_site_fract_z
Si Si1 0.500000 0.691612 0.822819
Si Si2 0.775139 0.707016 0.701342
Si Si3 0.871877 0.309104 0.869278
Si Si4 0.242410 0.109923 0.550621
Si Si5 0.500000 0.500000 0.234727
Si Si6 0.500000 0.608222 0.081771
Si Si7 0.762938 0.000000 0.228069
Si Si8 0.876915 0.500000 0.815181
O O1 0.394184 0.754487 0.811961
O O2 0.500000 0.593488 0.795778
O O3 0.500000 0.674986 0.875376
O O4 0.750000 0.750000 0.750000
O O5 0.683050 0.732736 0.664046
O O6 0.780261 0.592822 0.702251
O O7 0.808188 0.317707 0.916762
O O8 0.860093 0.410146 0.846184
O O9 0.000000 0.279816 0.877749
O O10 0.282178 0.131458 0.500000
O O11 0.109956 0.129308 0.552722
O O12 0.268816 0.000000 0.563245
O O13 0.395976 0.500000 0.268305
O O14 0.500000 0.500000 0.098939
O O15 0.718189 0.000000 0.278550
O O16 0.000000 0.500000 0.792706
#
# Coordination Sequence:
#
# PCOD8289062 Si02
#       8
#     8  16  16  16   4   8   8   8
#     4  12  22  36  60  85 111 156 194 229 278 334
#     4  12  25  37  56  80 112 149 194 237 281 327
#     4  11  22  36  54  79 112 151 187 227 276 334
#     4  10  20  34  54  82 114 148 184 225 278 342
#     4  12  22  34  58  82 111 156 191 234 268 336
#     4  10  19  32  55  81 115 145 182 228 277 326
#     4  12  26  38  54  79 113 150 196 239 280 327
#     4  10  20  34  53  73 110 150 184 225 276 324
#
# _framework density 16.746763000000001
#
# number of rings (size 3 to 8) (size 9 to 14) (size 15 to 20)
#    0.000    0.952    7.143    0.286    4.000    1.524 
#    0.000    0.952    0.000    0.000    0.000    0.667 
#    0.000    3.048    0.000    0.000    0.000    0.000 
#
# Total GULP energy -520855.642518 kJ/mol
# GULP energy per Si atom -12401.324822 kJ/mol
# Density = 1.670865 g / cm^3
# Si number density = 16.746763 Si / 1000 Ang^3
#
#
#
# Elastic Constant Matrix: (Units=GPa)
#
#
# Indices 1 2 3 4 5 6 
#
# 1 118.3768 32.4871 43.8482 0.0000 0.0000 0.0000
# 2 32.4871 100.9922 33.3974 0.0000 0.0000 0.0000
# 3 43.8482 33.3974 101.9851 0.0000 0.0000 0.0000
# 4 0.0000 0.0000 0.0000 30.6981 0.0000 0.0000
# 5 0.0000 0.0000 0.0000 0.0000 27.2331 0.0000
# 6 0.0000 0.0000 0.0000 0.0000 0.0000 -12.5539
#
#
#
# Elastic Compliance Matrix: (Units=1/GPa)
#
#
# Indices 1 2 3 4 5 6 
#
# 1 0.010430 -0.002100 -0.003797 0.000000 0.000000 0.000000
# 2 -0.002100 0.011527 -0.002872 0.000000 0.000000 0.000000
# 3 -0.003797 -0.002872 0.012378 0.000000 0.000000 0.000000
# 4 0.000000 0.000000 0.000000 0.032575 0.000000 0.000000
# 5 0.000000 0.000000 0.000000 0.000000 0.036720 0.000000
# 6 0.000000 0.000000 0.000000 0.000000 0.000000 -0.079656
#
#
# Mechanical properties :
#
#
# Convention : Reuss Voigt Hill
#
# Bulk Modulus (GPa) = 59.52933 60.09103 59.81018
# Shear Modulus (GPa) = 106.13271 23.18356 64.65813
#
# Velocity S-wave (km/s) = 7.96948 3.72474 6.22038
# Velocity P-wave (km/s) = 10.96848 7.37959 9.34788
#
# Compressibility (1/GPa) = 0.01679844
#
# Stress axis : x y z
#
# Youngs Moduli (GPa) = 95.87527 86.75351 80.78638
#
# Poissons Ratio (x) = 0.18215 0.30674
# Poissons Ratio (y) = 0.20130 0.23202
# Poissons Ratio (z) = 0.36403 0.24916
#
# Static dielectric constant tensor:
#      x y z
#    x 3.370670 0.000000 0.000000 
#    y 0.000000 2.831600 0.000000 
#    z 0.000000 0.000000 3.089760 
# 
# 
# High freq. dielectric constant tensor:
#      x y z
#    x 1.664440 0.000000 0.000000 
#    y 0.000000 1.615330 0.000000 
#    z 0.000000 0.000000 1.635810 
# 
# From -- ./inp_files/29946.got.cif
#   From: 2010.06.25/outbox.cif.g09.slc.cpg/sg71_15_cif.got.tgz:29946.got - 2010.06.28 04:59:45.
