data_PCOD8289353
_publ_section_title
;
Structure prediction by ZEFSAII (Michael W. Deem and Ramdas Pophale) SiO2 
 PCOD8289353
Probable space group: I M M M
;
_chemical_formula_sum "Si O2"
_cell_formula_units_Z 72
_cell_length_a 17.680419
_cell_length_b 12.245002
_cell_length_c 18.035643
_cell_angle_alpha 90.000000
_cell_angle_beta 90.000000
_cell_angle_gamma 90.000000
_cell_volume 3904.658383
_symmetry_space_group_name_H-M "I M M M"
_symmetry_group_IT_number 71
_symmetry_cell_setting 'orthorhombic'
loop_
_space_group_symop_operation_xyz
x,y,z
-x,-y,z
x,-y,-z
-x,y,-z
-x,-y,-z
x,y,-z
-x,y,z
x,-y,z
1/2+x,1/2+y,1/2+z
1/2-x,1/2-y,1/2+z
1/2+x,1/2-y,1/2-z
1/2-x,1/2+y,1/2-z
1/2-x,1/2-y,1/2-z
1/2+x,1/2+y,1/2-z
1/2-x,1/2+y,1/2+z
1/2+x,1/2-y,1/2+z
loop_
_atom_site_type_symbol
_atom_site_label
_atom_site_fract_x
_atom_site_fract_y
_atom_site_fract_z
Si Si1 0.500000 0.369037 0.583320
Si Si2 0.413846 0.000000 0.912468
Si Si3 0.500000 0.373171 0.918196
Si Si4 0.848341 0.128456 0.664298
Si Si5 0.709141 0.174299 0.912423
Si Si6 0.642328 0.377720 0.329553
O O1 0.500000 0.500000 0.580403
O O2 0.500000 0.322014 0.500000
O O3 0.425999 0.321103 0.625264
O O4 0.366248 0.107483 0.887503
O O5 0.500000 0.000000 0.878646
O O6 0.420828 0.000000 0.000000
O O7 0.500000 0.500000 0.933661
O O8 0.428637 0.339839 0.870116
O O9 0.500000 0.314504 0.000000
O O10 0.790140 0.200843 0.616730
O O11 0.845231 0.174326 0.748318
O O12 0.827843 0.000000 0.656645
O O13 0.782205 0.117832 0.877677
O O14 0.718566 0.172495 0.000000
O O15 0.615101 0.500000 0.312326
#
# Coordination Sequence:
#
# PCOD8289353 Si02
#       6
#     8   8   8  16  16  16
#     4   9  17  29  51  77 103 132 169 216 268 318
#     4   9  20  36  52  75 105 139 176 214 258 310
#     4   9  17  31  49  72 103 134 172 212 253 306
#     4  10  21  34  51  76 106 142 175 217 267 320
#     4  11  21  34  55  77 105 140 179 223 264 312
#     4  10  19  34  52  76 107 138 173 219 270 320
#
# _framework density 18.439513000000002
#
# number of rings (size 3 to 8) (size 9 to 14) (size 15 to 20)
#    0.000    2.111    1.111    2.667    1.556    4.889 
#    0.000    0.000    0.000    0.000    0.000    0.778 
#    0.000    2.667    0.000    0.000    0.000    0.000 
#
# Total GULP energy -446172.607213 kJ/mol
# GULP energy per Si atom -12393.683534 kJ/mol
# Density = 1.839754 g / cm^3
# Si number density = 18.439513 Si / 1000 Ang^3
#
#
#
# Elastic Constant Matrix: (Units=GPa)
#
#
# Indices 1 2 3 4 5 6 
#
# 1 114.1519 18.1524 47.0757 0.0000 0.0000 0.0000
# 2 18.1524 59.9288 26.6577 0.0000 0.0000 0.0000
# 3 47.0757 26.6577 133.0307 0.0000 0.0000 0.0000
# 4 0.0000 0.0000 0.0000 19.2549 0.0000 0.0000
# 5 0.0000 0.0000 0.0000 0.0000 39.2539 0.0000
# 6 0.0000 0.0000 0.0000 0.0000 0.0000 7.3389
#
#
#
# Elastic Compliance Matrix: (Units=1/GPa)
#
#
# Indices 1 2 3 4 5 6 
#
# 1 0.010406 -0.001662 -0.003349 0.000000 0.000000 0.000000
# 2 -0.001662 0.018585 -0.003136 0.000000 0.000000 0.000000
# 3 -0.003349 -0.003136 0.009331 0.000000 0.000000 0.000000
# 4 0.000000 0.000000 0.000000 0.051935 0.000000 0.000000
# 5 0.000000 0.000000 0.000000 0.000000 0.025475 0.000000
# 6 0.000000 0.000000 0.000000 0.000000 0.000000 0.136260
#
#
# Mechanical properties :
#
#
# Convention : Reuss Voigt Hill
#
# Bulk Modulus (GPa) = 45.39956 54.54256 49.97106
# Shear Modulus (GPa) = 18.14037 27.51792 22.82914
#
# Velocity S-wave (km/s) = 3.13992 3.86727 3.52242
# Velocity P-wave (km/s) = 6.14978 7.04162 6.61075
#
# Compressibility (1/GPa) = 0.02202665
#
# Stress axis : x y z
#
# Youngs Moduli (GPa) = 96.10052 53.80722 107.17337
#
# Poissons Ratio (x) = 0.08943 0.35895
# Poissons Ratio (y) = 0.15973 0.33610
# Poissons Ratio (z) = 0.32186 0.16874
#
# Static dielectric constant tensor:
#      x y z
#    x 3.544710 0.000000 0.000000 
#    y 0.000000 3.105780 0.000000 
#    z 0.000000 0.000000 3.504240 
# 
# 
# High freq. dielectric constant tensor:
#      x y z
#    x 1.713610 0.000000 0.000000 
#    y 0.000000 1.677230 0.000000 
#    z 0.000000 0.000000 1.721180 
# 
# From -- ./inp_files/23543.got.cif
#   From: 2010.06.25/outbox.cif.g09.slc.cpg/sg71_12_cif.got.tgz:23543.got - 2010.06.28 04:59:45.
