data_PCOD8289977
_publ_section_title
;
Structure prediction by ZEFSAII (Michael W. Deem and Ramdas Pophale) SiO2 
 PCOD8289977
Probable space group: I M M M
;
_chemical_formula_sum "Si O2"
_cell_formula_units_Z 80
_cell_length_a 23.025899
_cell_length_b 26.280476
_cell_length_c 9.278428
_cell_angle_alpha 90.000000
_cell_angle_beta 90.000000
_cell_angle_gamma 90.000000
_cell_volume 5614.669852
_symmetry_space_group_name_H-M "I M M M"
_symmetry_group_IT_number 71
_symmetry_cell_setting 'orthorhombic'
loop_
_space_group_symop_operation_xyz
x,y,z
-x,-y,z
x,-y,-z
-x,y,-z
-x,-y,-z
x,y,-z
-x,y,z
x,-y,z
1/2+x,1/2+y,1/2+z
1/2-x,1/2-y,1/2+z
1/2+x,1/2-y,1/2-z
1/2-x,1/2+y,1/2-z
1/2-x,1/2-y,1/2-z
1/2+x,1/2+y,1/2-z
1/2-x,1/2+y,1/2+z
1/2+x,1/2-y,1/2+z
loop_
_atom_site_type_symbol
_atom_site_label
_atom_site_fract_x
_atom_site_fract_y
_atom_site_fract_z
Si Si1 0.000000 0.898850 0.829482
Si Si2 0.193192 0.145856 0.666145
Si Si3 0.500000 0.281307 0.330218
Si Si4 0.108444 0.058294 0.665218
Si Si5 0.277965 0.796414 0.166320
Si Si6 0.111346 0.239831 0.335986
O O1 0.000000 0.840112 0.781827
O O2 0.056245 0.926559 0.768388
O O3 0.000000 0.904721 0.000000
O O4 0.211193 0.151154 0.500000
O O5 0.165520 0.091210 0.701858
O O6 0.252047 0.152299 0.761243
O O7 0.146410 0.189038 0.708068
O O8 0.500000 0.274806 0.500000
O O9 0.556632 0.253479 0.267875
O O10 0.089021 0.067945 0.500000
O O11 0.125495 0.000000 0.692018
O O12 0.250000 0.750000 0.250000
O O13 0.347715 0.790011 0.181083
O O14 0.259177 0.794489 0.000000
O O15 0.089310 0.234726 0.500000
#
# Coordination Sequence:
#
# PCOD8289977 Si02
#       6
#     8  16   8  16  16  16
#     4  11  22  32  41  58  82 108 142 185 225 251
#     4   9  17  29  44  61  79 103 135 173 212 247
#     4  11  21  28  40  61  82 108 139 173 210 243
#     4  10  20  33  47  60  77 108 148 182 214 254
#     4   9  17  28  43  62  80 102 131 165 205 249
#     4   9  17  29  43  58  78 106 136 166 202 246
#
# _framework density 14.248389
#
# number of rings (size 3 to 8) (size 9 to 14) (size 15 to 20)
#    0.000    2.400    2.000    2.700    0.000    7.200 
#    0.000    0.000    0.000    0.000    0.000    0.000 
#    0.000    0.000    0.000    0.900    0.000   18.200 
#
# Total GULP energy -495883.027579 kJ/mol
# GULP energy per Si atom -12397.075689 kJ/mol
# Density = 1.421596 g / cm^3
# Si number density = 14.248389 Si / 1000 Ang^3
#
#
#
# Elastic Constant Matrix: (Units=GPa)
#
#
# Indices 1 2 3 4 5 6 
#
# 1 86.9694 50.2044 53.7349 0.0000 0.0000 0.0000
# 2 50.2044 60.0683 37.7483 0.0000 0.0000 0.0000
# 3 53.7349 37.7483 78.1043 0.0000 0.0000 0.0000
# 4 0.0000 0.0000 0.0000 17.1511 0.0000 0.0000
# 5 0.0000 0.0000 0.0000 0.0000 26.4730 0.0000
# 6 0.0000 0.0000 0.0000 0.0000 0.0000 13.8167
#
#
#
# Elastic Compliance Matrix: (Units=1/GPa)
#
#
# Indices 1 2 3 4 5 6 
#
# 1 0.027810 -0.016114 -0.011345 0.000000 0.000000 0.000000
# 2 -0.016114 0.033246 -0.004982 0.000000 0.000000 0.000000
# 3 -0.011345 -0.004982 0.023017 0.000000 0.000000 0.000000
# 4 0.000000 0.000000 0.000000 0.058305 0.000000 0.000000
# 5 0.000000 0.000000 0.000000 0.000000 0.037774 0.000000
# 6 0.000000 0.000000 0.000000 0.000000 0.000000 0.072376
#
#
# Mechanical properties :
#
#
# Convention : Reuss Voigt Hill
#
# Bulk Modulus (GPa) = 52.10775 56.50193 54.30484
# Shear Modulus (GPa) = 15.44131 17.05178 16.24655
#
# Velocity S-wave (km/s) = 3.29557 3.46316 3.38040
# Velocity P-wave (km/s) = 7.15062 7.46541 7.30971
#
# Compressibility (1/GPa) = 0.01919100
#
# Stress axis : x y z
#
# Youngs Moduli (GPa) = 35.95864 30.07866 43.44707
#
# Poissons Ratio (x) = 0.48468 0.49291
# Poissons Ratio (y) = 0.57942 0.21646
# Poissons Ratio (z) = 0.40795 0.14986
#
# Static dielectric constant tensor:
#      x y z
#    x 2.916400 0.000000 0.000000 
#    y 0.000000 2.784810 0.000000 
#    z 0.000000 0.000000 2.940230 
# 
# 
# High freq. dielectric constant tensor:
#      x y z
#    x 1.529650 0.000000 0.000000 
#    y 0.000000 1.505330 0.000000 
#    z 0.000000 0.000000 1.555510 
# 
# From -- ./inp_files/10746.got.cif
#   From: 2010.06.25/outbox.cif.g09.slc.cpg/sg71_6_cif.got.tgz:10746.got - 2010.06.28 04:59:45.
