data_PCOD8289542
_publ_section_title
;
Structure prediction by ZEFSAII (Michael W. Deem and Ramdas Pophale) SiO2 
 PCOD8289542
Probable space group: I M M M
;
_chemical_formula_sum "Si O2"
_cell_formula_units_Z 80
_cell_length_a 16.515564
_cell_length_b 12.932206
_cell_length_c 21.830364
_cell_angle_alpha 90.000000
_cell_angle_beta 90.000000
_cell_angle_gamma 90.000000
_cell_volume 4662.587558
_symmetry_space_group_name_H-M "I M M M"
_symmetry_group_IT_number 71
_symmetry_cell_setting 'orthorhombic'
loop_
_space_group_symop_operation_xyz
x,y,z
-x,-y,z
x,-y,-z
-x,y,-z
-x,-y,-z
x,y,-z
-x,y,z
x,-y,z
1/2+x,1/2+y,1/2+z
1/2-x,1/2-y,1/2+z
1/2+x,1/2-y,1/2-z
1/2-x,1/2+y,1/2-z
1/2-x,1/2-y,1/2-z
1/2+x,1/2+y,1/2-z
1/2-x,1/2+y,1/2+z
1/2+x,1/2-y,1/2+z
loop_
_atom_site_type_symbol
_atom_site_label
_atom_site_fract_x
_atom_site_fract_y
_atom_site_fract_z
Si Si1 0.000000 0.619299 0.169937
Si Si2 0.170356 0.117565 0.928707
Si Si3 0.833954 0.620720 0.235459
Si Si4 0.093935 0.119004 0.429768
Si Si5 0.000000 0.211113 0.070510
Si Si6 0.784933 0.244128 0.346962
O O1 0.077990 0.648018 0.209722
O O2 0.000000 0.500000 0.150310
O O3 0.000000 0.682743 0.107507
O O4 0.227162 0.193398 0.891686
O O5 0.077355 0.141849 0.912949
O O6 0.188025 0.000000 0.909030
O O7 0.188239 0.134638 0.000000
O O8 0.822401 0.500000 0.247090
O O9 0.826439 0.678165 0.299772
O O10 0.765728 0.656540 0.187858
O O11 0.114703 0.146170 0.500000
O O12 0.144915 0.191177 0.385593
O O13 0.000000 0.140028 0.416437
O O14 0.115524 0.000000 0.416473
O O15 0.000000 0.244761 0.000000
#
# Coordination Sequence:
#
# PCOD8289542 Si02
#       6
#     8  16  16  16   8  16
#     4  10  20  38  55  74 109 142 176 218 263 313
#     4  10  20  34  54  80 109 138 172 217 264 314
#     4  10  22  36  53  77 105 140 176 215 261 311
#     4   9  19  36  57  81 108 137 171 215 267 318
#     4  10  19  35  56  79 107 143 179 211 265 319
#     4  11  20  34  58  78 105 136 178 219 259 312
#
# _framework density 17.157854
#
# number of rings (size 3 to 8) (size 9 to 14) (size 15 to 20)
#    0.000    2.000    2.000    2.700    1.400    1.400 
#    0.000    0.000    0.000    0.000    0.000    4.200 
#    0.000    0.000    0.000    0.000    0.000    0.000 
#
# Total GULP energy -496117.133789 kJ/mol
# GULP energy per Si atom -12402.928345 kJ/mol
# Density = 1.711880 g / cm^3
# Si number density = 17.157854 Si / 1000 Ang^3
#
#
#
# Elastic Constant Matrix: (Units=GPa)
#
#
# Indices 1 2 3 4 5 6 
#
# 1 100.6337 61.7718 66.5125 0.0000 0.0000 0.0000
# 2 61.7718 106.2361 74.3198 0.0000 0.0000 0.0000
# 3 66.5125 74.3198 105.2504 0.0000 0.0000 0.0000
# 4 0.0000 0.0000 0.0000 27.4846 0.0000 0.0000
# 5 0.0000 0.0000 0.0000 0.0000 31.2311 0.0000
# 6 0.0000 0.0000 0.0000 0.0000 0.0000 32.9599
#
#
#
# Elastic Compliance Matrix: (Units=1/GPa)
#
#
# Indices 1 2 3 4 5 6 
#
# 1 0.018341 -0.005051 -0.008023 0.000000 0.000000 0.000000
# 2 -0.005051 0.019993 -0.010926 0.000000 0.000000 0.000000
# 3 -0.008023 -0.010926 0.022286 0.000000 0.000000 0.000000
# 4 0.000000 0.000000 0.000000 0.036384 0.000000 0.000000
# 5 0.000000 0.000000 0.000000 0.000000 0.032019 0.000000
# 6 0.000000 0.000000 0.000000 0.000000 0.000000 0.030340
#
#
# Mechanical properties :
#
#
# Convention : Reuss Voigt Hill
#
# Bulk Modulus (GPa) = 79.24170 79.70314 79.47242
# Shear Modulus (GPa) = 23.63272 25.63619 24.63445
#
# Velocity S-wave (km/s) = 3.71532 3.86960 3.79324
# Velocity P-wave (km/s) = 8.04295 8.15590 8.09962
#
# Compressibility (1/GPa) = 0.01261962
#
# Stress axis : x y z
#
# Youngs Moduli (GPa) = 54.52365 50.01647 44.87049
#
# Poissons Ratio (x) = 0.25265 0.36001
# Poissons Ratio (y) = 0.27542 0.49024
# Poissons Ratio (z) = 0.43747 0.54646
#
# Static dielectric constant tensor:
#      x y z
#    x 3.278760 0.000000 0.000000 
#    y 0.000000 3.207580 0.000000 
#    z 0.000000 0.000000 3.204430 
# 
# 
# High freq. dielectric constant tensor:
#      x y z
#    x 1.670890 0.000000 0.000000 
#    y 0.000000 1.668320 0.000000 
#    z 0.000000 0.000000 1.666550 
# 
# From -- ./inp_files/23841.got.cif
#   From: 2010.06.25/outbox.cif.g09.slc.cpg/sg71_12_cif.got.tgz:23841.got - 2010.06.28 04:59:45.
