data_PCOD8289423
_publ_section_title
;
Structure prediction by ZEFSAII (Michael W. Deem and Ramdas Pophale) SiO2 
 PCOD8289423
Probable space group: I M M M
;
_chemical_formula_sum "Si O2"
_cell_formula_units_Z 120
_cell_length_a 13.551356
_cell_length_b 14.013891
_cell_length_c 32.882538
_cell_angle_alpha 90.000000
_cell_angle_beta 90.000000
_cell_angle_gamma 90.000000
_cell_volume 6244.631572
_symmetry_space_group_name_H-M "I M M M"
_symmetry_group_IT_number 71
_symmetry_cell_setting 'orthorhombic'
loop_
_space_group_symop_operation_xyz
x,y,z
-x,-y,z
x,-y,-z
-x,y,-z
-x,-y,-z
x,y,-z
-x,y,z
x,-y,z
1/2+x,1/2+y,1/2+z
1/2-x,1/2-y,1/2+z
1/2+x,1/2-y,1/2-z
1/2-x,1/2+y,1/2-z
1/2-x,1/2-y,1/2-z
1/2+x,1/2+y,1/2-z
1/2-x,1/2+y,1/2+z
1/2+x,1/2-y,1/2+z
loop_
_atom_site_type_symbol
_atom_site_label
_atom_site_fract_x
_atom_site_fract_y
_atom_site_fract_z
Si Si1 0.207684 0.606830 0.126515
Si Si2 0.112940 0.203009 0.885232
Si Si3 0.888410 0.604626 0.212109
Si Si4 0.883723 0.104594 0.197657
Si Si5 0.798027 0.387812 0.415752
Si Si6 0.109927 0.387180 0.500000
Si Si7 0.615465 0.728482 0.861171
Si Si8 0.116648 0.767653 0.731038
O O1 0.194987 0.500000 0.107510
O O2 0.134448 0.684876 0.106132
O O3 0.183387 0.602925 0.173910
O O4 0.320228 0.642990 0.118966
O O5 0.142687 0.178568 0.838460
O O6 0.181647 0.136493 0.913380
O O7 0.000000 0.178672 0.895552
O O8 0.893451 0.500000 0.231871
O O9 0.842785 0.673760 0.246158
O O10 0.000000 0.637389 0.198799
O O11 0.846976 0.142921 0.241569
O O12 0.000000 0.093339 0.198882
O O13 0.835795 0.000000 0.189709
O O14 0.817024 0.500000 0.408779
O O15 0.833163 0.352418 0.459951
O O16 0.860245 0.329755 0.382015
O O17 0.103399 0.500000 0.500000
O O18 0.000000 0.342822 0.500000
O O19 0.500000 0.704192 0.865299
O O20 0.654805 0.731912 0.814832
O O21 0.000000 0.763519 0.729297
#
# Coordination Sequence:
#
# PCOD8289423 Si02
#       8
#    16  16  16  16  16   8  16  16
#     4  10  20  33  50  73 100 138 188 235 275 322
#     4  10  19  34  55  81 115 148 182 228 275 324
#     4   9  16  28  46  66  91 127 174 225 271 316
#     4   9  16  27  45  68  99 145 190 220 259 320
#     4  10  21  37  58  88 116 143 182 221 267 333
#     4   9  18  36  63  87 112 149 187 223 263 319
#     4  10  22  36  51  73 105 141 182 237 288 325
#     4   9  17  30  46  66  95 136 184 228 272 326
#
# _framework density 19.216505999999999
#
# number of rings (size 3 to 8) (size 9 to 14) (size 15 to 20)
#    0.000    2.467    1.333    1.200    0.000    4.267 
#    0.000    3.000    0.000    1.200    0.000    7.467 
#    0.000   17.067    0.000    0.000    0.000    0.000 
#
# Total GULP energy -743578.685433 kJ/mol
# GULP energy per Si atom -12392.978091 kJ/mol
# Density = 1.917277 g / cm^3
# Si number density = 19.216506 Si / 1000 Ang^3
#
#
#
# Elastic Constant Matrix: (Units=GPa)
#
#
# Indices 1 2 3 4 5 6 
#
# 1 94.6083 21.1748 33.9299 0.0000 0.0000 0.0000
# 2 21.1748 118.5601 24.3691 0.0000 0.0000 0.0000
# 3 33.9299 24.3691 78.8341 0.0000 0.0000 0.0000
# 4 0.0000 0.0000 0.0000 19.6099 0.0000 0.0000
# 5 0.0000 0.0000 0.0000 0.0000 23.8544 0.0000
# 6 0.0000 0.0000 0.0000 0.0000 0.0000 19.6496
#
#
#
# Elastic Compliance Matrix: (Units=1/GPa)
#
#
# Indices 1 2 3 4 5 6 
#
# 1 0.012662 -0.001219 -0.005073 0.000000 0.000000 0.000000
# 2 -0.001219 0.009124 -0.002296 0.000000 0.000000 0.000000
# 3 -0.005073 -0.002296 0.015578 0.000000 0.000000 0.000000
# 4 0.000000 0.000000 0.000000 0.050995 0.000000 0.000000
# 5 0.000000 0.000000 0.000000 0.000000 0.041921 0.000000
# 6 0.000000 0.000000 0.000000 0.000000 0.000000 0.050892
#
#
# Mechanical properties :
#
#
# Convention : Reuss Voigt Hill
#
# Bulk Modulus (GPa) = 49.53211 50.10555 49.81883
# Shear Modulus (GPa) = 24.38118 26.79135 25.58627
#
# Velocity S-wave (km/s) = 3.56583 3.73793 3.65289
# Velocity P-wave (km/s) = 6.54105 6.69031 6.61610
#
# Compressibility (1/GPa) = 0.02018892
#
# Stress axis : x y z
#
# Youngs Moduli (GPa) = 78.97645 109.59970 64.19334
#
# Poissons Ratio (x) = 0.13357 0.32565
# Poissons Ratio (y) = 0.09625 0.14738
# Poissons Ratio (z) = 0.40064 0.25163
#
# Static dielectric constant tensor:
#      x y z
#    x 3.559760 0.000000 0.000000 
#    y 0.000000 3.744180 0.000000 
#    z 0.000000 0.000000 3.255810 
# 
# 
# High freq. dielectric constant tensor:
#      x y z
#    x 1.756870 0.000000 0.000000 
#    y 0.000000 1.747890 0.000000 
#    z 0.000000 0.000000 1.693610 
# 
# From -- ./inp_files/70165.got.cif
#   From: 2010.06.25/outbox.cif.g09.slc.cpg/sg71_36_cif.got.tgz:70165.got - 2010.06.28 04:59:45.
