data_PCOD8289851
_publ_section_title
;
Structure prediction by ZEFSAII (Michael W. Deem and Ramdas Pophale) SiO2 
 PCOD8289851
Probable space group: I M M M
;
_chemical_formula_sum "Si O2"
_cell_formula_units_Z 88
_cell_length_a 19.943483
_cell_length_b 8.887096
_cell_length_c 30.154944
_cell_angle_alpha 90.000000
_cell_angle_beta 90.000000
_cell_angle_gamma 90.000000
_cell_volume 5344.651660
_symmetry_space_group_name_H-M "I M M M"
_symmetry_group_IT_number 71
_symmetry_cell_setting 'orthorhombic'
loop_
_space_group_symop_operation_xyz
x,y,z
-x,-y,z
x,-y,-z
-x,y,-z
-x,-y,-z
x,y,-z
-x,y,z
x,-y,z
1/2+x,1/2+y,1/2+z
1/2-x,1/2-y,1/2+z
1/2+x,1/2-y,1/2-z
1/2-x,1/2+y,1/2-z
1/2-x,1/2-y,1/2-z
1/2+x,1/2+y,1/2-z
1/2-x,1/2+y,1/2+z
1/2+x,1/2-y,1/2+z
loop_
_atom_site_type_symbol
_atom_site_label
_atom_site_fract_x
_atom_site_fract_y
_atom_site_fract_z
Si Si1 0.362486 0.823430 0.550952
Si Si2 0.201372 0.822460 0.873493
Si Si3 0.709858 0.177664 0.791366
Si Si4 0.425799 0.323445 0.773601
Si Si5 0.928086 0.822932 0.173449
Si Si6 0.500000 0.330353 0.552648
O O1 0.349297 0.779324 0.500000
O O2 0.297901 0.760103 0.578656
O O3 0.431858 0.750090 0.568918
O O4 0.368865 0.000000 0.557044
O O5 0.258908 0.775890 0.838962
O O6 0.132825 0.753456 0.853300
O O7 0.200814 0.000000 0.881601
O O8 0.750000 0.250000 0.750000
O O9 0.633416 0.231840 0.797187
O O10 0.714005 0.000000 0.784284
O O11 0.500000 0.291138 0.794579
O O12 0.409407 0.500000 0.776597
O O13 0.426531 0.263109 0.723485
O O14 0.000000 0.781127 0.151078
O O15 0.918292 0.000000 0.176044
O O16 0.500000 0.500000 0.572029
O O17 0.500000 0.329915 0.500000
#
# Coordination Sequence:
#
# PCOD8289851 Si02
#       6
#    16  16  16  16  16   8
#     4  10  21  35  48  66  93 121 155 205 255 290
#     4  10  20  32  48  69  91 125 166 200 241 290
#     4  11  21  33  49  71 101 132 163 201 242 286
#     4   9  17  32  52  70  93 128 165 201 241 283
#     4   8  14  26  43  63  89 121 159 200 234 269
#     4   9  17  31  51  69  87 121 163 199 241 293
#
# _framework density 16.465059
#
# number of rings (size 3 to 8) (size 9 to 14) (size 15 to 20)
#    0.000    2.455    1.818    2.455    1.273    4.000 
#    0.000    0.000    0.000    0.000    0.000    0.000 
#    0.000    0.727    0.000    8.000    0.000    5.818 
#
# Total GULP energy -545193.036092 kJ/mol
# GULP energy per Si atom -12390.750820 kJ/mol
# Density = 1.642758 g / cm^3
# Si number density = 16.465059 Si / 1000 Ang^3
#
#
#
# Elastic Constant Matrix: (Units=GPa)
#
#
# Indices 1 2 3 4 5 6 
#
# 1 102.2193 34.5419 43.6135 0.0000 0.0000 0.0000
# 2 34.5419 59.7526 34.6190 0.0000 0.0000 0.0000
# 3 43.6135 34.6190 70.7172 0.0000 0.0000 0.0000
# 4 0.0000 0.0000 0.0000 21.6908 0.0000 0.0000
# 5 0.0000 0.0000 0.0000 0.0000 30.2759 0.0000
# 6 0.0000 0.0000 0.0000 0.0000 0.0000 26.5315
#
#
#
# Elastic Compliance Matrix: (Units=1/GPa)
#
#
# Indices 1 2 3 4 5 6 
#
# 1 0.014034 -0.004325 -0.006538 0.000000 0.000000 0.000000
# 2 -0.004325 0.024694 -0.009422 0.000000 0.000000 0.000000
# 3 -0.006538 -0.009422 0.022785 0.000000 0.000000 0.000000
# 4 0.000000 0.000000 0.000000 0.046102 0.000000 0.000000
# 5 0.000000 0.000000 0.000000 0.000000 0.033030 0.000000
# 6 0.000000 0.000000 0.000000 0.000000 0.000000 0.037691
#
#
# Mechanical properties :
#
#
# Convention : Reuss Voigt Hill
#
# Bulk Modulus (GPa) = 47.74485 50.91534 49.33009
# Shear Modulus (GPa) = 22.13496 23.69397 22.91446
#
# Velocity S-wave (km/s) = 3.67053 3.79759 3.73460
# Velocity P-wave (km/s) = 6.85743 7.08656 6.97294
#
# Compressibility (1/GPa) = 0.02094467
#
# Stress axis : x y z
#
# Youngs Moduli (GPa) = 71.25634 40.49497 43.88788
#
# Poissons Ratio (x) = 0.17513 0.28694
# Poissons Ratio (y) = 0.30817 0.41350
# Poissons Ratio (z) = 0.46587 0.38153
#
# Static dielectric constant tensor:
#      x y z
#    x 3.167730 0.000000 0.000000 
#    y 0.000000 2.930760 0.000000 
#    z 0.000000 0.000000 3.124140 
# 
# 
# High freq. dielectric constant tensor:
#      x y z
#    x 1.614070 0.000000 0.000000 
#    y 0.000000 1.622010 0.000000 
#    z 0.000000 0.000000 1.618090 
# 
# From -- ./inp_files/16889.got.cif
#   From: 2010.06.25/outbox.cif.g09.slc.cpg/sg71_9_cif.got.tgz:16889.got - 2010.06.28 04:59:45.
