data_PCOD8289698
_publ_section_title
;
Structure prediction by ZEFSAII (Michael W. Deem and Ramdas Pophale) SiO2 
 PCOD8289698
Probable space group: I M M M
;
_chemical_formula_sum "Si O2"
_cell_formula_units_Z 80
_cell_length_a 9.813665
_cell_length_b 29.744493
_cell_length_c 19.198559
_cell_angle_alpha 90.000000
_cell_angle_beta 90.000000
_cell_angle_gamma 90.000000
_cell_volume 5604.107175
_symmetry_space_group_name_H-M "I M M M"
_symmetry_group_IT_number 71
_symmetry_cell_setting 'orthorhombic'
loop_
_space_group_symop_operation_xyz
x,y,z
-x,-y,z
x,-y,-z
-x,y,-z
-x,-y,-z
x,y,-z
-x,y,z
x,-y,z
1/2+x,1/2+y,1/2+z
1/2-x,1/2-y,1/2+z
1/2+x,1/2-y,1/2-z
1/2-x,1/2+y,1/2-z
1/2-x,1/2-y,1/2-z
1/2+x,1/2+y,1/2-z
1/2-x,1/2+y,1/2+z
1/2+x,1/2-y,1/2+z
loop_
_atom_site_type_symbol
_atom_site_label
_atom_site_fract_x
_atom_site_fract_y
_atom_site_fract_z
Si Si1 0.159469 0.686536 0.711311
Si Si2 0.249385 0.391376 0.374886
Si Si3 0.000000 0.449156 0.417614
Si Si4 0.500000 0.552904 0.416306
Si Si5 0.654158 0.663221 0.500000
Si Si6 0.160017 0.265704 0.149851
Si Si7 0.650163 0.230545 0.500000
O O1 0.221920 0.637077 0.695756
O O2 0.174446 0.694467 0.794129
O O3 0.247282 0.723682 0.670818
O O4 0.000000 0.689659 0.688656
O O5 0.128241 0.424784 0.387187
O O6 0.376769 0.424360 0.375279
O O7 0.262382 0.353557 0.433745
O O8 0.000000 0.500000 0.390680
O O9 0.000000 0.447225 0.500000
O O10 0.500000 0.500000 0.402025
O O11 0.500000 0.561786 0.500000
O O12 0.500000 0.643223 0.500000
O O13 0.649124 0.715976 0.500000
O O14 0.000000 0.250236 0.143609
O O15 0.215828 0.284177 0.074364
O O16 0.500000 0.209801 0.500000
#
# Coordination Sequence:
#
# PCOD8289698 Si02
#       7
#    16  16   8   8   8  16   8
#     4  10  20  30  42  65  91 115 145 181 220 262
#     4  12  19  31  45  61  85 116 147 187 222 259
#     4  11  22  32  42  59  84 113 145 182 227 269
#     4  11  22  34  48  65  84 111 155 200 225 249
#     4  11  18  27  42  66  80 110 158 189 213 249
#     4   9  18  31  46  64  86 114 150 185 217 251
#     4   9  16  26  46  63  83 111 148 186 210 240
#
# _framework density 14.275244000000001
#
# number of rings (size 3 to 8) (size 9 to 14) (size 15 to 20)
#    0.000    1.600    6.000    0.600    1.400    1.600 
#    0.000    1.500    0.000    0.000    0.000    0.000 
#    0.000    0.000    0.000    5.400    0.000    0.100 
#
# Total GULP energy -495528.640940 kJ/mol
# GULP energy per Si atom -12388.216023 kJ/mol
# Density = 1.424275 g / cm^3
# Si number density = 14.275244 Si / 1000 Ang^3
#
#
#
# Elastic Constant Matrix: (Units=GPa)
#
#
# Indices 1 2 3 4 5 6 
#
# 1 93.3267 42.6525 35.9103 0.0000 0.0000 0.0000
# 2 42.6525 81.2787 43.9447 0.0000 0.0000 0.0000
# 3 35.9103 43.9447 108.6068 0.0003 -0.0001 0.0001
# 4 0.0000 0.0000 0.0003 25.9604 0.0000 0.0000
# 5 0.0000 0.0000 -0.0001 0.0000 17.7082 0.0000
# 6 0.0000 0.0000 0.0001 0.0000 0.0000 22.9463
#
#
#
# Elastic Compliance Matrix: (Units=1/GPa)
#
#
# Indices 1 2 3 4 5 6 
#
# 1 0.014493 -0.006419 -0.002195 0.000000 0.000000 0.000000
# 2 -0.006419 0.018591 -0.005400 0.000000 0.000000 0.000000
# 3 -0.002195 -0.005400 0.012118 0.000000 0.000000 0.000000
# 4 0.000000 0.000000 0.000000 0.038520 0.000000 0.000000
# 5 0.000000 0.000000 0.000000 0.000000 0.056471 0.000000
# 6 0.000000 0.000000 0.000000 0.000000 0.000000 0.043580
#
#
# Mechanical properties :
#
#
# Convention : Reuss Voigt Hill
#
# Bulk Modulus (GPa) = 58.22376 58.69189 58.45782
# Shear Modulus (GPa) = 22.98565 24.03661 23.51113
#
# Velocity S-wave (km/s) = 4.01705 4.10786 4.06271
# Velocity P-wave (km/s) = 7.89878 7.98142 7.94021
#
# Compressibility (1/GPa) = 0.01717512
#
# Stress axis : x y z
#
# Youngs Moduli (GPa) = 68.99807 53.78821 82.52000
#
# Poissons Ratio (x) = 0.34526 0.18112
# Poissons Ratio (y) = 0.44289 0.44562
# Poissons Ratio (z) = 0.15144 0.29046
#
# Static dielectric constant tensor:
#      x y z
#    x 2.867250 0.000000 0.000000 
#    y 0.000000 2.734150 0.000000 
#    z 0.000000 0.000000 2.826920 
# 
# 
# High freq. dielectric constant tensor:
#      x y z
#    x 1.552620 0.000000 0.000000 
#    y 0.000000 1.524180 0.000000 
#    z 0.000000 0.000000 1.527180 
# 
# From -- ./inp_files/11315.got.cif
#   From: 2010.06.25/outbox.cif.g09.slc.cpg/sg71_6_cif.got.tgz:11315.got - 2010.06.28 04:59:45.
