data_PCOD8289210
_publ_section_title
;
Structure prediction by ZEFSAII (Michael W. Deem and Ramdas Pophale) SiO2 
 PCOD8289210
Probable space group: I M M M
;
_chemical_formula_sum "Si O2"
_cell_formula_units_Z 80
_cell_length_a 23.067155
_cell_length_b 8.797840
_cell_length_c 20.619152
_cell_angle_alpha 90.000000
_cell_angle_beta 90.000000
_cell_angle_gamma 90.000000
_cell_volume 4184.474191
_symmetry_space_group_name_H-M "I M M M"
_symmetry_group_IT_number 71
_symmetry_cell_setting 'orthorhombic'
loop_
_space_group_symop_operation_xyz
x,y,z
-x,-y,z
x,-y,-z
-x,y,-z
-x,-y,-z
x,y,-z
-x,y,z
x,-y,z
1/2+x,1/2+y,1/2+z
1/2-x,1/2-y,1/2+z
1/2+x,1/2-y,1/2-z
1/2-x,1/2+y,1/2-z
1/2-x,1/2-y,1/2-z
1/2+x,1/2+y,1/2-z
1/2-x,1/2+y,1/2+z
1/2+x,1/2-y,1/2+z
loop_
_atom_site_type_symbol
_atom_site_label
_atom_site_fract_x
_atom_site_fract_y
_atom_site_fract_z
Si Si1 0.066074 0.180970 0.251253
Si Si2 0.867035 0.180751 0.623199
Si Si3 0.064677 0.818498 0.500000
Si Si4 0.256698 0.179940 0.424726
Si Si5 0.568028 0.169619 0.500000
Si Si6 0.626744 0.680076 0.620134
O O1 0.104424 0.245255 0.310940
O O2 0.097405 0.239117 0.186272
O O3 0.000000 0.243778 0.254797
O O4 0.064412 0.000000 0.253139
O O5 0.903855 0.245946 0.563429
O O6 0.800960 0.234881 0.612935
O O7 0.869487 0.000000 0.623439
O O8 0.000000 0.754695 0.500000
O O9 0.065963 0.000000 0.500000
O O10 0.255662 0.233343 0.500000
O O11 0.308664 0.256506 0.385717
O O12 0.263367 0.000000 0.421729
O O13 0.500000 0.157385 0.500000
O O14 0.587311 0.260346 0.437405
O O15 0.595911 0.000000 0.500000
O O16 0.628966 0.500000 0.617588
#
# Coordination Sequence:
#
# PCOD8289210 Si02
#       6
#    16  16   8  16   8  16
#     4   9  18  32  49  73 108 143 175 219 273 323
#     4   9  16  28  47  73 105 143 178 213 263 317
#     4   9  14  21  40  71 102 133 172 213 256 311
#     4  10  19  33  53  77 109 143 177 220 267 311
#     4  11  23  38  57  80 104 135 178 227 276 323
#     4  11  22  35  54  79 107 143 183 221 266 318
#
# _framework density 19.118292
#
# number of rings (size 3 to 8) (size 9 to 14) (size 15 to 20)
#    0.000    2.200    2.000    2.100    0.000    4.800 
#    0.000    0.000    0.000    1.200    0.000    0.000 
#    0.000    3.200    0.000    0.000    0.000    0.200 
#
# Total GULP energy -495954.042556 kJ/mol
# GULP energy per Si atom -12398.851064 kJ/mol
# Density = 1.907478 g / cm^3
# Si number density = 19.118292 Si / 1000 Ang^3
#
#
#
# Elastic Constant Matrix: (Units=GPa)
#
#
# Indices 1 2 3 4 5 6 
#
# 1 179.4446 25.9000 95.9688 0.0000 0.0000 0.0000
# 2 25.9000 19.3489 19.5696 0.0000 0.0000 0.0000
# 3 95.9688 19.5696 184.1734 0.0000 0.0000 0.0000
# 4 0.0000 0.0000 0.0000 17.5996 0.0000 0.0000
# 5 0.0000 0.0000 0.0000 0.0000 57.3325 0.0000
# 6 0.0000 0.0000 0.0000 0.0000 0.0000 17.8222
#
#
#
# Elastic Compliance Matrix: (Units=1/GPa)
#
#
# Indices 1 2 3 4 5 6 
#
# 1 0.008684 -0.007896 -0.003686 0.000000 0.000000 0.000000
# 2 -0.007896 0.065085 -0.002801 0.000000 0.000000 0.000000
# 3 -0.003686 -0.002801 0.007648 0.000000 0.000000 0.000000
# 4 0.000000 0.000000 0.000000 0.056820 0.000000 0.000000
# 5 0.000000 0.000000 0.000000 0.000000 0.017442 0.000000
# 6 0.000000 0.000000 0.000000 0.000000 0.000000 0.056110
#
#
# Mechanical properties :
#
#
# Convention : Reuss Voigt Hill
#
# Bulk Modulus (GPa) = 18.99319 73.98263 46.48791
# Shear Modulus (GPa) = 19.37202 34.65276 27.01239
#
# Velocity S-wave (km/s) = 3.18665 4.26202 3.76295
# Velocity P-wave (km/s) = 4.84724 7.93732 6.57635
#
# Compressibility (1/GPa) = 0.05265044
#
# Stress axis : x y z
#
# Youngs Moduli (GPa) = 115.15933 15.36455 130.75387
#
# Poissons Ratio (x) = 0.12131 0.48194
# Poissons Ratio (y) = 0.90927 0.36629
# Poissons Ratio (z) = 0.42446 0.04304
#
# Static dielectric constant tensor:
#      x y z
#    x 3.758830 0.000000 0.000000 
#    y 0.000000 3.016120 0.000000 
#    z 0.000000 0.000000 3.779780 
# 
# 
# High freq. dielectric constant tensor:
#      x y z
#    x 1.764520 0.000000 0.000000 
#    y 0.000000 1.688420 0.000000 
#    z 0.000000 0.000000 1.752660 
# 
# From -- ./inp_files/55456.got.cif
#   From: 2010.06.25/outbox.cif.g09.slc.cpg/sg71_28_cif.got.tgz:55456.got - 2010.06.28 04:59:45.
