data_PCOD8289739
_publ_section_title
;
Structure prediction by ZEFSAII (Michael W. Deem and Ramdas Pophale) SiO2 
 PCOD8289739
Probable space group: I M M M
;
_chemical_formula_sum "Si O2"
_cell_formula_units_Z 120
_cell_length_a 28.845363
_cell_length_b 14.346628
_cell_length_c 17.990862
_cell_angle_alpha 90.000000
_cell_angle_beta 90.000000
_cell_angle_gamma 90.000000
_cell_volume 7445.224852
_symmetry_space_group_name_H-M "I M M M"
_symmetry_group_IT_number 71
_symmetry_cell_setting 'orthorhombic'
loop_
_space_group_symop_operation_xyz
x,y,z
-x,-y,z
x,-y,-z
-x,y,-z
-x,-y,-z
x,y,-z
-x,y,z
x,-y,z
1/2+x,1/2+y,1/2+z
1/2-x,1/2-y,1/2+z
1/2+x,1/2-y,1/2-z
1/2-x,1/2+y,1/2-z
1/2-x,1/2-y,1/2-z
1/2+x,1/2+y,1/2-z
1/2-x,1/2+y,1/2+z
1/2+x,1/2-y,1/2+z
loop_
_atom_site_type_symbol
_atom_site_label
_atom_site_fract_x
_atom_site_fract_y
_atom_site_fract_z
Si Si1 0.400956 0.111166 0.916667
Si Si2 0.500000 0.897786 0.911626
Si Si3 0.772045 0.219890 0.087766
Si Si4 0.309248 0.108881 0.161300
Si Si5 0.949231 0.785484 0.912407
Si Si6 0.696924 0.105820 0.333583
Si Si7 0.138955 0.104756 0.088565
Si Si8 0.101492 0.396328 0.915105
O O1 0.451237 0.152785 0.888997
O O2 0.360499 0.144576 0.861443
O O3 0.405327 0.000000 0.916919
O O4 0.389295 0.146456 0.000000
O O5 0.500000 0.000000 0.874439
O O6 0.500000 0.907889 0.000000
O O7 0.727437 0.162481 0.111350
O O8 0.769618 0.322724 0.123731
O O9 0.818025 0.166506 0.116951
O O10 0.772591 0.230878 0.000000
O O11 0.301294 0.130858 0.247101
O O12 0.303910 0.000000 0.143211
O O13 0.909147 0.852451 0.879653
O O14 0.937840 0.677779 0.893499
O O15 0.000000 0.809291 0.878042
O O16 0.951406 0.800223 0.000000
O O17 0.644832 0.118504 0.361824
O O18 0.714169 0.000000 0.348153
O O19 0.144295 0.000000 0.119658
O O20 0.138355 0.104638 0.000000
O O21 0.080484 0.500000 0.905510
O O22 0.118529 0.379635 0.000000
#
# Coordination Sequence:
#
# PCOD8289739 Si02
#       8
#    16   8  16  16  16  16  16  16
#     4   8  13  23  40  62  88 118 151 180 209 252
#     4   7  10  18  36  60  84 114 148 178 206 243
#     4  11  20  32  50  68  88 117 154 192 227 268
#     4  10  20  31  45  68  97 123 146 180 226 276
#     4   9  16  26  41  62  86 111 143 188 236 271
#     4  10  20  33  48  65  89 120 152 186 229 278
#     4   9  17  28  42  62  86 111 141 180 226 274
#     4   9  16  28  46  64  83 113 155 194 226 266
#
# _framework density 16.117712999999998
#
# number of rings (size 3 to 8) (size 9 to 14) (size 15 to 20)
#    0.000    2.733    1.333    2.400    0.000    2.667 
#    0.000    2.667    1.467    0.000    0.000    0.000 
#    0.000    0.000    0.000    0.600    0.000    6.933 
#
# Total GULP energy -743568.320215 kJ/mol
# GULP energy per Si atom -12392.805337 kJ/mol
# Density = 1.608103 g / cm^3
# Si number density = 16.117713 Si / 1000 Ang^3
#
#
#
# Elastic Constant Matrix: (Units=GPa)
#
#
# Indices 1 2 3 4 5 6 
#
# 1 116.9041 42.2051 30.2962 0.0000 0.0000 0.0000
# 2 42.2051 77.1896 29.1512 0.0000 0.0000 0.0000
# 3 30.2962 29.1512 47.7003 0.0000 0.0000 0.0000
# 4 0.0000 0.0000 0.0000 15.7735 0.0000 0.0000
# 5 0.0000 0.0000 0.0000 0.0000 10.2558 0.0000
# 6 0.0000 0.0000 0.0000 0.0000 0.0000 20.0680
#
#
#
# Elastic Compliance Matrix: (Units=1/GPa)
#
#
# Indices 1 2 3 4 5 6 
#
# 1 0.011337 -0.004523 -0.004436 0.000000 0.000000 0.000000
# 2 -0.004523 0.018647 -0.008523 0.000000 0.000000 0.000000
# 3 -0.004436 -0.008523 0.028990 0.000000 0.000000 0.000000
# 4 0.000000 0.000000 0.000000 0.063398 0.000000 0.000000
# 5 0.000000 0.000000 0.000000 0.000000 0.097505 0.000000
# 6 0.000000 0.000000 0.000000 0.000000 0.000000 0.049830
#
#
# Mechanical properties :
#
#
# Convention : Reuss Voigt Hill
#
# Bulk Modulus (GPa) = 41.64994 49.45545 45.55270
# Shear Modulus (GPa) = 15.99105 18.56225 17.27665
#
# Velocity S-wave (km/s) = 3.15324 3.39730 3.27755
# Velocity P-wave (km/s) = 6.25735 6.79260 6.53046
#
# Compressibility (1/GPa) = 0.02400964
#
# Stress axis : x y z
#
# Youngs Moduli (GPa) = 88.20967 53.62787 34.49432
#
# Poissons Ratio (x) = 0.24257 0.15302
# Poissons Ratio (y) = 0.39900 0.29399
# Poissons Ratio (z) = 0.39130 0.45706
#
# Static dielectric constant tensor:
#      x y z
#    x 3.298700 0.000000 0.000000 
#    y 0.000000 3.039970 0.000000 
#    z 0.000000 0.000000 2.780110 
# 
# 
# High freq. dielectric constant tensor:
#      x y z
#    x 1.623500 0.000000 0.000000 
#    y 0.000000 1.596110 0.000000 
#    z 0.000000 0.000000 1.582170 
# 
# From -- ./inp_files/56502.got.cif
#   From: 2010.06.25/outbox.cif.g09.slc.cpg/sg71_29_cif.got.tgz:56502.got - 2010.06.28 04:59:45.
