data_PCOD8289894
_publ_section_title
;
Structure prediction by ZEFSAII (Michael W. Deem and Ramdas Pophale) SiO2 
 PCOD8289894
Probable space group: I M M M
;
_chemical_formula_sum "Si O2"
_cell_formula_units_Z 88
_cell_length_a 14.303712
_cell_length_b 10.401049
_cell_length_c 33.284770
_cell_angle_alpha 90.000000
_cell_angle_beta 90.000000
_cell_angle_gamma 90.000000
_cell_volume 4951.895371
_symmetry_space_group_name_H-M "I M M M"
_symmetry_group_IT_number 71
_symmetry_cell_setting 'orthorhombic'
loop_
_space_group_symop_operation_xyz
x,y,z
-x,-y,z
x,-y,-z
-x,y,-z
-x,-y,-z
x,y,-z
-x,y,z
x,-y,z
1/2+x,1/2+y,1/2+z
1/2-x,1/2-y,1/2+z
1/2+x,1/2-y,1/2-z
1/2-x,1/2+y,1/2-z
1/2-x,1/2-y,1/2-z
1/2+x,1/2+y,1/2-z
1/2-x,1/2+y,1/2+z
1/2+x,1/2-y,1/2+z
loop_
_atom_site_type_symbol
_atom_site_label
_atom_site_fract_x
_atom_site_fract_y
_atom_site_fract_z
Si Si1 0.721569 0.000000 0.454743
Si Si2 0.111082 0.754550 0.230487
Si Si3 0.719772 0.500000 0.130448
Si Si4 0.394324 0.256990 0.545718
Si Si5 0.889727 0.500000 0.184061
Si Si6 0.611438 0.500000 0.683623
Si Si7 0.888355 0.000000 0.093202
Si Si8 0.103628 0.142639 0.688244
O O1 0.660313 0.874332 0.448286
O O2 0.766790 0.000000 0.500000
O O3 0.795374 0.000000 0.417813
O O4 0.141803 0.621279 0.210637
O O5 0.147098 0.764878 0.276946
O O6 0.000000 0.764720 0.232114
O O7 0.151760 0.872172 0.204553
O O8 0.829879 0.500000 0.142844
O O9 0.670433 0.628913 0.149017
O O10 0.390970 0.304027 0.500000
O O11 0.500000 0.229325 0.559655
O O12 0.348960 0.371110 0.572037
O O13 0.000000 0.500000 0.173152
O O14 0.500000 0.500000 0.683174
O O15 0.649211 0.500000 0.638288
O O16 0.000000 0.000000 0.089336
O O17 0.000000 0.190359 0.674767
O O18 0.095102 0.000000 0.708221
#
# Coordination Sequence:
#
# PCOD8289894 Si02
#       8
#     8  16   8  16   8   8   8  16
#     4  10  21  33  45  64  93 125 152 189 245 302
#     4   9  16  30  47  67  94 128 158 188 230 274
#     4  10  20  32  49  72  93 124 162 198 236 283
#     4   9  17  30  45  60  82 118 163 201 234 274
#     4  10  22  30  42  72 109 136 157 189 231 271
#     4   9  15  24  40  59  84 120 163 193 220 260
#     4   9  17  25  40  64  82 110 160 213 238 250
#     4   8  15  32  55  71  83 113 162 201 232 280
#
# _framework density 17.770973000000001
#
# number of rings (size 3 to 8) (size 9 to 14) (size 15 to 20)
#    0.545    2.364    0.909    0.545    2.545    3.636 
#    0.000    0.000    0.000    1.091    0.000    0.000 
#    0.000    0.000    0.000    0.000    0.000   37.455 
#
# Total GULP energy -545132.796232 kJ/mol
# GULP energy per Si atom -12389.381733 kJ/mol
# Density = 1.773053 g / cm^3
# Si number density = 17.770973 Si / 1000 Ang^3
#
#
#
# Elastic Constant Matrix: (Units=GPa)
#
#
# Indices 1 2 3 4 5 6 
#
# 1 32.3802 12.1426 34.1140 0.0000 0.0000 0.0000
# 2 12.1426 109.7534 52.1817 0.0000 0.0000 0.0000
# 3 34.1140 52.1817 142.5248 0.0000 0.0000 0.0000
# 4 0.0000 0.0000 0.0000 11.1355 0.0000 0.0000
# 5 0.0000 0.0000 0.0000 0.0000 22.5295 0.0000
# 6 0.0000 0.0000 0.0000 0.0000 0.0000 -17.3026
#
#
#
# Elastic Compliance Matrix: (Units=1/GPa)
#
#
# Indices 1 2 3 4 5 6 
#
# 1 0.041299 0.000158 -0.009943 0.000000 0.000000 0.000000
# 2 0.000158 0.011032 -0.004077 0.000000 0.000000 0.000000
# 3 -0.009943 -0.004077 0.010889 0.000000 0.000000 0.000000
# 4 0.000000 0.000000 0.000000 0.089803 0.000000 0.000000
# 5 0.000000 0.000000 0.000000 0.000000 0.044386 0.000000
# 6 0.000000 0.000000 0.000000 0.000000 0.000000 -0.057795
#
#
# Mechanical properties :
#
#
# Convention : Reuss Voigt Hill
#
# Bulk Modulus (GPa) = 28.17168 53.50389 40.83778
# Shear Modulus (GPa) = 27.90629 15.68714 21.79672
#
# Velocity S-wave (km/s) = 3.96704 2.97432 3.50599
# Velocity P-wave (km/s) = 6.07209 6.47829 6.27847
#
# Compressibility (1/GPa) = 0.03549664
#
# Stress axis : x y z
#
# Youngs Moduli (GPa) = 24.21350 90.64344 91.83623
#
# Poissons Ratio (x) = -0.01434 0.91314
# Poissons Ratio (y) = -0.00383 0.37442
# Poissons Ratio (z) = 0.24076 0.36956
#
# Static dielectric constant tensor:
#      x y z
#    x 2.843340 0.000000 0.000000 
#    y 0.000000 3.310290 0.000000 
#    z 0.000000 0.000000 3.325600 
# 
# 
# High freq. dielectric constant tensor:
#      x y z
#    x 1.636740 0.000000 0.000000 
#    y 0.000000 1.681270 0.000000 
#    z 0.000000 0.000000 1.682080 
# 
# From -- ./inp_files/70487.got.cif
#   From: 2010.06.25/outbox.cif.g09.slc.cpg/sg71_36_cif.got.tgz:70487.got - 2010.06.28 04:59:45.
