data_PCOD8289131
_publ_section_title
;
Structure prediction by ZEFSAII (Michael W. Deem and Ramdas Pophale) SiO2 
 PCOD8289131
Probable space group: I M M M
;
_chemical_formula_sum "Si O2"
_cell_formula_units_Z 80
_cell_length_a 21.672409
_cell_length_b 14.169918
_cell_length_c 14.096456
_cell_angle_alpha 90.000000
_cell_angle_beta 90.000000
_cell_angle_gamma 90.000000
_cell_volume 4328.968894
_symmetry_space_group_name_H-M "I M M M"
_symmetry_group_IT_number 71
_symmetry_cell_setting 'orthorhombic'
loop_
_space_group_symop_operation_xyz
x,y,z
-x,-y,z
x,-y,-z
-x,y,-z
-x,-y,-z
x,y,-z
-x,y,z
x,-y,z
1/2+x,1/2+y,1/2+z
1/2-x,1/2-y,1/2+z
1/2+x,1/2-y,1/2-z
1/2-x,1/2+y,1/2-z
1/2-x,1/2-y,1/2-z
1/2+x,1/2+y,1/2-z
1/2-x,1/2+y,1/2+z
1/2+x,1/2-y,1/2+z
loop_
_atom_site_type_symbol
_atom_site_label
_atom_site_fract_x
_atom_site_fract_y
_atom_site_fract_z
Si Si1 0.695298 0.390333 0.298959
Si Si2 0.129915 0.272106 0.891529
Si Si3 0.247789 0.107701 0.395273
Si Si4 0.930592 0.390925 0.742265
Si Si5 0.823079 0.388480 0.605562
O O1 0.682854 0.500000 0.321225
O O2 0.640033 0.331331 0.345829
O O3 0.697197 0.369690 0.185645
O O4 0.760509 0.355979 0.343051
O O5 0.192628 0.329553 0.880246
O O6 0.076430 0.328414 0.836974
O O7 0.109202 0.260364 0.000000
O O8 0.218561 0.124174 0.500000
O O9 0.270183 0.000000 0.382542
O O10 0.917208 0.500000 0.767539
O O11 0.882652 0.352603 0.663527
O O12 0.000000 0.378504 0.702959
O O13 0.824347 0.343725 0.500000
O O14 0.825350 0.500000 0.598293
#
# Coordination Sequence:
#
# PCOD8289131 Si02
#       5
#    16  16  16  16  16
#     4  10  19  33  51  74 106 137 166 203 251 305
#     4  11  21  32  50  74 101 133 170 210 252 300
#     4   9  17  29  47  72 102 134 165 199 244 298
#     4  10  21  36  52  72 100 134 172 211 251 298
#     4   9  17  30  49  73 102 135 167 200 243 298
#
# _framework density 18.480152
#
# number of rings (size 3 to 8) (size 9 to 14) (size 15 to 20)
#    0.000    2.200    2.000    1.800    0.000    3.200 
#    0.000    3.000    0.000    0.600    0.000    1.400 
#    0.000    0.000    0.000    6.800    0.000    0.200 
#
# Total GULP energy -495957.279412 kJ/mol
# GULP energy per Si atom -12398.931985 kJ/mol
# Density = 1.843809 g / cm^3
# Si number density = 18.480152 Si / 1000 Ang^3
#
#
#
# Elastic Constant Matrix: (Units=GPa)
#
#
# Indices 1 2 3 4 5 6 
#
# 1 49.5183 25.8930 26.2865 0.0000 0.0000 0.0000
# 2 25.8930 55.5713 29.8269 0.0000 0.0000 0.0000
# 3 26.2865 29.8269 133.9080 0.0000 0.0000 0.0000
# 4 0.0000 0.0000 0.0000 23.7621 0.0000 0.0000
# 5 0.0000 0.0000 0.0000 0.0000 15.8123 0.0000
# 6 0.0000 0.0000 0.0000 0.0000 0.0000 21.9630
#
#
#
# Elastic Compliance Matrix: (Units=1/GPa)
#
#
# Indices 1 2 3 4 5 6 
#
# 1 0.027661 -0.011328 -0.002907 0.000000 0.000000 0.000000
# 2 -0.011328 0.025078 -0.003362 0.000000 0.000000 0.000000
# 3 -0.002907 -0.003362 0.008787 0.000000 0.000000 0.000000
# 4 0.000000 0.000000 0.000000 0.042084 0.000000 0.000000
# 5 0.000000 0.000000 0.000000 0.000000 0.063242 0.000000
# 6 0.000000 0.000000 0.000000 0.000000 0.000000 0.045531
#
#
# Mechanical properties :
#
#
# Convention : Reuss Voigt Hill
#
# Bulk Modulus (GPa) = 37.97667 44.77895 41.37781
# Shear Modulus (GPa) = 19.50423 22.77356 21.13890
#
# Velocity S-wave (km/s) = 3.25224 3.51426 3.38578
# Velocity P-wave (km/s) = 5.89044 6.38358 6.14196
#
# Compressibility (1/GPa) = 0.02633196
#
# Stress axis : x y z
#
# Youngs Moduli (GPa) = 36.15183 39.87588 113.80097
#
# Poissons Ratio (x) = 0.45173 0.33078
# Poissons Ratio (y) = 0.40954 0.38261
# Poissons Ratio (z) = 0.10508 0.13407
#
# Static dielectric constant tensor:
#      x y z
#    x 2.957090 0.000000 0.000000 
#    y 0.000000 3.371530 0.000000 
#    z 0.000000 0.000000 3.808300 
# 
# 
# High freq. dielectric constant tensor:
#      x y z
#    x 1.658250 0.000000 0.000000 
#    y 0.000000 1.712910 0.000000 
#    z 0.000000 0.000000 1.733250 
# 
# From -- ./inp_files/34253.got.cif
#   From: 2010.06.25/outbox.cif.g09.slc.cpg/sg71_18_cif.got.tgz:34253.got - 2010.06.28 04:59:45.
