data_PCOD8290232
_publ_section_title
;
Structure prediction by ZEFSAII (Michael W. Deem and Ramdas Pophale) SiO2 
 PCOD8290232
Probable space group: I M M M
;
_chemical_formula_sum "Si O2"
_cell_formula_units_Z 96
_cell_length_a 20.794218
_cell_length_b 12.214450
_cell_length_c 21.252777
_cell_angle_alpha 90.000000
_cell_angle_beta 90.000000
_cell_angle_gamma 90.000000
_cell_volume 5397.991471
_symmetry_space_group_name_H-M "I M M M"
_symmetry_group_IT_number 71
_symmetry_cell_setting 'orthorhombic'
loop_
_space_group_symop_operation_xyz
x,y,z
-x,-y,z
x,-y,-z
-x,y,-z
-x,-y,-z
x,y,-z
-x,y,z
x,-y,z
1/2+x,1/2+y,1/2+z
1/2-x,1/2-y,1/2+z
1/2+x,1/2-y,1/2-z
1/2-x,1/2+y,1/2-z
1/2-x,1/2-y,1/2-z
1/2+x,1/2+y,1/2-z
1/2-x,1/2+y,1/2+z
1/2+x,1/2-y,1/2+z
loop_
_atom_site_type_symbol
_atom_site_label
_atom_site_fract_x
_atom_site_fract_y
_atom_site_fract_z
Si Si1 0.853781 0.762177 0.764845
Si Si2 0.764644 0.371514 0.677019
Si Si3 0.076534 0.622597 0.865402
Si Si4 0.070044 0.629464 0.000000
Si Si5 0.151870 0.291057 0.426139
Si Si6 0.425308 0.371332 0.150898
Si Si7 0.071019 0.500000 0.425660
O O1 0.813281 0.666924 0.731369
O O2 0.807719 0.844447 0.802744
O O3 0.901894 0.706906 0.813184
O O4 0.896245 0.831238 0.716529
O O5 0.771709 0.500000 0.665816
O O6 0.781681 0.305432 0.612546
O O7 0.101046 0.500000 0.848945
O O8 0.105380 0.660695 0.934092
O O9 0.000000 0.623044 0.869597
O O10 0.060730 0.500000 0.000000
O O11 0.000000 0.686558 0.000000
O O12 0.167283 0.290416 0.500000
O O13 0.113668 0.181498 0.407339
O O14 0.107824 0.392156 0.403321
O O15 0.500000 0.338067 0.146535
O O16 0.415807 0.500000 0.145103
O O17 0.065326 0.500000 0.500000
O O18 0.000000 0.500000 0.394880
#
# Coordination Sequence:
#
# PCOD8290232 Si02
#       7
#    16  16  16   8  16  16   8
#     4  10  20  33  52  77 100 138 181 225 258 313
#     4  10  20  35  52  71 100 140 180 220 265 308
#     4   9  16  29  51  78 107 135 167 216 276 326
#     4   7  12  24  44  70 101 133 155 187 254 324
#     4  10  20  35  55  78 106 140 178 222 272 327
#     4  10  21  36  54  78 109 143 180 222 271 328
#     4   9  16  28  50  78 104 130 163 212 270 321
#
# _framework density 17.784393000000001
#
# number of rings (size 3 to 8) (size 9 to 14) (size 15 to 20)
#    0.000    2.500    0.833    3.000    0.000    1.333 
#    1.500    1.667    0.000    0.000    0.000    0.000 
#    0.000    5.333    0.000    0.000    0.000    0.000 
#
# Total GULP energy -594980.987291 kJ/mol
# GULP energy per Si atom -12395.437235 kJ/mol
# Density = 1.774391 g / cm^3
# Si number density = 17.784393 Si / 1000 Ang^3
#
#
#
# Elastic Constant Matrix: (Units=GPa)
#
#
# Indices 1 2 3 4 5 6 
#
# 1 43.3578 26.4587 29.8368 0.0000 0.0000 0.0000
# 2 26.4587 81.2155 34.6582 0.0000 0.0000 0.0000
# 3 29.8368 34.6582 108.9194 0.0000 0.0000 0.0000
# 4 0.0000 0.0000 0.0000 23.8965 0.0000 0.0000
# 5 0.0000 0.0000 0.0000 0.0000 19.3535 0.0000
# 6 0.0000 0.0000 0.0000 0.0000 0.0000 22.2602
#
#
#
# Elastic Compliance Matrix: (Units=1/GPa)
#
#
# Indices 1 2 3 4 5 6 
#
# 1 0.032171 -0.007776 -0.006338 0.000000 0.000000 0.000000
# 2 -0.007776 0.016127 -0.003002 0.000000 0.000000 0.000000
# 3 -0.006338 -0.003002 0.011873 0.000000 0.000000 0.000000
# 4 0.000000 0.000000 0.000000 0.041847 0.000000 0.000000
# 5 0.000000 0.000000 0.000000 0.000000 0.051670 0.000000
# 6 0.000000 0.000000 0.000000 0.000000 0.000000 0.044923
#
#
# Mechanical properties :
#
#
# Convention : Reuss Voigt Hill
#
# Bulk Modulus (GPa) = 38.55237 46.15555 42.35396
# Shear Modulus (GPa) = 20.70487 22.60463 21.65475
#
# Velocity S-wave (km/s) = 3.41576 3.56903 3.49324
# Velocity P-wave (km/s) = 6.10584 6.55692 6.33539
#
# Compressibility (1/GPa) = 0.02593875
#
# Stress axis : x y z
#
# Youngs Moduli (GPa) = 31.08401 62.00754 84.22809
#
# Poissons Ratio (x) = 0.48216 0.53388
# Poissons Ratio (y) = 0.24170 0.25282
# Poissons Ratio (z) = 0.19702 0.18612
#
# Static dielectric constant tensor:
#      x y z
#    x 3.235400 0.000000 0.000000 
#    y 0.000000 3.156670 0.000000 
#    z 0.000000 0.000000 3.458680 
# 
# 
# High freq. dielectric constant tensor:
#      x y z
#    x 1.673390 0.000000 0.000000 
#    y 0.000000 1.677000 0.000000 
#    z 0.000000 0.000000 1.695920 
# 
# From -- ./inp_files/54916.got.cif
#   From: 2010.06.25/outbox.cif.g09.slc.cpg/sg71_28_cif.got.tgz:54916.got - 2010.06.28 04:59:45.
