data_PCOD8290804
_publ_section_title
;
Structure prediction by ZEFSAII (Michael W. Deem and Ramdas Pophale) SiO2 
 PCOD8290804
Probable space group: I M M M
;
_chemical_formula_sum "Si O2"
_cell_formula_units_Z 120
_cell_length_a 9.072636
_cell_length_b 26.294486
_cell_length_c 27.393572
_cell_angle_alpha 90.000000
_cell_angle_beta 90.000000
_cell_angle_gamma 90.000000
_cell_volume 6535.018762
_symmetry_space_group_name_H-M "I M M M"
_symmetry_group_IT_number 71
_symmetry_cell_setting 'orthorhombic'
loop_
_space_group_symop_operation_xyz
x,y,z
-x,-y,z
x,-y,-z
-x,y,-z
-x,-y,-z
x,y,-z
-x,y,z
x,-y,z
1/2+x,1/2+y,1/2+z
1/2-x,1/2-y,1/2+z
1/2+x,1/2-y,1/2-z
1/2-x,1/2+y,1/2-z
1/2-x,1/2-y,1/2-z
1/2+x,1/2+y,1/2-z
1/2-x,1/2+y,1/2+z
1/2+x,1/2-y,1/2+z
loop_
_atom_site_type_symbol
_atom_site_label
_atom_site_fract_x
_atom_site_fract_y
_atom_site_fract_z
Si Si1 0.171414 0.255942 0.945656
Si Si2 0.827172 0.940474 0.156765
Si Si3 0.173345 0.159725 0.679192
Si Si4 0.165937 0.939622 0.948613
Si Si5 0.327153 0.869307 0.585243
Si Si6 0.674740 0.139500 0.219360
Si Si7 0.675211 0.942500 0.500000
Si Si8 0.328167 0.772590 0.852923
O O1 0.209211 0.315298 0.939327
O O2 0.253497 0.221139 0.905898
O O3 0.000000 0.246285 0.938294
O O4 0.221878 0.239461 0.000000
O O5 0.765258 0.921817 0.103124
O O6 0.728460 0.913415 0.197030
O O7 0.000000 0.926817 0.162274
O O8 0.802494 0.000000 0.164165
O O9 0.237280 0.125068 0.635545
O O10 0.251435 0.143843 0.728474
O O11 0.213537 0.218343 0.669779
O O12 0.000000 0.150485 0.683494
O O13 0.000000 0.918776 0.950359
O O14 0.162423 0.000000 0.947081
O O15 0.245423 0.921764 0.000000
O O16 0.500000 0.874720 0.596590
O O17 0.270514 0.913186 0.548536
O O18 0.500000 0.140182 0.225512
O O19 0.730971 0.184993 0.184406
O O20 0.500000 0.942428 0.500000
O O21 0.738268 0.000000 0.500000
O O22 0.500000 0.778671 0.861467
#
# Coordination Sequence:
#
# PCOD8290804 Si02
#       8
#    16  16  16  16  16  16   8  16
#     4   9  16  28  49  76 104 136 173 213 256 308
#     4   9  18  33  53  76 101 131 168 208 250 297
#     4  10  20  35  55  77 100 130 173 219 264 314
#     4   7  10  20  42  70  94 116 149 194 238 278
#     4   9  16  30  51  76 105 135 171 213 256 305
#     4  11  22  36  53  74 102 135 171 214 264 315
#     4   9  16  28  51  81 111 143 177 213 254 305
#     4   9  20  35  51  75 104 134 170 214 265 317
#
# _framework density 18.36261
#
# number of rings (size 3 to 8) (size 9 to 14) (size 15 to 20)
#    0.000    2.867    0.667    2.400    0.000    2.133 
#    0.000    1.667    0.000    6.000    0.000    1.867 
#    0.000    0.000    0.000    0.000    0.000    0.000 
#
# Total GULP energy -743581.427185 kJ/mol
# GULP energy per Si atom -12393.023786 kJ/mol
# Density = 1.832082 g / cm^3
# Si number density = 18.362610 Si / 1000 Ang^3
#
#
#
# Elastic Constant Matrix: (Units=GPa)
#
#
# Indices 1 2 3 4 5 6 
#
# 1 48.9189 28.2820 57.9756 0.0000 0.0000 0.0000
# 2 28.2820 62.7694 56.6350 0.0000 0.0000 0.0000
# 3 57.9756 56.6350 187.6738 0.0000 0.0000 0.0000
# 4 0.0000 0.0000 0.0000 19.9827 0.0000 0.0000
# 5 0.0000 0.0000 0.0000 0.0000 27.4563 0.0000
# 6 0.0000 0.0000 0.0000 0.0000 0.0000 19.5930
#
#
#
# Elastic Compliance Matrix: (Units=1/GPa)
#
#
# Indices 1 2 3 4 5 6 
#
# 1 0.035134 -0.008297 -0.008350 0.000000 0.000000 0.000000
# 2 -0.008297 0.023851 -0.004635 0.000000 0.000000 0.000000
# 3 -0.008350 -0.004635 0.009306 0.000000 0.000000 0.000000
# 4 0.000000 0.000000 0.000000 0.050043 0.000000 0.000000
# 5 0.000000 0.000000 0.000000 0.000000 0.036422 0.000000
# 6 0.000000 0.000000 0.000000 0.000000 0.000000 0.051039
#
#
# Mechanical properties :
#
#
# Convention : Reuss Voigt Hill
#
# Bulk Modulus (GPa) = 38.86562 65.01637 51.94100
# Shear Modulus (GPa) = 19.46018 23.83768 21.64893
#
# Velocity S-wave (km/s) = 3.25895 3.60691 3.43734
# Velocity P-wave (km/s) = 5.94748 7.26844 6.64089
#
# Compressibility (1/GPa) = 0.02572968
#
# Stress axis : x y z
#
# Youngs Moduli (GPa) = 28.46208 41.92637 107.45210
#
# Poissons Ratio (x) = 0.34785 0.89722
# Poissons Ratio (y) = 0.23614 0.49801
# Poissons Ratio (z) = 0.23766 0.19432
#
# Static dielectric constant tensor:
#      x y z
#    x 3.105620 0.000000 0.000000 
#    y 0.000000 3.217230 0.000000 
#    z 0.000000 0.000000 3.746040 
# 
# 
# High freq. dielectric constant tensor:
#      x y z
#    x 1.682520 0.000000 0.000000 
#    y 0.000000 1.685730 0.000000 
#    z 0.000000 0.000000 1.731320 
# 
# From -- ./inp_files/63804.got.cif
#   From: 2010.06.25/outbox.cif.g09.slc.cpg/sg71_32_cif.got.tgz:63804.got - 2010.06.28 04:59:45.
