data_PCOD8290717
_publ_section_title
;
Structure prediction by ZEFSAII (Michael W. Deem and Ramdas Pophale) SiO2 
 PCOD8290717
Probable space group: I M M M
;
_chemical_formula_sum "Si O2"
_cell_formula_units_Z 64
_cell_length_a 11.528372
_cell_length_b 28.099920
_cell_length_c 9.581219
_cell_angle_alpha 90.000000
_cell_angle_beta 90.000000
_cell_angle_gamma 90.000000
_cell_volume 3103.800741
_symmetry_space_group_name_H-M "I M M M"
_symmetry_group_IT_number 71
_symmetry_cell_setting 'orthorhombic'
loop_
_space_group_symop_operation_xyz
x,y,z
-x,-y,z
x,-y,-z
-x,y,-z
-x,-y,-z
x,y,-z
-x,y,z
x,-y,z
1/2+x,1/2+y,1/2+z
1/2-x,1/2-y,1/2+z
1/2+x,1/2-y,1/2-z
1/2-x,1/2+y,1/2-z
1/2-x,1/2-y,1/2-z
1/2+x,1/2+y,1/2-z
1/2-x,1/2+y,1/2+z
1/2+x,1/2-y,1/2+z
loop_
_atom_site_type_symbol
_atom_site_label
_atom_site_fract_x
_atom_site_fract_y
_atom_site_fract_z
Si Si1 0.369368 0.295876 0.151479
Si Si2 0.000000 0.387412 0.838921
Si Si3 0.770995 0.444776 0.838773
Si Si4 0.637016 0.623155 0.655219
Si Si5 0.500000 0.792355 0.836496
O O1 0.500000 0.315885 0.130278
O O2 0.309582 0.329937 0.266654
O O3 0.384239 0.240134 0.198817
O O4 0.304794 0.299700 0.000000
O O5 0.110375 0.418700 0.798912
O O6 0.000000 0.339143 0.752997
O O7 0.000000 0.373167 0.000000
O O8 0.786384 0.500000 0.804996
O O9 0.670092 0.423878 0.741557
O O10 0.737389 0.436532 0.000000
O O11 0.692097 0.621615 0.500000
O O12 0.500000 0.625725 0.641835
O O13 0.500000 0.804901 0.000000
#
# Coordination Sequence:
#
# PCOD8290717 Si02
#       5
#    16   8  16  16   8
#     4   7  13  28  51  77 109 146 180 216 260 322
#     4  10  21  38  60  84 110 143 189 242 283 324
#     4  10  22  40  60  81 108 147 193 236 281 334
#     4  10  20  34  56  86 118 147 180 228 282 334
#     4   8  16  31  55  85 115 147 184 226 273 333
#
# _framework density 20.619879999999998
#
# number of rings (size 3 to 8) (size 9 to 14) (size 15 to 20)
#    0.750    2.250    0.000    1.125    0.000    6.000 
#    0.000    3.750    0.000    2.250    0.000    0.000 
#    0.000    0.000    0.000    0.000    0.000    0.000 
#
# Total GULP energy -396462.706933 kJ/mol
# GULP energy per Si atom -12389.459592 kJ/mol
# Density = 2.057295 g / cm^3
# Si number density = 20.619880 Si / 1000 Ang^3
#
#
#
# Elastic Constant Matrix: (Units=GPa)
#
#
# Indices 1 2 3 4 5 6 
#
# 1 15.9400 29.1960 22.7158 0.0005 0.0006 0.0005
# 2 29.1960 177.6094 100.5366 -0.0004 -0.0004 -0.0003
# 3 22.7158 100.5366 132.5228 0.0021 0.0040 0.0020
# 4 0.0005 -0.0004 0.0021 39.3499 0.0003 0.0002
# 5 0.0006 -0.0004 0.0040 0.0003 13.5671 0.0001
# 6 0.0005 -0.0003 0.0020 0.0002 0.0001 28.7764
#
#
#
# Elastic Compliance Matrix: (Units=1/GPa)
#
#
# Indices 1 2 3 4 5 6 
#
# 1 0.094038 -0.011101 -0.007697 -0.000001 -0.000002 -0.000001
# 2 -0.011101 0.011178 -0.006577 0.000001 0.000003 0.000001
# 3 -0.007697 -0.006577 0.013855 -0.000001 -0.000004 -0.000001
# 4 -0.000001 0.000001 -0.000001 0.025413 -0.000001 0.000000
# 5 -0.000002 0.000003 -0.000004 -0.000001 0.073708 0.000000
# 6 -0.000001 0.000001 -0.000001 0.000000 0.000000 0.034751
#
#
# Mechanical properties :
#
#
# Convention : Reuss Voigt Hill
#
# Bulk Modulus (GPa) = 14.63711 70.10766 42.37239
# Shear Modulus (GPa) = 15.31543 27.91359 21.61451
#
# Velocity S-wave (km/s) = 2.72830 3.68329 3.24116
# Velocity P-wave (km/s) = 4.12781 7.22237 5.88224
#
# Compressibility (1/GPa) = 0.06831950
#
# Stress axis : x y z
#
# Youngs Moduli (GPa) = 10.63401 89.45842 72.17497
#
# Poissons Ratio (x) = 0.99308 0.55556
# Poissons Ratio (y) = 0.11805 0.47473
# Poissons Ratio (z) = 0.08185 0.58841
#
# Static dielectric constant tensor:
#      x y z
#    x 3.392930 0.000000 0.000000 
#    y 0.000000 3.706950 0.000000 
#    z 0.000000 0.000000 3.955240 
# 
# 
# High freq. dielectric constant tensor:
#      x y z
#    x 1.773720 0.000000 0.000000 
#    y 0.000000 1.807040 0.000000 
#    z 0.000000 0.000000 1.808090 
# 
# From -- ./inp_files/5897.got.cif
#   From: 2010.06.25/outbox.cif.g09.slc.cpg/sg71_3_cif.got.tgz:5897.got - 2010.06.28 04:59:45.
