data_PCOD8290748
_publ_section_title
;
Structure prediction by ZEFSAII (Michael W. Deem and Ramdas Pophale) SiO2 
 PCOD8290748
Probable space group: I M M M
;
_chemical_formula_sum "Si O2"
_cell_formula_units_Z 104
_cell_length_a 28.598153
_cell_length_b 8.853947
_cell_length_c 24.085720
_cell_angle_alpha 90.000000
_cell_angle_beta 90.000000
_cell_angle_gamma 90.000000
_cell_volume 6098.661607
_symmetry_space_group_name_H-M "I M M M"
_symmetry_group_IT_number 71
_symmetry_cell_setting 'orthorhombic'
loop_
_space_group_symop_operation_xyz
x,y,z
-x,-y,z
x,-y,-z
-x,y,-z
-x,-y,-z
x,y,-z
-x,y,z
x,-y,z
1/2+x,1/2+y,1/2+z
1/2-x,1/2-y,1/2+z
1/2+x,1/2-y,1/2-z
1/2-x,1/2+y,1/2-z
1/2-x,1/2-y,1/2-z
1/2+x,1/2+y,1/2-z
1/2-x,1/2+y,1/2+z
1/2+x,1/2-y,1/2+z
loop_
_atom_site_type_symbol
_atom_site_label
_atom_site_fract_x
_atom_site_fract_y
_atom_site_fract_z
Si Si1 0.553421 0.322484 0.152559
Si Si2 0.554273 0.175984 0.268183
Si Si3 0.172093 0.325686 0.066178
Si Si4 0.086626 0.822441 0.123603
Si Si5 0.000000 0.328970 0.065678
Si Si6 0.625866 0.320648 0.062878
Si Si7 0.226840 0.821442 0.438897
O O1 0.500000 0.284065 0.137096
O O2 0.560672 0.500000 0.161427
O O3 0.568851 0.240051 0.208621
O O4 0.585551 0.256704 0.103001
O O5 0.500000 0.210114 0.280998
O O6 0.585364 0.258343 0.314197
O O7 0.565364 0.000000 0.269388
O O8 0.161063 0.500000 0.081099
O O9 0.135967 0.217207 0.096377
O O10 0.223811 0.274916 0.089556
O O11 0.169595 0.303113 0.000000
O O12 0.046112 0.752601 0.086367
O O13 0.079784 0.000000 0.125517
O O14 0.000000 0.500000 0.088848
O O15 0.000000 0.326924 0.000000
O O16 0.622070 0.500000 0.060922
O O17 0.677101 0.272360 0.088568
O O18 0.619038 0.257893 0.000000
O O19 0.226080 0.749306 0.500000
O O20 0.228045 0.000000 0.444535
#
# Coordination Sequence:
#
# PCOD8290748 Si02
#       7
#    16  16  16  16   8  16  16
#     4   9  17  28  45  72 104 131 158 197 241 284
#     4  10  20  35  53  67  86 122 168 206 238 285
#     4   9  17  30  48  69  94 125 161 199 238 285
#     4  12  23  33  49  71  96 123 155 201 248 289
#     4  11  23  37  51  69  97 131 162 191 230 285
#     4   8  13  23  43  73 105 133 160 192 234 284
#     4   7  11  22  42  67  93 124 163 199 229 272
#
# _framework density 17.052923
#
# number of rings (size 3 to 8) (size 9 to 14) (size 15 to 20)
#    0.000    2.692    0.769    4.385    0.000    3.692 
#    0.000    1.538    0.000    2.308    0.000    4.308 
#    0.000    0.000    0.000    0.000    0.000    0.000 
#
# Total GULP energy -644339.216112 kJ/mol
# GULP energy per Si atom -12391.138771 kJ/mol
# Density = 1.701411 g / cm^3
# Si number density = 17.052923 Si / 1000 Ang^3
#
#
#
# Elastic Constant Matrix: (Units=GPa)
#
#
# Indices 1 2 3 4 5 6 
#
# 1 132.7766 37.7697 65.9297 0.0000 0.0000 0.0000
# 2 37.7697 65.8100 39.2767 0.0000 0.0000 0.0000
# 3 65.9297 39.2767 90.2947 0.0000 0.0000 0.0000
# 4 0.0000 0.0000 0.0000 18.5761 0.0000 0.0000
# 5 0.0000 0.0000 0.0000 0.0000 9.2325 0.0000
# 6 0.0000 0.0000 0.0000 0.0000 0.0000 6.4644
#
#
#
# Elastic Compliance Matrix: (Units=1/GPa)
#
#
# Indices 1 2 3 4 5 6 
#
# 1 0.012057 -0.002250 -0.007825 0.000000 0.000000 0.000000
# 2 -0.002250 0.020943 -0.007467 0.000000 0.000000 0.000000
# 3 -0.007825 -0.007467 0.020036 0.000000 0.000000 0.000000
# 4 0.000000 0.000000 0.000000 0.053833 0.000000 0.000000
# 5 0.000000 0.000000 0.000000 0.000000 0.108313 0.000000
# 6 0.000000 0.000000 0.000000 0.000000 0.000000 0.154693
#
#
# Mechanical properties :
#
#
# Convention : Reuss Voigt Hill
#
# Bulk Modulus (GPa) = 55.70201 63.87039 59.78620
# Shear Modulus (GPa) = 12.16718 16.58163 14.37440
#
# Velocity S-wave (km/s) = 2.67403 3.12166 2.90647
# Velocity P-wave (km/s) = 6.50146 7.10834 6.81166
#
# Compressibility (1/GPa) = 0.01795267
#
# Stress axis : x y z
#
# Youngs Moduli (GPa) = 82.94097 47.74875 49.90918
#
# Poissons Ratio (x) = 0.10742 0.39053
# Poissons Ratio (y) = 0.18658 0.37269
# Poissons Ratio (z) = 0.64900 0.35655
#
# Static dielectric constant tensor:
#      x y z
#    x 3.562940 0.000000 0.000000 
#    y 0.000000 2.930040 0.000000 
#    z 0.000000 0.000000 3.126450 
# 
# 
# High freq. dielectric constant tensor:
#      x y z
#    x 1.664960 0.000000 0.000000 
#    y 0.000000 1.631190 0.000000 
#    z 0.000000 0.000000 1.635550 
# 
# From -- ./inp_files/61971.got.cif
#   From: 2010.06.25/outbox.cif.g09.slc.cpg/sg71_31_cif.got.tgz:61971.got - 2010.06.28 04:59:45.
