data_PCOD8290629
_publ_section_title
;
Structure prediction by ZEFSAII (Michael W. Deem and Ramdas Pophale) SiO2 
 PCOD8290629
Probable space group: I M M M
;
_chemical_formula_sum "Si O2"
_cell_formula_units_Z 72
_cell_length_a 24.346775
_cell_length_b 15.259011
_cell_length_c 10.179674
_cell_angle_alpha 90.000000
_cell_angle_beta 90.000000
_cell_angle_gamma 90.000000
_cell_volume 3781.827351
_symmetry_space_group_name_H-M "I M M M"
_symmetry_group_IT_number 71
_symmetry_cell_setting 'orthorhombic'
loop_
_space_group_symop_operation_xyz
x,y,z
-x,-y,z
x,-y,-z
-x,y,-z
-x,-y,-z
x,y,-z
-x,y,z
x,-y,z
1/2+x,1/2+y,1/2+z
1/2-x,1/2-y,1/2+z
1/2+x,1/2-y,1/2-z
1/2-x,1/2+y,1/2-z
1/2-x,1/2-y,1/2-z
1/2+x,1/2+y,1/2-z
1/2-x,1/2+y,1/2+z
1/2+x,1/2-y,1/2+z
loop_
_atom_site_type_symbol
_atom_site_label
_atom_site_fract_x
_atom_site_fract_y
_atom_site_fract_z
Si Si1 0.688963 0.720340 0.000000
Si Si2 0.128377 0.171501 0.756542
Si Si3 0.061489 0.656148 0.268117
Si Si4 0.564834 0.500000 0.656452
Si Si5 0.315321 0.250939 0.500000
Si Si6 0.366137 0.096411 0.000000
Si Si7 0.599892 0.096890 0.500000
O O1 0.664180 0.669205 0.124326
O O2 0.677154 0.824670 0.000000
O O3 0.754009 0.714834 0.000000
O O4 0.082215 0.245117 0.745953
O O5 0.171303 0.190361 0.873273
O O6 0.095169 0.082787 0.780321
O O7 0.097300 0.601378 0.369991
O O8 0.000000 0.659171 0.322512
O O9 0.062103 0.609643 0.127271
O O10 0.500000 0.500000 0.693020
O O11 0.572175 0.500000 0.500000
O O12 0.349861 0.162764 0.500000
O O13 0.337210 0.000000 0.000000
O O14 0.625243 0.000000 0.500000
#
# Coordination Sequence:
#
# PCOD8290629 Si02
#       7
#     8  16  16   8   8   8   8
#     4  10  22  40  62  81 119 159 191 250 304 339
#     4  10  21  39  59  89 118 149 203 241 292 365
#     4  10  20  34  55  79 112 151 179 222 282 337
#     4  11  22  39  65  93 125 157 199 261 310 368
#     4  10  20  40  62  79 113 157 197 242 290 349
#     4  10  21  36  53  81 113 144 189 229 271 344
#     4  10  21  34  51  79 111 136 187 233 269 334
#
# _framework density 19.038414
#
# number of rings (size 3 to 8) (size 9 to 14) (size 15 to 20)
#    0.000    1.889    1.111    2.667    0.000    3.111 
#    4.000    2.222    0.000    0.000    0.000    0.000 
#    0.000    0.000    0.000    0.000    0.000    0.000 
#
# Total GULP energy -446407.467350 kJ/mol
# GULP energy per Si atom -12400.207426 kJ/mol
# Density = 1.899508 g / cm^3
# Si number density = 19.038414 Si / 1000 Ang^3
#
#
#
# Elastic Constant Matrix: (Units=GPa)
#
#
# Indices 1 2 3 4 5 6 
#
# 1 110.8774 38.8712 31.9767 0.0000 0.0000 0.0000
# 2 38.8712 129.4051 37.8755 0.0000 0.0000 0.0000
# 3 31.9767 37.8755 122.5909 0.0000 0.0000 0.0000
# 4 0.0000 0.0000 0.0000 -18.3758 0.0000 0.0000
# 5 0.0000 0.0000 0.0000 0.0000 -6.5844 0.0000
# 6 0.0000 0.0000 0.0000 0.0000 0.0000 16.9480
#
#
#
# Elastic Compliance Matrix: (Units=1/GPa)
#
#
# Indices 1 2 3 4 5 6 
#
# 1 0.010483 -0.002582 -0.001937 0.000000 0.000000 0.000000
# 2 -0.002582 0.009132 -0.002148 0.000000 0.000000 0.000000
# 3 -0.001937 -0.002148 0.009326 0.000000 0.000000 0.000000
# 4 0.000000 0.000000 0.000000 -0.054420 0.000000 0.000000
# 5 0.000000 0.000000 0.000000 0.000000 -0.151875 0.000000
# 6 0.000000 0.000000 0.000000 0.000000 0.000000 0.059004
#
#
# Mechanical properties :
#
#
# Convention : Reuss Voigt Hill
#
# Bulk Modulus (GPa) = 64.07131 64.48001 64.27566
# Shear Modulus (GPa) = -50.09315 15.34091 -17.37612
#
# Velocity S-wave (km/s) = -5.13505 2.84172 -3.02435
# Velocity P-wave (km/s) = 1.19648 6.68648 4.65175
#
# Compressibility (1/GPa) = 0.01560761
#
# Stress axis : x y z
#
# Youngs Moduli (GPa) = 95.39557 109.50582 107.22754
#
# Poissons Ratio (x) = 0.28274 0.20765
# Poissons Ratio (y) = 0.24631 0.23031
# Poissons Ratio (z) = 0.18474 0.23521
#
# Static dielectric constant tensor:
#      x y z
#    x 3.276210 0.000000 0.000000 
#    y 0.000000 3.467630 0.000000 
#    z 0.000000 0.000000 3.818260 
# 
# 
# High freq. dielectric constant tensor:
#      x y z
#    x 1.731180 0.000000 0.000000 
#    y 0.000000 1.740750 0.000000 
#    z 0.000000 0.000000 1.757130 
# 
# From -- ./inp_files/14395.got.cif
#   From: 2010.06.25/outbox.cif.g09.slc.cpg/sg71_8_cif.got.tgz:14395.got - 2010.06.28 04:59:45.
