data_PCOD8290633
_publ_section_title
;
Structure prediction by ZEFSAII (Michael W. Deem and Ramdas Pophale) SiO2 
 PCOD8290633
Probable space group: I M M M
;
_chemical_formula_sum "Si O2"
_cell_formula_units_Z 64
_cell_length_a 23.628758
_cell_length_b 7.700088
_cell_length_c 18.814513
_cell_angle_alpha 90.000000
_cell_angle_beta 90.000000
_cell_angle_gamma 90.000000
_cell_volume 3423.178646
_symmetry_space_group_name_H-M "I M M M"
_symmetry_group_IT_number 71
_symmetry_cell_setting 'orthorhombic'
loop_
_space_group_symop_operation_xyz
x,y,z
-x,-y,z
x,-y,-z
-x,y,-z
-x,-y,-z
x,y,-z
-x,y,z
x,-y,z
1/2+x,1/2+y,1/2+z
1/2-x,1/2-y,1/2+z
1/2+x,1/2-y,1/2-z
1/2-x,1/2+y,1/2-z
1/2-x,1/2-y,1/2-z
1/2+x,1/2+y,1/2-z
1/2-x,1/2+y,1/2+z
1/2+x,1/2-y,1/2+z
loop_
_atom_site_type_symbol
_atom_site_label
_atom_site_fract_x
_atom_site_fract_y
_atom_site_fract_z
Si Si1 0.836862 0.307084 0.418748
Si Si2 0.063775 0.797152 0.322885
Si Si3 0.933979 0.801656 0.840130
Si Si4 0.368887 0.000000 0.415700
Si Si5 0.741739 0.500000 0.915722
O O1 0.852186 0.259843 0.500000
O O2 0.810431 0.500000 0.413433
O O3 0.894341 0.305332 0.373963
O O4 0.791156 0.171066 0.388036
O O5 0.079617 0.756686 0.241497
O O6 0.000000 0.733427 0.338529
O O7 0.069159 0.000000 0.338646
O O8 0.899103 0.674275 0.889977
O O9 0.000000 0.774401 0.855647
O O10 0.916504 0.000000 0.857339
O O11 0.369670 0.000000 0.500000
O O12 0.305043 0.000000 0.384747
O O13 0.744993 0.500000 0.000000
#
# Coordination Sequence:
#
# PCOD8290633 Si02
#       5
#    16  16  16   8   8
#     4  10  20  34  55  80 110 149 188 227 270 315
#     4   9  18  34  57  81 111 150 183 219 273 329
#     4   9  20  38  58  83 115 145 174 219 279 335
#     4  11  23  38  61  85 105 141 189 227 273 335
#     4   9  20  39  55  75 111 147 185 232 272 312
#
# _framework density 18.696072999999998
#
# number of rings (size 3 to 8) (size 9 to 14) (size 15 to 20)
#    0.000    2.500    1.250    1.875    1.750    3.500 
#    0.000    7.500    0.000    0.000    0.000    0.000 
#    0.000    0.000    0.000    0.000    0.000    0.000 
#
# Total GULP energy -396800.835452 kJ/mol
# GULP energy per Si atom -12400.026108 kJ/mol
# Density = 1.865352 g / cm^3
# Si number density = 18.696073 Si / 1000 Ang^3
#
#
#
# Elastic Constant Matrix: (Units=GPa)
#
#
# Indices 1 2 3 4 5 6 
#
# 1 120.4261 72.4257 56.0846 0.0000 0.0000 0.0000
# 2 72.4257 128.6787 48.3077 0.0000 0.0000 0.0000
# 3 56.0846 48.3077 68.6352 0.0000 0.0000 0.0000
# 4 0.0000 0.0000 0.0000 29.6480 0.0000 0.0000
# 5 0.0000 0.0000 0.0000 0.0000 0.2953 0.0000
# 6 0.0000 0.0000 0.0000 0.0000 0.0000 21.0089
#
#
#
# Elastic Compliance Matrix: (Units=1/GPa)
#
#
# Indices 1 2 3 4 5 6 
#
# 1 0.015841 -0.005513 -0.009064 0.000000 0.000000 0.000000
# 2 -0.005513 0.012481 -0.004279 0.000000 0.000000 0.000000
# 3 -0.009064 -0.004279 0.024988 0.000000 0.000000 0.000000
# 4 0.000000 0.000000 0.000000 0.033729 0.000000 0.000000
# 5 0.000000 0.000000 0.000000 0.000000 3.386697 0.000000
# 6 0.000000 0.000000 0.000000 0.000000 0.000000 0.047599
#
#
# Mechanical properties :
#
#
# Convention : Reuss Voigt Hill
#
# Bulk Modulus (GPa) = 64.11460 74.59732 69.35596
# Shear Modulus (GPa) = 1.40282 19.58523 10.49402
#
# Velocity S-wave (km/s) = 0.86716 3.24011 2.37174
# Velocity P-wave (km/s) = 5.94728 7.34741 6.68411
#
# Compressibility (1/GPa) = 0.01559707
#
# Stress axis : x y z
#
# Youngs Moduli (GPa) = 63.12874 80.12263 40.01900
#
# Poissons Ratio (x) = 0.44173 0.36272
# Poissons Ratio (y) = 0.34804 0.17126
# Poissons Ratio (z) = 0.57218 0.34288
#
# Static dielectric constant tensor:
#      x y z
#    x 3.449140 0.000000 0.000000 
#    y 0.000000 3.506060 0.000000 
#    z 0.000000 0.000000 3.231910 
# 
# 
# High freq. dielectric constant tensor:
#      x y z
#    x 1.717250 0.000000 0.000000 
#    y 0.000000 1.738970 0.000000 
#    z 0.000000 0.000000 1.708060 
# 
# From -- ./inp_files/7498.got.cif
#   From: 2010.06.25/outbox.cif.g09.slc.cpg/sg71_4_cif.got.tgz:7498.got - 2010.06.28 04:59:45.
