data_PCOD8290141
_publ_section_title
;
Structure prediction by ZEFSAII (Michael W. Deem and Ramdas Pophale) SiO2 
 PCOD8290141
Probable space group: I M M M
;
_chemical_formula_sum "Si O2"
_cell_formula_units_Z 88
_cell_length_a 20.487617
_cell_length_b 9.473275
_cell_length_c 24.190062
_cell_angle_alpha 90.000000
_cell_angle_beta 90.000000
_cell_angle_gamma 90.000000
_cell_volume 4694.924069
_symmetry_space_group_name_H-M "I M M M"
_symmetry_group_IT_number 71
_symmetry_cell_setting 'orthorhombic'
loop_
_space_group_symop_operation_xyz
x,y,z
-x,-y,z
x,-y,-z
-x,y,-z
-x,-y,-z
x,y,-z
-x,y,z
x,-y,z
1/2+x,1/2+y,1/2+z
1/2-x,1/2-y,1/2+z
1/2+x,1/2-y,1/2-z
1/2-x,1/2+y,1/2-z
1/2-x,1/2-y,1/2-z
1/2+x,1/2+y,1/2-z
1/2-x,1/2+y,1/2+z
1/2+x,1/2-y,1/2+z
loop_
_atom_site_type_symbol
_atom_site_label
_atom_site_fract_x
_atom_site_fract_y
_atom_site_fract_z
Si Si1 0.749633 0.658355 0.436364
Si Si2 0.375947 0.162743 0.438944
Si Si3 0.570119 0.165328 0.674618
Si Si4 0.127694 0.666411 0.372845
Si Si5 0.681393 0.167757 0.754431
Si Si6 0.500000 0.831447 0.935665
O O1 0.768323 0.656651 0.500000
O O2 0.735242 0.500000 0.414774
O O3 0.687638 0.751280 0.423221
O O4 0.810268 0.728674 0.405098
O O5 0.403395 0.205033 0.500000
O O6 0.428047 0.195967 0.391288
O O7 0.355610 0.000000 0.438332
O O8 0.500000 0.228118 0.695247
O O9 0.633848 0.225635 0.705673
O O10 0.570009 0.000000 0.686852
O O11 0.125062 0.500000 0.380992
O O12 0.139209 0.706124 0.308917
O O13 0.062112 0.728762 0.401020
O O14 0.750000 0.250000 0.750000
O O15 0.696049 0.000000 0.751101
O O16 0.500000 0.000000 0.935703
O O17 0.500000 0.778280 0.000000
#
# Coordination Sequence:
#
# PCOD8290141 Si02
#       6
#    16  16  16  16  16   8
#     4   9  16  27  44  66  93 122 151 186 229 275
#     4   9  17  29  46  68  91 117 153 193 232 274
#     4   9  18  31  48  70  95 122 154 194 237 278
#     4   9  17  27  43  67  94 124 157 193 236 285
#     4  10  20  33  51  73  97 126 161 200 240 286
#     4   9  16  26  42  68 101 129 156 198 248 293
#
# _framework density 18.743646999999999
#
# number of rings (size 3 to 8) (size 9 to 14) (size 15 to 20)
#    0.000    2.818    0.000    1.636    1.273    2.545 
#    0.000    1.818    0.000    2.182    0.000    4.455 
#    0.000    5.818    0.000    0.000    0.000    0.000 
#
# Total GULP energy -545117.454337 kJ/mol
# GULP energy per Si atom -12389.033053 kJ/mol
# Density = 1.870099 g / cm^3
# Si number density = 18.743647 Si / 1000 Ang^3
#
#
#
# Elastic Constant Matrix: (Units=GPa)
#
#
# Indices 1 2 3 4 5 6 
#
# 1 139.7717 27.6185 73.4297 0.0000 0.0000 0.0000
# 2 27.6185 21.3921 21.3069 0.0000 0.0000 0.0000
# 3 73.4297 21.3069 104.6583 0.0000 0.0000 0.0000
# 4 0.0000 0.0000 0.0000 13.9928 0.0000 0.0000
# 5 0.0000 0.0000 0.0000 0.0000 20.2090 0.0000
# 6 0.0000 0.0000 0.0000 0.0000 0.0000 14.0291
#
#
#
# Elastic Compliance Matrix: (Units=1/GPa)
#
#
# Indices 1 2 3 4 5 6 
#
# 1 0.012684 -0.009423 -0.006981 0.000000 0.000000 0.000000
# 2 -0.009423 0.065636 -0.006751 0.000000 0.000000 0.000000
# 3 -0.006981 -0.006751 0.015827 0.000000 0.000000 0.000000
# 4 0.000000 0.000000 0.000000 0.071465 0.000000 0.000000
# 5 0.000000 0.000000 0.000000 0.000000 0.049483 0.000000
# 6 0.000000 0.000000 0.000000 0.000000 0.000000 0.071280
#
#
# Mechanical properties :
#
#
# Convention : Reuss Voigt Hill
#
# Bulk Modulus (GPa) = 20.90428 56.72581 38.81505
# Shear Modulus (GPa) = 14.34183 19.21065 16.77624
#
# Velocity S-wave (km/s) = 2.76915 3.20490 2.99496
# Velocity P-wave (km/s) = 4.62614 6.63513 5.71953
#
# Compressibility (1/GPa) = 0.04783709
#
# Stress axis : x y z
#
# Youngs Moduli (GPa) = 78.84061 15.23560 63.18209
#
# Poissons Ratio (x) = 0.14356 0.44107
# Poissons Ratio (y) = 0.74288 0.42657
# Poissons Ratio (z) = 0.55037 0.10286
#
# Static dielectric constant tensor:
#      x y z
#    x 3.607650 0.000000 0.000000 
#    y 0.000000 2.997480 0.000000 
#    z 0.000000 0.000000 3.706070 
# 
# 
# High freq. dielectric constant tensor:
#      x y z
#    x 1.734730 0.000000 0.000000 
#    y 0.000000 1.661890 0.000000 
#    z 0.000000 0.000000 1.744720 
# 
# From -- ./inp_files/61120.got.cif
#   From: 2010.06.25/outbox.cif.g09.slc.cpg/sg71_31_cif.got.tgz:61120.got - 2010.06.28 04:59:45.
