data_PCOD8290380
_publ_section_title
;
Structure prediction by ZEFSAII (Michael W. Deem and Ramdas Pophale) SiO2 
 PCOD8290380
Probable space group: I M M M
;
_chemical_formula_sum "Si O2"
_cell_formula_units_Z 112
_cell_length_a 15.626187
_cell_length_b 14.444804
_cell_length_c 26.859941
_cell_angle_alpha 90.000000
_cell_angle_beta 90.000000
_cell_angle_gamma 90.000000
_cell_volume 6062.750903
_symmetry_space_group_name_H-M "I M M M"
_symmetry_group_IT_number 71
_symmetry_cell_setting 'orthorhombic'
loop_
_space_group_symop_operation_xyz
x,y,z
-x,-y,z
x,-y,-z
-x,y,-z
-x,-y,-z
x,y,-z
-x,y,z
x,-y,z
1/2+x,1/2+y,1/2+z
1/2-x,1/2-y,1/2+z
1/2+x,1/2-y,1/2-z
1/2-x,1/2+y,1/2-z
1/2-x,1/2-y,1/2-z
1/2+x,1/2+y,1/2-z
1/2-x,1/2+y,1/2+z
1/2+x,1/2-y,1/2+z
loop_
_atom_site_type_symbol
_atom_site_label
_atom_site_fract_x
_atom_site_fract_y
_atom_site_fract_z
Si Si1 0.290576 0.746619 0.056425
Si Si2 0.169273 0.105889 0.090687
Si Si3 0.193329 0.892466 0.295739
Si Si4 0.901137 0.256862 0.650701
Si Si5 0.686449 0.896248 0.384442
Si Si6 0.500000 0.897290 0.411854
Si Si7 0.500000 0.301666 0.555495
Si Si8 0.263880 0.894846 0.190946
O O1 0.244792 0.846826 0.058679
O O2 0.371475 0.741981 0.093457
O O3 0.220155 0.670248 0.071928
O O4 0.321797 0.728240 0.000000
O O5 0.191847 0.113042 0.148770
O O6 0.081734 0.161140 0.084655
O O7 0.160004 0.000000 0.072834
O O8 0.112047 0.836447 0.316980
O O9 0.273399 0.868704 0.331529
O O10 0.220223 0.857176 0.241251
O O11 0.168092 0.000000 0.295476
O O12 0.847884 0.337875 0.676891
O O13 0.000000 0.284599 0.650412
O O14 0.584273 0.888557 0.377689
O O15 0.714074 0.000000 0.399514
O O16 0.500000 0.810398 0.449364
O O17 0.500000 0.000000 0.438536
O O18 0.500000 0.342591 0.500000
O O19 0.294705 0.000000 0.198488
#
# Coordination Sequence:
#
# PCOD8290380 Si02
#       8
#    16  16  16  16  16   8   8  16
#     4  10  20  35  55  75 101 140 180 219 266 319
#     4  10  21  36  53  75 105 140 180 225 269 316
#     4   9  18  36  59  80 107 143 178 213 261 319
#     4  10  21  36  54  82 111 136 175 222 267 314
#     4   9  18  33  53  77 107 139 174 217 262 317
#     4  10  20  34  51  78 114 143 173 217 265 316
#     4  12  23  35  52  77 109 142 179 225 270 317
#     4   9  19  38  59  78 107 143 178 219 266 317
#
# _framework density 18.473462000000001
#
# number of rings (size 3 to 8) (size 9 to 14) (size 15 to 20)
#    0.000    2.286    1.429    1.071    0.000    2.714 
#    2.571    1.429    0.000    0.000    0.000    8.000 
#    0.000    0.000    0.000    0.000    0.000    0.000 
#
# Total GULP energy -694292.575528 kJ/mol
# GULP energy per Si atom -12398.081706 kJ/mol
# Density = 1.843142 g / cm^3
# Si number density = 18.473462 Si / 1000 Ang^3
#
#
#
# Elastic Constant Matrix: (Units=GPa)
#
#
# Indices 1 2 3 4 5 6 
#
# 1 107.8786 39.0791 40.3164 0.0000 0.0000 0.0000
# 2 39.0791 104.7477 38.9259 0.0000 0.0000 0.0000
# 3 40.3164 38.9259 125.6425 0.0000 0.0000 0.0000
# 4 0.0000 0.0000 0.0000 19.6032 0.0000 0.0000
# 5 0.0000 0.0000 0.0000 0.0000 12.0265 0.0000
# 6 0.0000 0.0000 0.0000 0.0000 0.0000 18.4426
#
#
#
# Elastic Compliance Matrix: (Units=1/GPa)
#
#
# Indices 1 2 3 4 5 6 
#
# 1 0.011453 -0.003285 -0.002657 0.000000 0.000000 0.000000
# 2 -0.003285 0.011731 -0.002580 0.000000 0.000000 0.000000
# 3 -0.002657 -0.002580 0.009611 0.000000 0.000000 0.000000
# 4 0.000000 0.000000 0.000000 0.051012 0.000000 0.000000
# 5 0.000000 0.000000 0.000000 0.000000 0.083150 0.000000
# 6 0.000000 0.000000 0.000000 0.000000 0.000000 0.054222
#
#
# Mechanical properties :
#
#
# Convention : Reuss Voigt Hill
#
# Bulk Modulus (GPa) = 63.49355 63.87906 63.68630
# Shear Modulus (GPa) = 20.53596 24.67761 22.60678
#
# Velocity S-wave (km/s) = 3.33775 3.65888 3.50200
# Velocity P-wave (km/s) = 7.02132 7.24595 7.13452
#
# Compressibility (1/GPa) = 0.01574963
#
# Stress axis : x y z
#
# Youngs Moduli (GPa) = 87.31467 85.24175 104.04584
#
# Poissons Ratio (x) = 0.28005 0.27647
# Poissons Ratio (y) = 0.28686 0.26847
# Poissons Ratio (z) = 0.23201 0.21995
#
# Static dielectric constant tensor:
#      x y z
#    x 3.161550 0.000000 0.000000 
#    y 0.000000 3.692510 0.000000 
#    z 0.000000 0.000000 3.326080 
# 
# 
# High freq. dielectric constant tensor:
#      x y z
#    x 1.694750 0.000000 0.000000 
#    y 0.000000 1.734520 0.000000 
#    z 0.000000 0.000000 1.709630 
# 
# From -- ./inp_files/65573.got.cif
#   From: 2010.06.25/outbox.cif.g09.slc.cpg/sg71_33_cif.got.tgz:65573.got - 2010.06.28 04:59:45.
