data_PCOD8290041
_publ_section_title
;
Structure prediction by ZEFSAII (Michael W. Deem and Ramdas Pophale) SiO2 
 PCOD8290041
Probable space group: I M M M
;
_chemical_formula_sum "Si O2"
_cell_formula_units_Z 104
_cell_length_a 27.617775
_cell_length_b 9.254344
_cell_length_c 22.063834
_cell_angle_alpha 90.000000
_cell_angle_beta 90.000000
_cell_angle_gamma 90.000000
_cell_volume 5639.171562
_symmetry_space_group_name_H-M "I M M M"
_symmetry_group_IT_number 71
_symmetry_cell_setting 'orthorhombic'
loop_
_space_group_symop_operation_xyz
x,y,z
-x,-y,z
x,-y,-z
-x,y,-z
-x,-y,-z
x,y,-z
-x,y,z
x,-y,z
1/2+x,1/2+y,1/2+z
1/2-x,1/2-y,1/2+z
1/2+x,1/2-y,1/2-z
1/2-x,1/2+y,1/2-z
1/2-x,1/2-y,1/2-z
1/2+x,1/2+y,1/2-z
1/2-x,1/2+y,1/2+z
1/2+x,1/2-y,1/2+z
loop_
_atom_site_type_symbol
_atom_site_label
_atom_site_fract_x
_atom_site_fract_y
_atom_site_fract_z
Si Si1 0.311214 0.837285 0.280896
Si Si2 0.639720 0.329517 0.932482
Si Si3 0.285116 0.331571 0.163655
Si Si4 0.420220 0.834232 0.720520
Si Si5 0.945856 0.157859 0.890025
Si Si6 0.058013 0.661337 0.000000
Si Si7 0.055986 0.832261 0.341581
O O1 0.307399 0.731401 0.224629
O O2 0.272857 0.797953 0.334937
O O3 0.365501 0.824555 0.304972
O O4 0.300155 0.000000 0.258104
O O5 0.644258 0.500000 0.938818
O O6 0.686426 0.267796 0.894883
O O7 0.589433 0.289702 0.898841
O O8 0.639642 0.259816 0.000000
O O9 0.296376 0.500000 0.165372
O O10 0.450486 0.740176 0.673662
O O11 0.427073 0.768254 0.786736
O O12 0.438278 0.000000 0.721679
O O13 0.920459 0.256443 0.941100
O O14 0.000000 0.130380 0.912799
O O15 0.920067 0.000000 0.883454
O O16 0.079705 0.500000 0.000000
O O17 0.000000 0.652565 0.000000
O O18 0.000000 0.802096 0.358526
O O19 0.063564 0.000000 0.323571
#
# Coordination Sequence:
#
# PCOD8290041 Si02
#       7
#    16  16  16  16  16   8  16
#     4   9  18  30  48  74 100 124 157 204 253 303
#     4   9  17  30  51  77 101 130 170 212 257 312
#     4   9  16  30  52  74  97 123 158 202 249 303
#     4  11  21  32  48  72 104 135 168 211 261 312
#     4  10  20  33  50  72  98 131 172 212 249 297
#     4   9  17  31  51  73  97 127 165 207 251 299
#     4  10  20  33  49  72 103 135 172 218 262 307
#
# _framework density 18.442426000000001
#
# number of rings (size 3 to 8) (size 9 to 14) (size 15 to 20)
#    0.000    2.385    1.538    1.615    0.000    4.923 
#    0.000    1.538    1.692    1.846    0.000    1.077 
#    0.000    0.000    0.000    0.000    0.000    0.000 
#
# Total GULP energy -644355.541204 kJ/mol
# GULP energy per Si atom -12391.452715 kJ/mol
# Density = 1.840045 g / cm^3
# Si number density = 18.442426 Si / 1000 Ang^3
#
#
#
# Elastic Constant Matrix: (Units=GPa)
#
#
# Indices 1 2 3 4 5 6 
#
# 1 93.8181 21.6307 46.4778 0.0000 0.0000 0.0000
# 2 21.6307 89.2831 48.3550 0.0000 0.0000 0.0000
# 3 46.4778 48.3550 135.4429 0.0000 0.0000 0.0000
# 4 0.0000 0.0000 0.0000 21.5373 0.0000 0.0000
# 5 0.0000 0.0000 0.0000 0.0000 25.7495 0.0000
# 6 0.0000 0.0000 0.0000 0.0000 0.0000 16.5389
#
#
#
# Elastic Compliance Matrix: (Units=1/GPa)
#
#
# Indices 1 2 3 4 5 6 
#
# 1 0.012900 -0.000902 -0.004105 0.000000 0.000000 0.000000
# 2 -0.000902 0.013948 -0.004670 0.000000 0.000000 0.000000
# 3 -0.004105 -0.004670 0.010459 0.000000 0.000000 0.000000
# 4 0.000000 0.000000 0.000000 0.046431 0.000000 0.000000
# 5 0.000000 0.000000 0.000000 0.000000 0.038836 0.000000
# 6 0.000000 0.000000 0.000000 0.000000 0.000000 0.060463
#
#
# Mechanical properties :
#
#
# Convention : Reuss Voigt Hill
#
# Bulk Modulus (GPa) = 55.69954 61.27458 58.48706
# Shear Modulus (GPa) = 23.99501 26.23717 25.11609
#
# Velocity S-wave (km/s) = 3.61096 3.77590 3.69435
# Velocity P-wave (km/s) = 6.90310 7.23234 7.06964
#
# Compressibility (1/GPa) = 0.01795347
#
# Stress axis : x y z
#
# Youngs Moduli (GPa) = 77.51663 71.69379 95.61134
#
# Poissons Ratio (x) = 0.06469 0.39246
# Poissons Ratio (y) = 0.06995 0.44651
# Poissons Ratio (z) = 0.31818 0.33481
#
# Static dielectric constant tensor:
#      x y z
#    x 3.499080 0.000000 0.000000 
#    y 0.000000 3.429510 0.000000 
#    z 0.000000 0.000000 3.383800 
# 
# 
# High freq. dielectric constant tensor:
#      x y z
#    x 1.703560 0.000000 0.000000 
#    y 0.000000 1.705970 0.000000 
#    z 0.000000 0.000000 1.698790 
# 
# From -- ./inp_files/56285.got.cif
#   From: 2010.06.25/outbox.cif.g09.slc.cpg/sg71_29_cif.got.tgz:56285.got - 2010.06.28 04:59:45.
