data_PCOD8290494
_publ_section_title
;
Structure prediction by ZEFSAII (Michael W. Deem and Ramdas Pophale) SiO2 
 PCOD8290494
Probable space group: I M M M
;
_chemical_formula_sum "Si O2"
_cell_formula_units_Z 88
_cell_length_a 9.749887
_cell_length_b 27.985206
_cell_length_c 17.413302
_cell_angle_alpha 90.000000
_cell_angle_beta 90.000000
_cell_angle_gamma 90.000000
_cell_volume 4751.264659
_symmetry_space_group_name_H-M "I M M M"
_symmetry_group_IT_number 71
_symmetry_cell_setting 'orthorhombic'
loop_
_space_group_symop_operation_xyz
x,y,z
-x,-y,z
x,-y,-z
-x,y,-z
-x,-y,-z
x,y,-z
-x,y,z
x,-y,z
1/2+x,1/2+y,1/2+z
1/2-x,1/2-y,1/2+z
1/2+x,1/2-y,1/2-z
1/2-x,1/2+y,1/2-z
1/2-x,1/2-y,1/2-z
1/2+x,1/2+y,1/2-z
1/2-x,1/2+y,1/2+z
1/2+x,1/2-y,1/2+z
loop_
_atom_site_type_symbol
_atom_site_label
_atom_site_fract_x
_atom_site_fract_y
_atom_site_fract_z
Si Si1 0.659357 0.676056 0.830540
Si Si2 0.843831 0.272401 0.412600
Si Si3 0.338216 0.649891 0.341495
Si Si4 0.152636 0.398281 0.091164
Si Si5 0.162475 0.052498 0.913631
Si Si6 0.337680 0.000000 0.583670
O O1 0.500000 0.665390 0.843208
O O2 0.695957 0.730120 0.853828
O O3 0.704508 0.665521 0.743732
O O4 0.741253 0.641766 0.886251
O O5 0.826976 0.254040 0.500000
O O6 0.741971 0.316417 0.400331
O O7 0.000000 0.289117 0.397424
O O8 0.500000 0.656301 0.355956
O O9 0.289740 0.595169 0.357020
O O10 0.201916 0.450085 0.126221
O O11 0.000000 0.385039 0.121526
O O12 0.148971 0.403053 0.000000
O O13 0.000000 0.051371 0.915363
O O14 0.216314 0.000000 0.885442
O O15 0.217225 0.062522 0.000000
O O16 0.500000 0.000000 0.572906
O O17 0.266155 0.000000 0.500000
#
# Coordination Sequence:
#
# PCOD8290494 Si02
#       6
#    16  16  16  16  16   8
#     4  10  21  35  49  73 108 140 166 203 262 315
#     4  10  21  36  53  72  99 137 173 209 261 316
#     4  10  20  34  53  78 104 132 171 214 253 302
#     4   9  17  31  52  74  96 130 178 222 256 298
#     4   8  14  27  49  75 101 129 162 204 253 297
#     4   7  12  26  47  69  93 123 164 215 260 293
#
# _framework density 18.521384999999999
#
# number of rings (size 3 to 8) (size 9 to 14) (size 15 to 20)
#    0.000    2.818    0.000    3.273    0.000    3.636 
#    1.636    0.455    0.000    2.182    0.000    2.545 
#    0.000    0.000    0.000    0.000    0.000    0.000 
#
# Total GULP energy -545251.620692 kJ/mol
# GULP energy per Si atom -12392.082288 kJ/mol
# Density = 1.847923 g / cm^3
# Si number density = 18.521385 Si / 1000 Ang^3
#
#
#
# Elastic Constant Matrix: (Units=GPa)
#
#
# Indices 1 2 3 4 5 6 
#
# 1 37.8514 43.3125 19.1057 0.0001 0.0000 0.0000
# 2 43.3125 148.8803 53.7533 0.0001 0.0000 0.0000
# 3 19.1057 53.7533 73.0290 -0.0002 0.0001 0.0003
# 4 0.0001 0.0001 -0.0002 6.7981 0.0001 -0.0001
# 5 0.0000 0.0000 0.0001 0.0001 21.0199 -0.0001
# 6 0.0000 0.0000 0.0003 -0.0001 -0.0001 18.6749
#
#
#
# Elastic Compliance Matrix: (Units=1/GPa)
#
#
# Indices 1 2 3 4 5 6 
#
# 1 0.039958 -0.010692 -0.002584 0.000000 0.000000 0.000000
# 2 -0.010692 0.012009 -0.006042 0.000000 0.000000 0.000000
# 3 -0.002584 -0.006042 0.018816 0.000001 0.000000 0.000000
# 4 0.000000 0.000000 0.000001 0.147100 -0.000001 0.000001
# 5 0.000000 0.000000 0.000000 -0.000001 0.047574 0.000000
# 6 0.000000 0.000000 0.000000 0.000001 0.000000 0.053548
#
#
# Mechanical properties :
#
#
# Convention : Reuss Voigt Hill
#
# Bulk Modulus (GPa) = 31.10657 54.67817 42.89237
# Shear Modulus (GPa) = 13.57385 18.87119 16.22252
#
# Velocity S-wave (km/s) = 2.71010 3.19546 2.96274
# Velocity P-wave (km/s) = 5.15987 6.57270 5.90867
#
# Compressibility (1/GPa) = 0.03214755
#
# Stress axis : x y z
#
# Youngs Moduli (GPa) = 25.02658 83.27348 53.14517
#
# Poissons Ratio (x) = 0.89032 0.13733
# Poissons Ratio (y) = 0.26757 0.32110
# Poissons Ratio (z) = 0.06467 0.50313
#
# Static dielectric constant tensor:
#      x y z
#    x 3.078260 0.000000 0.000000 
#    y 0.000000 3.814180 0.000000 
#    z 0.000000 0.000000 3.265090 
# 
# 
# High freq. dielectric constant tensor:
#      x y z
#    x 1.685500 0.000000 0.000000 
#    y 0.000000 1.735300 0.000000 
#    z 0.000000 0.000000 1.700690 
# 
# From -- ./inp_files/8723.got.cif
#   From: 2010.06.25/outbox.cif.g09.slc.cpg/sg71_5_cif.got.tgz:8723.got - 2010.06.28 04:59:45.
