data_PCOD8290878
_publ_section_title
;
Structure prediction by ZEFSAII (Michael W. Deem and Ramdas Pophale) SiO2 
 PCOD8290878
Probable space group: I M M M
;
_chemical_formula_sum "Si O2"
_cell_formula_units_Z 88
_cell_length_a 13.103079
_cell_length_b 15.976552
_cell_length_c 23.340617
_cell_angle_alpha 90.000000
_cell_angle_beta 90.000000
_cell_angle_gamma 90.000000
_cell_volume 4886.171981
_symmetry_space_group_name_H-M "I M M M"
_symmetry_group_IT_number 71
_symmetry_cell_setting 'orthorhombic'
loop_
_space_group_symop_operation_xyz
x,y,z
-x,-y,z
x,-y,-z
-x,y,-z
-x,-y,-z
x,y,-z
-x,y,z
x,-y,z
1/2+x,1/2+y,1/2+z
1/2-x,1/2-y,1/2+z
1/2+x,1/2-y,1/2-z
1/2-x,1/2+y,1/2-z
1/2-x,1/2-y,1/2-z
1/2+x,1/2+y,1/2-z
1/2-x,1/2+y,1/2+z
1/2+x,1/2-y,1/2+z
loop_
_atom_site_type_symbol
_atom_site_label
_atom_site_fract_x
_atom_site_fract_y
_atom_site_fract_z
Si Si1 0.381771 0.696090 0.159303
Si Si2 0.115384 0.094214 0.230708
Si Si3 0.727884 0.596977 0.066486
Si Si4 0.755615 0.645238 0.628882
Si Si5 0.387946 0.767386 0.433155
Si Si6 0.620230 0.000000 0.932034
O O1 0.500000 0.715956 0.160625
O O2 0.345364 0.651967 0.217633
O O3 0.361649 0.635931 0.104888
O O4 0.325015 0.783817 0.156690
O O5 0.192886 0.099023 0.178121
O O6 0.000000 0.119407 0.211734
O O7 0.115936 0.000000 0.254173
O O8 0.744702 0.500000 0.080891
O O9 0.831800 0.645769 0.082634
O O10 0.698112 0.610409 0.000000
O O11 0.674520 0.686580 0.586316
O O12 0.827191 0.581893 0.594302
O O13 0.400786 0.758859 0.500000
O O14 0.500000 0.769219 0.403867
O O15 0.500000 0.000000 0.916763
O O16 0.636895 0.000000 0.000000
#
# Coordination Sequence:
#
# PCOD8290878 Si02
#       6
#    16  16  16  16  16   8
#     4  10  21  35  54  79 108 144 185 228 274 330
#     4  10  20  35  56  82 108 138 179 225 279 334
#     4   9  18  32  51  77 108 143 181 222 272 329
#     4  11  20  37  56  79 107 144 184 228 278 330
#     4   9  18  32  51  76 106 139 176 222 273 329
#     4  11  24  40  59  83 113 149 189 234 282 332
#
# _framework density 18.010007999999999
#
# number of rings (size 3 to 8) (size 9 to 14) (size 15 to 20)
#    0.000    2.091    0.909    2.727    0.000    2.545 
#    0.000    2.727    0.000    3.273    0.000    0.000 
#    0.000    0.000    0.000    0.000    0.000    0.000 
#
# Total GULP energy -545574.980779 kJ/mol
# GULP energy per Si atom -12399.431381 kJ/mol
# Density = 1.796902 g / cm^3
# Si number density = 18.010008 Si / 1000 Ang^3
#
#
#
# Elastic Constant Matrix: (Units=GPa)
#
#
# Indices 1 2 3 4 5 6 
#
# 1 94.2893 41.5536 43.2254 0.0000 0.0000 0.0000
# 2 41.5536 115.7452 41.4469 0.0000 0.0000 0.0000
# 3 43.2254 41.4469 73.7863 0.0000 0.0000 0.0000
# 4 0.0000 0.0000 0.0000 32.4345 0.0000 0.0000
# 5 0.0000 0.0000 0.0000 0.0000 29.8591 0.0000
# 6 0.0000 0.0000 0.0000 0.0000 0.0000 22.0113
#
#
#
# Elastic Compliance Matrix: (Units=1/GPa)
#
#
# Indices 1 2 3 4 5 6 
#
# 1 0.015211 -0.002842 -0.007315 0.000000 0.000000 0.000000
# 2 -0.002842 0.011346 -0.004708 0.000000 0.000000 0.000000
# 3 -0.007315 -0.004708 0.020483 0.000000 0.000000 0.000000
# 4 0.000000 0.000000 0.000000 0.030831 0.000000 0.000000
# 5 0.000000 0.000000 0.000000 0.000000 0.033491 0.000000
# 6 0.000000 0.000000 0.000000 0.000000 0.000000 0.045431
#
#
# Mechanical properties :
#
#
# Convention : Reuss Voigt Hill
#
# Bulk Modulus (GPa) = 57.77044 59.58585 58.67814
# Shear Modulus (GPa) = 26.00197 27.36732 26.68464
#
# Velocity S-wave (km/s) = 3.80379 3.90238 3.85340
# Velocity P-wave (km/s) = 7.17205 7.31174 7.24223
#
# Compressibility (1/GPa) = 0.01730989
#
# Stress axis : x y z
#
# Youngs Moduli (GPa) = 65.74026 88.13764 48.82173
#
# Poissons Ratio (x) = 0.25046 0.35713
# Poissons Ratio (y) = 0.18681 0.22988
# Poissons Ratio (z) = 0.48088 0.41499
#
# Static dielectric constant tensor:
#      x y z
#    x 3.485390 0.000000 0.000000 
#    y 0.000000 3.351690 0.000000 
#    z 0.000000 0.000000 3.297460 
# 
# 
# High freq. dielectric constant tensor:
#      x y z
#    x 1.702040 0.000000 0.000000 
#    y 0.000000 1.705820 0.000000 
#    z 0.000000 0.000000 1.695510 
# 
# From -- ./inp_files/21992.got.cif
#   From: 2010.06.25/outbox.cif.g09.slc.cpg/sg71_11_cif.got.tgz:21992.got - 2010.06.28 04:59:45.
