data_PCOD8290000
_publ_section_title
;
Structure prediction by ZEFSAII (Michael W. Deem and Ramdas Pophale) SiO2 
 PCOD8290000
Probable space group: I M M M
;
_chemical_formula_sum "Si O2"
_cell_formula_units_Z 104
_cell_length_a 8.077055
_cell_length_b 24.464338
_cell_length_c 29.517337
_cell_angle_alpha 90.000000
_cell_angle_beta 90.000000
_cell_angle_gamma 90.000000
_cell_volume 5832.619993
_symmetry_space_group_name_H-M "I M M M"
_symmetry_group_IT_number 71
_symmetry_cell_setting 'orthorhombic'
loop_
_space_group_symop_operation_xyz
x,y,z
-x,-y,z
x,-y,-z
-x,y,-z
-x,-y,-z
x,y,-z
-x,y,z
x,-y,z
1/2+x,1/2+y,1/2+z
1/2-x,1/2-y,1/2+z
1/2+x,1/2-y,1/2-z
1/2-x,1/2+y,1/2-z
1/2-x,1/2-y,1/2-z
1/2+x,1/2+y,1/2-z
1/2-x,1/2+y,1/2+z
1/2+x,1/2-y,1/2+z
loop_
_atom_site_type_symbol
_atom_site_label
_atom_site_fract_x
_atom_site_fract_y
_atom_site_fract_z
Si Si1 0.315480 0.500000 0.553542
Si Si2 0.500000 0.936140 0.643549
Si Si3 0.307981 0.741942 0.800576
Si Si4 0.500000 0.121707 0.547174
Si Si5 0.321660 0.677859 0.929981
Si Si6 0.807897 0.616848 0.551953
Si Si7 0.812307 0.784433 0.890387
Si Si8 0.817285 0.875801 0.335899
O O1 0.500000 0.500000 0.574163
O O2 0.321519 0.500000 0.500000
O O3 0.221824 0.445104 0.569397
O O4 0.500000 0.913685 0.592277
O O5 0.333973 0.918367 0.670858
O O6 0.500000 0.000000 0.639921
O O7 0.500000 0.753791 0.805509
O O8 0.250000 0.750000 0.750000
O O9 0.219585 0.783448 0.835980
O O10 0.263553 0.679315 0.810818
O O11 0.500000 0.086317 0.500000
O O12 0.337944 0.160220 0.541794
O O13 0.500000 0.674017 0.956132
O O14 0.306397 0.740409 0.913817
O O15 0.332688 0.636302 0.888543
O O16 0.742023 0.624778 0.500000
O O17 0.715912 0.656470 0.587170
O O18 0.000000 0.630210 0.553718
O O19 0.000000 0.766455 0.898890
O O20 0.000000 0.897316 0.318835
#
# Coordination Sequence:
#
# PCOD8290000 Si02
#       8
#     8   8  16   8  16  16  16  16
#     4   9  17  31  49  69  93 125 171 223 269 309
#     4  10  20  33  54  76  98 140 183 221 267 306
#     4  10  20  33  54  84 112 142 170 208 267 323
#     4  10  20  33  48  70 100 135 176 222 271 318
#     4   9  17  32  49  67  96 134 169 207 261 321
#     4  10  20  33  49  70  98 135 179 225 266 311
#     4  11  20  32  50  75 108 139 174 216 261 316
#     4   8  17  32  51  75 104 131 165 212 256 311
#
# _framework density 17.830752
#
# number of rings (size 3 to 8) (size 9 to 14) (size 15 to 20)
#    0.000    2.385    0.769    3.462    4.308    3.231 
#    0.000    0.000    0.000    0.000    2.000    4.308 
#    0.000    0.000    0.000    0.000    0.000    0.000 
#
# Total GULP energy -644229.256692 kJ/mol
# GULP energy per Si atom -12389.024167 kJ/mol
# Density = 1.779017 g / cm^3
# Si number density = 17.830752 Si / 1000 Ang^3
#
#
#
# Elastic Constant Matrix: (Units=GPa)
#
#
# Indices 1 2 3 4 5 6 
#
# 1 135.0984 48.0086 28.7620 0.0000 0.0000 0.0000
# 2 48.0086 89.5324 34.6675 0.0000 0.0000 0.0000
# 3 28.7620 34.6675 81.8738 0.0000 0.0000 0.0000
# 4 0.0000 0.0000 0.0000 15.0254 0.0000 0.0000
# 5 0.0000 0.0000 0.0000 0.0000 41.9972 0.0000
# 6 0.0000 0.0000 0.0000 0.0000 0.0000 24.5935
#
#
#
# Elastic Compliance Matrix: (Units=1/GPa)
#
#
# Indices 1 2 3 4 5 6 
#
# 1 0.009273 -0.004439 -0.001378 0.000000 0.000000 0.000000
# 2 -0.004439 0.015484 -0.004997 0.000000 0.000000 0.000000
# 3 -0.001378 -0.004997 0.014814 0.000000 0.000000 0.000000
# 4 0.000000 0.000000 0.000000 0.066554 0.000000 0.000000
# 5 0.000000 0.000000 0.000000 0.000000 0.023811 0.000000
# 6 0.000000 0.000000 0.000000 0.000000 0.000000 0.040661
#
#
# Mechanical properties :
#
#
# Convention : Reuss Voigt Hill
#
# Bulk Modulus (GPa) = 55.73130 58.82008 57.27569
# Shear Modulus (GPa) = 25.22632 29.32764 27.27698
#
# Velocity S-wave (km/s) = 3.76542 4.05999 3.91547
# Velocity P-wave (km/s) = 7.08718 7.41873 7.25485
#
# Compressibility (1/GPa) = 0.01794324
#
# Stress axis : x y z
#
# Youngs Moduli (GPa) = 107.84365 64.58257 67.50398
#
# Poissons Ratio (x) = 0.28665 0.09303
# Poissons Ratio (y) = 0.47867 0.33732
# Poissons Ratio (z) = 0.14862 0.32273
#
# Static dielectric constant tensor:
#      x y z
#    x 3.926600 0.000000 0.000000 
#    y 0.000000 3.070950 0.000000 
#    z 0.000000 0.000000 3.050570 
# 
# 
# High freq. dielectric constant tensor:
#      x y z
#    x 1.716880 0.000000 0.000000 
#    y 0.000000 1.661390 0.000000 
#    z 0.000000 0.000000 1.655430 
# 
# From -- ./inp_files/68464.got.cif
#   From: 2010.06.25/outbox.cif.g09.slc.cpg/sg71_35_cif.got.tgz:68464.got - 2010.06.28 04:59:45.
