data_PCOD8290915
_publ_section_title
;
Structure prediction by ZEFSAII (Michael W. Deem and Ramdas Pophale) SiO2 
 PCOD8290915
Probable space group: I M M M
;
_chemical_formula_sum "Si O2"
_cell_formula_units_Z 72
_cell_length_a 28.725936
_cell_length_b 13.807653
_cell_length_c 9.449267
_cell_angle_alpha 90.000000
_cell_angle_beta 90.000000
_cell_angle_gamma 90.000000
_cell_volume 3747.936062
_symmetry_space_group_name_H-M "I M M M"
_symmetry_group_IT_number 71
_symmetry_cell_setting 'orthorhombic'
loop_
_space_group_symop_operation_xyz
x,y,z
-x,-y,z
x,-y,-z
-x,y,-z
-x,-y,-z
x,y,-z
-x,y,z
x,-y,z
1/2+x,1/2+y,1/2+z
1/2-x,1/2-y,1/2+z
1/2+x,1/2-y,1/2-z
1/2-x,1/2+y,1/2-z
1/2-x,1/2-y,1/2-z
1/2+x,1/2+y,1/2-z
1/2-x,1/2+y,1/2+z
1/2+x,1/2-y,1/2+z
loop_
_atom_site_type_symbol
_atom_site_label
_atom_site_fract_x
_atom_site_fract_y
_atom_site_fract_z
Si Si1 0.631740 0.893967 0.333071
Si Si2 0.766156 0.615443 0.842295
Si Si3 0.317845 0.614664 0.658055
Si Si4 0.500000 0.613900 0.833512
Si Si5 0.914432 0.798382 0.833082
O O1 0.637034 0.904786 0.500000
O O2 0.682669 0.857035 0.279681
O O3 0.591938 0.815821 0.296677
O O4 0.618561 0.000000 0.268535
O O5 0.762323 0.500000 0.843323
O O6 0.724938 0.660328 0.746131
O O7 0.759103 0.656656 0.000000
O O8 0.312518 0.655908 0.500000
O O9 0.315878 0.500000 0.661707
O O10 0.367787 0.647248 0.717099
O O11 0.500000 0.500000 0.803522
O O12 0.455351 0.661014 0.761773
O O13 0.500000 0.636746 0.000000
O O14 0.924951 0.815004 0.000000
#
# Coordination Sequence:
#
# PCOD8290915 Si02
#       5
#    16  16  16   8  16
#     4   8  15  30  52  78 107 138 175 216 251 290
#     4   8  14  26  45  69 101 141 176 205 244 294
#     4   9  17  28  43  69 104 136 170 214 257 298
#     4  11  25  43  60  79 104 130 159 205 264 319
#     4  10  20  35  57  80 101 133 176 216 257 306
#
# _framework density 19.210573
#
# number of rings (size 3 to 8) (size 9 to 14) (size 15 to 20)
#    0.000    3.000    0.000    2.333    0.000    3.556 
#    0.000    3.889    0.000    5.333    0.000    0.000 
#    0.000    0.000    0.000    0.000    0.000    0.000 
#
# Total GULP energy -446180.543780 kJ/mol
# GULP energy per Si atom -12393.903994 kJ/mol
# Density = 1.916685 g / cm^3
# Si number density = 19.210573 Si / 1000 Ang^3
#
#
#
# Elastic Constant Matrix: (Units=GPa)
#
#
# Indices 1 2 3 4 5 6 
#
# 1 148.2905 71.6548 67.8046 0.0000 0.0000 0.0000
# 2 71.6548 68.4957 42.2798 0.0000 0.0000 0.0000
# 3 67.8046 42.2798 71.9790 0.0000 0.0000 0.0000
# 4 0.0000 0.0000 0.0000 13.2840 0.0000 0.0000
# 5 0.0000 0.0000 0.0000 0.0000 56.3383 0.0000
# 6 0.0000 0.0000 0.0000 0.0000 0.0000 32.0404
#
#
#
# Elastic Compliance Matrix: (Units=1/GPa)
#
#
# Indices 1 2 3 4 5 6 
#
# 1 0.016335 -0.011908 -0.008393 0.000000 0.000000 0.000000
# 2 -0.011908 0.031584 -0.007335 0.000000 0.000000 0.000000
# 3 -0.008393 -0.007335 0.026108 0.000000 0.000000 0.000000
# 4 0.000000 0.000000 0.000000 0.075279 0.000000 0.000000
# 5 0.000000 0.000000 0.000000 0.000000 0.017750 0.000000
# 6 0.000000 0.000000 0.000000 0.000000 0.000000 0.031211
#
#
# Mechanical properties :
#
#
# Convention : Reuss Voigt Hill
#
# Bulk Modulus (GPa) = 53.31896 72.47153 62.89524
# Shear Modulus (GPa) = 19.24630 27.46759 23.35695
#
# Velocity S-wave (km/s) = 3.16865 3.78539 3.49067
# Velocity P-wave (km/s) = 6.41891 7.54403 7.00410
#
# Compressibility (1/GPa) = 0.01875506
#
# Stress axis : x y z
#
# Youngs Moduli (GPa) = 61.21766 31.66167 38.30231
#
# Poissons Ratio (x) = 0.37702 0.32149
# Poissons Ratio (y) = 0.72896 0.28095
# Poissons Ratio (z) = 0.51382 0.23224
#
# Static dielectric constant tensor:
#      x y z
#    x 3.511300 0.000000 0.000000 
#    y 0.000000 3.759190 0.000000 
#    z 0.000000 0.000000 3.425640 
# 
# 
# High freq. dielectric constant tensor:
#      x y z
#    x 1.738700 0.000000 0.000000 
#    y 0.000000 1.762510 0.000000 
#    z 0.000000 0.000000 1.708510 
# 
# From -- ./inp_files/14317.got.cif
#   From: 2010.06.25/outbox.cif.g09.slc.cpg/sg71_8_cif.got.tgz:14317.got - 2010.06.28 04:59:45.
