data_PCOD8290366
_publ_section_title
;
Structure prediction by ZEFSAII (Michael W. Deem and Ramdas Pophale) SiO2 
 PCOD8290366
Probable space group: I M M M
;
_chemical_formula_sum "Si O2"
_cell_formula_units_Z 88
_cell_length_a 16.105160
_cell_length_b 34.084989
_cell_length_c 10.053623
_cell_angle_alpha 90.000000
_cell_angle_beta 90.000000
_cell_angle_gamma 90.000000
_cell_volume 5518.878049
_symmetry_space_group_name_H-M "I M M M"
_symmetry_group_IT_number 71
_symmetry_cell_setting 'orthorhombic'
loop_
_space_group_symop_operation_xyz
x,y,z
-x,-y,z
x,-y,-z
-x,y,-z
-x,-y,-z
x,y,-z
-x,y,z
x,-y,z
1/2+x,1/2+y,1/2+z
1/2-x,1/2-y,1/2+z
1/2+x,1/2-y,1/2-z
1/2-x,1/2+y,1/2-z
1/2-x,1/2-y,1/2-z
1/2+x,1/2+y,1/2-z
1/2-x,1/2+y,1/2+z
1/2+x,1/2-y,1/2+z
loop_
_atom_site_type_symbol
_atom_site_label
_atom_site_fract_x
_atom_site_fract_y
_atom_site_fract_z
Si Si1 0.402036 0.261664 0.500000
Si Si2 0.596761 0.069245 0.151830
Si Si3 0.909385 0.300974 0.500000
Si Si4 0.597923 0.000000 0.652464
Si Si5 0.402009 0.172932 0.500000
Si Si6 0.337501 0.849907 0.776274
Si Si7 0.600250 0.283921 0.000000
Si Si8 0.695804 0.289863 0.741958
O O1 0.500000 0.260342 0.500000
O O2 0.366594 0.217156 0.500000
O O3 0.371733 0.284545 0.371744
O O4 0.500000 0.081249 0.175467
O O5 0.659686 0.105619 0.171655
O O6 0.626093 0.037562 0.261163
O O7 0.606853 0.053386 0.000000
O O8 0.900435 0.325700 0.367067
O O9 0.859529 0.260362 0.500000
O O10 0.000000 0.283148 0.500000
O O11 0.500000 0.000000 0.641202
O O12 0.634909 0.000000 0.500000
O O13 0.500000 0.172046 0.500000
O O14 0.367846 0.149842 0.374221
O O15 0.249121 0.828613 0.792831
O O16 0.642501 0.302380 0.870403
O O17 0.500000 0.289716 0.000000
O O18 0.750000 0.250000 0.750000
#
# Coordination Sequence:
#
# PCOD8290366 Si02
#       8
#     8  16   8   8   8  16   8  16
#     4  11  22  36  50  66  92 133 176 212 255 306
#     4  10  20  34  51  72  98 132 170 202 240 291
#     4  11  19  31  47  68  93 127 171 213 251 297
#     4   9  19  35  53  73  99 131 164 199 238 289
#     4  11  21  31  43  66  97 129 167 213 257 293
#     4  12  22  31  48  70  98 129 164 216 260 292
#     4  11  22  36  52  66  90 135 180 212 253 310
#     4  12  21  35  49  70  97 128 167 218 265 300
#
# _framework density 15.945270000000001
#
# number of rings (size 3 to 8) (size 9 to 14) (size 15 to 20)
#    0.000    1.000    4.545    4.091    1.273    4.000 
#    0.000    0.000    0.000    0.000    0.000    0.000 
#    0.000    0.000    0.000    4.909    0.000    0.000 
#
# Total GULP energy -545307.928495 kJ/mol
# GULP energy per Si atom -12393.362011 kJ/mol
# Density = 1.590898 g / cm^3
# Si number density = 15.945270 Si / 1000 Ang^3
#
#
#
# Elastic Constant Matrix: (Units=GPa)
#
#
# Indices 1 2 3 4 5 6 
#
# 1 53.0135 24.1444 23.7330 -0.0007 -0.0001 0.0003
# 2 24.1444 83.1787 23.4911 -0.0021 -0.0007 0.0001
# 3 23.7330 23.4911 120.7829 -0.0075 0.0148 -0.0013
# 4 -0.0007 -0.0021 -0.0075 17.3858 0.0009 0.0002
# 5 -0.0001 -0.0007 0.0148 0.0009 28.5094 -0.0014
# 6 0.0003 0.0001 -0.0013 0.0002 -0.0014 20.0123
#
#
#
# Elastic Compliance Matrix: (Units=1/GPa)
#
#
# Indices 1 2 3 4 5 6 
#
# 1 0.022989 -0.005711 -0.003406 -0.000001 0.000002 -0.000001
# 2 -0.005711 0.014140 -0.001628 0.000001 0.000001 0.000000
# 3 -0.003406 -0.001628 0.009265 0.000004 -0.000005 0.000001
# 4 -0.000001 0.000001 0.000004 0.057518 -0.000002 0.000000
# 5 0.000002 0.000001 -0.000005 -0.000002 0.035076 0.000003
# 6 -0.000001 0.000000 0.000001 0.000000 0.000003 0.049969
#
#
# Mechanical properties :
#
#
# Convention : Reuss Voigt Hill
#
# Bulk Modulus (GPa) = 40.15510 44.41247 42.28378
# Shear Modulus (GPa) = 22.85717 25.55527 24.20622
#
# Velocity S-wave (km/s) = 3.79024 4.00770 3.90048
# Velocity P-wave (km/s) = 6.66275 7.02347 6.84549
#
# Compressibility (1/GPa) = 0.02490344
#
# Stress axis : x y z
#
# Youngs Moduli (GPa) = 43.49877 70.72230 107.92987
#
# Poissons Ratio (x) = 0.40390 0.36766
# Poissons Ratio (y) = 0.24842 0.17570
# Poissons Ratio (z) = 0.14818 0.11513
#
# Static dielectric constant tensor:
#      x y z
#    x 2.819450 0.000000 0.000000 
#    y 0.000000 2.862990 -0.000010 
#    z 0.000000 -0.000010 3.347820 
# 
# 
# High freq. dielectric constant tensor:
#      x y z
#    x 1.578880 0.000000 0.000000 
#    y 0.000000 1.580020 0.000000 
#    z 0.000000 0.000000 1.642280 
# 
# From -- ./inp_files/8959.got.cif
#   From: 2010.06.25/outbox.cif.g09.slc.cpg/sg71_5_cif.got.tgz:8959.got - 2010.06.28 04:59:45.
