data_PCOD8290480
_publ_section_title
;
Structure prediction by ZEFSAII (Michael W. Deem and Ramdas Pophale) SiO2 
 PCOD8290480
Probable space group: I M M M
;
_chemical_formula_sum "Si O2"
_cell_formula_units_Z 112
_cell_length_a 35.349460
_cell_length_b 9.530392
_cell_length_c 18.030872
_cell_angle_alpha 90.000000
_cell_angle_beta 90.000000
_cell_angle_gamma 90.000000
_cell_volume 6074.496392
_symmetry_space_group_name_H-M "I M M M"
_symmetry_group_IT_number 71
_symmetry_cell_setting 'orthorhombic'
loop_
_space_group_symop_operation_xyz
x,y,z
-x,-y,z
x,-y,-z
-x,y,-z
-x,-y,-z
x,y,-z
-x,y,z
x,-y,z
1/2+x,1/2+y,1/2+z
1/2-x,1/2-y,1/2+z
1/2+x,1/2-y,1/2-z
1/2-x,1/2+y,1/2-z
1/2-x,1/2-y,1/2-z
1/2+x,1/2+y,1/2-z
1/2-x,1/2+y,1/2+z
1/2+x,1/2-y,1/2+z
loop_
_atom_site_type_symbol
_atom_site_label
_atom_site_fract_x
_atom_site_fract_y
_atom_site_fract_z
Si Si1 0.956143 0.339927 0.826290
Si Si2 0.107443 0.838119 0.414212
Si Si3 0.456604 0.836511 0.842916
Si Si4 0.254008 0.837928 0.586581
Si Si5 0.101987 0.836805 0.914982
Si Si6 0.180354 0.834830 0.159154
Si Si7 0.319598 0.333813 0.171555
O O1 0.943457 0.500000 0.837767
O O2 0.948081 0.293539 0.741884
O O3 0.933614 0.244061 0.882783
O O4 0.000000 0.321735 0.845202
O O5 0.118068 0.820966 0.500000
O O6 0.069600 0.752763 0.396999
O O7 0.142323 0.774854 0.366635
O O8 0.099920 0.000000 0.393775
O O9 0.500000 0.802485 0.862905
O O10 0.448276 0.000000 0.855223
O O11 0.246385 0.819803 0.500000
O O12 0.289708 0.746841 0.609779
O O13 0.217335 0.777584 0.629043
O O14 0.261666 0.000000 0.607316
O O15 0.139182 0.793790 0.870081
O O16 0.093232 0.000000 0.906310
O O17 0.108089 0.793928 0.000000
O O18 0.182872 0.783068 0.243811
O O19 0.188247 0.000000 0.151291
O O20 0.320952 0.500000 0.165443
#
# Coordination Sequence:
#
# PCOD8290480 Si02
#       7
#    16  16  16  16  16  16  16
#     4   9  19  36  56  77 101 132 173 217 257 301
#     4  10  20  34  54  79 105 134 171 214 256 301
#     4   9  19  36  55  75 103 138 172 209 257 309
#     4  10  20  34  53  77 105 135 167 206 254 305
#     4  10  21  35  51  75 107 139 170 208 258 312
#     4  10  20  35  55  76 101 135 173 211 250 296
#     4   9  18  34  55  77 102 134 171 210 254 301
#
# _framework density 18.437743000000001
#
# number of rings (size 3 to 8) (size 9 to 14) (size 15 to 20)
#    0.000    2.429    0.000    3.000    0.000    6.571 
#    0.000    5.714    0.000    1.714    0.000    0.000 
#    0.000    0.000    0.000    0.000    0.000    0.000 
#
# Total GULP energy -694569.111675 kJ/mol
# GULP energy per Si atom -12403.019851 kJ/mol
# Density = 1.839578 g / cm^3
# Si number density = 18.437743 Si / 1000 Ang^3
#
#
#
# Elastic Constant Matrix: (Units=GPa)
#
#
# Indices 1 2 3 4 5 6 
#
# 1 84.3903 35.8302 35.1912 0.0000 0.0000 0.0000
# 2 35.8302 40.9969 27.8675 0.0000 0.0000 0.0000
# 3 35.1912 27.8675 88.8346 0.0000 0.0000 0.0000
# 4 0.0000 0.0000 0.0000 29.9239 0.0000 0.0000
# 5 0.0000 0.0000 0.0000 0.0000 36.3815 0.0000
# 6 0.0000 0.0000 0.0000 0.0000 0.0000 31.2343
#
#
#
# Elastic Compliance Matrix: (Units=1/GPa)
#
#
# Indices 1 2 3 4 5 6 
#
# 1 0.019457 -0.014954 -0.003017 0.000000 0.000000 0.000000
# 2 -0.014954 0.042497 -0.007407 0.000000 0.000000 0.000000
# 3 -0.003017 -0.007407 0.014776 0.000000 0.000000 0.000000
# 4 0.000000 0.000000 0.000000 0.033418 0.000000 0.000000
# 5 0.000000 0.000000 0.000000 0.000000 0.027487 0.000000
# 6 0.000000 0.000000 0.000000 0.000000 0.000000 0.032016
#
#
# Mechanical properties :
#
#
# Convention : Reuss Voigt Hill
#
# Bulk Modulus (GPa) = 38.50149 45.77772 42.13961
# Shear Modulus (GPa) = 21.82801 27.19681 24.51241
#
# Velocity S-wave (km/s) = 3.44448 3.84482 3.65014
# Velocity P-wave (km/s) = 6.06189 6.67775 6.37726
#
# Compressibility (1/GPa) = 0.02597302
#
# Stress axis : x y z
#
# Youngs Moduli (GPa) = 51.39577 23.53123 67.67959
#
# Poissons Ratio (x) = 0.35189 0.20416
# Poissons Ratio (y) = 0.76859 0.50132
# Poissons Ratio (z) = 0.15504 0.17430
#
# Static dielectric constant tensor:
#      x y z
#    x 3.414110 0.000000 0.000000 
#    y 0.000000 3.160610 0.000000 
#    z 0.000000 0.000000 3.465450 
# 
# 
# High freq. dielectric constant tensor:
#      x y z
#    x 1.724450 0.000000 0.000000 
#    y 0.000000 1.692790 0.000000 
#    z 0.000000 0.000000 1.725840 
# 
# From -- ./inp_files/40938.got.cif
#   From: 2010.06.25/outbox.cif.g09.slc.cpg/sg71_21_cif.got.tgz:40938.got - 2010.06.28 04:59:45.
