data_PCOD8290355
_publ_section_title
;
Structure prediction by ZEFSAII (Michael W. Deem and Ramdas Pophale) SiO2 
 PCOD8290355
Probable space group: I M M M
;
_chemical_formula_sum "Si O2"
_cell_formula_units_Z 104
_cell_length_a 32.364678
_cell_length_b 9.449980
_cell_length_c 19.186140
_cell_angle_alpha 90.000000
_cell_angle_beta 90.000000
_cell_angle_gamma 90.000000
_cell_volume 5867.995729
_symmetry_space_group_name_H-M "I M M M"
_symmetry_group_IT_number 71
_symmetry_cell_setting 'orthorhombic'
loop_
_space_group_symop_operation_xyz
x,y,z
-x,-y,z
x,-y,-z
-x,y,-z
-x,-y,-z
x,y,-z
-x,y,z
x,-y,z
1/2+x,1/2+y,1/2+z
1/2-x,1/2-y,1/2+z
1/2+x,1/2-y,1/2-z
1/2-x,1/2+y,1/2-z
1/2-x,1/2-y,1/2-z
1/2+x,1/2+y,1/2-z
1/2-x,1/2+y,1/2+z
1/2+x,1/2-y,1/2+z
loop_
_atom_site_type_symbol
_atom_site_label
_atom_site_fract_x
_atom_site_fract_y
_atom_site_fract_z
Si Si1 0.048041 0.336976 0.692887
Si Si2 0.260977 0.340945 0.582890
Si Si3 0.814033 0.842703 0.582848
Si Si4 0.593677 0.666506 0.920473
Si Si5 0.000000 0.669133 0.078486
Si Si6 0.078766 0.332309 0.159699
Si Si7 0.659817 0.165117 0.418856
O O1 0.057286 0.500000 0.675810
O O2 0.060434 0.245813 0.626363
O O3 0.074493 0.285685 0.759799
O O4 0.000000 0.313999 0.710015
O O5 0.258865 0.343572 0.500000
O O6 0.263353 0.500000 0.612978
O O7 0.219820 0.265884 0.613318
O O8 0.300740 0.252887 0.607306
O O9 0.811213 0.849745 0.500000
O O10 0.859956 0.791708 0.604043
O O11 0.805186 0.000000 0.612738
O O12 0.587018 0.500000 0.912775
O O13 0.586267 0.714090 0.000000
O O14 0.959425 0.731271 0.116119
O O15 0.000000 0.500000 0.081177
O O16 0.000000 0.725572 0.000000
O O17 0.076978 0.500000 0.153608
O O18 0.121533 0.277550 0.126753
O O19 0.649928 0.192741 0.500000
O O20 0.668860 0.000000 0.405779
#
# Coordination Sequence:
#
# PCOD8290355 Si02
#       7
#    16  16  16  16   8  16  16
#     4  10  20  34  51  71  99 132 161 195 244 297
#     4   9  16  25  40  66  99 130 157 190 236 286
#     4   8  14  27  47  69  93 120 151 191 239 286
#     4   9  19  35  54  76  99 123 156 200 244 286
#     4   9  14  22  42  70  96 123 160 208 251 281
#     4   9  16  28  44  66  97 129 162 202 245 286
#     4   9  16  26  43  68  96 128 167 205 239 278
#
# _framework density 17.723258000000001
#
# number of rings (size 3 to 8) (size 9 to 14) (size 15 to 20)
#    0.000    3.000    0.769    1.846    0.000    5.231 
#    0.000    3.846    0.000    0.923    0.000    0.000 
#    0.000    3.692    0.000    0.000    0.000    0.000 
#
# Total GULP energy -644650.479145 kJ/mol
# GULP energy per Si atom -12397.124599 kJ/mol
# Density = 1.768292 g / cm^3
# Si number density = 17.723258 Si / 1000 Ang^3
#
#
#
# Elastic Constant Matrix: (Units=GPa)
#
#
# Indices 1 2 3 4 5 6 
#
# 1 77.0268 36.7808 33.9381 0.0000 0.0000 0.0000
# 2 36.7808 58.7646 27.0346 0.0000 0.0000 0.0000
# 3 33.9381 27.0346 69.8144 0.0000 0.0000 0.0000
# 4 0.0000 0.0000 0.0000 11.5038 0.0000 0.0000
# 5 0.0000 0.0000 0.0000 0.0000 13.4573 0.0000
# 6 0.0000 0.0000 0.0000 0.0000 0.0000 20.7865
#
#
#
# Elastic Compliance Matrix: (Units=1/GPa)
#
#
# Indices 1 2 3 4 5 6 
#
# 1 0.020425 -0.009997 -0.006058 0.000000 0.000000 0.000000
# 2 -0.009997 0.025599 -0.005053 0.000000 0.000000 0.000000
# 3 -0.006058 -0.005053 0.019225 0.000000 0.000000 0.000000
# 4 0.000000 0.000000 0.000000 0.086927 0.000000 0.000000
# 5 0.000000 0.000000 0.000000 0.000000 0.074309 0.000000
# 6 0.000000 0.000000 0.000000 0.000000 0.000000 0.048108
#
#
# Mechanical properties :
#
#
# Convention : Reuss Voigt Hill
#
# Bulk Modulus (GPa) = 43.41533 44.56807 43.99170
# Shear Modulus (GPa) = 15.40888 16.33968 15.87428
#
# Velocity S-wave (km/s) = 2.95178 3.03963 2.99603
# Velocity P-wave (km/s) = 6.01388 6.12539 6.06989
#
# Compressibility (1/GPa) = 0.02303334
#
# Stress axis : x y z
#
# Youngs Moduli (GPa) = 48.95870 39.06400 52.01506
#
# Poissons Ratio (x) = 0.39054 0.31510
# Poissons Ratio (y) = 0.48946 0.26283
# Poissons Ratio (z) = 0.29658 0.19739
#
# Static dielectric constant tensor:
#      x y z
#    x 3.473700 0.000000 0.000000 
#    y 0.000000 3.089130 0.000000 
#    z 0.000000 0.000000 2.981670 
# 
# 
# High freq. dielectric constant tensor:
#      x y z
#    x 1.696880 0.000000 0.000000 
#    y 0.000000 1.656180 0.000000 
#    z 0.000000 0.000000 1.651060 
# 
# From -- ./inp_files/56721.got.cif
#   From: 2010.06.25/outbox.cif.g09.slc.cpg/sg71_29_cif.got.tgz:56721.got - 2010.06.28 04:59:45.
