data_PCOD8290121
_publ_section_title
;
Structure prediction by ZEFSAII (Michael W. Deem and Ramdas Pophale) SiO2 
 PCOD8290121
Probable space group: I M M M
;
_chemical_formula_sum "Si O2"
_cell_formula_units_Z 104
_cell_length_a 21.754968
_cell_length_b 9.144928
_cell_length_c 27.272530
_cell_angle_alpha 90.000000
_cell_angle_beta 90.000000
_cell_angle_gamma 90.000000
_cell_volume 5425.804826
_symmetry_space_group_name_H-M "I M M M"
_symmetry_group_IT_number 71
_symmetry_cell_setting 'orthorhombic'
loop_
_space_group_symop_operation_xyz
x,y,z
-x,-y,z
x,-y,-z
-x,y,-z
-x,-y,-z
x,y,-z
-x,y,z
x,-y,z
1/2+x,1/2+y,1/2+z
1/2-x,1/2-y,1/2+z
1/2+x,1/2-y,1/2-z
1/2-x,1/2+y,1/2-z
1/2-x,1/2-y,1/2-z
1/2+x,1/2+y,1/2-z
1/2-x,1/2+y,1/2+z
1/2+x,1/2-y,1/2+z
loop_
_atom_site_type_symbol
_atom_site_label
_atom_site_fract_x
_atom_site_fract_y
_atom_site_fract_z
Si Si1 0.223936 0.169287 0.416692
Si Si2 0.295256 0.665919 0.193682
Si Si3 0.151530 0.827327 0.942472
Si Si4 0.112680 0.340674 0.554679
Si Si5 0.659123 0.828702 0.279037
Si Si6 0.500000 0.337184 0.058765
Si Si7 0.071774 0.670805 0.133883
O O1 0.192243 0.184649 0.363604
O O2 0.289648 0.245421 0.420432
O O3 0.176600 0.253816 0.450999
O O4 0.231357 0.000000 0.432013
O O5 0.300934 0.500000 0.211166
O O6 0.345838 0.756011 0.225033
O O7 0.225412 0.721151 0.200886
O O8 0.092905 0.764043 0.913342
O O9 0.157832 0.000000 0.933422
O O10 0.143531 0.792387 0.000000
O O11 0.089190 0.369173 0.500000
O O12 0.121208 0.500000 0.580687
O O13 0.059895 0.244849 0.580732
O O14 0.607343 0.773893 0.317234
O O15 0.652668 0.000000 0.272122
O O16 0.500000 0.500000 0.080814
O O17 0.500000 0.345900 0.000000
O O18 0.086284 0.500000 0.124108
O O19 0.000000 0.698653 0.142421
#
# Coordination Sequence:
#
# PCOD8290121 Si02
#       7
#    16  16  16  16  16   8  16
#     4  11  21  35  55  81 112 146 187 232 280 337
#     4   9  18  32  53  81 109 136 171 217 270 327
#     4  11  24  39  55  80 116 153 191 239 291 341
#     4  10  20  33  50  75 107 141 180 226 275 328
#     4   9  17  33  55  82 109 135 172 219 271 327
#     4   9  17  31  51  73  97 133 181 223 263 317
#     4  10  21  39  62  85 111 147 192 238 285 342
#
# _framework density 19.167663000000001
#
# number of rings (size 3 to 8) (size 9 to 14) (size 15 to 20)
#    0.000    2.077    1.538    2.077    0.000    7.385 
#    0.000    1.538    1.692    0.000    0.000    0.000 
#    0.000    0.000    0.000    0.000    0.000    0.000 
#
# Total GULP energy -644593.118616 kJ/mol
# GULP energy per Si atom -12396.021512 kJ/mol
# Density = 1.912404 g / cm^3
# Si number density = 19.167663 Si / 1000 Ang^3
#
#
#
# Elastic Constant Matrix: (Units=GPa)
#
#
# Indices 1 2 3 4 5 6 
#
# 1 103.9756 52.2901 34.4132 0.0000 0.0000 0.0000
# 2 52.2901 115.9565 43.8734 0.0000 0.0000 0.0000
# 3 34.4132 43.8734 88.1937 0.0000 0.0000 0.0000
# 4 0.0000 0.0000 0.0000 29.3838 0.0000 0.0000
# 5 0.0000 0.0000 0.0000 0.0000 27.2813 0.0000
# 6 0.0000 0.0000 0.0000 0.0000 0.0000 28.3585
#
#
#
# Elastic Compliance Matrix: (Units=1/GPa)
#
#
# Indices 1 2 3 4 5 6 
#
# 1 0.012919 -0.004827 -0.002640 0.000000 0.000000 0.000000
# 2 -0.004827 0.012427 -0.004299 0.000000 0.000000 0.000000
# 3 -0.002640 -0.004299 0.014507 0.000000 0.000000 0.000000
# 4 0.000000 0.000000 0.000000 0.034032 0.000000 0.000000
# 5 0.000000 0.000000 0.000000 0.000000 0.036655 0.000000
# 6 0.000000 0.000000 0.000000 0.000000 0.000000 0.035263
#
#
# Mechanical properties :
#
#
# Convention : Reuss Voigt Hill
#
# Bulk Modulus (GPa) = 61.26491 63.25324 62.25907
# Shear Modulus (GPa) = 28.60832 28.84133 28.72483
#
# Velocity S-wave (km/s) = 3.86752 3.88324 3.87539
# Velocity P-wave (km/s) = 7.20941 7.29230 7.25098
#
# Compressibility (1/GPa) = 0.01632256
#
# Stress axis : x y z
#
# Youngs Moduli (GPa) = 77.40653 80.46993 68.93193
#
# Poissons Ratio (x) = 0.38842 0.18196
# Poissons Ratio (y) = 0.37364 0.29631
# Poissons Ratio (z) = 0.20433 0.34590
#
# Static dielectric constant tensor:
#      x y z
#    x 3.350850 0.000000 0.000000 
#    y 0.000000 3.663260 0.000000 
#    z 0.000000 0.000000 3.451340 
# 
# 
# High freq. dielectric constant tensor:
#      x y z
#    x 1.731350 0.000000 0.000000 
#    y 0.000000 1.753380 0.000000 
#    z 0.000000 0.000000 1.727240 
# 
# From -- ./inp_files/66406.got.cif
#   From: 2010.06.25/outbox.cif.g09.slc.cpg/sg71_34_cif.got.tgz:66406.got - 2010.06.28 04:59:45.
