data_PCOD8290328
_publ_section_title
;
Structure prediction by ZEFSAII (Michael W. Deem and Ramdas Pophale) SiO2 
 PCOD8290328
Probable space group: I M M M
;
_chemical_formula_sum "Si O2"
_cell_formula_units_Z 96
_cell_length_a 18.650564
_cell_length_b 11.884896
_cell_length_c 22.385503
_cell_angle_alpha 90.000000
_cell_angle_beta 90.000000
_cell_angle_gamma 90.000000
_cell_volume 4961.970897
_symmetry_space_group_name_H-M "I M M M"
_symmetry_group_IT_number 71
_symmetry_cell_setting 'orthorhombic'
loop_
_space_group_symop_operation_xyz
x,y,z
-x,-y,z
x,-y,-z
-x,y,-z
-x,-y,-z
x,y,-z
-x,y,z
x,-y,z
1/2+x,1/2+y,1/2+z
1/2-x,1/2-y,1/2+z
1/2+x,1/2-y,1/2-z
1/2-x,1/2+y,1/2-z
1/2-x,1/2-y,1/2-z
1/2+x,1/2+y,1/2-z
1/2-x,1/2+y,1/2+z
1/2+x,1/2-y,1/2+z
loop_
_atom_site_type_symbol
_atom_site_label
_atom_site_fract_x
_atom_site_fract_y
_atom_site_fract_z
Si Si1 0.170838 0.785189 0.325373
Si Si2 0.684224 0.871700 0.067911
Si Si3 0.350658 0.663310 0.565077
Si Si4 0.083194 0.000000 0.155509
Si Si5 0.418055 0.125537 0.394325
Si Si6 0.680016 0.126603 0.714035
Si Si7 0.585862 0.500000 0.209870
O O1 0.150335 0.717046 0.385783
O O2 0.253026 0.827260 0.324707
O O3 0.160319 0.702052 0.270189
O O4 0.116088 0.889105 0.322470
O O5 0.768872 0.864452 0.076661
O O6 0.659564 0.000000 0.081793
O O7 0.662430 0.838773 0.000000
O O8 0.372716 0.614500 0.500000
O O9 0.394929 0.610164 0.619108
O O10 0.368369 0.795582 0.564761
O O11 0.116564 0.000000 0.221990
O O12 0.000000 0.000000 0.164980
O O13 0.500000 0.167492 0.395242
O O14 0.390507 0.128384 0.326469
O O15 0.411667 0.000000 0.420770
O O16 0.698162 0.000000 0.735712
O O17 0.500000 0.500000 0.205639
#
# Coordination Sequence:
#
# PCOD8290328 Si02
#       7
#    16  16  16   8  16  16   8
#     4  11  21  36  62  86 117 155 193 246 301 361
#     4  10  21  38  61  89 121 152 194 249 298 352
#     4  11  21  34  54  79 114 162 209 245 280 334
#     4  11  23  36  53  81 122 162 198 241 293 339
#     4  10  21  36  51  73 116 161 200 246 289 334
#     4  10  20  33  55  87 115 154 208 247 289 349
#     4  11  26  43  63  93 122 153 193 250 317 372
#
# _framework density 19.347151
#
# number of rings (size 3 to 8) (size 9 to 14) (size 15 to 20)
#    0.000    1.500    3.333    2.250    2.333    4.000 
#    0.000    1.250    0.000    2.500    0.000    1.167 
#    0.000    0.000    0.000    0.000    0.000    0.000 
#
# Total GULP energy -595121.278409 kJ/mol
# GULP energy per Si atom -12398.359967 kJ/mol
# Density = 1.930312 g / cm^3
# Si number density = 19.347151 Si / 1000 Ang^3
#
#
#
# Elastic Constant Matrix: (Units=GPa)
#
#
# Indices 1 2 3 4 5 6 
#
# 1 37.0649 23.9583 28.5167 0.0000 0.0000 0.0000
# 2 23.9583 135.6818 62.7091 0.0000 0.0000 0.0000
# 3 28.5167 62.7091 110.8745 0.0000 0.0000 0.0000
# 4 0.0000 0.0000 0.0000 19.8112 0.0000 0.0000
# 5 0.0000 0.0000 0.0000 0.0000 14.5437 0.0000
# 6 0.0000 0.0000 0.0000 0.0000 0.0000 20.9594
#
#
#
# Elastic Compliance Matrix: (Units=1/GPa)
#
#
# Indices 1 2 3 4 5 6 
#
# 1 0.034342 -0.002683 -0.007315 0.000000 0.000000 0.000000
# 2 -0.002683 0.010188 -0.005072 0.000000 0.000000 0.000000
# 3 -0.007315 -0.005072 0.013769 0.000000 0.000000 0.000000
# 4 0.000000 0.000000 0.000000 0.050477 0.000000 0.000000
# 5 0.000000 0.000000 0.000000 0.000000 0.068758 0.000000
# 6 0.000000 0.000000 0.000000 0.000000 0.000000 0.047711
#
#
# Mechanical properties :
#
#
# Convention : Reuss Voigt Hill
#
# Bulk Modulus (GPa) = 35.51297 57.10994 46.31145
# Shear Modulus (GPa) = 18.88407 22.29200 20.58804
#
# Velocity S-wave (km/s) = 3.12759 3.39811 3.26565
# Velocity P-wave (km/s) = 5.60696 6.70662 6.18129
#
# Compressibility (1/GPa) = 0.02815873
#
# Stress axis : x y z
#
# Youngs Moduli (GPa) = 29.11874 98.15249 72.62456
#
# Poissons Ratio (x) = 0.26335 0.53126
# Poissons Ratio (y) = 0.07813 0.36837
# Poissons Ratio (z) = 0.21301 0.49785
#
# Static dielectric constant tensor:
#      x y z
#    x 3.230280 0.000000 0.000000 
#    y 0.000000 3.666530 0.000000 
#    z 0.000000 0.000000 3.538940 
# 
# 
# High freq. dielectric constant tensor:
#      x y z
#    x 1.720380 0.000000 0.000000 
#    y 0.000000 1.773100 0.000000 
#    z 0.000000 0.000000 1.748490 
# 
# From -- ./inp_files/54912.got.cif
#   From: 2010.06.25/outbox.cif.g09.slc.cpg/sg71_28_cif.got.tgz:54912.got - 2010.06.28 04:59:45.
