data_PCOD8290265
_publ_section_title
;
Structure prediction by ZEFSAII (Michael W. Deem and Ramdas Pophale) SiO2 
 PCOD8290265
Probable space group: I M M M
;
_chemical_formula_sum "Si O2"
_cell_formula_units_Z 88
_cell_length_a 13.867277
_cell_length_b 17.007298
_cell_length_c 20.059720
_cell_angle_alpha 90.000000
_cell_angle_beta 90.000000
_cell_angle_gamma 90.000000
_cell_volume 4730.982906
_symmetry_space_group_name_H-M "I M M M"
_symmetry_group_IT_number 71
_symmetry_cell_setting 'orthorhombic'
loop_
_space_group_symop_operation_xyz
x,y,z
-x,-y,z
x,-y,-z
-x,y,-z
-x,-y,-z
x,y,-z
-x,y,z
x,-y,z
1/2+x,1/2+y,1/2+z
1/2-x,1/2-y,1/2+z
1/2+x,1/2-y,1/2-z
1/2-x,1/2+y,1/2-z
1/2-x,1/2-y,1/2-z
1/2+x,1/2+y,1/2-z
1/2-x,1/2+y,1/2+z
1/2+x,1/2-y,1/2+z
loop_
_atom_site_type_symbol
_atom_site_label
_atom_site_fract_x
_atom_site_fract_y
_atom_site_fract_z
Si Si1 0.189608 0.165962 0.185211
Si Si2 0.142410 0.161869 0.572761
Si Si3 0.354961 0.217415 0.426833
Si Si4 0.393480 0.760788 0.806187
Si Si5 0.114814 0.000000 0.789993
Si Si6 0.886571 0.000000 0.636045
Si Si7 0.500000 0.087826 0.578633
O O1 0.136120 0.211685 0.125351
O O2 0.307073 0.175342 0.186526
O O3 0.142141 0.196053 0.253487
O O4 0.163830 0.075101 0.175227
O O5 0.090697 0.161581 0.500000
O O6 0.245196 0.199221 0.564144
O O7 0.084729 0.214996 0.625082
O O8 0.157315 0.074472 0.599298
O O9 0.397877 0.241246 0.500000
O O10 0.407724 0.139252 0.398557
O O11 0.500000 0.796879 0.786533
O O12 0.143769 0.000000 0.712794
O O13 0.000000 0.000000 0.800723
O O14 0.000000 0.000000 0.627406
O O15 0.500000 0.076021 0.500000
O O16 0.500000 0.000000 0.611871
#
# Coordination Sequence:
#
# PCOD8290265 Si02
#       7
#    16  16  16  16   8   8   8
#     4  10  21  37  58  80 107 149 191 232 279 334
#     4  10  20  33  52  79 112 143 175 218 272 337
#     4   9  20  36  54  79 109 144 186 231 277 331
#     4  10  20  36  57  79 107 144 184 227 281 338
#     4  11  22  37  58  80 110 150 193 235 279 324
#     4  11  21  32  47  77 111 141 177 221 262 326
#     4   9  18  32  52  77 109 147 184 222 275 337
#
# _framework density 18.600784999999998
#
# number of rings (size 3 to 8) (size 9 to 14) (size 15 to 20)
#    0.000    2.091    1.818    1.364    3.818    1.818 
#    0.000    0.909    0.000    0.545    0.000    0.000 
#    0.000    5.818    0.000    0.000    0.000    0.000 
#
# Total GULP energy -545184.462856 kJ/mol
# GULP energy per Si atom -12390.555974 kJ/mol
# Density = 1.855845 g / cm^3
# Si number density = 18.600785 Si / 1000 Ang^3
#
#
#
# Elastic Constant Matrix: (Units=GPa)
#
#
# Indices 1 2 3 4 5 6 
#
# 1 99.1204 41.8092 26.1581 0.0000 0.0000 0.0000
# 2 41.8092 141.6327 55.4878 0.0000 0.0000 0.0000
# 3 26.1581 55.4878 97.7982 0.0000 0.0000 0.0000
# 4 0.0000 0.0000 0.0000 32.4002 0.0000 0.0000
# 5 0.0000 0.0000 0.0000 0.0000 1.4658 0.0000
# 6 0.0000 0.0000 0.0000 0.0000 0.0000 -11.8632
#
#
#
# Elastic Compliance Matrix: (Units=1/GPa)
#
#
# Indices 1 2 3 4 5 6 
#
# 1 0.011693 -0.002863 -0.001503 0.000000 0.000000 0.000000
# 2 -0.002863 0.009779 -0.004783 0.000000 0.000000 0.000000
# 3 -0.001503 -0.004783 0.013341 0.000000 0.000000 0.000000
# 4 0.000000 0.000000 0.000000 0.030864 0.000000 0.000000
# 5 0.000000 0.000000 0.000000 0.000000 0.682211 0.000000
# 6 0.000000 0.000000 0.000000 0.000000 0.000000 -0.084295
#
#
# Mechanical properties :
#
#
# Convention : Reuss Voigt Hill
#
# Bulk Modulus (GPa) = 60.54927 65.05130 62.80028
# Shear Modulus (GPa) = 7.27382 18.74031 13.00707
#
# Velocity S-wave (km/s) = 1.97964 3.17756 2.64725
# Velocity P-wave (km/s) = 6.15207 6.96497 6.57110
#
# Compressibility (1/GPa) = 0.01651548
#
# Stress axis : x y z
#
# Youngs Moduli (GPa) = 85.52144 102.25610 74.95771
#
# Poissons Ratio (x) = 0.29273 0.11268
# Poissons Ratio (y) = 0.24483 0.35851
# Poissons Ratio (z) = 0.12856 0.48907
#
# Static dielectric constant tensor:
#      x y z
#    x 2.768310 0.000000 0.000000 
#    y 0.000000 3.193620 0.000000 
#    z 0.000000 0.000000 4.441260 
# 
# 
# High freq. dielectric constant tensor:
#      x y z
#    x 1.733190 0.000000 0.000000 
#    y 0.000000 1.693700 0.000000 
#    z 0.000000 0.000000 1.719250 
# 
# From -- ./inp_files/52931.got.cif
#   From: 2010.06.25/outbox.cif.g09.slc.cpg/sg71_27_cif.got.tgz:52931.got - 2010.06.28 04:59:45.
