data_PCOD8290784
_publ_section_title
;
Structure prediction by ZEFSAII (Michael W. Deem and Ramdas Pophale) SiO2 
 PCOD8290784
Probable space group: I M M M
;
_chemical_formula_sum "Si O2"
_cell_formula_units_Z 96
_cell_length_a 12.327550
_cell_length_b 18.245303
_cell_length_c 22.900805
_cell_angle_alpha 90.000000
_cell_angle_beta 90.000000
_cell_angle_gamma 90.000000
_cell_volume 5150.846427
_symmetry_space_group_name_H-M "I M M M"
_symmetry_group_IT_number 71
_symmetry_cell_setting 'orthorhombic'
loop_
_space_group_symop_operation_xyz
x,y,z
-x,-y,z
x,-y,-z
-x,y,-z
-x,-y,-z
x,y,-z
-x,y,z
x,-y,z
1/2+x,1/2+y,1/2+z
1/2-x,1/2-y,1/2+z
1/2+x,1/2-y,1/2-z
1/2-x,1/2+y,1/2-z
1/2-x,1/2-y,1/2-z
1/2+x,1/2+y,1/2-z
1/2-x,1/2+y,1/2+z
1/2+x,1/2-y,1/2+z
loop_
_atom_site_type_symbol
_atom_site_label
_atom_site_fract_x
_atom_site_fract_y
_atom_site_fract_z
Si Si1 0.124168 0.081559 0.373852
Si Si2 0.877480 0.915007 0.164691
Si Si3 0.825185 0.195760 0.067538
Si Si4 0.000000 0.412466 0.817545
Si Si5 0.727603 0.086337 0.267743
Si Si6 0.000000 0.318722 0.933548
Si Si7 0.617132 0.272980 0.932227
O O1 0.196645 0.109753 0.320855
O O2 0.143758 0.140655 0.424553
O O3 0.000000 0.079795 0.352695
O O4 0.159179 0.000000 0.395584
O O5 0.869659 0.872120 0.103939
O O6 0.786465 0.882746 0.209388
O O7 0.000000 0.904868 0.189995
O O8 0.854987 0.000000 0.151290
O O9 0.707202 0.218170 0.093111
O O10 0.895584 0.268438 0.075487
O O11 0.823743 0.171070 0.000000
O O12 0.894793 0.384910 0.780449
O O13 0.000000 0.381150 0.883673
O O14 0.000000 0.500000 0.824546
O O15 0.724944 0.000000 0.261512
O O16 0.000000 0.352247 0.000000
O O17 0.500000 0.254293 0.903288
O O18 0.612583 0.258343 0.000000
#
# Coordination Sequence:
#
# PCOD8290784 Si02
#       7
#    16  16  16   8  16   8  16
#     4   9  16  28  49  75 102 134 178 224 258 295
#     4  10  20  36  60  83 102 129 171 222 276 334
#     4  10  20  36  56  77 107 139 168 218 278 328
#     4  10  20  35  54  77 112 152 188 218 249 307
#     4   9  18  33  52  75 104 139 172 212 264 311
#     4  10  20  35  55  80 110 146 182 222 273 313
#     4   9  18  32  49  71 103 143 178 209 257 313
#
# _framework density 18.637713999999999
#
# number of rings (size 3 to 8) (size 9 to 14) (size 15 to 20)
#    0.000    2.500    0.833    1.500    0.000    2.833 
#    1.500    5.833    0.000    6.000    0.000    2.333 
#    0.000    0.000    0.000    0.000    0.000    0.000 
#
# Total GULP energy -594741.307921 kJ/mol
# GULP energy per Si atom -12390.443915 kJ/mol
# Density = 1.859529 g / cm^3
# Si number density = 18.637714 Si / 1000 Ang^3
#
#
#
# Elastic Constant Matrix: (Units=GPa)
#
#
# Indices 1 2 3 4 5 6 
#
# 1 124.1995 34.9567 51.4424 0.0000 0.0000 0.0000
# 2 34.9567 48.6869 30.4743 0.0000 0.0000 0.0000
# 3 51.4424 30.4743 70.1675 0.0000 0.0000 0.0000
# 4 0.0000 0.0000 0.0000 26.3092 0.0000 0.0000
# 5 0.0000 0.0000 0.0000 0.0000 24.2920 0.0000
# 6 0.0000 0.0000 0.0000 0.0000 0.0000 21.9662
#
#
#
# Elastic Compliance Matrix: (Units=1/GPa)
#
#
# Indices 1 2 3 4 5 6 
#
# 1 0.012196 -0.004340 -0.007056 0.000000 0.000000 0.000000
# 2 -0.004340 0.029752 -0.009740 0.000000 0.000000 0.000000
# 3 -0.007056 -0.009740 0.023655 0.000000 0.000000 0.000000
# 4 0.000000 0.000000 0.000000 0.038009 0.000000 0.000000
# 5 0.000000 0.000000 0.000000 0.000000 0.041166 0.000000
# 6 0.000000 0.000000 0.000000 0.000000 0.000000 0.045525
#
#
# Mechanical properties :
#
#
# Convention : Reuss Voigt Hill
#
# Bulk Modulus (GPa) = 42.86212 52.97786 47.91999
# Shear Modulus (GPa) = 20.80294 22.92550 21.86422
#
# Velocity S-wave (km/s) = 3.34454 3.51103 3.42880
# Velocity P-wave (km/s) = 6.16134 6.70248 6.43760
#
# Compressibility (1/GPa) = 0.02333062
#
# Stress axis : x y z
#
# Youngs Moduli (GPa) = 81.99633 33.61169 42.27439
#
# Poissons Ratio (x) = 0.14586 0.29830
# Poissons Ratio (y) = 0.35583 0.41174
# Poissons Ratio (z) = 0.57860 0.32737
#
# Static dielectric constant tensor:
#      x y z
#    x 4.177590 0.000000 0.000000 
#    y 0.000000 3.106690 0.000000 
#    z 0.000000 0.000000 3.280320 
# 
# 
# High freq. dielectric constant tensor:
#      x y z
#    x 1.743830 0.000000 0.000000 
#    y 0.000000 1.693960 0.000000 
#    z 0.000000 0.000000 1.705170 
# 
# From -- ./inp_files/43574.got.cif
#   From: 2010.06.25/outbox.cif.g09.slc.cpg/sg71_22_cif.got.tgz:43574.got - 2010.06.28 04:59:45.
