data_PCOD8290391
_publ_section_title
;
Structure prediction by ZEFSAII (Michael W. Deem and Ramdas Pophale) SiO2 
 PCOD8290391
Probable space group: I M M M
;
_chemical_formula_sum "Si O2"
_cell_formula_units_Z 120
_cell_length_a 28.303876
_cell_length_b 8.841574
_cell_length_c 27.430553
_cell_angle_alpha 90.000000
_cell_angle_beta 90.000000
_cell_angle_gamma 90.000000
_cell_volume 6864.518221
_symmetry_space_group_name_H-M "I M M M"
_symmetry_group_IT_number 71
_symmetry_cell_setting 'orthorhombic'
loop_
_space_group_symop_operation_xyz
x,y,z
-x,-y,z
x,-y,-z
-x,y,-z
-x,-y,-z
x,y,-z
-x,y,z
x,-y,z
1/2+x,1/2+y,1/2+z
1/2-x,1/2-y,1/2+z
1/2+x,1/2-y,1/2-z
1/2-x,1/2+y,1/2-z
1/2-x,1/2-y,1/2-z
1/2+x,1/2+y,1/2-z
1/2-x,1/2+y,1/2+z
1/2+x,1/2-y,1/2+z
loop_
_atom_site_type_symbol
_atom_site_label
_atom_site_fract_x
_atom_site_fract_y
_atom_site_fract_z
Si Si1 0.717301 0.827586 0.556517
Si Si2 0.793621 0.827114 0.308855
Si Si3 0.090838 0.332944 0.442622
Si Si4 0.552965 0.679545 0.554766
Si Si5 0.815609 0.673590 0.789455
Si Si6 0.810057 0.678365 0.407168
Si Si7 0.500000 0.667155 0.941691
Si Si8 0.139191 0.178891 0.120091
O O1 0.704568 0.818736 0.500000
O O2 0.770218 0.771469 0.564867
O O3 0.682346 0.717335 0.584781
O O4 0.712373 0.000000 0.575948
O O5 0.818170 0.773092 0.259205
O O6 0.737130 0.812302 0.310094
O O7 0.811944 0.715137 0.350196
O O8 0.808730 0.000000 0.318391
O O9 0.084935 0.337996 0.500000
O O10 0.088920 0.500000 0.419906
O O11 0.140923 0.259740 0.429244
O O12 0.046977 0.243093 0.419771
O O13 0.564978 0.739810 0.500000
O O14 0.500000 0.733334 0.569672
O O15 0.555169 0.500000 0.553764
O O16 0.590914 0.739450 0.594423
O O17 0.828311 0.500000 0.777811
O O18 0.853328 0.738563 0.828192
O O19 0.802566 0.500000 0.416049
O O20 0.500000 0.500000 0.921037
O O21 0.500000 0.671991 0.000000
O O22 0.137878 0.000000 0.128953
#
# Coordination Sequence:
#
# PCOD8290391 Si02
#       8
#    16  16  16  16  16  16   8  16
#     4  11  23  35  46  66 102 143 175 206 246 293
#     4  10  20  34  52  73 101 133 167 207 251 296
#     4   9  18  32  49  70  98 132 167 203 243 290
#     4   8  15  29  49  75 106 137 172 215 259 303
#     4  10  20  34  52  73 101 132 166 207 252 297
#     4  11  21  33  51  74 101 133 170 206 249 301
#     4   9  17  29  47  71  95 123 163 207 245 281
#     4  11  20  31  52  78 102 132 172 213 257 307
#
# _framework density 17.481197999999999
#
# number of rings (size 3 to 8) (size 9 to 14) (size 15 to 20)
#    0.000    2.067    1.333    3.400    0.000    5.067 
#    0.000    1.333    0.000    1.600    1.733    4.667 
#    0.000    0.000    0.000    0.000    0.000    0.000 
#
# Total GULP energy -743917.537886 kJ/mol
# GULP energy per Si atom -12398.625631 kJ/mol
# Density = 1.744141 g / cm^3
# Si number density = 17.481198 Si / 1000 Ang^3
#
#
#
# Elastic Constant Matrix: (Units=GPa)
#
#
# Indices 1 2 3 4 5 6 
#
# 1 90.9134 17.3714 14.9637 0.0000 0.0000 0.0000
# 2 17.3714 57.6288 11.5768 0.0000 0.0000 0.0000
# 3 14.9637 11.5768 49.6104 0.0000 0.0000 0.0000
# 4 0.0000 0.0000 0.0000 26.1208 0.0000 0.0000
# 5 0.0000 0.0000 0.0000 0.0000 21.8526 0.0000
# 6 0.0000 0.0000 0.0000 0.0000 0.0000 12.9784
#
#
#
# Elastic Compliance Matrix: (Units=1/GPa)
#
#
# Indices 1 2 3 4 5 6 
#
# 1 0.012064 -0.003048 -0.002927 0.000000 0.000000 0.000000
# 2 -0.003048 0.018976 -0.003509 0.000000 0.000000 0.000000
# 3 -0.002927 -0.003509 0.021859 0.000000 0.000000 0.000000
# 4 0.000000 0.000000 0.000000 0.038284 0.000000 0.000000
# 5 0.000000 0.000000 0.000000 0.000000 0.045761 0.000000
# 6 0.000000 0.000000 0.000000 0.000000 0.000000 0.077051
#
#
# Mechanical properties :
#
#
# Convention : Reuss Voigt Hill
#
# Bulk Modulus (GPa) = 29.47259 31.77515 30.62387
# Shear Modulus (GPa) = 20.46887 22.47307 21.47097
#
# Velocity S-wave (km/s) = 3.42556 3.58936 3.50842
# Velocity P-wave (km/s) = 5.70458 5.94930 5.82822
#
# Compressibility (1/GPa) = 0.03392983
#
# Stress axis : x y z
#
# Youngs Moduli (GPa) = 82.89280 52.69766 45.74814
#
# Poissons Ratio (x) = 0.16064 0.13392
# Poissons Ratio (y) = 0.25269 0.16052
# Poissons Ratio (z) = 0.24266 0.18490
#
# Static dielectric constant tensor:
#      x y z
#    x 3.354550 0.000000 0.000000 
#    y 0.000000 3.267620 0.000000 
#    z 0.000000 0.000000 3.158450 
# 
# 
# High freq. dielectric constant tensor:
#      x y z
#    x 1.662750 0.000000 0.000000 
#    y 0.000000 1.675610 0.000000 
#    z 0.000000 0.000000 1.659240 
# 
# From -- ./inp_files/67152.got.cif
#   From: 2010.06.25/outbox.cif.g09.slc.cpg/sg71_34_cif.got.tgz:67152.got - 2010.06.28 04:59:45.
