data_PCOD8290433
_publ_section_title
;
Structure prediction by ZEFSAII (Michael W. Deem and Ramdas Pophale) SiO2 
 PCOD8290433
Probable space group: I M M M
;
_chemical_formula_sum "Si O2"
_cell_formula_units_Z 120
_cell_length_a 23.239377
_cell_length_b 21.235556
_cell_length_c 12.837285
_cell_angle_alpha 90.000000
_cell_angle_beta 90.000000
_cell_angle_gamma 90.000000
_cell_volume 6335.214162
_symmetry_space_group_name_H-M "I M M M"
_symmetry_group_IT_number 71
_symmetry_cell_setting 'orthorhombic'
loop_
_space_group_symop_operation_xyz
x,y,z
-x,-y,z
x,-y,-z
-x,y,-z
-x,-y,-z
x,y,-z
-x,y,z
x,-y,z
1/2+x,1/2+y,1/2+z
1/2-x,1/2-y,1/2+z
1/2+x,1/2-y,1/2-z
1/2-x,1/2+y,1/2-z
1/2-x,1/2-y,1/2-z
1/2+x,1/2+y,1/2-z
1/2-x,1/2+y,1/2+z
1/2+x,1/2-y,1/2+z
loop_
_atom_site_type_symbol
_atom_site_label
_atom_site_fract_x
_atom_site_fract_y
_atom_site_fract_z
Si Si1 0.064180 0.429571 0.733648
Si Si2 0.568311 0.568696 0.500000
Si Si3 0.745401 0.653150 0.235301
Si Si4 0.435258 0.185966 0.379243
Si Si5 0.820845 0.755563 0.123418
Si Si6 0.935825 0.075488 0.777551
Si Si7 0.323803 0.071792 0.117850
Si Si8 0.842085 0.925626 0.382550
O O1 0.070326 0.500000 0.781671
O O2 0.078362 0.379766 0.823432
O O3 0.108123 0.421051 0.638348
O O4 0.000000 0.418905 0.688865
O O5 0.597934 0.500000 0.500000
O O6 0.500000 0.560804 0.500000
O O7 0.585606 0.603289 0.608799
O O8 0.777281 0.701117 0.158988
O O9 0.696510 0.683589 0.309236
O O10 0.790870 0.618581 0.307357
O O11 0.716817 0.602655 0.159278
O O12 0.430019 0.170168 0.500000
O O13 0.500000 0.211011 0.351885
O O14 0.387101 0.237691 0.348585
O O15 0.813338 0.768137 0.000000
O O16 0.895067 0.100045 0.686325
O O17 0.000000 0.099551 0.751982
O O18 0.935347 0.000000 0.786039
O O19 0.303381 0.000000 0.137030
O O20 0.311487 0.092404 0.000000
O O21 0.853622 0.903123 0.500000
O O22 0.836807 0.000000 0.375207
#
# Coordination Sequence:
#
# PCOD8290433 Si02
#       8
#    16   8  16  16  16  16  16  16
#     4   9  17  30  50  79 114 146 177 217 268 330
#     4   7  10  20  40  66  96 128 164 204 243 293
#     4  11  21  37  56  76 105 142 182 224 267 321
#     4   9  17  32  55  81 109 139 173 219 273 326
#     4  10  21  37  58  80 101 134 182 227 269 319
#     4   8  14  27  48  73 102 136 172 209 254 310
#     4  10  20  34  52  77 111 147 184 227 274 325
#     4  10  21  36  54  79 110 141 176 219 270 329
#
# _framework density 18.941744
#
# number of rings (size 3 to 8) (size 9 to 14) (size 15 to 20)
#    0.000    2.600    1.333    2.000    0.000    0.800 
#    2.400    4.667    0.000    0.000    0.000    0.000 
#    0.000    0.000    0.000    0.267    0.000    0.000 
#
# Total GULP energy -743622.374370 kJ/mol
# GULP energy per Si atom -12393.706240 kJ/mol
# Density = 1.889863 g / cm^3
# Si number density = 18.941744 Si / 1000 Ang^3
#
#
#
# Elastic Constant Matrix: (Units=GPa)
#
#
# Indices 1 2 3 4 5 6 
#
# 1 94.0113 25.3290 49.2990 0.0000 0.0000 0.0000
# 2 25.3290 36.7752 26.5768 0.0000 0.0000 0.0000
# 3 49.2990 26.5768 116.1828 0.0000 0.0000 0.0000
# 4 0.0000 0.0000 0.0000 20.8012 0.0000 0.0000
# 5 0.0000 0.0000 0.0000 0.0000 32.3513 0.0000
# 6 0.0000 0.0000 0.0000 0.0000 0.0000 24.7618
#
#
#
# Elastic Compliance Matrix: (Units=1/GPa)
#
#
# Indices 1 2 3 4 5 6 
#
# 1 0.015002 -0.006867 -0.004795 0.000000 0.000000 0.000000
# 2 -0.006867 0.035722 -0.005257 0.000000 0.000000 0.000000
# 3 -0.004795 -0.005257 0.011844 0.000000 0.000000 0.000000
# 4 0.000000 0.000000 0.000000 0.048074 0.000000 0.000000
# 5 0.000000 0.000000 0.000000 0.000000 0.030911 0.000000
# 6 0.000000 0.000000 0.000000 0.000000 0.000000 0.040385
#
#
# Mechanical properties :
#
#
# Convention : Reuss Voigt Hill
#
# Bulk Modulus (GPa) = 34.80840 49.93099 42.36970
# Shear Modulus (GPa) = 22.18757 25.30051 23.74404
#
# Velocity S-wave (km/s) = 3.42622 3.65869 3.54436
# Velocity P-wave (km/s) = 5.83682 6.65323 6.25835
#
# Compressibility (1/GPa) = 0.02872869
#
# Stress axis : x y z
#
# Youngs Moduli (GPa) = 66.65997 27.99434 84.42963
#
# Poissons Ratio (x) = 0.19225 0.40480
# Poissons Ratio (y) = 0.45778 0.44387
# Poissons Ratio (z) = 0.31961 0.14718
#
# Static dielectric constant tensor:
#      x y z
#    x 3.600530 0.000000 0.000000 
#    y 0.000000 3.246920 0.000000 
#    z 0.000000 0.000000 3.599800 
# 
# 
# High freq. dielectric constant tensor:
#      x y z
#    x 1.740910 0.000000 0.000000 
#    y 0.000000 1.713800 0.000000 
#    z 0.000000 0.000000 1.735070 
# 
# From -- ./inp_files/27708.got.cif
#   From: 2010.06.25/outbox.cif.g09.slc.cpg/sg71_14_cif.got.tgz:27708.got - 2010.06.28 04:59:45.
