data_PCOD8290122
_publ_section_title
;
Structure prediction by ZEFSAII (Michael W. Deem and Ramdas Pophale) SiO2 
 PCOD8290122
Probable space group: I M M M
;
_chemical_formula_sum "Si O2"
_cell_formula_units_Z 104
_cell_length_a 27.242641
_cell_length_b 22.612740
_cell_length_c 9.239555
_cell_angle_alpha 90.000000
_cell_angle_beta 90.000000
_cell_angle_gamma 90.000000
_cell_volume 5691.850069
_symmetry_space_group_name_H-M "I M M M"
_symmetry_group_IT_number 71
_symmetry_cell_setting 'orthorhombic'
loop_
_space_group_symop_operation_xyz
x,y,z
-x,-y,z
x,-y,-z
-x,y,-z
-x,-y,-z
x,y,-z
-x,y,z
x,-y,z
1/2+x,1/2+y,1/2+z
1/2-x,1/2-y,1/2+z
1/2+x,1/2-y,1/2-z
1/2-x,1/2+y,1/2-z
1/2-x,1/2-y,1/2-z
1/2+x,1/2+y,1/2-z
1/2-x,1/2+y,1/2+z
1/2+x,1/2-y,1/2+z
loop_
_atom_site_type_symbol
_atom_site_label
_atom_site_fract_x
_atom_site_fract_y
_atom_site_fract_z
Si Si1 0.092999 0.570037 0.837538
Si Si2 0.236035 0.067264 0.665074
Si Si3 0.360985 0.632934 0.165570
Si Si4 0.819175 0.376179 0.334646
Si Si5 0.300599 0.255380 0.165499
Si Si6 0.943787 0.067091 0.169822
Si Si7 0.500000 0.070555 0.836923
O O1 0.090388 0.500000 0.843287
O O2 0.142832 0.588281 0.761623
O O3 0.047515 0.595503 0.745941
O O4 0.090854 0.596032 0.000000
O O5 0.253262 0.078599 0.500000
O O6 0.178513 0.080528 0.681104
O O7 0.265297 0.110169 0.772420
O O8 0.245744 0.000000 0.710960
O O9 0.336533 0.693574 0.227348
O O10 0.409177 0.615034 0.253731
O O11 0.377112 0.642243 0.000000
O O12 0.822516 0.398132 0.500000
O O13 0.829596 0.306407 0.324065
O O14 0.250000 0.250000 0.250000
O O15 0.287061 0.271333 0.000000
O O16 0.000000 0.082860 0.208332
O O17 0.932155 0.000000 0.221921
O O18 0.934737 0.071927 0.000000
O O19 0.500000 0.000000 0.838548
O O20 0.500000 0.095614 0.000000
#
# Coordination Sequence:
#
# PCOD8290122 Si02
#       7
#    16  16  16  16  16  16   8
#     4  10  20  34  53  77 106 140 175 213 262 319
#     4  10  20  33  50  75 108 142 173 211 263 320
#     4  10  20  35  56  80 107 141 182 224 266 319
#     4  11  22  34  51  76 104 137 178 222 267 313
#     4  10  21  37  56  77 103 138 182 223 262 310
#     4   9  19  36  57  83 115 146 177 220 275 331
#     4   9  17  31  53  79 105 133 167 211 260 309
#
# _framework density 18.271740000000001
#
# number of rings (size 3 to 8) (size 9 to 14) (size 15 to 20)
#    0.000    2.077    1.538    2.538    0.000    7.077 
#    0.000    0.769    1.692    0.000    0.000    0.000 
#    0.000    0.000    0.000    0.000    0.000    0.000 
#
# Total GULP energy -644838.497353 kJ/mol
# GULP energy per Si atom -12400.740334 kJ/mol
# Density = 1.823015 g / cm^3
# Si number density = 18.271740 Si / 1000 Ang^3
#
#
#
# Elastic Constant Matrix: (Units=GPa)
#
#
# Indices 1 2 3 4 5 6 
#
# 1 106.4055 34.2708 55.2628 0.0000 0.0000 0.0000
# 2 34.2708 79.9050 32.8427 0.0000 0.0000 0.0000
# 3 55.2628 32.8427 106.8177 0.0000 0.0000 0.0000
# 4 0.0000 0.0000 0.0000 23.5407 0.0000 0.0000
# 5 0.0000 0.0000 0.0000 0.0000 33.3935 0.0000
# 6 0.0000 0.0000 0.0000 0.0000 0.0000 25.9936
#
#
#
# Elastic Compliance Matrix: (Units=1/GPa)
#
#
# Indices 1 2 3 4 5 6 
#
# 1 0.013598 -0.003366 -0.006000 0.000000 0.000000 0.000000
# 2 -0.003366 0.015158 -0.002919 0.000000 0.000000 0.000000
# 3 -0.006000 -0.002919 0.013364 0.000000 0.000000 0.000000
# 4 0.000000 0.000000 0.000000 0.042480 0.000000 0.000000
# 5 0.000000 0.000000 0.000000 0.000000 0.029946 0.000000
# 6 0.000000 0.000000 0.000000 0.000000 0.000000 0.038471
#
#
# Mechanical properties :
#
#
# Convention : Reuss Voigt Hill
#
# Bulk Modulus (GPa) = 56.98233 59.76452 58.37343
# Shear Modulus (GPa) = 27.25715 27.96901 27.61308
#
# Velocity S-wave (km/s) = 3.86653 3.91669 3.89169
# Velocity P-wave (km/s) = 7.15452 7.29614 7.22568
#
# Compressibility (1/GPa) = 0.01754930
#
# Stress axis : x y z
#
# Youngs Moduli (GPa) = 73.53772 65.96998 74.83011
#
# Poissons Ratio (x) = 0.22206 0.44900
# Poissons Ratio (y) = 0.24753 0.21845
# Poissons Ratio (z) = 0.44125 0.19258
#
# Static dielectric constant tensor:
#      x y z
#    x 3.267600 0.000000 0.000000 
#    y 0.000000 3.341630 0.000000 
#    z 0.000000 0.000000 3.441180 
# 
# 
# High freq. dielectric constant tensor:
#      x y z
#    x 1.703680 0.000000 0.000000 
#    y 0.000000 1.692830 0.000000 
#    z 0.000000 0.000000 1.711340 
# 
# From -- ./inp_files/15292.got.cif
#   From: 2010.06.25/outbox.cif.g09.slc.cpg/sg71_8_cif.got.tgz:15292.got - 2010.06.28 04:59:45.
