data_PCOD8290123
_publ_section_title
;
Structure prediction by ZEFSAII (Michael W. Deem and Ramdas Pophale) SiO2 
 PCOD8290123
Probable space group: I M M M
;
_chemical_formula_sum "Si O2"
_cell_formula_units_Z 80
_cell_length_a 8.523797
_cell_length_b 27.570671
_cell_length_c 17.920738
_cell_angle_alpha 90.000000
_cell_angle_beta 90.000000
_cell_angle_gamma 90.000000
_cell_volume 4211.495340
_symmetry_space_group_name_H-M "I M M M"
_symmetry_group_IT_number 71
_symmetry_cell_setting 'orthorhombic'
loop_
_space_group_symop_operation_xyz
x,y,z
-x,-y,z
x,-y,-z
-x,y,-z
-x,-y,-z
x,y,-z
-x,y,z
x,-y,z
1/2+x,1/2+y,1/2+z
1/2-x,1/2-y,1/2+z
1/2+x,1/2-y,1/2-z
1/2-x,1/2+y,1/2-z
1/2-x,1/2-y,1/2-z
1/2+x,1/2+y,1/2-z
1/2-x,1/2+y,1/2+z
1/2+x,1/2-y,1/2+z
loop_
_atom_site_type_symbol
_atom_site_label
_atom_site_fract_x
_atom_site_fract_y
_atom_site_fract_z
Si Si1 0.817862 0.899552 0.084138
Si Si2 0.182719 0.853445 0.701697
Si Si3 0.816969 0.554836 0.275297
Si Si4 0.682130 0.787089 0.414139
Si Si5 0.182834 0.691719 0.653480
O O1 0.740627 0.938229 0.139759
O O2 0.736650 0.847164 0.091798
O O3 0.000000 0.893697 0.104580
O O4 0.794141 0.918500 0.000000
O O5 0.227956 0.908851 0.719919
O O6 0.277076 0.836957 0.628211
O O7 0.224450 0.817924 0.770047
O O8 0.000000 0.850200 0.684637
O O9 0.780224 0.500000 0.250197
O O10 0.000000 0.566649 0.271926
O O11 0.730354 0.793357 0.500000
O O12 0.500000 0.774259 0.405817
O O13 0.783652 0.744882 0.376888
O O14 0.000000 0.685834 0.670367
#
# Coordination Sequence:
#
# PCOD8290123 Si02
#       5
#    16  16  16  16  16
#     4  10  20  33  50  75 109 146 182 220 263 311
#     4  11  22  37  58  81 108 140 177 220 263 313
#     4  10  21  37  57  79 103 135 177 222 268 319
#     4  11  23  38  56  79 110 144 177 216 263 314
#     4  11  21  34  54  79 110 146 184 220 256 306
#
# _framework density 18.995629000000001
#
# number of rings (size 3 to 8) (size 9 to 14) (size 15 to 20)
#    0.000    1.400    0.000    9.000    0.000    7.600 
#    0.000    2.000    0.000    0.600    0.000    4.200 
#    0.000    0.000    0.000    0.000    0.000    0.000 
#
# Total GULP energy -496187.861539 kJ/mol
# GULP energy per Si atom -12404.696538 kJ/mol
# Density = 1.895239 g / cm^3
# Si number density = 18.995629 Si / 1000 Ang^3
#
#
#
# Elastic Constant Matrix: (Units=GPa)
#
#
# Indices 1 2 3 4 5 6 
#
# 1 80.5939 23.2454 20.5188 -0.0001 0.0000 0.0000
# 2 23.2454 98.2864 48.8593 0.0000 0.0000 0.0000
# 3 20.5188 48.8593 88.2009 -0.0003 0.0000 0.0000
# 4 -0.0001 0.0000 -0.0003 12.8492 0.0000 0.0000
# 5 0.0000 0.0000 0.0000 0.0000 27.9445 0.0000
# 6 0.0000 0.0000 0.0000 0.0000 0.0000 30.5434
#
#
#
# Elastic Compliance Matrix: (Units=1/GPa)
#
#
# Indices 1 2 3 4 5 6 
#
# 1 0.013543 -0.002259 -0.001899 0.000000 0.000000 0.000000
# 2 -0.002259 0.014418 -0.007461 0.000000 0.000000 0.000000
# 3 -0.001899 -0.007461 0.015913 0.000000 0.000000 0.000000
# 4 0.000000 0.000000 0.000000 0.077826 0.000000 0.000000
# 5 0.000000 0.000000 0.000000 0.000000 0.035785 0.000000
# 6 0.000000 0.000000 0.000000 0.000000 0.000000 0.032740
#
#
# Mechanical properties :
#
#
# Convention : Reuss Voigt Hill
#
# Bulk Modulus (GPa) = 48.46219 50.25869 49.36044
# Shear Modulus (GPa) = 22.69203 25.89793 24.29498
#
# Velocity S-wave (km/s) = 3.46004 3.69638 3.58016
# Velocity P-wave (km/s) = 6.44439 6.68828 6.56747
#
# Compressibility (1/GPa) = 0.02063464
#
# Stress axis : x y z
#
# Youngs Moduli (GPa) = 73.83917 69.35945 62.84256
#
# Poissons Ratio (x) = 0.15667 0.11936
# Poissons Ratio (y) = 0.16679 0.46888
# Poissons Ratio (z) = 0.14024 0.51751
#
# Static dielectric constant tensor:
#      x y z
#    x 3.578700 0.000000 0.000000 
#    y 0.000000 3.429530 0.000000 
#    z 0.000000 0.000000 3.445060 
# 
# 
# High freq. dielectric constant tensor:
#      x y z
#    x 1.757530 0.000000 0.000000 
#    y 0.000000 1.728030 0.000000 
#    z 0.000000 0.000000 1.723620 
# 
# From -- ./inp_files/8617.got.cif
#   From: 2010.06.25/outbox.cif.g09.slc.cpg/sg71_5_cif.got.tgz:8617.got - 2010.06.28 04:59:45.
