data_PCOD8290920
_publ_section_title
;
Structure prediction by ZEFSAII (Michael W. Deem and Ramdas Pophale) SiO2 
 PCOD8290920
Probable space group: I M M M
;
_chemical_formula_sum "Si O2"
_cell_formula_units_Z 72
_cell_length_a 17.956216
_cell_length_b 9.122335
_cell_length_c 22.256505
_cell_angle_alpha 90.000000
_cell_angle_beta 90.000000
_cell_angle_gamma 90.000000
_cell_volume 3645.673780
_symmetry_space_group_name_H-M "I M M M"
_symmetry_group_IT_number 71
_symmetry_cell_setting 'orthorhombic'
loop_
_space_group_symop_operation_xyz
x,y,z
-x,-y,z
x,-y,-z
-x,y,-z
-x,-y,-z
x,y,-z
-x,y,z
x,-y,z
1/2+x,1/2+y,1/2+z
1/2-x,1/2-y,1/2+z
1/2+x,1/2-y,1/2-z
1/2-x,1/2+y,1/2-z
1/2-x,1/2-y,1/2-z
1/2+x,1/2+y,1/2-z
1/2-x,1/2+y,1/2+z
1/2+x,1/2-y,1/2+z
loop_
_atom_site_type_symbol
_atom_site_label
_atom_site_fract_x
_atom_site_fract_y
_atom_site_fract_z
Si Si1 0.584661 0.325471 0.500000
Si Si2 0.812281 0.172280 0.653456
Si Si3 0.918219 0.828333 0.756979
Si Si4 0.660320 0.328877 0.377339
Si Si5 0.916206 0.663790 0.570638
O O1 0.581338 0.500000 0.500000
O O2 0.500000 0.263616 0.500000
O O3 0.628585 0.268958 0.440837
O O4 0.853814 0.235731 0.713247
O O5 0.733700 0.247571 0.644088
O O6 0.863996 0.211392 0.597332
O O7 0.799003 0.000000 0.656989
O O8 0.901130 0.797020 0.826614
O O9 0.000000 0.759739 0.742968
O O10 0.921431 0.000000 0.744278
O O11 0.679029 0.500000 0.382715
O O12 0.911744 0.679428 0.500000
O O13 0.890082 0.500000 0.589852
O O14 0.000000 0.691275 0.593314
#
# Coordination Sequence:
#
# PCOD8290920 Si02
#       5
#     8  16  16  16  16
#     4   9  18  34  59  87 106 131 182 237 277 318
#     4  11  22  34  52  80 115 149 181 218 271 336
#     4   9  18  34  56  80 107 142 185 233 279 323
#     4  10  20  35  57  82 109 142 182 231 280 323
#     4   9  19  36  56  77 104 141 186 233 276 320
#
# _framework density 19.749434999999998
#
# number of rings (size 3 to 8) (size 9 to 14) (size 15 to 20)
#    0.000    2.333    0.000    3.333    1.556    4.444 
#    0.000    2.222    0.000    6.000    0.000    0.000 
#    0.000    0.000    0.000    0.000    0.000    0.000 
#
# Total GULP energy -446278.751000 kJ/mol
# GULP energy per Si atom -12396.631972 kJ/mol
# Density = 1.970448 g / cm^3
# Si number density = 19.749435 Si / 1000 Ang^3
#
#
#
# Elastic Constant Matrix: (Units=GPa)
#
#
# Indices 1 2 3 4 5 6 
#
# 1 150.7831 36.2119 75.2698 0.0000 0.0000 0.0000
# 2 36.2119 38.4362 31.8185 0.0000 0.0000 0.0000
# 3 75.2698 31.8185 112.9543 0.0000 0.0000 0.0000
# 4 0.0000 0.0000 0.0000 19.4949 0.0000 0.0000
# 5 0.0000 0.0000 0.0000 0.0000 30.8002 0.0000
# 6 0.0000 0.0000 0.0000 0.0000 0.0000 26.5599
#
#
#
# Elastic Compliance Matrix: (Units=1/GPa)
#
#
# Indices 1 2 3 4 5 6 
#
# 1 0.010755 -0.005477 -0.005624 0.000000 0.000000 0.000000
# 2 -0.005477 0.036718 -0.006694 0.000000 0.000000 0.000000
# 3 -0.005624 -0.006694 0.014486 0.000000 0.000000 0.000000
# 4 0.000000 0.000000 0.000000 0.051295 0.000000 0.000000
# 5 0.000000 0.000000 0.000000 0.000000 0.032467 0.000000
# 6 0.000000 0.000000 0.000000 0.000000 0.000000 0.037651
#
#
# Mechanical properties :
#
#
# Convention : Reuss Voigt Hill
#
# Bulk Modulus (GPa) = 37.92113 65.41933 51.67023
# Shear Modulus (GPa) = 21.95374 25.96257 23.95815
#
# Velocity S-wave (km/s) = 3.33770 3.62967 3.48675
# Velocity P-wave (km/s) = 5.83922 7.12479 6.51380
#
# Compressibility (1/GPa) = 0.02637052
#
# Stress axis : x y z
#
# Youngs Moduli (GPa) = 92.98212 27.23447 69.03052
#
# Poissons Ratio (x) = 0.14916 0.38822
# Poissons Ratio (y) = 0.50924 0.46207
# Poissons Ratio (z) = 0.52292 0.18230
#
# Static dielectric constant tensor:
#      x y z
#    x 3.799900 0.000000 0.000000 
#    y 0.000000 3.281940 0.000000 
#    z 0.000000 0.000000 3.765400 
# 
# 
# High freq. dielectric constant tensor:
#      x y z
#    x 1.783070 0.000000 0.000000 
#    y 0.000000 1.724390 0.000000 
#    z 0.000000 0.000000 1.781470 
# 
# From -- ./inp_files/7976.got.cif
#   From: 2010.06.25/outbox.cif.g09.slc.cpg/sg71_4_cif.got.tgz:7976.got - 2010.06.28 04:59:45.
