data_PCOD8290507
_publ_section_title
;
Structure prediction by ZEFSAII (Michael W. Deem and Ramdas Pophale) SiO2 
 PCOD8290507
Probable space group: I M M M
;
_chemical_formula_sum "Si O2"
_cell_formula_units_Z 72
_cell_length_a 9.132976
_cell_length_b 22.231430
_cell_length_c 18.281949
_cell_angle_alpha 90.000000
_cell_angle_beta 90.000000
_cell_angle_gamma 90.000000
_cell_volume 3711.950775
_symmetry_space_group_name_H-M "I M M M"
_symmetry_group_IT_number 71
_symmetry_cell_setting 'orthorhombic'
loop_
_space_group_symop_operation_xyz
x,y,z
-x,-y,z
x,-y,-z
-x,y,-z
-x,-y,-z
x,y,-z
-x,y,z
x,-y,z
1/2+x,1/2+y,1/2+z
1/2-x,1/2-y,1/2+z
1/2+x,1/2-y,1/2-z
1/2-x,1/2+y,1/2-z
1/2-x,1/2-y,1/2-z
1/2+x,1/2+y,1/2-z
1/2-x,1/2+y,1/2+z
1/2+x,1/2-y,1/2+z
loop_
_atom_site_type_symbol
_atom_site_label
_atom_site_fract_x
_atom_site_fract_y
_atom_site_fract_z
Si Si1 0.160871 0.887976 0.915607
Si Si2 0.336182 0.000000 0.912413
Si Si3 0.329992 0.199627 0.834238
Si Si4 0.328585 0.663049 0.809130
Si Si5 0.170984 0.569465 0.915430
O O1 0.255149 0.827239 0.906556
O O2 0.000000 0.882681 0.878798
O O3 0.251025 0.942702 0.880028
O O4 0.140170 0.901241 0.000000
O O5 0.500000 0.000000 0.880284
O O6 0.341585 0.000000 0.000000
O O7 0.500000 0.184627 0.829803
O O8 0.300459 0.270266 0.840182
O O9 0.251390 0.163134 0.768755
O O10 0.500000 0.649941 0.798896
O O11 0.263177 0.613556 0.863717
O O12 0.208699 0.500000 0.896636
O O13 0.000000 0.581793 0.902234
O O14 0.211637 0.582685 0.000000
#
# Coordination Sequence:
#
# PCOD8290507 Si02
#       5
#    16   8  16  16  16
#     4  10  20  34  53  78 108 141 180 226 271 317
#     4   9  17  31  51  73 101 137 172 211 262 313
#     4  10  21  37  56  78 108 146 185 227 275 330
#     4  10  21  37  57  81 110 143 181 228 280 330
#     4   9  19  37  60  85 114 148 185 226 275 335
#
# _framework density 19.396809000000001
#
# number of rings (size 3 to 8) (size 9 to 14) (size 15 to 20)
#    0.000    2.333    0.000    3.000    0.000    7.111 
#    2.000    5.556    0.000    0.000    0.000    0.000 
#    0.000    0.000    0.000    0.000    0.000    0.000 
#
# Total GULP energy -446240.219332 kJ/mol
# GULP energy per Si atom -12395.561648 kJ/mol
# Density = 1.935266 g / cm^3
# Si number density = 19.396809 Si / 1000 Ang^3
#
#
#
# Elastic Constant Matrix: (Units=GPa)
#
#
# Indices 1 2 3 4 5 6 
#
# 1 147.8643 81.4056 41.7099 0.0000 0.0000 0.0000
# 2 81.4056 113.0719 43.9908 0.0000 0.0000 0.0000
# 3 41.7099 43.9908 44.0392 0.0000 0.0000 0.0000
# 4 0.0000 0.0000 0.0000 35.5313 0.0000 0.0000
# 5 0.0000 0.0000 0.0000 0.0000 31.5102 0.0000
# 6 0.0000 0.0000 0.0000 0.0000 0.0000 39.9478
#
#
#
# Elastic Compliance Matrix: (Units=1/GPa)
#
#
# Indices 1 2 3 4 5 6 
#
# 1 0.011694 -0.006723 -0.004360 0.000000 0.000000 0.000000
# 2 -0.006723 0.018330 -0.011943 0.000000 0.000000 0.000000
# 3 -0.004360 -0.011943 0.038767 0.000000 0.000000 0.000000
# 4 0.000000 0.000000 0.000000 0.028144 0.000000 0.000000
# 5 0.000000 0.000000 0.000000 0.000000 0.031736 0.000000
# 6 0.000000 0.000000 0.000000 0.000000 0.000000 0.025033
#
#
# Mechanical properties :
#
#
# Convention : Reuss Voigt Hill
#
# Bulk Modulus (GPa) = 43.97731 71.02088 57.49910
# Shear Modulus (GPa) = 24.11551 30.58914 27.35233
#
# Velocity S-wave (km/s) = 3.52983 3.97548 3.75926
# Velocity P-wave (km/s) = 6.27173 7.60045 6.96783
#
# Compressibility (1/GPa) = 0.02273900
#
# Stress axis : x y z
#
# Youngs Moduli (GPa) = 85.51368 54.55412 25.79539
#
# Poissons Ratio (x) = 0.36675 0.11247
# Poissons Ratio (y) = 0.57489 0.30808
# Poissons Ratio (z) = 0.37286 0.65155
#
# Static dielectric constant tensor:
#      x y z
#    x 3.770490 0.000000 0.000000 
#    y 0.000000 3.584050 0.000000 
#    z 0.000000 0.000000 3.310200 
# 
# 
# High freq. dielectric constant tensor:
#      x y z
#    x 1.772220 0.000000 0.000000 
#    y 0.000000 1.761220 0.000000 
#    z 0.000000 0.000000 1.730440 
# 
# From -- ./inp_files/9914.got.cif
#   From: 2010.06.25/outbox.cif.g09.slc.cpg/sg71_5_cif.got.tgz:9914.got - 2010.06.28 04:59:45.
