data_PCOD8290424
_publ_section_title
;
Structure prediction by ZEFSAII (Michael W. Deem and Ramdas Pophale) SiO2 
 PCOD8290424
Probable space group: I M M M
;
_chemical_formula_sum "Si O2"
_cell_formula_units_Z 104
_cell_length_a 27.297185
_cell_length_b 23.483838
_cell_length_c 8.524706
_cell_angle_alpha 90.000000
_cell_angle_beta 90.000000
_cell_angle_gamma 90.000000
_cell_volume 5464.700299
_symmetry_space_group_name_H-M "I M M M"
_symmetry_group_IT_number 71
_symmetry_cell_setting 'orthorhombic'
loop_
_space_group_symop_operation_xyz
x,y,z
-x,-y,z
x,-y,-z
-x,y,-z
-x,-y,-z
x,y,-z
-x,y,z
x,-y,z
1/2+x,1/2+y,1/2+z
1/2-x,1/2-y,1/2+z
1/2+x,1/2-y,1/2-z
1/2-x,1/2+y,1/2-z
1/2-x,1/2-y,1/2-z
1/2+x,1/2+y,1/2-z
1/2-x,1/2+y,1/2+z
1/2+x,1/2-y,1/2+z
loop_
_atom_site_type_symbol
_atom_site_label
_atom_site_fract_x
_atom_site_fract_y
_atom_site_fract_z
Si Si1 0.380874 0.713729 0.819884
Si Si2 0.810123 0.500000 0.687284
Si Si3 0.300648 0.500000 0.314420
Si Si4 0.352084 0.118288 0.814349
Si Si5 0.796490 0.280499 0.819992
Si Si6 0.557397 0.500000 0.177379
Si Si7 0.446045 0.816074 0.817135
Si Si8 0.621279 0.408245 0.316165
O O1 0.340677 0.736835 0.700635
O O2 0.430408 0.750183 0.789544
O O3 0.387150 0.647770 0.785846
O O4 0.363950 0.722889 0.000000
O O5 0.807786 0.500000 0.500000
O O6 0.754452 0.500000 0.755182
O O7 0.839548 0.444721 0.749875
O O8 0.298891 0.500000 0.500000
O O9 0.329931 0.557012 0.261298
O O10 0.307930 0.160033 0.766066
O O11 0.404401 0.141158 0.745836
O O12 0.354688 0.117838 0.000000
O O13 0.750000 0.250000 0.750000
O O14 0.787259 0.294281 0.000000
O O15 0.500000 0.500000 0.169479
O O16 0.574101 0.445408 0.275780
O O17 0.579258 0.500000 0.000000
O O18 0.500000 0.826032 0.739564
O O19 0.450181 0.829093 0.000000
O O20 0.623161 0.393724 0.500000
#
# Coordination Sequence:
#
# PCOD8290424 Si02
#       8
#    16   8   8  16  16   8  16  16
#     4  10  20  34  53  79 108 140 180 222 268 327
#     4   9  17  31  53  79 108 140 178 221 268 323
#     4   8  17  31  47  70 100 140 176 210 269 328
#     4   9  18  33  54  80 107 141 182 223 268 323
#     4  11  22  36  54  77 108 143 178 221 271 322
#     4  10  21  37  55  73  99 142 189 236 285 326
#     4   8  15  30  51  75 106 141 176 218 268 317
#     4  10  20  34  52  76 106 140 179 226 279 334
#
# _framework density 19.031236
#
# number of rings (size 3 to 8) (size 9 to 14) (size 15 to 20)
#    0.000    2.538    0.000    3.923    2.154    1.231 
#    0.000    2.308    0.000   14.308    0.000    0.000 
#    0.000    4.923    0.000    0.000    0.000    0.000 
#
# Total GULP energy -644491.764689 kJ/mol
# GULP energy per Si atom -12394.072398 kJ/mol
# Density = 1.898792 g / cm^3
# Si number density = 19.031236 Si / 1000 Ang^3
#
#
#
# Elastic Constant Matrix: (Units=GPa)
#
#
# Indices 1 2 3 4 5 6 
#
# 1 137.2663 71.2222 20.1773 0.0000 0.0000 0.0000
# 2 71.2222 158.3134 11.4378 0.0000 0.0000 0.0000
# 3 20.1773 11.4378 30.2936 0.0000 0.0000 0.0000
# 4 0.0000 0.0000 0.0000 25.0491 0.0000 0.0000
# 5 0.0000 0.0000 0.0000 0.0000 19.1441 0.0000
# 6 0.0000 0.0000 0.0000 0.0000 0.0000 16.4807
#
#
#
# Elastic Compliance Matrix: (Units=1/GPa)
#
#
# Indices 1 2 3 4 5 6 
#
# 1 0.010250 -0.004234 -0.005229 0.000000 0.000000 0.000000
# 2 -0.004234 0.008242 -0.000292 0.000000 0.000000 0.000000
# 3 -0.005229 -0.000292 0.036603 0.000000 0.000000 0.000000
# 4 0.000000 0.000000 0.000000 0.039922 0.000000 0.000000
# 5 0.000000 0.000000 0.000000 0.000000 0.052235 0.000000
# 6 0.000000 0.000000 0.000000 0.000000 0.000000 0.060677
#
#
# Mechanical properties :
#
#
# Convention : Reuss Voigt Hill
#
# Bulk Modulus (GPa) = 28.10040 59.06087 43.58063
# Shear Modulus (GPa) = 20.89414 27.00386 23.94900
#
# Velocity S-wave (km/s) = 3.31703 3.77095 3.55125
# Velocity P-wave (km/s) = 5.42842 7.07538 6.30590
#
# Compressibility (1/GPa) = 0.03558669
#
# Stress axis : x y z
#
# Youngs Moduli (GPa) = 97.55683 121.32453 27.31991
#
# Poissons Ratio (x) = 0.51365 0.14285
# Poissons Ratio (y) = 0.41303 0.00798
# Poissons Ratio (z) = 0.51012 0.03544
#
# Static dielectric constant tensor:
#      x y z
#    x 3.756210 0.000000 0.000000 
#    y 0.000000 3.683740 0.000000 
#    z 0.000000 0.000000 3.350070 
# 
# 
# High freq. dielectric constant tensor:
#      x y z
#    x 1.736280 0.000000 0.000000 
#    y 0.000000 1.741230 0.000000 
#    z 0.000000 0.000000 1.712840 
# 
# From -- ./inp_files/15354.got.cif
#   From: 2010.06.25/outbox.cif.g09.slc.cpg/sg71_8_cif.got.tgz:15354.got - 2010.06.28 04:59:45.
