data_PCOD8290745
_publ_section_title
;
Structure prediction by ZEFSAII (Michael W. Deem and Ramdas Pophale) SiO2 
 PCOD8290745
Probable space group: I M M M
;
_chemical_formula_sum "Si O2"
_cell_formula_units_Z 120
_cell_length_a 22.520692
_cell_length_b 16.448482
_cell_length_c 18.939925
_cell_angle_alpha 90.000000
_cell_angle_beta 90.000000
_cell_angle_gamma 90.000000
_cell_volume 7015.939089
_symmetry_space_group_name_H-M "I M M M"
_symmetry_group_IT_number 71
_symmetry_cell_setting 'orthorhombic'
loop_
_space_group_symop_operation_xyz
x,y,z
-x,-y,z
x,-y,-z
-x,y,-z
-x,-y,-z
x,y,-z
-x,y,z
x,-y,z
1/2+x,1/2+y,1/2+z
1/2-x,1/2-y,1/2+z
1/2+x,1/2-y,1/2-z
1/2-x,1/2+y,1/2-z
1/2-x,1/2-y,1/2-z
1/2+x,1/2+y,1/2-z
1/2-x,1/2+y,1/2+z
1/2+x,1/2-y,1/2+z
loop_
_atom_site_type_symbol
_atom_site_label
_atom_site_fract_x
_atom_site_fract_y
_atom_site_fract_z
Si Si1 0.767634 0.096025 0.421966
Si Si2 0.295101 0.905477 0.224065
Si Si3 0.170996 0.095842 0.286671
Si Si4 0.434562 0.403955 0.304799
Si Si5 0.645027 0.854036 0.641860
Si Si6 0.869098 0.182700 0.080843
Si Si7 0.570285 0.000000 0.582577
Si Si8 0.254084 0.906506 0.078014
O O1 0.786612 0.124720 0.500000
O O2 0.819488 0.124169 0.367990
O O3 0.705331 0.135250 0.401995
O O4 0.758175 0.000000 0.417495
O O5 0.228274 0.876508 0.242004
O O6 0.342130 0.858329 0.273454
O O7 0.302586 0.887210 0.139865
O O8 0.303310 0.000000 0.242555
O O9 0.111482 0.134145 0.252855
O O10 0.164688 0.000000 0.282874
O O11 0.500000 0.367425 0.290120
O O12 0.436750 0.500000 0.298797
O O13 0.412975 0.382119 0.383447
O O14 0.620296 0.765987 0.623124
O O15 0.596672 0.920294 0.619598
O O16 0.801669 0.152373 0.086463
O O17 0.888431 0.193872 0.000000
O O18 0.500000 0.000000 0.593990
O O19 0.587318 0.000000 0.500000
O O20 0.232336 0.000000 0.087359
O O21 0.283015 0.894267 0.000000
#
# Coordination Sequence:
#
# PCOD8290745 Si02
#       8
#    16  16  16  16  16  16   8  16
#     4   9  15  26  48  71  96 124 152 191 236 290
#     4   9  15  29  52  73  96 125 162 201 238 292
#     4   8  14  26  44  69  91 116 156 196 239 282
#     4  10  20  35  52  66  88 126 170 208 242 289
#     4  11  20  33  50  72  99 129 164 204 241 283
#     4  11  22  32  46  70 100 127 161 207 244 289
#     4  11  22  36  52  68  95 137 174 200 238 287
#     4   9  17  30  48  70 101 134 157 191 250 302
#
# _framework density 17.103911
#
# number of rings (size 3 to 8) (size 9 to 14) (size 15 to 20)
#    0.000    2.333    2.667    2.400    0.000    2.133 
#    0.000    0.667    0.000    0.400    0.000    2.800 
#    0.000    1.067    0.000    0.000    0.000    0.000 
#
# Total GULP energy -743590.721766 kJ/mol
# GULP energy per Si atom -12393.178696 kJ/mol
# Density = 1.706498 g / cm^3
# Si number density = 17.103911 Si / 1000 Ang^3
#
#
#
# Elastic Constant Matrix: (Units=GPa)
#
#
# Indices 1 2 3 4 5 6 
#
# 1 68.9623 4.6342 42.7352 0.0000 0.0000 0.0000
# 2 4.6342 25.0466 13.9300 0.0000 0.0000 0.0000
# 3 42.7352 13.9300 138.5251 0.0000 0.0000 0.0000
# 4 0.0000 0.0000 0.0000 19.5775 0.0000 0.0000
# 5 0.0000 0.0000 0.0000 0.0000 21.1174 0.0000
# 6 0.0000 0.0000 0.0000 0.0000 0.0000 6.9735
#
#
#
# Elastic Compliance Matrix: (Units=1/GPa)
#
#
# Indices 1 2 3 4 5 6 
#
# 1 0.017930 -0.000255 -0.005506 0.000000 0.000000 0.000000
# 2 -0.000255 0.042294 -0.004174 0.000000 0.000000 0.000000
# 3 -0.005506 -0.004174 0.009337 0.000000 0.000000 0.000000
# 4 0.000000 0.000000 0.000000 0.051079 0.000000 0.000000
# 5 0.000000 0.000000 0.000000 0.000000 0.047354 0.000000
# 6 0.000000 0.000000 0.000000 0.000000 0.000000 0.143400
#
#
# Mechanical properties :
#
#
# Convention : Reuss Voigt Hill
#
# Bulk Modulus (GPa) = 20.12455 39.45921 29.79188
# Shear Modulus (GPa) = 14.37490 20.94934 17.66212
#
# Velocity S-wave (km/s) = 2.90219 3.50355 3.21695
# Velocity P-wave (km/s) = 4.79811 6.28386 5.59056
#
# Compressibility (1/GPa) = 0.04969054
#
# Stress axis : x y z
#
# Youngs Moduli (GPa) = 55.77364 23.64382 107.09881
#
# Poissons Ratio (x) = 0.00604 0.58965
# Poissons Ratio (y) = 0.01424 0.44707
# Poissons Ratio (z) = 0.30707 0.09870
#
# Static dielectric constant tensor:
#      x y z
#    x 3.066920 0.000000 0.000000 
#    y 0.000000 3.019730 0.000000 
#    z 0.000000 0.000000 3.646170 
# 
# 
# High freq. dielectric constant tensor:
#      x y z
#    x 1.610500 0.000000 0.000000 
#    y 0.000000 1.645070 0.000000 
#    z 0.000000 0.000000 1.672350 
# 
# From -- ./inp_files/55135.got.cif
#   From: 2010.06.25/outbox.cif.g09.slc.cpg/sg71_28_cif.got.tgz:55135.got - 2010.06.28 04:59:45.
