data_PCOD8290026
_publ_section_title
;
Structure prediction by ZEFSAII (Michael W. Deem and Ramdas Pophale) SiO2 
 PCOD8290026
Probable space group: I M M M
;
_chemical_formula_sum "Si O2"
_cell_formula_units_Z 72
_cell_length_a 8.865704
_cell_length_b 14.411038
_cell_length_c 33.418854
_cell_angle_alpha 90.000000
_cell_angle_beta 90.000000
_cell_angle_gamma 90.000000
_cell_volume 4269.726370
_symmetry_space_group_name_H-M "I M M M"
_symmetry_group_IT_number 71
_symmetry_cell_setting 'orthorhombic'
loop_
_space_group_symop_operation_xyz
x,y,z
-x,-y,z
x,-y,-z
-x,y,-z
-x,-y,-z
x,y,-z
-x,y,z
x,-y,z
1/2+x,1/2+y,1/2+z
1/2-x,1/2-y,1/2+z
1/2+x,1/2-y,1/2-z
1/2-x,1/2+y,1/2-z
1/2-x,1/2-y,1/2-z
1/2+x,1/2+y,1/2-z
1/2-x,1/2+y,1/2+z
1/2+x,1/2-y,1/2+z
loop_
_atom_site_type_symbol
_atom_site_label
_atom_site_fract_x
_atom_site_fract_y
_atom_site_fract_z
Si Si1 0.321461 0.721700 0.847737
Si Si2 0.679031 0.397589 0.773956
Si Si3 0.677855 0.892761 0.418835
Si Si4 0.330543 0.610011 0.000000
Si Si5 0.176455 0.106675 0.184364
O O1 0.500000 0.715571 0.851959
O O2 0.260438 0.674012 0.806917
O O3 0.248330 0.669869 0.884689
O O4 0.267929 0.828466 0.846395
O O5 0.500000 0.399742 0.773603
O O6 0.740229 0.500000 0.785252
O O7 0.734751 0.371005 0.729433
O O8 0.500000 0.880129 0.419544
O O9 0.743066 0.855154 0.460746
O O10 0.723324 0.000000 0.411453
O O11 0.333636 0.500000 0.000000
O O12 0.500000 0.650707 0.000000
O O13 0.000000 0.127867 0.180170
O O14 0.210944 0.000000 0.173410
#
# Coordination Sequence:
#
# PCOD8290026 Si02
#       5
#    16  16  16   8  16
#     4  11  20  29  46  71  97 124 157 200 243 282
#     4   8  15  28  45  65  91 124 159 195 238 286
#     4  10  20  33  49  71 100 131 160 189 225 276
#     4   9  17  31  51  73  98 127 156 187 227 275
#     4   9  18  33  49  63  86 124 166 205 245 287
#
# _framework density 16.862908000000001
#
# number of rings (size 3 to 8) (size 9 to 14) (size 15 to 20)
#    0.000    2.556    0.000    4.333    0.000    4.000 
#    0.000    1.111    0.000    2.667    0.000    0.778 
#    0.000    6.222    0.000    0.000    0.000    0.000 
#
# Total GULP energy -446335.999515 kJ/mol
# GULP energy per Si atom -12398.222209 kJ/mol
# Density = 1.682453 g / cm^3
# Si number density = 16.862908 Si / 1000 Ang^3
#
#
#
# Elastic Constant Matrix: (Units=GPa)
#
#
# Indices 1 2 3 4 5 6 
#
# 1 68.7179 41.7634 50.2106 0.0000 0.0000 0.0000
# 2 41.7634 89.9706 66.5133 0.0000 0.0000 0.0000
# 3 50.2106 66.5133 113.4170 0.0000 0.0000 0.0000
# 4 0.0000 0.0000 0.0000 21.8559 0.0000 0.0000
# 5 0.0000 0.0000 0.0000 0.0000 25.7802 0.0000
# 6 0.0000 0.0000 0.0000 0.0000 0.0000 23.1309
#
#
#
# Elastic Compliance Matrix: (Units=1/GPa)
#
#
# Indices 1 2 3 4 5 6 
#
# 1 0.022982 -0.005554 -0.006917 0.000000 0.000000 0.000000
# 2 -0.005554 0.020964 -0.009835 0.000000 0.000000 0.000000
# 3 -0.006917 -0.009835 0.017647 0.000000 0.000000 0.000000
# 4 0.000000 0.000000 0.000000 0.045754 0.000000 0.000000
# 5 0.000000 0.000000 0.000000 0.000000 0.038790 0.000000
# 6 0.000000 0.000000 0.000000 0.000000 0.000000 0.043232
#
#
# Mechanical properties :
#
#
# Convention : Reuss Voigt Hill
#
# Bulk Modulus (GPa) = 58.89366 65.45333 62.17349
# Shear Modulus (GPa) = 20.86441 21.72796 21.29618
#
# Velocity S-wave (km/s) = 3.52134 3.59347 3.55759
# Velocity P-wave (km/s) = 7.17871 7.49110 7.33657
#
# Compressibility (1/GPa) = 0.01697976
#
# Stress axis : x y z
#
# Youngs Moduli (GPa) = 43.51231 47.70046 56.66645
#
# Poissons Ratio (x) = 0.26495 0.39196
# Poissons Ratio (y) = 0.24169 0.55734
# Poissons Ratio (z) = 0.30097 0.46915
#
# Static dielectric constant tensor:
#      x y z
#    x 3.018060 0.000000 0.000000 
#    y 0.000000 3.071880 0.000000 
#    z 0.000000 0.000000 3.196280 
# 
# 
# High freq. dielectric constant tensor:
#      x y z
#    x 1.643070 0.000000 0.000000 
#    y 0.000000 1.632840 0.000000 
#    z 0.000000 0.000000 1.637990 
# 
# From -- ./inp_files/6032.got.cif
#   From: 2010.06.25/outbox.cif.g09.slc.cpg/sg71_4_cif.got.tgz:6032.got - 2010.06.28 04:59:45.
