data_PCOD8291306
_publ_section_title
;
Structure prediction by ZEFSAII (Michael W. Deem and Ramdas Pophale) SiO2 
 PCOD8291306
Probable space group: I M M M
;
_chemical_formula_sum "Si O2"
_cell_formula_units_Z 72
_cell_length_a 15.931780
_cell_length_b 16.674452
_cell_length_c 13.618535
_cell_angle_alpha 90.000000
_cell_angle_beta 90.000000
_cell_angle_gamma 90.000000
_cell_volume 3617.814223
_symmetry_space_group_name_H-M "I M M M"
_symmetry_group_IT_number 71
_symmetry_cell_setting 'orthorhombic'
loop_
_space_group_symop_operation_xyz
x,y,z
-x,-y,z
x,-y,-z
-x,y,-z
-x,-y,-z
x,y,-z
-x,y,z
x,-y,z
1/2+x,1/2+y,1/2+z
1/2-x,1/2-y,1/2+z
1/2+x,1/2-y,1/2-z
1/2-x,1/2+y,1/2-z
1/2-x,1/2-y,1/2-z
1/2+x,1/2+y,1/2-z
1/2-x,1/2+y,1/2+z
1/2+x,1/2-y,1/2+z
loop_
_atom_site_type_symbol
_atom_site_label
_atom_site_fract_x
_atom_site_fract_y
_atom_site_fract_z
Si Si1 0.167225 0.592190 0.293329
Si Si2 0.000000 0.092938 0.890861
Si Si3 0.097140 0.260063 0.390357
Si Si4 0.401747 0.830996 0.611759
Si Si5 0.345981 0.327141 0.295696
O O1 0.162278 0.500000 0.326839
O O2 0.108414 0.646350 0.362635
O O3 0.134198 0.598861 0.181176
O O4 0.260951 0.624413 0.307250
O O5 0.080352 0.114068 0.826624
O O6 0.000000 0.000000 0.909504
O O7 0.000000 0.135137 0.000000
O O8 0.131143 0.244544 0.500000
O O9 0.147384 0.202150 0.316873
O O10 0.000000 0.238309 0.382464
O O11 0.388501 0.858345 0.500000
O O12 0.500000 0.814007 0.634856
O O13 0.349168 0.750440 0.633813
#
# Coordination Sequence:
#
# PCOD8291306 Si02
#       5
#    16   8  16  16  16
#     4  11  24  37  54  86 123 155 189 237 296 350
#     4  11  22  36  59  89 120 153 187 233 295 353
#     4  10  21  39  63  85 109 152 203 242 280 335
#     4  10  20  37  63  88 112 151 201 246 289 343
#     4  11  20  38  60  84 118 152 192 242 290 343
#
# _framework density 19.901519
#
# number of rings (size 3 to 8) (size 9 to 14) (size 15 to 20)
#    0.000    1.444    2.222    6.000    0.000    7.111 
#    0.000    2.222    0.000    2.667    0.000    0.000 
#    0.000    0.000    0.000    0.000    0.000    0.000 
#
# Total GULP energy -446401.346229 kJ/mol
# GULP energy per Si atom -12400.037395 kJ/mol
# Density = 1.985622 g / cm^3
# Si number density = 19.901519 Si / 1000 Ang^3
#
#
#
# Elastic Constant Matrix: (Units=GPa)
#
#
# Indices 1 2 3 4 5 6 
#
# 1 52.6287 -1.3230 16.6863 0.0000 0.0000 0.0000
# 2 -1.3230 69.7284 6.3441 0.0000 0.0000 0.0000
# 3 16.6863 6.3441 94.4767 0.0000 0.0000 0.0000
# 4 0.0000 0.0000 0.0000 14.5504 0.0000 0.0000
# 5 0.0000 0.0000 0.0000 0.0000 37.9333 0.0000
# 6 0.0000 0.0000 0.0000 0.0000 0.0000 0.1797
#
#
#
# Elastic Compliance Matrix: (Units=1/GPa)
#
#
# Indices 1 2 3 4 5 6 
#
# 1 0.020163 0.000711 -0.003609 0.000000 0.000000 0.000000
# 2 0.000711 0.014455 -0.001096 0.000000 0.000000 0.000000
# 3 -0.003609 -0.001096 0.011296 0.000000 0.000000 0.000000
# 4 0.000000 0.000000 0.000000 0.068727 0.000000 0.000000
# 5 0.000000 0.000000 0.000000 0.000000 0.026362 0.000000
# 6 0.000000 0.000000 0.000000 0.000000 0.000000 5.565319
#
#
# Mechanical properties :
#
#
# Convention : Reuss Voigt Hill
#
# Bulk Modulus (GPa) = 26.36784 28.91651 27.64217
# Shear Modulus (GPa) = 0.87306 23.54112 12.20709
#
# Velocity S-wave (km/s) = 0.66306 3.44303 2.47933
# Velocity P-wave (km/s) = 3.72345 5.51066 4.70274
#
# Compressibility (1/GPa) = 0.03792499
#
# Stress axis : x y z
#
# Youngs Moduli (GPa) = 49.59546 69.18224 88.52987
#
# Poissons Ratio (x) = -0.04918 0.31950
# Poissons Ratio (y) = -0.03526 0.09704
# Poissons Ratio (z) = 0.17899 0.07584
#
# Static dielectric constant tensor:
#      x y z
#    x 3.678700 0.000000 0.000000 
#    y 0.000000 3.434670 0.000000 
#    z 0.000000 0.000000 3.810070 
# 
# 
# High freq. dielectric constant tensor:
#      x y z
#    x 1.787300 0.000000 0.000000 
#    y 0.000000 1.755550 0.000000 
#    z 0.000000 0.000000 1.781370 
# 
# From -- ./inp_files/34095.got.cif
#   From: 2010.06.25/outbox.cif.g09.slc.cpg/sg71_18_cif.got.tgz:34095.got - 2010.06.28 04:59:45.
