data_PCOD8291078
_publ_section_title
;
Structure prediction by ZEFSAII (Michael W. Deem and Ramdas Pophale) SiO2 
 PCOD8291078
Probable space group: I M M M
;
_chemical_formula_sum "Si O2"
_cell_formula_units_Z 120
_cell_length_a 26.109543
_cell_length_b 7.912897
_cell_length_c 28.201959
_cell_angle_alpha 90.000000
_cell_angle_beta 90.000000
_cell_angle_gamma 90.000000
_cell_volume 5826.584644
_symmetry_space_group_name_H-M "I M M M"
_symmetry_group_IT_number 71
_symmetry_cell_setting 'orthorhombic'
loop_
_space_group_symop_operation_xyz
x,y,z
-x,-y,z
x,-y,-z
-x,y,-z
-x,-y,-z
x,y,-z
-x,y,z
x,-y,z
1/2+x,1/2+y,1/2+z
1/2-x,1/2-y,1/2+z
1/2+x,1/2-y,1/2-z
1/2-x,1/2+y,1/2-z
1/2-x,1/2-y,1/2-z
1/2+x,1/2+y,1/2-z
1/2-x,1/2+y,1/2+z
1/2+x,1/2-y,1/2+z
loop_
_atom_site_type_symbol
_atom_site_label
_atom_site_fract_x
_atom_site_fract_y
_atom_site_fract_z
Si Si1 0.354749 0.197555 0.695719
Si Si2 0.439658 0.500000 0.553032
Si Si3 0.715215 0.199510 0.947686
Si Si4 0.752204 0.694763 0.149595
Si Si5 0.401304 0.801881 0.947170
Si Si6 0.444896 0.693762 0.146129
Si Si7 0.651556 0.694859 0.801402
Si Si8 0.440339 0.194884 0.620665
O O1 0.305989 0.272518 0.667106
O O2 0.354799 0.291554 0.745512
O O3 0.406892 0.236663 0.667188
O O4 0.349491 0.000000 0.705538
O O5 0.500000 0.500000 0.548262
O O6 0.415157 0.500000 0.500000
O O7 0.422917 0.327488 0.580031
O O8 0.749703 0.281885 0.906988
O O9 0.657035 0.259803 0.940397
O O10 0.718916 0.000000 0.943491
O O11 0.734578 0.257481 0.000000
O O12 0.753391 0.500000 0.162694
O O13 0.703872 0.779498 0.177697
O O14 0.436799 0.704869 0.910272
O O15 0.405316 0.000000 0.937740
O O16 0.420315 0.757110 0.000000
O O17 0.500000 0.778675 0.158876
O O18 0.447511 0.500000 0.161546
O O19 0.397928 0.783771 0.173947
O O20 0.652616 0.500000 0.816709
O O21 0.500000 0.221046 0.633954
O O22 0.430552 0.000000 0.603730
#
# Coordination Sequence:
#
# PCOD8291078 Si02
#       8
#    16   8  16  16  16  16  16  16
#     4  10  22  37  56  82 110 141 182 228 276 328
#     4   9  18  34  60  92 120 152 194 230 272 338
#     4   9  18  33  54  80 108 141 181 221 267 323
#     4  10  20  36  56  80 109 140 180 226 272 327
#     4   9  18  33  53  76 103 138 180 224 271 324
#     4  10  21  36  52  75 107 138 176 226 273 322
#     4  10  21  36  54  77 105 142 183 225 278 333
#     4   9  19  37  59  85 119 154 189 232 281 336
#
# _framework density 20.595254000000001
#
# number of rings (size 3 to 8) (size 9 to 14) (size 15 to 20)
#    0.000    2.467    1.333    1.200    0.933    3.467 
#    0.000    4.667    0.000    2.400    0.000    0.000 
#    0.000    0.000    0.000    0.000    0.000    0.000 
#
# Total GULP energy -743672.007624 kJ/mol
# GULP energy per Si atom -12394.533460 kJ/mol
# Density = 2.054838 g / cm^3
# Si number density = 20.595254 Si / 1000 Ang^3
#
#
#
# Elastic Constant Matrix: (Units=GPa)
#
#
# Indices 1 2 3 4 5 6 
#
# 1 135.0092 18.3817 69.3024 0.0000 0.0000 0.0000
# 2 18.3817 38.6117 20.0663 0.0000 0.0000 0.0000
# 3 69.3024 20.0663 142.9444 0.0000 0.0000 0.0000
# 4 0.0000 0.0000 0.0000 30.2089 0.0000 0.0000
# 5 0.0000 0.0000 0.0000 0.0000 19.3759 0.0000
# 6 0.0000 0.0000 0.0000 0.0000 0.0000 13.0141
#
#
#
# Elastic Compliance Matrix: (Units=1/GPa)
#
#
# Indices 1 2 3 4 5 6 
#
# 1 0.010069 -0.002434 -0.004540 0.000000 0.000000 0.000000
# 2 -0.002434 0.028525 -0.002824 0.000000 0.000000 0.000000
# 3 -0.004540 -0.002824 0.009593 0.000000 0.000000 0.000000
# 4 0.000000 0.000000 0.000000 0.033103 0.000000 0.000000
# 5 0.000000 0.000000 0.000000 0.000000 0.051611 0.000000
# 6 0.000000 0.000000 0.000000 0.000000 0.000000 0.076840
#
#
# Mechanical properties :
#
#
# Convention : Reuss Voigt Hill
#
# Bulk Modulus (GPa) = 34.97605 59.11847 47.04726
# Shear Modulus (GPa) = 20.93214 26.44076 23.68645
#
# Velocity S-wave (km/s) = 3.19149 3.58694 3.39498
# Velocity P-wave (km/s) = 5.53175 6.77658 6.18556
#
# Compressibility (1/GPa) = 0.02859100
#
# Stress axis : x y z
#
# Youngs Moduli (GPa) = 99.31815 35.05648 104.24059
#
# Poissons Ratio (x) = 0.08533 0.47323
# Poissons Ratio (y) = 0.24174 0.29441
# Poissons Ratio (z) = 0.45089 0.09901
#
# Static dielectric constant tensor:
#      x y z
#    x 3.987150 0.000000 0.000000 
#    y 0.000000 3.474150 0.000000 
#    z 0.000000 0.000000 3.784460 
# 
# 
# High freq. dielectric constant tensor:
#      x y z
#    x 1.799300 0.000000 0.000000 
#    y 0.000000 1.784600 0.000000 
#    z 0.000000 0.000000 1.803480 
# 
# From -- ./inp_files/67194.got.cif
#   From: 2010.06.25/outbox.cif.g09.slc.cpg/sg71_34_cif.got.tgz:67194.got - 2010.06.28 04:59:45.
