data_PCOD8291706
_publ_section_title
;
Structure prediction by ZEFSAII (Michael W. Deem and Ramdas Pophale) SiO2 
 PCOD8291706
Probable space group: I M M M
;
_chemical_formula_sum "Si O2"
_cell_formula_units_Z 104
_cell_length_a 30.722873
_cell_length_b 9.068388
_cell_length_c 20.433081
_cell_angle_alpha 90.000000
_cell_angle_beta 90.000000
_cell_angle_gamma 90.000000
_cell_volume 5692.798026
_symmetry_space_group_name_H-M "I M M M"
_symmetry_group_IT_number 71
_symmetry_cell_setting 'orthorhombic'
loop_
_space_group_symop_operation_xyz
x,y,z
-x,-y,z
x,-y,-z
-x,y,-z
-x,-y,-z
x,y,-z
-x,y,z
x,-y,z
1/2+x,1/2+y,1/2+z
1/2-x,1/2-y,1/2+z
1/2+x,1/2-y,1/2-z
1/2-x,1/2+y,1/2-z
1/2-x,1/2-y,1/2-z
1/2+x,1/2+y,1/2-z
1/2-x,1/2+y,1/2+z
1/2+x,1/2-y,1/2+z
loop_
_atom_site_type_symbol
_atom_site_label
_atom_site_fract_x
_atom_site_fract_y
_atom_site_fract_z
Si Si1 0.747987 0.831434 0.181844
Si Si2 0.921695 0.326539 0.129910
Si Si3 0.000000 0.674399 0.220102
Si Si4 0.000000 0.675743 0.368112
Si Si5 0.656025 0.334129 0.688914
Si Si6 0.333214 0.329984 0.842281
Si Si7 0.449816 0.326069 0.500000
Si Si8 0.083972 0.170688 0.576049
O O1 0.750000 0.750000 0.250000
O O2 0.796924 0.819797 0.152992
O O3 0.710859 0.756881 0.136326
O O4 0.734786 0.000000 0.193743
O O5 0.926037 0.500000 0.117422
O O6 0.957489 0.268948 0.181751
O O7 0.874514 0.288553 0.157621
O O8 0.926893 0.241375 0.062683
O O9 0.000000 0.500000 0.223275
O O10 0.000000 0.737494 0.293707
O O11 0.957581 0.733688 0.404857
O O12 0.000000 0.500000 0.370357
O O13 0.637787 0.500000 0.677975
O O14 0.658298 0.301444 0.766025
O O15 0.324889 0.500000 0.858257
O O16 0.374322 0.271124 0.883495
O O17 0.443288 0.500000 0.500000
O O18 0.500000 0.279502 0.500000
O O19 0.094295 0.193182 0.500000
O O20 0.074231 0.000000 0.592501
#
# Coordination Sequence:
#
# PCOD8291706 Si02
#       8
#    16  16   8   8  16  16   8  16
#     4   9  17  30  51  78 109 140 172 214 266 318
#     4  11  21  35  56  78 105 139 176 216 259 310
#     4   9  20  35  51  77 109 136 165 216 271 307
#     4  11  22  36  54  79 110 140 177 222 267 316
#     4   9  18  32  50  78 110 136 171 218 269 320
#     4   9  18  33  54  79 107 140 181 225 270 321
#     4  11  23  39  57  77 103 139 177 213 257 312
#     4  10  21  37  55  75 104 144 184 223 269 318
#
# _framework density 18.268697
#
# number of rings (size 3 to 8) (size 9 to 14) (size 15 to 20)
#    0.000    2.231    0.769    3.462    0.000    5.231 
#    0.000    2.308    1.692    0.000    0.000    0.000 
#    0.000    0.000    0.000    0.000    0.000    0.000 
#
# Total GULP energy -644746.062077 kJ/mol
# GULP energy per Si atom -12398.962732 kJ/mol
# Density = 1.822712 g / cm^3
# Si number density = 18.268697 Si / 1000 Ang^3
#
#
#
# Elastic Constant Matrix: (Units=GPa)
#
#
# Indices 1 2 3 4 5 6 
#
# 1 148.8101 54.5447 48.2017 0.0000 0.0000 0.0000
# 2 54.5447 71.6061 26.4982 0.0000 0.0000 0.0000
# 3 48.2017 26.4982 75.3823 0.0000 0.0000 0.0000
# 4 0.0000 0.0000 0.0000 21.5823 0.0000 0.0000
# 5 0.0000 0.0000 0.0000 0.0000 4.1202 0.0000
# 6 0.0000 0.0000 0.0000 0.0000 0.0000 33.1967
#
#
#
# Elastic Compliance Matrix: (Units=1/GPa)
#
#
# Indices 1 2 3 4 5 6 
#
# 1 0.010494 -0.006335 -0.004484 0.000000 0.000000 0.000000
# 2 -0.006335 0.019877 -0.002937 0.000000 0.000000 0.000000
# 3 -0.004484 -0.002937 0.017165 0.000000 0.000000 0.000000
# 4 0.000000 0.000000 0.000000 0.046334 0.000000 0.000000
# 5 0.000000 0.000000 0.000000 0.000000 0.242706 0.000000
# 6 0.000000 0.000000 0.000000 0.000000 0.000000 0.030124
#
#
# Mechanical properties :
#
#
# Convention : Reuss Voigt Hill
#
# Bulk Modulus (GPa) = 49.93332 61.58752 55.76042
# Shear Modulus (GPa) = 12.47238 22.88343 17.67791
#
# Velocity S-wave (km/s) = 2.61572 3.54305 3.11410
# Velocity P-wave (km/s) = 6.04274 7.10794 6.59688
#
# Compressibility (1/GPa) = 0.02002671
#
# Stress axis : x y z
#
# Youngs Moduli (GPa) = 95.29142 50.30869 58.25833
#
# Poissons Ratio (x) = 0.31868 0.26120
# Poissons Ratio (y) = 0.60363 0.17109
# Poissons Ratio (z) = 0.42724 0.14774
#
# Static dielectric constant tensor:
#      x y z
#    x 3.765690 0.000000 0.000000 
#    y 0.000000 3.371660 0.000000 
#    z 0.000000 0.000000 3.278240 
# 
# 
# High freq. dielectric constant tensor:
#      x y z
#    x 1.720750 0.000000 0.000000 
#    y 0.000000 1.707110 0.000000 
#    z 0.000000 0.000000 1.683860 
# 
# From -- ./inp_files/62030.got.cif
#   From: 2010.06.25/outbox.cif.g09.slc.cpg/sg71_32_cif.got.tgz:62030.got - 2010.06.28 04:59:45.
