data_PCOD8291436
_publ_section_title
;
Structure prediction by ZEFSAII (Michael W. Deem and Ramdas Pophale) SiO2 
 PCOD8291436
Probable space group: I M M M
;
_chemical_formula_sum "Si O2"
_cell_formula_units_Z 72
_cell_length_a 16.934545
_cell_length_b 22.986562
_cell_length_c 9.732577
_cell_angle_alpha 90.000000
_cell_angle_beta 90.000000
_cell_angle_gamma 90.000000
_cell_volume 3788.570745
_symmetry_space_group_name_H-M "I M M M"
_symmetry_group_IT_number 71
_symmetry_cell_setting 'orthorhombic'
loop_
_space_group_symop_operation_xyz
x,y,z
-x,-y,z
x,-y,-z
-x,y,-z
-x,-y,-z
x,y,-z
-x,y,z
x,-y,z
1/2+x,1/2+y,1/2+z
1/2-x,1/2-y,1/2+z
1/2+x,1/2-y,1/2-z
1/2-x,1/2+y,1/2-z
1/2-x,1/2-y,1/2-z
1/2+x,1/2+y,1/2-z
1/2-x,1/2+y,1/2+z
1/2+x,1/2-y,1/2+z
loop_
_atom_site_type_symbol
_atom_site_label
_atom_site_fract_x
_atom_site_fract_y
_atom_site_fract_z
Si Si1 0.092332 0.609098 0.339887
Si Si2 0.907595 0.840535 0.649828
Si Si3 0.593576 0.000000 0.657675
Si Si4 0.593902 0.563783 0.347652
Si Si5 0.178384 0.727488 0.341048
O O1 0.105882 0.592633 0.500000
O O2 0.122155 0.556827 0.242023
O O3 0.144356 0.665001 0.296631
O O4 0.000000 0.623074 0.315173
O O5 0.872647 0.855334 0.500000
O O6 0.867150 0.886020 0.754600
O O7 0.891036 0.773858 0.686831
O O8 0.000000 0.850485 0.651908
O O9 0.500000 0.000000 0.654233
O O10 0.626428 0.000000 0.500000
O O11 0.628650 0.572128 0.500000
O O12 0.500000 0.569266 0.352312
O O13 0.617750 0.500000 0.290446
O O14 0.204598 0.726320 0.500000
O O15 0.250000 0.750000 0.250000
#
# Coordination Sequence:
#
# PCOD8291436 Si02
#       5
#    16  16   8  16  16
#     4   9  17  32  55  79 103 135 174 212 253 306
#     4   9  17  30  49  72  96 123 160 204 245 287
#     4   9  17  29  49  81 113 133 158 207 266 313
#     4   8  14  25  42  66  95 123 152 191 238 282
#     4  10  21  35  51  72 101 135 169 206 250 300
#
# _framework density 19.004528000000001
#
# number of rings (size 3 to 8) (size 9 to 14) (size 15 to 20)
#    0.000    3.000    0.000    1.667    0.000    6.222 
#    0.000    2.222    2.444    6.667    0.000    0.000 
#    0.000    0.000    0.000    0.000    0.000    0.000 
#
# Total GULP energy -446111.505206 kJ/mol
# GULP energy per Si atom -12391.986256 kJ/mol
# Density = 1.896127 g / cm^3
# Si number density = 19.004528 Si / 1000 Ang^3
#
#
#
# Elastic Constant Matrix: (Units=GPa)
#
#
# Indices 1 2 3 4 5 6 
#
# 1 30.0115 31.8116 27.8411 0.0000 0.0000 0.0000
# 2 31.8116 186.8166 101.5319 0.0000 0.0000 0.0000
# 3 27.8411 101.5319 111.6174 0.0000 0.0000 0.0000
# 4 0.0000 0.0000 0.0000 33.3837 0.0000 0.0000
# 5 0.0000 0.0000 0.0000 0.0000 21.1670 0.0000
# 6 0.0000 0.0000 0.0000 0.0000 0.0000 15.2431
#
#
#
# Elastic Compliance Matrix: (Units=1/GPa)
#
#
# Indices 1 2 3 4 5 6 
#
# 1 0.044205 -0.003035 -0.008265 0.000000 0.000000 0.000000
# 2 -0.003035 0.010795 -0.009063 0.000000 0.000000 0.000000
# 3 -0.008265 -0.009063 0.019264 0.000000 0.000000 0.000000
# 4 0.000000 0.000000 0.000000 0.029955 0.000000 0.000000
# 5 0.000000 0.000000 0.000000 0.000000 0.047243 0.000000
# 6 0.000000 0.000000 0.000000 0.000000 0.000000 0.065603
#
#
# Mechanical properties :
#
#
# Convention : Reuss Voigt Hill
#
# Bulk Modulus (GPa) = 29.81628 72.31276 51.06452
# Shear Modulus (GPa) = 18.58929 25.10949 21.84939
#
# Velocity S-wave (km/s) = 3.13093 3.63883 3.39439
# Velocity P-wave (km/s) = 5.36595 7.46911 6.50312
#
# Compressibility (1/GPa) = 0.03353873
#
# Stress axis : x y z
#
# Youngs Moduli (GPa) = 22.62166 92.63498 51.90920
#
# Poissons Ratio (x) = 0.28119 0.42904
# Poissons Ratio (y) = 0.06867 0.47043
# Poissons Ratio (z) = 0.18697 0.83950
#
# Static dielectric constant tensor:
#      x y z
#    x 3.052530 0.000000 0.000000 
#    y 0.000000 3.811710 0.000000 
#    z 0.000000 0.000000 3.824880 
# 
# 
# High freq. dielectric constant tensor:
#      x y z
#    x 1.691440 0.000000 0.000000 
#    y 0.000000 1.753030 0.000000 
#    z 0.000000 0.000000 1.737550 
# 
# From -- ./inp_files/7909.got.cif
#   From: 2010.06.25/outbox.cif.g09.slc.cpg/sg71_4_cif.got.tgz:7909.got - 2010.06.28 04:59:45.
