data_PCOD8291669
_publ_section_title
;
Structure prediction by ZEFSAII (Michael W. Deem and Ramdas Pophale) SiO2 
 PCOD8291669
Probable space group: I M M M
;
_chemical_formula_sum "Si O2"
_cell_formula_units_Z 100
_cell_length_a 26.231612
_cell_length_b 8.870287
_cell_length_c 22.056938
_cell_angle_alpha 90.000000
_cell_angle_beta 90.000000
_cell_angle_gamma 90.000000
_cell_volume 5132.250836
_symmetry_space_group_name_H-M "I M M M"
_symmetry_group_IT_number 71
_symmetry_cell_setting 'orthorhombic'
loop_
_space_group_symop_operation_xyz
x,y,z
-x,-y,z
x,-y,-z
-x,y,-z
-x,-y,-z
x,y,-z
-x,y,z
x,-y,z
1/2+x,1/2+y,1/2+z
1/2-x,1/2-y,1/2+z
1/2+x,1/2-y,1/2-z
1/2-x,1/2+y,1/2-z
1/2-x,1/2-y,1/2-z
1/2+x,1/2+y,1/2-z
1/2-x,1/2+y,1/2+z
1/2+x,1/2-y,1/2+z
loop_
_atom_site_type_symbol
_atom_site_label
_atom_site_fract_x
_atom_site_fract_y
_atom_site_fract_z
Si Si1 0.117210 0.329036 0.000000
Si Si2 0.880239 0.675520 0.322025
Si Si3 0.097840 0.178605 0.201306
Si Si4 0.238060 0.675646 0.685708
Si Si5 0.824266 0.678928 0.881810
Si Si6 0.500000 0.257638 0.500000
Si Si7 0.500000 0.666175 0.635185
Si Si8 0.056664 0.320977 0.566245
O O1 0.144301 0.255957 0.059575
O O2 0.054852 0.328430 0.000000
O O3 0.134346 0.500000 0.000000
O O4 0.892573 0.500000 0.309694
O O5 0.907858 0.776164 0.270973
O O6 0.820660 0.704531 0.327982
O O7 0.903874 0.738167 0.384154
O O8 0.146779 0.268688 0.178398
O O9 0.050452 0.244716 0.161677
O O10 0.105173 0.000000 0.192844
O O11 0.252002 0.500000 0.689338
O O12 0.250000 0.750000 0.750000
O O13 0.268343 0.749504 0.628367
O O14 0.819776 0.500000 0.884025
O O15 0.500000 0.350089 0.562215
O O16 0.500000 0.500000 0.663378
O O17 0.073182 0.259664 0.500000
O O18 0.056934 0.500000 0.565320
O O19 0.000000 0.262718 0.582305
#
# Coordination Sequence:
#
# PCOD8291669 Si02
#       8
#     8  16  16  16  16   4   8  16
#     4  10  23  39  59  84 113 151 197 247 296 346
#     4  10  21  36  57  87 115 144 188 234 281 338
#     4  11  22  37  56  83 117 151 189 234 290 346
#     4  11  22  37  57  84 115 151 189 234 287 340
#     4  11  22  40  60  82 111 148 197 247 292 342
#     4  12  18  40  60  82 112 154 196 236 294 350
#     4  10  23  37  53  82 118 154 192 236 286 348
#     4   8  15  31  56  84 113 143 177 223 278 333
#
# _framework density 19.484628000000001
#
# number of rings (size 3 to 8) (size 9 to 14) (size 15 to 20)
#    0.000    1.760    3.200    2.160    1.120    0.640 
#    1.440    2.800    0.000    0.480    0.000    1.120 
#    0.000    0.000    0.000    0.000    0.000    0.000 
#
# Total GULP energy -619640.166207 kJ/mol
# GULP energy per Si atom -12392.803324 kJ/mol
# Density = 1.944028 g / cm^3
# Si number density = 19.484628 Si / 1000 Ang^3
#
#
#
# Elastic Constant Matrix: (Units=GPa)
#
#
# Indices 1 2 3 4 5 6 
#
# 1 117.4659 35.1965 81.4538 0.0000 0.0000 0.0000
# 2 35.1965 63.8126 31.3408 0.0000 0.0000 0.0000
# 3 81.4538 31.3408 147.8700 0.0000 0.0000 0.0000
# 4 0.0000 0.0000 0.0000 20.7987 0.0000 0.0000
# 5 0.0000 0.0000 0.0000 0.0000 42.3439 0.0000
# 6 0.0000 0.0000 0.0000 0.0000 0.0000 18.9824
#
#
#
# Elastic Compliance Matrix: (Units=1/GPa)
#
#
# Indices 1 2 3 4 5 6 
#
# 1 0.014932 -0.004684 -0.007232 0.000000 0.000000 0.000000
# 2 -0.004684 0.018961 -0.001439 0.000000 0.000000 0.000000
# 3 -0.007232 -0.001439 0.011052 0.000000 0.000000 0.000000
# 4 0.000000 0.000000 0.000000 0.048080 0.000000 0.000000
# 5 0.000000 0.000000 0.000000 0.000000 0.023616 0.000000
# 6 0.000000 0.000000 0.000000 0.000000 0.000000 0.052681
#
#
# Mechanical properties :
#
#
# Convention : Reuss Voigt Hill
#
# Bulk Modulus (GPa) = 54.84095 69.45895 62.14995
# Shear Modulus (GPa) = 24.73926 28.50216 26.62071
#
# Velocity S-wave (km/s) = 3.56712 3.82881 3.70028
# Velocity P-wave (km/s) = 6.72106 7.43450 7.08677
#
# Compressibility (1/GPa) = 0.01823455
#
# Stress axis : x y z
#
# Youngs Moduli (GPa) = 66.97241 52.74036 90.48513
#
# Poissons Ratio (x) = 0.24701 0.65442
# Poissons Ratio (y) = 0.31367 0.13019
# Poissons Ratio (z) = 0.48437 0.07588
#
# Static dielectric constant tensor:
#      x y z
#    x 3.803420 0.000000 0.000000 
#    y 0.000000 3.237330 0.000000 
#    z 0.000000 0.000000 3.840220 
# 
# 
# High freq. dielectric constant tensor:
#      x y z
#    x 1.767450 0.000000 0.000000 
#    y 0.000000 1.729330 0.000000 
#    z 0.000000 0.000000 1.763780 
# 
# From -- ./inp_files/56320.got.cif
#   From: 2010.06.25/outbox.cif.g09.slc.cpg/sg71_29_cif.got.tgz:56320.got - 2010.06.28 04:59:45.
