data_PCOD8291372
_publ_section_title
;
Structure prediction by ZEFSAII (Michael W. Deem and Ramdas Pophale) SiO2 
 PCOD8291372
Probable space group: I M M M
;
_chemical_formula_sum "Si O2"
_cell_formula_units_Z 120
_cell_length_a 15.110116
_cell_length_b 22.404694
_cell_length_c 21.904988
_cell_angle_alpha 90.000000
_cell_angle_beta 90.000000
_cell_angle_gamma 90.000000
_cell_volume 7415.660429
_symmetry_space_group_name_H-M "I M M M"
_symmetry_group_IT_number 71
_symmetry_cell_setting 'orthorhombic'
loop_
_space_group_symop_operation_xyz
x,y,z
-x,-y,z
x,-y,-z
-x,y,-z
-x,-y,-z
x,y,-z
-x,y,z
x,-y,z
1/2+x,1/2+y,1/2+z
1/2-x,1/2-y,1/2+z
1/2+x,1/2-y,1/2-z
1/2-x,1/2+y,1/2-z
1/2-x,1/2-y,1/2-z
1/2+x,1/2+y,1/2-z
1/2-x,1/2+y,1/2+z
1/2+x,1/2-y,1/2+z
loop_
_atom_site_type_symbol
_atom_site_label
_atom_site_fract_x
_atom_site_fract_y
_atom_site_fract_z
Si Si1 0.259719 0.432656 0.242063
Si Si2 0.899908 0.843183 0.285146
Si Si3 0.000000 0.929812 0.931464
Si Si4 0.898455 0.768689 0.834503
Si Si5 0.398664 0.153707 0.259277
Si Si6 0.599840 0.771852 0.860515
Si Si7 0.812815 0.067148 0.117729
Si Si8 0.759641 0.185613 0.930348
O O1 0.253546 0.500000 0.217425
O O2 0.333201 0.397653 0.202595
O O3 0.163861 0.403277 0.232878
O O4 0.291221 0.431688 0.311545
O O5 0.873991 0.811739 0.221585
O O6 0.889378 0.796543 0.340077
O O7 0.000000 0.867649 0.282625
O O8 0.913719 0.910117 0.893253
O O9 0.000000 0.000000 0.938301
O O10 0.000000 0.901376 0.000000
O O11 0.882384 0.700408 0.814010
O O12 0.835417 0.783359 0.890521
O O13 0.000000 0.777731 0.854613
O O14 0.500000 0.131458 0.259609
O O15 0.375383 0.185426 0.195706
O O16 0.500000 0.783974 0.882665
O O17 0.664952 0.785123 0.916200
O O18 0.751680 0.114315 0.081995
O O19 0.798143 0.000000 0.091429
O O20 0.783524 0.197937 0.000000
#
# Coordination Sequence:
#
# PCOD8291372 Si02
#       8
#    16  16   8  16  16  16  16  16
#     4  11  20  28  45  72 101 126 152 194 235 278
#     4   9  17  31  52  70  90 122 155 193 241 293
#     4   9  18  32  44  52  74 124 178 206 222 260
#     4   9  18  32  50  71  92 118 156 196 241 294
#     4   9  17  33  54  68  86 121 160 200 241 283
#     4   9  18  34  52  68  86 117 164 206 242 282
#     4  10  21  33  43  60  91 133 170 199 232 268
#     4  12  22  30  47  69  95 128 160 204 242 272
#
# _framework density 16.181971000000001
#
# number of rings (size 3 to 8) (size 9 to 14) (size 15 to 20)
#    0.000    2.200    2.667    2.800    1.867    4.000 
#    0.000    0.000    0.000    0.400    0.000    0.933 
#    0.000    8.533    0.000   23.467    0.000    0.000 
#
# Total GULP energy -743947.958766 kJ/mol
# GULP energy per Si atom -12399.132646 kJ/mol
# Density = 1.614514 g / cm^3
# Si number density = 16.181971 Si / 1000 Ang^3
#
#
#
# Elastic Constant Matrix: (Units=GPa)
#
#
# Indices 1 2 3 4 5 6 
#
# 1 91.3882 54.5714 20.5173 0.0000 0.0000 0.0000
# 2 54.5714 94.3993 17.0851 0.0000 0.0000 0.0000
# 3 20.5173 17.0851 43.7233 0.0000 0.0000 0.0000
# 4 0.0000 0.0000 0.0000 8.2438 0.0000 0.0000
# 5 0.0000 0.0000 0.0000 0.0000 15.2507 0.0000
# 6 0.0000 0.0000 0.0000 0.0000 0.0000 25.5240
#
#
#
# Elastic Compliance Matrix: (Units=1/GPa)
#
#
# Indices 1 2 3 4 5 6 
#
# 1 0.017527 -0.009302 -0.004590 0.000000 0.000000 0.000000
# 2 -0.009302 0.016336 -0.002019 0.000000 0.000000 0.000000
# 3 -0.004590 -0.002019 0.025814 0.000000 0.000000 0.000000
# 4 0.000000 0.000000 0.000000 0.121303 0.000000 0.000000
# 5 0.000000 0.000000 0.000000 0.000000 0.065571 0.000000
# 6 0.000000 0.000000 0.000000 0.000000 0.000000 0.039179
#
#
# Mechanical properties :
#
#
# Convention : Reuss Voigt Hill
#
# Bulk Modulus (GPa) = 35.89833 45.98428 40.94131
# Shear Modulus (GPa) = 15.29823 18.95950 17.12886
#
# Velocity S-wave (km/s) = 3.07805 3.42664 3.25701
# Velocity P-wave (km/s) = 5.90465 6.64338 6.28488
#
# Compressibility (1/GPa) = 0.02785645
#
# Stress axis : x y z
#
# Youngs Moduli (GPa) = 57.05441 61.21542 38.73908
#
# Poissons Ratio (x) = 0.56940 0.17781
# Poissons Ratio (y) = 0.53069 0.07820
# Poissons Ratio (z) = 0.26188 0.12356
#
# Static dielectric constant tensor:
#      x y z
#    x 3.161080 0.000000 0.000000 
#    y 0.000000 3.160420 0.000000 
#    z 0.000000 0.000000 2.728510 
# 
# 
# High freq. dielectric constant tensor:
#      x y z
#    x 1.632560 0.000000 0.000000 
#    y 0.000000 1.613540 0.000000 
#    z 0.000000 0.000000 1.579420 
# 
# From -- ./inp_files/38401.got.cif
#   From: 2010.06.25/outbox.cif.g09.slc.cpg/sg71_20_cif.got.tgz:38401.got - 2010.06.28 04:59:45.
