data_PCOD8291220
_publ_section_title
;
Structure prediction by ZEFSAII (Michael W. Deem and Ramdas Pophale) SiO2 
 PCOD8291220
Probable space group: I M M M
;
_chemical_formula_sum "Si O2"
_cell_formula_units_Z 72
_cell_length_a 14.727276
_cell_length_b 14.343463
_cell_length_c 17.207403
_cell_angle_alpha 90.000000
_cell_angle_beta 90.000000
_cell_angle_gamma 90.000000
_cell_volume 3634.894191
_symmetry_space_group_name_H-M "I M M M"
_symmetry_group_IT_number 71
_symmetry_cell_setting 'orthorhombic'
loop_
_space_group_symop_operation_xyz
x,y,z
-x,-y,z
x,-y,-z
-x,y,-z
-x,-y,-z
x,y,-z
-x,y,z
x,-y,z
1/2+x,1/2+y,1/2+z
1/2-x,1/2-y,1/2+z
1/2+x,1/2-y,1/2-z
1/2-x,1/2+y,1/2-z
1/2-x,1/2-y,1/2-z
1/2+x,1/2+y,1/2-z
1/2-x,1/2+y,1/2+z
1/2+x,1/2-y,1/2+z
loop_
_atom_site_type_symbol
_atom_site_label
_atom_site_fract_x
_atom_site_fract_y
_atom_site_fract_z
Si Si1 0.099252 0.717707 0.861940
Si Si2 0.627936 0.107083 0.210338
Si Si3 0.608923 0.101664 0.500000
Si Si4 0.838985 0.102771 0.201712
Si Si5 0.500000 0.796718 0.093282
Si Si6 0.500000 0.606264 0.822688
O O1 0.086582 0.666229 0.780184
O O2 0.149659 0.816608 0.861355
O O3 0.000000 0.740420 0.894606
O O4 0.149339 0.652148 0.923999
O O5 0.734981 0.111323 0.226251
O O6 0.590021 0.154246 0.130794
O O7 0.594493 0.000000 0.212463
O O8 0.500000 0.094771 0.500000
O O9 0.652763 0.000000 0.500000
O O10 0.908712 0.121544 0.272094
O O11 0.858009 0.000000 0.166013
O O12 0.500000 0.685022 0.110451
O O13 0.500000 0.811693 0.000000
O O14 0.500000 0.500000 0.856820
#
# Coordination Sequence:
#
# PCOD8291220 Si02
#       6
#    16  16   8  16   8   8
#     4  11  19  35  59  83 115 154 190 238 296 353
#     4  11  22  37  60  87 115 156 202 246 297 354
#     4   9  20  34  53  85 117 146 182 235 296 355
#     4  10  20  36  62  89 115 153 202 248 294 353
#     4  12  25  41  62  89 121 162 203 251 300 353
#     4  10  20  40  65  92 121 153 199 253 299 357
#
# _framework density 19.808004
#
# number of rings (size 3 to 8) (size 9 to 14) (size 15 to 20)
#    0.000    1.444    4.444    1.667    0.000    2.000 
#    2.000    0.556    0.000    2.000    0.000    0.000 
#    0.000    0.000    0.000    0.000    0.000    0.000 
#
# Total GULP energy -446026.833617 kJ/mol
# GULP energy per Si atom -12389.634267 kJ/mol
# Density = 1.976292 g / cm^3
# Si number density = 19.808004 Si / 1000 Ang^3
#
#
#
# Elastic Constant Matrix: (Units=GPa)
#
#
# Indices 1 2 3 4 5 6 
#
# 1 101.4442 23.7867 22.3290 0.0000 0.0000 0.0000
# 2 23.7867 184.5352 63.3306 0.0000 0.0000 0.0000
# 3 22.3290 63.3306 120.6250 0.0000 0.0000 0.0000
# 4 0.0000 0.0000 0.0000 30.2064 0.0000 0.0000
# 5 0.0000 0.0000 0.0000 0.0000 3.7628 0.0000
# 6 0.0000 0.0000 0.0000 0.0000 0.0000 27.8049
#
#
#
# Elastic Compliance Matrix: (Units=1/GPa)
#
#
# Indices 1 2 3 4 5 6 
#
# 1 0.010379 -0.000828 -0.001487 0.000000 0.000000 0.000000
# 2 -0.000828 0.006676 -0.003352 0.000000 0.000000 0.000000
# 3 -0.001487 -0.003352 0.010325 0.000000 0.000000 0.000000
# 4 0.000000 0.000000 0.000000 0.033106 0.000000 0.000000
# 5 0.000000 0.000000 0.000000 0.000000 0.265760 0.000000
# 6 0.000000 0.000000 0.000000 0.000000 0.000000 0.035965
#
#
# Mechanical properties :
#
#
# Convention : Reuss Voigt Hill
#
# Bulk Modulus (GPa) = 62.31418 69.49966 65.90692
# Shear Modulus (GPa) = 13.19638 32.16535 22.68086
#
# Velocity S-wave (km/s) = 2.58391 4.03408 3.38751
# Velocity P-wave (km/s) = 6.35842 7.54064 6.97462
#
# Compressibility (1/GPa) = 0.01604771
#
# Stress axis : x y z
#
# Youngs Moduli (GPa) = 96.34889 149.78986 96.85090
#
# Poissons Ratio (x) = 0.12397 0.14399
# Poissons Ratio (y) = 0.07974 0.32463
# Poissons Ratio (z) = 0.14325 0.50207
#
# Static dielectric constant tensor:
#      x y z
#    x 3.585090 0.000000 0.000000 
#    y 0.000000 4.122190 0.000000 
#    z 0.000000 0.000000 3.272380 
# 
# 
# High freq. dielectric constant tensor:
#      x y z
#    x 1.766940 0.000000 0.000000 
#    y 0.000000 1.803470 0.000000 
#    z 0.000000 0.000000 1.728840 
# 
# From -- ./inp_files/44501.got.cif
#   From: 2010.06.25/outbox.cif.g09.slc.cpg/sg71_23_cif.got.tgz:44501.got - 2010.06.28 04:59:45.
