data_PCOD8291471
_publ_section_title
;
Structure prediction by ZEFSAII (Michael W. Deem and Ramdas Pophale) SiO2 
 PCOD8291471
Probable space group: I M M M
;
_chemical_formula_sum "Si O2"
_cell_formula_units_Z 96
_cell_length_a 8.751849
_cell_length_b 25.241052
_cell_length_c 23.332652
_cell_angle_alpha 90.000000
_cell_angle_beta 90.000000
_cell_angle_gamma 90.000000
_cell_volume 5154.319923
_symmetry_space_group_name_H-M "I M M M"
_symmetry_group_IT_number 71
_symmetry_cell_setting 'orthorhombic'
loop_
_space_group_symop_operation_xyz
x,y,z
-x,-y,z
x,-y,-z
-x,y,-z
-x,-y,-z
x,y,-z
-x,y,z
x,-y,z
1/2+x,1/2+y,1/2+z
1/2-x,1/2-y,1/2+z
1/2+x,1/2-y,1/2-z
1/2-x,1/2+y,1/2-z
1/2-x,1/2-y,1/2-z
1/2+x,1/2+y,1/2-z
1/2-x,1/2+y,1/2+z
1/2+x,1/2-y,1/2+z
loop_
_atom_site_type_symbol
_atom_site_label
_atom_site_fract_x
_atom_site_fract_y
_atom_site_fract_z
Si Si1 0.181518 0.941221 0.564021
Si Si2 0.179291 0.307959 0.253231
Si Si3 0.680093 0.345675 0.140222
Si Si4 0.324581 0.348017 0.633367
Si Si5 0.823942 0.743502 0.065888
Si Si6 0.323891 0.939127 0.934352
O O1 0.243943 0.929077 0.500000
O O2 0.245845 0.897541 0.607788
O O3 0.000000 0.938381 0.562839
O O4 0.235073 0.000000 0.583476
O O5 0.250000 0.250000 0.250000
O O6 0.239015 0.343943 0.201409
O O7 0.220618 0.336980 0.311812
O O8 0.000000 0.301246 0.247901
O O9 0.500000 0.348869 0.149745
O O10 0.716637 0.293917 0.103202
O O11 0.500000 0.349027 0.653262
O O12 0.295946 0.303575 0.585354
O O13 0.281192 0.404330 0.606790
O O14 0.000000 0.727022 0.075148
O O15 0.774746 0.738639 0.000000
O O16 0.500000 0.922897 0.926169
O O17 0.298636 0.000000 0.916884
O O18 0.274083 0.930142 0.000000
#
# Coordination Sequence:
#
# PCOD8291471 Si02
#       6
#    16  16  16  16  16  16
#     4   8  15  30  53  82 115 147 181 225 273 321
#     4  12  24  40  59  80 109 150 191 234 285 340
#     4  11  21  34  56  84 111 146 190 232 279 338
#     4  11  22  37  58  84 113 149 191 235 284 339
#     4  10  21  35  52  78 114 149 180 226 285 339
#     4   9  19  37  60  86 118 155 192 233 284 339
#
# _framework density 18.625153999999998
#
# number of rings (size 3 to 8) (size 9 to 14) (size 15 to 20)
#    0.000    1.833    1.667    4.500    0.000    3.000 
#    0.000    1.667    0.000    5.000    0.000    5.833 
#    0.000    0.000    0.000    0.000    0.000    0.000 
#
# Total GULP energy -595339.739727 kJ/mol
# GULP energy per Si atom -12402.911244 kJ/mol
# Density = 1.858276 g / cm^3
# Si number density = 18.625154 Si / 1000 Ang^3
#
#
#
# Elastic Constant Matrix: (Units=GPa)
#
#
# Indices 1 2 3 4 5 6 
#
# 1 78.4180 31.4098 33.0936 0.0000 0.0000 0.0000
# 2 31.4098 104.2150 40.6717 0.0000 0.0000 0.0000
# 3 33.0936 40.6717 100.9217 0.0000 0.0000 0.0000
# 4 0.0000 0.0000 0.0000 29.1358 0.0000 0.0000
# 5 0.0000 0.0000 0.0000 0.0000 31.2085 0.0000
# 6 0.0000 0.0000 0.0000 0.0000 0.0000 19.6776
#
#
#
# Elastic Compliance Matrix: (Units=1/GPa)
#
#
# Indices 1 2 3 4 5 6 
#
# 1 0.015662 -0.003223 -0.003837 0.000000 0.000000 0.000000
# 2 -0.003223 0.012050 -0.003799 0.000000 0.000000 0.000000
# 3 -0.003837 -0.003799 0.012698 0.000000 0.000000 0.000000
# 4 0.000000 0.000000 0.000000 0.034322 0.000000 0.000000
# 5 0.000000 0.000000 0.000000 0.000000 0.032043 0.000000
# 6 0.000000 0.000000 0.000000 0.000000 0.000000 0.050819
#
#
# Mechanical properties :
#
#
# Convention : Reuss Voigt Hill
#
# Bulk Modulus (GPa) = 53.50017 54.87830 54.18923
# Shear Modulus (GPa) = 26.94795 27.89636 27.42216
#
# Velocity S-wave (km/s) = 3.80789 3.87431 3.84124
# Velocity P-wave (km/s) = 6.93688 7.03863 6.98794
#
# Compressibility (1/GPa) = 0.01869153
#
# Stress axis : x y z
#
# Youngs Moduli (GPa) = 63.84706 82.98990 78.75293
#
# Poissons Ratio (x) = 0.26749 0.30217
# Poissons Ratio (y) = 0.20579 0.29919
# Poissons Ratio (z) = 0.24498 0.31529
#
# Static dielectric constant tensor:
#      x y z
#    x 3.286300 0.000000 0.000000 
#    y 0.000000 3.505910 0.000000 
#    z 0.000000 0.000000 3.610400 
# 
# 
# High freq. dielectric constant tensor:
#      x y z
#    x 1.712340 0.000000 0.000000 
#    y 0.000000 1.723050 0.000000 
#    z 0.000000 0.000000 1.726360 
# 
# From -- ./inp_files/10879.got.cif
#   From: 2010.06.25/outbox.cif.g09.slc.cpg/sg71_6_cif.got.tgz:10879.got - 2010.06.28 04:59:45.
