data_PCOD8291454
_publ_section_title
;
Structure prediction by ZEFSAII (Michael W. Deem and Ramdas Pophale) SiO2 
 PCOD8291454
Probable space group: I M M M
;
_chemical_formula_sum "Si O2"
_cell_formula_units_Z 72
_cell_length_a 22.634010
_cell_length_b 12.558066
_cell_length_c 13.160073
_cell_angle_alpha 90.000000
_cell_angle_beta 90.000000
_cell_angle_gamma 90.000000
_cell_volume 3740.611141
_symmetry_space_group_name_H-M "I M M M"
_symmetry_group_IT_number 71
_symmetry_cell_setting 'orthorhombic'
loop_
_space_group_symop_operation_xyz
x,y,z
-x,-y,z
x,-y,-z
-x,y,-z
-x,-y,-z
x,y,-z
-x,y,z
x,-y,z
1/2+x,1/2+y,1/2+z
1/2-x,1/2-y,1/2+z
1/2+x,1/2-y,1/2-z
1/2-x,1/2+y,1/2-z
1/2-x,1/2-y,1/2-z
1/2+x,1/2+y,1/2-z
1/2-x,1/2+y,1/2+z
1/2+x,1/2-y,1/2+z
loop_
_atom_site_type_symbol
_atom_site_label
_atom_site_fract_x
_atom_site_fract_y
_atom_site_fract_z
Si Si1 0.778126 0.248630 0.612081
Si Si2 0.433325 0.248943 0.696789
Si Si3 0.930273 0.381879 0.000000
Si Si4 0.180280 0.876791 0.793698
Si Si5 0.393993 0.124583 0.884895
O O1 0.782401 0.200601 0.500000
O O2 0.789257 0.148603 0.685474
O O3 0.714291 0.303590 0.624844
O O4 0.826541 0.340121 0.632218
O O5 0.500000 0.290892 0.677280
O O6 0.410157 0.178422 0.602279
O O7 0.389326 0.348998 0.706806
O O8 0.434616 0.182129 0.801581
O O9 0.901555 0.500000 0.000000
O O10 0.000000 0.392533 0.000000
O O11 0.187623 0.000000 0.820469
O O12 0.398614 0.000000 0.865670
O O13 0.415029 0.153384 0.000000
#
# Coordination Sequence:
#
# PCOD8291454 Si02
#       5
#    16  16   8  16  16
#     4   9  19  36  57  80 109 136 175 225 272 327
#     4  10  21  35  51  76 111 146 185 225 262 316
#     4   9  18  34  53  71 101 147 188 224 266 307
#     4  10  21  36  57  81 108 143 180 221 272 325
#     4   9  17  31  54  82 107 134 171 221 280 331
#
# _framework density 19.248192
#
# number of rings (size 3 to 8) (size 9 to 14) (size 15 to 20)
#    0.000    2.556    0.000    1.333    1.556    4.000 
#    0.000    2.222    0.000    2.000    0.000    6.222 
#    0.000    0.000    0.000    0.000    0.000    0.000 
#
# Total GULP energy -446318.220883 kJ/mol
# GULP energy per Si atom -12397.728358 kJ/mol
# Density = 1.920438 g / cm^3
# Si number density = 19.248192 Si / 1000 Ang^3
#
#
#
# Elastic Constant Matrix: (Units=GPa)
#
#
# Indices 1 2 3 4 5 6 
#
# 1 83.1212 16.1966 9.9216 0.0000 0.0000 0.0000
# 2 16.1966 52.8070 11.5063 0.0000 0.0000 0.0000
# 3 9.9216 11.5063 101.0795 0.0000 0.0000 0.0000
# 4 0.0000 0.0000 0.0000 19.3145 0.0000 0.0000
# 5 0.0000 0.0000 0.0000 0.0000 23.0762 0.0000
# 6 0.0000 0.0000 0.0000 0.0000 0.0000 14.4876
#
#
#
# Elastic Compliance Matrix: (Units=1/GPa)
#
#
# Indices 1 2 3 4 5 6 
#
# 1 0.012864 -0.003764 -0.000834 0.000000 0.000000 0.000000
# 2 -0.003764 0.020520 -0.001966 0.000000 0.000000 0.000000
# 3 -0.000834 -0.001966 0.010199 0.000000 0.000000 0.000000
# 4 0.000000 0.000000 0.000000 0.051775 0.000000 0.000000
# 5 0.000000 0.000000 0.000000 0.000000 0.043335 0.000000
# 6 0.000000 0.000000 0.000000 0.000000 0.000000 0.069025
#
#
# Mechanical properties :
#
#
# Convention : Reuss Voigt Hill
#
# Bulk Modulus (GPa) = 32.83678 34.69518 33.76598
# Shear Modulus (GPa) = 21.64540 24.66786 23.15663
#
# Velocity S-wave (km/s) = 3.35706 3.58378 3.47227
# Velocity P-wave (km/s) = 5.66773 5.93203 5.80138
#
# Compressibility (1/GPa) = 0.03045365
#
# Stress axis : x y z
#
# Youngs Moduli (GPa) = 77.73893 48.73364 98.04947
#
# Poissons Ratio (x) = 0.18342 0.08179
# Poissons Ratio (y) = 0.29258 0.19281
# Poissons Ratio (z) = 0.06485 0.09583
#
# Static dielectric constant tensor:
#      x y z
#    x 3.415470 0.000000 0.000000 
#    y 0.000000 3.182010 0.000000 
#    z 0.000000 0.000000 3.753600 
# 
# 
# High freq. dielectric constant tensor:
#      x y z
#    x 1.744370 0.000000 0.000000 
#    y 0.000000 1.718790 0.000000 
#    z 0.000000 0.000000 1.762320 
# 
# From -- ./inp_files/27020.got.cif
#   From: 2010.06.25/outbox.cif.g09.slc.cpg/sg71_14_cif.got.tgz:27020.got - 2010.06.28 04:59:45.
