data_PCOD8291614
_publ_section_title
;
Structure prediction by ZEFSAII (Michael W. Deem and Ramdas Pophale) SiO2 
 PCOD8291614
Probable space group: I M M M
;
_chemical_formula_sum "Si O2"
_cell_formula_units_Z 104
_cell_length_a 27.048409
_cell_length_b 9.220758
_cell_length_c 21.594029
_cell_angle_alpha 90.000000
_cell_angle_beta 90.000000
_cell_angle_gamma 90.000000
_cell_volume 5385.698399
_symmetry_space_group_name_H-M "I M M M"
_symmetry_group_IT_number 71
_symmetry_cell_setting 'orthorhombic'
loop_
_space_group_symop_operation_xyz
x,y,z
-x,-y,z
x,-y,-z
-x,y,-z
-x,-y,-z
x,y,-z
-x,y,z
x,-y,z
1/2+x,1/2+y,1/2+z
1/2-x,1/2-y,1/2+z
1/2+x,1/2-y,1/2-z
1/2-x,1/2+y,1/2-z
1/2-x,1/2-y,1/2-z
1/2+x,1/2+y,1/2-z
1/2-x,1/2+y,1/2+z
1/2+x,1/2-y,1/2+z
loop_
_atom_site_type_symbol
_atom_site_label
_atom_site_fract_x
_atom_site_fract_y
_atom_site_fract_z
Si Si1 0.123400 0.664727 0.930937
Si Si2 0.945078 0.839782 0.610644
Si Si3 0.778551 0.170444 0.070872
Si Si4 0.556646 0.832745 0.679835
Si Si5 0.377179 0.335502 0.226283
Si Si6 0.059309 0.661130 0.500000
Si Si7 0.279444 0.827007 0.805307
O O1 0.142533 0.500000 0.926862
O O2 0.169288 0.761906 0.908665
O O3 0.073860 0.685418 0.890945
O O4 0.107678 0.708487 0.000000
O O5 0.918061 0.839912 0.674560
O O6 0.918503 0.736327 0.560924
O O7 0.000000 0.781529 0.624430
O O8 0.946470 0.000000 0.581408
O O9 0.740002 0.214981 0.125397
O O10 0.785519 0.000000 0.070768
O O11 0.762980 0.221141 0.000000
O O12 0.500000 0.778167 0.686494
O O13 0.595814 0.734170 0.715488
O O14 0.560680 0.000000 0.701809
O O15 0.358643 0.500000 0.241866
O O16 0.334415 0.233209 0.200594
O O17 0.079528 0.500000 0.500000
O O18 0.000000 0.673858 0.500000
O O19 0.250000 0.750000 0.750000
O O20 0.278209 0.000000 0.795490
#
# Coordination Sequence:
#
# PCOD8291614 Si02
#       7
#    16  16  16  16  16   8  16
#     4   9  18  33  55  83 113 146 184 226 275 333
#     4   9  18  34  54  74 102 141 180 218 265 323
#     4   9  19  37  59  82 110 146 186 230 283 339
#     4  10  21  36  55  81 114 151 190 234 282 333
#     4  11  23  38  56  80 110 145 186 230 281 335
#     4   9  17  29  49  77 103 131 171 217 263 311
#     4  11  23  39  60  84 113 147 187 235 286 342
#
# _framework density 19.310400999999999
#
# number of rings (size 3 to 8) (size 9 to 14) (size 15 to 20)
#    0.000    2.231    0.000    2.538    0.000    7.692 
#    1.385    3.077    0.000    0.000    0.000    3.231 
#    0.000    0.000    0.000    0.000    0.000    0.000 
#
# Total GULP energy -644462.792701 kJ/mol
# GULP energy per Si atom -12393.515244 kJ/mol
# Density = 1.926645 g / cm^3
# Si number density = 19.310401 Si / 1000 Ang^3
#
#
#
# Elastic Constant Matrix: (Units=GPa)
#
#
# Indices 1 2 3 4 5 6 
#
# 1 85.4786 29.7455 44.4845 0.0000 0.0000 0.0000
# 2 29.7455 75.1132 45.0870 0.0000 0.0000 0.0000
# 3 44.4845 45.0870 105.4485 0.0000 0.0000 0.0000
# 4 0.0000 0.0000 0.0000 26.1550 0.0000 0.0000
# 5 0.0000 0.0000 0.0000 0.0000 47.5879 0.0000
# 6 0.0000 0.0000 0.0000 0.0000 0.0000 28.7162
#
#
#
# Elastic Compliance Matrix: (Units=1/GPa)
#
#
# Indices 1 2 3 4 5 6 
#
# 1 0.015467 -0.002971 -0.005255 0.000000 0.000000 0.000000
# 2 -0.002971 0.018481 -0.006648 0.000000 0.000000 0.000000
# 3 -0.005255 -0.006648 0.014543 0.000000 0.000000 0.000000
# 4 0.000000 0.000000 0.000000 0.038234 0.000000 0.000000
# 5 0.000000 0.000000 0.000000 0.000000 0.021014 0.000000
# 6 0.000000 0.000000 0.000000 0.000000 0.000000 0.034823
#
#
# Mechanical properties :
#
#
# Convention : Reuss Voigt Hill
#
# Bulk Modulus (GPa) = 53.35533 56.07492 54.71513
# Shear Modulus (GPa) = 28.00220 30.27337 29.13779
#
# Velocity S-wave (km/s) = 3.81216 3.96374 3.88869
# Velocity P-wave (km/s) = 6.86055 7.07461 6.96840
#
# Compressibility (1/GPa) = 0.01874227
#
# Stress axis : x y z
#
# Youngs Moduli (GPa) = 64.65217 54.11092 68.76275
#
# Poissons Ratio (x) = 0.16077 0.36133
# Poissons Ratio (y) = 0.19209 0.45716
# Poissons Ratio (z) = 0.33973 0.35975
#
# Static dielectric constant tensor:
#      x y z
#    x 3.352880 0.000000 0.000000 
#    y 0.000000 3.903460 0.000000 
#    z 0.000000 0.000000 3.780470 
# 
# 
# High freq. dielectric constant tensor:
#      x y z
#    x 1.734650 0.000000 0.000000 
#    y 0.000000 1.753870 0.000000 
#    z 0.000000 0.000000 1.764520 
# 
# From -- ./inp_files/11151.got.cif
#   From: 2010.06.25/outbox.cif.g09.slc.cpg/sg71_6_cif.got.tgz:11151.got - 2010.06.28 04:59:45.
