data_PCOD8291236
_publ_section_title
;
Structure prediction by ZEFSAII (Michael W. Deem and Ramdas Pophale) SiO2 
 PCOD8291236
Probable space group: I M M M
;
_chemical_formula_sum "Si O2"
_cell_formula_units_Z 64
_cell_length_a 13.953998
_cell_length_b 32.919452
_cell_length_c 7.460320
_cell_angle_alpha 90.000000
_cell_angle_beta 90.000000
_cell_angle_gamma 90.000000
_cell_volume 3426.957431
_symmetry_space_group_name_H-M "I M M M"
_symmetry_group_IT_number 71
_symmetry_cell_setting 'orthorhombic'
loop_
_space_group_symop_operation_xyz
x,y,z
-x,-y,z
x,-y,-z
-x,y,-z
-x,-y,-z
x,y,-z
-x,y,z
x,-y,z
1/2+x,1/2+y,1/2+z
1/2-x,1/2-y,1/2+z
1/2+x,1/2-y,1/2-z
1/2-x,1/2+y,1/2-z
1/2-x,1/2-y,1/2-z
1/2+x,1/2+y,1/2-z
1/2-x,1/2+y,1/2+z
1/2+x,1/2-y,1/2+z
loop_
_atom_site_type_symbol
_atom_site_label
_atom_site_fract_x
_atom_site_fract_y
_atom_site_fract_z
Si Si1 0.710470 0.123952 0.208819
Si Si2 0.607358 0.955448 0.212234
Si Si3 0.112571 0.231386 0.000000
Si Si4 0.609476 0.331563 0.793944
Si Si5 0.113691 0.677825 0.000000
O O1 0.680811 0.079109 0.279226
O O2 0.823825 0.129840 0.245462
O O3 0.651484 0.157113 0.319481
O O4 0.684937 0.129539 0.000000
O O5 0.500000 0.945048 0.281299
O O6 0.638689 0.000000 0.286118
O O7 0.606986 0.956801 0.000000
O O8 0.144753 0.206738 0.176855
O O9 0.156541 0.276431 0.000000
O O10 0.000000 0.236460 0.000000
O O11 0.500000 0.343879 0.748767
O O12 0.621484 0.318950 0.000000
O O13 0.000000 0.676331 0.000000
#
# Coordination Sequence:
#
# PCOD8291236 Si02
#       5
#    16  16   8  16   8
#     4  11  21  35  56  84 108 143 183 222 271 321
#     4   8  15  30  53  79 109 144 178 213 258 318
#     4   9  20  38  56  76 106 143 182 228 272 316
#     4  10  20  37  58  78 103 140 186 229 272 321
#     4  11  24  38  52  79 116 143 178 229 271 315
#
# _framework density 18.675457000000002
#
# number of rings (size 3 to 8) (size 9 to 14) (size 15 to 20)
#    0.000    2.250    2.500    1.500    0.000    3.500 
#    0.000    3.125    0.000    3.000    0.000    5.250 
#    0.000    0.000    0.000    0.000    0.000    0.000 
#
# Total GULP energy -396650.554146 kJ/mol
# GULP energy per Si atom -12395.329817 kJ/mol
# Density = 1.863295 g / cm^3
# Si number density = 18.675457 Si / 1000 Ang^3
#
#
#
# Elastic Constant Matrix: (Units=GPa)
#
#
# Indices 1 2 3 4 5 6 
#
# 1 102.2324 84.5865 33.8888 -0.0090 0.0038 -0.0004
# 2 84.5865 177.6672 49.2133 -0.0005 -0.0012 0.0002
# 3 33.8888 49.2133 102.5700 -0.0436 0.0148 -0.0046
# 4 -0.0090 -0.0005 -0.0436 2.2045 0.0140 -0.0037
# 5 0.0038 -0.0012 0.0148 0.0140 24.6254 0.0007
# 6 -0.0004 0.0002 -0.0046 -0.0037 0.0007 29.5164
#
#
#
# Elastic Compliance Matrix: (Units=1/GPa)
#
#
# Indices 1 2 3 4 5 6 
#
# 1 0.016466 -0.007303 -0.001936 0.000027 -0.000002 0.000000
# 2 -0.007303 0.009730 -0.002256 -0.000072 0.000003 -0.000001
# 3 -0.001936 -0.002256 0.011472 0.000218 -0.000007 0.000002
# 4 0.000027 -0.000072 0.000218 0.453631 -0.000258 0.000057
# 5 -0.000002 0.000003 -0.000007 -0.000258 0.040609 -0.000001
# 6 0.000000 -0.000001 0.000002 0.000057 -0.000001 0.033880
#
#
# Mechanical properties :
#
#
# Convention : Reuss Voigt Hill
#
# Bulk Modulus (GPa) = 68.13046 79.76074 73.94560
# Shear Modulus (GPa) = 8.42219 25.58797 17.00508
#
# Velocity S-wave (km/s) = 2.12592 3.70555 3.02082
# Velocity P-wave (km/s) = 6.52584 7.81727 7.20057
#
# Compressibility (1/GPa) = 0.01467772
#
# Stress axis : x y z
#
# Youngs Moduli (GPa) = 60.73133 102.77210 87.17198
#
# Poissons Ratio (x) = 0.75055 0.16879
# Poissons Ratio (y) = 0.44352 0.19664
# Poissons Ratio (z) = 0.11759 0.23183
#
# Static dielectric constant tensor:
#      x y z
#    x 3.540050 0.000000 0.000030 
#    y 0.000000 3.806880 -0.000020 
#    z 0.000030 -0.000020 3.448850 
# 
# 
# High freq. dielectric constant tensor:
#      x y z
#    x 1.712150 0.000000 0.000000 
#    y 0.000000 1.715450 0.000000 
#    z 0.000000 0.000000 1.733120 
# 
# From -- ./inp_files/6339.got.cif
#   From: 2010.06.25/outbox.cif.g09.slc.cpg/sg71_4_cif.got.tgz:6339.got - 2010.06.28 04:59:45.
