data_PCOD8291597
_publ_section_title
;
Structure prediction by ZEFSAII (Michael W. Deem and Ramdas Pophale) SiO2 
 PCOD8291597
Probable space group: I M M M
;
_chemical_formula_sum "Si O2"
_cell_formula_units_Z 120
_cell_length_a 23.629984
_cell_length_b 19.281848
_cell_length_c 14.209967
_cell_angle_alpha 90.000000
_cell_angle_beta 90.000000
_cell_angle_gamma 90.000000
_cell_volume 6474.483850
_symmetry_space_group_name_H-M "I M M M"
_symmetry_group_IT_number 71
_symmetry_cell_setting 'orthorhombic'
loop_
_space_group_symop_operation_xyz
x,y,z
-x,-y,z
x,-y,-z
-x,y,-z
-x,-y,-z
x,y,-z
-x,y,z
x,-y,z
1/2+x,1/2+y,1/2+z
1/2-x,1/2-y,1/2+z
1/2+x,1/2-y,1/2-z
1/2-x,1/2+y,1/2-z
1/2-x,1/2-y,1/2-z
1/2+x,1/2+y,1/2-z
1/2-x,1/2+y,1/2+z
1/2+x,1/2-y,1/2+z
loop_
_atom_site_type_symbol
_atom_site_label
_atom_site_fract_x
_atom_site_fract_y
_atom_site_fract_z
Si Si1 0.434353 0.919410 0.000000
Si Si2 0.774090 0.692057 0.603290
Si Si3 0.655161 0.171394 0.715640
Si Si4 0.933810 0.418931 0.703273
Si Si5 0.565123 0.580926 0.289874
Si Si6 0.872713 0.919402 0.394425
Si Si7 0.850952 0.184948 0.110699
Si Si8 0.758498 0.854615 0.603583
O O1 0.411282 0.891264 0.100211
O O2 0.500000 0.903711 0.000000
O O3 0.422410 0.000000 0.000000
O O4 0.795131 0.666335 0.500000
O O5 0.822332 0.679607 0.678496
O O6 0.713255 0.657108 0.629184
O O7 0.760332 0.772599 0.599843
O O8 0.598815 0.124959 0.717895
O O9 0.638703 0.244117 0.668273
O O10 0.702730 0.126133 0.661979
O O11 0.920438 0.500000 0.715836
O O12 0.000000 0.404678 0.715890
O O13 0.500000 0.600224 0.309545
O O14 0.576768 0.500000 0.312041
O O15 0.577265 0.596741 0.179276
O O16 0.604747 0.626682 0.356781
O O17 0.888144 0.891087 0.500000
O O18 0.816464 0.883428 0.351833
O O19 0.860089 0.000000 0.400607
O O20 0.859914 0.200117 0.000000
O O21 0.752461 0.887420 0.500000
#
# Coordination Sequence:
#
# PCOD8291597 Si02
#       8
#     8  16  16  16  16  16  16  16
#     4   7  12  28  50  66  90 134 173 197 236 298
#     4   9  18  31  50  76 105 133 164 207 264 319
#     4  11  19  30  55  80 102 134 176 216 256 304
#     4   9  19  34  51  73 104 141 174 207 253 304
#     4  10  21  36  55  78 103 136 179 220 261 313
#     4   9  17  30  51  78 107 137 168 208 259 312
#     4  10  21  38  55  74 103 138 174 216 265 312
#     4   9  17  31  49  71 101 137 173 209 255 309
#
# _framework density 18.534296000000001
#
# number of rings (size 3 to 8) (size 9 to 14) (size 15 to 20)
#    0.000    2.600    0.000    5.200    0.933    1.867 
#    0.000    2.667    0.000    3.200    0.000    3.733 
#    0.000    0.000    0.000    0.000    0.000    0.000 
#
# Total GULP energy -743428.552338 kJ/mol
# GULP energy per Si atom -12390.475872 kJ/mol
# Density = 1.849211 g / cm^3
# Si number density = 18.534296 Si / 1000 Ang^3
#
#
#
# Elastic Constant Matrix: (Units=GPa)
#
#
# Indices 1 2 3 4 5 6 
#
# 1 94.8984 47.9575 51.3465 0.0000 0.0000 0.0000
# 2 47.9575 50.5001 37.3901 0.0000 0.0000 0.0000
# 3 51.3465 37.3901 87.3366 0.0000 0.0000 0.0000
# 4 0.0000 0.0000 0.0000 22.7685 0.0000 0.0000
# 5 0.0000 0.0000 0.0000 0.0000 27.6159 0.0000
# 6 0.0000 0.0000 0.0000 0.0000 0.0000 30.3549
#
#
#
# Elastic Compliance Matrix: (Units=1/GPa)
#
#
# Indices 1 2 3 4 5 6 
#
# 1 0.022148 -0.016679 -0.005881 0.000000 0.000000 0.000000
# 2 -0.016679 0.041552 -0.007983 0.000000 0.000000 0.000000
# 3 -0.005881 -0.007983 0.018325 0.000000 0.000000 0.000000
# 4 0.000000 0.000000 0.000000 0.043920 0.000000 0.000000
# 5 0.000000 0.000000 0.000000 0.000000 0.036211 0.000000
# 6 0.000000 0.000000 0.000000 0.000000 0.000000 0.032944
#
#
# Mechanical properties :
#
#
# Convention : Reuss Voigt Hill
#
# Bulk Modulus (GPa) = 47.75695 56.23592 51.99643
# Shear Modulus (GPa) = 18.99939 22.55059 20.77499
#
# Velocity S-wave (km/s) = 3.20518 3.49190 3.35161
# Velocity P-wave (km/s) = 6.28652 6.83120 6.56451
#
# Compressibility (1/GPa) = 0.02093936
#
# Stress axis : x y z
#
# Youngs Moduli (GPa) = 45.14991 24.06622 54.57017
#
# Poissons Ratio (x) = 0.40140 0.32092
# Poissons Ratio (y) = 0.75306 0.43564
# Poissons Ratio (z) = 0.26552 0.19212
#
# Static dielectric constant tensor:
#      x y z
#    x 3.354570 0.000000 0.000000 
#    y 0.000000 3.118290 0.000000 
#    z 0.000000 0.000000 3.752580 
# 
# 
# High freq. dielectric constant tensor:
#      x y z
#    x 1.712640 0.000000 0.000000 
#    y 0.000000 1.690040 0.000000 
#    z 0.000000 0.000000 1.727840 
# 
# From -- ./inp_files/38408.got.cif
#   From: 2010.06.25/outbox.cif.g09.slc.cpg/sg71_20_cif.got.tgz:38408.got - 2010.06.28 04:59:45.
