data_PCOD8291962
_publ_section_title
;
Structure prediction by ZEFSAII (Michael W. Deem and Ramdas Pophale) SiO2 
 PCOD8291962
Probable space group: I M M M
;
_chemical_formula_sum "Si O2"
_cell_formula_units_Z 72
_cell_length_a 9.731977
_cell_length_b 23.623186
_cell_length_c 14.168823
_cell_angle_alpha 90.000000
_cell_angle_beta 90.000000
_cell_angle_gamma 90.000000
_cell_volume 3257.416698
_symmetry_space_group_name_H-M "I M M M"
_symmetry_group_IT_number 71
_symmetry_cell_setting 'orthorhombic'
loop_
_space_group_symop_operation_xyz
x,y,z
-x,-y,z
x,-y,-z
-x,y,-z
-x,-y,-z
x,y,-z
-x,y,z
x,-y,z
1/2+x,1/2+y,1/2+z
1/2-x,1/2-y,1/2+z
1/2+x,1/2-y,1/2-z
1/2-x,1/2+y,1/2-z
1/2-x,1/2-y,1/2-z
1/2+x,1/2+y,1/2-z
1/2-x,1/2+y,1/2+z
1/2+x,1/2-y,1/2+z
loop_
_atom_site_type_symbol
_atom_site_label
_atom_site_fract_x
_atom_site_fract_y
_atom_site_fract_z
Si Si1 0.500000 0.066288 0.602529
Si Si2 0.350444 0.657664 0.107055
Si Si3 0.343647 0.257294 0.388049
Si Si4 0.754933 0.933992 0.272446
Si Si5 0.160385 0.362463 0.390172
O O1 0.500000 0.096719 0.500000
O O2 0.630895 0.084949 0.660337
O O3 0.500000 0.000000 0.588535
O O4 0.500000 0.688162 0.105751
O O5 0.235576 0.701092 0.146593
O O6 0.370985 0.604617 0.179266
O O7 0.314707 0.637412 0.000000
O O8 0.347414 0.257778 0.500000
O O9 0.500000 0.259227 0.347368
O O10 0.254281 0.310736 0.353447
O O11 0.714338 0.917865 0.165570
O O12 0.794575 0.000000 0.275556
O O13 0.184467 0.375355 0.500000
O O14 0.000000 0.349986 0.369845
#
# Coordination Sequence:
#
# PCOD8291962 Si02
#       5
#     8  16  16  16  16
#     4   9  18  34  55  81 115 153 192 240 292 345
#     4  10  22  40  63  92 126 161 198 249 312 375
#     4   9  19  37  63  93 122 156 202 254 309 371
#     4  11  23  38  58  88 123 162 208 252 298 361
#     4  10  21  39  63  89 122 162 205 258 312 360
#
# _framework density 22.103404999999999
#
# number of rings (size 3 to 8) (size 9 to 14) (size 15 to 20)
#    0.000    2.111    1.111    1.333    1.556    6.667 
#    0.000    2.222    0.000    0.000    0.000    4.667 
#    0.000    0.000    0.000    0.000    0.000    0.000 
#
# Total GULP energy -446155.208806 kJ/mol
# GULP energy per Si atom -12393.200245 kJ/mol
# Density = 2.205310 g / cm^3
# Si number density = 22.103405 Si / 1000 Ang^3
#
#
#
# Elastic Constant Matrix: (Units=GPa)
#
#
# Indices 1 2 3 4 5 6 
#
# 1 118.7894 36.4852 28.3684 -0.0001 0.0000 0.0000
# 2 36.4852 120.7939 46.3609 -0.0002 0.0000 0.0000
# 3 28.3684 46.3609 95.7001 -0.0009 0.0002 0.0000
# 4 -0.0001 -0.0002 -0.0009 36.0726 0.0001 0.0000
# 5 0.0000 0.0000 0.0002 0.0001 13.8623 -0.0001
# 6 0.0000 0.0000 0.0000 0.0000 -0.0001 20.4611
#
#
#
# Elastic Compliance Matrix: (Units=1/GPa)
#
#
# Indices 1 2 3 4 5 6 
#
# 1 0.009513 -0.002200 -0.001754 0.000000 0.000000 0.000000
# 2 -0.002200 0.010678 -0.004521 0.000000 0.000000 0.000000
# 3 -0.001754 -0.004521 0.013159 0.000000 0.000000 0.000000
# 4 0.000000 0.000000 0.000000 0.027722 0.000000 0.000000
# 5 0.000000 0.000000 0.000000 0.000000 0.072138 0.000000
# 6 0.000000 0.000000 0.000000 0.000000 0.000000 0.048873
#
#
# Mechanical properties :
#
#
# Convention : Reuss Voigt Hill
#
# Bulk Modulus (GPa) = 60.97382 61.96805 61.47093
# Shear Modulus (GPa) = 24.44984 29.01713 26.73348
#
# Velocity S-wave (km/s) = 3.32950 3.62718 3.48152
# Velocity P-wave (km/s) = 6.51355 6.75561 6.63568
#
# Compressibility (1/GPa) = 0.01640048
#
# Stress axis : x y z
#
# Youngs Moduli (GPa) = 105.12044 93.64902 75.99189
#
# Poissons Ratio (x) = 0.20604 0.13330
# Poissons Ratio (y) = 0.23128 0.34354
# Poissons Ratio (z) = 0.18439 0.42336
#
# Static dielectric constant tensor:
#      x y z
#    x 4.200900 0.000000 0.000000 
#    y 0.000000 3.688380 0.000000 
#    z 0.000000 0.000000 3.916700 
# 
# 
# High freq. dielectric constant tensor:
#      x y z
#    x 1.875210 0.000000 0.000000 
#    y 0.000000 1.851650 0.000000 
#    z 0.000000 0.000000 1.870720 
# 
# From -- ./inp_files/31454.got.cif
#   From: 2010.06.25/outbox.cif.g09.slc.cpg/sg71_16_cif.got.tgz:31454.got - 2010.06.28 04:59:45.
