data_PCOD8291469
_publ_section_title
;
Structure prediction by ZEFSAII (Michael W. Deem and Ramdas Pophale) SiO2 
 PCOD8291469
Probable space group: I M M M
;
_chemical_formula_sum "Si O2"
_cell_formula_units_Z 64
_cell_length_a 9.378534
_cell_length_b 40.500478
_cell_length_c 9.218777
_cell_angle_alpha 90.000000
_cell_angle_beta 90.000000
_cell_angle_gamma 90.000000
_cell_volume 3501.615175
_symmetry_space_group_name_H-M "I M M M"
_symmetry_group_IT_number 71
_symmetry_cell_setting 'orthorhombic'
loop_
_space_group_symop_operation_xyz
x,y,z
-x,-y,z
x,-y,-z
-x,y,-z
-x,-y,-z
x,y,-z
-x,y,z
x,-y,z
1/2+x,1/2+y,1/2+z
1/2-x,1/2-y,1/2+z
1/2+x,1/2-y,1/2-z
1/2-x,1/2+y,1/2-z
1/2-x,1/2-y,1/2-z
1/2+x,1/2+y,1/2-z
1/2-x,1/2+y,1/2+z
1/2+x,1/2-y,1/2+z
loop_
_atom_site_type_symbol
_atom_site_label
_atom_site_fract_x
_atom_site_fract_y
_atom_site_fract_z
Si Si1 0.334711 0.155779 0.167522
Si Si2 0.336586 0.592006 0.670584
Si Si3 0.338281 0.961999 0.668453
Si Si4 0.333041 0.221599 0.331917
O O1 0.500000 0.147236 0.190266
O O2 0.245352 0.124623 0.224223
O O3 0.287194 0.186792 0.263395
O O4 0.300895 0.163974 0.000000
O O5 0.319360 0.587867 0.500000
O O6 0.500000 0.595365 0.718281
O O7 0.271392 0.559697 0.742200
O O8 0.320042 0.953830 0.500000
O O9 0.500000 0.954266 0.717735
O O10 0.301325 0.000000 0.699799
O O11 0.289856 0.221604 0.500000
O O12 0.500000 0.227857 0.309739
O O13 0.250000 0.250000 0.250000
#
# Coordination Sequence:
#
# PCOD8291469 Si02
#       4
#    16  16  16  16
#     4   9  18  34  54  74 101 139 179 216 255 303
#     4  10  21  35  52  78 110 140 171 211 260 311
#     4   9  19  36  56  77 102 135 176 219 261 307
#     4  10  21  36  55  80 108 138 173 214 260 308
#
# _framework density 18.277280000000001
#
# number of rings (size 3 to 8) (size 9 to 14) (size 15 to 20)
#    0.000    2.500    0.000    2.250    0.000    6.500 
#    0.000    8.750    0.000    0.000    0.000    0.000 
#    0.000    0.000    0.000    0.000    0.000    0.000 
#
# Total GULP energy -396906.285580 kJ/mol
# GULP energy per Si atom -12403.321424 kJ/mol
# Density = 1.823568 g / cm^3
# Si number density = 18.277280 Si / 1000 Ang^3
#
#
#
# Elastic Constant Matrix: (Units=GPa)
#
#
# Indices 1 2 3 4 5 6 
#
# 1 98.9323 81.9240 49.2571 0.0009 -0.0005 -0.0004
# 2 81.9240 140.8846 64.4870 0.0169 0.0032 0.0024
# 3 49.2571 64.4870 72.7067 0.0005 -0.0007 -0.0014
# 4 0.0009 0.0169 0.0005 39.1921 0.0015 0.0019
# 5 -0.0005 0.0032 -0.0007 0.0015 28.7849 0.0017
# 6 -0.0004 0.0024 -0.0014 0.0019 0.0017 38.5714
#
#
#
# Elastic Compliance Matrix: (Units=1/GPa)
#
#
# Indices 1 2 3 4 5 6 
#
# 1 0.020793 -0.009500 -0.005661 0.000004 0.000001 0.000001
# 2 -0.009500 0.016290 -0.008012 -0.000007 -0.000002 -0.000001
# 3 -0.005661 -0.008012 0.024695 0.000003 0.000001 0.000001
# 4 0.000004 -0.000007 0.000003 0.025515 -0.000001 -0.000001
# 5 0.000001 -0.000002 0.000001 -0.000001 0.034740 -0.000002
# 6 0.000001 -0.000001 0.000001 -0.000001 -0.000002 0.025926
#
#
# Mechanical properties :
#
#
# Convention : Reuss Voigt Hill
#
# Bulk Modulus (GPa) = 64.79942 78.20667 71.50304
# Shear Modulus (GPa) = 25.06901 29.10005 27.08453
#
# Velocity S-wave (km/s) = 3.70752 3.99450 3.85368
# Velocity P-wave (km/s) = 7.33881 8.00978 7.68162
#
# Compressibility (1/GPa) = 0.01543224
#
# Stress axis : x y z
#
# Youngs Moduli (GPa) = 48.09260 61.38908 40.49373
#
# Poissons Ratio (x) = 0.58320 0.22923
# Poissons Ratio (y) = 0.45688 0.32443
# Poissons Ratio (z) = 0.27225 0.49184
#
# Static dielectric constant tensor:
#      x y z
#    x 3.381880 0.000000 0.000000 
#    y 0.000000 3.413350 -0.000010 
#    z 0.000000 -0.000010 3.330420 
# 
# 
# High freq. dielectric constant tensor:
#      x y z
#    x 1.706710 0.000000 0.000000 
#    y 0.000000 1.718220 0.000000 
#    z 0.000000 0.000000 1.705640 
# 
# From -- ./inp_files/18471.got.cif
#   From: 2010.06.25/outbox.cif.g09.slc.cpg/sg71_10_cif.got.tgz:18471.got - 2010.06.28 04:59:45.
