data_PCOD8291758
_publ_section_title
;
Structure prediction by ZEFSAII (Michael W. Deem and Ramdas Pophale) SiO2 
 PCOD8291758
Probable space group: I M M M
;
_chemical_formula_sum "Si O2"
_cell_formula_units_Z 72
_cell_length_a 28.554703
_cell_length_b 14.705913
_cell_length_c 8.827727
_cell_angle_alpha 90.000000
_cell_angle_beta 90.000000
_cell_angle_gamma 90.000000
_cell_volume 3706.965411
_symmetry_space_group_name_H-M "I M M M"
_symmetry_group_IT_number 71
_symmetry_cell_setting 'orthorhombic'
loop_
_space_group_symop_operation_xyz
x,y,z
-x,-y,z
x,-y,-z
-x,y,-z
-x,-y,-z
x,y,-z
-x,y,z
x,-y,z
1/2+x,1/2+y,1/2+z
1/2-x,1/2-y,1/2+z
1/2+x,1/2-y,1/2-z
1/2-x,1/2+y,1/2-z
1/2-x,1/2-y,1/2-z
1/2+x,1/2+y,1/2-z
1/2-x,1/2+y,1/2+z
1/2+x,1/2-y,1/2+z
loop_
_atom_site_type_symbol
_atom_site_label
_atom_site_fract_x
_atom_site_fract_y
_atom_site_fract_z
Si Si1 0.051068 0.107972 0.830986
Si Si2 0.445666 0.000000 0.679879
Si Si3 0.300593 0.247788 0.677372
Si Si4 0.642045 0.606736 0.172136
Si Si5 0.632493 0.100367 0.171853
O O1 0.089800 0.142078 0.712348
O O2 0.000000 0.145538 0.781383
O O3 0.049731 0.000000 0.832337
O O4 0.063493 0.143313 0.000000
O O5 0.418565 0.089870 0.745524
O O6 0.500000 0.000000 0.732418
O O7 0.441912 0.000000 0.500000
O O8 0.295717 0.232778 0.500000
O O9 0.250000 0.250000 0.750000
O O10 0.322253 0.345798 0.714248
O O11 0.333377 0.168894 0.743072
O O12 0.647079 0.500000 0.198684
O O13 0.653011 0.634333 0.000000
O O14 0.656613 0.000000 0.172708
O O15 0.624718 0.134755 0.000000
#
# Coordination Sequence:
#
# PCOD8291758 Si02
#       5
#    16   8  16  16  16
#     4   8  14  27  49  76 107 144 183 222 269 325
#     4   9  17  33  61  95 129 163 199 243 302 367
#     4  12  25  41  62  84 114 152 197 250 302 359
#     4  10  21  37  57  83 117 153 193 240 289 345
#     4   9  20  38  62  89 121 156 195 244 300 363
#
# _framework density 19.422893999999999
#
# number of rings (size 3 to 8) (size 9 to 14) (size 15 to 20)
#    0.667    1.667    0.000    4.000    0.000    3.556 
#    0.000    3.333    0.000    6.667    0.000    0.000 
#    0.000    0.000    0.000    0.000    0.000    0.000 
#
# Total GULP energy -446116.746292 kJ/mol
# GULP energy per Si atom -12392.131841 kJ/mol
# Density = 1.937869 g / cm^3
# Si number density = 19.422894 Si / 1000 Ang^3
#
#
#
# Elastic Constant Matrix: (Units=GPa)
#
#
# Indices 1 2 3 4 5 6 
#
# 1 163.4842 52.5251 75.3149 0.0000 0.0000 0.0000
# 2 52.5251 58.5311 43.4163 0.0000 0.0000 0.0000
# 3 75.3149 43.4163 147.2472 0.0000 0.0000 0.0000
# 4 0.0000 0.0000 0.0000 29.2861 0.0000 0.0000
# 5 0.0000 0.0000 0.0000 0.0000 38.9760 0.0000
# 6 0.0000 0.0000 0.0000 0.0000 0.0000 30.8248
#
#
#
# Elastic Compliance Matrix: (Units=1/GPa)
#
#
# Indices 1 2 3 4 5 6 
#
# 1 0.009536 -0.006323 -0.003014 0.000000 0.000000 0.000000
# 2 -0.006323 0.026059 -0.004450 0.000000 0.000000 0.000000
# 3 -0.003014 -0.004450 0.009645 0.000000 0.000000 0.000000
# 4 0.000000 0.000000 0.000000 0.034146 0.000000 0.000000
# 5 0.000000 0.000000 0.000000 0.000000 0.025657 0.000000
# 6 0.000000 0.000000 0.000000 0.000000 0.000000 0.032441
#
#
# Mechanical properties :
#
#
# Convention : Reuss Voigt Hill
#
# Bulk Modulus (GPa) = 56.59693 79.08614 67.84153
# Shear Modulus (GPa) = 29.24899 33.01779 31.13339
#
# Velocity S-wave (km/s) = 3.88481 4.12751 4.00799
# Velocity P-wave (km/s) = 7.02316 7.97004 7.51154
#
# Compressibility (1/GPa) = 0.01766880
#
# Stress axis : x y z
#
# Youngs Moduli (GPa) = 104.86100 38.37382 103.68375
#
# Poissons Ratio (x) = 0.24262 0.31245
# Poissons Ratio (y) = 0.66299 0.46137
# Poissons Ratio (z) = 0.31600 0.17076
#
# Static dielectric constant tensor:
#      x y z
#    x 3.777440 0.000000 0.000000 
#    y 0.000000 3.338320 0.000000 
#    z 0.000000 0.000000 3.651990 
# 
# 
# High freq. dielectric constant tensor:
#      x y z
#    x 1.756640 0.000000 0.000000 
#    y 0.000000 1.731630 0.000000 
#    z 0.000000 0.000000 1.765930 
# 
# From -- ./inp_files/16371.got.cif
#   From: 2010.06.25/outbox.cif.g09.slc.cpg/sg71_9_cif.got.tgz:16371.got - 2010.06.28 04:59:45.
