data_PCOD8291507
_publ_section_title
;
Structure prediction by ZEFSAII (Michael W. Deem and Ramdas Pophale) SiO2 
 PCOD8291507
Probable space group: I M M M
;
_chemical_formula_sum "Si O2"
_cell_formula_units_Z 92
_cell_length_a 7.897816
_cell_length_b 28.287974
_cell_length_c 20.949407
_cell_angle_alpha 90.000000
_cell_angle_beta 90.000000
_cell_angle_gamma 90.000000
_cell_volume 4680.374342
_symmetry_space_group_name_H-M "I M M M"
_symmetry_group_IT_number 71
_symmetry_cell_setting 'orthorhombic'
loop_
_space_group_symop_operation_xyz
x,y,z
-x,-y,z
x,-y,-z
-x,y,-z
-x,-y,-z
x,y,-z
-x,y,z
x,-y,z
1/2+x,1/2+y,1/2+z
1/2-x,1/2-y,1/2+z
1/2+x,1/2-y,1/2-z
1/2-x,1/2+y,1/2-z
1/2-x,1/2-y,1/2-z
1/2+x,1/2+y,1/2-z
1/2-x,1/2+y,1/2+z
1/2+x,1/2-y,1/2+z
loop_
_atom_site_type_symbol
_atom_site_label
_atom_site_fract_x
_atom_site_fract_y
_atom_site_fract_z
Si Si1 0.312305 0.644788 0.427775
Si Si2 0.692763 0.320519 0.197722
Si Si3 0.700522 0.053675 0.500000
Si Si4 0.302688 0.278027 0.329179
Si Si5 0.305536 0.916183 0.637421
Si Si6 0.500000 0.922426 0.072578
Si Si7 0.190075 0.000000 0.276272
Si Si8 0.000000 0.500000 0.678736
O O1 0.316389 0.661378 0.500000
O O2 0.500000 0.626035 0.406558
O O3 0.260886 0.691528 0.390587
O O4 0.172440 0.605621 0.416572
O O5 0.500000 0.337486 0.201520
O O6 0.766455 0.307645 0.267993
O O7 0.709138 0.271695 0.158414
O O8 0.793550 0.362948 0.164240
O O9 0.500000 0.053137 0.500000
O O10 0.764201 0.080623 0.564280
O O11 0.771107 0.000000 0.500000
O O12 0.500000 0.267632 0.318794
O O13 0.500000 0.932215 0.639170
O O14 0.204925 0.952934 0.681215
O O15 0.500000 0.956962 0.131005
O O16 0.500000 0.943900 0.000000
O O17 0.330344 0.000000 0.220806
O O18 0.000000 0.000000 0.246478
#
# Coordination Sequence:
#
# PCOD8291507 Si02
#       8
#    16  16   8  16  16   8   8   4
#     4   9  19  37  62  90 119 157 204 247 298 364
#     4  10  21  35  55  85 118 152 196 249 307 361
#     4   9  18  36  64  86 112 160 210 250 300 362
#     4   9  19  36  56  82 114 155 196 245 305 365
#     4  11  21  40  63  87 120 161 206 255 306 368
#     4  10  23  42  66  92 123 163 206 250 305 369
#     4  12  26  42  62  94 126 157 209 256 307 367
#     4  12  27  44  62  99 126 166 198 256 312 365
#
# _framework density 19.656548000000001
#
# number of rings (size 3 to 8) (size 9 to 14) (size 15 to 20)
#    0.000    2.000    1.739    1.174    3.652    1.391 
#    1.565    2.174    0.000    2.609    0.000    0.000 
#    0.000    0.000    0.000    0.000    0.000    0.000 
#
# Total GULP energy -570168.853354 kJ/mol
# GULP energy per Si atom -12394.975073 kJ/mol
# Density = 1.961181 g / cm^3
# Si number density = 19.656548 Si / 1000 Ang^3
#
#
#
# Elastic Constant Matrix: (Units=GPa)
#
#
# Indices 1 2 3 4 5 6 
#
# 1 84.1458 30.2824 51.1752 0.0000 0.0000 0.0000
# 2 30.2824 126.8143 83.8684 0.0000 0.0000 0.0000
# 3 51.1752 83.8684 118.5400 0.0001 0.0000 0.0001
# 4 0.0000 0.0000 0.0001 41.4036 0.0000 0.0000
# 5 0.0000 0.0000 0.0000 0.0000 20.9673 0.0000
# 6 0.0000 0.0000 0.0001 0.0000 0.0000 9.9377
#
#
#
# Elastic Compliance Matrix: (Units=1/GPa)
#
#
# Indices 1 2 3 4 5 6 
#
# 1 0.016252 0.001427 -0.008026 0.000000 0.000000 0.000000
# 2 0.001427 0.014945 -0.011190 0.000000 0.000000 0.000000
# 3 -0.008026 -0.011190 0.019818 0.000000 0.000000 0.000000
# 4 0.000000 0.000000 0.000000 0.024152 0.000000 0.000000
# 5 0.000000 0.000000 0.000000 0.000000 0.047693 0.000000
# 6 0.000000 0.000000 0.000000 0.000000 0.000000 0.100627
#
#
# Mechanical properties :
#
#
# Convention : Reuss Voigt Hill
#
# Bulk Modulus (GPa) = 64.77796 73.35022 69.06409
# Shear Modulus (GPa) = 18.92434 25.40668 22.16551
#
# Velocity S-wave (km/s) = 3.10619 3.59908 3.36168
# Velocity P-wave (km/s) = 6.77429 7.39379 7.09081
#
# Compressibility (1/GPa) = 0.01543735
#
# Stress axis : x y z
#
# Youngs Moduli (GPa) = 61.53262 66.91081 50.45988
#
# Poissons Ratio (x) = -0.09548 0.40497
# Poissons Ratio (y) = -0.08780 0.56464
# Poissons Ratio (z) = 0.49383 0.74873
#
# Static dielectric constant tensor:
#      x y z
#    x 3.926430 0.000000 0.000000 
#    y 0.000000 3.323030 0.000000 
#    z 0.000000 0.000000 3.763870 
# 
# 
# High freq. dielectric constant tensor:
#      x y z
#    x 1.768210 0.000000 0.000000 
#    y 0.000000 1.757590 0.000000 
#    z 0.000000 0.000000 1.767750 
# 
# From -- ./inp_files/50860.got.cif
#   From: 2010.06.25/outbox.cif.g09.slc.cpg/sg71_26_cif.got.tgz:50860.got - 2010.06.28 04:59:45.
