data_PCOD8291441
_publ_section_title
;
Structure prediction by ZEFSAII (Michael W. Deem and Ramdas Pophale) SiO2 
 PCOD8291441
Probable space group: I M M M
;
_chemical_formula_sum "Si O2"
_cell_formula_units_Z 96
_cell_length_a 9.141812
_cell_length_b 20.340076
_cell_length_c 27.767588
_cell_angle_alpha 90.000000
_cell_angle_beta 90.000000
_cell_angle_gamma 90.000000
_cell_volume 5163.248340
_symmetry_space_group_name_H-M "I M M M"
_symmetry_group_IT_number 71
_symmetry_cell_setting 'orthorhombic'
loop_
_space_group_symop_operation_xyz
x,y,z
-x,-y,z
x,-y,-z
-x,y,-z
-x,-y,-z
x,y,-z
-x,y,z
x,-y,z
1/2+x,1/2+y,1/2+z
1/2-x,1/2-y,1/2+z
1/2+x,1/2-y,1/2-z
1/2-x,1/2+y,1/2-z
1/2-x,1/2-y,1/2-z
1/2+x,1/2+y,1/2-z
1/2-x,1/2+y,1/2+z
1/2+x,1/2-y,1/2+z
loop_
_atom_site_type_symbol
_atom_site_label
_atom_site_fract_x
_atom_site_fract_y
_atom_site_fract_z
Si Si1 0.326178 0.572268 0.879974
Si Si2 0.171618 0.075122 0.054265
Si Si3 0.174518 0.188042 0.554232
Si Si4 0.328538 0.808148 0.778302
Si Si5 0.670557 0.185025 0.889651
Si Si6 0.830330 0.923993 0.270825
O O1 0.500000 0.571414 0.882682
O O2 0.265831 0.500000 0.894330
O O3 0.260492 0.625937 0.916503
O O4 0.280027 0.589694 0.825583
O O5 0.251081 0.118840 0.093869
O O6 0.000000 0.084935 0.060164
O O7 0.215631 0.000000 0.064495
O O8 0.220040 0.094830 0.000000
O O9 0.234923 0.184712 0.500000
O O10 0.231802 0.254525 0.578842
O O11 0.000000 0.186034 0.555344
O O12 0.500000 0.804775 0.767323
O O13 0.250000 0.750000 0.750000
O O14 0.294932 0.798869 0.834474
O O15 0.267938 0.879187 0.763313
O O16 0.500000 0.174685 0.898464
O O17 0.000000 0.905145 0.263978
O O18 0.804105 0.000000 0.257045
#
# Coordination Sequence:
#
# PCOD8291441 Si02
#       6
#    16  16  16  16  16  16
#     4   8  14  26  45  69  98 131 163 195 237 292
#     4   9  19  36  56  78 105 136 170 210 256 308
#     4   9  16  26  43  68  97 127 160 200 242 286
#     4  11  23  37  54  76 104 138 177 223 270 317
#     4  10  21  35  51  73 102 136 172 212 260 312
#     4   9  18  34  55  76 102 138 173 207 256 315
#
# _framework density 18.592946000000001
#
# number of rings (size 3 to 8) (size 9 to 14) (size 15 to 20)
#    0.000    2.667    0.000    3.500    0.000    6.667 
#    0.000    5.833    0.000    0.000    0.000    0.000 
#    0.000    0.000    0.000   12.167    0.000   11.667 
#
# Total GULP energy -595180.761784 kJ/mol
# GULP energy per Si atom -12399.599204 kJ/mol
# Density = 1.855063 g / cm^3
# Si number density = 18.592946 Si / 1000 Ang^3
#
#
#
# Elastic Constant Matrix: (Units=GPa)
#
#
# Indices 1 2 3 4 5 6 
#
# 1 47.2953 41.4392 41.2278 0.0000 0.0000 0.0000
# 2 41.4392 117.4692 55.3131 0.0000 0.0000 0.0000
# 3 41.2278 55.3131 84.7252 0.0000 0.0000 0.0000
# 4 0.0000 0.0000 0.0000 41.8352 0.0000 0.0000
# 5 0.0000 0.0000 0.0000 0.0000 24.5156 0.0000
# 6 0.0000 0.0000 0.0000 0.0000 0.0000 25.2934
#
#
#
# Elastic Compliance Matrix: (Units=1/GPa)
#
#
# Indices 1 2 3 4 5 6 
#
# 1 0.040583 -0.007245 -0.015018 0.000000 0.000000 0.000000
# 2 -0.007245 0.013585 -0.005344 0.000000 0.000000 0.000000
# 3 -0.015018 -0.005344 0.022599 0.000000 0.000000 0.000000
# 4 0.000000 0.000000 0.000000 0.023903 0.000000 0.000000
# 5 0.000000 0.000000 0.000000 0.000000 0.040790 0.000000
# 6 0.000000 0.000000 0.000000 0.000000 0.000000 0.039536
#
#
# Mechanical properties :
#
#
# Convention : Reuss Voigt Hill
#
# Bulk Modulus (GPa) = 46.39467 58.38333 52.38900
# Shear Modulus (GPa) = 20.54286 25.76283 23.15284
#
# Velocity S-wave (km/s) = 3.32757 3.72644 3.53264
# Velocity P-wave (km/s) = 6.30640 7.06994 6.69906
#
# Compressibility (1/GPa) = 0.02155420
#
# Stress axis : x y z
#
# Youngs Moduli (GPa) = 24.64098 73.61260 44.24915
#
# Poissons Ratio (x) = 0.53329 0.66454
# Poissons Ratio (y) = 0.17851 0.23645
# Poissons Ratio (z) = 0.37006 0.39335
#
# Static dielectric constant tensor:
#      x y z
#    x 3.001460 0.000000 0.000000 
#    y 0.000000 3.634380 0.000000 
#    z 0.000000 0.000000 3.518690 
# 
# 
# High freq. dielectric constant tensor:
#      x y z
#    x 1.678350 0.000000 0.000000 
#    y 0.000000 1.736960 0.000000 
#    z 0.000000 0.000000 1.726620 
# 
# From -- ./inp_files/10906.got.cif
#   From: 2010.06.25/outbox.cif.g09.slc.cpg/sg71_6_cif.got.tgz:10906.got - 2010.06.28 04:59:45.
