data_PCOD8291128
_publ_section_title
;
Structure prediction by ZEFSAII (Michael W. Deem and Ramdas Pophale) SiO2 
 PCOD8291128
Probable space group: I M M M
;
_chemical_formula_sum "Si O2"
_cell_formula_units_Z 56
_cell_length_a 18.411862
_cell_length_b 21.363154
_cell_length_c 7.794848
_cell_angle_alpha 90.000000
_cell_angle_beta 90.000000
_cell_angle_gamma 90.000000
_cell_volume 3065.989994
_symmetry_space_group_name_H-M "I M M M"
_symmetry_group_IT_number 71
_symmetry_cell_setting 'orthorhombic'
loop_
_space_group_symop_operation_xyz
x,y,z
-x,-y,z
x,-y,-z
-x,y,-z
-x,-y,-z
x,y,-z
-x,y,z
x,-y,z
1/2+x,1/2+y,1/2+z
1/2-x,1/2-y,1/2+z
1/2+x,1/2-y,1/2-z
1/2-x,1/2+y,1/2-z
1/2-x,1/2-y,1/2-z
1/2+x,1/2+y,1/2-z
1/2-x,1/2+y,1/2+z
1/2+x,1/2-y,1/2+z
loop_
_atom_site_type_symbol
_atom_site_label
_atom_site_fract_x
_atom_site_fract_y
_atom_site_fract_z
Si Si1 0.914606 0.765083 0.500000
Si Si2 0.919317 0.146805 0.188116
Si Si3 0.337251 0.135686 0.000000
Si Si4 0.314157 0.572552 0.500000
Si Si5 0.918011 0.426694 0.807489
O O1 0.894397 0.804730 0.668006
O O2 0.858491 0.708107 0.500000
O O3 0.000000 0.744661 0.500000
O O4 0.862983 0.088188 0.170433
O O5 0.000000 0.121065 0.233399
O O6 0.920354 0.180906 0.000000
O O7 0.367223 0.106497 0.173299
O O8 0.252089 0.121459 0.000000
O O9 0.289537 0.500000 0.500000
O O10 0.914482 0.500000 0.773778
O O11 0.000000 0.402495 0.781259
O O12 0.891457 0.410798 0.000000
#
# Coordination Sequence:
#
# PCOD8291128 Si02
#       5
#     8  16   8   8  16
#     4  10  20  36  58  84 110 145 189 227 275 332
#     4   8  18  38  60  81 108 140 185 240 278 321
#     4  12  22  32  52  83 121 148 175 220 276 340
#     4  10  21  38  58  83 113 149 186 224 284 339
#     4   9  18  33  51  72 103 148 199 239 268 306
#
# _framework density 18.264899
#
# number of rings (size 3 to 8) (size 9 to 14) (size 15 to 20)
#    0.857    1.714    0.000    3.429    0.000    4.571 
#    2.571    3.571    0.000    2.571    0.000    0.000 
#    0.000    0.000    0.000    0.000    0.000    0.000 
#
# Total GULP energy -346873.314647 kJ/mol
# GULP energy per Si atom -12388.332666 kJ/mol
# Density = 1.822333 g / cm^3
# Si number density = 18.264899 Si / 1000 Ang^3
#
#
#
# Elastic Constant Matrix: (Units=GPa)
#
#
# Indices 1 2 3 4 5 6 
#
# 1 92.2153 55.4542 28.1700 0.0000 0.0000 0.0000
# 2 55.4542 78.1398 39.2386 0.0000 0.0000 0.0000
# 3 28.1700 39.2386 101.0751 0.0000 0.0000 0.0000
# 4 0.0000 0.0000 0.0000 40.5701 0.0000 0.0000
# 5 0.0000 0.0000 0.0000 0.0000 16.4592 0.0000
# 6 0.0000 0.0000 0.0000 0.0000 0.0000 36.3929
#
#
#
# Elastic Compliance Matrix: (Units=1/GPa)
#
#
# Indices 1 2 3 4 5 6 
#
# 1 0.018918 -0.013388 -0.000075 0.000000 0.000000 0.000000
# 2 -0.013388 0.025371 -0.006118 0.000000 0.000000 0.000000
# 3 -0.000075 -0.006118 0.012290 0.000000 0.000000 0.000000
# 4 0.000000 0.000000 0.000000 0.024649 0.000000 0.000000
# 5 0.000000 0.000000 0.000000 0.000000 0.060756 0.000000
# 6 0.000000 0.000000 0.000000 0.000000 0.000000 0.027478
#
#
# Mechanical properties :
#
#
# Convention : Reuss Voigt Hill
#
# Bulk Modulus (GPa) = 57.41735 57.46175 57.43955
# Shear Modulus (GPa) = 23.31765 28.58892 25.95328
#
# Velocity S-wave (km/s) = 3.57688 3.96060 3.77362
# Velocity P-wave (km/s) = 6.96871 7.24180 7.10657
#
# Compressibility (1/GPa) = 0.01741634
#
# Stress axis : x y z
#
# Youngs Moduli (GPa) = 52.85938 39.41499 81.36905
#
# Poissons Ratio (x) = 0.52769 0.00611
# Poissons Ratio (y) = 0.70768 0.49782
# Poissons Ratio (z) = 0.00397 0.24114
#
# Static dielectric constant tensor:
#      x y z
#    x 3.366290 0.000000 0.000000 
#    y 0.000000 3.060030 0.000000 
#    z 0.000000 0.000000 3.346510 
# 
# 
# High freq. dielectric constant tensor:
#      x y z
#    x 1.703320 0.000000 0.000000 
#    y 0.000000 1.678020 0.000000 
#    z 0.000000 0.000000 1.713190 
# 
# From -- ./inp_files/7420.got.cif
#   From: 2010.06.25/outbox.cif.g09.slc.cpg/sg71_4_cif.got.tgz:7420.got - 2010.06.28 04:59:45.
