data_PCOD8291851
_publ_section_title
;
Structure prediction by ZEFSAII (Michael W. Deem and Ramdas Pophale) SiO2 
 PCOD8291851
Probable space group: I M M M
;
_chemical_formula_sum "Si O2"
_cell_formula_units_Z 88
_cell_length_a 9.022046
_cell_length_b 25.447558
_cell_length_c 20.329751
_cell_angle_alpha 90.000000
_cell_angle_beta 90.000000
_cell_angle_gamma 90.000000
_cell_volume 4667.487992
_symmetry_space_group_name_H-M "I M M M"
_symmetry_group_IT_number 71
_symmetry_cell_setting 'orthorhombic'
loop_
_space_group_symop_operation_xyz
x,y,z
-x,-y,z
x,-y,-z
-x,y,-z
-x,-y,-z
x,y,-z
-x,y,z
x,-y,z
1/2+x,1/2+y,1/2+z
1/2-x,1/2-y,1/2+z
1/2+x,1/2-y,1/2-z
1/2-x,1/2+y,1/2-z
1/2-x,1/2-y,1/2-z
1/2+x,1/2+y,1/2-z
1/2-x,1/2+y,1/2+z
1/2+x,1/2-y,1/2+z
loop_
_atom_site_type_symbol
_atom_site_label
_atom_site_fract_x
_atom_site_fract_y
_atom_site_fract_z
Si Si1 0.830429 0.698975 0.315607
Si Si2 0.827559 0.603759 0.923925
Si Si3 0.325448 0.198795 0.333593
Si Si4 0.325711 0.500000 0.127549
Si Si5 0.325200 0.500000 0.280706
Si Si6 0.836522 0.938995 0.000000
Si Si7 0.828172 0.585101 0.632514
O O1 0.741307 0.744681 0.353603
O O2 0.773863 0.688275 0.241315
O O3 0.806206 0.646265 0.355437
O O4 0.000000 0.716860 0.313390
O O5 0.764800 0.652143 0.880198
O O6 0.740157 0.551258 0.906644
O O7 0.000000 0.593715 0.908529
O O8 0.802106 0.618250 0.000000
O O9 0.500000 0.201989 0.341762
O O10 0.500000 0.500000 0.116057
O O11 0.284693 0.500000 0.204219
O O12 0.500000 0.500000 0.294016
O O13 0.255848 0.552084 0.312049
O O14 0.740944 0.924014 0.937735
O O15 0.000000 0.911627 0.000000
O O16 0.864440 0.000000 0.000000
O O17 0.000000 0.568460 0.633166
#
# Coordination Sequence:
#
# PCOD8291851 Si02
#       7
#    16  16  16   8   8   8  16
#     4   9  19  35  56  83 111 142 183 231 279 326
#     4  10  21  38  59  82 112 148 187 230 276 332
#     4   9  18  35  58  82 111 146 184 227 276 330
#     4  11  24  38  56  85 116 147 184 228 279 334
#     4  11  23  37  55  83 116 145 183 234 281 329
#     4  11  23  39  57  79 114 152 188 231 280 333
#     4  11  22  37  59  84 112 148 189 231 278 336
#
# _framework density 18.853825000000001
#
# number of rings (size 3 to 8) (size 9 to 14) (size 15 to 20)
#    0.000    1.909    0.909    2.727    0.000    6.909 
#    1.636    3.636    0.000    0.000    0.000    0.000 
#    0.000    0.000    0.000    0.000    0.000    0.000 
#
# Total GULP energy -545665.576481 kJ/mol
# GULP energy per Si atom -12401.490375 kJ/mol
# Density = 1.881091 g / cm^3
# Si number density = 18.853825 Si / 1000 Ang^3
#
#
#
# Elastic Constant Matrix: (Units=GPa)
#
#
# Indices 1 2 3 4 5 6 
#
# 1 74.8355 48.5248 42.2014 0.0000 0.0000 0.0000
# 2 48.5248 129.2658 57.3684 0.0000 0.0000 0.0000
# 3 42.2014 57.3684 102.1661 0.0002 0.0000 0.0000
# 4 0.0000 0.0000 0.0002 22.1582 0.0000 0.0000
# 5 0.0000 0.0000 0.0000 0.0000 30.6903 0.0000
# 6 0.0000 0.0000 0.0000 0.0000 0.0000 35.6402
#
#
#
# Elastic Compliance Matrix: (Units=1/GPa)
#
#
# Indices 1 2 3 4 5 6 
#
# 1 0.019588 -0.005011 -0.005277 0.000000 0.000000 0.000000
# 2 -0.005011 0.011586 -0.004436 0.000000 0.000000 0.000000
# 3 -0.005277 -0.004436 0.014459 0.000000 0.000000 0.000000
# 4 0.000000 0.000000 0.000000 0.045130 0.000000 0.000000
# 5 0.000000 0.000000 0.000000 0.000000 0.032584 0.000000
# 6 0.000000 0.000000 0.000000 0.000000 0.000000 0.028058
#
#
# Mechanical properties :
#
#
# Convention : Reuss Voigt Hill
#
# Bulk Modulus (GPa) = 61.78906 66.93964 64.36435
# Shear Modulus (GPa) = 26.84613 28.24259 27.54436
#
# Velocity S-wave (km/s) = 3.77757 3.87457 3.82637
# Velocity P-wave (km/s) = 7.20212 7.45641 7.33037
#
# Compressibility (1/GPa) = 0.01618409
#
# Stress axis : x y z
#
# Youngs Moduli (GPa) = 51.05208 86.31388 69.16281
#
# Poissons Ratio (x) = 0.43251 0.36500
# Poissons Ratio (y) = 0.25582 0.30679
# Poissons Ratio (z) = 0.26942 0.38286
#
# Static dielectric constant tensor:
#      x y z
#    x 3.521880 0.000000 0.000000 
#    y 0.000000 3.585050 0.000000 
#    z 0.000000 0.000000 3.589350 
# 
# 
# High freq. dielectric constant tensor:
#      x y z
#    x 1.735100 0.000000 0.000000 
#    y 0.000000 1.739860 0.000000 
#    z 0.000000 0.000000 1.733270 
# 
# From -- ./inp_files/50577.got.cif
#   From: 2010.06.25/outbox.cif.g09.slc.cpg/sg71_26_cif.got.tgz:50577.got - 2010.06.28 04:59:45.
