data_PCOD8291205
_publ_section_title
;
Structure prediction by ZEFSAII (Michael W. Deem and Ramdas Pophale) SiO2 
 PCOD8291205
Probable space group: I M M M
;
_chemical_formula_sum "Si O2"
_cell_formula_units_Z 72
_cell_length_a 23.669268
_cell_length_b 8.750955
_cell_length_c 17.654752
_cell_angle_alpha 90.000000
_cell_angle_beta 90.000000
_cell_angle_gamma 90.000000
_cell_volume 3656.805816
_symmetry_space_group_name_H-M "I M M M"
_symmetry_group_IT_number 71
_symmetry_cell_setting 'orthorhombic'
loop_
_space_group_symop_operation_xyz
x,y,z
-x,-y,z
x,-y,-z
-x,y,-z
-x,-y,-z
x,y,-z
-x,y,z
x,-y,z
1/2+x,1/2+y,1/2+z
1/2-x,1/2-y,1/2+z
1/2+x,1/2-y,1/2-z
1/2-x,1/2+y,1/2-z
1/2-x,1/2-y,1/2-z
1/2+x,1/2+y,1/2-z
1/2-x,1/2+y,1/2+z
1/2+x,1/2-y,1/2+z
loop_
_atom_site_type_symbol
_atom_site_label
_atom_site_fract_x
_atom_site_fract_y
_atom_site_fract_z
Si Si1 0.630965 0.819470 0.643945
Si Si2 0.752463 0.819977 0.832544
Si Si3 0.434809 0.820326 0.795546
Si Si4 0.354139 0.321928 0.087875
Si Si5 0.562098 0.181379 0.500000
O O1 0.689379 0.732708 0.630093
O O2 0.600753 0.770811 0.721827
O O3 0.592569 0.761411 0.575416
O O4 0.641945 0.000000 0.641764
O O5 0.750000 0.750000 0.750000
O O6 0.700878 0.766657 0.884065
O O7 0.749449 0.000000 0.825035
O O8 0.500000 0.772611 0.784329
O O9 0.409780 0.733026 0.867767
O O10 0.429294 0.000000 0.809486
O O11 0.344408 0.500000 0.102548
O O12 0.364153 0.285203 0.000000
O O13 0.500000 0.253831 0.500000
O O14 0.558814 0.000000 0.500000
#
# Coordination Sequence:
#
# PCOD8291205 Si02
#       5
#    16  16  16  16   8
#     4  10  20  36  60  91 124 162 205 249 298 358
#     4  12  24  40  63  90 121 157 200 250 308 366
#     4  10  21  38  62  90 121 161 207 252 304 368
#     4  11  25  43  63  89 122 162 208 255 307 365
#     4   9  18  34  59  91 127 165 204 245 290 349
#
# _framework density 19.689314
#
# number of rings (size 3 to 8) (size 9 to 14) (size 15 to 20)
#    0.000    1.444    2.222    3.333    1.556    5.333 
#    0.000    2.222    0.000    2.667    0.000    0.000 
#    0.000    0.000    0.000    0.000    0.000    0.000 
#
# Total GULP energy -446551.311697 kJ/mol
# GULP energy per Si atom -12404.203103 kJ/mol
# Density = 1.964450 g / cm^3
# Si number density = 19.689314 Si / 1000 Ang^3
#
#
#
# Elastic Constant Matrix: (Units=GPa)
#
#
# Indices 1 2 3 4 5 6 
#
# 1 125.9325 39.8198 40.4753 0.0000 0.0000 0.0000
# 2 39.8198 83.3861 42.3433 0.0000 0.0000 0.0000
# 3 40.4753 42.3433 124.7315 0.0000 0.0000 0.0000
# 4 0.0000 0.0000 0.0000 26.2101 0.0000 0.0000
# 5 0.0000 0.0000 0.0000 0.0000 34.4984 0.0000
# 6 0.0000 0.0000 0.0000 0.0000 0.0000 32.9990
#
#
#
# Elastic Compliance Matrix: (Units=1/GPa)
#
#
# Indices 1 2 3 4 5 6 
#
# 1 0.009714 -0.003671 -0.001906 0.000000 0.000000 0.000000
# 2 -0.003671 0.015878 -0.004199 0.000000 0.000000 0.000000
# 3 -0.001906 -0.004199 0.010061 0.000000 0.000000 0.000000
# 4 0.000000 0.000000 0.000000 0.038153 0.000000 0.000000
# 5 0.000000 0.000000 0.000000 0.000000 0.028987 0.000000
# 6 0.000000 0.000000 0.000000 0.000000 0.000000 0.030304
#
#
# Mechanical properties :
#
#
# Convention : Reuss Voigt Hill
#
# Bulk Modulus (GPa) = 62.10717 64.36965 63.23841
# Shear Modulus (GPa) = 31.64246 32.83561 32.23903
#
# Velocity S-wave (km/s) = 4.01320 4.08816 4.05085
# Velocity P-wave (km/s) = 7.28604 7.41942 7.35303
#
# Compressibility (1/GPa) = 0.01610120
#
# Stress axis : x y z
#
# Youngs Moduli (GPa) = 102.94292 62.98187 99.39245
#
# Poissons Ratio (x) = 0.23120 0.18944
# Poissons Ratio (y) = 0.37790 0.41733
# Poissons Ratio (z) = 0.19621 0.26445
#
# Static dielectric constant tensor:
#      x y z
#    x 4.093950 0.000000 0.000000 
#    y 0.000000 3.486590 0.000000 
#    z 0.000000 0.000000 3.703840 
# 
# 
# High freq. dielectric constant tensor:
#      x y z
#    x 1.783870 0.000000 0.000000 
#    y 0.000000 1.753240 0.000000 
#    z 0.000000 0.000000 1.776460 
# 
# From -- ./inp_files/12192.got.cif
#   From: 2010.06.25/outbox.cif.g09.slc.cpg/sg71_7_cif.got.tgz:12192.got - 2010.06.28 04:59:45.
