data_PCOD8291181
_publ_section_title
;
Structure prediction by ZEFSAII (Michael W. Deem and Ramdas Pophale) SiO2 
 PCOD8291181
Probable space group: I M M M
;
_chemical_formula_sum "Si O2"
_cell_formula_units_Z 104
_cell_length_a 7.960992
_cell_length_b 28.673105
_cell_length_c 23.073676
_cell_angle_alpha 90.000000
_cell_angle_beta 90.000000
_cell_angle_gamma 90.000000
_cell_volume 5266.944021
_symmetry_space_group_name_H-M "I M M M"
_symmetry_group_IT_number 71
_symmetry_cell_setting 'orthorhombic'
loop_
_space_group_symop_operation_xyz
x,y,z
-x,-y,z
x,-y,-z
-x,y,-z
-x,-y,-z
x,y,-z
-x,y,z
x,-y,z
1/2+x,1/2+y,1/2+z
1/2-x,1/2-y,1/2+z
1/2+x,1/2-y,1/2-z
1/2-x,1/2+y,1/2-z
1/2-x,1/2-y,1/2-z
1/2+x,1/2+y,1/2-z
1/2-x,1/2+y,1/2+z
1/2+x,1/2-y,1/2+z
loop_
_atom_site_type_symbol
_atom_site_label
_atom_site_fract_x
_atom_site_fract_y
_atom_site_fract_z
Si Si1 0.500000 0.055452 0.068845
Si Si2 0.196742 0.086834 0.147681
Si Si3 0.312276 0.169975 0.563284
Si Si4 0.688805 0.427856 0.064310
Si Si5 0.313527 0.000000 0.348349
Si Si6 0.303421 0.683728 0.710205
Si Si7 0.310046 0.279485 0.167844
Si Si8 0.702207 0.000000 0.778531
O O1 0.329358 0.078870 0.094940
O O2 0.500000 0.000000 0.082962
O O3 0.500000 0.064356 0.000000
O O4 0.244623 0.134247 0.182077
O O5 0.219024 0.045447 0.192668
O O6 0.000000 0.088293 0.126076
O O7 0.266725 0.191269 0.500000
O O8 0.500000 0.149793 0.562647
O O9 0.190910 0.126928 0.578075
O O10 0.298993 0.209515 0.611422
O O11 0.500000 0.446469 0.066222
O O12 0.787914 0.454170 0.113873
O O13 0.765201 0.437501 0.000000
O O14 0.500000 0.000000 0.325592
O O15 0.219298 0.000000 0.286670
O O16 0.500000 0.694030 0.705071
O O17 0.248729 0.688655 0.777774
O O18 0.205639 0.724364 0.677115
O O19 0.500000 0.292054 0.153224
O O20 0.500000 0.000000 0.785487
#
# Coordination Sequence:
#
# PCOD8291181 Si02
#       8
#     8  16  16  16   8  16  16   8
#     4  11  24  44  68  96 130 162 204 256 298 367
#     4  11  22  41  67  93 127 165 198 245 306 362
#     4  10  21  37  56  78 110 152 196 244 293 344
#     4  10  21  37  55  76 108 151 200 253 301 348
#     4  11  24  36  53  82 114 154 199 244 298 357
#     4   9  21  38  59  89 121 153 192 241 295 358
#     4  10  20  36  59  88 117 152 198 242 295 355
#     4  11  23  40  58  87 127 158 198 247 299 358
#
# _framework density 19.745795999999999
#
# number of rings (size 3 to 8) (size 9 to 14) (size 15 to 20)
#    0.000    1.769    1.538    2.077    3.231    4.923 
#    0.000    1.538    0.000    0.923    0.000    0.000 
#    0.000    0.000    0.000    0.000    0.000    0.000 
#
# Total GULP energy -644516.085576 kJ/mol
# GULP energy per Si atom -12394.540107 kJ/mol
# Density = 1.970085 g / cm^3
# Si number density = 19.745796 Si / 1000 Ang^3
#
#
#
# Elastic Constant Matrix: (Units=GPa)
#
#
# Indices 1 2 3 4 5 6 
#
# 1 76.4861 32.7958 44.3913 0.0000 0.0000 0.0000
# 2 32.7958 111.7133 70.3757 0.0000 0.0000 0.0000
# 3 44.3913 70.3757 153.7346 0.0001 0.0000 0.0000
# 4 0.0000 0.0000 0.0001 16.6498 0.0000 0.0000
# 5 0.0000 0.0000 0.0000 0.0000 25.8903 0.0000
# 6 0.0000 0.0000 0.0000 0.0000 0.0000 32.4151
#
#
#
# Elastic Compliance Matrix: (Units=1/GPa)
#
#
# Indices 1 2 3 4 5 6 
#
# 1 0.016205 -0.002543 -0.003515 0.000000 0.000000 0.000000
# 2 -0.002543 0.012978 -0.005207 0.000000 0.000000 0.000000
# 3 -0.003515 -0.005207 0.009903 0.000000 0.000000 0.000000
# 4 0.000000 0.000000 0.000000 0.060061 0.000000 0.000000
# 5 0.000000 0.000000 0.000000 0.000000 0.038624 0.000000
# 6 0.000000 0.000000 0.000000 0.000000 0.000000 0.030850
#
#
# Mechanical properties :
#
#
# Convention : Reuss Voigt Hill
#
# Bulk Modulus (GPa) = 60.39892 70.78442 65.59167
# Shear Modulus (GPa) = 25.42336 27.94911 26.68623
#
# Velocity S-wave (km/s) = 3.59211 3.76632 3.68025
# Velocity P-wave (km/s) = 6.91802 7.40535 7.16583
#
# Compressibility (1/GPa) = 0.01655659
#
# Stress axis : x y z
#
# Youngs Moduli (GPa) = 61.71042 77.05295 100.97697
#
# Poissons Ratio (x) = 0.19593 0.35495
# Poissons Ratio (y) = 0.15692 0.52577
# Poissons Ratio (z) = 0.21692 0.40120
#
# Static dielectric constant tensor:
#      x y z
#    x 3.640800 0.000000 0.000000 
#    y 0.000000 3.487910 0.000000 
#    z 0.000000 0.000000 3.635290 
# 
# 
# High freq. dielectric constant tensor:
#      x y z
#    x 1.775680 0.000000 0.000000 
#    y 0.000000 1.760860 0.000000 
#    z 0.000000 0.000000 1.768960 
# 
# From -- ./inp_files/50974.got.cif
#   From: 2010.06.25/outbox.cif.g09.slc.cpg/sg71_26_cif.got.tgz:50974.got - 2010.06.28 04:59:45.
