data_PCOD8291217
_publ_section_title
;
Structure prediction by ZEFSAII (Michael W. Deem and Ramdas Pophale) SiO2 
 PCOD8291217
Probable space group: I M M M
;
_chemical_formula_sum "Si O2"
_cell_formula_units_Z 88
_cell_length_a 11.455610
_cell_length_b 21.625940
_cell_length_c 18.243156
_cell_angle_alpha 90.000000
_cell_angle_beta 90.000000
_cell_angle_gamma 90.000000
_cell_volume 4519.529084
_symmetry_space_group_name_H-M "I M M M"
_symmetry_group_IT_number 71
_symmetry_cell_setting 'orthorhombic'
loop_
_space_group_symop_operation_xyz
x,y,z
-x,-y,z
x,-y,-z
-x,y,-z
-x,-y,-z
x,y,-z
-x,y,z
x,-y,z
1/2+x,1/2+y,1/2+z
1/2-x,1/2-y,1/2+z
1/2+x,1/2-y,1/2-z
1/2-x,1/2+y,1/2-z
1/2-x,1/2-y,1/2-z
1/2+x,1/2+y,1/2-z
1/2-x,1/2+y,1/2+z
1/2+x,1/2-y,1/2+z
loop_
_atom_site_type_symbol
_atom_site_label
_atom_site_fract_x
_atom_site_fract_y
_atom_site_fract_z
Si Si1 0.124537 0.000000 0.584303
Si Si2 0.282020 0.653352 0.585417
Si Si3 0.500000 0.129853 0.410825
Si Si4 0.631664 0.266227 0.085944
Si Si5 0.000000 0.769496 0.913735
Si Si6 0.748635 0.884747 0.647380
Si Si7 0.137947 0.072534 0.207712
O O1 0.187180 0.063231 0.601772
O O2 0.099666 0.000000 0.500000
O O3 0.000000 0.000000 0.627101
O O4 0.290101 0.635097 0.500000
O O5 0.167502 0.694837 0.602287
O O6 0.386226 0.696185 0.614779
O O7 0.296261 0.590474 0.631781
O O8 0.500000 0.119879 0.500000
O O9 0.500000 0.200396 0.385471
O O10 0.613286 0.101299 0.371123
O O11 0.500000 0.275660 0.114424
O O12 0.716702 0.315645 0.123343
O O13 0.642526 0.278548 0.000000
O O14 0.000000 0.769367 0.000000
O O15 0.786619 0.891349 0.731571
O O16 0.000000 0.090390 0.207727
O O17 0.153370 0.000000 0.220550
#
# Coordination Sequence:
#
# PCOD8291217 Si02
#       7
#     8  16   8  16   8  16  16
#     4  11  22  37  59  83 114 161 207 244 287 350
#     4  10  20  38  65  93 120 156 200 251 310 366
#     4  11  22  39  64  92 125 161 199 250 302 360
#     4  10  20  36  61  93 124 156 199 250 299 363
#     4   9  16  34  60  90 122 149 186 244 309 363
#     4  12  23  39  59  88 123 162 202 247 304 361
#     4  11  24  42  62  86 123 163 203 255 308 361
#
# _framework density 19.471055
#
# number of rings (size 3 to 8) (size 9 to 14) (size 15 to 20)
#    0.000    1.364    3.636    3.273    0.000    2.909 
#    1.636    1.818    0.000    0.000    0.000    2.545 
#    0.000    0.000    0.000    0.000    0.000    0.000 
#
# Total GULP energy -545319.387545 kJ/mol
# GULP energy per Si atom -12393.622444 kJ/mol
# Density = 1.942674 g / cm^3
# Si number density = 19.471055 Si / 1000 Ang^3
#
#
#
# Elastic Constant Matrix: (Units=GPa)
#
#
# Indices 1 2 3 4 5 6 
#
# 1 132.6669 26.3738 42.7618 0.0000 0.0000 0.0000
# 2 26.3738 52.8117 31.0516 0.0002 0.0000 0.0000
# 3 42.7618 31.0516 91.3988 0.0004 0.0000 -0.0001
# 4 0.0000 0.0002 0.0004 31.9026 0.0000 0.0000
# 5 0.0000 0.0000 0.0000 0.0000 28.1667 0.0000
# 6 0.0000 0.0000 -0.0001 0.0000 0.0000 30.2311
#
#
#
# Elastic Compliance Matrix: (Units=1/GPa)
#
#
# Indices 1 2 3 4 5 6 
#
# 1 0.009146 -0.002564 -0.003408 0.000000 0.000000 0.000000
# 2 -0.002564 0.024380 -0.007084 0.000000 0.000000 0.000000
# 3 -0.003408 -0.007084 0.014942 0.000000 0.000000 0.000000
# 4 0.000000 0.000000 0.000000 0.031345 0.000000 0.000000
# 5 0.000000 0.000000 0.000000 0.000000 0.035503 0.000000
# 6 0.000000 0.000000 0.000000 0.000000 0.000000 0.033079
#
#
# Mechanical properties :
#
#
# Convention : Reuss Voigt Hill
#
# Bulk Modulus (GPa) = 44.72671 53.02795 48.87733
# Shear Modulus (GPa) = 27.47891 29.83944 28.65917
#
# Velocity S-wave (km/s) = 3.76076 3.91897 3.84068
# Velocity P-wave (km/s) = 6.47136 6.91166 6.69513
#
# Compressibility (1/GPa) = 0.02235801
#
# Stress axis : x y z
#
# Youngs Moduli (GPa) = 109.33997 41.01677 66.92517
#
# Poissons Ratio (x) = 0.10515 0.22808
# Poissons Ratio (y) = 0.28030 0.47407
# Poissons Ratio (z) = 0.37263 0.29054
#
# Static dielectric constant tensor:
#      x y z
#    x 3.707440 0.000000 0.000000 
#    y 0.000000 3.534400 0.000000 
#    z 0.000000 0.000000 3.457810 
# 
# 
# High freq. dielectric constant tensor:
#      x y z
#    x 1.762090 0.000000 0.000000 
#    y 0.000000 1.752840 0.000000 
#    z 0.000000 0.000000 1.745310 
# 
# From -- ./inp_files/43387.got.cif
#   From: 2010.06.25/outbox.cif.g09.slc.cpg/sg71_22_cif.got.tgz:43387.got - 2010.06.28 04:59:45.
