data_PCOD8291033
_publ_section_title
;
Structure prediction by ZEFSAII (Michael W. Deem and Ramdas Pophale) SiO2 
 PCOD8291033
Probable space group: I M M M
;
_chemical_formula_sum "Si O2"
_cell_formula_units_Z 88
_cell_length_a 11.523496
_cell_length_b 19.052430
_cell_length_c 21.035694
_cell_angle_alpha 90.000000
_cell_angle_beta 90.000000
_cell_angle_gamma 90.000000
_cell_volume 4618.399258
_symmetry_space_group_name_H-M "I M M M"
_symmetry_group_IT_number 71
_symmetry_cell_setting 'orthorhombic'
loop_
_space_group_symop_operation_xyz
x,y,z
-x,-y,z
x,-y,-z
-x,y,-z
-x,-y,-z
x,y,-z
-x,y,z
x,-y,z
1/2+x,1/2+y,1/2+z
1/2-x,1/2-y,1/2+z
1/2+x,1/2-y,1/2-z
1/2-x,1/2+y,1/2-z
1/2-x,1/2-y,1/2-z
1/2+x,1/2+y,1/2-z
1/2-x,1/2+y,1/2+z
1/2+x,1/2-y,1/2+z
loop_
_atom_site_type_symbol
_atom_site_label
_atom_site_fract_x
_atom_site_fract_y
_atom_site_fract_z
Si Si1 0.364220 0.077189 0.869723
Si Si2 0.639969 0.162809 0.375385
Si Si3 0.500000 0.609512 0.567773
Si Si4 0.243705 0.080971 0.260895
Si Si5 0.363730 0.077516 0.500000
Si Si6 0.726159 0.300707 0.430133
Si Si7 0.000000 0.077539 0.788628
O O1 0.500000 0.075302 0.876496
O O2 0.331157 0.088710 0.797077
O O3 0.322354 0.143034 0.910265
O O4 0.314333 0.000000 0.892356
O O5 0.500000 0.170493 0.367245
O O6 0.699265 0.125429 0.316324
O O7 0.674321 0.118849 0.437425
O O8 0.705762 0.237284 0.380938
O O9 0.500000 0.565190 0.500000
O O10 0.607418 0.659621 0.566452
O O11 0.500000 0.568053 0.634356
O O12 0.117878 0.113153 0.238686
O O13 0.232609 0.000000 0.282414
O O14 0.500000 0.068879 0.500000
O O15 0.305754 0.000000 0.500000
O O16 0.759636 0.271211 0.500000
O O17 0.000000 0.000000 0.760649
#
# Coordination Sequence:
#
# PCOD8291033 Si02
#       7
#    16  16   8  16   8  16   8
#     4  10  22  41  62  87 120 156 199 249 298 359
#     4  11  21  36  60  88 122 159 197 251 307 358
#     4  10  20  35  60  86 117 157 196 245 300 357
#     4  10  21  38  61  88 121 159 200 249 305 362
#     4   9  18  32  56  89 118 151 198 247 297 352
#     4  11  22  38  60  88 121 158 197 246 306 356
#     4  10  20  39  60  87 122 154 199 255 302 357
#
# _framework density 19.054220000000001
#
# number of rings (size 3 to 8) (size 9 to 14) (size 15 to 20)
#    0.000    1.727    3.636    1.091    0.000    3.455 
#    1.636    2.727    0.000    0.545    0.000    2.545 
#    0.000    0.000    0.000    0.000    0.000    0.000 
#
# Total GULP energy -545081.078891 kJ/mol
# GULP energy per Si atom -12388.206338 kJ/mol
# Density = 1.901085 g / cm^3
# Si number density = 19.054220 Si / 1000 Ang^3
#
#
#
# Elastic Constant Matrix: (Units=GPa)
#
#
# Indices 1 2 3 4 5 6 
#
# 1 80.3249 43.7965 49.6252 0.0000 0.0000 0.0000
# 2 43.7965 99.2046 44.4798 0.0000 0.0000 0.0000
# 3 49.6252 44.4798 106.2902 0.0000 0.0000 0.0000
# 4 0.0000 0.0000 0.0000 21.3859 0.0000 0.0000
# 5 0.0000 0.0000 0.0000 0.0000 30.4552 0.0000
# 6 0.0000 0.0000 0.0000 0.0000 0.0000 30.9822
#
#
#
# Elastic Compliance Matrix: (Units=1/GPa)
#
#
# Indices 1 2 3 4 5 6 
#
# 1 0.019773 -0.005650 -0.006867 0.000000 0.000000 0.000000
# 2 -0.005650 0.014023 -0.003230 0.000000 0.000000 0.000000
# 3 -0.006867 -0.003230 0.013966 0.000000 0.000000 0.000000
# 4 0.000000 0.000000 0.000000 0.046760 0.000000 0.000000
# 5 0.000000 0.000000 0.000000 0.000000 0.032835 0.000000
# 6 0.000000 0.000000 0.000000 0.000000 0.000000 0.032277
#
#
# Mechanical properties :
#
#
# Convention : Reuss Voigt Hill
#
# Bulk Modulus (GPa) = 61.47549 62.40252 61.93900
# Shear Modulus (GPa) = 25.43876 26.42589 25.93232
#
# Velocity S-wave (km/s) = 3.65783 3.72812 3.69314
# Velocity P-wave (km/s) = 7.08330 7.16610 7.12482
#
# Compressibility (1/GPa) = 0.01626665
#
# Stress axis : x y z
#
# Youngs Moduli (GPa) = 50.57484 71.31166 71.60192
#
# Poissons Ratio (x) = 0.40293 0.49169
# Poissons Ratio (y) = 0.28576 0.23129
# Poissons Ratio (z) = 0.34730 0.23036
#
# Static dielectric constant tensor:
#      x y z
#    x 3.473140 0.000000 0.000000 
#    y 0.000000 3.688200 0.000000 
#    z 0.000000 0.000000 3.746550 
# 
# 
# High freq. dielectric constant tensor:
#      x y z
#    x 1.730420 0.000000 0.000000 
#    y 0.000000 1.738190 0.000000 
#    z 0.000000 0.000000 1.742510 
# 
# From -- ./inp_files/51814.got.cif
#   From: 2010.06.25/outbox.cif.g09.slc.cpg/sg71_26_cif.got.tgz:51814.got - 2010.06.28 04:59:45.
