data_PCOD8291077
_publ_section_title
;
Structure prediction by ZEFSAII (Michael W. Deem and Ramdas Pophale) SiO2 
 PCOD8291077
Probable space group: I M M M
;
_chemical_formula_sum "Si O2"
_cell_formula_units_Z 120
_cell_length_a 25.559723
_cell_length_b 27.734152
_cell_length_c 8.847105
_cell_angle_alpha 90.000000
_cell_angle_beta 90.000000
_cell_angle_gamma 90.000000
_cell_volume 6271.511399
_symmetry_space_group_name_H-M "I M M M"
_symmetry_group_IT_number 71
_symmetry_cell_setting 'orthorhombic'
loop_
_space_group_symop_operation_xyz
x,y,z
-x,-y,z
x,-y,-z
-x,y,-z
-x,-y,-z
x,y,-z
-x,y,z
x,-y,z
1/2+x,1/2+y,1/2+z
1/2-x,1/2-y,1/2+z
1/2+x,1/2-y,1/2-z
1/2-x,1/2+y,1/2-z
1/2-x,1/2-y,1/2-z
1/2+x,1/2+y,1/2-z
1/2-x,1/2+y,1/2+z
1/2+x,1/2-y,1/2+z
loop_
_atom_site_type_symbol
_atom_site_label
_atom_site_fract_x
_atom_site_fract_y
_atom_site_fract_z
Si Si1 0.938436 0.353674 0.171188
Si Si2 0.500000 0.555110 0.320016
Si Si3 0.644717 0.797485 0.176571
Si Si4 0.108327 0.098386 0.822341
Si Si5 0.837651 0.195905 0.177727
Si Si6 0.562127 0.947376 0.831160
Si Si7 0.260984 0.850267 0.677820
Si Si8 0.293020 0.553525 0.824662
O O1 0.913659 0.314754 0.284089
O O2 0.917817 0.407088 0.214921
O O3 0.000000 0.349411 0.192375
O O4 0.921171 0.343137 0.000000
O O5 0.500000 0.500000 0.260746
O O6 0.500000 0.555860 0.500000
O O7 0.551504 0.582915 0.257811
O O8 0.647737 0.742843 0.229521
O O9 0.682302 0.833804 0.267856
O O10 0.656686 0.800844 0.000000
O O11 0.120834 0.153954 0.779610
O O12 0.152612 0.063379 0.758597
O O13 0.109426 0.091412 0.000000
O O14 0.779866 0.181174 0.227760
O O15 0.837701 0.207207 0.000000
O O16 0.500000 0.948392 0.832487
O O17 0.583288 0.000000 0.779649
O O18 0.582574 0.935266 0.000000
O O19 0.254340 0.839999 0.500000
O O20 0.251388 0.906886 0.716496
O O21 0.272641 0.500000 0.779526
O O22 0.306330 0.556646 0.000000
#
# Coordination Sequence:
#
# PCOD8291077 Si02
#       8
#    16   8  16  16  16  16  16  16
#     4  10  21  37  56  79 107 139 178 221 265 318
#     4   9  16  28  49  79 113 147 185 225 264 307
#     4  12  24  38  57  79 106 140 179 224 278 332
#     4   9  18  32  52  78 108 145 187 229 268 317
#     4  10  20  36  56  80 108 138 180 228 278 328
#     4   8  14  27  49  75 102 133 168 207 252 302
#     4  10  20  36  58  82 109 139 177 223 271 326
#     4   9  18  33  54  80 111 145 178 217 270 326
#
# _framework density 19.134143000000002
#
# number of rings (size 3 to 8) (size 9 to 14) (size 15 to 20)
#    0.000    2.333    0.000    3.600    0.000    2.933 
#    1.200    2.333    0.000    3.600    0.000    0.000 
#    0.000    0.000    0.000    0.000    0.000    0.000 
#
# Total GULP energy -743864.243507 kJ/mol
# GULP energy per Si atom -12397.737392 kJ/mol
# Density = 1.909059 g / cm^3
# Si number density = 19.134143 Si / 1000 Ang^3
#
#
#
# Elastic Constant Matrix: (Units=GPa)
#
#
# Indices 1 2 3 4 5 6 
#
# 1 65.7356 47.8768 26.0977 0.0000 0.0000 0.0000
# 2 47.8768 138.3429 37.8125 0.0000 0.0000 0.0000
# 3 26.0977 37.8125 51.3845 0.0000 0.0000 0.0000
# 4 0.0000 0.0000 0.0000 27.5374 0.0000 0.0000
# 5 0.0000 0.0000 0.0000 0.0000 24.5459 0.0000
# 6 0.0000 0.0000 0.0000 0.0000 0.0000 22.4624
#
#
#
# Elastic Compliance Matrix: (Units=1/GPa)
#
#
# Indices 1 2 3 4 5 6 
#
# 1 0.022201 -0.005760 -0.007037 0.000000 0.000000 0.000000
# 2 -0.005760 0.010543 -0.004833 0.000000 0.000000 0.000000
# 3 -0.007037 -0.004833 0.026592 0.000000 0.000000 0.000000
# 4 0.000000 0.000000 0.000000 0.036314 0.000000 0.000000
# 5 0.000000 0.000000 0.000000 0.000000 0.040740 0.000000
# 6 0.000000 0.000000 0.000000 0.000000 0.000000 0.044519
#
#
# Mechanical properties :
#
#
# Convention : Reuss Voigt Hill
#
# Bulk Modulus (GPa) = 41.53541 53.22634 47.38087
# Shear Modulus (GPa) = 22.30216 24.48756 23.39486
#
# Velocity S-wave (km/s) = 3.41775 3.58129 3.50047
# Velocity P-wave (km/s) = 6.10977 6.70661 6.41514
#
# Compressibility (1/GPa) = 0.02407584
#
# Stress axis : x y z
#
# Youngs Moduli (GPa) = 45.04221 94.85289 37.60593
#
# Poissons Ratio (x) = 0.54634 0.26465
# Poissons Ratio (y) = 0.25944 0.18174
# Poissons Ratio (z) = 0.31698 0.45839
#
# Static dielectric constant tensor:
#      x y z
#    x 3.400220 0.000000 0.000000 
#    y 0.000000 3.829070 0.000000 
#    z 0.000000 0.000000 3.473890 
# 
# 
# High freq. dielectric constant tensor:
#      x y z
#    x 1.723960 0.000000 0.000000 
#    y 0.000000 1.755220 0.000000 
#    z 0.000000 0.000000 1.739890 
# 
# From -- ./inp_files/15614.got.cif
#   From: 2010.06.25/outbox.cif.g09.slc.cpg/sg71_8_cif.got.tgz:15614.got - 2010.06.28 04:59:45.
