data_PCOD8292236
_publ_section_title
;
Structure prediction by ZEFSAII (Michael W. Deem and Ramdas Pophale) SiO2 
 PCOD8292236
Probable space group: I M M M
;
_chemical_formula_sum "Si O2"
_cell_formula_units_Z 96
_cell_length_a 17.835055
_cell_length_b 20.994565
_cell_length_c 16.287498
_cell_angle_alpha 90.000000
_cell_angle_beta 90.000000
_cell_angle_gamma 90.000000
_cell_volume 6098.678071
_symmetry_space_group_name_H-M "I M M M"
_symmetry_group_IT_number 71
_symmetry_cell_setting 'orthorhombic'
loop_
_space_group_symop_operation_xyz
x,y,z
-x,-y,z
x,-y,-z
-x,y,-z
-x,-y,-z
x,y,-z
-x,y,z
x,-y,z
1/2+x,1/2+y,1/2+z
1/2-x,1/2-y,1/2+z
1/2+x,1/2-y,1/2-z
1/2-x,1/2+y,1/2-z
1/2-x,1/2-y,1/2-z
1/2+x,1/2+y,1/2-z
1/2-x,1/2+y,1/2+z
1/2+x,1/2-y,1/2+z
loop_
_atom_site_type_symbol
_atom_site_label
_atom_site_fract_x
_atom_site_fract_y
_atom_site_fract_z
Si Si1 0.338793 0.768338 0.164930
Si Si2 0.412698 0.231109 0.000000
Si Si3 0.796100 0.325695 0.827526
Si Si4 0.677970 0.574092 0.157430
Si Si5 0.413939 0.251646 0.407636
Si Si6 0.412523 0.617723 0.000000
Si Si7 0.914660 0.837894 0.761199
O O1 0.371016 0.797826 0.080315
O O2 0.262540 0.729888 0.150437
O O3 0.321410 0.823514 0.231662
O O4 0.402542 0.719891 0.197528
O O5 0.500000 0.211571 0.000000
O O6 0.401207 0.306934 0.000000
O O7 0.760116 0.393650 0.850679
O O8 0.867697 0.311875 0.884661
O O9 0.691014 0.500000 0.169875
O O10 0.626064 0.587415 0.079325
O O11 0.637981 0.602593 0.238580
O O12 0.397162 0.272935 0.500000
O O13 0.500000 0.233031 0.393557
O O14 0.391975 0.312206 0.351219
O O15 0.500000 0.599046 0.000000
O O16 0.000000 0.860970 0.756484
#
# Coordination Sequence:
#
# PCOD8292236 Si02
#       7
#    16   8  16  16  16   8  16
#     4   9  17  28  44  70  94 125 155 184 237 285
#     4  11  18  27  48  77 107 127 146 186 241 295
#     4   9  18  31  46  65  94 124 158 197 231 276
#     4  11  22  33  45  66  95 134 170 191 219 264
#     4   9  18  30  49  73  91 114 149 194 247 288
#     4  11  21  32  45  70 106 135 162 189 219 274
#     4   9  16  29  46  67  96 125 152 186 225 274
#
# _framework density 15.741116
#
# number of rings (size 3 to 8) (size 9 to 14) (size 15 to 20)
#    0.000    2.333    3.333    2.250    2.333    2.333 
#    0.000    0.000    0.000    1.000    0.000    3.500 
#    0.000    0.667    0.000    0.000    0.000    0.000 
#
# Total GULP energy -595053.744428 kJ/mol
# GULP energy per Si atom -12396.953009 kJ/mol
# Density = 1.570529 g / cm^3
# Si number density = 15.741116 Si / 1000 Ang^3
#
#
#
# Elastic Constant Matrix: (Units=GPa)
#
#
# Indices 1 2 3 4 5 6 
#
# 1 76.7665 39.0364 55.2079 0.0000 0.0000 0.0000
# 2 39.0364 74.8356 32.7372 0.0000 0.0000 0.0000
# 3 55.2079 32.7372 121.4631 0.0000 0.0000 0.0000
# 4 0.0000 0.0000 0.0000 9.3052 0.0000 0.0000
# 5 0.0000 0.0000 0.0000 0.0000 27.2174 0.0000
# 6 0.0000 0.0000 0.0000 0.0000 0.0000 14.1996
#
#
#
# Elastic Compliance Matrix: (Units=1/GPa)
#
#
# Indices 1 2 3 4 5 6 
#
# 1 0.023346 -0.008543 -0.008309 0.000000 0.000000 0.000000
# 2 -0.008543 0.018275 -0.001042 0.000000 0.000000 0.000000
# 3 -0.008309 -0.001042 0.012290 0.000000 0.000000 0.000000
# 4 0.000000 0.000000 0.000000 0.107467 0.000000 0.000000
# 5 0.000000 0.000000 0.000000 0.000000 0.036741 0.000000
# 6 0.000000 0.000000 0.000000 0.000000 0.000000 0.070424
#
#
# Mechanical properties :
#
#
# Convention : Reuss Voigt Hill
#
# Bulk Modulus (GPa) = 55.17946 58.55867 56.86907
# Shear Modulus (GPa) = 16.10956 19.88335 17.99646
#
# Velocity S-wave (km/s) = 3.20254 3.55793 3.38491
# Velocity P-wave (km/s) = 6.98609 7.35937 7.17516
#
# Compressibility (1/GPa) = 0.01812269
#
# Stress axis : x y z
#
# Youngs Moduli (GPa) = 42.83330 54.71921 81.36392
#
# Poissons Ratio (x) = 0.46749 0.67604
# Poissons Ratio (y) = 0.36594 0.08481
# Poissons Ratio (z) = 0.35589 0.05704
#
# Static dielectric constant tensor:
#      x y z
#    x 3.190670 0.000000 0.000000 
#    y 0.000000 2.581340 0.000000 
#    z 0.000000 0.000000 3.236690 
# 
# 
# High freq. dielectric constant tensor:
#      x y z
#    x 1.615300 0.000000 0.000000 
#    y 0.000000 1.539250 0.000000 
#    z 0.000000 0.000000 1.612960 
# 
# From -- ./inp_files/46324.got.cif
#   From: 2010.06.25/outbox.cif.g09.slc.cpg/sg71_24_cif.got.tgz:46324.got - 2010.06.28 04:59:45.
