data_PCOD8292420
_publ_section_title
;
Structure prediction by ZEFSAII (Michael W. Deem and Ramdas Pophale) SiO2 
 PCOD8292420
Probable space group: I M M M
;
_chemical_formula_sum "Si O2"
_cell_formula_units_Z 56
_cell_length_a 7.308208
_cell_length_b 22.630944
_cell_length_c 17.155088
_cell_angle_alpha 90.000000
_cell_angle_beta 90.000000
_cell_angle_gamma 90.000000
_cell_volume 2837.308241
_symmetry_space_group_name_H-M "I M M M"
_symmetry_group_IT_number 71
_symmetry_cell_setting 'orthorhombic'
loop_
_space_group_symop_operation_xyz
x,y,z
-x,-y,z
x,-y,-z
-x,y,-z
-x,-y,-z
x,y,-z
-x,y,z
x,-y,z
1/2+x,1/2+y,1/2+z
1/2-x,1/2-y,1/2+z
1/2+x,1/2-y,1/2-z
1/2-x,1/2+y,1/2-z
1/2-x,1/2-y,1/2-z
1/2+x,1/2+y,1/2-z
1/2-x,1/2+y,1/2+z
1/2+x,1/2-y,1/2+z
loop_
_atom_site_type_symbol
_atom_site_label
_atom_site_fract_x
_atom_site_fract_y
_atom_site_fract_z
Si Si1 0.711808 0.881258 0.655278
Si Si2 0.500000 0.661164 0.408283
Si Si3 0.500000 0.571446 0.274258
Si Si4 0.289752 0.751216 0.840748
Si Si5 0.798689 0.568413 0.000000
O O1 0.500000 0.897632 0.670701
O O2 0.821337 0.902924 0.730939
O O3 0.733988 0.813370 0.631209
O O4 0.800229 0.913522 0.580038
O O5 0.500000 0.646428 0.500000
O O6 0.500000 0.599050 0.361184
O O7 0.322052 0.699045 0.386151
O O8 0.500000 0.500000 0.278307
O O9 0.500000 0.765381 0.857679
O O10 0.250000 0.750000 0.750000
O O11 0.818299 0.500000 0.000000
O O12 0.000000 0.598865 0.000000
#
# Coordination Sequence:
#
# PCOD8292420 Si02
#       5
#    16   8   8  16   8
#     4  11  21  38  65  95 132 171 214 268 330 396
#     4  12  28  45  67  99 134 176 221 283 343 388
#     4  12  26  44  66  94 125 177 237 275 324 394
#     4  12  21  40  69  99 129 165 212 272 334 398
#     4   9  20  35  53  85 132 175 205 245 311 392
#
# _framework density 19.737017000000002
#
# number of rings (size 3 to 8) (size 9 to 14) (size 15 to 20)
#    0.000    0.714    7.143    0.857    2.000    3.143 
#    0.000    1.429    0.000    0.000    0.000    4.000 
#    0.000    0.000    0.000    0.000    0.000    0.000 
#
# Total GULP energy -347096.754859 kJ/mol
# GULP energy per Si atom -12396.312674 kJ/mol
# Density = 1.969209 g / cm^3
# Si number density = 19.737017 Si / 1000 Ang^3
#
#
#
# Elastic Constant Matrix: (Units=GPa)
#
#
# Indices 1 2 3 4 5 6 
#
# 1 129.1880 33.5751 42.4029 0.0000 0.0000 0.0000
# 2 33.5751 119.4142 46.1810 0.0000 0.0000 0.0000
# 3 42.4029 46.1810 153.5711 0.0000 0.0000 0.0000
# 4 0.0000 0.0000 0.0000 39.7709 0.0000 0.0000
# 5 0.0000 0.0000 0.0000 0.0000 20.5298 0.0000
# 6 0.0000 0.0000 0.0000 0.0000 0.0000 22.7889
#
#
#
# Elastic Compliance Matrix: (Units=1/GPa)
#
#
# Indices 1 2 3 4 5 6 
#
# 1 0.008821 -0.001741 -0.001912 0.000000 0.000000 0.000000
# 2 -0.001741 0.009820 -0.002472 0.000000 0.000000 0.000000
# 3 -0.001912 -0.002472 0.007783 0.000000 0.000000 0.000000
# 4 0.000000 0.000000 0.000000 0.025144 0.000000 0.000000
# 5 0.000000 0.000000 0.000000 0.000000 0.048710 0.000000
# 6 0.000000 0.000000 0.000000 0.000000 0.000000 0.043881
#
#
# Mechanical properties :
#
#
# Convention : Reuss Voigt Hill
#
# Bulk Modulus (GPa) = 70.55460 71.83236 71.19348
# Shear Modulus (GPa) = 31.03039 35.28556 33.15797
#
# Velocity S-wave (km/s) = 3.96939 4.23281 4.10321
# Velocity P-wave (km/s) = 7.53877 7.76934 7.65492
#
# Compressibility (1/GPa) = 0.01417342
#
# Stress axis : x y z
#
# Youngs Moduli (GPa) = 113.37078 101.83582 128.48432
#
# Poissons Ratio (x) = 0.17725 0.24567
# Poissons Ratio (y) = 0.19733 0.31766
# Poissons Ratio (z) = 0.21677 0.25177
#
# Static dielectric constant tensor:
#      x y z
#    x 3.195520 0.000000 0.000000 
#    y 0.000000 4.121130 0.000000 
#    z 0.000000 0.000000 3.643380 
# 
# 
# High freq. dielectric constant tensor:
#      x y z
#    x 1.778700 0.000000 0.000000 
#    y 0.000000 1.767830 0.000000 
#    z 0.000000 0.000000 1.763050 
# 
# From -- ./inp_files/31003.got.cif
#   From: 2010.06.25/outbox.cif.g09.slc.cpg/sg71_16_cif.got.tgz:31003.got - 2010.06.28 04:59:45.
