data_PCOD8292056
_publ_section_title
;
Structure prediction by ZEFSAII (Michael W. Deem and Ramdas Pophale) SiO2 
 PCOD8292056
Probable space group: I M M M
;
_chemical_formula_sum "Si O2"
_cell_formula_units_Z 96
_cell_length_a 20.095004
_cell_length_b 27.803105
_cell_length_c 8.854139
_cell_angle_alpha 90.000000
_cell_angle_beta 90.000000
_cell_angle_gamma 90.000000
_cell_volume 4946.838504
_symmetry_space_group_name_H-M "I M M M"
_symmetry_group_IT_number 71
_symmetry_cell_setting 'orthorhombic'
loop_
_space_group_symop_operation_xyz
x,y,z
-x,-y,z
x,-y,-z
-x,y,-z
-x,-y,-z
x,y,-z
-x,y,z
x,-y,z
1/2+x,1/2+y,1/2+z
1/2-x,1/2-y,1/2+z
1/2+x,1/2-y,1/2-z
1/2-x,1/2+y,1/2-z
1/2-x,1/2-y,1/2-z
1/2+x,1/2+y,1/2-z
1/2-x,1/2+y,1/2+z
1/2+x,1/2-y,1/2+z
loop_
_atom_site_type_symbol
_atom_site_label
_atom_site_fract_x
_atom_site_fract_y
_atom_site_fract_z
Si Si1 0.922943 0.444830 0.325924
Si Si2 0.311517 0.446347 0.178278
Si Si3 0.808724 0.280484 0.677829
Si Si4 0.423175 0.724164 0.674376
Si Si5 0.423675 0.386133 0.674578
Si Si6 0.812510 0.384101 0.821919
O O1 0.904937 0.434684 0.500000
O O2 0.906787 0.500000 0.284451
O O3 0.881460 0.409933 0.218408
O O4 0.000000 0.433699 0.295791
O O5 0.309135 0.500000 0.247715
O O6 0.379301 0.420849 0.225695
O O7 0.247760 0.417212 0.237505
O O8 0.309691 0.448979 0.000000
O O9 0.799288 0.280243 0.500000
O O10 0.750000 0.250000 0.750000
O O11 0.879841 0.258038 0.719392
O O12 0.805545 0.334332 0.736372
O O13 0.405613 0.734303 0.500000
O O14 0.500000 0.736045 0.706138
O O15 0.407412 0.668991 0.715066
O O16 0.408512 0.395848 0.500000
O O17 0.500000 0.397777 0.712522
O O18 0.809539 0.374802 0.000000
#
# Coordination Sequence:
#
# PCOD8292056 Si02
#       6
#    16  16  16  16  16  16
#     4   9  19  37  60  86 117 152 190 233 282 337
#     4  10  22  38  55  79 111 145 183 228 275 324
#     4  12  25  40  59  84 115 149 188 235 286 342
#     4   9  19  38  62  86 114 148 187 231 278 331
#     4   9  19  36  58  84 112 143 181 224 269 321
#     4  11  23  39  59  83 112 148 191 237 284 336
#
# _framework density 19.406333
#
# number of rings (size 3 to 8) (size 9 to 14) (size 15 to 20)
#    0.000    2.000    0.000    5.000    0.000    8.000 
#    0.000    4.167    0.000    0.000    0.000    0.000 
#    0.000    0.000    0.000    0.000    0.000    0.000 
#
# Total GULP energy -595386.106161 kJ/mol
# GULP energy per Si atom -12403.877212 kJ/mol
# Density = 1.936216 g / cm^3
# Si number density = 19.406333 Si / 1000 Ang^3
#
#
#
# Elastic Constant Matrix: (Units=GPa)
#
#
# Indices 1 2 3 4 5 6 
#
# 1 111.0315 76.3434 46.5547 0.0000 0.0000 0.0000
# 2 76.3434 143.3455 56.2540 0.0000 0.0000 0.0000
# 3 46.5547 56.2540 82.3201 0.0000 0.0000 0.0000
# 4 0.0000 0.0000 0.0000 32.5157 0.0000 0.0000
# 5 0.0000 0.0000 0.0000 0.0000 36.4337 0.0000
# 6 0.0000 0.0000 0.0000 0.0000 0.0000 39.6559
#
#
#
# Elastic Compliance Matrix: (Units=1/GPa)
#
#
# Indices 1 2 3 4 5 6 
#
# 1 0.015197 -0.006451 -0.004186 0.000000 0.000000 0.000000
# 2 -0.006451 0.012271 -0.004737 0.000000 0.000000 0.000000
# 3 -0.004186 -0.004737 0.017752 0.000000 0.000000 0.000000
# 4 0.000000 0.000000 0.000000 0.030754 0.000000 0.000000
# 5 0.000000 0.000000 0.000000 0.000000 0.027447 0.000000
# 6 0.000000 0.000000 0.000000 0.000000 0.000000 0.025217
#
#
# Mechanical properties :
#
#
# Convention : Reuss Voigt Hill
#
# Bulk Modulus (GPa) = 69.10016 77.22236 73.16126
# Shear Modulus (GPa) = 30.44853 32.22406 31.33629
#
# Velocity S-wave (km/s) = 3.96536 4.07933 4.02275
# Velocity P-wave (km/s) = 7.52660 7.87824 7.70443
#
# Compressibility (1/GPa) = 0.01447175
#
# Stress axis : x y z
#
# Youngs Moduli (GPa) = 65.80106 81.49377 56.33078
#
# Poissons Ratio (x) = 0.52572 0.23581
# Poissons Ratio (y) = 0.42448 0.26685
# Poissons Ratio (z) = 0.27546 0.38605
#
# Static dielectric constant tensor:
#      x y z
#    x 3.577680 0.000000 0.000000 
#    y 0.000000 3.627290 0.000000 
#    z 0.000000 0.000000 3.419620 
# 
# 
# High freq. dielectric constant tensor:
#      x y z
#    x 1.767560 0.000000 0.000000 
#    y 0.000000 1.762960 0.000000 
#    z 0.000000 0.000000 1.748750 
# 
# From -- ./inp_files/10855.got.cif
#   From: 2010.06.25/outbox.cif.g09.slc.cpg/sg71_6_cif.got.tgz:10855.got - 2010.06.28 04:59:45.
