data_PCOD8292822
_publ_section_title
;
Structure prediction by ZEFSAII (Michael W. Deem and Ramdas Pophale) SiO2 
 PCOD8292822
Probable space group: I B A M
;
_chemical_formula_sum "Si O2"
_cell_formula_units_Z 96
_cell_length_a 22.149237
_cell_length_b 18.243803
_cell_length_c 14.016063
_cell_angle_alpha 90.000000
_cell_angle_beta 90.000000
_cell_angle_gamma 90.000000
_cell_volume 5663.699268
_symmetry_space_group_name_H-M "I B A M"
_symmetry_group_IT_number 72
_symmetry_cell_setting 'orthorhombic'
loop_
_space_group_symop_operation_xyz
x,y,z
-x,-y,z
x,-y,1/2-z
-x,y,1/2-z
-x,-y,-z
x,y,-z
-x,y,1/2+z
x,-y,1/2+z
1/2+x,1/2+y,1/2+z
1/2-x,1/2-y,1/2+z
1/2+x,1/2-y,-z
1/2-x,1/2+y,-z
1/2-x,1/2-y,1/2-z
1/2+x,1/2+y,1/2-z
1/2-x,1/2+y,z
1/2+x,1/2-y,z
loop_
_atom_site_type_symbol
_atom_site_label
_atom_site_fract_x
_atom_site_fract_y
_atom_site_fract_z
Si Si1 0.971997 0.690576 0.892229
Si Si2 0.398932 0.081021 0.269995
Si Si3 0.704891 0.873635 0.606371
Si Si4 0.390250 0.806372 0.610552
Si Si5 0.138831 0.217587 0.896147
Si Si6 0.802176 0.197431 0.786077
O O1 0.952760 0.625322 0.821524
O O2 0.931114 0.762832 0.876945
O O3 0.040122 0.716221 0.873200
O O4 0.963939 0.660443 0.000000
O O5 0.339523 0.072912 0.336085
O O6 0.378007 0.120813 0.172387
O O7 0.423849 0.000000 0.250000
O O8 0.713705 0.904731 0.500000
O O9 0.674738 0.793844 0.604513
O O10 0.771092 0.869119 0.656217
O O11 0.375927 0.823305 0.500000
O O12 0.348451 0.740014 0.645401
O O13 0.162981 0.167409 0.808959
O O14 0.147278 0.178862 0.000000
O O15 0.750000 0.250000 0.750000
#
# Coordination Sequence:
#
# PCOD8292822 Si02
#       6
#    16  16  16  16  16  16
#     4   9  18  32  46  61  88 122 151 184 232 277
#     4  11  21  33  47  62  85 126 169 196 226 268
#     4   9  17  31  47  62  84 114 152 192 235 285
#     4  11  21  30  44  68  91 113 152 200 235 270
#     4   8  14  25  44  63  82 113 143 169 216 281
#     4  10  16  29  46  66  85 110 146 190 241 283
#
# _framework density 16.950051999999999
#
# number of rings (size 3 to 8) (size 9 to 14) (size 15 to 20)
#    0.000    2.333    5.000    2.500    0.000    3.333 
#    0.000    1.667    0.000    0.000    0.000    0.000 
#    0.000    0.000    0.000    3.000    0.667   20.000 
#
# Total GULP energy -594832.673612 kJ/mol
# GULP energy per Si atom -12392.347367 kJ/mol
# Density = 1.691147 g / cm^3
# Si number density = 16.950052 Si / 1000 Ang^3
#
#
#
# Elastic Constant Matrix: (Units=GPa)
#
#
# Indices 1 2 3 4 5 6 
#
# 1 97.9176 19.4958 52.7496 0.0000 0.0000 0.0000
# 2 19.4958 7.7575 12.1272 0.0000 0.0000 0.0000
# 3 52.7496 12.1272 136.5697 0.0000 0.0000 0.0000
# 4 0.0000 0.0000 0.0000 10.1229 0.0000 0.0000
# 5 0.0000 0.0000 0.0000 0.0000 32.6677 0.0000
# 6 0.0000 0.0000 0.0000 0.0000 0.0000 10.8843
#
#
#
# Elastic Compliance Matrix: (Units=1/GPa)
#
#
# Indices 1 2 3 4 5 6 
#
# 1 0.022369 -0.049595 -0.004236 0.000000 0.000000 0.000000
# 2 -0.049595 0.259642 -0.003900 0.000000 0.000000 0.000000
# 3 -0.004236 -0.003900 0.009305 0.000000 0.000000 0.000000
# 4 0.000000 0.000000 0.000000 0.098786 0.000000 0.000000
# 5 0.000000 0.000000 0.000000 0.000000 0.030611 0.000000
# 6 0.000000 0.000000 0.000000 0.000000 0.000000 0.091876
#
#
# Mechanical properties :
#
#
# Convention : Reuss Voigt Hill
#
# Bulk Modulus (GPa) = 5.68653 45.66555 25.67604
# Shear Modulus (GPa) = 7.28153 21.25979 14.27066
#
# Velocity S-wave (km/s) = 2.07490 3.54540 2.90474
# Velocity P-wave (km/s) = 3.01702 6.61510 5.14111
#
# Compressibility (1/GPa) = 0.17585427
#
# Stress axis : x y z
#
# Youngs Moduli (GPa) = 44.70423 3.85146 107.47181
#
# Poissons Ratio (x) = 0.19101 0.45526
# Poissons Ratio (y) = 2.21710 0.41914
# Poissons Ratio (z) = 0.18937 0.01502
#
# Static dielectric constant tensor:
#      x y z
#    x 3.546880 0.000000 0.000000 
#    y 0.000000 2.463070 0.000000 
#    z 0.000000 0.000000 3.935670 
# 
# 
# High freq. dielectric constant tensor:
#      x y z
#    x 1.662060 0.000000 0.000000 
#    y 0.000000 1.554250 0.000000 
#    z 0.000000 0.000000 1.686730 
# 
# From -- ./inp_files/24396.got.cif
#   From: 2010.03.12/outbox.cif.g09.slc.cpg/sg72_13_cif.got.tgz:24396.got - 2010.04.16 14:54:00.
