data_PCOD8292459
_publ_section_title
;
Structure prediction by ZEFSAII (Michael W. Deem and Ramdas Pophale) SiO2 
 PCOD8292459
Probable space group: I M M M
;
_chemical_formula_sum "Si O2"
_cell_formula_units_Z 72
_cell_length_a 8.614754
_cell_length_b 16.803761
_cell_length_c 24.601539
_cell_angle_alpha 90.000000
_cell_angle_beta 90.000000
_cell_angle_gamma 90.000000
_cell_volume 3561.325361
_symmetry_space_group_name_H-M "I M M M"
_symmetry_group_IT_number 71
_symmetry_cell_setting 'orthorhombic'
loop_
_space_group_symop_operation_xyz
x,y,z
-x,-y,z
x,-y,-z
-x,y,-z
-x,-y,-z
x,y,-z
-x,y,z
x,-y,z
1/2+x,1/2+y,1/2+z
1/2-x,1/2-y,1/2+z
1/2+x,1/2-y,1/2-z
1/2-x,1/2+y,1/2-z
1/2-x,1/2-y,1/2-z
1/2+x,1/2+y,1/2-z
1/2-x,1/2+y,1/2+z
1/2+x,1/2-y,1/2+z
loop_
_atom_site_type_symbol
_atom_site_label
_atom_site_fract_x
_atom_site_fract_y
_atom_site_fract_z
Si Si1 0.317803 0.869748 0.139829
Si Si2 0.815545 0.587864 0.759036
Si Si3 0.324371 0.591973 0.061997
Si Si4 0.179788 0.700230 0.146192
Si Si5 0.816697 0.000000 0.937864
O O1 0.500000 0.884438 0.136221
O O2 0.251830 0.896660 0.198462
O O3 0.280260 0.777372 0.132734
O O4 0.240410 0.920586 0.092195
O O5 0.758340 0.500000 0.777837
O O6 0.753540 0.655971 0.799825
O O7 0.000000 0.590935 0.759247
O O8 0.500000 0.608030 0.082567
O O9 0.281899 0.500000 0.068092
O O10 0.199303 0.640592 0.096166
O O11 0.308747 0.619481 0.000000
O O12 0.000000 0.723398 0.152820
O O13 0.000000 0.000000 0.937530
O O14 0.754081 0.000000 0.000000
#
# Coordination Sequence:
#
# PCOD8292459 Si02
#       5
#    16  16  16  16   8
#     4  11  22  40  64  86 117 157 198 243 292 355
#     4   9  18  35  59  87 120 156 194 239 292 348
#     4   9  19  37  58  80 112 153 197 244 291 346
#     4  11  22  35  57  89 124 156 193 243 298 353
#     4  11  25  45  67  91 119 151 196 255 312 361
#
# _framework density 20.217193999999999
#
# number of rings (size 3 to 8) (size 9 to 14) (size 15 to 20)
#    0.000    1.889    1.111    3.667    0.000    3.556 
#    0.000    4.444    0.000    0.000    0.000    0.000 
#    0.000    0.000    0.000    0.000    0.000    0.000 
#
# Total GULP energy -446446.844741 kJ/mol
# GULP energy per Si atom -12401.301243 kJ/mol
# Density = 2.017118 g / cm^3
# Si number density = 20.217194 Si / 1000 Ang^3
#
#
#
# Elastic Constant Matrix: (Units=GPa)
#
#
# Indices 1 2 3 4 5 6 
#
# 1 41.1743 21.0255 28.8955 0.0000 0.0000 0.0000
# 2 21.0255 121.4492 72.7282 0.0000 0.0000 0.0000
# 3 28.8955 72.7282 140.8278 0.0000 0.0000 0.0000
# 4 0.0000 0.0000 0.0000 21.2719 0.0000 0.0000
# 5 0.0000 0.0000 0.0000 0.0000 27.4517 0.0000
# 6 0.0000 0.0000 0.0000 0.0000 0.0000 23.7595
#
#
#
# Elastic Compliance Matrix: (Units=1/GPa)
#
#
# Indices 1 2 3 4 5 6 
#
# 1 0.028734 -0.002090 -0.004816 0.000000 0.000000 0.000000
# 2 -0.002090 0.012072 -0.005806 0.000000 0.000000 0.000000
# 3 -0.004816 -0.005806 0.011087 0.000000 0.000000 0.000000
# 4 0.000000 0.000000 0.000000 0.047010 0.000000 0.000000
# 5 0.000000 0.000000 0.000000 0.000000 0.036428 0.000000
# 6 0.000000 0.000000 0.000000 0.000000 0.000000 0.042088
#
#
# Mechanical properties :
#
#
# Convention : Reuss Voigt Hill
#
# Bulk Modulus (GPa) = 37.77933 60.97219 49.37576
# Shear Modulus (GPa) = 23.62182 26.55008 25.08595
#
# Velocity S-wave (km/s) = 3.42190 3.62780 3.52635
# Velocity P-wave (km/s) = 5.86002 6.91173 6.40749
#
# Compressibility (1/GPa) = 0.02646950
#
# Stress axis : x y z
#
# Youngs Moduli (GPa) = 34.80143 82.83315 90.19274
#
# Poissons Ratio (x) = 0.17315 0.43439
# Poissons Ratio (y) = 0.07275 0.52363
# Poissons Ratio (z) = 0.16761 0.48091
#
# Static dielectric constant tensor:
#      x y z
#    x 3.413470 0.000000 0.000000 
#    y 0.000000 3.683240 0.000000 
#    z 0.000000 0.000000 3.850730 
# 
# 
# High freq. dielectric constant tensor:
#      x y z
#    x 1.768190 0.000000 0.000000 
#    y 0.000000 1.798730 0.000000 
#    z 0.000000 0.000000 1.795390 
# 
# From -- ./inp_files/6107.got.cif
#   From: 2010.06.25/outbox.cif.g09.slc.cpg/sg71_4_cif.got.tgz:6107.got - 2010.06.28 04:59:45.
