data_PCOD8292911
_publ_section_title
;
Structure prediction by ZEFSAII (Michael W. Deem and Ramdas Pophale) SiO2 
 PCOD8292911
Probable space group: I B A M
;
_chemical_formula_sum "Si O2"
_cell_formula_units_Z 120
_cell_length_a 12.835545
_cell_length_b 18.309276
_cell_length_c 30.423004
_cell_angle_alpha 90.000000
_cell_angle_beta 90.000000
_cell_angle_gamma 90.000000
_cell_volume 7149.696054
_symmetry_space_group_name_H-M "I B A M"
_symmetry_group_IT_number 72
_symmetry_cell_setting 'orthorhombic'
loop_
_space_group_symop_operation_xyz
x,y,z
-x,-y,z
x,-y,1/2-z
-x,y,1/2-z
-x,-y,-z
x,y,-z
-x,y,1/2+z
x,-y,1/2+z
1/2+x,1/2+y,1/2+z
1/2-x,1/2-y,1/2+z
1/2+x,1/2-y,-z
1/2-x,1/2+y,-z
1/2-x,1/2-y,1/2-z
1/2+x,1/2+y,1/2-z
1/2-x,1/2+y,z
1/2+x,1/2-y,z
loop_
_atom_site_type_symbol
_atom_site_label
_atom_site_fract_x
_atom_site_fract_y
_atom_site_fract_z
Si Si1 0.000000 0.500000 0.601120
Si Si2 0.538028 0.142592 0.051317
Si Si3 0.904380 0.730904 0.384171
Si Si4 0.199108 0.528010 0.340861
Si Si5 0.731306 0.158523 0.104726
Si Si6 0.762292 0.368133 0.825327
Si Si7 0.888097 0.622959 0.236906
Si Si8 0.094846 0.250657 0.171843
O O1 0.987768 0.568451 0.569162
O O2 0.095034 0.508062 0.633754
O O3 0.474935 0.206810 0.075096
O O4 0.662818 0.145446 0.060756
O O5 0.518897 0.149894 0.000000
O O6 0.834063 0.795159 0.404582
O O7 0.833540 0.666073 0.364093
O O8 0.977495 0.763127 0.345392
O O9 0.265420 0.582673 0.371838
O O10 0.263259 0.453212 0.334450
O O11 0.171212 0.565530 0.294390
O O12 0.654516 0.199557 0.137381
O O13 0.820220 0.361779 0.779452
O O14 0.652258 0.326501 0.821537
O O15 0.907871 0.702874 0.216342
O O16 0.000000 0.588759 0.250000
#
# Coordination Sequence:
#
# PCOD8292911 Si02
#       8
#     8  16  16  16  16  16  16  16
#     4  10  17  32  49  72 110 134 156 205 265 318
#     4  10  19  31  52  80 104 128 162 207 266 320
#     4  10  18  36  51  72  98 138 170 205 255 310
#     4  10  19  31  47  74 100 134 171 213 251 299
#     4   8  19  33  51  69 103 127 167 209 253 306
#     4  11  19  31  50  70 104 133 177 213 249 300
#     4  11  19  30  48  75 102 136 171 215 263 294
#     4   9  19  33  48  71  96 136 173 212 250 302
#
# _framework density 16.783930000000002
#
# number of rings (size 3 to 8) (size 9 to 14) (size 15 to 20)
#    0.000    2.133    2.667    2.600    0.000    1.067 
#    0.000    0.667    0.000    0.000    0.000    0.000 
#    0.000    6.133    0.000    0.000    0.000    0.000 
#
# Total GULP energy -743796.990346 kJ/mol
# GULP energy per Si atom -12396.616506 kJ/mol
# Density = 1.674573 g / cm^3
# Si number density = 16.783930 Si / 1000 Ang^3
#
#
#
# Elastic Constant Matrix: (Units=GPa)
#
#
# Indices 1 2 3 4 5 6 
#
# 1 41.3985 25.5742 7.5163 0.0000 0.0000 0.0000
# 2 25.5742 97.0116 24.7136 0.0000 0.0000 0.0000
# 3 7.5163 24.7136 80.2355 0.0000 0.0000 0.0000
# 4 0.0000 0.0000 0.0000 3.1849 0.0000 0.0000
# 5 0.0000 0.0000 0.0000 0.0000 14.4287 0.0000
# 6 0.0000 0.0000 0.0000 0.0000 0.0000 27.2328
#
#
#
# Elastic Compliance Matrix: (Units=1/GPa)
#
#
# Indices 1 2 3 4 5 6 
#
# 1 0.028866 -0.007510 -0.000391 0.000000 0.000000 0.000000
# 2 -0.007510 0.013140 -0.003344 0.000000 0.000000 0.000000
# 3 -0.000391 -0.003344 0.013530 0.000000 0.000000 0.000000
# 4 0.000000 0.000000 0.000000 0.313980 0.000000 0.000000
# 5 0.000000 0.000000 0.000000 0.000000 0.069306 0.000000
# 6 0.000000 0.000000 0.000000 0.000000 0.000000 0.036720
#
#
# Mechanical properties :
#
#
# Convention : Reuss Voigt Hill
#
# Bulk Modulus (GPa) = 30.26078 37.13931 33.70004
# Shear Modulus (GPa) = 9.82228 19.69205 14.75716
#
# Velocity S-wave (km/s) = 2.42176 3.42902 2.96842
# Velocity P-wave (km/s) = 5.08809 6.15252 5.64544
#
# Compressibility (1/GPa) = 0.03304608
#
# Stress axis : x y z
#
# Youngs Moduli (GPa) = 34.64314 76.10568 73.91077
#
# Poissons Ratio (x) = 0.57155 0.02889
# Poissons Ratio (y) = 0.26017 0.24713
# Poissons Ratio (z) = 0.01354 0.25447
#
# Static dielectric constant tensor:
#      x y z
#    x 3.148180 0.000000 0.000000 
#    y 0.000000 3.535240 0.000000 
#    z 0.000000 0.000000 3.052530 
# 
# 
# High freq. dielectric constant tensor:
#      x y z
#    x 1.622370 0.000000 0.000000 
#    y 0.000000 1.648210 0.000000 
#    z 0.000000 0.000000 1.639090 
# 
# From -- ./inp_files/51895.got.cif
#   From: 2010.03.12/outbox.cif.g09.slc.cpg/sg72_26_cif.got.tgz:51895.got - 2010.04.16 14:54:00.
