data_PCOD8292329
_publ_section_title
;
Structure prediction by ZEFSAII (Michael W. Deem and Ramdas Pophale) SiO2 
 PCOD8292329
Probable space group: I M M M
;
_chemical_formula_sum "Si O2"
_cell_formula_units_Z 88
_cell_length_a 28.130848
_cell_length_b 9.063615
_cell_length_c 24.894978
_cell_angle_alpha 90.000000
_cell_angle_beta 90.000000
_cell_angle_gamma 90.000000
_cell_volume 6347.402235
_symmetry_space_group_name_H-M "I M M M"
_symmetry_group_IT_number 71
_symmetry_cell_setting 'orthorhombic'
loop_
_space_group_symop_operation_xyz
x,y,z
-x,-y,z
x,-y,-z
-x,y,-z
-x,-y,-z
x,y,-z
-x,y,z
x,-y,z
1/2+x,1/2+y,1/2+z
1/2-x,1/2-y,1/2+z
1/2+x,1/2-y,1/2-z
1/2-x,1/2+y,1/2-z
1/2-x,1/2-y,1/2-z
1/2+x,1/2+y,1/2-z
1/2-x,1/2+y,1/2+z
1/2+x,1/2-y,1/2+z
loop_
_atom_site_type_symbol
_atom_site_label
_atom_site_fract_x
_atom_site_fract_y
_atom_site_fract_z
Si Si1 0.142576 0.336774 0.265001
Si Si2 0.553879 0.172411 0.294504
Si Si3 0.816634 0.336170 0.854711
Si Si4 0.097810 0.825207 0.104032
Si Si5 0.556129 0.171684 0.500000
Si Si6 0.726239 0.328128 0.200013
O O1 0.144340 0.500000 0.289978
O O2 0.087718 0.285108 0.256286
O O3 0.165282 0.334327 0.206130
O O4 0.172239 0.233058 0.306131
O O5 0.500000 0.205159 0.277107
O O6 0.566693 0.269622 0.346048
O O7 0.561530 0.000000 0.309671
O O8 0.823851 0.500000 0.879261
O O9 0.846551 0.219770 0.889659
O O10 0.759877 0.297200 0.852299
O O11 0.077507 0.750289 0.051482
O O12 0.093955 0.000000 0.099312
O O13 0.500000 0.193178 0.500000
O O14 0.570160 0.000000 0.500000
O O15 0.723463 0.500000 0.212387
O O16 0.750000 0.250000 0.250000
#
# Coordination Sequence:
#
# PCOD8292329 Si02
#       6
#    16  16  16  16   8  16
#     4   8  14  23  35  51  69  89 114 142 169 201
#     4   9  17  29  41  51  68  96 124 146 175 218
#     4   8  15  27  39  51  69  92 113 132 165 216
#     4  11  21  30  42  59  73  84 108 150 190 218
#     4  11  23  37  49  55  65  91 119 143 180 229
#     4   9  15  22  34  51  70  90 110 134 165 203
#
# _framework density 13.863939999999999
#
# number of rings (size 3 to 8) (size 9 to 14) (size 15 to 20)
#    0.000    2.818    0.000    5.182    0.000   10.545 
#    0.000    0.000    0.000    0.000    0.000    0.000 
#    0.000    0.000    0.000    0.000    0.000    0.000 
#
# Total GULP energy -545100.081987 kJ/mol
# GULP energy per Si atom -12388.638227 kJ/mol
# Density = 1.383238 g / cm^3
# Si number density = 13.863940 Si / 1000 Ang^3
#
#
#
# Elastic Constant Matrix: (Units=GPa)
#
#
# Indices 1 2 3 4 5 6 
#
# 1 127.2924 60.6650 37.9658 0.0000 0.0000 0.0000
# 2 60.6650 95.8573 27.8456 0.0000 0.0000 0.0000
# 3 37.9658 27.8456 20.5981 0.0000 0.0000 0.0000
# 4 0.0000 0.0000 0.0000 17.9730 0.0000 0.0000
# 5 0.0000 0.0000 0.0000 0.0000 16.4004 0.0000
# 6 0.0000 0.0000 0.0000 0.0000 0.0000 21.9631
#
#
#
# Elastic Compliance Matrix: (Units=1/GPa)
#
#
# Indices 1 2 3 4 5 6 
#
# 1 0.017916 -0.002875 -0.029136 0.000000 0.000000 0.000000
# 2 -0.002875 0.017639 -0.018547 0.000000 0.000000 0.000000
# 3 -0.029136 -0.018547 0.127324 0.000000 0.000000 0.000000
# 4 0.000000 0.000000 0.000000 0.055639 0.000000 0.000000
# 5 0.000000 0.000000 0.000000 0.000000 0.060974 0.000000
# 6 0.000000 0.000000 0.000000 0.000000 0.000000 0.045531
#
#
# Mechanical properties :
#
#
# Convention : Reuss Voigt Hill
#
# Bulk Modulus (GPa) = 16.19081 55.18894 35.68988
# Shear Modulus (GPa) = 11.19254 19.08540 15.13897
#
# Velocity S-wave (km/s) = 2.84441 3.71431 3.30808
# Velocity P-wave (km/s) = 4.74250 7.63471 6.35531
#
# Compressibility (1/GPa) = 0.06176342
#
# Stress axis : x y z
#
# Youngs Moduli (GPa) = 55.81625 56.69184 7.85400
#
# Poissons Ratio (x) = 0.16297 0.22883
# Poissons Ratio (y) = 0.16046 0.14567
# Poissons Ratio (z) = 1.62626 1.05147
#
# Static dielectric constant tensor:
#      x y z
#    x 4.255490 0.000000 0.000000 
#    y 0.000000 2.981400 0.000000 
#    z 0.000000 0.000000 2.393780 
# 
# 
# High freq. dielectric constant tensor:
#      x y z
#    x 1.538480 0.000000 0.000000 
#    y 0.000000 1.537410 0.000000 
#    z 0.000000 0.000000 1.453510 
# 
# From -- ./inp_files/56602.got.cif
#   From: 2010.06.25/outbox.cif.g09.slc.cpg/sg71_29_cif.got.tgz:56602.got - 2010.06.28 04:59:45.
