data_PCOD8292896
_publ_section_title
;
Structure prediction by ZEFSAII (Michael W. Deem and Ramdas Pophale) SiO2 
 PCOD8292896
Probable space group: I B A M
;
_chemical_formula_sum "Si O2"
_cell_formula_units_Z 76
_cell_length_a 14.747153
_cell_length_b 11.765292
_cell_length_c 25.344981
_cell_angle_alpha 90.000000
_cell_angle_beta 90.000000
_cell_angle_gamma 90.000000
_cell_volume 4397.469807
_symmetry_space_group_name_H-M "I B A M"
_symmetry_group_IT_number 72
_symmetry_cell_setting 'orthorhombic'
loop_
_space_group_symop_operation_xyz
x,y,z
-x,-y,z
x,-y,1/2-z
-x,y,1/2-z
-x,-y,-z
x,y,-z
-x,y,1/2+z
x,-y,1/2+z
1/2+x,1/2+y,1/2+z
1/2-x,1/2-y,1/2+z
1/2+x,1/2-y,-z
1/2-x,1/2+y,-z
1/2-x,1/2-y,1/2-z
1/2+x,1/2+y,1/2-z
1/2-x,1/2+y,z
1/2+x,1/2-y,z
loop_
_atom_site_type_symbol
_atom_site_label
_atom_site_fract_x
_atom_site_fract_y
_atom_site_fract_z
Si Si1 0.000000 0.000000 0.250000
Si Si2 0.596483 0.396724 0.844751
Si Si3 0.156445 0.321542 0.000000
Si Si4 0.467147 0.285212 0.000000
Si Si5 0.746251 0.792874 0.907211
Si Si6 0.084284 0.857559 0.108906
Si Si7 0.337296 0.079788 0.000000
O O1 0.069901 0.921592 0.283783
O O2 0.687931 0.328026 0.858492
O O3 0.610576 0.517411 0.872790
O O4 0.512258 0.322092 0.866046
O O5 0.074495 0.231920 0.000000
O O6 0.212430 0.301999 0.053716
O O7 0.126204 0.452058 0.000000
O O8 0.431114 0.362044 0.953082
O O9 0.424478 0.160061 0.000000
O O10 0.660398 0.736435 0.877200
O O11 0.719938 0.897664 0.946006
#
# Coordination Sequence:
#
# PCOD8292896 Si02
#       7
#     4  16   8   8  16  16   8
#     4   8  20  36  56  74  92 120 164 220 260 294
#     4  10  19  36  53  71  97 126 163 215 256 287
#     4  11  18  28  43  71 103 138 164 196 231 276
#     4  10  17  30  44  71 100 137 169 193 231 287
#     4  10  19  31  49  72 101 135 169 195 238 294
#     4   9  19  31  49  72  99 130 168 197 238 293
#     4   9  20  29  42  71 110 135 161 196 227 288
#
# _framework density 17.282665999999999
#
# number of rings (size 3 to 8) (size 9 to 14) (size 15 to 20)
#    0.000    2.526    2.105    2.211    0.000    3.368 
#    0.000    4.211    0.000    0.000    0.000    0.000 
#    0.000   21.895    0.000    0.000    0.000    0.000 
#
# Total GULP energy -470753.133793 kJ/mol
# GULP energy per Si atom -12388.240363 kJ/mol
# Density = 1.724333 g / cm^3
# Si number density = 17.282666 Si / 1000 Ang^3
#
#
#
# Elastic Constant Matrix: (Units=GPa)
#
#
# Indices 1 2 3 4 5 6 
#
# 1 111.9415 28.6106 42.4279 0.0000 0.0000 0.0000
# 2 28.6106 65.8222 32.4953 0.0000 0.0000 0.0000
# 3 42.4279 32.4953 99.8525 0.0000 0.0000 0.0000
# 4 0.0000 0.0000 0.0000 -15.7792 0.0000 0.0000
# 5 0.0000 0.0000 0.0000 0.0000 18.0011 0.0000
# 6 0.0000 0.0000 0.0000 0.0000 0.0000 29.8134
#
#
#
# Elastic Compliance Matrix: (Units=1/GPa)
#
#
# Indices 1 2 3 4 5 6 
#
# 1 0.011118 -0.002979 -0.003755 0.000000 0.000000 0.000000
# 2 -0.002979 0.018899 -0.004884 0.000000 0.000000 0.000000
# 3 -0.003755 -0.004884 0.013200 0.000000 0.000000 0.000000
# 4 0.000000 0.000000 0.000000 -0.063374 0.000000 0.000000
# 5 0.000000 0.000000 0.000000 0.000000 0.055552 0.000000
# 6 0.000000 0.000000 0.000000 0.000000 0.000000 0.033542
#
#
# Mechanical properties :
#
#
# Convention : Reuss Voigt Hill
#
# Bulk Modulus (GPa) = 50.04972 53.85375 51.95173
# Shear Modulus (GPa) = 50.59123 18.01256 34.30190
#
# Velocity S-wave (km/s) = 5.41631 3.23187 4.45989
# Velocity P-wave (km/s) = 8.25454 6.71973 7.52636
#
# Compressibility (1/GPa) = 0.01998013
#
# Stress axis : x y z
#
# Youngs Moduli (GPa) = 89.94718 52.91382 75.75961
#
# Poissons Ratio (x) = 0.15763 0.28444
# Poissons Ratio (y) = 0.26795 0.37005
# Poissons Ratio (z) = 0.33771 0.25846
#
# Static dielectric constant tensor:
#      x y z
#    x 3.454430 0.000000 0.000000 
#    y 0.000000 2.967480 0.000000 
#    z 0.000000 0.000000 3.097710 
# 
# 
# High freq. dielectric constant tensor:
#      x y z
#    x 1.678930 0.000000 0.000000 
#    y 0.000000 1.648140 0.000000 
#    z 0.000000 0.000000 1.640490 
# 
# From -- ./inp_files/43180.got.cif
#   From: 2010.03.12/outbox.cif.g09.slc.cpg/sg72_22_cif.got.tgz:43180.got - 2010.04.16 14:54:00.
