data_PCOD8292269
_publ_section_title
;
Structure prediction by ZEFSAII (Michael W. Deem and Ramdas Pophale) SiO2 
 PCOD8292269
Probable space group: I M M M
;
_chemical_formula_sum "Si O2"
_cell_formula_units_Z 96
_cell_length_a 11.559187
_cell_length_b 28.075585
_cell_length_c 20.382117
_cell_angle_alpha 90.000000
_cell_angle_beta 90.000000
_cell_angle_gamma 90.000000
_cell_volume 6614.627531
_symmetry_space_group_name_H-M "I M M M"
_symmetry_group_IT_number 71
_symmetry_cell_setting 'orthorhombic'
loop_
_space_group_symop_operation_xyz
x,y,z
-x,-y,z
x,-y,-z
-x,y,-z
-x,-y,-z
x,y,-z
-x,y,z
x,-y,z
1/2+x,1/2+y,1/2+z
1/2-x,1/2-y,1/2+z
1/2+x,1/2-y,1/2-z
1/2-x,1/2+y,1/2-z
1/2-x,1/2-y,1/2-z
1/2+x,1/2+y,1/2-z
1/2-x,1/2+y,1/2+z
1/2+x,1/2-y,1/2+z
loop_
_atom_site_type_symbol
_atom_site_label
_atom_site_fract_x
_atom_site_fract_y
_atom_site_fract_z
Si Si1 0.133884 0.444495 0.735792
Si Si2 0.370956 0.310753 0.426446
Si Si3 0.637281 0.223743 0.500000
Si Si4 0.138547 0.382094 0.000000
Si Si5 0.235828 0.100219 0.880633
Si Si6 0.137282 0.552685 0.883551
Si Si7 0.136698 0.445992 0.500000
Si Si8 0.500000 0.555408 0.576622
O O1 0.153026 0.500000 0.719007
O O2 0.212492 0.411781 0.690019
O O3 0.174242 0.433108 0.810004
O O4 0.000000 0.430994 0.725522
O O5 0.377297 0.333254 0.500000
O O6 0.500000 0.312993 0.394958
O O7 0.328730 0.255206 0.434859
O O8 0.280245 0.342265 0.384782
O O9 0.500000 0.218859 0.500000
O O10 0.692948 0.171256 0.500000
O O11 0.186061 0.409123 0.064478
O O12 0.000000 0.380616 0.000000
O O13 0.322823 0.081208 0.935489
O O14 0.111109 0.076986 0.888508
O O15 0.185556 0.500000 0.901071
O O16 0.000000 0.550860 0.887518
O O17 0.187147 0.500000 0.500000
O O18 0.000000 0.447333 0.500000
O O19 0.500000 0.500000 0.589740
O O20 0.500000 0.567792 0.500000
#
# Coordination Sequence:
#
# PCOD8292269 Si02
#       8
#    16  16   8   8  16  16   8   8
#     4   9  18  30  39  52  81 120 145 157 189 243
#     4   8  14  26  38  53  73  98 132 168 213 245
#     4   7  13  22  37  58  81 100 122 165 210 251
#     4   9  13  21  42  69  84  99 128 162 201 241
#     4  12  18  27  40  51  73 107 143 176 206 242
#     4   8  14  24  39  60  87 112 132 155 190 242
#     4  11  21  27  33  49  71 101 141 177 199 233
#     4  11  20  26  36  56  74  95 133 189 231 236
#
# _framework density 14.513287999999999
#
# number of rings (size 3 to 8) (size 9 to 14) (size 15 to 20)
#    0.500    2.167    2.500    3.250    0.000    2.333 
#    0.000    0.000    0.000    1.000    0.000    0.000 
#    0.000    0.667    6.667    4.667    3.333    1.417 
#
# Total GULP energy -594675.436638 kJ/mol
# GULP energy per Si atom -12389.071597 kJ/mol
# Density = 1.448026 g / cm^3
# Si number density = 14.513288 Si / 1000 Ang^3
#
#
#
# Elastic Constant Matrix: (Units=GPa)
#
#
# Indices 1 2 3 4 5 6 
#
# 1 39.7495 27.4687 25.7486 0.0000 0.0000 0.0000
# 2 27.4687 124.3443 60.9604 0.0000 0.0000 0.0000
# 3 25.7486 60.9604 89.7030 -0.0001 0.0001 0.0000
# 4 0.0000 0.0000 -0.0001 16.6107 0.0000 0.0000
# 5 0.0000 0.0000 0.0001 0.0000 10.0394 0.0000
# 6 0.0000 0.0000 0.0000 0.0000 0.0000 8.2889
#
#
#
# Elastic Compliance Matrix: (Units=1/GPa)
#
#
# Indices 1 2 3 4 5 6 
#
# 1 0.032093 -0.003859 -0.006589 0.000000 0.000000 0.000000
# 2 -0.003859 0.012524 -0.007404 0.000000 0.000000 0.000000
# 3 -0.006589 -0.007404 0.018071 0.000000 0.000000 0.000000
# 4 0.000000 0.000000 0.000000 0.060202 0.000000 0.000000
# 5 0.000000 0.000000 0.000000 0.000000 0.099607 0.000000
# 6 0.000000 0.000000 0.000000 0.000000 0.000000 0.120643
#
#
# Mechanical properties :
#
#
# Convention : Reuss Voigt Hill
#
# Bulk Modulus (GPa) = 37.05953 53.57247 45.31600
# Shear Modulus (GPa) = 12.89195 16.29576 14.59385
#
# Velocity S-wave (km/s) = 2.98365 3.35448 3.17448
# Velocity P-wave (km/s) = 6.12045 7.21084 6.68790
#
# Compressibility (1/GPa) = 0.02698362
#
# Stress axis : x y z
#
# Youngs Moduli (GPa) = 31.15961 79.84470 55.33827
#
# Poissons Ratio (x) = 0.30812 0.36465
# Poissons Ratio (y) = 0.12025 0.40970
# Poissons Ratio (z) = 0.20533 0.59114
#
# Static dielectric constant tensor:
#      x y z
#    x 2.416250 0.000000 0.000000 
#    y 0.000000 3.055140 0.000000 
#    z 0.000000 0.000000 2.738630 
# 
# 
# High freq. dielectric constant tensor:
#      x y z
#    x 1.512820 0.000000 0.000000 
#    y 0.000000 1.550140 0.000000 
#    z 0.000000 0.000000 1.533050 
# 
# From -- ./inp_files/52337.got.cif
#   From: 2010.06.25/outbox.cif.g09.slc.cpg/sg71_27_cif.got.tgz:52337.got - 2010.06.28 04:59:45.
