data_PCOD8292569
_publ_section_title
;
Structure prediction by ZEFSAII (Michael W. Deem and Ramdas Pophale) SiO2 
 PCOD8292569
Probable space group: I M M M
;
_chemical_formula_sum "Si O2"
_cell_formula_units_Z 112
_cell_length_a 18.028506
_cell_length_b 14.543206
_cell_length_c 21.663997
_cell_angle_alpha 90.000000
_cell_angle_beta 90.000000
_cell_angle_gamma 90.000000
_cell_volume 5680.132694
_symmetry_space_group_name_H-M "I M M M"
_symmetry_group_IT_number 71
_symmetry_cell_setting 'orthorhombic'
loop_
_space_group_symop_operation_xyz
x,y,z
-x,-y,z
x,-y,-z
-x,y,-z
-x,-y,-z
x,y,-z
-x,y,z
x,-y,z
1/2+x,1/2+y,1/2+z
1/2-x,1/2-y,1/2+z
1/2+x,1/2-y,1/2-z
1/2-x,1/2+y,1/2-z
1/2-x,1/2-y,1/2-z
1/2+x,1/2+y,1/2-z
1/2-x,1/2+y,1/2+z
1/2+x,1/2-y,1/2+z
loop_
_atom_site_type_symbol
_atom_site_label
_atom_site_fract_x
_atom_site_fract_y
_atom_site_fract_z
Si Si1 0.318801 0.749985 0.070297
Si Si2 0.915857 0.749947 0.263761
Si Si3 0.916963 0.895262 0.069756
Si Si4 0.329353 0.249958 0.358296
Si Si5 0.414683 0.605432 0.131339
Si Si6 0.083778 0.604751 0.930903
Si Si7 0.585242 0.894611 0.131175
O O1 0.257023 0.750194 0.124485
O O2 0.367469 0.657823 0.079030
O O3 0.367427 0.842225 0.078937
O O4 0.286966 0.749593 0.000000
O O5 0.849777 0.749624 0.213766
O O6 0.904633 0.841860 0.303909
O O7 0.905149 0.657994 0.303987
O O8 0.000000 0.750539 0.235371
O O9 0.863080 0.841989 0.114112
O O10 0.000000 0.854592 0.074887
O O11 0.916690 0.000000 0.091547
O O12 0.887941 0.886296 0.000000
O O13 0.362659 0.157941 0.386249
O O14 0.500000 0.608921 0.110221
O O15 0.387452 0.500000 0.138447
O O16 0.109857 0.500000 0.930699
O O17 0.000000 0.613732 0.906609
O O18 0.089800 0.645488 0.000000
O O19 0.500000 0.891429 0.109829
O O20 0.612647 0.000000 0.138359
#
# Coordination Sequence:
#
# PCOD8292569 Si02
#       7
#    16  16  16  16  16  16  16
#     4  11  24  38  55  86 121 149 186 232 277 339
#     4   9  19  36  59  87 114 144 190 235 269 326
#     4   9  18  32  49  70 100 145 201 247 275 310
#     4  12  22  33  52  81 119 158 182 215 279 337
#     4   9  20  41  65  85 108 141 184 239 296 340
#     4   9  18  32  49  70 100 145 201 247 275 310
#     4   9  20  41  65  85 108 141 184 239 296 340
#
# _framework density 19.717849000000001
#
# number of rings (size 3 to 8) (size 9 to 14) (size 15 to 20)
#    0.000    2.286    0.000    4.714    0.000    7.429 
#    0.000    5.714    0.000    0.000    0.000    0.000 
#    0.000    0.000    0.000    0.000    0.000    0.000 
#
# Total GULP energy -694261.066001 kJ/mol
# GULP energy per Si atom -12397.519036 kJ/mol
# Density = 1.967297 g / cm^3
# Si number density = 19.717849 Si / 1000 Ang^3
#
#
#
# Elastic Constant Matrix: (Units=GPa)
#
#
# Indices 1 2 3 4 5 6 
#
# 1 78.6579 37.0052 35.3238 0.0000 0.0000 0.0000
# 2 37.0052 137.9696 31.1186 0.0000 0.0000 0.0000
# 3 35.3238 31.1186 81.5364 0.0000 0.0000 0.0000
# 4 0.0000 0.0000 0.0000 23.0175 0.0000 0.0000
# 5 0.0000 0.0000 0.0000 0.0000 27.9532 0.0000
# 6 0.0000 0.0000 0.0000 0.0000 0.0000 23.0855
#
#
#
# Elastic Compliance Matrix: (Units=1/GPa)
#
#
# Indices 1 2 3 4 5 6 
#
# 1 0.016959 -0.003164 -0.006140 0.000000 0.000000 0.000000
# 2 -0.003164 0.008521 -0.001881 0.000000 0.000000 0.000000
# 3 -0.006140 -0.001881 0.015642 0.000000 0.000000 0.000000
# 4 0.000000 0.000000 0.000000 0.043445 0.000000 0.000000
# 5 0.000000 0.000000 0.000000 0.000000 0.035774 0.000000
# 6 0.000000 0.000000 0.000000 0.000000 0.000000 0.043317
#
#
# Mechanical properties :
#
#
# Convention : Reuss Voigt Hill
#
# Bulk Modulus (GPa) = 53.32605 56.11770 54.72187
# Shear Modulus (GPa) = 26.00389 27.79233 26.89811
#
# Velocity S-wave (km/s) = 3.63547 3.75841 3.69745
# Velocity P-wave (km/s) = 6.68771 6.88159 6.78534
#
# Compressibility (1/GPa) = 0.01875256
#
# Stress axis : x y z
#
# Youngs Moduli (GPa) = 58.96614 117.35862 63.92915
#
# Poissons Ratio (x) = 0.37130 0.39250
# Poissons Ratio (y) = 0.18656 0.12027
# Poissons Ratio (z) = 0.36203 0.22079
#
# Static dielectric constant tensor:
#      x y z
#    x 3.571050 0.000000 0.000000 
#    y 0.000000 3.700160 0.000000 
#    z 0.000000 0.000000 3.362490 
# 
# 
# High freq. dielectric constant tensor:
#      x y z
#    x 1.759590 0.000000 0.000000 
#    y 0.000000 1.778520 0.000000 
#    z 0.000000 0.000000 1.750650 
# 
# From -- ./inp_files/59937.got.cif
#   From: 2010.06.25/outbox.cif.g09.slc.cpg/sg71_30_cif.got.tgz:59937.got - 2010.06.28 04:59:45.
