data_PCOD8292066
_publ_section_title
;
Structure prediction by ZEFSAII (Michael W. Deem and Ramdas Pophale) SiO2 
 PCOD8292066
Probable space group: I M M M
;
_chemical_formula_sum "Si O2"
_cell_formula_units_Z 90
_cell_length_a 23.592220
_cell_length_b 22.669572
_cell_length_c 8.737512
_cell_angle_alpha 90.000000
_cell_angle_beta 90.000000
_cell_angle_gamma 90.000000
_cell_volume 4673.044486
_symmetry_space_group_name_H-M "I M M M"
_symmetry_group_IT_number 71
_symmetry_cell_setting 'orthorhombic'
loop_
_space_group_symop_operation_xyz
x,y,z
-x,-y,z
x,-y,-z
-x,y,-z
-x,-y,-z
x,y,-z
-x,y,z
x,-y,z
1/2+x,1/2+y,1/2+z
1/2-x,1/2-y,1/2+z
1/2+x,1/2-y,1/2-z
1/2-x,1/2+y,1/2-z
1/2-x,1/2-y,1/2-z
1/2+x,1/2+y,1/2-z
1/2-x,1/2+y,1/2+z
1/2+x,1/2-y,1/2+z
loop_
_atom_site_type_symbol
_atom_site_label
_atom_site_fract_x
_atom_site_fract_y
_atom_site_fract_z
Si Si1 0.613284 0.500000 0.834387
Si Si2 0.566510 0.933748 0.672634
Si Si3 0.934606 0.226701 0.822104
Si Si4 0.131571 0.666393 0.323148
Si Si5 0.247684 0.685534 0.820195
Si Si6 0.000000 0.000000 0.500000
Si Si7 0.353407 0.379158 0.321392
O O1 0.631399 0.443020 0.739794
O O2 0.645221 0.500000 0.000000
O O3 0.545799 0.500000 0.861250
O O4 0.581116 0.912778 0.500000
O O5 0.500000 0.931510 0.698956
O O6 0.594243 0.891418 0.796837
O O7 0.589120 0.000000 0.699100
O O8 0.903049 0.275859 0.724357
O O9 0.906349 0.163779 0.786550
O O10 0.000000 0.223018 0.771024
O O11 0.928986 0.243580 0.000000
O O12 0.147798 0.672250 0.500000
O O13 0.187941 0.657106 0.224353
O O14 0.250000 0.750000 0.750000
O O15 0.297584 0.644544 0.760237
O O16 0.253220 0.691396 0.000000
O O17 0.340451 0.382668 0.500000
#
# Coordination Sequence:
#
# PCOD8292066 Si02
#       7
#     8  16  16  16  16   2  16
#     4  10  23  43  65  95 129 174 213 268 320 382
#     4   9  19  38  63  88 119 162 206 251 306 367
#     4  10  22  38  60  90 125 164 204 255 314 375
#     4  12  24  38  59  90 125 163 206 256 311 372
#     4  12  24  42  66  92 122 164 208 256 316 380
#     4   8  24  44  70  96 136 180 222 268 328 396
#     4  11  23  42  67  95 127 167 216 270 323 383
#
# _framework density 19.259394
#
# number of rings (size 3 to 8) (size 9 to 14) (size 15 to 20)
#    0.267    1.067    1.778    5.067    1.244    3.911 
#    1.600    1.333    0.000    0.000    0.000    0.000 
#    0.000    0.000    0.000    0.000    0.000    0.000 
#
# Total GULP energy -557622.530539 kJ/mol
# GULP energy per Si atom -12391.611790 kJ/mol
# Density = 1.921556 g / cm^3
# Si number density = 19.259394 Si / 1000 Ang^3
#
#
#
# Elastic Constant Matrix: (Units=GPa)
#
#
# Indices 1 2 3 4 5 6 
#
# 1 119.8866 56.7578 62.0320 0.0000 0.0000 0.0000
# 2 56.7578 128.2844 65.4509 0.0000 0.0000 0.0000
# 3 62.0320 65.4509 128.0782 0.0000 0.0000 0.0000
# 4 0.0000 0.0000 0.0000 32.0398 0.0000 0.0000
# 5 0.0000 0.0000 0.0000 0.0000 32.5948 0.0000
# 6 0.0000 0.0000 0.0000 0.0000 0.0000 -1.2641
#
#
#
# Elastic Compliance Matrix: (Units=1/GPa)
#
#
# Indices 1 2 3 4 5 6 
#
# 1 0.012016 -0.003175 -0.004197 0.000000 0.000000 0.000000
# 2 -0.003175 0.011383 -0.004279 0.000000 0.000000 0.000000
# 3 -0.004197 -0.004279 0.012027 0.000000 0.000000 0.000000
# 4 0.000000 0.000000 0.000000 0.031211 0.000000 0.000000
# 5 0.000000 0.000000 0.000000 0.000000 0.030680 0.000000
# 6 0.000000 0.000000 0.000000 0.000000 0.000000 -0.791057
#
#
# Mechanical properties :
#
#
# Convention : Reuss Voigt Hill
#
# Bulk Modulus (GPa) = 82.48370 82.74784 82.61577
# Shear Modulus (GPa) = -7.50306 25.47467 8.98580
#
# Velocity S-wave (km/s) = -1.97592 3.64086 2.16236
# Velocity P-wave (km/s) = 6.14126 7.79312 7.01597
#
# Compressibility (1/GPa) = 0.01212361
#
# Stress axis : x y z
#
# Youngs Moduli (GPa) = 83.22186 87.84848 83.14297
#
# Poissons Ratio (x) = 0.27891 0.34897
# Poissons Ratio (y) = 0.26422 0.35580
# Poissons Ratio (z) = 0.34931 0.37594
#
# Static dielectric constant tensor:
#      x y z
#    x 3.801220 0.000000 0.000000 
#    y 0.000000 3.482690 0.000000 
#    z 0.000000 0.000000 3.566060 
# 
# 
# High freq. dielectric constant tensor:
#      x y z
#    x 1.758660 0.000000 0.000000 
#    y 0.000000 1.747960 0.000000 
#    z 0.000000 0.000000 1.757670 
# 
# From -- ./inp_files/12626.got.cif
#   From: 2010.06.25/outbox.cif.g09.slc.cpg/sg71_7_cif.got.tgz:12626.got - 2010.06.28 04:59:45.
