data_PCOD8292933
_publ_section_title
;
Structure prediction by ZEFSAII (Michael W. Deem and Ramdas Pophale) SiO2 
 PCOD8292933
Probable space group: I B A M
;
_chemical_formula_sum "Si O2"
_cell_formula_units_Z 96
_cell_length_a 27.560618
_cell_length_b 31.818926
_cell_length_c 8.943478
_cell_angle_alpha 90.000000
_cell_angle_beta 90.000000
_cell_angle_gamma 90.000000
_cell_volume 7842.976456
_symmetry_space_group_name_H-M "I B A M"
_symmetry_group_IT_number 72
_symmetry_cell_setting 'orthorhombic'
loop_
_space_group_symop_operation_xyz
x,y,z
-x,-y,z
x,-y,1/2-z
-x,y,1/2-z
-x,-y,-z
x,y,-z
-x,y,1/2+z
x,-y,1/2+z
1/2+x,1/2+y,1/2+z
1/2-x,1/2-y,1/2+z
1/2+x,1/2-y,-z
1/2-x,1/2+y,-z
1/2-x,1/2-y,1/2-z
1/2+x,1/2+y,1/2-z
1/2-x,1/2+y,z
1/2+x,1/2-y,z
loop_
_atom_site_type_symbol
_atom_site_label
_atom_site_fract_x
_atom_site_fract_y
_atom_site_fract_z
Si Si1 0.691500 0.663473 0.333735
Si Si2 0.948040 0.957128 0.678839
Si Si3 0.447917 0.293293 0.822093
Si Si4 0.108436 0.875428 0.824893
Si Si5 0.720224 0.212894 0.676522
Si Si6 0.135371 0.250955 0.829885
O O1 0.686855 0.645410 0.500000
O O2 0.663955 0.630066 0.229476
O O3 0.748652 0.670010 0.292495
O O4 0.666169 0.708557 0.321405
O O5 0.952757 0.961067 0.500000
O O6 0.912160 0.919993 0.729625
O O7 0.000000 0.947080 0.750000
O O8 0.927094 0.000000 0.750000
O O9 0.500000 0.287658 0.750000
O O10 0.426009 0.337875 0.765705
O O11 0.414319 0.255405 0.761811
O O12 0.451541 0.290839 0.000000
O O13 0.109535 0.873453 0.000000
O O14 0.715230 0.221119 0.500000
O O15 0.750000 0.250000 0.750000
O O16 0.666866 0.211639 0.752153
O O17 0.123476 0.263752 0.000000
#
# Coordination Sequence:
#
# PCOD8292933 Si02
#       6
#    16  16  16  16  16  16
#     4   8  15  24  35  50  66  82 101 124 154 190
#     4  10  19  30  41  53  65  81 104 131 163 201
#     4  10  18  27  37  49  65  85 107 135 166 198
#     4   9  18  28  38  51  66  82 103 130 163 200
#     4   9  15  23  34  49  66  84 104 126 152 186
#     4   9  16  25  35  48  64  84 107 130 156 189
#
# _framework density 12.240251000000001
#
# number of rings (size 3 to 8) (size 9 to 14) (size 15 to 20)
#    0.000    2.833    0.000    4.000    0.000    6.667 
#    0.000    0.000    0.000    0.000    0.000    0.000 
#    0.000    0.000    0.000    0.000    0.000    0.000 
#
# Total GULP energy -594796.144118 kJ/mol
# GULP energy per Si atom -12391.586336 kJ/mol
# Density = 1.221239 g / cm^3
# Si number density = 12.240251 Si / 1000 Ang^3
#
#
#
# Elastic Constant Matrix: (Units=GPa)
#
#
# Indices 1 2 3 4 5 6 
#
# 1 87.0121 45.3455 37.3455 0.0000 0.0000 0.0000
# 2 45.3455 39.8703 21.4521 0.0000 0.0000 0.0000
# 3 37.3455 21.4521 56.7584 0.0000 0.0000 0.0000
# 4 0.0000 0.0000 0.0000 13.9270 0.0000 0.0000
# 5 0.0000 0.0000 0.0000 0.0000 23.9628 0.0000
# 6 0.0000 0.0000 0.0000 0.0000 0.0000 19.9104
#
#
#
# Elastic Compliance Matrix: (Units=1/GPa)
#
#
# Indices 1 2 3 4 5 6 
#
# 1 0.031514 -0.030986 -0.009024 0.000000 0.000000 0.000000
# 2 -0.030986 0.061951 -0.003027 0.000000 0.000000 0.000000
# 3 -0.009024 -0.003027 0.024700 0.000000 0.000000 0.000000
# 4 0.000000 0.000000 0.000000 0.071803 0.000000 0.000000
# 5 0.000000 0.000000 0.000000 0.000000 0.041731 0.000000
# 6 0.000000 0.000000 0.000000 0.000000 0.000000 0.050225
#
#
# Mechanical properties :
#
#
# Convention : Reuss Voigt Hill
#
# Bulk Modulus (GPa) = 31.16087 43.54745 37.35416
# Shear Modulus (GPa) = 13.20321 16.85987 15.03154
#
# Velocity S-wave (km/s) = 3.28788 3.71538 3.50814
# Velocity P-wave (km/s) = 6.31874 7.35254 6.85516
#
# Compressibility (1/GPa) = 0.03209153
#
# Stress axis : x y z
#
# Youngs Moduli (GPa) = 31.73197 16.14169 40.48593
#
# Poissons Ratio (x) = 0.50017 0.36534
# Poissons Ratio (y) = 0.98326 0.12254
# Poissons Ratio (z) = 0.28635 0.04885
#
# Static dielectric constant tensor:
#      x y z
#    x 2.648780 0.000000 0.000000 
#    y 0.000000 2.321270 0.000000 
#    z 0.000000 0.000000 2.640390 
# 
# 
# High freq. dielectric constant tensor:
#      x y z
#    x 1.454770 0.000000 0.000000 
#    y 0.000000 1.407990 0.000000 
#    z 0.000000 0.000000 1.480780 
# 
# From -- ./inp_files/8466.got.cif
#   From: 2010.03.12/outbox.cif.g09.slc.cpg/sg72_5_cif.got.tgz:8466.got - 2010.04.16 14:54:00.
