data_PCOD8292646
_publ_section_title
;
Structure prediction by ZEFSAII (Michael W. Deem and Ramdas Pophale) SiO2 
 PCOD8292646
Probable space group: I M M M
;
_chemical_formula_sum "Si O2"
_cell_formula_units_Z 88
_cell_length_a 17.003529
_cell_length_b 9.675522
_cell_length_c 30.460590
_cell_angle_alpha 90.000000
_cell_angle_beta 90.000000
_cell_angle_gamma 90.000000
_cell_volume 5011.315922
_symmetry_space_group_name_H-M "I M M M"
_symmetry_group_IT_number 71
_symmetry_cell_setting 'orthorhombic'
loop_
_space_group_symop_operation_xyz
x,y,z
-x,-y,z
x,-y,-z
-x,y,-z
-x,-y,-z
x,y,-z
-x,y,z
x,-y,z
1/2+x,1/2+y,1/2+z
1/2-x,1/2-y,1/2+z
1/2+x,1/2-y,1/2-z
1/2-x,1/2+y,1/2-z
1/2-x,1/2-y,1/2-z
1/2+x,1/2+y,1/2-z
1/2-x,1/2+y,1/2+z
1/2+x,1/2-y,1/2+z
loop_
_atom_site_type_symbol
_atom_site_label
_atom_site_fract_x
_atom_site_fract_y
_atom_site_fract_z
Si Si1 0.130513 0.835820 0.881723
Si Si2 0.500000 0.335124 0.449386
Si Si3 0.589789 0.348383 0.285918
Si Si4 0.807048 0.335401 0.375573
Si Si5 0.908071 0.338780 0.292479
Si Si6 0.087235 0.335864 0.451844
O O1 0.077314 0.780745 0.922568
O O2 0.095674 0.787222 0.835018
O O3 0.219162 0.776552 0.881983
O O4 0.129804 0.000000 0.884407
O O5 0.500000 0.500000 0.450443
O O6 0.500000 0.278868 0.500000
O O7 0.500000 0.368917 0.273699
O O8 0.632087 0.500000 0.282832
O O9 0.624192 0.241749 0.250364
O O10 0.805663 0.500000 0.376866
O O11 0.851294 0.286680 0.331530
O O12 0.854946 0.271145 0.416153
O O13 0.896410 0.500000 0.283136
O O14 0.000000 0.308734 0.303884
O O15 0.118078 0.293432 0.500000
O O16 0.084628 0.500000 0.447232
O O17 0.000000 0.276380 0.443993
#
# Coordination Sequence:
#
# PCOD8292646 Si02
#       6
#    16   8  16  16  16  16
#     4   9  16  26  39  56  78 107 141 175 214 258
#     4   9  16  26  40  58  81 109 143 183 222 259
#     4   9  16  28  45  60  81 115 149 176 208 255
#     4   9  16  24  36  55  81 109 137 174 216 254
#     4   9  17  28  42  62  87 114 144 178 214 249
#     4   8  13  21  33  49  72 105 139 165 197 249
#
# _framework density 17.560258000000001
#
# number of rings (size 3 to 8) (size 9 to 14) (size 15 to 20)
#    0.000    3.182    0.909    1.091    0.000    3.636 
#    0.000    3.636    0.000    0.000    0.000    0.000 
#    0.000    2.182    0.000   10.000    0.000   12.545 
#
# Total GULP energy -545086.142588 kJ/mol
# GULP energy per Si atom -12388.321422 kJ/mol
# Density = 1.752029 g / cm^3
# Si number density = 17.560258 Si / 1000 Ang^3
#
#
#
# Elastic Constant Matrix: (Units=GPa)
#
#
# Indices 1 2 3 4 5 6 
#
# 1 101.0139 17.7075 77.3682 0.0000 0.0000 0.0000
# 2 17.7075 18.4438 31.1200 0.0000 0.0000 0.0000
# 3 77.3682 31.1200 178.1886 0.0000 0.0000 0.0000
# 4 0.0000 0.0000 0.0000 16.8166 0.0000 0.0000
# 5 0.0000 0.0000 0.0000 0.0000 15.1603 0.0000
# 6 0.0000 0.0000 0.0000 0.0000 0.0000 6.0293
#
#
#
# Elastic Compliance Matrix: (Units=1/GPa)
#
#
# Indices 1 2 3 4 5 6 
#
# 1 0.015136 -0.004881 -0.005719 0.000000 0.000000 0.000000
# 2 -0.004881 0.078445 -0.011581 0.000000 0.000000 0.000000
# 3 -0.005719 -0.011581 0.010118 0.000000 0.000000 0.000000
# 4 0.000000 0.000000 0.000000 0.059465 0.000000 0.000000
# 5 0.000000 0.000000 0.000000 0.000000 0.065962 0.000000
# 6 0.000000 0.000000 0.000000 0.000000 0.000000 0.165856
#
#
# Mechanical properties :
#
#
# Convention : Reuss Voigt Hill
#
# Bulk Modulus (GPa) = 16.85315 61.11530 38.98422
# Shear Modulus (GPa) = 10.89031 19.03127 14.96079
#
# Velocity S-wave (km/s) = 2.49302 3.29564 2.92202
# Velocity P-wave (km/s) = 4.23143 7.02569 5.79937
#
# Compressibility (1/GPa) = 0.05933608
#
# Stress axis : x y z
#
# Youngs Moduli (GPa) = 66.06809 12.74774 98.83490
#
# Poissons Ratio (x) = 0.06223 0.56528
# Poissons Ratio (y) = 0.32250 1.14458
# Poissons Ratio (z) = 0.37787 0.14763
#
# Static dielectric constant tensor:
#      x y z
#    x 3.468530 0.000000 0.000000 
#    y 0.000000 2.682030 0.000000 
#    z 0.000000 0.000000 3.522200 
# 
# 
# High freq. dielectric constant tensor:
#      x y z
#    x 1.678780 0.000000 0.000000 
#    y 0.000000 1.592710 0.000000 
#    z 0.000000 0.000000 1.692090 
# 
# From -- ./inp_files/22509.got.cif
#   From: 2010.06.25/outbox.cif.g09.slc.cpg/sg71_12_cif.got.tgz:22509.got - 2010.06.28 04:59:45.
