data_PCOD8292054
_publ_section_title
;
Structure prediction by ZEFSAII (Michael W. Deem and Ramdas Pophale) SiO2 
 PCOD8292054
Probable space group: I M M M
;
_chemical_formula_sum "Si O2"
_cell_formula_units_Z 112
_cell_length_a 23.645103
_cell_length_b 13.166680
_cell_length_c 18.736702
_cell_angle_alpha 90.000000
_cell_angle_beta 90.000000
_cell_angle_gamma 90.000000
_cell_volume 5833.250681
_symmetry_space_group_name_H-M "I M M M"
_symmetry_group_IT_number 71
_symmetry_cell_setting 'orthorhombic'
loop_
_space_group_symop_operation_xyz
x,y,z
-x,-y,z
x,-y,-z
-x,y,-z
-x,-y,-z
x,y,-z
-x,y,z
x,-y,z
1/2+x,1/2+y,1/2+z
1/2-x,1/2-y,1/2+z
1/2+x,1/2-y,1/2-z
1/2-x,1/2+y,1/2-z
1/2-x,1/2-y,1/2-z
1/2+x,1/2+y,1/2-z
1/2-x,1/2+y,1/2+z
1/2+x,1/2-y,1/2+z
loop_
_atom_site_type_symbol
_atom_site_label
_atom_site_fract_x
_atom_site_fract_y
_atom_site_fract_z
Si Si1 0.438047 0.619216 0.078699
Si Si2 0.348786 0.733703 0.836827
Si Si3 0.264845 0.726083 0.585315
Si Si4 0.147382 0.610386 0.918429
Si Si5 0.937283 0.251077 0.850907
Si Si6 0.660978 0.381666 0.306548
Si Si7 0.062377 0.616525 0.289799
O O1 0.500000 0.657573 0.105590
O O2 0.439079 0.500000 0.072746
O O3 0.389624 0.646793 0.133905
O O4 0.425650 0.665418 0.000000
O O5 0.299587 0.757590 0.892613
O O6 0.324924 0.691340 0.761384
O O7 0.386426 0.836321 0.835283
O O8 0.269682 0.704494 0.500000
O O9 0.298629 0.827153 0.610058
O O10 0.292041 0.634247 0.631363
O O11 0.143503 0.500000 0.879066
O O12 0.091208 0.678213 0.910709
O O13 0.156978 0.588123 0.000000
O O14 0.900810 0.149497 0.836716
O O15 0.939852 0.321079 0.782310
O O16 0.000000 0.217899 0.875693
O O17 0.660622 0.500000 0.284800
O O18 0.077479 0.500000 0.274073
O O19 0.000000 0.624524 0.327004
#
# Coordination Sequence:
#
# PCOD8292054 Si02
#       7
#    16  16  16  16  16  16  16
#     4   9  18  32  51  79 115 149 177 213 270 334
#     4  11  20  34  56  83 106 135 182 231 272 317
#     4  10  22  39  56  76 105 143 187 228 270 326
#     4   9  18  32  50  74 104 135 168 215 273 322
#     4   9  18  33  53  77 104 135 172 211 256 317
#     4  10  22  38  55  79 111 143 176 222 276 322
#     4   9  18  32  50  74 105 137 167 207 262 317
#
# _framework density 19.200271999999998
#
# number of rings (size 3 to 8) (size 9 to 14) (size 15 to 20)
#    0.000    2.429    0.000    2.571    0.000    4.000 
#    0.000    2.143    0.000    1.286    0.000    9.000 
#    0.000    0.000    0.000    0.000    0.000    0.000 
#
# Total GULP energy -693943.573117 kJ/mol
# GULP energy per Si atom -12391.849520 kJ/mol
# Density = 1.915657 g / cm^3
# Si number density = 19.200272 Si / 1000 Ang^3
#
#
#
# Elastic Constant Matrix: (Units=GPa)
#
#
# Indices 1 2 3 4 5 6 
#
# 1 127.2438 30.0251 37.8312 0.0000 0.0000 0.0000
# 2 30.0251 78.3389 16.8451 0.0000 0.0000 0.0000
# 3 37.8312 16.8451 65.2536 0.0000 0.0000 0.0000
# 4 0.0000 0.0000 0.0000 20.2260 0.0000 0.0000
# 5 0.0000 0.0000 0.0000 0.0000 50.5124 0.0000
# 6 0.0000 0.0000 0.0000 0.0000 0.0000 40.2964
#
#
#
# Elastic Compliance Matrix: (Units=1/GPa)
#
#
# Indices 1 2 3 4 5 6 
#
# 1 0.010024 -0.002745 -0.005103 0.000000 0.000000 0.000000
# 2 -0.002745 0.014267 -0.002092 0.000000 0.000000 0.000000
# 3 -0.005103 -0.002092 0.018823 0.000000 0.000000 0.000000
# 4 0.000000 0.000000 0.000000 0.049441 0.000000 0.000000
# 5 0.000000 0.000000 0.000000 0.000000 0.019797 0.000000
# 6 0.000000 0.000000 0.000000 0.000000 0.000000 0.024816
#
#
# Mechanical properties :
#
#
# Convention : Reuss Voigt Hill
#
# Bulk Modulus (GPa) = 43.03776 48.91545 45.97661
# Shear Modulus (GPa) = 30.34136 34.61595 32.47866
#
# Velocity S-wave (km/s) = 3.97956 4.25065 4.11734
# Velocity P-wave (km/s) = 6.60149 7.04432 6.82650
#
# Compressibility (1/GPa) = 0.02323541
#
# Stress axis : x y z
#
# Youngs Moduli (GPa) = 99.76390 70.09309 53.12596
#
# Poissons Ratio (x) = 0.19237 0.27109
# Poissons Ratio (y) = 0.27381 0.11113
# Poissons Ratio (z) = 0.50907 0.14662
#
# Static dielectric constant tensor:
#      x y z
#    x 3.802790 0.000000 0.000000 
#    y 0.000000 3.677390 0.000000 
#    z 0.000000 0.000000 3.460840 
# 
# 
# High freq. dielectric constant tensor:
#      x y z
#    x 1.753180 0.000000 0.000000 
#    y 0.000000 1.736330 0.000000 
#    z 0.000000 0.000000 1.731300 
# 
# From -- ./inp_files/55775.got.cif
#   From: 2010.06.25/outbox.cif.g09.slc.cpg/sg71_28_cif.got.tgz:55775.got - 2010.06.28 04:59:45.
