data_PCOD8292392
_publ_section_title
;
Structure prediction by ZEFSAII (Michael W. Deem and Ramdas Pophale) SiO2 
 PCOD8292392
Probable space group: I M M M
;
_chemical_formula_sum "Si O2"
_cell_formula_units_Z 96
_cell_length_a 11.729461
_cell_length_b 15.012090
_cell_length_c 27.722403
_cell_angle_alpha 90.000000
_cell_angle_beta 90.000000
_cell_angle_gamma 90.000000
_cell_volume 4881.463964
_symmetry_space_group_name_H-M "I M M M"
_symmetry_group_IT_number 71
_symmetry_cell_setting 'orthorhombic'
loop_
_space_group_symop_operation_xyz
x,y,z
-x,-y,z
x,-y,-z
-x,y,-z
-x,-y,-z
x,y,-z
-x,y,z
x,-y,z
1/2+x,1/2+y,1/2+z
1/2-x,1/2-y,1/2+z
1/2+x,1/2-y,1/2-z
1/2-x,1/2+y,1/2-z
1/2-x,1/2-y,1/2-z
1/2+x,1/2+y,1/2-z
1/2-x,1/2+y,1/2+z
1/2+x,1/2-y,1/2+z
loop_
_atom_site_type_symbol
_atom_site_label
_atom_site_fract_x
_atom_site_fract_y
_atom_site_fract_z
Si Si1 0.773131 0.601390 0.611073
Si Si2 0.872023 0.605318 0.185317
Si Si3 0.000000 0.145761 0.555945
Si Si4 0.257327 0.601414 0.908543
Si Si5 0.500000 0.143218 0.944554
Si Si6 0.372873 0.105834 0.791003
Si Si7 0.871206 0.761102 0.054028
O O1 0.727748 0.500000 0.611404
O O2 0.889328 0.603863 0.580893
O O3 0.792560 0.638836 0.665445
O O4 0.677698 0.664085 0.588903
O O5 0.879234 0.500000 0.186936
O O6 0.781088 0.634974 0.144799
O O7 0.829372 0.638863 0.238224
O O8 0.000000 0.642342 0.174047
O O9 0.107467 0.106579 0.584648
O O10 0.000000 0.251090 0.559217
O O11 0.000000 0.113954 0.500000
O O12 0.216185 0.500000 0.917999
O O13 0.197800 0.668289 0.945807
O O14 0.500000 0.112316 0.000000
O O15 0.500000 0.143699 0.799546
O O16 0.377078 0.000000 0.793200
O O17 0.000000 0.741041 0.069714
O O18 0.863449 0.799172 0.000000
#
# Coordination Sequence:
#
# PCOD8292392 Si02
#       7
#    16  16   8  16   8  16  16
#     4  11  21  36  61  88 116 151 193 239 286 343
#     4   8  15  30  55  85 115 148 188 234 283 335
#     4  11  23  39  59  84 121 159 186 231 297 349
#     4  11  22  38  62  87 114 150 192 236 284 344
#     4  11  21  35  57  86 119 153 190 237 289 339
#     4   8  14  28  53  86 117 146 184 232 287 342
#     4  11  25  42  58  80 115 154 193 241 290 339
#
# _framework density 19.666232000000001
#
# number of rings (size 3 to 8) (size 9 to 14) (size 15 to 20)
#    0.000    2.000    2.500    3.000    0.000    4.667 
#    0.000    2.500    1.833    0.000    0.000    0.000 
#    0.000    0.000    0.000    0.000    0.000    0.000 
#
# Total GULP energy -595004.085780 kJ/mol
# GULP energy per Si atom -12395.918454 kJ/mol
# Density = 1.962147 g / cm^3
# Si number density = 19.666232 Si / 1000 Ang^3
#
#
#
# Elastic Constant Matrix: (Units=GPa)
#
#
# Indices 1 2 3 4 5 6 
#
# 1 118.8412 25.5850 61.5310 0.0000 0.0000 0.0000
# 2 25.5850 70.5318 24.7805 0.0000 0.0000 0.0000
# 3 61.5310 24.7805 149.1829 0.0000 0.0000 0.0000
# 4 0.0000 0.0000 0.0000 16.2231 0.0000 0.0000
# 5 0.0000 0.0000 0.0000 0.0000 37.8796 0.0000
# 6 0.0000 0.0000 0.0000 0.0000 0.0000 19.9424
#
#
#
# Elastic Compliance Matrix: (Units=1/GPa)
#
#
# Indices 1 2 3 4 5 6 
#
# 1 0.011122 -0.002573 -0.004160 0.000000 0.000000 0.000000
# 2 -0.002573 0.015652 -0.001539 0.000000 0.000000 0.000000
# 3 -0.004160 -0.001539 0.008675 0.000000 0.000000 0.000000
# 4 0.000000 0.000000 0.000000 0.061641 0.000000 0.000000
# 5 0.000000 0.000000 0.000000 0.000000 0.026399 0.000000
# 6 0.000000 0.000000 0.000000 0.000000 0.000000 0.050145
#
#
# Mechanical properties :
#
#
# Convention : Reuss Voigt Hill
#
# Bulk Modulus (GPa) = 52.89476 62.48321 57.68899
# Shear Modulus (GPa) = 25.44803 29.91964 27.68383
#
# Velocity S-wave (km/s) = 3.60112 3.90471 3.75598
# Velocity P-wave (km/s) = 6.65172 7.22287 6.94317
#
# Compressibility (1/GPa) = 0.01890546
#
# Stress axis : x y z
#
# Youngs Moduli (GPa) = 89.90822 63.88983 115.27894
#
# Poissons Ratio (x) = 0.16439 0.47957
# Poissons Ratio (y) = 0.23133 0.17738
# Poissons Ratio (z) = 0.37403 0.09830
#
# Static dielectric constant tensor:
#      x y z
#    x 3.509540 0.000000 0.000000 
#    y 0.000000 3.349050 0.000000 
#    z 0.000000 0.000000 4.103460 
# 
# 
# High freq. dielectric constant tensor:
#      x y z
#    x 1.748980 0.000000 0.000000 
#    y 0.000000 1.744930 0.000000 
#    z 0.000000 0.000000 1.781320 
# 
# From -- ./inp_files/69262.got.cif
#   From: 2010.06.25/outbox.cif.g09.slc.cpg/sg71_35_cif.got.tgz:69262.got - 2010.06.28 04:59:45.
