data_PCOD8292956
_publ_section_title
;
Structure prediction by ZEFSAII (Michael W. Deem and Ramdas Pophale) SiO2 
 PCOD8292956
Probable space group: I B A M
;
_chemical_formula_sum "Si O2"
_cell_formula_units_Z 80
_cell_length_a 22.503853
_cell_length_b 12.587870
_cell_length_c 14.774758
_cell_angle_alpha 90.000000
_cell_angle_beta 90.000000
_cell_angle_gamma 90.000000
_cell_volume 4185.328084
_symmetry_space_group_name_H-M "I B A M"
_symmetry_group_IT_number 72
_symmetry_cell_setting 'orthorhombic'
loop_
_space_group_symop_operation_xyz
x,y,z
-x,-y,z
x,-y,1/2-z
-x,y,1/2-z
-x,-y,-z
x,y,-z
-x,y,1/2+z
x,-y,1/2+z
1/2+x,1/2+y,1/2+z
1/2-x,1/2-y,1/2+z
1/2+x,1/2-y,-z
1/2-x,1/2+y,-z
1/2-x,1/2-y,1/2-z
1/2+x,1/2+y,1/2-z
1/2-x,1/2+y,z
1/2+x,1/2-y,z
loop_
_atom_site_type_symbol
_atom_site_label
_atom_site_fract_x
_atom_site_fract_y
_atom_site_fract_z
Si Si1 0.358495 0.783425 0.899319
Si Si2 0.933380 0.475459 0.645444
Si Si3 0.333925 0.872073 0.400453
Si Si4 0.750599 0.945595 0.602622
Si Si5 0.311879 0.695906 0.268966
O O1 0.417051 0.852769 0.875692
O O2 0.301343 0.858779 0.894038
O O3 0.349349 0.687829 0.825386
O O4 0.365057 0.733763 0.000000
O O5 0.923551 0.500000 0.750000
O O6 0.890350 0.551519 0.589102
O O7 0.000000 0.500000 0.613722
O O8 0.319516 0.825772 0.500000
O O9 0.348292 0.776423 0.333487
O O10 0.276264 0.940460 0.366981
O O11 0.775988 0.952002 0.500000
O O12 0.802071 0.914176 0.675366
O O13 0.250000 0.750000 0.250000
#
# Coordination Sequence:
#
# PCOD8292956 Si02
#       5
#    16  16  16  16  16
#     4   9  17  28  40  57  82 112 149 184 216 254
#     4  10  18  29  45  63  88 121 156 186 221 267
#     4  10  19  31  47  67  91 120 157 188 224 269
#     4   8  16  28  43  63  85 112 147 188 222 265
#     4  10  18  28  45  60  85 118 154 186 229 263
#
# _framework density 19.114391000000001
#
# number of rings (size 3 to 8) (size 9 to 14) (size 15 to 20)
#    0.000    2.600    2.000    2.400    0.000    2.400 
#    0.000    0.000    0.000    1.200    0.000    0.000 
#    0.000    0.000    0.000   50.400    0.000  267.600 
#
# Total GULP energy -495641.576628 kJ/mol
# GULP energy per Si atom -12391.039416 kJ/mol
# Density = 1.907089 g / cm^3
# Si number density = 19.114391 Si / 1000 Ang^3
#
#
#
# Elastic Constant Matrix: (Units=GPa)
#
#
# Indices 1 2 3 4 5 6 
#
# 1 62.5326 19.9256 33.4697 0.0000 0.0000 0.0000
# 2 19.9256 30.1333 39.1092 0.0000 0.0000 0.0000
# 3 33.4697 39.1092 146.9044 0.0000 0.0000 0.0000
# 4 0.0000 0.0000 0.0000 15.8813 0.0000 0.0000
# 5 0.0000 0.0000 0.0000 0.0000 15.0793 0.0000
# 6 0.0000 0.0000 0.0000 0.0000 0.0000 21.1062
#
#
#
# Elastic Compliance Matrix: (Units=1/GPa)
#
#
# Indices 1 2 3 4 5 6 
#
# 1 0.020511 -0.011456 -0.001623 0.000000 0.000000 0.000000
# 2 -0.011456 0.057104 -0.012592 0.000000 0.000000 0.000000
# 3 -0.001623 -0.012592 0.010529 0.000000 0.000000 0.000000
# 4 0.000000 0.000000 0.000000 0.062967 0.000000 0.000000
# 5 0.000000 0.000000 0.000000 0.000000 0.066316 0.000000
# 6 0.000000 0.000000 0.000000 0.000000 0.000000 0.047380
#
#
# Mechanical properties :
#
#
# Convention : Reuss Voigt Hill
#
# Bulk Modulus (GPa) = 27.17290 47.17547 37.17418
# Shear Modulus (GPa) = 15.22451 20.21773 17.72112
#
# Velocity S-wave (km/s) = 2.82529 3.25579 3.04815
# Velocity P-wave (km/s) = 4.98897 6.23440 5.64613
#
# Compressibility (1/GPa) = 0.03680137
#
# Stress axis : x y z
#
# Youngs Moduli (GPa) = 48.75469 17.51178 94.97259
#
# Poissons Ratio (x) = 0.20061 0.15416
# Poissons Ratio (y) = 0.55853 1.19593
# Poissons Ratio (z) = 0.07914 0.22052
#
# Static dielectric constant tensor:
#      x y z
#    x 3.201810 0.000000 0.000000 
#    y 0.000000 3.869850 0.000000 
#    z 0.000000 0.000000 4.123420 
# 
# 
# High freq. dielectric constant tensor:
#      x y z
#    x 1.680060 0.000000 0.000000 
#    y 0.000000 1.697720 0.000000 
#    z 0.000000 0.000000 1.777830 
# 
# From -- ./inp_files/20185.got.cif
#   From: 2010.03.12/outbox.cif.g09.slc.cpg/sg72_11_cif.got.tgz:20185.got - 2010.04.16 14:54:00.
