data_PCOD8292967
_publ_section_title
;
Structure prediction by ZEFSAII (Michael W. Deem and Ramdas Pophale) SiO2 
 PCOD8292967
Probable space group: I B A M
;
_chemical_formula_sum "Si O2"
_cell_formula_units_Z 116
_cell_length_a 26.286397
_cell_length_b 27.183376
_cell_length_c 9.366323
_cell_angle_alpha 90.000000
_cell_angle_beta 90.000000
_cell_angle_gamma 90.000000
_cell_volume 6692.734324
_symmetry_space_group_name_H-M "I B A M"
_symmetry_group_IT_number 72
_symmetry_cell_setting 'orthorhombic'
loop_
_space_group_symop_operation_xyz
x,y,z
-x,-y,z
x,-y,1/2-z
-x,y,1/2-z
-x,-y,-z
x,y,-z
-x,y,1/2+z
x,-y,1/2+z
1/2+x,1/2+y,1/2+z
1/2-x,1/2-y,1/2+z
1/2+x,1/2-y,-z
1/2-x,1/2+y,-z
1/2-x,1/2-y,1/2-z
1/2+x,1/2+y,1/2-z
1/2-x,1/2+y,z
1/2+x,1/2-y,z
loop_
_atom_site_type_symbol
_atom_site_label
_atom_site_fract_x
_atom_site_fract_y
_atom_site_fract_z
Si Si1 0.748261 0.627662 0.840270
Si Si2 0.678259 0.215278 0.162014
Si Si3 0.191236 0.548755 0.171240
Si Si4 0.952744 0.213828 0.164478
Si Si5 0.000000 0.500000 0.750000
Si Si6 0.340330 0.691603 0.665423
Si Si7 0.918915 0.575210 0.340658
Si Si8 0.085095 0.681662 0.166609
O O1 0.771500 0.682317 0.833980
O O2 0.771252 0.592337 0.720287
O O3 0.688178 0.639128 0.810868
O O4 0.756133 0.605157 0.000000
O O5 0.687380 0.266792 0.240928
O O6 0.635931 0.183543 0.242109
O O7 0.660934 0.225897 0.000000
O O8 0.211123 0.500000 0.250000
O O9 0.133838 0.558482 0.234177
O O10 0.194359 0.542883 0.000000
O O11 0.899871 0.187642 0.210337
O O12 0.950722 0.272195 0.203009
O O13 0.000000 0.190487 0.250000
O O14 0.964452 0.204908 0.000000
O O15 0.036439 0.465049 0.658673
O O16 0.337711 0.708144 0.500000
O O17 0.900376 0.582704 0.500000
O O18 0.939649 0.628672 0.288024
O O19 0.099540 0.683939 0.000000
#
# Coordination Sequence:
#
# PCOD8292967 Si02
#       8
#    16  16  16  16   4  16  16  16
#     4  10  20  34  52  76 101 131 167 205 252 307
#     4  10  18  28  47  76 101 125 163 208 251 297
#     4  11  22  38  57  76  99 130 168 212 264 314
#     4   9  18  31  49  69  96 132 166 203 243 291
#     4  12  22  36  52  70  92 120 174 232 280 304
#     4   9  19  34  50  70 103 138 167 199 246 306
#     4  10  21  36  51  67  90 125 168 216 269 316
#     4   9  18  34  49  64  91 129 168 204 256 312
#
# _framework density 17.332229999999999
#
# number of rings (size 3 to 8) (size 9 to 14) (size 15 to 20)
#    0.000    2.207    2.069    2.276    0.966    3.310 
#    0.000    1.379    0.000    0.000    0.000    0.000 
#    0.000    0.552    0.000    6.345    0.000    1.931 
#
# Total GULP energy -718616.341459 kJ/mol
# GULP energy per Si atom -12389.936922 kJ/mol
# Density = 1.729278 g / cm^3
# Si number density = 17.332230 Si / 1000 Ang^3
#
#
#
# Elastic Constant Matrix: (Units=GPa)
#
#
# Indices 1 2 3 4 5 6 
#
# 1 98.3568 44.6620 38.9415 0.0000 0.0000 0.0000
# 2 44.6620 60.4715 24.2432 0.0000 0.0000 0.0000
# 3 38.9415 24.2432 61.3131 0.0000 0.0000 0.0000
# 4 0.0000 0.0000 0.0000 22.9742 0.0000 0.0000
# 5 0.0000 0.0000 0.0000 0.0000 21.4666 0.0000
# 6 0.0000 0.0000 0.0000 0.0000 0.0000 24.4328
#
#
#
# Elastic Compliance Matrix: (Units=1/GPa)
#
#
# Indices 1 2 3 4 5 6 
#
# 1 0.017607 -0.010126 -0.007179 0.000000 0.000000 0.000000
# 2 -0.010126 0.025475 -0.003642 0.000000 0.000000 0.000000
# 3 -0.007179 -0.003642 0.022309 0.000000 0.000000 0.000000
# 4 0.000000 0.000000 0.000000 0.043527 0.000000 0.000000
# 5 0.000000 0.000000 0.000000 0.000000 0.046584 0.000000
# 6 0.000000 0.000000 0.000000 0.000000 0.000000 0.040929
#
#
# Mechanical properties :
#
#
# Convention : Reuss Voigt Hill
#
# Bulk Modulus (GPa) = 42.55596 48.42611 45.49104
# Shear Modulus (GPa) = 20.31212 21.26102 20.78657
#
# Velocity S-wave (km/s) = 3.42706 3.50619 3.46685
# Velocity P-wave (km/s) = 6.34555 6.66271 6.50607
#
# Compressibility (1/GPa) = 0.02349847
#
# Stress axis : x y z
#
# Youngs Moduli (GPa) = 56.79400 39.25356 44.82441
#
# Poissons Ratio (x) = 0.39749 0.32180
# Poissons Ratio (y) = 0.57510 0.16323
# Poissons Ratio (z) = 0.40773 0.14295
#
# Static dielectric constant tensor:
#      x y z
#    x 3.152710 0.000000 0.000000 
#    y 0.000000 3.084070 0.000000 
#    z 0.000000 0.000000 3.145450 
# 
# 
# High freq. dielectric constant tensor:
#      x y z
#    x 1.658540 0.000000 0.000000 
#    y 0.000000 1.637900 0.000000 
#    z 0.000000 0.000000 1.665730 
# 
# From -- ./inp_files/8691.got.cif
#   From: 2010.03.12/outbox.cif.g09.slc.cpg/sg72_5_cif.got.tgz:8691.got - 2010.04.16 14:54:00.
