data_PCOD8292838
_publ_section_title
;
Structure prediction by ZEFSAII (Michael W. Deem and Ramdas Pophale) SiO2 
 PCOD8292838
Probable space group: I B A M
;
_chemical_formula_sum "Si O2"
_cell_formula_units_Z 84
_cell_length_a 26.315665
_cell_length_b 12.468709
_cell_length_c 14.532099
_cell_angle_alpha 90.000000
_cell_angle_beta 90.000000
_cell_angle_gamma 90.000000
_cell_volume 4768.306751
_symmetry_space_group_name_H-M "I B A M"
_symmetry_group_IT_number 72
_symmetry_cell_setting 'orthorhombic'
loop_
_space_group_symop_operation_xyz
x,y,z
-x,-y,z
x,-y,1/2-z
-x,y,1/2-z
-x,-y,-z
x,y,-z
-x,y,1/2+z
x,-y,1/2+z
1/2+x,1/2+y,1/2+z
1/2-x,1/2-y,1/2+z
1/2+x,1/2-y,-z
1/2-x,1/2+y,-z
1/2-x,1/2-y,1/2-z
1/2+x,1/2+y,1/2-z
1/2-x,1/2+y,z
1/2+x,1/2-y,z
loop_
_atom_site_type_symbol
_atom_site_label
_atom_site_fract_x
_atom_site_fract_y
_atom_site_fract_z
Si Si1 0.663785 0.888530 0.608043
Si Si2 0.802610 0.196776 0.276069
Si Si3 0.578653 0.060643 0.605381
Si Si4 0.659445 0.761856 0.099069
Si Si5 0.000000 0.500000 0.250000
Si Si6 0.244644 0.443145 0.602299
O O1 0.666062 0.864682 0.500000
O O2 0.662940 0.777392 0.662809
O O3 0.614333 0.959252 0.632095
O O4 0.715042 0.951956 0.638866
O O5 0.750000 0.250000 0.250000
O O6 0.833417 0.175051 0.180886
O O7 0.792013 0.086316 0.331118
O O8 0.558713 0.046236 0.500000
O O9 0.608098 0.172096 0.613529
O O10 0.533845 0.070921 0.680166
O O11 0.705743 0.844820 0.099467
O O12 0.658235 0.701978 0.000000
O O13 0.265999 0.464290 0.500000
#
# Coordination Sequence:
#
# PCOD8292838 Si02
#       6
#    16  16  16  16   4  16
#     4   9  17  30  43  55  79 110 136 166 205 241
#     4  10  17  23  39  59  74  97 135 172 201 231
#     4   9  18  29  40  54  74 103 135 167 203 242
#     4   8  15  27  37  48  71  99 126 158 195 230
#     4  12  18  24  40  58  76  92 130 178 212 238
#     4   8  15  26  39  56  75  96 130 171 199 228
#
# _framework density 17.616316000000001
#
# number of rings (size 3 to 8) (size 9 to 14) (size 15 to 20)
#    0.000    3.048    0.000    4.286    0.000    6.857 
#    0.000    0.000    0.000    1.143    0.000    0.000 
#    0.000    0.000    0.000    0.000    0.000  243.810 
#
# Total GULP energy -520360.415189 kJ/mol
# GULP energy per Si atom -12389.533695 kJ/mol
# Density = 1.757622 g / cm^3
# Si number density = 17.616316 Si / 1000 Ang^3
#
#
#
# Elastic Constant Matrix: (Units=GPa)
#
#
# Indices 1 2 3 4 5 6 
#
# 1 58.4945 15.8992 57.6312 0.0000 0.0000 0.0000
# 2 15.8992 22.9081 32.0212 0.0000 0.0000 0.0000
# 3 57.6312 32.0212 137.8024 0.0000 0.0000 0.0000
# 4 0.0000 0.0000 0.0000 15.8809 0.0000 0.0000
# 5 0.0000 0.0000 0.0000 0.0000 34.5060 0.0000
# 6 0.0000 0.0000 0.0000 0.0000 0.0000 12.5499
#
#
#
# Elastic Compliance Matrix: (Units=1/GPa)
#
#
# Indices 1 2 3 4 5 6 
#
# 1 0.029424 -0.004770 -0.011197 0.000000 0.000000 0.000000
# 2 -0.004770 0.065426 -0.013208 0.000000 0.000000 0.000000
# 3 -0.011197 -0.013208 0.015009 0.000000 0.000000 0.000000
# 4 0.000000 0.000000 0.000000 0.062969 0.000000 0.000000
# 5 0.000000 0.000000 0.000000 0.000000 0.028980 0.000000
# 6 0.000000 0.000000 0.000000 0.000000 0.000000 0.079682
#
#
# Mechanical properties :
#
#
# Convention : Reuss Voigt Hill
#
# Bulk Modulus (GPa) = 19.41444 47.81202 33.61323
# Shear Modulus (GPa) = 14.00522 20.16426 17.08474
#
# Velocity S-wave (km/s) = 2.82266 3.38692 3.11758
# Velocity P-wave (km/s) = 4.65487 6.51879 5.66403
#
# Compressibility (1/GPa) = 0.05150805
#
# Stress axis : x y z
#
# Youngs Moduli (GPa) = 33.98575 15.28449 66.62751
#
# Poissons Ratio (x) = 0.07291 0.74604
# Poissons Ratio (y) = 0.16211 0.88003
# Poissons Ratio (z) = 0.38055 0.20188
#
# Static dielectric constant tensor:
#      x y z
#    x 3.030650 0.000000 0.000000 
#    y 0.000000 2.995850 0.000000 
#    z 0.000000 0.000000 4.249960 
# 
# 
# High freq. dielectric constant tensor:
#      x y z
#    x 1.627020 0.000000 0.000000 
#    y 0.000000 1.626650 0.000000 
#    z 0.000000 0.000000 1.717830 
# 
# From -- ./inp_files/25091.got.cif
#   From: 2010.03.12/outbox.cif.g09.slc.cpg/sg72_13_cif.got.tgz:25091.got - 2010.04.16 14:54:00.
