data_PCOD8292206
_publ_section_title
;
Structure prediction by ZEFSAII (Michael W. Deem and Ramdas Pophale) SiO2 
 PCOD8292206
Probable space group: I M M M
;
_chemical_formula_sum "Si O2"
_cell_formula_units_Z 96
_cell_length_a 25.712973
_cell_length_b 13.537233
_cell_length_c 14.268269
_cell_angle_alpha 90.000000
_cell_angle_beta 90.000000
_cell_angle_gamma 90.000000
_cell_volume 4966.534839
_symmetry_space_group_name_H-M "I M M M"
_symmetry_group_IT_number 71
_symmetry_cell_setting 'orthorhombic'
loop_
_space_group_symop_operation_xyz
x,y,z
-x,-y,z
x,-y,-z
-x,y,-z
-x,-y,-z
x,y,-z
-x,y,z
x,-y,z
1/2+x,1/2+y,1/2+z
1/2-x,1/2-y,1/2+z
1/2+x,1/2-y,1/2-z
1/2-x,1/2+y,1/2-z
1/2-x,1/2-y,1/2-z
1/2+x,1/2+y,1/2-z
1/2-x,1/2+y,1/2+z
1/2+x,1/2-y,1/2+z
loop_
_atom_site_type_symbol
_atom_site_label
_atom_site_fract_x
_atom_site_fract_y
_atom_site_fract_z
Si Si1 0.196043 0.117472 0.750000
Si Si2 0.000000 0.116895 0.391534
Si Si3 0.864967 0.386259 0.250000
Si Si4 0.500000 0.616895 0.391534
Si Si5 0.080365 0.197197 0.250000
Si Si6 0.221885 0.383246 0.396307
Si Si7 0.778115 0.616754 0.103693
O O1 0.138163 0.155951 0.750000
O O2 0.227100 0.157652 0.841649
O O3 0.227100 0.157652 0.658351
O O4 0.195817 0.000000 0.750000
O O5 0.051205 0.161165 0.343190
O O6 0.000000 0.147271 0.500000
O O7 0.000000 0.000000 0.377633
O O8 0.883208 0.500000 0.250000
O O9 0.916094 0.316772 0.250000
O O10 0.831008 0.358928 0.341177
O O11 0.831008 0.358928 0.158823
O O12 0.500000 0.500000 0.377633
O O13 0.500000 0.647271 0.500000
O O14 0.448795 0.661165 0.343190
O O15 0.219607 0.335931 0.500000
O O16 0.227528 0.500000 0.402313
O O17 0.772471 0.500000 0.097687
O O18 0.780393 0.664069 0.000000
#
# Coordination Sequence:
#
# PCOD8292206 Si02
#       7
#    16   8  16   8  16  16  16
#     4   9  17  29  48  76 104 134 175 218 263 312
#     4  10  23  43  62  80 104 130 160 211 279 336
#     4   9  19  34  52  76 108 147 183 213 250 298
#     4  10  23  43  62  80 104 130 160 211 279 336
#     4  11  21  36  58  80 104 136 178 221 263 314
#     4   8  15  29  47  71 109 148 177 212 256 299
#     4   8  15  29  47  71 109 148 177 212 256 299
#
# _framework density 19.329371999999999
#
# number of rings (size 3 to 8) (size 9 to 14) (size 15 to 20)
#    0.000    2.833    0.000    4.000    0.000    5.333 
#    0.000    6.667    0.000    1.000    0.000    0.000 
#    0.000    0.000    0.000    0.000    0.000    0.000 
#
# Total GULP energy -595056.057816 kJ/mol
# GULP energy per Si atom -12397.001205 kJ/mol
# Density = 1.928538 g / cm^3
# Si number density = 19.329372 Si / 1000 Ang^3
#
#
#
# Elastic Constant Matrix: (Units=GPa)
#
#
# Indices 1 2 3 4 5 6 
#
# 1 107.0461 58.4565 67.8601 0.0000 0.0000 0.0000
# 2 58.4565 83.9100 46.9658 0.0000 0.0000 0.0000
# 3 67.8601 46.9658 191.6175 0.0000 0.0000 0.0000
# 4 0.0000 0.0000 0.0000 8.5765 0.0000 0.0000
# 5 0.0000 0.0000 0.0000 0.0000 14.8625 0.0000
# 6 0.0000 0.0000 0.0000 0.0000 0.0000 37.9409
#
#
#
# Elastic Compliance Matrix: (Units=1/GPa)
#
#
# Indices 1 2 3 4 5 6 
#
# 1 0.016992 -0.009816 -0.003612 0.000000 0.000000 0.000000
# 2 -0.009816 0.019483 -0.001299 0.000000 0.000000 0.000000
# 3 -0.003612 -0.001299 0.006816 0.000000 0.000000 0.000000
# 4 0.000000 0.000000 0.000000 0.116598 0.000000 0.000000
# 5 0.000000 0.000000 0.000000 0.000000 0.067283 0.000000
# 6 0.000000 0.000000 0.000000 0.000000 0.000000 0.026357
#
#
# Mechanical properties :
#
#
# Convention : Reuss Voigt Hill
#
# Bulk Modulus (GPa) = 72.26660 81.01536 76.64098
# Shear Modulus (GPa) = 17.38560 26.22872 21.80716
#
# Velocity S-wave (km/s) = 3.00232 3.68766 3.36249
# Velocity P-wave (km/s) = 7.03468 7.75473 7.40346
#
# Compressibility (1/GPa) = 0.01383765
#
# Stress axis : x y z
#
# Youngs Moduli (GPa) = 58.85273 51.32702 146.71031
#
# Poissons Ratio (x) = 0.50382 0.52985
# Poissons Ratio (y) = 0.57769 0.19059
# Poissons Ratio (z) = 0.21255 0.06668
#
# Static dielectric constant tensor:
#      x y z
#    x 3.286030 0.000000 0.000000 
#    y 0.000000 3.690990 0.000000 
#    z 0.000000 0.000000 5.267070 
# 
# 
# High freq. dielectric constant tensor:
#      x y z
#    x 1.726900 0.000000 0.000000 
#    y 0.000000 1.765810 0.000000 
#    z 0.000000 0.000000 1.757140 
# 
# From -- ./inp_files/39199.got.cif
#   From: 2010.06.25/outbox.cif.g09.slc.cpg/sg71_20_cif.got.tgz:39199.got - 2010.06.28 04:59:45.
