data_PCOD8292183
_publ_section_title
;
Structure prediction by ZEFSAII (Michael W. Deem and Ramdas Pophale) SiO2 
 PCOD8292183
Probable space group: I M M M
;
_chemical_formula_sum "Si O2"
_cell_formula_units_Z 88
_cell_length_a 12.036381
_cell_length_b 14.964562
_cell_length_c 23.542947
_cell_angle_alpha 90.000000
_cell_angle_beta 90.000000
_cell_angle_gamma 90.000000
_cell_volume 4240.536067
_symmetry_space_group_name_H-M "I M M M"
_symmetry_group_IT_number 71
_symmetry_cell_setting 'orthorhombic'
loop_
_space_group_symop_operation_xyz
x,y,z
-x,-y,z
x,-y,-z
-x,y,-z
-x,-y,-z
x,y,-z
-x,y,z
x,-y,z
1/2+x,1/2+y,1/2+z
1/2-x,1/2-y,1/2+z
1/2+x,1/2-y,1/2-z
1/2-x,1/2+y,1/2-z
1/2-x,1/2-y,1/2-z
1/2+x,1/2+y,1/2-z
1/2-x,1/2+y,1/2+z
1/2+x,1/2-y,1/2+z
loop_
_atom_site_type_symbol
_atom_site_label
_atom_site_fract_x
_atom_site_fract_y
_atom_site_fract_z
Si Si1 0.268304 0.845413 0.391698
Si Si2 0.879310 0.100087 0.711247
Si Si3 0.000000 0.098653 0.097062
Si Si4 0.227016 0.842424 0.063428
Si Si5 0.000000 0.786059 0.794225
Si Si6 0.500000 0.898234 0.647915
Si Si7 0.876331 0.102904 0.500000
Si Si8 0.123595 0.500000 0.567741
O O1 0.215249 0.872952 0.332246
O O2 0.277183 0.738873 0.392901
O O3 0.392131 0.886712 0.392652
O O4 0.194602 0.875950 0.444268
O O5 0.000000 0.097276 0.679739
O O6 0.889938 0.174424 0.761838
O O7 0.852704 0.000000 0.735454
O O8 0.108068 0.109913 0.057977
O O9 0.000000 0.175664 0.143197
O O10 0.000000 0.000000 0.125002
O O11 0.315747 0.911208 0.089769
O O12 0.262126 0.810076 0.000000
O O13 0.000000 0.677220 0.801120
O O14 0.500000 0.000000 0.673131
O O15 0.000000 0.150427 0.500000
O O16 0.900895 0.000000 0.500000
O O17 0.127073 0.500000 0.500000
O O18 0.000000 0.500000 0.592545
#
# Coordination Sequence:
#
# PCOD8292183 Si02
#       8
#    16  16   8  16   8   8   8   8
#     4  12  23  42  65  95 138 175 215 266 331 401
#     4   9  20  41  68  94 120 163 216 277 336 373
#     4  12  21  39  69  96 123 163 227 285 321 379
#     4  11  22  38  60  94 130 172 217 263 322 390
#     4  10  22  43  69  95 122 163 222 282 328 390
#     4  12  26  42  64  97 137 182 213 263 344 407
#     4  11  24  41  67 100 127 169 228 271 309 383
#     4   9  20  37  57  85 131 178 209 251 323 389
#
# _framework density 20.752092999999999
#
# number of rings (size 3 to 8) (size 9 to 14) (size 15 to 20)
#    0.545    0.727    3.636    3.000    0.000    4.364 
#    0.000    0.909    2.000    0.000    0.000    0.000 
#    0.000    0.000    0.000    0.000    0.000    0.000 
#
# Total GULP energy -545230.508468 kJ/mol
# GULP energy per Si atom -12391.602465 kJ/mol
# Density = 2.070486 g / cm^3
# Si number density = 20.752093 Si / 1000 Ang^3
#
#
#
# Elastic Constant Matrix: (Units=GPa)
#
#
# Indices 1 2 3 4 5 6 
#
# 1 151.6759 49.5800 35.7735 0.0000 0.0000 0.0000
# 2 49.5800 171.5341 34.7091 0.0000 0.0000 0.0000
# 3 35.7735 34.7091 76.0723 0.0000 0.0000 0.0000
# 4 0.0000 0.0000 0.0000 30.2722 0.0000 0.0000
# 5 0.0000 0.0000 0.0000 0.0000 20.9234 0.0000
# 6 0.0000 0.0000 0.0000 0.0000 0.0000 29.7019
#
#
#
# Elastic Compliance Matrix: (Units=1/GPa)
#
#
# Indices 1 2 3 4 5 6 
#
# 1 0.007828 -0.001672 -0.002918 0.000000 0.000000 0.000000
# 2 -0.001672 0.006780 -0.002307 0.000000 0.000000 0.000000
# 3 -0.002918 -0.002307 0.015570 0.000000 0.000000 0.000000
# 4 0.000000 0.000000 0.000000 0.033034 0.000000 0.000000
# 5 0.000000 0.000000 0.000000 0.000000 0.047793 0.000000
# 6 0.000000 0.000000 0.000000 0.000000 0.000000 0.033668
#
#
# Mechanical properties :
#
#
# Convention : Reuss Voigt Hill
#
# Bulk Modulus (GPa) = 61.03773 71.04528 66.04150
# Shear Modulus (GPa) = 30.50105 34.79415 32.64760
#
# Velocity S-wave (km/s) = 3.83793 4.09914 3.97069
# Velocity P-wave (km/s) = 7.00830 7.53084 7.27426
#
# Compressibility (1/GPa) = 0.01638331
#
# Stress axis : x y z
#
# Youngs Moduli (GPa) = 127.74916 147.49543 64.22472
#
# Poissons Ratio (x) = 0.24662 0.18742
# Poissons Ratio (y) = 0.21361 0.14817
# Poissons Ratio (z) = 0.37280 0.34029
#
# Static dielectric constant tensor:
#      x y z
#    x 3.961390 0.000000 0.000000 
#    y 0.000000 4.030060 0.000000 
#    z 0.000000 0.000000 1.825740 
# 
# 
# High freq. dielectric constant tensor:
#      x y z
#    x 1.818330 0.000000 0.000000 
#    y 0.000000 1.826170 0.000000 
#    z 0.000000 0.000000 1.774000 
# 
# From -- ./inp_files/64503.got.cif
#   From: 2010.06.25/outbox.cif.g09.slc.cpg/sg71_33_cif.got.tgz:64503.got - 2010.06.28 04:59:45.
