data_PCOD8292654
_publ_section_title
;
Structure prediction by ZEFSAII (Michael W. Deem and Ramdas Pophale) SiO2 
 PCOD8292654
Probable space group: I M M M
;
_chemical_formula_sum "Si O2"
_cell_formula_units_Z 80
_cell_length_a 14.510408
_cell_length_b 14.874387
_cell_length_c 21.002668
_cell_angle_alpha 90.000000
_cell_angle_beta 90.000000
_cell_angle_gamma 90.000000
_cell_volume 4533.077750
_symmetry_space_group_name_H-M "I M M M"
_symmetry_group_IT_number 71
_symmetry_cell_setting 'orthorhombic'
loop_
_space_group_symop_operation_xyz
x,y,z
-x,-y,z
x,-y,-z
-x,y,-z
-x,-y,-z
x,y,-z
-x,y,z
x,-y,z
1/2+x,1/2+y,1/2+z
1/2-x,1/2-y,1/2+z
1/2+x,1/2-y,1/2-z
1/2-x,1/2+y,1/2-z
1/2-x,1/2-y,1/2-z
1/2+x,1/2+y,1/2-z
1/2-x,1/2+y,1/2+z
1/2+x,1/2-y,1/2+z
loop_
_atom_site_type_symbol
_atom_site_label
_atom_site_fract_x
_atom_site_fract_y
_atom_site_fract_z
Si Si1 0.897737 0.398715 0.857248
Si Si2 0.108268 0.895517 0.183163
Si Si3 0.606533 0.724436 0.430906
Si Si4 0.792121 0.895977 0.307430
Si Si5 0.395317 0.606684 0.929837
O O1 0.888085 0.500000 0.885012
O O2 0.881732 0.329745 0.914743
O O3 0.818725 0.382370 0.804119
O O4 0.000000 0.384406 0.826747
O O5 0.149116 0.840028 0.123299
O O6 0.160881 0.854455 0.244658
O O7 0.000000 0.878690 0.193606
O O8 0.130268 0.000000 0.171310
O O9 0.653242 0.706917 0.500000
O O10 0.500000 0.698873 0.435630
O O11 0.831258 0.852739 0.373374
O O12 0.820369 0.000000 0.307376
O O13 0.500000 0.636158 0.915608
O O14 0.387395 0.500000 0.930918
O O15 0.364877 0.643432 0.000000
#
# Coordination Sequence:
#
# PCOD8292654 Si02
#       5
#    16  16  16  16  16
#     4   9  18  31  45  62  86 116 149 185 220 252
#     4   9  17  29  46  68  92 116 142 175 217 264
#     4   9  18  31  45  63  88 117 149 182 216 258
#     4   9  16  26  42  63  86 113 145 178 214 259
#     4   8  13  21  34  54  81 111 141 174 212 255
#
# _framework density 17.648053999999998
#
# number of rings (size 3 to 8) (size 9 to 14) (size 15 to 20)
#    0.000    3.200    0.000    1.200    0.000    4.800 
#    0.000    6.000    0.000    0.000    0.000    0.000 
#    0.000    2.400    0.000    7.800    0.000    0.200 
#
# Total GULP energy -495551.989799 kJ/mol
# GULP energy per Si atom -12388.799745 kJ/mol
# Density = 1.760789 g / cm^3
# Si number density = 17.648054 Si / 1000 Ang^3
#
#
#
# Elastic Constant Matrix: (Units=GPa)
#
#
# Indices 1 2 3 4 5 6 
#
# 1 83.4621 24.3788 62.5414 0.0000 0.0000 0.0000
# 2 24.3788 52.3957 50.1073 0.0000 0.0000 0.0000
# 3 62.5414 50.1073 164.8233 0.0000 0.0000 0.0000
# 4 0.0000 0.0000 0.0000 14.7472 0.0000 0.0000
# 5 0.0000 0.0000 0.0000 0.0000 12.0221 0.0000
# 6 0.0000 0.0000 0.0000 0.0000 0.0000 7.9466
#
#
#
# Elastic Compliance Matrix: (Units=1/GPa)
#
#
# Indices 1 2 3 4 5 6 
#
# 1 0.016962 -0.002449 -0.005691 0.000000 0.000000 0.000000
# 2 -0.002449 0.027262 -0.007359 0.000000 0.000000 0.000000
# 3 -0.005691 -0.007359 0.010464 0.000000 0.000000 0.000000
# 4 0.000000 0.000000 0.000000 0.067810 0.000000 0.000000
# 5 0.000000 0.000000 0.000000 0.000000 0.083180 0.000000
# 6 0.000000 0.000000 0.000000 0.000000 0.000000 0.125840
#
#
# Mechanical properties :
#
#
# Convention : Reuss Voigt Hill
#
# Bulk Modulus (GPa) = 42.21298 63.85956 53.03627
# Shear Modulus (GPa) = 13.49846 17.85341 15.67594
#
# Velocity S-wave (km/s) = 2.76863 3.18407 2.98359
# Velocity P-wave (km/s) = 5.84736 7.05559 6.47970
#
# Compressibility (1/GPa) = 0.02368940
#
# Stress axis : x y z
#
# Youngs Moduli (GPa) = 58.95634 36.68071 95.56784
#
# Poissons Ratio (x) = 0.08983 0.54392
# Poissons Ratio (y) = 0.14439 0.70325
# Poissons Ratio (z) = 0.33555 0.26992
#
# Static dielectric constant tensor:
#      x y z
#    x 3.245250 0.000000 0.000000 
#    y 0.000000 2.965600 0.000000 
#    z 0.000000 0.000000 3.590190 
# 
# 
# High freq. dielectric constant tensor:
#      x y z
#    x 1.668110 0.000000 0.000000 
#    y 0.000000 1.640120 0.000000 
#    z 0.000000 0.000000 1.673940 
# 
# From -- ./inp_files/34259.got.cif
#   From: 2010.06.25/outbox.cif.g09.slc.cpg/sg71_18_cif.got.tgz:34259.got - 2010.06.28 04:59:45.
