data_PCOD8292444
_publ_section_title
;
Structure prediction by ZEFSAII (Michael W. Deem and Ramdas Pophale) SiO2 
 PCOD8292444
Probable space group: I M M M
;
_chemical_formula_sum "Si O2"
_cell_formula_units_Z 80
_cell_length_a 10.568241
_cell_length_b 17.206973
_cell_length_c 21.586566
_cell_angle_alpha 90.000000
_cell_angle_beta 90.000000
_cell_angle_gamma 90.000000
_cell_volume 3925.461712
_symmetry_space_group_name_H-M "I M M M"
_symmetry_group_IT_number 71
_symmetry_cell_setting 'orthorhombic'
loop_
_space_group_symop_operation_xyz
x,y,z
-x,-y,z
x,-y,-z
-x,y,-z
-x,-y,-z
x,y,-z
-x,y,z
x,-y,z
1/2+x,1/2+y,1/2+z
1/2-x,1/2-y,1/2+z
1/2+x,1/2-y,1/2-z
1/2-x,1/2+y,1/2-z
1/2-x,1/2-y,1/2-z
1/2+x,1/2+y,1/2-z
1/2-x,1/2+y,1/2+z
1/2+x,1/2-y,1/2+z
loop_
_atom_site_type_symbol
_atom_site_label
_atom_site_fract_x
_atom_site_fract_y
_atom_site_fract_z
Si Si1 0.144757 0.588492 0.223010
Si Si2 0.000000 0.408792 0.431781
Si Si3 0.801593 0.672609 0.348125
Si Si4 0.852600 0.148642 0.631631
Si Si5 0.853278 0.086112 0.068030
Si Si6 0.352001 0.586173 0.000000
O O1 0.152578 0.500000 0.246701
O O2 0.178855 0.647351 0.277768
O O3 0.251358 0.599380 0.170712
O O4 0.000000 0.605970 0.199753
O O5 0.879626 0.380237 0.394996
O O6 0.000000 0.500000 0.435344
O O7 0.000000 0.371336 0.500000
O O8 0.838133 0.761754 0.351899
O O9 0.665553 0.650844 0.376908
O O10 0.812434 0.134506 0.560620
O O11 0.000000 0.123421 0.644188
O O12 0.000000 0.080888 0.058780
O O13 0.801731 0.000000 0.087153
O O14 0.794094 0.108929 0.000000
O O15 0.288387 0.500000 0.000000
O O16 0.500000 0.574173 0.000000
#
# Coordination Sequence:
#
# PCOD8292444 Si02
#       6
#    16   8  16  16  16   8
#     4  11  24  43  64  88 126 169 213 264 324 390
#     4  11  22  34  56  90 128 169 209 247 298 370
#     4  12  22  36  61  90 126 163 206 258 318 374
#     4  11  24  41  66  95 126 163 209 268 325 386
#     4   9  19  35  54  81 122 170 215 255 300 363
#     4   9  20  40  65  91 121 158 205 261 319 373
#
# _framework density 20.379767999999999
#
# number of rings (size 3 to 8) (size 9 to 14) (size 15 to 20)
#    0.000    1.400    2.000    4.200    2.800    4.400 
#    0.000    0.500    0.000    1.800    0.000    0.000 
#    0.000    0.000    0.000    0.000    0.000    0.000 
#
# Total GULP energy -495616.744114 kJ/mol
# GULP energy per Si atom -12390.418603 kJ/mol
# Density = 2.033338 g / cm^3
# Si number density = 20.379768 Si / 1000 Ang^3
#
#
#
# Elastic Constant Matrix: (Units=GPa)
#
#
# Indices 1 2 3 4 5 6 
#
# 1 86.0155 26.0797 46.0156 0.0000 0.0000 0.0000
# 2 26.0797 91.5955 39.9463 0.0000 0.0000 0.0000
# 3 46.0156 39.9463 128.1912 0.0000 0.0000 0.0000
# 4 0.0000 0.0000 0.0000 47.4648 0.0000 0.0000
# 5 0.0000 0.0000 0.0000 0.0000 37.2986 0.0000
# 6 0.0000 0.0000 0.0000 0.0000 0.0000 26.8955
#
#
#
# Elastic Compliance Matrix: (Units=1/GPa)
#
#
# Indices 1 2 3 4 5 6 
#
# 1 0.014759 -0.002189 -0.004616 0.000000 0.000000 0.000000
# 2 -0.002189 0.012959 -0.003252 0.000000 0.000000 0.000000
# 3 -0.004616 -0.003252 0.010471 0.000000 0.000000 0.000000
# 4 0.000000 0.000000 0.000000 0.021068 0.000000 0.000000
# 5 0.000000 0.000000 0.000000 0.000000 0.026811 0.000000
# 6 0.000000 0.000000 0.000000 0.000000 0.000000 0.037181
#
#
# Mechanical properties :
#
#
# Convention : Reuss Voigt Hill
#
# Bulk Modulus (GPa) = 55.32618 58.87616 57.10117
# Shear Modulus (GPa) = 33.46972 35.24916 34.35944
#
# Velocity S-wave (km/s) = 4.05693 4.16338 4.11050
# Velocity P-wave (km/s) = 7.01081 7.21553 7.11390
#
# Compressibility (1/GPa) = 0.01807463
#
# Stress axis : x y z
#
# Youngs Moduli (GPa) = 67.75619 77.16421 95.50019
#
# Poissons Ratio (x) = 0.16894 0.44079
# Poissons Ratio (y) = 0.14834 0.31061
# Poissons Ratio (z) = 0.31274 0.25097
#
# Static dielectric constant tensor:
#      x y z
#    x 1.415040 0.000000 0.000000 
#    y 0.000000 3.654760 0.000000 
#    z 0.000000 0.000000 3.868770 
# 
# 
# High freq. dielectric constant tensor:
#      x y z
#    x 1.797160 0.000000 0.000000 
#    y 0.000000 1.793180 0.000000 
#    z 0.000000 0.000000 1.797910 
# 
# From -- ./inp_files/51720.got.cif
#   From: 2010.06.25/outbox.cif.g09.slc.cpg/sg71_26_cif.got.tgz:51720.got - 2010.06.28 04:59:45.
