data_PCOD8293502
_publ_section_title
;
Structure prediction by ZEFSAII (Michael W. Deem and Ramdas Pophale) SiO2 
 PCOD8293502
Probable space group: I B A M
;
_chemical_formula_sum "Si O2"
_cell_formula_units_Z 96
_cell_length_a 19.638462
_cell_length_b 30.229997
_cell_length_c 8.896137
_cell_angle_alpha 90.000000
_cell_angle_beta 90.000000
_cell_angle_gamma 90.000000
_cell_volume 5281.375412
_symmetry_space_group_name_H-M "I B A M"
_symmetry_group_IT_number 72
_symmetry_cell_setting 'orthorhombic'
loop_
_space_group_symop_operation_xyz
x,y,z
-x,-y,z
x,-y,1/2-z
-x,y,1/2-z
-x,-y,-z
x,y,-z
-x,y,1/2+z
x,-y,1/2+z
1/2+x,1/2+y,1/2+z
1/2-x,1/2-y,1/2+z
1/2+x,1/2-y,-z
1/2-x,1/2+y,-z
1/2-x,1/2-y,1/2-z
1/2+x,1/2+y,1/2-z
1/2-x,1/2+y,z
1/2+x,1/2-y,z
loop_
_atom_site_type_symbol
_atom_site_label
_atom_site_fract_x
_atom_site_fract_y
_atom_site_fract_z
Si Si1 0.787511 0.790839 0.176863
Si Si2 0.785720 0.952095 0.676238
Si Si3 0.563772 0.452476 0.325964
Si Si4 0.931950 0.761566 0.175233
Si Si5 0.796544 0.375557 0.178573
Si Si6 0.070066 0.659964 0.321830
O O1 0.750000 0.750000 0.250000
O O2 0.866939 0.790586 0.225884
O O3 0.753887 0.836357 0.231260
O O4 0.781057 0.784462 0.000000
O O5 0.768829 0.955774 0.500000
O O6 0.861663 0.931094 0.700276
O O7 0.731883 0.921236 0.758600
O O8 0.779852 0.000000 0.750000
O O9 0.566356 0.500000 0.250000
O O10 0.500000 0.425554 0.250000
O O11 0.547549 0.457603 0.500000
O O12 0.918661 0.710992 0.225114
O O13 0.000000 0.781136 0.250000
O O14 0.944437 0.764152 0.000000
O O15 0.870146 0.368804 0.250515
O O16 0.802877 0.377744 0.000000
O O17 0.068735 0.653419 0.500000
O O18 0.000000 0.642452 0.250000
#
# Coordination Sequence:
#
# PCOD8293502 Si02
#       6
#    16  16  16  16  16  16
#     4  10  20  34  52  77 108 141 178 220 266 317
#     4  10  21  37  56  79 108 142 183 229 279 328
#     4   9  16  27  47  73  99 130 169 214 263 314
#     4   9  18  32  50  74 105 143 182 222 266 315
#     4  11  22  35  55  82 111 144 183 225 274 327
#     4  10  19  33  54  79 109 141 180 225 269 321
#
# _framework density 18.177084000000001
#
# number of rings (size 3 to 8) (size 9 to 14) (size 15 to 20)
#    0.000    2.167    1.667    2.500    0.000    4.000 
#    0.000    0.833    0.000    4.500    0.000    3.500 
#    0.000    0.000    0.000    0.000    0.000    0.000 
#
# Total GULP energy -595059.383405 kJ/mol
# GULP energy per Si atom -12397.070488 kJ/mol
# Density = 1.813571 g / cm^3
# Si number density = 18.177084 Si / 1000 Ang^3
#
#
#
# Elastic Constant Matrix: (Units=GPa)
#
#
# Indices 1 2 3 4 5 6 
#
# 1 167.1516 57.5046 59.1194 0.0000 -0.0001 0.0000
# 2 57.5046 70.3123 33.9258 0.0000 0.0000 0.0000
# 3 59.1194 33.9258 85.6240 -0.0004 -0.0007 -0.0001
# 4 0.0000 0.0000 -0.0004 20.7374 -0.0001 -0.0001
# 5 -0.0001 0.0000 -0.0007 -0.0001 36.4202 0.0000
# 6 0.0000 0.0000 -0.0001 -0.0001 0.0000 29.6202
#
#
#
# Elastic Compliance Matrix: (Units=1/GPa)
#
#
# Indices 1 2 3 4 5 6 
#
# 1 0.009442 -0.005658 -0.004277 0.000000 0.000000 0.000000
# 2 -0.005658 0.020975 -0.004404 0.000000 0.000000 0.000000
# 3 -0.004277 -0.004404 0.016377 0.000000 0.000000 0.000000
# 4 0.000000 0.000000 0.000000 0.048222 0.000000 0.000000
# 5 0.000000 0.000000 0.000000 0.000000 0.027457 0.000000
# 6 0.000000 0.000000 0.000000 0.000000 0.000000 0.033761
#
#
# Mechanical properties :
#
#
# Convention : Reuss Voigt Hill
#
# Bulk Modulus (GPa) = 55.20281 69.35416 62.27848
# Shear Modulus (GPa) = 26.18470 28.85810 27.52140
#
# Velocity S-wave (km/s) = 3.79955 3.98880 3.89533
# Velocity P-wave (km/s) = 7.04870 7.71049 7.38701
#
# Compressibility (1/GPa) = 0.01811502
#
# Stress axis : x y z
#
# Youngs Moduli (GPa) = 105.90925 47.67655 61.06067
#
# Poissons Ratio (x) = 0.26977 0.26118
# Poissons Ratio (y) = 0.59926 0.26890
# Poissons Ratio (z) = 0.45301 0.20996
#
# Static dielectric constant tensor:
#      x y z
#    x 3.773860 0.000000 0.000010 
#    y 0.000000 2.901720 -0.000010 
#    z 0.000010 -0.000010 4.029890 
# 
# 
# High freq. dielectric constant tensor:
#      x y z
#    x 1.720920 0.000000 0.000000 
#    y 0.000000 1.660230 0.000000 
#    z 0.000000 0.000000 1.715030 
# 
# From -- ./inp_files/5938.got.cif
#   From: 2010.03.12/outbox.cif.g09.slc.cpg/sg72_3_cif.got.tgz:5938.got - 2010.04.16 14:54:00.
