data_PCOD8293165
_publ_section_title
;
Structure prediction by ZEFSAII (Michael W. Deem and Ramdas Pophale) SiO2 
 PCOD8293165
Probable space group: I B A M
;
_chemical_formula_sum "Si O2"
_cell_formula_units_Z 80
_cell_length_a 8.750196
_cell_length_b 26.873146
_cell_length_c 17.505197
_cell_angle_alpha 90.000000
_cell_angle_beta 90.000000
_cell_angle_gamma 90.000000
_cell_volume 4116.264706
_symmetry_space_group_name_H-M "I B A M"
_symmetry_group_IT_number 72
_symmetry_cell_setting 'orthorhombic'
loop_
_space_group_symop_operation_xyz
x,y,z
-x,-y,z
x,-y,1/2-z
-x,y,1/2-z
-x,-y,-z
x,y,-z
-x,y,1/2+z
x,-y,1/2+z
1/2+x,1/2+y,1/2+z
1/2-x,1/2-y,1/2+z
1/2+x,1/2-y,-z
1/2-x,1/2+y,-z
1/2-x,1/2-y,1/2-z
1/2+x,1/2+y,1/2-z
1/2-x,1/2+y,z
1/2+x,1/2-y,z
loop_
_atom_site_type_symbol
_atom_site_label
_atom_site_fract_x
_atom_site_fract_y
_atom_site_fract_z
Si Si1 0.767617 0.275266 0.087553
Si Si2 0.648154 0.904294 0.708413
Si Si3 0.611673 0.643602 0.683999
Si Si4 0.943515 0.949333 0.336142
Si Si5 0.907240 0.680807 0.911617
O O1 0.650447 0.310299 0.131685
O O2 0.734919 0.217333 0.107419
O O3 0.941695 0.287313 0.106857
O O4 0.727950 0.284875 0.000000
O O5 0.500000 0.928956 0.750000
O O6 0.735655 0.877145 0.776904
O O7 0.758118 0.944864 0.666143
O O8 0.595818 0.866477 0.642804
O O9 0.500000 0.663187 0.750000
O O10 0.526008 0.600689 0.631897
O O11 0.000000 0.952076 0.250000
O O12 0.000000 0.000000 0.379303
O O13 0.904959 0.662930 0.000000
#
# Coordination Sequence:
#
# PCOD8293165 Si02
#       5
#    16  16  16  16  16
#     4  10  21  36  51  72 107 149 187 217 264 321
#     4  10  18  33  55  80 108 134 181 222 271 313
#     4   9  19  33  52  78 106 137 174 225 271 315
#     4   8  17  34  54  78 110 133 168 222 268 324
#     4  10  22  35  51  76 109 147 185 220 263 323
#
# _framework density 19.435096000000001
#
# number of rings (size 3 to 8) (size 9 to 14) (size 15 to 20)
#    0.000    3.000    2.000    0.000    5.600    1.600 
#    0.000    8.000    0.000    2.400    0.000    2.800 
#    0.000    0.800    0.000    0.000    0.000    0.000 
#
# Total GULP energy -495588.454816 kJ/mol
# GULP energy per Si atom -12389.711370 kJ/mol
# Density = 1.939086 g / cm^3
# Si number density = 19.435096 Si / 1000 Ang^3
#
#
#
# Elastic Constant Matrix: (Units=GPa)
#
#
# Indices 1 2 3 4 5 6 
#
# 1 118.8392 31.6285 30.4120 0.0000 0.0000 0.0000
# 2 31.6285 73.7715 26.9885 -0.0001 0.0000 0.0000
# 3 30.4120 26.9885 33.3142 0.0014 0.0000 0.0000
# 4 0.0000 -0.0001 0.0014 2.1789 0.0000 0.0000
# 5 0.0000 0.0000 0.0000 0.0000 19.6766 0.0000
# 6 0.0000 0.0000 0.0000 0.0000 0.0000 26.6265
#
#
#
# Elastic Compliance Matrix: (Units=1/GPa)
#
#
# Indices 1 2 3 4 5 6 
#
# 1 0.011094 -0.001494 -0.008917 0.000006 0.000000 0.000000
# 2 -0.001494 0.019466 -0.014406 0.000010 0.000000 0.000000
# 3 -0.008917 -0.014406 0.049828 -0.000031 0.000000 0.000000
# 4 0.000006 0.000010 -0.000031 0.458950 0.000000 0.000000
# 5 0.000000 0.000000 0.000000 0.000000 0.050822 0.000000
# 6 0.000000 0.000000 0.000000 0.000000 0.000000 0.037557
#
#
# Mechanical properties :
#
#
# Convention : Reuss Voigt Hill
#
# Bulk Modulus (GPa) = 32.51624 44.88696 38.70160
# Shear Modulus (GPa) = 7.27163 18.82280 13.04722
#
# Velocity S-wave (km/s) = 1.93639 3.11544 2.59380
# Velocity P-wave (km/s) = 4.66546 6.00727 5.37837
#
# Compressibility (1/GPa) = 0.03075387
#
# Stress axis : x y z
#
# Youngs Moduli (GPa) = 90.13499 51.37088 20.06887
#
# Poissons Ratio (x) = 0.07676 0.17896
# Poissons Ratio (y) = 0.13468 0.28911
# Poissons Ratio (z) = 0.80377 0.74005
#
# Static dielectric constant tensor:
#      x y z
#    x 3.890780 0.000000 0.000000 
#    y 0.000000 4.595380 0.000000 
#    z 0.000000 0.000000 3.183060 
# 
# 
# High freq. dielectric constant tensor:
#      x y z
#    x 1.774400 0.000000 0.000000 
#    y 0.000000 1.740800 0.000000 
#    z 0.000000 0.000000 1.716790 
# 
# From -- ./inp_files/28312.got.cif
#   From: 2010.03.12/outbox.cif.g09.slc.cpg/sg72_15_cif.got.tgz:28312.got - 2010.04.16 14:54:00.
