data_PCOD8293903
_publ_section_title
;
Structure prediction by ZEFSAII (Michael W. Deem and Ramdas Pophale) SiO2 
 PCOD8293903
Probable space group: I B A M
;
_chemical_formula_sum "Si O2"
_cell_formula_units_Z 80
_cell_length_a 18.524060
_cell_length_b 26.964125
_cell_length_c 8.612467
_cell_angle_alpha 90.000000
_cell_angle_beta 90.000000
_cell_angle_gamma 90.000000
_cell_volume 4301.798677
_symmetry_space_group_name_H-M "I B A M"
_symmetry_group_IT_number 72
_symmetry_cell_setting 'orthorhombic'
loop_
_space_group_symop_operation_xyz
x,y,z
-x,-y,z
x,-y,1/2-z
-x,y,1/2-z
-x,-y,-z
x,y,-z
-x,y,1/2+z
x,-y,1/2+z
1/2+x,1/2+y,1/2+z
1/2-x,1/2-y,1/2+z
1/2+x,1/2-y,-z
1/2-x,1/2+y,-z
1/2-x,1/2-y,1/2-z
1/2+x,1/2+y,1/2-z
1/2-x,1/2+y,z
1/2+x,1/2-y,z
loop_
_atom_site_type_symbol
_atom_site_label
_atom_site_fract_x
_atom_site_fract_y
_atom_site_fract_z
Si Si1 0.923581 0.053460 0.683840
Si Si2 0.075590 0.349531 0.680280
Si Si3 0.848247 0.551918 0.684571
Si Si4 0.787770 0.898641 0.316727
Si Si5 0.722503 0.198706 0.316922
O O1 0.927574 0.050535 0.500000
O O2 0.864937 0.092906 0.738845
O O3 0.000000 0.071514 0.750000
O O4 0.902171 0.000000 0.750000
O O5 0.063463 0.354569 0.500000
O O6 0.099760 0.403690 0.744237
O O7 0.137138 0.308752 0.718361
O O8 0.000000 0.331749 0.750000
O O9 0.878617 0.500000 0.750000
O O10 0.844015 0.550619 0.500000
O O11 0.768406 0.561181 0.750544
O O12 0.792895 0.904800 0.500000
O O13 0.766166 0.843273 0.272193
O O14 0.737493 0.194709 0.500000
O O15 0.750000 0.250000 0.250000
#
# Coordination Sequence:
#
# PCOD8293903 Si02
#       5
#    16  16  16  16  16
#     4  11  21  35  53  77 109 145 182 223 269 323
#     4   9  20  36  55  79 110 141 176 217 263 315
#     4  10  20  34  51  77 109 144 183 223 262 312
#     4  11  21  35  55  79 106 141 180 223 271 322
#     4  10  21  39  60  84 108 137 177 224 271 322
#
# _framework density 18.596872000000001
#
# number of rings (size 3 to 8) (size 9 to 14) (size 15 to 20)
#    0.000    1.800    0.000    7.200    0.000    5.200 
#    0.000    3.000    0.000    2.400    0.000    0.000 
#    0.000    0.000    0.000    0.000    0.000    0.000 
#
# Total GULP energy -496073.119905 kJ/mol
# GULP energy per Si atom -12401.827998 kJ/mol
# Density = 1.855454 g / cm^3
# Si number density = 18.596872 Si / 1000 Ang^3
#
#
#
# Elastic Constant Matrix: (Units=GPa)
#
#
# Indices 1 2 3 4 5 6 
#
# 1 128.1145 41.2918 44.2900 0.0000 0.0000 0.0000
# 2 41.2918 84.1923 26.9264 0.0000 0.0000 0.0000
# 3 44.2900 26.9264 120.3980 0.0000 0.0000 0.0000
# 4 0.0000 0.0000 0.0000 32.9471 0.0000 0.0000
# 5 0.0000 0.0000 0.0000 0.0000 33.3950 0.0000
# 6 0.0000 0.0000 0.0000 0.0000 0.0000 20.1826
#
#
#
# Elastic Compliance Matrix: (Units=1/GPa)
#
#
# Indices 1 2 3 4 5 6 
#
# 1 0.010079 -0.004047 -0.002803 0.000000 0.000000 0.000000
# 2 -0.004047 0.014417 -0.001736 0.000000 0.000000 0.000000
# 3 -0.002803 -0.001736 0.009725 0.000000 0.000000 0.000000
# 4 0.000000 0.000000 0.000000 0.030352 0.000000 0.000000
# 5 0.000000 0.000000 0.000000 0.000000 0.029945 0.000000
# 6 0.000000 0.000000 0.000000 0.000000 0.000000 0.049548
#
#
# Mechanical properties :
#
#
# Convention : Reuss Voigt Hill
#
# Bulk Modulus (GPa) = 58.64767 61.96902 60.30834
# Shear Modulus (GPa) = 29.95474 31.98472 30.96973
#
# Velocity S-wave (km/s) = 4.01776 4.15166 4.08526
# Velocity P-wave (km/s) = 7.28889 7.50842 7.39947
#
# Compressibility (1/GPa) = 0.01705098
#
# Stress axis : x y z
#
# Youngs Moduli (GPa) = 99.21966 69.36065 102.82857
#
# Poissons Ratio (x) = 0.28068 0.28818
# Poissons Ratio (y) = 0.40152 0.17848
# Poissons Ratio (z) = 0.27807 0.12039
#
# Static dielectric constant tensor:
#      x y z
#    x 3.600060 0.000000 0.000000 
#    y 0.000000 3.317820 0.000000 
#    z 0.000000 0.000000 3.490750 
# 
# 
# High freq. dielectric constant tensor:
#      x y z
#    x 1.723930 0.000000 0.000000 
#    y 0.000000 1.707540 0.000000 
#    z 0.000000 0.000000 1.737180 
# 
# From -- ./inp_files/4781.got.cif
#   From: 2010.03.12/outbox.cif.g09.slc.cpg/sg72_3_cif.got.tgz:4781.got - 2010.04.16 14:54:00.
