data_PCOD8293447
_publ_section_title
;
Structure prediction by ZEFSAII (Michael W. Deem and Ramdas Pophale) SiO2 
 PCOD8293447
Probable space group: I B A M
;
_chemical_formula_sum "Si O2"
_cell_formula_units_Z 96
_cell_length_a 28.739967
_cell_length_b 19.927831
_cell_length_c 8.752858
_cell_angle_alpha 90.000000
_cell_angle_beta 90.000000
_cell_angle_gamma 90.000000
_cell_volume 5012.982395
_symmetry_space_group_name_H-M "I B A M"
_symmetry_group_IT_number 72
_symmetry_cell_setting 'orthorhombic'
loop_
_space_group_symop_operation_xyz
x,y,z
-x,-y,z
x,-y,1/2-z
-x,y,1/2-z
-x,-y,-z
x,y,-z
-x,y,1/2+z
x,-y,1/2+z
1/2+x,1/2+y,1/2+z
1/2-x,1/2-y,1/2+z
1/2+x,1/2-y,-z
1/2-x,1/2+y,-z
1/2-x,1/2-y,1/2-z
1/2+x,1/2+y,1/2-z
1/2-x,1/2+y,z
1/2+x,1/2-y,z
loop_
_atom_site_type_symbol
_atom_site_label
_atom_site_fract_x
_atom_site_fract_y
_atom_site_fract_z
Si Si1 0.598823 0.699500 0.178724
Si Si2 0.629189 0.073431 0.182574
Si Si3 0.780147 0.652683 0.168187
Si Si4 0.051312 0.335030 0.317194
Si Si5 0.449155 0.566386 0.317992
Si Si6 0.805117 0.806251 0.167355
O O1 0.573529 0.765464 0.246496
O O2 0.576141 0.632315 0.245917
O O3 0.652870 0.695956 0.215098
O O4 0.592027 0.701991 0.000000
O O5 0.673928 0.117076 0.236397
O O6 0.582738 0.104476 0.255020
O O7 0.636152 0.000000 0.250000
O O8 0.624350 0.072231 0.000000
O O9 0.786255 0.731663 0.153776
O O10 0.734883 0.642082 0.274826
O O11 0.770054 0.622364 0.000000
O O12 0.049505 0.337849 0.500000
O O13 0.000000 0.343258 0.250000
O O14 0.423750 0.500000 0.250000
O O15 0.500000 0.569361 0.250000
O O16 0.450070 0.562814 0.500000
O O17 0.821456 0.831164 0.000000
#
# Coordination Sequence:
#
# PCOD8293447 Si02
#       6
#    16  16  16  16  16  16
#     4  10  21  36  56  84 117 151 188 234 288 340
#     4  11  23  41  62  86 117 154 196 241 293 350
#     4   9  19  36  56  82 114 146 181 227 278 334
#     4  11  23  39  60  86 116 152 194 245 296 347
#     4  10  20  35  54  78 108 147 188 229 277 334
#     4  10  19  32  57  87 113 143 183 229 278 333
#
# _framework density 19.150276999999999
#
# number of rings (size 3 to 8) (size 9 to 14) (size 15 to 20)
#    0.000    1.833    1.667    3.000    0.000    4.333 
#    0.000    2.500    0.000    0.000    0.000    0.000 
#    0.000    0.000    0.000    0.000    0.000    0.000 
#
# Total GULP energy -595072.489148 kJ/mol
# GULP energy per Si atom -12397.343524 kJ/mol
# Density = 1.910669 g / cm^3
# Si number density = 19.150277 Si / 1000 Ang^3
#
#
#
# Elastic Constant Matrix: (Units=GPa)
#
#
# Indices 1 2 3 4 5 6 
#
# 1 124.7853 44.7037 31.3340 0.0000 0.0000 0.0000
# 2 44.7037 81.8378 35.4484 0.0000 0.0000 0.0000
# 3 31.3340 35.4484 63.7979 0.0000 0.0000 0.0000
# 4 0.0000 0.0000 0.0000 28.1224 0.0000 0.0000
# 5 0.0000 0.0000 0.0000 0.0000 21.1582 0.0000
# 6 0.0000 0.0000 0.0000 0.0000 0.0000 21.3648
#
#
#
# Elastic Compliance Matrix: (Units=1/GPa)
#
#
# Indices 1 2 3 4 5 6 
#
# 1 0.010266 -0.004509 -0.002537 0.000000 0.000000 0.000000
# 2 -0.004509 0.018073 -0.007827 0.000000 0.000000 0.000000
# 3 -0.002537 -0.007827 0.021270 0.000000 0.000000 0.000000
# 4 0.000000 0.000000 0.000000 0.035559 0.000000 0.000000
# 5 0.000000 0.000000 0.000000 0.000000 0.047263 0.000000
# 6 0.000000 0.000000 0.000000 0.000000 0.000000 0.046806
#
#
# Mechanical properties :
#
#
# Convention : Reuss Voigt Hill
#
# Bulk Modulus (GPa) = 50.34679 54.82147 52.58413
# Shear Modulus (GPa) = 23.19078 24.72476 23.95777
#
# Velocity S-wave (km/s) = 3.48370 3.59707 3.54084
# Velocity P-wave (km/s) = 6.52143 6.77798 6.65094
#
# Compressibility (1/GPa) = 0.01986224
#
# Stress axis : x y z
#
# Youngs Moduli (GPa) = 97.40819 55.33198 47.01564
#
# Poissons Ratio (x) = 0.24949 0.11927
# Poissons Ratio (y) = 0.43921 0.36800
# Poissons Ratio (z) = 0.24710 0.43310
#
# Static dielectric constant tensor:
#      x y z
#    x 3.545320 0.000000 0.000000 
#    y 0.000000 3.876420 0.000000 
#    z 0.000000 0.000000 3.673210 
# 
# 
# High freq. dielectric constant tensor:
#      x y z
#    x 1.745700 0.000000 0.000000 
#    y 0.000000 1.734640 0.000000 
#    z 0.000000 0.000000 1.749950 
# 
# From -- ./inp_files/5962.got.cif
#   From: 2010.03.12/outbox.cif.g09.slc.cpg/sg72_3_cif.got.tgz:5962.got - 2010.04.16 14:54:00.
