data_PCOD8293594
_publ_section_title
;
Structure prediction by ZEFSAII (Michael W. Deem and Ramdas Pophale) SiO2 
 PCOD8293594
Probable space group: I B A M
;
_chemical_formula_sum "Si O2"
_cell_formula_units_Z 96
_cell_length_a 8.456902
_cell_length_b 22.905061
_cell_length_c 24.867349
_cell_angle_alpha 90.000000
_cell_angle_beta 90.000000
_cell_angle_gamma 90.000000
_cell_volume 4816.951129
_symmetry_space_group_name_H-M "I B A M"
_symmetry_group_IT_number 72
_symmetry_cell_setting 'orthorhombic'
loop_
_space_group_symop_operation_xyz
x,y,z
-x,-y,z
x,-y,1/2-z
-x,y,1/2-z
-x,-y,-z
x,y,-z
-x,y,1/2+z
x,-y,1/2+z
1/2+x,1/2+y,1/2+z
1/2-x,1/2-y,1/2+z
1/2+x,1/2-y,-z
1/2-x,1/2+y,-z
1/2-x,1/2-y,1/2-z
1/2+x,1/2+y,1/2-z
1/2-x,1/2+y,z
1/2+x,1/2-y,z
loop_
_atom_site_type_symbol
_atom_site_label
_atom_site_fract_x
_atom_site_fract_y
_atom_site_fract_z
Si Si1 0.689331 0.741264 0.871770
Si Si2 0.545894 0.821861 0.310527
Si Si3 0.314990 0.904390 0.442294
Si Si4 0.833093 0.024808 0.940407
Si Si5 0.924644 0.189128 0.437490
Si Si6 0.426310 0.063931 0.634348
O O1 0.594865 0.796611 0.847813
O O2 0.790910 0.710927 0.824965
O O3 0.797178 0.762245 0.921212
O O4 0.575371 0.693277 0.898730
O O5 0.500000 0.807207 0.250000
O O6 0.577450 0.892321 0.314748
O O7 0.362986 0.876733 0.500000
O O8 0.151448 0.874092 0.423770
O O9 0.461801 0.896807 0.403448
O O10 0.288727 0.972740 0.448892
O O11 0.747032 0.063124 0.894279
O O12 0.854568 0.055631 0.000000
O O13 0.000000 0.000000 0.919071
O O14 0.970628 0.196189 0.500000
O O15 0.500000 0.000000 0.649325
#
# Coordination Sequence:
#
# PCOD8293594 Si02
#       6
#    16  16  16  16  16  16
#     4  10  22  38  58  83 117 152 199 247 303 364
#     4  11  23  41  62  84 109 152 208 258 307 353
#     4   9  17  31  51  76 114 153 185 224 280 358
#     4   9  18  31  51  82 116 152 192 228 278 351
#     4  10  19  34  55  85 121 153 187 236 302 374
#     4  10  20  36  57  83 115 153 195 246 301 361
#
# _framework density 19.92962
#
# number of rings (size 3 to 8) (size 9 to 14) (size 15 to 20)
#    0.000    2.167    1.667    1.500    2.333    2.333 
#    0.000    1.667    0.000    0.000    0.000    1.167 
#    0.000    0.000    0.000    0.000    0.000    0.000 
#
# Total GULP energy -594669.556578 kJ/mol
# GULP energy per Si atom -12388.949095 kJ/mol
# Density = 1.988426 g / cm^3
# Si number density = 19.929620 Si / 1000 Ang^3
#
#
#
# Elastic Constant Matrix: (Units=GPa)
#
#
# Indices 1 2 3 4 5 6 
#
# 1 104.6223 26.4854 47.5199 0.0000 0.0000 0.0000
# 2 26.4854 87.9490 30.8984 0.0000 0.0000 0.0000
# 3 47.5199 30.8984 86.3203 0.0000 0.0000 0.0000
# 4 0.0000 0.0000 0.0000 25.1897 0.0000 0.0000
# 5 0.0000 0.0000 0.0000 0.0000 25.1595 0.0000
# 6 0.0000 0.0000 0.0000 0.0000 0.0000 29.7477
#
#
#
# Elastic Compliance Matrix: (Units=1/GPa)
#
#
# Indices 1 2 3 4 5 6 
#
# 1 0.012938 -0.001594 -0.006551 0.000000 0.000000 0.000000
# 2 -0.001594 0.013202 -0.003848 0.000000 0.000000 0.000000
# 3 -0.006551 -0.003848 0.016569 0.000000 0.000000 0.000000
# 4 0.000000 0.000000 0.000000 0.039699 0.000000 0.000000
# 5 0.000000 0.000000 0.000000 0.000000 0.039746 0.000000
# 6 0.000000 0.000000 0.000000 0.000000 0.000000 0.033616
#
#
# Mechanical properties :
#
#
# Convention : Reuss Voigt Hill
#
# Bulk Modulus (GPa) = 53.41658 54.29988 53.85823
# Shear Modulus (GPa) = 26.88204 27.61859 27.25031
#
# Velocity S-wave (km/s) = 3.67665 3.72668 3.70175
# Velocity P-wave (km/s) = 6.69959 6.76923 6.73450
#
# Compressibility (1/GPa) = 0.01872078
#
# Stress axis : x y z
#
# Youngs Moduli (GPa) = 77.29452 75.74457 60.35444
#
# Poissons Ratio (x) = 0.12077 0.39541
# Poissons Ratio (y) = 0.12324 0.23225
# Poissons Ratio (z) = 0.50639 0.29147
#
# Static dielectric constant tensor:
#      x y z
#    x 3.678630 0.000000 0.000000 
#    y 0.000000 3.541490 0.000000 
#    z 0.000000 0.000000 3.447690 
# 
# 
# High freq. dielectric constant tensor:
#      x y z
#    x 1.783600 0.000000 0.000000 
#    y 0.000000 1.774600 0.000000 
#    z 0.000000 0.000000 1.745920 
# 
# From -- ./inp_files/42441.got.cif
#   From: 2010.03.12/outbox.cif.g09.slc.cpg/sg72_22_cif.got.tgz:42441.got - 2010.04.16 14:54:00.
