data_PCOD8293184
_publ_section_title
;
Structure prediction by ZEFSAII (Michael W. Deem and Ramdas Pophale) SiO2 
 PCOD8293184
Probable space group: I B A M
;
_chemical_formula_sum "Si O2"
_cell_formula_units_Z 96
_cell_length_a 11.448441
_cell_length_b 22.910301
_cell_length_c 18.830426
_cell_angle_alpha 90.000000
_cell_angle_beta 90.000000
_cell_angle_gamma 90.000000
_cell_volume 4938.980262
_symmetry_space_group_name_H-M "I B A M"
_symmetry_group_IT_number 72
_symmetry_cell_setting 'orthorhombic'
loop_
_space_group_symop_operation_xyz
x,y,z
-x,-y,z
x,-y,1/2-z
-x,y,1/2-z
-x,-y,-z
x,y,-z
-x,y,1/2+z
x,-y,1/2+z
1/2+x,1/2+y,1/2+z
1/2-x,1/2-y,1/2+z
1/2+x,1/2-y,-z
1/2-x,1/2+y,-z
1/2-x,1/2-y,1/2-z
1/2+x,1/2+y,1/2-z
1/2-x,1/2+y,z
1/2+x,1/2-y,z
loop_
_atom_site_type_symbol
_atom_site_label
_atom_site_fract_x
_atom_site_fract_y
_atom_site_fract_z
Si Si1 0.476527 0.564825 0.668045
Si Si2 0.075227 0.225657 0.681344
Si Si3 0.487801 0.933041 0.834341
Si Si4 0.680084 0.151689 0.338771
Si Si5 0.250871 0.376613 0.187157
Si Si6 0.908281 0.165253 0.583421
O O1 0.500000 0.500000 0.644044
O O2 0.500000 0.578274 0.750000
O O3 0.339770 0.575661 0.656945
O O4 0.553728 0.604175 0.616893
O O5 0.108087 0.292834 0.690119
O O6 0.194340 0.187702 0.670269
O O7 0.000000 0.205051 0.750000
O O8 0.989186 0.217091 0.614222
O O9 0.500000 0.933230 0.750000
O O10 0.590801 0.895745 0.871585
O O11 0.368831 0.896739 0.851775
O O12 0.500000 0.000000 0.862770
O O13 0.741742 0.120267 0.272307
O O14 0.772003 0.173774 0.397261
O O15 0.924209 0.164659 0.500000
#
# Coordination Sequence:
#
# PCOD8293184 Si02
#       6
#    16  16  16  16  16  16
#     4  10  20  35  63  90 116 150 199 253 300 347
#     4  11  21  37  63  89 114 151 203 257 300 347
#     4   9  20  31  52  88 121 150 182 235 301 357
#     4  11  21  35  60  83 119 153 192 246 307 357
#     4  10  18  34  56  91 117 145 188 251 303 344
#     4  11  24  40  56  84 122 159 199 242 300 366
#
# _framework density 19.437211999999999
#
# number of rings (size 3 to 8) (size 9 to 14) (size 15 to 20)
#    0.000    1.667    3.333    3.000    4.667    2.333 
#    0.000    0.000    0.000    1.500    0.000    0.000 
#    0.000    0.000    0.000    0.000    0.000    0.000 
#
# Total GULP energy -594846.208877 kJ/mol
# GULP energy per Si atom -12392.629352 kJ/mol
# Density = 1.939297 g / cm^3
# Si number density = 19.437212 Si / 1000 Ang^3
#
#
#
# Elastic Constant Matrix: (Units=GPa)
#
#
# Indices 1 2 3 4 5 6 
#
# 1 117.4078 45.5738 17.6116 0.0000 0.0000 0.0000
# 2 45.5738 118.4613 5.3591 0.0000 0.0000 0.0000
# 3 17.6116 5.3591 70.1480 0.0000 0.0000 0.0000
# 4 0.0000 0.0000 0.0000 6.4776 0.0000 0.0000
# 5 0.0000 0.0000 0.0000 0.0000 15.7820 0.0000
# 6 0.0000 0.0000 0.0000 0.0000 0.0000 14.6071
#
#
#
# Elastic Compliance Matrix: (Units=1/GPa)
#
#
# Indices 1 2 3 4 5 6 
#
# 1 0.010372 -0.003886 -0.002307 0.000000 0.000000 0.000000
# 2 -0.003886 0.009927 0.000217 0.000000 0.000000 0.000000
# 3 -0.002307 0.000217 0.014818 0.000000 0.000000 0.000000
# 4 0.000000 0.000000 0.000000 0.154378 0.000000 0.000000
# 5 0.000000 0.000000 0.000000 0.000000 0.063363 0.000000
# 6 0.000000 0.000000 0.000000 0.000000 0.000000 0.068460
#
#
# Mechanical properties :
#
#
# Convention : Reuss Voigt Hill
#
# Bulk Modulus (GPa) = 43.16810 49.23400 46.20105
# Shear Modulus (GPa) = 14.66315 23.20485 18.93400
#
# Velocity S-wave (km/s) = 2.74959 3.45894 3.12446
# Velocity P-wave (km/s) = 5.68661 6.42940 6.06938
#
# Compressibility (1/GPa) = 0.02316526
#
# Stress axis : x y z
#
# Youngs Moduli (GPa) = 96.41596 100.73873 67.48455
#
# Poissons Ratio (x) = 0.39145 0.15569
# Poissons Ratio (y) = 0.37465 -0.01466
# Poissons Ratio (z) = 0.22244 -0.02188
#
# Static dielectric constant tensor:
#      x y z
#    x 3.959830 0.000000 0.000000 
#    y 0.000000 3.600960 0.000000 
#    z 0.000000 0.000000 2.942140 
# 
# 
# High freq. dielectric constant tensor:
#      x y z
#    x 1.779170 0.000000 0.000000 
#    y 0.000000 1.764360 0.000000 
#    z 0.000000 0.000000 1.689290 
# 
# From -- ./inp_files/29464.got.cif
#   From: 2010.03.12/outbox.cif.g09.slc.cpg/sg72_15_cif.got.tgz:29464.got - 2010.04.16 14:54:00.
