data_PCOD8293735
_publ_section_title
;
Structure prediction by ZEFSAII (Michael W. Deem and Ramdas Pophale) SiO2 
 PCOD8293735
Probable space group: I B A M
;
_chemical_formula_sum "Si O2"
_cell_formula_units_Z 64
_cell_length_a 14.462167
_cell_length_b 12.067596
_cell_length_c 18.044464
_cell_angle_alpha 90.000000
_cell_angle_beta 90.000000
_cell_angle_gamma 90.000000
_cell_volume 3149.184612
_symmetry_space_group_name_H-M "I B A M"
_symmetry_group_IT_number 72
_symmetry_cell_setting 'orthorhombic'
loop_
_space_group_symop_operation_xyz
x,y,z
-x,-y,z
x,-y,1/2-z
-x,y,1/2-z
-x,-y,-z
x,y,-z
-x,y,1/2+z
x,-y,1/2+z
1/2+x,1/2+y,1/2+z
1/2-x,1/2-y,1/2+z
1/2+x,1/2-y,-z
1/2-x,1/2+y,-z
1/2-x,1/2-y,1/2-z
1/2+x,1/2+y,1/2-z
1/2-x,1/2+y,z
1/2+x,1/2-y,z
loop_
_atom_site_type_symbol
_atom_site_label
_atom_site_fract_x
_atom_site_fract_y
_atom_site_fract_z
Si Si1 0.592931 0.603673 0.806581
Si Si2 0.213184 0.979182 0.585161
Si Si3 0.899270 0.201692 0.336992
Si Si4 0.589135 0.932368 0.415062
O O1 0.582783 0.500000 0.750000
O O2 0.667415 0.581104 0.870033
O O3 0.496922 0.636175 0.847111
O O4 0.625161 0.703186 0.751419
O O5 0.183969 0.991636 0.500000
O O6 0.178945 0.861211 0.615504
O O7 0.323161 0.987242 0.595316
O O8 0.903630 0.326628 0.363123
O O9 0.579942 0.892569 0.500000
O O10 0.500000 0.000000 0.389326
#
# Coordination Sequence:
#
# PCOD8293735 Si02
#       4
#    16  16  16  16
#     4   9  19  37  59  87 118 144 187 241 279 334
#     4  10  20  35  58  86 113 149 193 232 280 338
#     4  10  19  37  60  81 114 154 186 229 288 335
#     4  10  23  40  56  82 118 150 189 238 281 333
#
# _framework density 20.322721000000001
#
# number of rings (size 3 to 8) (size 9 to 14) (size 15 to 20)
#    0.000    2.250    0.000    6.000    0.000    6.000 
#    0.000   20.000    0.000    0.000    0.000    0.000 
#    0.000    0.000    0.000    0.000    0.000    0.000 
#
# Total GULP energy -396601.370570 kJ/mol
# GULP energy per Si atom -12393.792830 kJ/mol
# Density = 2.027647 g / cm^3
# Si number density = 20.322721 Si / 1000 Ang^3
#
#
#
# Elastic Constant Matrix: (Units=GPa)
#
#
# Indices 1 2 3 4 5 6 
#
# 1 126.5730 50.3462 64.9753 0.0000 0.0000 0.0000
# 2 50.3462 118.3765 58.8657 0.0000 0.0000 0.0000
# 3 64.9753 58.8657 116.4766 0.0000 0.0000 0.0000
# 4 0.0000 0.0000 0.0000 28.9458 0.0000 0.0000
# 5 0.0000 0.0000 0.0000 0.0000 21.3173 0.0000
# 6 0.0000 0.0000 0.0000 0.0000 0.0000 14.9127
#
#
#
# Elastic Compliance Matrix: (Units=1/GPa)
#
#
# Indices 1 2 3 4 5 6 
#
# 1 0.011512 -0.002274 -0.005272 0.000000 0.000000 0.000000
# 2 -0.002274 0.011733 -0.004661 0.000000 0.000000 0.000000
# 3 -0.005272 -0.004661 0.013882 0.000000 0.000000 0.000000
# 4 0.000000 0.000000 0.000000 0.034547 0.000000 0.000000
# 5 0.000000 0.000000 0.000000 0.000000 0.046910 0.000000
# 6 0.000000 0.000000 0.000000 0.000000 0.000000 0.067057
#
#
# Mechanical properties :
#
#
# Convention : Reuss Voigt Hill
#
# Bulk Modulus (GPa) = 78.66844 78.86673 78.76759
# Shear Modulus (GPa) = 23.33258 25.51776 24.42517
#
# Velocity S-wave (km/s) = 3.39204 3.54733 3.47055
# Velocity P-wave (km/s) = 7.35764 7.46120 7.40960
#
# Compressibility (1/GPa) = 0.01271158
#
# Stress axis : x y z
#
# Youngs Moduli (GPa) = 86.86833 85.23278 72.03539
#
# Poissons Ratio (x) = 0.19383 0.37979
# Poissons Ratio (y) = 0.19755 0.33575
# Poissons Ratio (z) = 0.45800 0.39726
#
# Static dielectric constant tensor:
#      x y z
#    x 3.725000 0.000000 0.000000 
#    y 0.000000 3.587750 0.000000 
#    z 0.000000 0.000000 4.162640 
# 
# 
# High freq. dielectric constant tensor:
#      x y z
#    x 1.797890 0.000000 0.000000 
#    y 0.000000 1.775360 0.000000 
#    z 0.000000 0.000000 1.797550 
# 
# From -- ./inp_files/30129.got.cif
#   From: 2010.03.12/outbox.cif.g09.slc.cpg/sg72_16_cif.got.tgz:30129.got - 2010.04.16 14:54:00.
