data_PCOD8293110
_publ_section_title
;
Structure prediction by ZEFSAII (Michael W. Deem and Ramdas Pophale) SiO2 
 PCOD8293110
Probable space group: I B A M
;
_chemical_formula_sum "Si O2"
_cell_formula_units_Z 80
_cell_length_a 12.053275
_cell_length_b 21.898514
_cell_length_c 14.537436
_cell_angle_alpha 90.000000
_cell_angle_beta 90.000000
_cell_angle_gamma 90.000000
_cell_volume 3837.138952
_symmetry_space_group_name_H-M "I B A M"
_symmetry_group_IT_number 72
_symmetry_cell_setting 'orthorhombic'
loop_
_space_group_symop_operation_xyz
x,y,z
-x,-y,z
x,-y,1/2-z
-x,y,1/2-z
-x,-y,-z
x,y,-z
-x,y,1/2+z
x,-y,1/2+z
1/2+x,1/2+y,1/2+z
1/2-x,1/2-y,1/2+z
1/2+x,1/2-y,-z
1/2-x,1/2+y,-z
1/2-x,1/2-y,1/2-z
1/2+x,1/2+y,1/2-z
1/2-x,1/2+y,z
1/2+x,1/2-y,z
loop_
_atom_site_type_symbol
_atom_site_label
_atom_site_fract_x
_atom_site_fract_y
_atom_site_fract_z
Si Si1 0.130649 0.827036 0.758171
Si Si2 0.818009 0.477302 0.500000
Si Si3 0.229232 0.747493 0.394217
Si Si4 0.232342 0.439222 0.808228
Si Si5 0.450086 0.906101 0.500000
Si Si6 0.048962 0.654572 0.659302
O O1 0.190152 0.806434 0.663315
O O2 0.165560 0.783314 0.843447
O O3 0.166895 0.896670 0.775599
O O4 0.000000 0.824752 0.750000
O O5 0.744106 0.459239 0.587037
O O6 0.844679 0.549614 0.500000
O O7 0.933025 0.440940 0.500000
O O8 0.258954 0.765107 0.500000
O O9 0.129839 0.698727 0.396115
O O10 0.223245 0.500000 0.750000
O O11 0.114985 0.404233 0.801973
O O12 0.447866 0.864519 0.408049
O O13 0.000000 0.688378 0.750000
#
# Coordination Sequence:
#
# PCOD8293110 Si02
#       6
#    16   8  16  16   8  16
#     4  10  23  41  64  91 120 161 208 253 314 380
#     4   9  18  32  54  81 120 166 208 245 297 354
#     4  10  21  41  65  91 124 157 201 262 321 379
#     4  10  21  37  57  84 123 167 207 261 299 358
#     4   9  16  28  50  88 122 166 206 233 297 383
#     4  10  18  31  58  91 130 165 203 247 312 377
#
# _framework density 20.848866000000001
#
# number of rings (size 3 to 8) (size 9 to 14) (size 15 to 20)
#    0.000    2.200    1.000    1.800    4.200    3.200 
#    1.800    0.000    6.600    1.200    0.000    0.000 
#    0.000    0.000    0.000    0.000    0.000    0.000 
#
# Total GULP energy -495993.571535 kJ/mol
# GULP energy per Si atom -12399.839288 kJ/mol
# Density = 2.080141 g / cm^3
# Si number density = 20.848866 Si / 1000 Ang^3
#
#
#
# Elastic Constant Matrix: (Units=GPa)
#
#
# Indices 1 2 3 4 5 6 
#
# 1 80.4031 27.2520 37.1602 0.0000 0.0000 0.0000
# 2 27.2520 86.7124 44.8480 0.0002 0.0000 0.0002
# 3 37.1602 44.8480 173.2336 0.0000 0.0000 0.0003
# 4 0.0000 0.0002 0.0000 21.7904 0.0000 0.0001
# 5 0.0000 0.0000 0.0000 0.0000 25.3622 0.0000
# 6 0.0000 0.0002 0.0003 0.0001 0.0000 8.1554
#
#
#
# Elastic Compliance Matrix: (Units=1/GPa)
#
#
# Indices 1 2 3 4 5 6 
#
# 1 0.014643 -0.003438 -0.002251 0.000000 0.000000 0.000000
# 2 -0.003438 0.014122 -0.002919 0.000000 0.000000 0.000000
# 3 -0.002251 -0.002919 0.007011 0.000000 0.000000 0.000000
# 4 0.000000 0.000000 0.000000 0.045892 0.000000 -0.000001
# 5 0.000000 0.000000 0.000000 0.000000 0.039429 0.000000
# 6 0.000000 0.000000 0.000000 -0.000001 0.000000 0.122619
#
#
# Mechanical properties :
#
#
# Convention : Reuss Voigt Hill
#
# Bulk Modulus (GPa) = 53.87533 62.09660 57.98597
# Shear Modulus (GPa) = 18.71837 26.46753 22.59295
#
# Velocity S-wave (km/s) = 2.99960 3.56686 3.29546
# Velocity P-wave (km/s) = 6.15580 6.84194 6.50792
#
# Compressibility (1/GPa) = 0.01856137
#
# Stress axis : x y z
#
# Youngs Moduli (GPa) = 68.29253 70.80987 142.63238
#
# Poissons Ratio (x) = 0.24342 0.32107
# Poissons Ratio (y) = 0.23477 0.41630
# Poissons Ratio (z) = 0.15373 0.20667
#
# Static dielectric constant tensor:
#      x y z
#    x 3.390390 0.000000 0.000000 
#    y 0.000000 3.815320 0.000000 
#    z 0.000000 0.000000 3.997440 
# 
# 
# High freq. dielectric constant tensor:
#      x y z
#    x 1.777750 0.000000 0.000000 
#    y 0.000000 1.815040 0.000000 
#    z 0.000000 0.000000 1.829630 
# 
# From -- ./inp_files/20231.got.cif
#   From: 2010.03.12/outbox.cif.g09.slc.cpg/sg72_11_cif.got.tgz:20231.got - 2010.04.16 14:54:00.
