data_PCOD8293485
_publ_section_title
;
Structure prediction by ZEFSAII (Michael W. Deem and Ramdas Pophale) SiO2 
 PCOD8293485
Probable space group: I B A M
;
_chemical_formula_sum "Si O2"
_cell_formula_units_Z 96
_cell_length_a 23.951528
_cell_length_b 24.319487
_cell_length_c 8.788516
_cell_angle_alpha 90.000000
_cell_angle_beta 90.000000
_cell_angle_gamma 90.000000
_cell_volume 5119.212787
_symmetry_space_group_name_H-M "I B A M"
_symmetry_group_IT_number 72
_symmetry_cell_setting 'orthorhombic'
loop_
_space_group_symop_operation_xyz
x,y,z
-x,-y,z
x,-y,1/2-z
-x,y,1/2-z
-x,-y,-z
x,y,-z
-x,y,1/2+z
x,-y,1/2+z
1/2+x,1/2+y,1/2+z
1/2-x,1/2-y,1/2+z
1/2+x,1/2-y,-z
1/2-x,1/2+y,-z
1/2-x,1/2-y,1/2-z
1/2+x,1/2+y,1/2-z
1/2-x,1/2+y,z
1/2+x,1/2-y,z
loop_
_atom_site_type_symbol
_atom_site_label
_atom_site_fract_x
_atom_site_fract_y
_atom_site_fract_z
Si Si1 0.645226 0.652034 0.679338
Si Si2 0.939728 0.941359 0.817221
Si Si3 0.057726 0.366254 0.828076
Si Si4 0.228970 0.347406 0.319788
Si Si5 0.158512 0.558464 0.325307
Si Si6 0.639583 0.774898 0.680306
O O1 0.646414 0.645810 0.500000
O O2 0.604044 0.604744 0.742692
O O3 0.707964 0.646914 0.743417
O O4 0.623553 0.712750 0.726177
O O5 0.000000 0.925390 0.750000
O O6 0.920084 0.000000 0.750000
O O7 0.942993 0.944547 0.000000
O O8 0.095013 0.420754 0.813505
O O9 0.090499 0.314201 0.755291
O O10 0.000000 0.378865 0.750000
O O11 0.043975 0.351235 0.000000
O O12 0.228405 0.341429 0.500000
O O13 0.198493 0.402337 0.269025
O O14 0.198799 0.293491 0.251081
O O15 0.162733 0.500000 0.250000
O O16 0.178293 0.556559 0.500000
O O17 0.646208 0.782417 0.500000
#
# Coordination Sequence:
#
# PCOD8293485 Si02
#       6
#    16  16  16  16  16  16
#     4   9  19  34  55  79 105 136 173 212 255 305
#     4  10  20  37  56  76 103 136 170 212 260 308
#     4   9  19  33  51  73 101 135 171 210 257 303
#     4  10  19  33  53  79 107 138 172 211 256 306
#     4  10  21  37  54  75 103 138 174 216 263 307
#     4   9  18  35  53  74 106 141 171 210 259 304
#
# _framework density 18.752884000000002
#
# number of rings (size 3 to 8) (size 9 to 14) (size 15 to 20)
#    0.000    2.500    0.000    3.500    0.000    5.000 
#    0.000    9.167    0.000    0.000    0.000    0.000 
#    0.000    0.000    0.000    0.000    0.000    0.000 
#
# Total GULP energy -595050.556704 kJ/mol
# GULP energy per Si atom -12396.886598 kJ/mol
# Density = 1.871020 g / cm^3
# Si number density = 18.752884 Si / 1000 Ang^3
#
#
#
# Elastic Constant Matrix: (Units=GPa)
#
#
# Indices 1 2 3 4 5 6 
#
# 1 41.4829 12.3295 5.1665 0.0000 0.0000 0.0000
# 2 12.3295 106.8986 10.8529 0.0000 0.0000 0.0000
# 3 5.1665 10.8529 44.6496 0.0000 0.0000 0.0000
# 4 0.0000 0.0000 0.0000 25.5905 0.0000 0.0000
# 5 0.0000 0.0000 0.0000 0.0000 27.4277 0.0000
# 6 0.0000 0.0000 0.0000 0.0000 0.0000 28.6634
#
#
#
# Elastic Compliance Matrix: (Units=1/GPa)
#
#
# Indices 1 2 3 4 5 6 
#
# 1 0.025183 -0.002675 -0.002264 0.000000 0.000000 0.000000
# 2 -0.002675 0.009875 -0.002091 0.000000 0.000000 0.000000
# 3 -0.002264 -0.002091 0.023167 0.000000 0.000000 0.000000
# 4 0.000000 0.000000 0.000000 0.039077 0.000000 0.000000
# 5 0.000000 0.000000 0.000000 0.000000 0.036459 0.000000
# 6 0.000000 0.000000 0.000000 0.000000 0.000000 0.034888
#
#
# Mechanical properties :
#
#
# Convention : Reuss Voigt Hill
#
# Bulk Modulus (GPa) = 22.64162 27.74765 25.19464
# Shear Modulus (GPa) = 25.32532 27.31514 26.32023
#
# Velocity S-wave (km/s) = 3.67887 3.82066 3.75044
# Velocity P-wave (km/s) = 5.49048 5.85593 5.67614
#
# Compressibility (1/GPa) = 0.04416645
#
# Stress axis : x y z
#
# Youngs Moduli (GPa) = 39.70889 101.26131 43.16523
#
# Poissons Ratio (x) = 0.27085 0.09772
# Poissons Ratio (y) = 0.10621 0.09025
# Poissons Ratio (z) = 0.08990 0.21173
#
# Static dielectric constant tensor:
#      x y z
#    x 3.602860 0.000000 0.000000 
#    y 0.000000 3.599310 0.000000 
#    z 0.000000 0.000000 3.321940 
# 
# 
# High freq. dielectric constant tensor:
#      x y z
#    x 1.727350 0.000000 0.000000 
#    y 0.000000 1.736420 0.000000 
#    z 0.000000 0.000000 1.716000 
# 
# From -- ./inp_files/6964.got.cif
#   From: 2010.03.12/outbox.cif.g09.slc.cpg/sg72_4_cif.got.tgz:6964.got - 2010.04.16 14:54:00.
