data_PCOD8293648
_publ_section_title
;
Structure prediction by ZEFSAII (Michael W. Deem and Ramdas Pophale) SiO2 
 PCOD8293648
Probable space group: I B A M
;
_chemical_formula_sum "Si O2"
_cell_formula_units_Z 112
_cell_length_a 11.755839
_cell_length_b 27.028778
_cell_length_c 20.142737
_cell_angle_alpha 90.000000
_cell_angle_beta 90.000000
_cell_angle_gamma 90.000000
_cell_volume 6400.273356
_symmetry_space_group_name_H-M "I B A M"
_symmetry_group_IT_number 72
_symmetry_cell_setting 'orthorhombic'
loop_
_space_group_symop_operation_xyz
x,y,z
-x,-y,z
x,-y,1/2-z
-x,y,1/2-z
-x,-y,-z
x,y,-z
-x,y,1/2+z
x,-y,1/2+z
1/2+x,1/2+y,1/2+z
1/2-x,1/2-y,1/2+z
1/2+x,1/2-y,-z
1/2-x,1/2+y,-z
1/2-x,1/2-y,1/2-z
1/2+x,1/2+y,1/2-z
1/2-x,1/2+y,z
1/2+x,1/2-y,z
loop_
_atom_site_type_symbol
_atom_site_label
_atom_site_fract_x
_atom_site_fract_y
_atom_site_fract_z
Si Si1 0.290479 0.816171 0.814308
Si Si2 0.230238 0.395497 0.076219
Si Si3 0.342468 0.095978 0.228467
Si Si4 0.539425 0.945206 0.346917
Si Si5 0.913451 0.888140 0.189629
Si Si6 0.467202 0.556031 0.424324
Si Si7 0.106819 0.219330 0.212693
O O1 0.254544 0.845791 0.880197
O O2 0.364690 0.851618 0.765757
O O3 0.182681 0.798718 0.773732
O O4 0.351993 0.764584 0.833673
O O5 0.111411 0.422842 0.092129
O O6 0.334599 0.432917 0.091290
O O7 0.228709 0.378830 0.000000
O O8 0.378492 0.053638 0.281866
O O9 0.427292 0.089353 0.165798
O O10 0.210832 0.090738 0.208518
O O11 0.500000 0.000000 0.365963
O O12 0.913852 0.830021 0.169948
O O13 0.000000 0.899413 0.250000
O O14 0.951491 0.912726 0.122155
O O15 0.500000 0.500000 0.409484
O O16 0.495467 0.570281 0.500000
O O17 0.000000 0.241732 0.250000
#
# Coordination Sequence:
#
# PCOD8293648 Si02
#       7
#    16  16  16  16  16  16  16
#     4   9  18  32  51  80 105 136 174 215 272 329
#     4  10  21  37  55  74 104 143 185 223 259 325
#     4   9  18  31  50  76 107 134 166 218 278 314
#     4  10  20  33  50  74 108 142 175 215 268 321
#     4  10  19  35  54  85 110 135 180 232 274 322
#     4  10  22  39  57  77 105 145 182 222 281 333
#     4   9  17  29  54  81 106 134 168 218 275 325
#
# _framework density 17.499253
#
# number of rings (size 3 to 8) (size 9 to 14) (size 15 to 20)
#    0.000    2.429    0.000    4.286    6.000    0.571 
#    2.571    1.429    0.000    0.857    0.000    0.000 
#    0.000    0.000    0.000    0.000    0.000    0.000 
#
# Total GULP energy -693860.026425 kJ/mol
# GULP energy per Si atom -12390.357615 kJ/mol
# Density = 1.745942 g / cm^3
# Si number density = 17.499253 Si / 1000 Ang^3
#
#
#
# Elastic Constant Matrix: (Units=GPa)
#
#
# Indices 1 2 3 4 5 6 
#
# 1 110.2187 52.6993 44.4138 0.0000 0.0000 0.0000
# 2 52.6993 121.8009 68.1172 0.0000 0.0000 0.0000
# 3 44.4138 68.1172 82.9660 0.0001 0.0000 0.0000
# 4 0.0000 0.0000 0.0001 29.5956 0.0000 0.0000
# 5 0.0000 0.0000 0.0000 0.0000 25.3275 0.0000
# 6 0.0000 0.0000 0.0000 0.0000 0.0000 69.9201
#
#
#
# Elastic Compliance Matrix: (Units=1/GPa)
#
#
# Indices 1 2 3 4 5 6 
#
# 1 0.012130 -0.002989 -0.004039 0.000000 0.000000 0.000000
# 2 -0.002989 0.015917 -0.011468 0.000000 0.000000 0.000000
# 3 -0.004039 -0.011468 0.023631 0.000000 0.000000 0.000000
# 4 0.000000 0.000000 0.000000 0.033789 0.000000 0.000000
# 5 0.000000 0.000000 0.000000 0.000000 0.039483 0.000000
# 6 0.000000 0.000000 0.000000 0.000000 0.000000 0.014302
#
#
# Mechanical properties :
#
#
# Convention : Reuss Voigt Hill
#
# Bulk Modulus (GPa) = 68.09735 71.71623 69.90679
# Shear Modulus (GPa) = 27.60314 34.95233 31.27773
#
# Velocity S-wave (km/s) = 3.97594 4.47403 4.23232
# Velocity P-wave (km/s) = 7.75090 8.23169 7.99491
#
# Compressibility (1/GPa) = 0.01468486
#
# Stress axis : x y z
#
# Youngs Moduli (GPa) = 82.44203 62.82611 42.31756
#
# Poissons Ratio (x) = 0.18781 0.17092
# Poissons Ratio (y) = 0.24644 0.48530
# Poissons Ratio (z) = 0.33299 0.72049
#
# Static dielectric constant tensor:
#      x y z
#    x 3.529070 0.000000 0.000000 
#    y 0.000000 3.744250 0.000000 
#    z 0.000000 0.000000 3.020180 
# 
# 
# High freq. dielectric constant tensor:
#      x y z
#    x 1.689680 0.000000 0.000000 
#    y 0.000000 1.678630 0.000000 
#    z 0.000000 0.000000 1.643350 
# 
# From -- ./inp_files/37418.got.cif
#   From: 2010.03.12/outbox.cif.g09.slc.cpg/sg72_19_cif.got.tgz:37418.got - 2010.04.16 14:54:00.
