data_PCOD8293512
_publ_section_title
;
Structure prediction by ZEFSAII (Michael W. Deem and Ramdas Pophale) SiO2 
 PCOD8293512
Probable space group: I B A M
;
_chemical_formula_sum "Si O2"
_cell_formula_units_Z 112
_cell_length_a 16.079296
_cell_length_b 19.986520
_cell_length_c 18.900351
_cell_angle_alpha 90.000000
_cell_angle_beta 90.000000
_cell_angle_gamma 90.000000
_cell_volume 6073.990134
_symmetry_space_group_name_H-M "I B A M"
_symmetry_group_IT_number 72
_symmetry_cell_setting 'orthorhombic'
loop_
_space_group_symop_operation_xyz
x,y,z
-x,-y,z
x,-y,1/2-z
-x,y,1/2-z
-x,-y,-z
x,y,-z
-x,y,1/2+z
x,-y,1/2+z
1/2+x,1/2+y,1/2+z
1/2-x,1/2-y,1/2+z
1/2+x,1/2-y,-z
1/2-x,1/2+y,-z
1/2-x,1/2-y,1/2-z
1/2+x,1/2+y,1/2-z
1/2-x,1/2+y,z
1/2+x,1/2-y,z
loop_
_atom_site_type_symbol
_atom_site_label
_atom_site_fract_x
_atom_site_fract_y
_atom_site_fract_z
Si Si1 0.186335 0.641288 0.672354
Si Si2 0.760281 0.999421 0.168082
Si Si3 0.053127 0.808237 0.421351
Si Si4 0.668746 0.865373 0.165223
Si Si5 0.762026 0.244279 0.579054
Si Si6 0.919074 0.043478 0.417651
Si Si7 0.505225 0.808786 0.669594
O O1 0.213394 0.567647 0.648307
O O2 0.198127 0.654546 0.755829
O O3 0.246834 0.691785 0.630288
O O4 0.089851 0.651772 0.651502
O O5 0.695177 0.941081 0.149396
O O6 0.843605 0.990813 0.123268
O O7 0.786112 0.000000 0.250000
O O8 0.014242 0.812953 0.500000
O O9 0.142978 0.776122 0.423749
O O10 0.060849 0.882321 0.387791
O O11 0.994544 0.759670 0.375212
O O12 0.710074 0.817094 0.108686
O O13 0.569647 0.860231 0.154703
O O14 0.730159 0.261939 0.500000
O O15 0.894321 0.047997 0.500000
O O16 0.000000 0.000000 0.404446
O O17 0.500000 0.784350 0.750000
#
# Coordination Sequence:
#
# PCOD8293512 Si02
#       7
#    16  16  16  16  16  16  16
#     4   9  20  36  54  80 116 144 181 232 275 324
#     4  10  21  37  56  83 113 147 184 225 278 331
#     4   9  18  35  54  74 106 141 179 228 278 325
#     4  10  19  34  57  81 110 147 188 223 274 335
#     4  10  19  33  55  78 103 144 185 226 276 323
#     4  10  21  38  57  77 107 145 181 224 280 335
#     4   9  19  35  54  81 110 145 184 225 276 321
#
# _framework density 18.43928
#
# number of rings (size 3 to 8) (size 9 to 14) (size 15 to 20)
#    0.000    2.429    1.429    0.429    0.000    3.143 
#    2.571    4.286    0.000    0.000    0.000    6.000 
#    0.000    0.000    0.000    0.000    0.000    0.000 
#
# Total GULP energy -694383.931659 kJ/mol
# GULP energy per Si atom -12399.713065 kJ/mol
# Density = 1.839731 g / cm^3
# Si number density = 18.439280 Si / 1000 Ang^3
#
#
#
# Elastic Constant Matrix: (Units=GPa)
#
#
# Indices 1 2 3 4 5 6 
#
# 1 65.8269 43.7331 40.5558 0.0000 0.0000 0.0000
# 2 43.7331 142.7032 55.6006 0.0000 0.0000 0.0000
# 3 40.5558 55.6006 74.3626 0.0000 0.0000 0.0000
# 4 0.0000 0.0000 0.0000 20.5281 0.0000 0.0000
# 5 0.0000 0.0000 0.0000 0.0000 17.1961 0.0000
# 6 0.0000 0.0000 0.0000 0.0000 0.0000 26.5716
#
#
#
# Elastic Compliance Matrix: (Units=1/GPa)
#
#
# Indices 1 2 3 4 5 6 
#
# 1 0.023849 -0.003162 -0.010642 0.000000 0.000000 0.000000
# 2 -0.003162 0.010307 -0.005982 0.000000 0.000000 0.000000
# 3 -0.010642 -0.005982 0.023725 0.000000 0.000000 0.000000
# 4 0.000000 0.000000 0.000000 0.048714 0.000000 0.000000
# 5 0.000000 0.000000 0.000000 0.000000 0.058153 0.000000
# 6 0.000000 0.000000 0.000000 0.000000 0.000000 0.037634
#
#
# Mechanical properties :
#
#
# Convention : Reuss Voigt Hill
#
# Bulk Modulus (GPa) = 54.62261 62.51906 58.57084
# Shear Modulus (GPa) = 20.15660 22.39271 21.27465
#
# Velocity S-wave (km/s) = 3.30984 3.48861 3.40040
# Velocity P-wave (km/s) = 6.65538 7.08563 6.87387
#
# Compressibility (1/GPa) = 0.01830744
#
# Stress axis : x y z
#
# Youngs Moduli (GPa) = 41.93054 97.01684 42.15040
#
# Poissons Ratio (x) = 0.30680 0.44858
# Poissons Ratio (y) = 0.13260 0.25215
# Poissons Ratio (z) = 0.44624 0.58037
#
# Static dielectric constant tensor:
#      x y z
#    x 3.339250 0.000000 0.000000 
#    y 0.000000 3.507500 0.000000 
#    z 0.000000 0.000000 3.565380 
# 
# 
# High freq. dielectric constant tensor:
#      x y z
#    x 1.706190 0.000000 0.000000 
#    y 0.000000 1.719990 0.000000 
#    z 0.000000 0.000000 1.711840 
# 
# From -- ./inp_files/39192.got.cif
#   From: 2010.03.12/outbox.cif.g09.slc.cpg/sg72_20_cif.got.tgz:39192.got - 2010.04.16 14:54:00.
