data_PCOD8293458
_publ_section_title
;
Structure prediction by ZEFSAII (Michael W. Deem and Ramdas Pophale) SiO2 
 PCOD8293458
Probable space group: I B A M
;
_chemical_formula_sum "Si O2"
_cell_formula_units_Z 116
_cell_length_a 22.051600
_cell_length_b 31.406338
_cell_length_c 9.124761
_cell_angle_alpha 90.000000
_cell_angle_beta 90.000000
_cell_angle_gamma 90.000000
_cell_volume 6319.444506
_symmetry_space_group_name_H-M "I B A M"
_symmetry_group_IT_number 72
_symmetry_cell_setting 'orthorhombic'
loop_
_space_group_symop_operation_xyz
x,y,z
-x,-y,z
x,-y,1/2-z
-x,y,1/2-z
-x,-y,-z
x,y,-z
-x,y,1/2+z
x,-y,1/2+z
1/2+x,1/2+y,1/2+z
1/2-x,1/2-y,1/2+z
1/2+x,1/2-y,-z
1/2-x,1/2+y,-z
1/2-x,1/2-y,1/2-z
1/2+x,1/2+y,1/2-z
1/2-x,1/2+y,z
1/2+x,1/2-y,z
loop_
_atom_site_type_symbol
_atom_site_label
_atom_site_fract_x
_atom_site_fract_y
_atom_site_fract_z
Si Si1 0.000000 0.000000 0.250000
Si Si2 0.723335 0.542528 0.174490
Si Si3 0.168029 0.220566 0.670989
Si Si4 0.303434 0.802861 0.827684
Si Si5 0.327972 0.895874 0.172944
Si Si6 0.062558 0.455606 0.823701
Si Si7 0.406369 0.567793 0.663594
Si Si8 0.559798 0.659252 0.173595
O O1 0.043085 0.030735 0.344335
O O2 0.747833 0.500000 0.250000
O O3 0.767747 0.580001 0.227622
O O4 0.655880 0.552055 0.238637
O O5 0.724111 0.536162 0.000000
O O6 0.163597 0.229814 0.500000
O O7 0.232531 0.200241 0.713690
O O8 0.158376 0.265383 0.752312
O O9 0.116464 0.187892 0.722328
O O10 0.327999 0.847825 0.764700
O O11 0.313451 0.798905 0.000000
O O12 0.388263 0.920449 0.222352
O O13 0.324826 0.893426 0.000000
O O14 0.082593 0.500000 0.750000
O O15 0.000000 0.440405 0.750000
O O16 0.056390 0.460722 0.000000
O O17 0.388090 0.580755 0.500000
O O18 0.430187 0.611274 0.737763
O O19 0.500000 0.678155 0.250000
O O20 0.550135 0.659567 0.000000
#
# Coordination Sequence:
#
# PCOD8293458 Si02
#       8
#     4  16  16  16  16  16  16  16
#     4  12  18  32  48  70 100 136 180 208 242 288
#     4  10  19  33  50  72 101 134 171 210 251 292
#     4   9  18  33  54  77 101 127 162 208 254 299
#     4   9  17  33  56  77  99 130 164 201 249 306
#     4   9  18  32  53  77 101 130 166 205 248 299
#     4  10  19  33  52  75 101 133 169 202 241 294
#     4  10  20  32  49  70  99 138 175 210 249 292
#     4  10  20  35  52  73 100 133 170 208 252 298
#
# _framework density 18.356044000000001
#
# number of rings (size 3 to 8) (size 9 to 14) (size 15 to 20)
#    0.000    2.345    1.379    2.276    0.000    3.862 
#    0.000    4.138    0.000    4.966    0.000    0.000 
#    0.000    0.000    0.000    0.000    0.000    0.000 
#
# Total GULP energy -719022.726731 kJ/mol
# GULP energy per Si atom -12396.943564 kJ/mol
# Density = 1.831427 g / cm^3
# Si number density = 18.356044 Si / 1000 Ang^3
#
#
#
# Elastic Constant Matrix: (Units=GPa)
#
#
# Indices 1 2 3 4 5 6 
#
# 1 117.7376 84.4614 28.2958 0.0000 0.0000 0.0000
# 2 84.4614 166.3124 33.2883 0.0000 0.0000 0.0000
# 3 28.2958 33.2883 37.9321 0.0000 0.0000 0.0000
# 4 0.0000 0.0000 0.0000 26.3993 0.0000 0.0000
# 5 0.0000 0.0000 0.0000 0.0000 23.1889 0.0000
# 6 0.0000 0.0000 0.0000 0.0000 0.0000 27.6804
#
#
#
# Elastic Compliance Matrix: (Units=1/GPa)
#
#
# Indices 1 2 3 4 5 6 
#
# 1 0.014145 -0.006152 -0.005153 0.000000 0.000000 0.000000
# 2 -0.006152 0.009970 -0.004160 0.000000 0.000000 0.000000
# 3 -0.005153 -0.004160 0.033857 0.000000 0.000000 0.000000
# 4 0.000000 0.000000 0.000000 0.037880 0.000000 0.000000
# 5 0.000000 0.000000 0.000000 0.000000 0.043124 0.000000
# 6 0.000000 0.000000 0.000000 0.000000 0.000000 0.036127
#
#
# Mechanical properties :
#
#
# Convention : Reuss Voigt Hill
#
# Bulk Modulus (GPa) = 36.97881 68.23035 52.60458
# Shear Modulus (GPa) = 23.25075 27.18284 25.21679
#
# Velocity S-wave (km/s) = 3.56287 3.85238 3.71045
# Velocity P-wave (km/s) = 6.09216 7.55241 6.86124
#
# Compressibility (1/GPa) = 0.02704252
#
# Stress axis : x y z
#
# Youngs Moduli (GPa) = 70.69493 100.30243 29.53581
#
# Poissons Ratio (x) = 0.61709 0.15219
# Poissons Ratio (y) = 0.43494 0.12287
# Poissons Ratio (z) = 0.36427 0.41725
#
# Static dielectric constant tensor:
#      x y z
#    x 3.448310 0.000000 0.000000 
#    y 0.000000 3.574730 0.000000 
#    z 0.000000 0.000000 3.057780 
# 
# 
# High freq. dielectric constant tensor:
#      x y z
#    x 1.713730 0.000000 0.000000 
#    y 0.000000 1.716900 0.000000 
#    z 0.000000 0.000000 1.681550 
# 
# From -- ./inp_files/7539.got.cif
#   From: 2010.03.12/outbox.cif.g09.slc.cpg/sg72_4_cif.got.tgz:7539.got - 2010.04.16 14:54:00.
