data_PCOD8293009
_publ_section_title
;
Structure prediction by ZEFSAII (Michael W. Deem and Ramdas Pophale) SiO2 
 PCOD8293009
Probable space group: I B A M
;
_chemical_formula_sum "Si O2"
_cell_formula_units_Z 88
_cell_length_a 19.573260
_cell_length_b 18.746430
_cell_length_c 13.707945
_cell_angle_alpha 90.000000
_cell_angle_beta 90.000000
_cell_angle_gamma 90.000000
_cell_volume 5029.839103
_symmetry_space_group_name_H-M "I B A M"
_symmetry_group_IT_number 72
_symmetry_cell_setting 'orthorhombic'
loop_
_space_group_symop_operation_xyz
x,y,z
-x,-y,z
x,-y,1/2-z
-x,y,1/2-z
-x,-y,-z
x,y,-z
-x,y,1/2+z
x,-y,1/2+z
1/2+x,1/2+y,1/2+z
1/2-x,1/2-y,1/2+z
1/2+x,1/2-y,-z
1/2-x,1/2+y,-z
1/2-x,1/2-y,1/2-z
1/2+x,1/2+y,1/2-z
1/2-x,1/2+y,z
1/2+x,1/2-y,z
loop_
_atom_site_type_symbol
_atom_site_label
_atom_site_fract_x
_atom_site_fract_y
_atom_site_fract_z
Si Si1 0.352339 0.247967 0.224204
Si Si2 0.000000 0.245494 0.750000
Si Si3 0.232382 0.815249 0.614479
Si Si4 0.346581 0.545417 0.114581
Si Si5 0.369820 0.606020 0.389071
Si Si6 0.976902 0.878085 0.109177
O O1 0.428797 0.212268 0.229179
O O2 0.308156 0.194678 0.158009
O O3 0.318915 0.259928 0.331040
O O4 0.353240 0.326275 0.176180
O O5 0.019184 0.198700 0.842704
O O6 0.230195 0.796836 0.500000
O O7 0.213775 0.898190 0.633928
O O8 0.331232 0.464821 0.154870
O O9 0.417360 0.575837 0.161413
O O10 0.358730 0.533160 0.000000
O O11 0.347477 0.624074 0.500000
O O12 0.449866 0.583989 0.385964
O O13 0.952617 0.862480 0.000000
#
# Coordination Sequence:
#
# PCOD8293009 Si02
#       6
#    16   8  16  16  16  16
#     4  10  20  32  48  68  93 127 162 201 245 286
#     4  10  18  30  45  70  90 123 164 200 242 284
#     4  10  20  34  47  63  93 131 165 200 243 289
#     4   9  16  28  45  64  92 131 163 193 234 278
#     4   9  17  28  44  68  96 125 162 198 229 276
#     4   9  16  27  41  63  95 128 159 193 230 275
#
# _framework density 17.495588999999999
#
# number of rings (size 3 to 8) (size 9 to 14) (size 15 to 20)
#    0.000    2.545    1.818    1.091    0.000    3.636 
#    0.000    0.909    0.000    0.000    0.000    0.000 
#    0.000   11.636    0.000   38.182    0.000    0.000 
#
# Total GULP energy -545120.911477 kJ/mol
# GULP energy per Si atom -12389.111624 kJ/mol
# Density = 1.745577 g / cm^3
# Si number density = 17.495589 Si / 1000 Ang^3
#
#
#
# Elastic Constant Matrix: (Units=GPa)
#
#
# Indices 1 2 3 4 5 6 
#
# 1 113.1547 38.9085 30.9372 0.0000 0.0000 0.0000
# 2 38.9085 54.7097 18.5852 0.0000 0.0000 0.0000
# 3 30.9372 18.5852 66.2062 0.0000 0.0000 0.0000
# 4 0.0000 0.0000 0.0000 17.0789 0.0000 0.0000
# 5 0.0000 0.0000 0.0000 0.0000 20.0906 0.0000
# 6 0.0000 0.0000 0.0000 0.0000 0.0000 24.7811
#
#
#
# Elastic Compliance Matrix: (Units=1/GPa)
#
#
# Indices 1 2 3 4 5 6 
#
# 1 0.012462 -0.007611 -0.003687 0.000000 0.000000 0.000000
# 2 -0.007611 0.024853 -0.003420 0.000000 0.000000 0.000000
# 3 -0.003687 -0.003420 0.017787 0.000000 0.000000 0.000000
# 4 0.000000 0.000000 0.000000 0.058552 0.000000 0.000000
# 5 0.000000 0.000000 0.000000 0.000000 0.049775 0.000000
# 6 0.000000 0.000000 0.000000 0.000000 0.000000 0.040353
#
#
# Mechanical properties :
#
#
# Convention : Reuss Voigt Hill
#
# Bulk Modulus (GPa) = 38.96103 45.65914 42.31008
# Shear Modulus (GPa) = 20.68050 22.09942 21.38996
#
# Velocity S-wave (km/s) = 3.44181 3.55793 3.50035
# Velocity P-wave (km/s) = 6.17350 6.55993 6.36965
#
# Compressibility (1/GPa) = 0.02566667
#
# Stress axis : x y z
#
# Youngs Moduli (GPa) = 80.24122 40.23716 56.21966
#
# Poissons Ratio (x) = 0.30623 0.20729
# Poissons Ratio (y) = 0.61068 0.19229
# Poissons Ratio (z) = 0.29586 0.13762
#
# Static dielectric constant tensor:
#      x y z
#    x 3.401640 0.000000 0.000000 
#    y 0.000000 2.961840 0.000000 
#    z 0.000000 0.000000 3.529650 
# 
# 
# High freq. dielectric constant tensor:
#      x y z
#    x 1.656900 0.000000 0.000000 
#    y 0.000000 1.624490 0.000000 
#    z 0.000000 0.000000 1.698380 
# 
# From -- ./inp_files/24291.got.cif
#   From: 2010.03.12/outbox.cif.g09.slc.cpg/sg72_13_cif.got.tgz:24291.got - 2010.04.16 14:54:00.
