data_PCOD8293457
_publ_section_title
;
Structure prediction by ZEFSAII (Michael W. Deem and Ramdas Pophale) SiO2 
 PCOD8293457
Probable space group: I B A M
;
_chemical_formula_sum "Si O2"
_cell_formula_units_Z 80
_cell_length_a 24.274795
_cell_length_b 23.153889
_cell_length_c 8.778131
_cell_angle_alpha 90.000000
_cell_angle_beta 90.000000
_cell_angle_gamma 90.000000
_cell_volume 4933.800398
_symmetry_space_group_name_H-M "I B A M"
_symmetry_group_IT_number 72
_symmetry_cell_setting 'orthorhombic'
loop_
_space_group_symop_operation_xyz
x,y,z
-x,-y,z
x,-y,1/2-z
-x,y,1/2-z
-x,-y,-z
x,y,-z
-x,y,1/2+z
x,-y,1/2+z
1/2+x,1/2+y,1/2+z
1/2-x,1/2-y,1/2+z
1/2+x,1/2-y,-z
1/2-x,1/2+y,-z
1/2-x,1/2-y,1/2-z
1/2+x,1/2+y,1/2-z
1/2-x,1/2+y,z
1/2+x,1/2-y,z
loop_
_atom_site_type_symbol
_atom_site_label
_atom_site_fract_x
_atom_site_fract_y
_atom_site_fract_z
Si Si1 0.555316 0.241592 0.821316
Si Si2 0.056722 0.609790 0.681022
Si Si3 0.665580 0.059857 0.680072
Si Si4 0.172330 0.221084 0.823515
Si Si5 0.267524 0.840321 0.175817
O O1 0.500000 0.268902 0.750000
O O2 0.564002 0.176016 0.764600
O O3 0.608202 0.279839 0.773733
O O4 0.547979 0.241649 0.000000
O O5 0.056685 0.603757 0.500000
O O6 0.106392 0.573185 0.748257
O O7 0.000000 0.584857 0.750000
O O8 0.660014 0.055263 0.500000
O O9 0.710595 0.107829 0.721837
O O10 0.687115 0.000000 0.750000
O O11 0.204768 0.174304 0.722919
O O12 0.194437 0.285212 0.791766
O O13 0.180007 0.205021 0.000000
O O14 0.269673 0.858747 0.000000
#
# Coordination Sequence:
#
# PCOD8293457 Si02
#       5
#    16  16  16  16  16
#     4   9  17  29  46  69  99 128 158 196 237 283
#     4  10  19  34  50  69  94 125 164 207 246 286
#     4  12  24  37  52  69  92 126 164 207 250 291
#     4   9  17  31  49  71  98 127 157 196 240 289
#     4  10  19  33  50  71  96 123 160 202 242 290
#
# _framework density 16.214680999999999
#
# number of rings (size 3 to 8) (size 9 to 14) (size 15 to 20)
#    0.000    2.000    2.000    3.000    0.000    2.800 
#    0.000    2.000    0.000    0.000    0.000    0.000 
#    0.000    0.800    0.000    8.400    0.000    4.600 
#
# Total GULP energy -496059.762627 kJ/mol
# GULP energy per Si atom -12401.494066 kJ/mol
# Density = 1.617778 g / cm^3
# Si number density = 16.214681 Si / 1000 Ang^3
#
#
#
# Elastic Constant Matrix: (Units=GPa)
#
#
# Indices 1 2 3 4 5 6 
#
# 1 112.5425 39.5892 38.0016 0.0000 0.0000 0.0000
# 2 39.5892 52.1204 31.0524 0.0000 0.0000 0.0000
# 3 38.0016 31.0524 80.3077 0.0000 0.0000 0.0000
# 4 0.0000 0.0000 0.0000 22.4730 0.0000 0.0000
# 5 0.0000 0.0000 0.0000 0.0000 31.3646 0.0000
# 6 0.0000 0.0000 0.0000 0.0000 0.0000 19.1727
#
#
#
# Elastic Compliance Matrix: (Units=1/GPa)
#
#
# Indices 1 2 3 4 5 6 
#
# 1 0.012641 -0.007845 -0.002948 0.000000 0.000000 0.000000
# 2 -0.007845 0.029798 -0.007810 0.000000 0.000000 0.000000
# 3 -0.002948 -0.007810 0.016867 0.000000 0.000000 0.000000
# 4 0.000000 0.000000 0.000000 0.044498 0.000000 0.000000
# 5 0.000000 0.000000 0.000000 0.000000 0.031883 0.000000
# 6 0.000000 0.000000 0.000000 0.000000 0.000000 0.052157
#
#
# Mechanical properties :
#
#
# Convention : Reuss Voigt Hill
#
# Bulk Modulus (GPa) = 45.24901 51.36189 48.30545
# Shear Modulus (GPa) = 21.51313 23.69058 22.60185
#
# Velocity S-wave (km/s) = 3.64644 3.82652 3.73756
# Velocity P-wave (km/s) = 6.75984 7.16017 6.96288
#
# Compressibility (1/GPa) = 0.02209993
#
# Stress axis : x y z
#
# Youngs Moduli (GPa) = 79.10968 33.55923 59.28773
#
# Poissons Ratio (x) = 0.26327 0.17479
# Poissons Ratio (y) = 0.62062 0.46302
# Poissons Ratio (z) = 0.23323 0.26209
#
# Static dielectric constant tensor:
#      x y z
#    x 3.243530 0.000000 0.000000 
#    y 0.000000 2.808170 0.000000 
#    z 0.000000 0.000000 3.104520 
# 
# 
# High freq. dielectric constant tensor:
#      x y z
#    x 1.625030 0.000000 0.000000 
#    y 0.000000 1.579050 0.000000 
#    z 0.000000 0.000000 1.633740 
# 
# From -- ./inp_files/4790.got.cif
#   From: 2010.03.12/outbox.cif.g09.slc.cpg/sg72_3_cif.got.tgz:4790.got - 2010.04.16 14:54:00.
