data_PCOD8293064
_publ_section_title
;
Structure prediction by ZEFSAII (Michael W. Deem and Ramdas Pophale) SiO2 
 PCOD8293064
Probable space group: I B A M
;
_chemical_formula_sum "Si O2"
_cell_formula_units_Z 108
_cell_length_a 30.352260
_cell_length_b 13.084756
_cell_length_c 14.004629
_cell_angle_alpha 90.000000
_cell_angle_beta 90.000000
_cell_angle_gamma 90.000000
_cell_volume 5561.965242
_symmetry_space_group_name_H-M "I B A M"
_symmetry_group_IT_number 72
_symmetry_cell_setting 'orthorhombic'
loop_
_space_group_symop_operation_xyz
x,y,z
-x,-y,z
x,-y,1/2-z
-x,y,1/2-z
-x,-y,-z
x,y,-z
-x,y,1/2+z
x,-y,1/2+z
1/2+x,1/2+y,1/2+z
1/2-x,1/2-y,1/2+z
1/2+x,1/2-y,-z
1/2-x,1/2+y,-z
1/2-x,1/2-y,1/2-z
1/2+x,1/2+y,1/2-z
1/2-x,1/2+y,z
1/2+x,1/2-y,z
loop_
_atom_site_type_symbol
_atom_site_label
_atom_site_fract_x
_atom_site_fract_y
_atom_site_fract_z
Si Si1 0.500000 0.000000 0.250000
Si Si2 0.370323 0.772582 0.601484
Si Si3 0.614333 0.295585 0.799278
Si Si4 0.290193 0.637008 0.608380
Si Si5 0.155130 0.000000 0.750000
Si Si6 0.306950 0.172499 0.390738
Si Si7 0.132719 0.502601 0.360225
Si Si8 0.555338 0.140232 0.104990
O O1 0.526283 0.078445 0.181871
O O2 0.390045 0.731513 0.500000
O O3 0.398908 0.733055 0.690106
O O4 0.320145 0.737105 0.612581
O O5 0.369324 0.893236 0.593685
O O6 0.622912 0.417495 0.802863
O O7 0.660728 0.241792 0.826459
O O8 0.572581 0.253309 0.860086
O O9 0.284949 0.594857 0.500000
O O10 0.313114 0.549253 0.671170
O O11 0.243023 0.675099 0.648090
O O12 0.309858 0.210755 0.500000
O O13 0.319863 0.053276 0.378734
O O14 0.119637 0.500000 0.250000
O O15 0.098573 0.574675 0.414444
O O16 0.531897 0.152851 0.000000
#
# Coordination Sequence:
#
# PCOD8293064 Si02
#       8
#     4  16  16  16   8  16  16  16
#     4  12  22  40  62 100 128 148 174 212 266 348
#     4  10  18  31  48  68 101 139 180 232 279 321
#     4  10  20  37  53  80 107 147 195 233 278 336
#     4   9  21  34  46  72 104 143 197 249 295 333
#     4  10  22  34  57  77 106 152 196 251 291 324
#     4  10  20  33  49  71 106 146 189 241 291 337
#     4  11  18  32  51  77 103 140 179 217 267 333
#     4  11  22  38  61  90 122 150 176 217 272 340
#
# _framework density 19.417597000000001
#
# number of rings (size 3 to 8) (size 9 to 14) (size 15 to 20)
#    0.000    1.778    3.704    2.889    1.037    4.741 
#    0.000    3.704    0.000    0.444    0.000    1.037 
#    0.000    0.000    0.000    0.000    0.000    0.000 
#
# Total GULP energy -668960.876480 kJ/mol
# GULP energy per Si atom -12388.164379 kJ/mol
# Density = 1.937340 g / cm^3
# Si number density = 19.417597 Si / 1000 Ang^3
#
#
#
# Elastic Constant Matrix: (Units=GPa)
#
#
# Indices 1 2 3 4 5 6 
#
# 1 52.0971 23.1111 26.4929 0.0000 0.0000 0.0000
# 2 23.1111 93.4574 24.6116 0.0000 0.0000 0.0000
# 3 26.4929 24.6116 129.7881 0.0000 0.0000 0.0000
# 4 0.0000 0.0000 0.0000 20.4734 0.0000 0.0000
# 5 0.0000 0.0000 0.0000 0.0000 13.4719 0.0000
# 6 0.0000 0.0000 0.0000 0.0000 0.0000 20.1843
#
#
#
# Elastic Compliance Matrix: (Units=1/GPa)
#
#
# Indices 1 2 3 4 5 6 
#
# 1 0.023253 -0.004737 -0.003848 0.000000 0.000000 0.000000
# 2 -0.004737 0.012227 -0.001352 0.000000 0.000000 0.000000
# 3 -0.003848 -0.001352 0.008747 0.000000 0.000000 0.000000
# 4 0.000000 0.000000 0.000000 0.048844 0.000000 0.000000
# 5 0.000000 0.000000 0.000000 0.000000 0.074229 0.000000
# 6 0.000000 0.000000 0.000000 0.000000 0.000000 0.049543
#
#
# Mechanical properties :
#
#
# Convention : Reuss Voigt Hill
#
# Bulk Modulus (GPa) = 41.06179 47.08597 44.07388
# Shear Modulus (GPa) = 20.42190 24.23438 22.32814
#
# Velocity S-wave (km/s) = 3.24654 3.53663 3.39468
# Velocity P-wave (km/s) = 5.93683 6.40146 6.17352
#
# Compressibility (1/GPa) = 0.02435354
#
# Stress axis : x y z
#
# Youngs Moduli (GPa) = 43.00476 81.78338 114.32840
#
# Poissons Ratio (x) = 0.38740 0.43997
# Poissons Ratio (y) = 0.20371 0.15455
# Poissons Ratio (z) = 0.16550 0.11055
#
# Static dielectric constant tensor:
#      x y z
#    x 3.284870 0.000000 0.000000 
#    y 0.000000 3.511030 0.000000 
#    z 0.000000 0.000000 4.392270 
# 
# 
# High freq. dielectric constant tensor:
#      x y z
#    x 1.716070 0.000000 0.000000 
#    y 0.000000 1.739000 0.000000 
#    z 0.000000 0.000000 1.782540 
# 
# From -- ./inp_files/26538.got.cif
#   From: 2010.03.12/outbox.cif.g09.slc.cpg/sg72_14_cif.got.tgz:26538.got - 2010.04.16 14:54:00.
