data_PCOD8293459
_publ_section_title
;
Structure prediction by ZEFSAII (Michael W. Deem and Ramdas Pophale) SiO2 
 PCOD8293459
Probable space group: I B A M
;
_chemical_formula_sum "Si O2"
_cell_formula_units_Z 116
_cell_length_a 22.242203
_cell_length_b 31.104580
_cell_length_c 8.869543
_cell_angle_alpha 90.000000
_cell_angle_beta 90.000000
_cell_angle_gamma 90.000000
_cell_volume 6136.254805
_symmetry_space_group_name_H-M "I B A M"
_symmetry_group_IT_number 72
_symmetry_cell_setting 'orthorhombic'
loop_
_space_group_symop_operation_xyz
x,y,z
-x,-y,z
x,-y,1/2-z
-x,y,1/2-z
-x,-y,-z
x,y,-z
-x,y,1/2+z
x,-y,1/2+z
1/2+x,1/2+y,1/2+z
1/2-x,1/2-y,1/2+z
1/2+x,1/2-y,-z
1/2-x,1/2+y,-z
1/2-x,1/2-y,1/2-z
1/2+x,1/2+y,1/2-z
1/2-x,1/2+y,z
1/2+x,1/2-y,z
loop_
_atom_site_type_symbol
_atom_site_label
_atom_site_fract_x
_atom_site_fract_y
_atom_site_fract_z
Si Si1 0.562428 0.453946 0.319099
Si Si2 0.778858 0.543953 0.820702
Si Si3 0.500000 0.000000 0.750000
Si Si4 0.439117 0.837789 0.821522
Si Si5 0.092942 0.569414 0.332256
Si Si6 0.667480 0.213047 0.674537
Si Si7 0.709589 0.305758 0.674737
Si Si8 0.171846 0.102417 0.323106
O O1 0.578899 0.500000 0.250000
O O2 0.500000 0.437129 0.250000
O O3 0.558200 0.457043 0.500000
O O4 0.612852 0.420881 0.258784
O O5 0.754946 0.500000 0.750000
O O6 0.845521 0.553805 0.752662
O O7 0.733560 0.580938 0.763887
O O8 0.780357 0.539109 0.000000
O O9 0.456916 0.968293 0.843724
O O10 0.500000 0.819019 0.750000
O O11 0.430335 0.886508 0.755552
O O12 0.384447 0.807551 0.774237
O O13 0.445694 0.837127 0.000000
O O14 0.111247 0.582745 0.500000
O O15 0.656116 0.202357 0.500000
O O16 0.668108 0.264297 0.704748
O O17 0.731342 0.193906 0.722988
O O18 0.729960 0.307736 0.500000
O O19 0.670789 0.347418 0.721536
O O20 0.170402 0.096128 0.500000
#
# Coordination Sequence:
#
# PCOD8293459 Si02
#       8
#    16  16   4  16  16  16  16  16
#     4  10  19  33  53  77 104 139 177 213 257 313
#     4  10  19  33  50  73 103 138 178 217 261 309
#     4  12  18  36  52  74 104 140 188 224 266 308
#     4  11  22  38  57  79 107 143 184 226 274 323
#     4  10  21  34  52  74 103 144 183 222 269 317
#     4  10  20  35  57  85 110 137 177 222 271 326
#     4   9  18  36  60  81 106 140 175 217 268 324
#     4   9  18  33  55  78 104 138 175 216 265 317
#
# _framework density 18.904039999999998
#
# number of rings (size 3 to 8) (size 9 to 14) (size 15 to 20)
#    0.000    2.069    1.379    3.103    0.000    2.759 
#    0.000    6.207    0.000    1.655    0.000    0.000 
#    0.000    0.000    0.000    0.000    0.000    0.000 
#
# Total GULP energy -719016.763472 kJ/mol
# GULP energy per Si atom -12396.840750 kJ/mol
# Density = 1.886101 g / cm^3
# Si number density = 18.904040 Si / 1000 Ang^3
#
#
#
# Elastic Constant Matrix: (Units=GPa)
#
#
# Indices 1 2 3 4 5 6 
#
# 1 127.7021 77.9874 28.7308 0.0000 0.0000 0.0000
# 2 77.9874 132.8759 30.4807 0.0000 0.0000 0.0000
# 3 28.7308 30.4807 59.7474 0.0000 0.0000 0.0000
# 4 0.0000 0.0000 0.0000 22.2120 0.0000 0.0000
# 5 0.0000 0.0000 0.0000 0.0000 28.2234 0.0000
# 6 0.0000 0.0000 0.0000 0.0000 0.0000 27.7392
#
#
#
# Elastic Compliance Matrix: (Units=1/GPa)
#
#
# Indices 1 2 3 4 5 6 
#
# 1 0.012547 -0.006772 -0.002578 0.000000 0.000000 0.000000
# 2 -0.006772 0.012179 -0.002956 0.000000 0.000000 0.000000
# 3 -0.002578 -0.002956 0.019485 0.000000 0.000000 0.000000
# 4 0.000000 0.000000 0.000000 0.045021 0.000000 0.000000
# 5 0.000000 0.000000 0.000000 0.000000 0.035432 0.000000
# 6 0.000000 0.000000 0.000000 0.000000 0.000000 0.036050
#
#
# Mechanical properties :
#
#
# Convention : Reuss Voigt Hill
#
# Bulk Modulus (GPa) = 51.02999 66.08036 58.55517
# Shear Modulus (GPa) = 26.06066 27.84334 26.95200
#
# Velocity S-wave (km/s) = 3.71695 3.84197 3.77998
# Velocity P-wave (km/s) = 6.74342 7.39679 7.07765
#
# Compressibility (1/GPa) = 0.01959632
#
# Stress axis : x y z
#
# Youngs Moduli (GPa) = 79.70190 82.10911 51.32081
#
# Poissons Ratio (x) = 0.55608 0.13232
# Poissons Ratio (y) = 0.53978 0.15173
# Poissons Ratio (z) = 0.20550 0.24275
#
# Static dielectric constant tensor:
#      x y z
#    x 3.586990 0.000000 0.000000 
#    y 0.000000 3.582090 0.000000 
#    z 0.000000 0.000000 3.211730 
# 
# 
# High freq. dielectric constant tensor:
#      x y z
#    x 1.736480 0.000000 0.000000 
#    y 0.000000 1.737300 0.000000 
#    z 0.000000 0.000000 1.713090 
# 
# From -- ./inp_files/7510.got.cif
#   From: 2010.03.12/outbox.cif.g09.slc.cpg/sg72_4_cif.got.tgz:7510.got - 2010.04.16 14:54:00.
