data_PCOD8293342
_publ_section_title
;
Structure prediction by ZEFSAII (Michael W. Deem and Ramdas Pophale) SiO2 
 PCOD8293342
Probable space group: I B A M
;
_chemical_formula_sum "Si O2"
_cell_formula_units_Z 112
_cell_length_a 24.261485
_cell_length_b 12.894109
_cell_length_c 19.225538
_cell_angle_alpha 90.000000
_cell_angle_beta 90.000000
_cell_angle_gamma 90.000000
_cell_volume 6014.329515
_symmetry_space_group_name_H-M "I B A M"
_symmetry_group_IT_number 72
_symmetry_cell_setting 'orthorhombic'
loop_
_space_group_symop_operation_xyz
x,y,z
-x,-y,z
x,-y,1/2-z
-x,y,1/2-z
-x,-y,-z
x,y,-z
-x,y,1/2+z
x,-y,1/2+z
1/2+x,1/2+y,1/2+z
1/2-x,1/2-y,1/2+z
1/2+x,1/2-y,-z
1/2-x,1/2+y,-z
1/2-x,1/2-y,1/2-z
1/2+x,1/2+y,1/2-z
1/2-x,1/2+y,z
1/2+x,1/2-y,z
loop_
_atom_site_type_symbol
_atom_site_label
_atom_site_fract_x
_atom_site_fract_y
_atom_site_fract_z
Si Si1 0.037998 0.408365 0.582226
Si Si2 0.467617 0.283599 0.421759
Si Si3 0.328642 0.705375 0.784569
Si Si4 0.659844 0.955888 0.079068
Si Si5 0.218262 0.601606 0.789962
Si Si6 0.446928 0.386289 0.283891
Si Si7 0.650289 0.197306 0.075399
O O1 0.037405 0.422897 0.500000
O O2 0.100505 0.420243 0.608936
O O3 0.000000 0.500000 0.615320
O O4 0.017389 0.292240 0.601718
O O5 0.476851 0.329229 0.500000
O O6 0.458036 0.379412 0.367703
O O7 0.415469 0.207262 0.420491
O O8 0.283034 0.616543 0.772943
O O9 0.317581 0.802104 0.735538
O O10 0.389530 0.667340 0.764973
O O11 0.321075 0.735602 0.865184
O O12 0.707325 0.907890 0.127631
O O13 0.665767 0.078584 0.084256
O O14 0.669110 0.917084 0.000000
O O15 0.197256 0.500000 0.750000
O O16 0.444724 0.500000 0.250000
O O17 0.500000 0.328185 0.250000
O O18 0.671162 0.237941 0.000000
#
# Coordination Sequence:
#
# PCOD8293342 Si02
#       7
#    16  16  16  16  16  16  16
#     4   9  15  26  49  83 120 152 175 211 274 346
#     4   9  17  31  55  83 111 148 188 219 272 346
#     4  10  22  38  57  81 106 149 189 231 276 337
#     4  10  19  31  51  80 116 148 179 226 279 329
#     4  11  22  37  57  79 111 147 189 228 279 338
#     4  10  22  40  59  80 109 145 188 239 286 324
#     4   9  16  31  54  81 111 143 181 224 270 331
#
# _framework density 18.622192999999999
#
# number of rings (size 3 to 8) (size 9 to 14) (size 15 to 20)
#    0.000    2.286    2.857    0.429    2.000    0.571 
#    0.000    1.429    0.000    0.857    0.000    0.000 
#    0.000    0.000    0.000    0.000    0.000    0.000 
#
# Total GULP energy -693987.145349 kJ/mol
# GULP energy per Si atom -12392.627596 kJ/mol
# Density = 1.857981 g / cm^3
# Si number density = 18.622193 Si / 1000 Ang^3
#
#
#
# Elastic Constant Matrix: (Units=GPa)
#
#
# Indices 1 2 3 4 5 6 
#
# 1 104.1925 37.8884 37.3783 0.0000 0.0000 0.0000
# 2 37.8884 78.0102 47.6520 0.0000 0.0000 0.0000
# 3 37.3783 47.6520 105.4926 0.0000 0.0000 0.0000
# 4 0.0000 0.0000 0.0000 29.2771 0.0000 0.0000
# 5 0.0000 0.0000 0.0000 0.0000 26.0594 0.0000
# 6 0.0000 0.0000 0.0000 0.0000 0.0000 -1.0755
#
#
#
# Elastic Compliance Matrix: (Units=1/GPa)
#
#
# Indices 1 2 3 4 5 6 
#
# 1 0.012028 -0.004473 -0.002241 0.000000 0.000000 0.000000
# 2 -0.004473 0.019367 -0.007163 0.000000 0.000000 0.000000
# 3 -0.002241 -0.007163 0.013509 0.000000 0.000000 0.000000
# 4 0.000000 0.000000 0.000000 0.034156 0.000000 0.000000
# 5 0.000000 0.000000 0.000000 0.000000 0.038374 0.000000
# 6 0.000000 0.000000 0.000000 0.000000 0.000000 -0.929762
#
#
# Mechanical properties :
#
#
# Convention : Reuss Voigt Hill
#
# Bulk Modulus (GPa) = 58.31187 59.28140 58.79664
# Shear Modulus (GPa) = -6.41967 21.83729 7.70881
#
# Velocity S-wave (km/s) = -1.85871 3.42811 2.03680
# Velocity P-wave (km/s) = 5.17442 6.89725 6.09700
#
# Compressibility (1/GPa) = 0.01714917
#
# Stress axis : x y z
#
# Youngs Moduli (GPa) = 83.13798 51.63450 74.02296
#
# Poissons Ratio (x) = 0.23095 0.16592
# Poissons Ratio (y) = 0.37185 0.53026
# Poissons Ratio (z) = 0.18635 0.36988
#
# Static dielectric constant tensor:
#      x y z
#    x 3.490400 0.000000 0.000000 
#    y 0.000000 3.136300 0.000000 
#    z 0.000000 0.000000 3.517780 
# 
# 
# High freq. dielectric constant tensor:
#      x y z
#    x 1.718690 0.000000 0.000000 
#    y 0.000000 1.701460 0.000000 
#    z 0.000000 0.000000 1.717720 
# 
# From -- ./inp_files/37314.got.cif
#   From: 2010.03.12/outbox.cif.g09.slc.cpg/sg72_19_cif.got.tgz:37314.got - 2010.04.16 14:54:00.
