data_PCOD8293401
_publ_section_title
;
Structure prediction by ZEFSAII (Michael W. Deem and Ramdas Pophale) SiO2 
 PCOD8293401
Probable space group: I B A M
;
_chemical_formula_sum "Si O2"
_cell_formula_units_Z 112
_cell_length_a 24.466151
_cell_length_b 13.180806
_cell_length_c 18.024237
_cell_angle_alpha 90.000000
_cell_angle_beta 90.000000
_cell_angle_gamma 90.000000
_cell_volume 5812.520653
_symmetry_space_group_name_H-M "I B A M"
_symmetry_group_IT_number 72
_symmetry_cell_setting 'orthorhombic'
loop_
_space_group_symop_operation_xyz
x,y,z
-x,-y,z
x,-y,1/2-z
-x,y,1/2-z
-x,-y,-z
x,y,-z
-x,y,1/2+z
x,-y,1/2+z
1/2+x,1/2+y,1/2+z
1/2-x,1/2-y,1/2+z
1/2+x,1/2-y,-z
1/2-x,1/2+y,-z
1/2-x,1/2-y,1/2-z
1/2+x,1/2+y,1/2-z
1/2-x,1/2+y,z
1/2+x,1/2-y,z
loop_
_atom_site_type_symbol
_atom_site_label
_atom_site_fract_x
_atom_site_fract_y
_atom_site_fract_z
Si Si1 0.442471 0.789385 0.168770
Si Si2 0.631839 0.027124 0.167588
Si Si3 0.059513 0.336313 0.338282
Si Si4 0.842537 0.762053 0.587640
Si Si5 0.550689 0.425940 0.912177
Si Si6 0.334349 0.515923 0.412122
Si Si7 0.224185 0.574740 0.087911
O O1 0.389837 0.859337 0.149259
O O2 0.496790 0.842939 0.136056
O O3 0.440922 0.784486 0.257504
O O4 0.444734 0.677896 0.133451
O O5 0.653579 0.000000 0.250000
O O6 0.581609 0.950194 0.155791
O O7 0.682609 0.013607 0.112362
O O8 0.095442 0.263371 0.389999
O O9 0.840684 0.761777 0.500000
O O10 0.799075 0.680867 0.620240
O O11 0.825398 0.871005 0.619738
O O12 0.500000 0.500000 0.889607
O O13 0.606135 0.480857 0.887430
O O14 0.548151 0.402164 0.000000
O O15 0.330657 0.517244 0.500000
O O16 0.285275 0.445341 0.380569
O O17 0.225041 0.576408 0.000000
#
# Coordination Sequence:
#
# PCOD8293401 Si02
#       7
#    16  16  16  16  16  16  16
#     4  10  19  32  52  75 101 135 169 208 254 299
#     4   9  18  33  52  74 103 134 165 205 255 306
#     4   9  18  33  51  75 103 133 168 203 251 310
#     4   9  17  32  53  72  97 134 168 204 253 303
#     4  10  21  36  53  75 104 136 171 211 255 303
#     4   9  18  33  52  73  99 132 165 200 250 305
#     4   9  18  32  51  75  98 125 168 212 247 297
#
# _framework density 19.268750000000001
#
# number of rings (size 3 to 8) (size 9 to 14) (size 15 to 20)
#    0.000    2.714    0.000    1.286    0.000    5.143 
#    0.000    9.286    0.000    9.429    0.000    0.000 
#    0.000    0.000    0.000    0.000    0.000    0.000 
#
# Total GULP energy -693796.605921 kJ/mol
# GULP energy per Si atom -12389.225106 kJ/mol
# Density = 1.922489 g / cm^3
# Si number density = 19.268750 Si / 1000 Ang^3
#
#
#
# Elastic Constant Matrix: (Units=GPa)
#
#
# Indices 1 2 3 4 5 6 
#
# 1 141.4892 58.8060 15.2810 0.0000 0.0000 0.0000
# 2 58.8060 119.0360 26.0059 0.0000 0.0000 0.0000
# 3 15.2810 26.0059 12.3466 0.0000 0.0000 0.0000
# 4 0.0000 0.0000 0.0000 26.0569 0.0000 0.0000
# 5 0.0000 0.0000 0.0000 0.0000 17.7913 0.0000
# 6 0.0000 0.0000 0.0000 0.0000 0.0000 22.9246
#
#
#
# Elastic Compliance Matrix: (Units=1/GPa)
#
#
# Indices 1 2 3 4 5 6 
#
# 1 0.008965 -0.003714 -0.003273 0.000000 0.000000 0.000000
# 2 -0.003714 0.017100 -0.031423 0.000000 0.000000 0.000000
# 3 -0.003273 -0.031423 0.151232 0.000000 0.000000 0.000000
# 4 0.000000 0.000000 0.000000 0.038377 0.000000 0.000000
# 5 0.000000 0.000000 0.000000 0.000000 0.056207 0.000000
# 6 0.000000 0.000000 0.000000 0.000000 0.000000 0.043621
#
#
# Mechanical properties :
#
#
# Convention : Reuss Voigt Hill
#
# Bulk Modulus (GPa) = 9.95247 52.56195 31.25721
# Shear Modulus (GPa) = 11.74222 24.87316 18.30769
#
# Velocity S-wave (km/s) = 2.47126 3.59674 3.08575
# Velocity P-wave (km/s) = 3.64954 6.67730 5.38077
#
# Compressibility (1/GPa) = 0.10047760
#
# Stress axis : x y z
#
# Youngs Moduli (GPa) = 111.54938 58.47847 6.61237
#
# Poissons Ratio (x) = 0.21716 0.02164
# Poissons Ratio (y) = 0.41425 0.20778
# Poissons Ratio (z) = 0.36514 1.83755
#
# Static dielectric constant tensor:
#      x y z
#    x 3.843920 0.000000 0.000000 
#    y 0.000000 3.746450 0.000000 
#    z 0.000000 0.000000 3.253800 
# 
# 
# High freq. dielectric constant tensor:
#      x y z
#    x 1.757740 0.000000 0.000000 
#    y 0.000000 1.751980 0.000000 
#    z 0.000000 0.000000 1.716110 
# 
# From -- ./inp_files/40319.got.cif
#   From: 2010.03.12/outbox.cif.g09.slc.cpg/sg72_21_cif.got.tgz:40319.got - 2010.04.16 14:54:00.
