data_PCOD8293013
_publ_section_title
;
Structure prediction by ZEFSAII (Michael W. Deem and Ramdas Pophale) SiO2 
 PCOD8293013
Probable space group: I B A M
;
_chemical_formula_sum "Si O2"
_cell_formula_units_Z 128
_cell_length_a 21.809130
_cell_length_b 21.969192
_cell_length_c 16.896497
_cell_angle_alpha 90.000000
_cell_angle_beta 90.000000
_cell_angle_gamma 90.000000
_cell_volume 8095.601108
_symmetry_space_group_name_H-M "I B A M"
_symmetry_group_IT_number 72
_symmetry_cell_setting 'orthorhombic'
loop_
_space_group_symop_operation_xyz
x,y,z
-x,-y,z
x,-y,1/2-z
-x,y,1/2-z
-x,-y,-z
x,y,-z
-x,y,1/2+z
x,-y,1/2+z
1/2+x,1/2+y,1/2+z
1/2-x,1/2-y,1/2+z
1/2+x,1/2-y,-z
1/2-x,1/2+y,-z
1/2-x,1/2-y,1/2-z
1/2+x,1/2+y,1/2-z
1/2-x,1/2+y,z
1/2+x,1/2-y,z
loop_
_atom_site_type_symbol
_atom_site_label
_atom_site_fract_x
_atom_site_fract_y
_atom_site_fract_z
Si Si1 0.430552 0.885965 0.735706
Si Si2 0.253547 0.824157 0.660891
Si Si3 0.730387 0.860835 0.589760
Si Si4 0.649011 0.254801 0.088384
Si Si5 0.569116 0.744054 0.735457
Si Si6 0.851437 0.415682 0.906803
Si Si7 0.831358 0.464301 0.675458
Si Si8 0.681669 0.700460 0.188275
O O1 0.500000 0.907021 0.750000
O O2 0.422477 0.815389 0.753219
O O3 0.410801 0.894976 0.643880
O O4 0.391147 0.927437 0.795390
O O5 0.203824 0.803916 0.595354
O O6 0.290861 0.882217 0.628441
O O7 0.300837 0.771148 0.682817
O O8 0.216906 0.836539 0.742209
O O9 0.728486 0.881796 0.500000
O O10 0.678212 0.810879 0.608734
O O11 0.719732 0.918849 0.644177
O O12 0.798381 0.833919 0.608076
O O13 0.592706 0.269795 0.146585
O O14 0.622357 0.256532 0.000000
O O15 0.500000 0.722560 0.750000
O O16 0.608909 0.702897 0.796429
O O17 0.846182 0.488329 0.894975
O O18 0.860295 0.400530 0.000000
O O19 0.802833 0.500000 0.750000
#
# Coordination Sequence:
#
# PCOD8293013 Si02
#       8
#    16  16  16  16  16  16  16  16
#     4  10  20  36  49  59  85 130 169 197 229 274
#     4   9  16  28  49  69  93 115 149 186 239 292
#     4  10  18  30  46  70  95 119 153 194 240 285
#     4   9  17  29  49  70  90 118 151 194 236 284
#     4  10  18  31  49  68  92 124 160 194 228 274
#     4  11  21  32  47  71  95 116 152 209 244 264
#     4  10  20  32  49  65  90 127 163 194 235 276
#     4   9  16  29  49  69  89 122 154 183 228 290
#
# _framework density 15.811055
#
# number of rings (size 3 to 8) (size 9 to 14) (size 15 to 20)
#    0.000    2.250    2.500    3.000    0.000    2.750 
#    0.000    5.000    0.000    0.000    0.000    0.000 
#    0.000   12.500    0.000   16.750    0.000    0.000 
#
# Total GULP energy -793045.732753 kJ/mol
# GULP energy per Si atom -12391.339574 kJ/mol
# Density = 1.577507 g / cm^3
# Si number density = 15.811055 Si / 1000 Ang^3
#
#
#
# Elastic Constant Matrix: (Units=GPa)
#
#
# Indices 1 2 3 4 5 6 
#
# 1 114.1547 41.5971 54.1411 0.0000 0.0000 0.0000
# 2 41.5971 49.5756 25.9381 0.0000 0.0000 0.0000
# 3 54.1411 25.9381 75.6034 0.0000 0.0000 0.0000
# 4 0.0000 0.0000 0.0000 19.7582 0.0000 0.0000
# 5 0.0000 0.0000 0.0000 0.0000 18.4041 0.0000
# 6 0.0000 0.0000 0.0000 0.0000 0.0000 18.7358
#
#
#
# Elastic Compliance Matrix: (Units=1/GPa)
#
#
# Indices 1 2 3 4 5 6 
#
# 1 0.016038 -0.009077 -0.008371 0.000000 0.000000 0.000000
# 2 -0.009077 0.029722 -0.003697 0.000000 0.000000 0.000000
# 3 -0.008371 -0.003697 0.020490 0.000000 0.000000 0.000000
# 4 0.000000 0.000000 0.000000 0.050612 0.000000 0.000000
# 5 0.000000 0.000000 0.000000 0.000000 0.054336 0.000000
# 6 0.000000 0.000000 0.000000 0.000000 0.000000 0.053374
#
#
# Mechanical properties :
#
#
# Convention : Reuss Voigt Hill
#
# Bulk Modulus (GPa) = 41.73625 53.63181 47.68403
# Shear Modulus (GPa) = 18.19201 19.22345 18.70773
#
# Velocity S-wave (km/s) = 3.39571 3.49065 3.44351
# Velocity P-wave (km/s) = 6.46751 7.08804 6.78487
#
# Compressibility (1/GPa) = 0.02395999
#
# Stress axis : x y z
#
# Youngs Moduli (GPa) = 62.35281 33.64562 48.80509
#
# Poissons Ratio (x) = 0.30540 0.40854
# Poissons Ratio (y) = 0.56598 0.18041
# Poissons Ratio (z) = 0.52194 0.12437
#
# Static dielectric constant tensor:
#      x y z
#    x 2.876050 0.000000 0.000000 
#    y 0.000000 2.934450 0.000000 
#    z 0.000000 0.000000 3.108980 
# 
# 
# High freq. dielectric constant tensor:
#      x y z
#    x 1.581160 0.000000 0.000000 
#    y 0.000000 1.588620 0.000000 
#    z 0.000000 0.000000 1.612210 
# 
# From -- ./inp_files/32968.got.cif
#   From: 2010.03.12/outbox.cif.g09.slc.cpg/sg72_17_cif.got.tgz:32968.got - 2010.04.16 14:54:00.
