data_PCOD8293674
_publ_section_title
;
Structure prediction by ZEFSAII (Michael W. Deem and Ramdas Pophale) SiO2 
 PCOD8293674
Probable space group: I B A M
;
_chemical_formula_sum "Si O2"
_cell_formula_units_Z 104
_cell_length_a 19.163696
_cell_length_b 14.151899
_cell_length_c 20.350738
_cell_angle_alpha 90.000000
_cell_angle_beta 90.000000
_cell_angle_gamma 90.000000
_cell_volume 5519.174894
_symmetry_space_group_name_H-M "I B A M"
_symmetry_group_IT_number 72
_symmetry_cell_setting 'orthorhombic'
loop_
_space_group_symop_operation_xyz
x,y,z
-x,-y,z
x,-y,1/2-z
-x,y,1/2-z
-x,-y,-z
x,y,-z
-x,y,1/2+z
x,-y,1/2+z
1/2+x,1/2+y,1/2+z
1/2-x,1/2-y,1/2+z
1/2+x,1/2-y,-z
1/2-x,1/2+y,-z
1/2-x,1/2-y,1/2-z
1/2+x,1/2+y,1/2-z
1/2-x,1/2+y,z
1/2+x,1/2-y,z
loop_
_atom_site_type_symbol
_atom_site_label
_atom_site_fract_x
_atom_site_fract_y
_atom_site_fract_z
Si Si1 0.982356 0.708450 0.678315
Si Si2 0.362488 0.966220 0.927581
Si Si3 0.195224 0.172452 0.834628
Si Si4 0.259488 0.524780 0.678505
Si Si5 0.590712 0.246484 0.072297
Si Si6 0.000000 0.500000 0.139026
Si Si7 0.668814 0.274411 0.693267
O O1 0.002574 0.596520 0.681378
O O2 0.903310 0.739675 0.661557
O O3 0.000000 0.750050 0.750000
O O4 0.026751 0.761143 0.622197
O O5 0.300379 0.976136 0.875879
O O6 0.387366 0.860378 0.933178
O O7 0.431486 0.021449 0.904670
O O8 0.338738 0.002999 0.000000
O O9 0.158978 0.200511 0.901968
O O10 0.277088 0.197672 0.834626
O O11 0.161448 0.228636 0.772689
O O12 0.185618 0.059643 0.832402
O O13 0.225151 0.500000 0.750000
O O14 0.303804 0.621123 0.674099
O O15 0.570236 0.285614 0.000000
#
# Coordination Sequence:
#
# PCOD8293674 Si02
#       7
#    16  16  16  16  16   8  16
#     4  11  21  37  59  85 117 154 195 246 301 350
#     4  10  20  36  54  80 120 158 188 235 299 359
#     4  10  19  35  59  82 113 150 189 240 290 344
#     4  10  21  35  59  87 115 148 196 243 290 344
#     4  10  21  37  56  81 117 158 189 230 297 357
#     4  10  22  32  56  90 116 148 200 248 296 360
#     4  10  20  36  58  88 115 144 194 246 290 340
#
# _framework density 18.843397
#
# number of rings (size 3 to 8) (size 9 to 14) (size 15 to 20)
#    0.000    1.846    3.077    1.385    0.000    3.692 
#    0.000    2.308    0.000    0.923    0.000    0.000 
#    0.000    0.000    0.000    0.000    0.000    0.000 
#
# Total GULP energy -644365.307198 kJ/mol
# GULP energy per Si atom -12391.640523 kJ/mol
# Density = 1.880051 g / cm^3
# Si number density = 18.843397 Si / 1000 Ang^3
#
#
#
# Elastic Constant Matrix: (Units=GPa)
#
#
# Indices 1 2 3 4 5 6 
#
# 1 97.3088 11.3142 59.8180 0.0000 0.0000 0.0000
# 2 11.3142 40.8259 6.2222 0.0000 0.0000 0.0000
# 3 59.8180 6.2222 144.0024 0.0000 0.0000 0.0000
# 4 0.0000 0.0000 0.0000 15.5114 0.0000 0.0000
# 5 0.0000 0.0000 0.0000 0.0000 39.3926 0.0000
# 6 0.0000 0.0000 0.0000 0.0000 0.0000 23.3755
#
#
#
# Elastic Compliance Matrix: (Units=1/GPa)
#
#
# Indices 1 2 3 4 5 6 
#
# 1 0.014168 -0.003050 -0.005754 0.000000 0.000000 0.000000
# 2 -0.003050 0.025313 0.000173 0.000000 0.000000 0.000000
# 3 -0.005754 0.000173 0.009327 0.000000 0.000000 0.000000
# 4 0.000000 0.000000 0.000000 0.064469 0.000000 0.000000
# 5 0.000000 0.000000 0.000000 0.000000 0.025385 0.000000
# 6 0.000000 0.000000 0.000000 0.000000 0.000000 0.042780
#
#
# Mechanical properties :
#
#
# Convention : Reuss Voigt Hill
#
# Bulk Modulus (GPa) = 31.69803 48.53843 40.11823
# Shear Modulus (GPa) = 23.89852 29.30808 26.60330
#
# Velocity S-wave (km/s) = 3.56514 3.94807 3.76148
# Velocity P-wave (km/s) = 5.81423 6.82626 6.34047
#
# Compressibility (1/GPa) = 0.03154770
#
# Stress axis : x y z
#
# Youngs Moduli (GPa) = 70.58169 39.50539 107.21724
#
# Poissons Ratio (x) = 0.12047 0.61688
# Poissons Ratio (y) = 0.21524 -0.01855
# Poissons Ratio (z) = 0.40610 -0.00683
#
# Static dielectric constant tensor:
#      x y z
#    x 3.627370 0.000000 0.000000 
#    y 0.000000 3.966720 0.000000 
#    z 0.000000 0.000000 3.763220 
# 
# 
# High freq. dielectric constant tensor:
#      x y z
#    x 1.723370 0.000000 0.000000 
#    y 0.000000 1.719190 0.000000 
#    z 0.000000 0.000000 1.728900 
# 
# From -- ./inp_files/32682.got.cif
#   From: 2010.03.12/outbox.cif.g09.slc.cpg/sg72_17_cif.got.tgz:32682.got - 2010.04.16 14:54:00.
