data_PCOD8293138
_publ_section_title
;
Structure prediction by ZEFSAII (Michael W. Deem and Ramdas Pophale) SiO2 
 PCOD8293138
Probable space group: I B A M
;
_chemical_formula_sum "Si O2"
_cell_formula_units_Z 128
_cell_length_a 20.221196
_cell_length_b 18.668088
_cell_length_c 18.667427
_cell_angle_alpha 90.000000
_cell_angle_beta 90.000000
_cell_angle_gamma 90.000000
_cell_volume 7046.786925
_symmetry_space_group_name_H-M "I B A M"
_symmetry_group_IT_number 72
_symmetry_cell_setting 'orthorhombic'
loop_
_space_group_symop_operation_xyz
x,y,z
-x,-y,z
x,-y,1/2-z
-x,y,1/2-z
-x,-y,-z
x,y,-z
-x,y,1/2+z
x,-y,1/2+z
1/2+x,1/2+y,1/2+z
1/2-x,1/2-y,1/2+z
1/2+x,1/2-y,-z
1/2-x,1/2+y,-z
1/2-x,1/2-y,1/2-z
1/2+x,1/2+y,1/2-z
1/2-x,1/2+y,z
1/2+x,1/2-y,z
loop_
_atom_site_type_symbol
_atom_site_label
_atom_site_fract_x
_atom_site_fract_y
_atom_site_fract_z
Si Si1 0.766324 0.817666 0.170575
Si Si2 0.967868 0.332487 0.079757
Si Si3 0.775672 0.894917 0.581932
Si Si4 0.109454 0.479905 0.418793
Si Si5 0.152924 0.756002 0.917716
Si Si6 0.738767 0.549439 0.417720
Si Si7 0.314404 0.830739 0.806324
Si Si8 0.052990 0.597569 0.311931
O O1 0.701807 0.789872 0.130066
O O2 0.793700 0.887557 0.129661
O O3 0.744312 0.841437 0.249435
O O4 0.821431 0.754614 0.175749
O O5 0.924201 0.403380 0.084065
O O6 0.922422 0.264334 0.100951
O O7 0.026383 0.339236 0.136696
O O8 0.997257 0.322145 0.000000
O O9 0.752495 0.891847 0.500000
O O10 0.836033 0.840415 0.597340
O O11 0.708763 0.873532 0.623462
O O12 0.800228 0.975512 0.599772
O O13 0.102820 0.512029 0.500000
O O14 0.185308 0.467510 0.397414
O O15 0.071966 0.528647 0.359938
O O16 0.168116 0.735743 0.000000
O O17 0.731966 0.572783 0.500000
O O18 0.381969 0.866119 0.776941
O O19 0.000000 0.576805 0.250000
#
# Coordination Sequence:
#
# PCOD8293138 Si02
#       8
#    16  16  16  16  16  16  16  16
#     4  10  19  34  52  71  99 129 164 211 262 310
#     4  10  20  34  49  66  96 140 177 204 240 294
#     4   9  18  32  51  74 100 127 163 209 259 309
#     4  10  20  35  49  69 104 140 172 207 246 296
#     4   9  16  30  51  71  92 130 174 208 246 303
#     4  10  18  32  55  79 102 131 163 204 258 315
#     4  10  22  36  49  70 100 132 168 213 258 292
#     4  12  24  35  47  70 100 141 178 213 243 293
#
# _framework density 18.164306
#
# number of rings (size 3 to 8) (size 9 to 14) (size 15 to 20)
#    0.000    2.000    2.500    1.875    0.000    3.500 
#    0.000    0.000    0.000    0.000    0.000    0.875 
#    0.000    5.000    0.000    0.000    0.000    0.000 
#
# Total GULP energy -793299.219587 kJ/mol
# GULP energy per Si atom -12395.300306 kJ/mol
# Density = 1.812296 g / cm^3
# Si number density = 18.164306 Si / 1000 Ang^3
#
#
#
# Elastic Constant Matrix: (Units=GPa)
#
#
# Indices 1 2 3 4 5 6 
#
# 1 31.0976 22.8020 12.7878 0.0000 0.0000 0.0000
# 2 22.8020 115.6198 40.3616 0.0000 0.0000 0.0000
# 3 12.7878 40.3616 67.3202 0.0000 0.0000 0.0000
# 4 0.0000 0.0000 0.0000 25.9756 0.0000 0.0000
# 5 0.0000 0.0000 0.0000 0.0000 22.3322 0.0000
# 6 0.0000 0.0000 0.0000 0.0000 0.0000 16.9741
#
#
#
# Elastic Compliance Matrix: (Units=1/GPa)
#
#
# Indices 1 2 3 4 5 6 
#
# 1 0.038222 -0.006328 -0.003467 0.000000 0.000000 0.000000
# 2 -0.006328 0.011986 -0.005984 0.000000 0.000000 0.000000
# 3 -0.003467 -0.005984 0.019101 0.000000 0.000000 0.000000
# 4 0.000000 0.000000 0.000000 0.038498 0.000000 0.000000
# 5 0.000000 0.000000 0.000000 0.000000 0.044778 0.000000
# 6 0.000000 0.000000 0.000000 0.000000 0.000000 0.058913
#
#
# Mechanical properties :
#
#
# Convention : Reuss Voigt Hill
#
# Bulk Modulus (GPa) = 26.48897 40.66004 33.57451
# Shear Modulus (GPa) = 19.55880 22.26212 20.91046
#
# Velocity S-wave (km/s) = 3.28498 3.50465 3.39659
# Velocity P-wave (km/s) = 5.38542 6.22976 5.82292
#
# Compressibility (1/GPa) = 0.03775156
#
# Stress axis : x y z
#
# Youngs Moduli (GPa) = 26.16279 83.43074 52.35413
#
# Poissons Ratio (x) = 0.52793 0.18150
# Poissons Ratio (y) = 0.16555 0.31330
# Poissons Ratio (z) = 0.09070 0.49926
#
# Static dielectric constant tensor:
#      x y z
#    x 3.102560 0.000000 0.000000 
#    y 0.000000 3.658520 0.000000 
#    z 0.000000 0.000000 3.632050 
# 
# 
# High freq. dielectric constant tensor:
#      x y z
#    x 1.649740 0.000000 0.000000 
#    y 0.000000 1.702080 0.000000 
#    z 0.000000 0.000000 1.718020 
# 
# From -- ./inp_files/32086.got.cif
#   From: 2010.03.12/outbox.cif.g09.slc.cpg/sg72_17_cif.got.tgz:32086.got - 2010.04.16 14:54:00.
