data_PCOD8293006
_publ_section_title
;
Structure prediction by ZEFSAII (Michael W. Deem and Ramdas Pophale) SiO2 
 PCOD8293006
Probable space group: I B A M
;
_chemical_formula_sum "Si O2"
_cell_formula_units_Z 64
_cell_length_a 18.408162
_cell_length_b 26.335969
_cell_length_c 8.477933
_cell_angle_alpha 90.000000
_cell_angle_beta 90.000000
_cell_angle_gamma 90.000000
_cell_volume 4110.074651
_symmetry_space_group_name_H-M "I B A M"
_symmetry_group_IT_number 72
_symmetry_cell_setting 'orthorhombic'
loop_
_space_group_symop_operation_xyz
x,y,z
-x,-y,z
x,-y,1/2-z
-x,y,1/2-z
-x,-y,-z
x,y,-z
-x,y,1/2+z
x,-y,1/2+z
1/2+x,1/2+y,1/2+z
1/2-x,1/2-y,1/2+z
1/2+x,1/2-y,-z
1/2-x,1/2+y,-z
1/2-x,1/2-y,1/2-z
1/2+x,1/2+y,1/2-z
1/2-x,1/2+y,z
1/2+x,1/2-y,z
loop_
_atom_site_type_symbol
_atom_site_label
_atom_site_fract_x
_atom_site_fract_y
_atom_site_fract_z
Si Si1 0.834101 0.646552 0.686590
Si Si2 0.080186 0.743003 0.313412
Si Si3 0.207027 0.798151 0.812772
Si Si4 0.577954 0.055327 0.186525
O O1 0.835649 0.645628 0.500000
O O2 0.886252 0.691344 0.745742
O O3 0.750901 0.653183 0.747423
O O4 0.860539 0.593338 0.754731
O O5 0.080574 0.739376 0.500000
O O6 0.125662 0.792634 0.256112
O O7 0.000000 0.750419 0.250000
O O8 0.250000 0.750000 0.750000
O O9 0.204735 0.799199 0.000000
O O10 0.500000 0.073698 0.250000
O O11 0.598199 0.000000 0.250000
O O12 0.574817 0.054139 0.000000
#
# Coordination Sequence:
#
# PCOD8293006 Si02
#       4
#    16  16  16  16
#     4  11  20  32  47  65  88 119 152 185 222 265
#     4  11  20  31  45  65  90 119 151 186 222 264
#     4  10  18  30  45  64  87 115 147 183 221 263
#     4  11  21  34  48  66  89 117 150 188 226 264
#
# _framework density 15.571494
#
# number of rings (size 3 to 8) (size 9 to 14) (size 15 to 20)
#    0.000    1.250    0.000   13.500    0.000    0.000 
#    0.000    0.000    0.000    0.000    0.000    0.000 
#    0.000    1.000    0.000   10.000    0.000    6.000 
#
# Total GULP energy -396780.212060 kJ/mol
# GULP energy per Si atom -12399.381627 kJ/mol
# Density = 1.553605 g / cm^3
# Si number density = 15.571494 Si / 1000 Ang^3
#
#
#
# Elastic Constant Matrix: (Units=GPa)
#
#
# Indices 1 2 3 4 5 6 
#
# 1 107.8104 51.2677 41.4178 0.0000 0.0000 0.0000
# 2 51.2677 74.1068 36.4195 0.0000 0.0000 0.0000
# 3 41.4178 36.4195 163.2406 0.0000 0.0000 0.0000
# 4 0.0000 0.0000 0.0000 24.9844 0.0000 0.0000
# 5 0.0000 0.0000 0.0000 0.0000 29.2281 0.0000
# 6 0.0000 0.0000 0.0000 0.0000 0.0000 26.4096
#
#
#
# Elastic Compliance Matrix: (Units=1/GPa)
#
#
# Indices 1 2 3 4 5 6 
#
# 1 0.014178 -0.009031 -0.001582 0.000000 0.000000 0.000000
# 2 -0.009031 0.020908 -0.002373 0.000000 0.000000 0.000000
# 3 -0.001582 -0.002373 0.007057 0.000000 0.000000 0.000000
# 4 0.000000 0.000000 0.000000 0.040025 0.000000 0.000000
# 5 0.000000 0.000000 0.000000 0.000000 0.034214 0.000000
# 6 0.000000 0.000000 0.000000 0.000000 0.000000 0.037865
#
#
# Mechanical properties :
#
#
# Convention : Reuss Voigt Hill
#
# Bulk Modulus (GPa) = 61.84389 67.04087 64.44238
# Shear Modulus (GPa) = 26.93829 30.52793 28.73311
#
# Velocity S-wave (km/s) = 4.16381 4.43256 4.30028
# Velocity P-wave (km/s) = 7.93213 8.32729 8.13211
#
# Compressibility (1/GPa) = 0.01616975
#
# Stress axis : x y z
#
# Youngs Moduli (GPa) = 70.53229 47.82880 141.70463
#
# Poissons Ratio (x) = 0.43193 0.22424
# Poissons Ratio (y) = 0.63696 0.33631
# Poissons Ratio (z) = 0.11162 0.11351
#
# Static dielectric constant tensor:
#      x y z
#    x 3.472420 0.000000 0.000000 
#    y 0.000000 2.950930 0.000000 
#    z 0.000000 0.000000 3.188550 
# 
# 
# High freq. dielectric constant tensor:
#      x y z
#    x 1.591890 0.000000 0.000000 
#    y 0.000000 1.562470 0.000000 
#    z 0.000000 0.000000 1.630580 
# 
# From -- ./inp_files/4529.got.cif
#   From: 2010.03.12/outbox.cif.g09.slc.cpg/sg72_3_cif.got.tgz:4529.got - 2010.04.16 14:54:00.
