data_PCOD8293082
_publ_section_title
;
Structure prediction by ZEFSAII (Michael W. Deem and Ramdas Pophale) SiO2 
 PCOD8293082
Probable space group: I B A M
;
_chemical_formula_sum "Si O2"
_cell_formula_units_Z 80
_cell_length_a 26.029577
_cell_length_b 19.202419
_cell_length_c 8.587835
_cell_angle_alpha 90.000000
_cell_angle_beta 90.000000
_cell_angle_gamma 90.000000
_cell_volume 4292.464816
_symmetry_space_group_name_H-M "I B A M"
_symmetry_group_IT_number 72
_symmetry_cell_setting 'orthorhombic'
loop_
_space_group_symop_operation_xyz
x,y,z
-x,-y,z
x,-y,1/2-z
-x,y,1/2-z
-x,-y,-z
x,y,-z
-x,y,1/2+z
x,-y,1/2+z
1/2+x,1/2+y,1/2+z
1/2-x,1/2-y,1/2+z
1/2+x,1/2-y,-z
1/2-x,1/2+y,-z
1/2-x,1/2-y,1/2-z
1/2+x,1/2+y,1/2-z
1/2-x,1/2+y,z
1/2+x,1/2-y,z
loop_
_atom_site_type_symbol
_atom_site_label
_atom_site_fract_x
_atom_site_fract_y
_atom_site_fract_z
Si Si1 0.053544 0.671804 0.817075
Si Si2 0.146369 0.422849 0.684938
Si Si3 0.445595 0.331233 0.184467
Si Si4 0.855410 0.923089 0.816232
Si Si5 0.751009 0.922544 0.684615
O O1 0.099825 0.624612 0.752730
O O2 0.063172 0.751248 0.765783
O O3 0.000000 0.643247 0.750000
O O4 0.050156 0.665707 0.000000
O O5 0.138199 0.500000 0.750000
O O6 0.148907 0.425654 0.500000
O O7 0.199005 0.387421 0.749292
O O8 0.500000 0.357627 0.250000
O O9 0.402487 0.375566 0.268375
O O10 0.443194 0.342166 0.000000
O O11 0.803409 0.887275 0.747158
O O12 0.864308 0.000000 0.750000
O O13 0.850470 0.927985 0.000000
O O14 0.750203 0.921474 0.500000
O O15 0.751452 0.000000 0.750000
#
# Coordination Sequence:
#
# PCOD8293082 Si02
#       5
#    16  16  16  16  16
#     4   9  20  36  55  75 103 138 174 213 259 308
#     4  10  19  33  52  78 106 137 173 214 257 304
#     4  10  20  37  56  77 103 136 173 213 258 308
#     4  11  21  35  55  80 106 136 170 211 255 304
#     4  10  18  31  51  76 104 137 170 209 256 306
#
# _framework density 18.637311
#
# number of rings (size 3 to 8) (size 9 to 14) (size 15 to 20)
#    0.000    2.000    0.000    7.200    0.000    3.200 
#    0.000    5.000    0.000    0.000    0.000    0.000 
#    0.000    0.000    0.000    0.000    0.000    0.000 
#
# Total GULP energy -495954.382102 kJ/mol
# GULP energy per Si atom -12398.859553 kJ/mol
# Density = 1.859489 g / cm^3
# Si number density = 18.637311 Si / 1000 Ang^3
#
#
#
# Elastic Constant Matrix: (Units=GPa)
#
#
# Indices 1 2 3 4 5 6 
#
# 1 206.1689 72.5446 58.8401 0.0000 0.0000 0.0000
# 2 72.5446 59.6085 29.7138 0.0000 0.0000 0.0000
# 3 58.8401 29.7138 114.6042 0.0000 0.0000 0.0000
# 4 0.0000 0.0000 0.0000 21.7651 0.0000 0.0000
# 5 0.0000 0.0000 0.0000 0.0000 37.5431 0.0000
# 6 0.0000 0.0000 0.0000 0.0000 0.0000 -18.8542
#
#
#
# Elastic Compliance Matrix: (Units=1/GPa)
#
#
# Indices 1 2 3 4 5 6 
#
# 1 0.008871 -0.009791 -0.002016 0.000000 0.000000 0.000000
# 2 -0.009791 0.030073 -0.002770 0.000000 0.000000 0.000000
# 3 -0.002016 -0.002770 0.010479 0.000000 0.000000 0.000000
# 4 0.000000 0.000000 0.000000 0.045945 0.000000 0.000000
# 5 0.000000 0.000000 0.000000 0.000000 0.026636 0.000000
# 6 0.000000 0.000000 0.000000 0.000000 0.000000 -0.053038
#
#
# Mechanical properties :
#
#
# Convention : Reuss Voigt Hill
#
# Bulk Modulus (GPa) = 49.33785 78.06428 63.70106
# Shear Modulus (GPa) = 47.67519 22.70966 35.19243
#
# Velocity S-wave (km/s) = 5.06320 3.49450 4.35015
# Velocity P-wave (km/s) = 7.79176 7.63276 7.71267
#
# Compressibility (1/GPa) = 0.02026841
#
# Stress axis : x y z
#
# Youngs Moduli (GPa) = 112.72723 33.25230 95.42958
#
# Poissons Ratio (x) = 0.32558 0.19238
# Poissons Ratio (y) = 1.10374 0.26435
# Poissons Ratio (z) = 0.22725 0.09211
#
# Static dielectric constant tensor:
#      x y z
#    x 3.477550 0.000000 0.000000 
#    y 0.000000 3.260590 0.000000 
#    z 0.000000 0.000000 3.495230 
# 
# 
# High freq. dielectric constant tensor:
#      x y z
#    x 1.748460 0.000000 0.000000 
#    y 0.000000 1.687690 0.000000 
#    z 0.000000 0.000000 1.738530 
# 
# From -- ./inp_files/7929.got.cif
#   From: 2010.03.12/outbox.cif.g09.slc.cpg/sg72_4_cif.got.tgz:7929.got - 2010.04.16 14:54:00.
