data_PCOD8293139
_publ_section_title
;
Structure prediction by ZEFSAII (Michael W. Deem and Ramdas Pophale) SiO2 
 PCOD8293139
Probable space group: I B A M
;
_chemical_formula_sum "Si O2"
_cell_formula_units_Z 80
_cell_length_a 11.952669
_cell_length_b 19.131153
_cell_length_c 18.753848
_cell_angle_alpha 90.000000
_cell_angle_beta 90.000000
_cell_angle_gamma 90.000000
_cell_volume 4288.411279
_symmetry_space_group_name_H-M "I B A M"
_symmetry_group_IT_number 72
_symmetry_cell_setting 'orthorhombic'
loop_
_space_group_symop_operation_xyz
x,y,z
-x,-y,z
x,-y,1/2-z
-x,y,1/2-z
-x,-y,-z
x,y,-z
-x,y,1/2+z
x,-y,1/2+z
1/2+x,1/2+y,1/2+z
1/2-x,1/2-y,1/2+z
1/2+x,1/2-y,-z
1/2-x,1/2+y,-z
1/2-x,1/2-y,1/2-z
1/2+x,1/2+y,1/2-z
1/2-x,1/2+y,z
1/2+x,1/2-y,z
loop_
_atom_site_type_symbol
_atom_site_label
_atom_site_fract_x
_atom_site_fract_y
_atom_site_fract_z
Si Si1 0.260850 0.155270 0.677362
Si Si2 0.042394 0.078908 0.323385
Si Si3 0.959938 0.322871 0.580842
Si Si4 0.392759 0.336550 0.420378
Si Si5 0.180323 0.309704 0.333662
O O1 0.176893 0.088921 0.675422
O O2 0.354080 0.139502 0.617591
O O3 0.189503 0.225572 0.661274
O O4 0.324649 0.164298 0.752371
O O5 0.000000 0.115320 0.250000
O O6 0.992211 0.115185 0.392693
O O7 0.000000 0.000000 0.323999
O O8 0.973870 0.351140 0.500000
O O9 0.937594 0.241249 0.580667
O O10 0.071070 0.337563 0.626026
O O11 0.360583 0.359907 0.500000
O O12 0.285740 0.346319 0.370554
#
# Coordination Sequence:
#
# PCOD8293139 Si02
#       5
#    16  16  16  16  16
#     4  10  20  32  55  82 111 148 190 227 280 340
#     4  11  22  38  57  78 111 147 189 234 271 329
#     4  10  20  32  52  84 118 146 177 231 288 337
#     4  10  20  33  52  80 113 148 184 224 281 336
#     4  10  18  32  55  80 115 145 182 231 286 337
#
# _framework density 18.654927000000001
#
# number of rings (size 3 to 8) (size 9 to 14) (size 15 to 20)
#    0.000    1.800    4.000    1.200    0.000    2.000 
#    0.000    0.000    0.000    1.200    0.000    2.800 
#    0.000    0.000    0.000    0.000    0.000    0.000 
#
# Total GULP energy -496001.894028 kJ/mol
# GULP energy per Si atom -12400.047351 kJ/mol
# Density = 1.861247 g / cm^3
# Si number density = 18.654927 Si / 1000 Ang^3
#
#
#
# Elastic Constant Matrix: (Units=GPa)
#
#
# Indices 1 2 3 4 5 6 
#
# 1 128.3622 30.8521 55.9198 0.0000 0.0000 0.0000
# 2 30.8521 33.9304 22.2515 0.0000 0.0000 0.0000
# 3 55.9198 22.2515 124.3840 0.0000 0.0000 0.0000
# 4 0.0000 0.0000 0.0000 12.0432 0.0000 0.0000
# 5 0.0000 0.0000 0.0000 0.0000 36.6158 0.0000
# 6 0.0000 0.0000 0.0000 0.0000 0.0000 25.7642
#
#
#
# Elastic Compliance Matrix: (Units=1/GPa)
#
#
# Indices 1 2 3 4 5 6 
#
# 1 0.011273 -0.007847 -0.003664 0.000000 0.000000 0.000000
# 2 -0.007847 0.038852 -0.003422 0.000000 0.000000 0.000000
# 3 -0.003664 -0.003422 0.010299 0.000000 0.000000 0.000000
# 4 0.000000 0.000000 0.000000 0.083034 0.000000 0.000000
# 5 0.000000 0.000000 0.000000 0.000000 0.027311 0.000000
# 6 0.000000 0.000000 0.000000 0.000000 0.000000 0.038814
#
#
# Mechanical properties :
#
#
# Convention : Reuss Voigt Hill
#
# Bulk Modulus (GPa) = 32.72652 56.08037 44.40344
# Shear Modulus (GPa) = 20.02922 26.72819 23.37870
#
# Velocity S-wave (km/s) = 3.28024 3.78930 3.54392
# Velocity P-wave (km/s) = 5.65047 7.01942 6.37182
#
# Compressibility (1/GPa) = 0.03055626
#
# Stress axis : x y z
#
# Youngs Moduli (GPa) = 88.70927 25.73884 97.09512
#
# Poissons Ratio (x) = 0.20198 0.35577
# Poissons Ratio (y) = 0.69611 0.33230
# Poissons Ratio (z) = 0.32504 0.08809
#
# Static dielectric constant tensor:
#      x y z
#    x 3.424980 0.000000 0.000000 
#    y 0.000000 2.925390 0.000000 
#    z 0.000000 0.000000 3.810020 
# 
# 
# High freq. dielectric constant tensor:
#      x y z
#    x 1.731400 0.000000 0.000000 
#    y 0.000000 1.665270 0.000000 
#    z 0.000000 0.000000 1.741970 
# 
# From -- ./inp_files/20220.got.cif
#   From: 2010.03.12/outbox.cif.g09.slc.cpg/sg72_11_cif.got.tgz:20220.got - 2010.04.16 14:54:00.
