data_PCOD8293065
_publ_section_title
;
Structure prediction by ZEFSAII (Michael W. Deem and Ramdas Pophale) SiO2 
 PCOD8293065
Probable space group: I B A M
;
_chemical_formula_sum "Si O2"
_cell_formula_units_Z 64
_cell_length_a 28.081055
_cell_length_b 11.003560
_cell_length_c 9.425087
_cell_angle_alpha 90.000000
_cell_angle_beta 90.000000
_cell_angle_gamma 90.000000
_cell_volume 2912.272463
_symmetry_space_group_name_H-M "I B A M"
_symmetry_group_IT_number 72
_symmetry_cell_setting 'orthorhombic'
loop_
_space_group_symop_operation_xyz
x,y,z
-x,-y,z
x,-y,1/2-z
-x,y,1/2-z
-x,-y,-z
x,y,-z
-x,y,1/2+z
x,-y,1/2+z
1/2+x,1/2+y,1/2+z
1/2-x,1/2-y,1/2+z
1/2+x,1/2-y,-z
1/2-x,1/2+y,-z
1/2-x,1/2-y,1/2-z
1/2+x,1/2+y,1/2-z
1/2-x,1/2+y,z
1/2+x,1/2-y,z
loop_
_atom_site_type_symbol
_atom_site_label
_atom_site_fract_x
_atom_site_fract_y
_atom_site_fract_z
Si Si1 0.709524 0.843096 0.220298
Si Si2 0.227714 0.949669 0.500000
Si Si3 0.000000 0.831564 0.250000
Si Si4 0.832526 0.698747 0.000000
Si Si5 0.062276 0.780463 0.500000
Si Si6 0.161409 0.185708 0.500000
Si Si7 0.938846 0.937702 0.500000
O O1 0.750000 0.750000 0.250000
O O2 0.736246 0.048670 0.364835
O O3 0.683685 0.882604 0.365637
O O4 0.669016 0.770787 0.134763
O O5 0.197876 0.072484 0.500000
O O6 0.192796 0.831994 0.500000
O O7 0.032791 0.749107 0.355165
O O8 0.968603 0.914037 0.356848
O O9 0.889328 0.705483 0.000000
O O10 0.075819 0.922473 0.500000
O O11 0.107583 0.143860 0.500000
#
# Coordination Sequence:
#
# PCOD8293065 Si02
#       7
#    16   8   8   8   8   8   8
#     4   9  20  34  49  69 102 124 169 232 266 286
#     4   9  19  36  48  70  95 127 177 222 260 298
#     4  10  21  30  42  62 104 130 160 233 247 272
#     4  10  18  31  48  68  92 129 171 215 255 304
#     4  11  18  30  43  65  92 131 173 208 250 291
#     4  11  20  34  55  74  93 144 192 209 243 324
#     4  11  19  31  46  68  94 133 182 209 248 290
#
# _framework density 21.975966
#
# number of rings (size 3 to 8) (size 9 to 14) (size 15 to 20)
#    0.000    2.000    1.250    5.250    0.000    4.000 
#    0.000    1.250    0.000    0.000    0.000    0.000 
#    0.000    0.000    0.000    0.000    0.000 2905.000 
#
# Total GULP energy -396453.215322 kJ/mol
# GULP energy per Si atom -12389.162979 kJ/mol
# Density = 2.192595 g / cm^3
# Si number density = 21.975966 Si / 1000 Ang^3
#
#
#
# Elastic Constant Matrix: (Units=GPa)
#
#
# Indices 1 2 3 4 5 6 
#
# 1 157.1020 27.7049 70.2481 0.0000 0.0000 0.0000
# 2 27.7049 46.4867 14.7809 0.0000 0.0000 0.0000
# 3 70.2481 14.7809 196.7188 0.0000 0.0000 0.0000
# 4 0.0000 0.0000 0.0000 7.6680 0.0000 0.0000
# 5 0.0000 0.0000 0.0000 0.0000 23.9300 0.0000
# 6 0.0000 0.0000 0.0000 0.0000 0.0000 35.6297
#
#
#
# Elastic Compliance Matrix: (Units=1/GPa)
#
#
# Indices 1 2 3 4 5 6 
#
# 1 0.008269 -0.004087 -0.002646 0.000000 0.000000 0.000000
# 2 -0.004087 0.024058 -0.000348 0.000000 0.000000 0.000000
# 3 -0.002646 -0.000348 0.006054 0.000000 0.000000 0.000000
# 4 0.000000 0.000000 0.000000 0.130412 0.000000 0.000000
# 5 0.000000 0.000000 0.000000 0.000000 0.041789 0.000000
# 6 0.000000 0.000000 0.000000 0.000000 0.000000 0.028066
#
#
# Mechanical properties :
#
#
# Convention : Reuss Voigt Hill
#
# Bulk Modulus (GPa) = 41.28892 69.53057 55.40975
# Shear Modulus (GPa) = 19.16563 32.61712 25.89138
#
# Velocity S-wave (km/s) = 2.95637 3.85673 3.43617
# Velocity P-wave (km/s) = 5.52109 7.17918 6.40402
#
# Compressibility (1/GPa) = 0.02421957
#
# Stress axis : x y z
#
# Youngs Moduli (GPa) = 120.93236 41.56627 165.16985
#
# Poissons Ratio (x) = 0.16988 0.43701
# Poissons Ratio (y) = 0.49424 0.05751
# Poissons Ratio (z) = 0.31996 0.01447
#
# Static dielectric constant tensor:
#      x y z
#    x 4.107910 0.000000 0.000000 
#    y 0.000000 3.606700 0.000000 
#    z 0.000000 0.000000 4.008910 
# 
# 
# High freq. dielectric constant tensor:
#      x y z
#    x 1.863480 0.000000 0.000000 
#    y 0.000000 1.821660 0.000000 
#    z 0.000000 0.000000 1.898790 
# 
# From -- ./inp_files/2703.got.cif
#   From: 2010.03.12/outbox.cif.g09.slc.cpg/sg72_2_cif.got.tgz:2703.got - 2010.04.16 14:54:00.
