data_PCOD8293452
_publ_section_title
;
Structure prediction by ZEFSAII (Michael W. Deem and Ramdas Pophale) SiO2 
 PCOD8293452
Probable space group: I B A M
;
_chemical_formula_sum "Si O2"
_cell_formula_units_Z 104
_cell_length_a 13.785715
_cell_length_b 18.968797
_cell_length_c 20.799496
_cell_angle_alpha 90.000000
_cell_angle_beta 90.000000
_cell_angle_gamma 90.000000
_cell_volume 5439.035535
_symmetry_space_group_name_H-M "I B A M"
_symmetry_group_IT_number 72
_symmetry_cell_setting 'orthorhombic'
loop_
_space_group_symop_operation_xyz
x,y,z
-x,-y,z
x,-y,1/2-z
-x,y,1/2-z
-x,-y,-z
x,y,-z
-x,y,1/2+z
x,-y,1/2+z
1/2+x,1/2+y,1/2+z
1/2-x,1/2-y,1/2+z
1/2+x,1/2-y,-z
1/2-x,1/2+y,-z
1/2-x,1/2-y,1/2-z
1/2+x,1/2+y,1/2-z
1/2-x,1/2+y,z
1/2+x,1/2-y,z
loop_
_atom_site_type_symbol
_atom_site_label
_atom_site_fract_x
_atom_site_fract_y
_atom_site_fract_z
Si Si1 0.737741 0.504436 0.072806
Si Si2 0.835407 0.500000 0.250000
Si Si3 0.756077 0.618371 0.326252
Si Si4 0.467722 0.823399 0.679414
Si Si5 0.573924 0.053039 0.878371
Si Si6 0.951651 0.074586 0.071284
Si Si7 0.457474 0.666761 0.182069
O O1 0.745896 0.431312 0.111327
O O2 0.831487 0.554640 0.077542
O O3 0.655212 0.557538 0.098465
O O4 0.715940 0.481887 0.000000
O O5 0.767284 0.567499 0.264404
O O6 0.902455 0.484191 0.310486
O O7 0.851650 0.668274 0.331240
O O8 0.660280 0.666370 0.316289
O O9 0.500000 0.849580 0.750000
O O10 0.526879 0.870034 0.628163
O O11 0.500452 0.743823 0.668720
O O12 0.500000 0.000000 0.913414
O O13 0.009004 0.120191 0.122642
O O14 0.949644 0.111300 0.000000
O O15 0.000000 0.000000 0.063455
O O16 0.500000 0.638319 0.250000
#
# Coordination Sequence:
#
# PCOD8293452 Si02
#       7
#    16   8  16  16  16  16  16
#     4  10  22  37  62  92 117 154 204 262 306 356
#     4  10  19  32  61  84 114 154 205 244 295 366
#     4  11  22  38  60  88 119 163 202 253 304 365
#     4  11  22  40  58  87 132 168 194 240 322 374
#     4  11  18  34  61  89 116 155 205 249 297 363
#     4  10  21  42  65  84 118 166 206 247 314 377
#     4  11  27  38  59  97 128 159 206 263 300 358
#
# _framework density 19.121036
#
# number of rings (size 3 to 8) (size 9 to 14) (size 15 to 20)
#    0.000    1.385    6.154    0.231    4.308    4.308 
#    0.000    1.538    0.000    0.000    0.000    0.000 
#    0.000    0.000    0.000    0.000    0.000    0.000 
#
# Total GULP energy -644495.593508 kJ/mol
# GULP energy per Si atom -12394.146029 kJ/mol
# Density = 1.907752 g / cm^3
# Si number density = 19.121036 Si / 1000 Ang^3
#
#
#
# Elastic Constant Matrix: (Units=GPa)
#
#
# Indices 1 2 3 4 5 6 
#
# 1 173.1814 50.5423 29.2588 0.0000 0.0000 0.0000
# 2 50.5423 85.5814 19.5061 0.0000 0.0000 0.0000
# 3 29.2588 19.5061 57.4405 0.0000 0.0000 0.0000
# 4 0.0000 0.0000 0.0000 13.6394 0.0000 0.0000
# 5 0.0000 0.0000 0.0000 0.0000 31.1348 0.0000
# 6 0.0000 0.0000 0.0000 0.0000 0.0000 32.1228
#
#
#
# Elastic Compliance Matrix: (Units=1/GPa)
#
#
# Indices 1 2 3 4 5 6 
#
# 1 0.007278 -0.003743 -0.002436 0.000000 0.000000 0.000000
# 2 -0.003743 0.014590 -0.003048 0.000000 0.000000 0.000000
# 3 -0.002436 -0.003048 0.019685 0.000000 0.000000 0.000000
# 4 0.000000 0.000000 0.000000 0.073317 0.000000 0.000000
# 5 0.000000 0.000000 0.000000 0.000000 0.032118 0.000000
# 6 0.000000 0.000000 0.000000 0.000000 0.000000 0.031131
#
#
# Mechanical properties :
#
#
# Convention : Reuss Voigt Hill
#
# Bulk Modulus (GPa) = 43.29186 57.20198 50.24692
# Shear Modulus (GPa) = 24.47695 29.83914 27.15804
#
# Velocity S-wave (km/s) = 3.58174 3.95465 3.77281
# Velocity P-wave (km/s) = 6.30835 7.12973 6.73158
#
# Compressibility (1/GPa) = 0.02309903
#
# Stress axis : x y z
#
# Youngs Moduli (GPa) = 137.39443 68.53970 50.79922
#
# Poissons Ratio (x) = 0.25655 0.12376
# Poissons Ratio (y) = 0.51428 0.15483
# Poissons Ratio (z) = 0.33473 0.20891
#
# Static dielectric constant tensor:
#      x y z
#    x 3.692230 0.000000 0.000000 
#    y 0.000000 3.154180 0.000000 
#    z 0.000000 0.000000 3.484900 
# 
# 
# High freq. dielectric constant tensor:
#      x y z
#    x 1.768540 0.000000 0.000000 
#    y 0.000000 1.720940 0.000000 
#    z 0.000000 0.000000 1.730690 
# 
# From -- ./inp_files/38261.got.cif
#   From: 2010.03.12/outbox.cif.g09.slc.cpg/sg72_20_cif.got.tgz:38261.got - 2010.04.16 14:54:00.
