data_PCOD8293796
_publ_section_title
;
Structure prediction by ZEFSAII (Michael W. Deem and Ramdas Pophale) SiO2 
 PCOD8293796
Probable space group: I B A M
;
_chemical_formula_sum "Si O2"
_cell_formula_units_Z 96
_cell_length_a 30.239344
_cell_length_b 20.664371
_cell_length_c 8.974601
_cell_angle_alpha 90.000000
_cell_angle_beta 90.000000
_cell_angle_gamma 90.000000
_cell_volume 5608.021957
_symmetry_space_group_name_H-M "I B A M"
_symmetry_group_IT_number 72
_symmetry_cell_setting 'orthorhombic'
loop_
_space_group_symop_operation_xyz
x,y,z
-x,-y,z
x,-y,1/2-z
-x,y,1/2-z
-x,-y,-z
x,y,-z
-x,y,1/2+z
x,-y,1/2+z
1/2+x,1/2+y,1/2+z
1/2-x,1/2-y,1/2+z
1/2+x,1/2-y,-z
1/2-x,1/2+y,-z
1/2-x,1/2-y,1/2-z
1/2+x,1/2+y,1/2-z
1/2-x,1/2+y,z
1/2+x,1/2-y,z
loop_
_atom_site_type_symbol
_atom_site_label
_atom_site_fract_x
_atom_site_fract_y
_atom_site_fract_z
Si Si1 0.753334 0.564838 0.173602
Si Si2 0.932128 0.938144 0.173198
Si Si3 0.869677 0.236548 0.168880
Si Si4 0.781122 0.696415 0.324002
Si Si5 0.152766 0.908408 0.167552
Si Si6 0.544104 0.704256 0.324097
O O1 0.772730 0.500000 0.250000
O O2 0.773381 0.626285 0.256141
O O3 0.700876 0.563583 0.196149
O O4 0.766387 0.566988 0.000000
O O5 0.880152 0.940466 0.213643
O O6 0.951843 0.870321 0.232152
O O7 0.955955 0.000000 0.250000
O O8 0.939053 0.944953 0.000000
O O9 0.832722 0.289321 0.209826
O O10 0.845414 0.168329 0.193026
O O11 0.912823 0.244351 0.272915
O O12 0.886341 0.244525 0.000000
O O13 0.771443 0.696817 0.500000
O O14 0.750000 0.750000 0.250000
O O15 0.135978 0.924181 0.000000
O O16 0.500000 0.733878 0.250000
O O17 0.540288 0.708988 0.500000
#
# Coordination Sequence:
#
# PCOD8293796 Si02
#       6
#    16  16  16  16  16  16
#     4  11  22  35  49  73 105 141 180 220 264 309
#     4  10  20  31  44  64  88 121 164 207 254 304
#     4   9  18  34  53  74  99 129 167 211 257 305
#     4  11  21  35  55  79 106 140 178 219 263 313
#     4   9  17  31  48  67  94 128 168 212 256 299
#     4  10  21  35  51  71  93 122 160 206 260 309
#
# _framework density 17.118334000000001
#
# number of rings (size 3 to 8) (size 9 to 14) (size 15 to 20)
#    0.000    2.000    1.667    2.500    0.000    6.333 
#    0.000    1.667    0.000    0.000    0.000    0.000 
#    0.000    0.667    0.000    7.000    0.000    3.000 
#
# Total GULP energy -595181.839486 kJ/mol
# GULP energy per Si atom -12399.621656 kJ/mol
# Density = 1.707937 g / cm^3
# Si number density = 17.118334 Si / 1000 Ang^3
#
#
#
# Elastic Constant Matrix: (Units=GPa)
#
#
# Indices 1 2 3 4 5 6 
#
# 1 81.4619 37.2739 51.7878 0.0000 0.0000 0.0000
# 2 37.2739 86.6053 42.1388 0.0000 0.0000 0.0000
# 3 51.7878 42.1388 94.8942 0.0000 0.0000 0.0000
# 4 0.0000 0.0000 0.0000 27.0426 0.0000 0.0000
# 5 0.0000 0.0000 0.0000 0.0000 26.0485 0.0000
# 6 0.0000 0.0000 0.0000 0.0000 0.0000 7.3114
#
#
#
# Elastic Compliance Matrix: (Units=1/GPa)
#
#
# Indices 1 2 3 4 5 6 
#
# 1 0.019922 -0.004189 -0.009012 0.000000 0.000000 0.000000
# 2 -0.004189 0.015610 -0.004646 0.000000 0.000000 0.000000
# 3 -0.009012 -0.004646 0.017519 0.000000 0.000000 0.000000
# 4 0.000000 0.000000 0.000000 0.036979 0.000000 0.000000
# 5 0.000000 0.000000 0.000000 0.000000 0.038390 0.000000
# 6 0.000000 0.000000 0.000000 0.000000 0.000000 0.136773
#
#
# Mechanical properties :
#
#
# Convention : Reuss Voigt Hill
#
# Bulk Modulus (GPa) = 57.61192 58.37361 57.99277
# Shear Modulus (GPa) = 16.30410 20.86456 18.58433
#
# Velocity S-wave (km/s) = 3.08950 3.49498 3.29848
# Velocity P-wave (km/s) = 6.81578 7.10356 6.96116
#
# Compressibility (1/GPa) = 0.01735752
#
# Stress axis : x y z
#
# Youngs Moduli (GPa) = 50.19681 64.06164 57.08068
#
# Poissons Ratio (x) = 0.26837 0.51440
# Poissons Ratio (y) = 0.21029 0.26517
# Poissons Ratio (z) = 0.45236 0.29760
#
# Static dielectric constant tensor:
#      x y z
#    x 3.086420 0.000000 0.000000 
#    y 0.000000 3.081290 0.000000 
#    z 0.000000 0.000000 3.243140 
# 
# 
# High freq. dielectric constant tensor:
#      x y z
#    x 1.645110 0.000000 0.000000 
#    y 0.000000 1.629400 0.000000 
#    z 0.000000 0.000000 1.671920 
# 
# From -- ./inp_files/8051.got.cif
#   From: 2010.03.12/outbox.cif.g09.slc.cpg/sg72_5_cif.got.tgz:8051.got - 2010.04.16 14:54:00.
