data_PCOD8293119
_publ_section_title
;
Structure prediction by ZEFSAII (Michael W. Deem and Ramdas Pophale) SiO2 
 PCOD8293119
Probable space group: I B A M
;
_chemical_formula_sum "Si O2"
_cell_formula_units_Z 96
_cell_length_a 16.527746
_cell_length_b 17.893684
_cell_length_c 18.447455
_cell_angle_alpha 90.000000
_cell_angle_beta 90.000000
_cell_angle_gamma 90.000000
_cell_volume 5455.692110
_symmetry_space_group_name_H-M "I B A M"
_symmetry_group_IT_number 72
_symmetry_cell_setting 'orthorhombic'
loop_
_space_group_symop_operation_xyz
x,y,z
-x,-y,z
x,-y,1/2-z
-x,y,1/2-z
-x,-y,-z
x,y,-z
-x,y,1/2+z
x,-y,1/2+z
1/2+x,1/2+y,1/2+z
1/2-x,1/2-y,1/2+z
1/2+x,1/2-y,-z
1/2-x,1/2+y,-z
1/2-x,1/2-y,1/2-z
1/2+x,1/2+y,1/2-z
1/2-x,1/2+y,z
1/2+x,1/2-y,z
loop_
_atom_site_type_symbol
_atom_site_label
_atom_site_fract_x
_atom_site_fract_y
_atom_site_fract_z
Si Si1 0.150726 0.071906 0.792661
Si Si2 0.566974 0.064252 0.918654
Si Si3 0.959990 0.343099 0.174541
Si Si4 0.833672 0.533226 0.675604
Si Si5 0.474000 0.584565 0.918085
Si Si6 0.568440 0.327893 0.308369
O O1 0.240330 0.053951 0.819316
O O2 0.103569 0.093272 0.866068
O O3 0.148671 0.139716 0.732681
O O4 0.113579 0.000000 0.750000
O O5 0.531470 0.140365 0.883372
O O6 0.500000 0.000000 0.911055
O O7 0.649470 0.032567 0.882826
O O8 0.589136 0.084922 0.000000
O O9 0.881902 0.392089 0.155870
O O10 0.926792 0.259164 0.173703
O O11 0.000000 0.365087 0.250000
O O12 0.867704 0.500000 0.750000
O O13 0.500000 0.500000 0.922670
O O14 0.549014 0.630947 0.884094
O O15 0.454889 0.613927 0.000000
O O16 0.500000 0.347433 0.250000
#
# Coordination Sequence:
#
# PCOD8293119 Si02
#       6
#    16  16  16  16  16  16
#     4  10  19  33  52  77 105 136 174 223 270 315
#     4   9  18  31  50  76 104 138 180 220 262 315
#     4  10  18  32  52  77 105 139 176 218 266 316
#     4  10  19  31  53  76 105 142 175 220 265 315
#     4  10  19  33  54  74  96 132 173 218 268 319
#     4   9  19  32  52  77 102 133 176 221 266 321
#
# _framework density 17.596301
#
# number of rings (size 3 to 8) (size 9 to 14) (size 15 to 20)
#    0.000    2.333    3.333    0.000    0.000    2.000 
#    0.000    0.000    0.000    0.000    0.000    0.000 
#    0.000    0.000    0.000    0.000    0.000    0.000 
#
# Total GULP energy -594829.061427 kJ/mol
# GULP energy per Si atom -12392.272113 kJ/mol
# Density = 1.755625 g / cm^3
# Si number density = 17.596301 Si / 1000 Ang^3
#
#
#
# Elastic Constant Matrix: (Units=GPa)
#
#
# Indices 1 2 3 4 5 6 
#
# 1 79.1897 32.7108 45.4969 0.0000 0.0000 0.0000
# 2 32.7108 92.2766 50.6994 0.0000 0.0000 0.0000
# 3 45.4969 50.6994 147.5550 0.0000 0.0000 0.0000
# 4 0.0000 0.0000 0.0000 10.4480 0.0000 0.0000
# 5 0.0000 0.0000 0.0000 0.0000 34.4727 0.0000
# 6 0.0000 0.0000 0.0000 0.0000 0.0000 20.2005
#
#
#
# Elastic Compliance Matrix: (Units=1/GPa)
#
#
# Indices 1 2 3 4 5 6 
#
# 1 0.016323 -0.003724 -0.003753 0.000000 0.000000 0.000000
# 2 -0.003724 0.014208 -0.003734 0.000000 0.000000 0.000000
# 3 -0.003753 -0.003734 0.009217 0.000000 0.000000 0.000000
# 4 0.000000 0.000000 0.000000 0.095712 0.000000 0.000000
# 5 0.000000 0.000000 0.000000 0.000000 0.029008 0.000000
# 6 0.000000 0.000000 0.000000 0.000000 0.000000 0.049504
#
#
# Mechanical properties :
#
#
# Convention : Reuss Voigt Hill
#
# Bulk Modulus (GPa) = 57.71564 64.09284 60.90424
# Shear Modulus (GPa) = 20.64661 25.69851 23.17256
#
# Velocity S-wave (km/s) = 3.42914 3.82573 3.63285
# Velocity P-wave (km/s) = 6.96776 7.48452 7.23076
#
# Compressibility (1/GPa) = 0.01732633
#
# Stress axis : x y z
#
# Youngs Moduli (GPa) = 61.26484 70.38041 108.49122
#
# Poissons Ratio (x) = 0.26209 0.40721
# Poissons Ratio (y) = 0.22815 0.40508
# Poissons Ratio (z) = 0.22995 0.26278
#
# Static dielectric constant tensor:
#      x y z
#    x 2.998390 0.000000 0.000000 
#    y 0.000000 3.202580 0.000000 
#    z 0.000000 0.000000 3.521840 
# 
# 
# High freq. dielectric constant tensor:
#      x y z
#    x 1.653630 0.000000 0.000000 
#    y 0.000000 1.673580 0.000000 
#    z 0.000000 0.000000 1.683780 
# 
# From -- ./inp_files/31629.got.cif
#   From: 2010.03.12/outbox.cif.g09.slc.cpg/sg72_16_cif.got.tgz:31629.got - 2010.04.16 14:54:00.
