data_PCOD8293221
_publ_section_title
;
Structure prediction by ZEFSAII (Michael W. Deem and Ramdas Pophale) SiO2 
 PCOD8293221
Probable space group: I B A M
;
_chemical_formula_sum "Si O2"
_cell_formula_units_Z 84
_cell_length_a 12.171855
_cell_length_b 15.786699
_cell_length_c 18.894687
_cell_angle_alpha 90.000000
_cell_angle_beta 90.000000
_cell_angle_gamma 90.000000
_cell_volume 3630.678560
_symmetry_space_group_name_H-M "I B A M"
_symmetry_group_IT_number 72
_symmetry_cell_setting 'orthorhombic'
loop_
_space_group_symop_operation_xyz
x,y,z
-x,-y,z
x,-y,1/2-z
-x,y,1/2-z
-x,-y,-z
x,y,-z
-x,y,1/2+z
x,-y,1/2+z
1/2+x,1/2+y,1/2+z
1/2-x,1/2-y,1/2+z
1/2+x,1/2-y,-z
1/2-x,1/2+y,-z
1/2-x,1/2-y,1/2-z
1/2+x,1/2+y,1/2-z
1/2-x,1/2+y,z
1/2+x,1/2-y,z
loop_
_atom_site_type_symbol
_atom_site_label
_atom_site_fract_x
_atom_site_fract_y
_atom_site_fract_z
Si Si1 0.176752 0.222891 0.849106
Si Si2 0.685251 0.049669 0.347601
Si Si3 0.885687 0.899394 0.500000
Si Si4 0.000000 0.500000 0.750000
Si Si5 0.273140 0.046457 0.000000
Si Si6 0.882994 0.812411 0.000000
Si Si7 0.000000 0.165108 0.750000
Si Si8 0.815881 0.118168 0.845796
O O1 0.237558 0.131923 0.842270
O O2 0.076018 0.225928 0.795847
O O3 0.253348 0.297873 0.820693
O O4 0.122782 0.241347 0.927115
O O5 0.575645 0.059247 0.300450
O O6 0.653706 0.031287 0.430011
O O7 0.749541 0.965364 0.323302
O O8 0.845567 0.997143 0.500000
O O9 0.833316 0.862210 0.571234
O O10 0.015154 0.878919 0.500000
O O11 0.235017 0.142693 0.000000
O O12 0.069663 0.107139 0.695769
#
# Coordination Sequence:
#
# PCOD8293221 Si02
#       8
#    16  16   8   4   8   8   8  16
#     4  11  24  41  63  92 125 160 205 255 302 361
#     4  10  24  42  64  91 122 164 205 253 301 360
#     4  10  18  39  62  92 117 159 201 253 310 358
#     4  12  24  44  64  84 132 172 208 234 300 374
#     4   8  19  37  64  90 124 146 204 262 302 354
#     4  10  18  39  62  92 117 159 201 253 310 358
#     4  12  24  40  64  92 128 160 204 250 316 366
#     4  11  24  41  63  92 125 160 205 255 302 361
#
# _framework density 23.13617
#
# number of rings (size 3 to 8) (size 9 to 14) (size 15 to 20)
#    0.000    1.524    1.905    2.571    0.000    4.952 
#    0.000    0.000    0.000    0.000    0.000    0.000 
#    0.000    0.000    0.000    0.000    0.000    0.000 
#
# Total GULP energy -520380.985341 kJ/mol
# GULP energy per Si atom -12390.023460 kJ/mol
# Density = 2.308351 g / cm^3
# Si number density = 23.136170 Si / 1000 Ang^3
#
#
#
# Elastic Constant Matrix: (Units=GPa)
#
#
# Indices 1 2 3 4 5 6 
#
# 1 121.5018 42.3198 79.5997 0.0000 0.0000 0.0000
# 2 42.3198 117.0689 37.4164 0.0000 0.0000 0.0000
# 3 79.5997 37.4164 124.8460 0.0000 0.0000 0.0000
# 4 0.0000 0.0000 0.0000 17.2018 0.0000 0.0000
# 5 0.0000 0.0000 0.0000 0.0000 47.9306 0.0000
# 6 0.0000 0.0000 0.0000 0.0000 0.0000 14.5853
#
#
#
# Elastic Compliance Matrix: (Units=1/GPa)
#
#
# Indices 1 2 3 4 5 6 
#
# 1 0.014808 -0.002583 -0.008667 0.000000 0.000000 0.000000
# 2 -0.002583 0.009897 -0.001319 0.000000 0.000000 0.000000
# 3 -0.008667 -0.001319 0.013931 0.000000 0.000000 0.000000
# 4 0.000000 0.000000 0.000000 0.058133 0.000000 0.000000
# 5 0.000000 0.000000 0.000000 0.000000 0.020863 0.000000
# 6 0.000000 0.000000 0.000000 0.000000 0.000000 0.068562
#
#
# Mechanical properties :
#
#
# Convention : Reuss Voigt Hill
#
# Bulk Modulus (GPa) = 74.08693 75.78760 74.93726
# Shear Modulus (GPa) = 23.16584 29.54893 26.35739
#
# Velocity S-wave (km/s) = 3.16774 3.57764 3.37891
# Velocity P-wave (km/s) = 6.74322 7.06359 6.90526
#
# Compressibility (1/GPa) = 0.01349766
#
# Stress axis : x y z
#
# Youngs Moduli (GPa) = 67.52984 101.03668 71.77982
#
# Poissons Ratio (x) = 0.26097 0.62214
# Poissons Ratio (y) = 0.17442 0.09471
# Poissons Ratio (z) = 0.58531 0.13331
#
# Static dielectric constant tensor:
#      x y z
#    x 3.963130 0.000000 0.000000 
#    y 0.000000 3.692360 0.000000 
#    z 0.000000 0.000000 4.825240 
# 
# 
# High freq. dielectric constant tensor:
#      x y z
#    x 1.896580 0.000000 0.000000 
#    y 0.000000 1.883980 0.000000 
#    z 0.000000 0.000000 1.954560 
# 
# From -- ./inp_files/36845.got.cif
#   From: 2010.03.12/outbox.cif.g09.slc.cpg/sg72_19_cif.got.tgz:36845.got - 2010.04.16 14:54:00.
