data_PCOD8293613
_publ_section_title
;
Structure prediction by ZEFSAII (Michael W. Deem and Ramdas Pophale) SiO2 
 PCOD8293613
Probable space group: I B A M
;
_chemical_formula_sum "Si O2"
_cell_formula_units_Z 80
_cell_length_a 25.257592
_cell_length_b 8.787658
_cell_length_c 15.586544
_cell_angle_alpha 90.000000
_cell_angle_beta 90.000000
_cell_angle_gamma 90.000000
_cell_volume 3459.512627
_symmetry_space_group_name_H-M "I B A M"
_symmetry_group_IT_number 72
_symmetry_cell_setting 'orthorhombic'
loop_
_space_group_symop_operation_xyz
x,y,z
-x,-y,z
x,-y,1/2-z
-x,y,1/2-z
-x,-y,-z
x,y,-z
-x,y,1/2+z
x,-y,1/2+z
1/2+x,1/2+y,1/2+z
1/2-x,1/2-y,1/2+z
1/2+x,1/2-y,-z
1/2-x,1/2+y,-z
1/2-x,1/2-y,1/2-z
1/2+x,1/2+y,1/2-z
1/2-x,1/2+y,z
1/2+x,1/2-y,z
loop_
_atom_site_type_symbol
_atom_site_label
_atom_site_fract_x
_atom_site_fract_y
_atom_site_fract_z
Si Si1 0.193634 0.380886 0.095621
Si Si2 0.614430 0.338010 0.602146
Si Si3 0.991524 0.330476 0.101973
Si Si4 0.902516 0.181584 0.601998
Si Si5 0.220343 0.301562 0.336198
O O1 0.141926 0.299395 0.136451
O O2 0.212218 0.517254 0.157437
O O3 0.240867 0.257271 0.088385
O O4 0.181254 0.443784 0.000000
O O5 0.623166 0.323704 0.500000
O O6 0.563539 0.241722 0.633085
O O7 0.608132 0.511077 0.633030
O O8 0.663453 0.275233 0.655264
O O9 0.000000 0.500000 0.138593
O O10 0.040050 0.229489 0.137239
O O11 0.992486 0.332154 0.000000
O O12 0.900654 0.187077 0.500000
O O13 0.250000 0.250000 0.250000
#
# Coordination Sequence:
#
# PCOD8293613 Si02
#       5
#    16  16  16  16  16
#     4  11  22  39  62  86 117 159 210 257 305 371
#     4  10  19  34  57  85 122 166 212 257 308 376
#     4   9  16  28  51  87 126 160 200 255 314 369
#     4   9  18  32  55  89 123 157 202 259 313 365
#     4  12  25  40  58  86 122 161 204 257 315 367
#
# _framework density 23.124644
#
# number of rings (size 3 to 8) (size 9 to 14) (size 15 to 20)
#    0.000    1.800    0.000    5.400    0.000    7.200 
#    0.000    0.000    0.000    1.200    0.000    7.000 
#    0.000    0.000    0.000    0.000    0.000    8.000 
#
# Total GULP energy -495950.365838 kJ/mol
# GULP energy per Si atom -12398.759146 kJ/mol
# Density = 2.307201 g / cm^3
# Si number density = 23.124644 Si / 1000 Ang^3
#
#
#
# Elastic Constant Matrix: (Units=GPa)
#
#
# Indices 1 2 3 4 5 6 
#
# 1 227.8610 96.2859 33.1710 0.0000 0.0000 0.0000
# 2 96.2859 171.6273 32.8969 0.0000 0.0000 0.0000
# 3 33.1710 32.8969 55.2804 0.0000 0.0000 0.0000
# 4 0.0000 0.0000 0.0000 17.0009 0.0000 0.0000
# 5 0.0000 0.0000 0.0000 0.0000 20.5596 0.0000
# 6 0.0000 0.0000 0.0000 0.0000 0.0000 56.3698
#
#
#
# Elastic Compliance Matrix: (Units=1/GPa)
#
#
# Indices 1 2 3 4 5 6 
#
# 1 0.005902 -0.002971 -0.001773 0.000000 0.000000 0.000000
# 2 -0.002971 0.008073 -0.003021 0.000000 0.000000 0.000000
# 3 -0.001773 -0.003021 0.020952 0.000000 0.000000 0.000000
# 4 0.000000 0.000000 0.000000 0.058820 0.000000 0.000000
# 5 0.000000 0.000000 0.000000 0.000000 0.048639 0.000000
# 6 0.000000 0.000000 0.000000 0.000000 0.000000 0.017740
#
#
# Mechanical properties :
#
#
# Convention : Reuss Voigt Hill
#
# Bulk Modulus (GPa) = 51.56003 86.60846 69.08425
# Shear Modulus (GPa) = 27.45399 38.28038 32.86718
#
# Velocity S-wave (km/s) = 3.44934 4.07307 3.77411
# Velocity P-wave (km/s) = 6.18134 7.72360 6.99510
#
# Compressibility (1/GPa) = 0.01939487
#
# Stress axis : x y z
#
# Youngs Moduli (GPa) = 169.42150 123.87504 47.72923
#
# Poissons Ratio (x) = 0.36809 0.08465
# Poissons Ratio (y) = 0.50343 0.14419
# Poissons Ratio (z) = 0.30047 0.37422
#
# Static dielectric constant tensor:
#      x y z
#    x 4.470960 0.000000 0.000000 
#    y 0.000000 4.394150 0.000000 
#    z 0.000000 0.000000 3.623550 
# 
# 
# High freq. dielectric constant tensor:
#      x y z
#    x 1.931640 0.000000 0.000000 
#    y 0.000000 1.926470 0.000000 
#    z 0.000000 0.000000 1.874860 
# 
# From -- ./inp_files/33791.got.cif
#   From: 2010.03.12/outbox.cif.g09.slc.cpg/sg72_17_cif.got.tgz:33791.got - 2010.04.16 14:54:00.
