data_PCOD8294004
_publ_section_title
;
Structure prediction by ZEFSAII (Michael W. Deem and Ramdas Pophale) SiO2 
 PCOD8294004
Probable space group: I B A M
;
_chemical_formula_sum "Si O2"
_cell_formula_units_Z 76
_cell_length_a 16.873330
_cell_length_b 8.156141
_cell_length_c 27.391752
_cell_angle_alpha 90.000000
_cell_angle_beta 90.000000
_cell_angle_gamma 90.000000
_cell_volume 3769.687386
_symmetry_space_group_name_H-M "I B A M"
_symmetry_group_IT_number 72
_symmetry_cell_setting 'orthorhombic'
loop_
_space_group_symop_operation_xyz
x,y,z
-x,-y,z
x,-y,1/2-z
-x,y,1/2-z
-x,-y,-z
x,y,-z
-x,y,1/2+z
x,-y,1/2+z
1/2+x,1/2+y,1/2+z
1/2-x,1/2-y,1/2+z
1/2+x,1/2-y,-z
1/2-x,1/2+y,-z
1/2-x,1/2-y,1/2-z
1/2+x,1/2+y,1/2-z
1/2-x,1/2+y,z
1/2+x,1/2-y,z
loop_
_atom_site_type_symbol
_atom_site_label
_atom_site_fract_x
_atom_site_fract_y
_atom_site_fract_z
Si Si1 0.000000 0.500000 0.750000
Si Si2 0.117678 0.111786 0.000000
Si Si3 0.786227 0.348827 0.554067
Si Si4 0.858142 0.660036 0.409424
Si Si5 0.859076 0.307042 0.201370
Si Si6 0.057877 0.236073 0.500000
Si Si7 0.222760 0.000000 0.750000
O O1 0.058653 0.620508 0.778903
O O2 0.161336 0.182503 0.048505
O O3 0.030664 0.181260 0.000000
O O4 0.118294 0.917149 0.000000
O O5 0.777757 0.434823 0.500000
O O6 0.824836 0.475490 0.591659
O O7 0.702968 0.298207 0.574921
O O8 0.882363 0.710826 0.355251
O O9 0.928093 0.661461 0.450064
O O10 0.781901 0.423440 0.209125
O O11 0.836027 0.132781 0.225582
#
# Coordination Sequence:
#
# PCOD8294004 Si02
#       7
#     4   8  16  16  16   8   8
#     4  10  24  46  60  92 132 156 212 282 324 376
#     4   9  22  35  50  69 117 171 190 241 290 331
#     4  10  20  35  52  84 117 158 193 246 280 349
#     4  12  21  35  62  87 117 161 200 240 306 367
#     4  10  22  40  67  92 122 163 208 267 331 383
#     4  11  20  37  50  79 123 155 196 243 292 369
#     4   9  20  44  64  91 120 156 214 275 318 376
#
# _framework density 20.160822
#
# number of rings (size 3 to 8) (size 9 to 14) (size 15 to 20)
#    0.632    1.053    2.105    2.526    0.000    3.789 
#    0.000    4.211    0.000    0.000    0.000    0.000 
#    0.000    0.000    0.000    0.000    0.000    0.000 
#
# Total GULP energy -470826.143264 kJ/mol
# GULP energy per Si atom -12390.161665 kJ/mol
# Density = 2.011494 g / cm^3
# Si number density = 20.160822 Si / 1000 Ang^3
#
#
#
# Elastic Constant Matrix: (Units=GPa)
#
#
# Indices 1 2 3 4 5 6 
#
# 1 90.6552 28.3116 49.9062 0.0000 0.0000 0.0000
# 2 28.3116 72.4870 30.7455 0.0000 0.0000 0.0000
# 3 49.9062 30.7455 143.5605 0.0000 0.0000 0.0000
# 4 0.0000 0.0000 0.0000 14.2618 0.0000 0.0000
# 5 0.0000 0.0000 0.0000 0.0000 20.7192 0.0000
# 6 0.0000 0.0000 0.0000 0.0000 0.0000 28.6035
#
#
#
# Elastic Compliance Matrix: (Units=1/GPa)
#
#
# Indices 1 2 3 4 5 6 
#
# 1 0.014579 -0.003899 -0.004233 0.000000 0.000000 0.000000
# 2 -0.003899 0.016217 -0.002118 0.000000 0.000000 0.000000
# 3 -0.004233 -0.002118 0.008891 0.000000 0.000000 0.000000
# 4 0.000000 0.000000 0.000000 0.070117 0.000000 0.000000
# 5 0.000000 0.000000 0.000000 0.000000 0.048264 0.000000
# 6 0.000000 0.000000 0.000000 0.000000 0.000000 0.034961
#
#
# Mechanical properties :
#
#
# Convention : Reuss Voigt Hill
#
# Bulk Modulus (GPa) = 52.11808 58.29213 55.20511
# Shear Modulus (GPa) = 22.73523 25.89953 24.31738
#
# Velocity S-wave (km/s) = 3.36176 3.58808 3.47676
# Velocity P-wave (km/s) = 6.40124 6.79280 6.59992
#
# Compressibility (1/GPa) = 0.01918720
#
# Stress axis : x y z
#
# Youngs Moduli (GPa) = 68.59341 61.66554 112.47594
#
# Poissons Ratio (x) = 0.24041 0.47612
# Poissons Ratio (y) = 0.26742 0.23819
# Poissons Ratio (z) = 0.29036 0.13059
#
# Static dielectric constant tensor:
#      x y z
#    x 3.585690 0.000000 0.000000 
#    y 0.000000 3.750470 0.000000 
#    z 0.000000 0.000000 3.585160 
# 
# 
# High freq. dielectric constant tensor:
#      x y z
#    x 1.787360 0.000000 0.000000 
#    y 0.000000 1.796670 0.000000 
#    z 0.000000 0.000000 1.765780 
# 
# From -- ./inp_files/49000.got.cif
#   From: 2010.03.12/outbox.cif.g09.slc.cpg/sg72_25_cif.got.tgz:49000.got - 2010.04.16 14:54:00.
