data_PCOD8294560
_publ_section_title
;
Structure prediction by ZEFSAII (Michael W. Deem and Ramdas Pophale) SiO2 
 PCOD8294560
Probable space group: I B A M
;
_chemical_formula_sum "Si O2"
_cell_formula_units_Z 72
_cell_length_a 15.465353
_cell_length_b 10.280378
_cell_length_c 21.601432
_cell_angle_alpha 90.000000
_cell_angle_beta 90.000000
_cell_angle_gamma 90.000000
_cell_volume 3434.404648
_symmetry_space_group_name_H-M "I B A M"
_symmetry_group_IT_number 72
_symmetry_cell_setting 'orthorhombic'
loop_
_space_group_symop_operation_xyz
x,y,z
-x,-y,z
x,-y,1/2-z
-x,y,1/2-z
-x,-y,-z
x,y,-z
-x,y,1/2+z
x,-y,1/2+z
1/2+x,1/2+y,1/2+z
1/2-x,1/2-y,1/2+z
1/2+x,1/2-y,-z
1/2-x,1/2+y,-z
1/2-x,1/2-y,1/2-z
1/2+x,1/2+y,1/2-z
1/2-x,1/2+y,z
1/2+x,1/2-y,z
loop_
_atom_site_type_symbol
_atom_site_label
_atom_site_fract_x
_atom_site_fract_y
_atom_site_fract_z
Si Si1 0.908192 0.428379 0.500000
Si Si2 0.327258 0.732166 0.399252
Si Si3 0.808769 0.816308 0.000000
Si Si4 0.759806 0.619514 0.789403
Si Si5 0.102450 0.506162 0.866789
Si Si6 0.910246 0.072967 0.000000
O O1 0.898321 0.270399 0.500000
O O2 0.862670 0.473653 0.563518
O O3 0.000000 0.500000 0.500000
O O4 0.246873 0.783370 0.439474
O O5 0.296932 0.623575 0.351166
O O6 0.401987 0.666719 0.440663
O O7 0.366951 0.846295 0.356651
O O8 0.832744 0.967973 0.000000
O O9 0.723219 0.500000 0.750000
O O10 0.750000 0.750000 0.750000
O O11 0.857529 0.587528 0.813703
O O12 0.000000 0.500000 0.861343
O O13 0.000000 0.000000 0.000000
#
# Coordination Sequence:
#
# PCOD8294560 Si02
#       6
#     8  16   8  16  16   8
#     4  10  21  36  69 100 130 168 214 279 351 417
#     4  11  24  43  67  98 132 180 228 273 347 415
#     4  11  22  39  67  97 137 173 218 277 350 411
#     4  12  25  45  70  99 133 183 238 282 327 403
#     4  11  24  43  72  99 134 177 231 284 344 417
#     4  11  27  39  65 104 143 166 213 290 364 407
#
# _framework density 20.964331999999999
#
# number of rings (size 3 to 8) (size 9 to 14) (size 15 to 20)
#    0.000    0.889    4.444    2.667    9.333    0.444 
#    0.000    0.000    0.000    0.000    0.000    0.000 
#    0.000    0.000    0.000    0.000    0.000    0.000 
#
# Total GULP energy -446172.495869 kJ/mol
# GULP energy per Si atom -12393.680441 kJ/mol
# Density = 2.091662 g / cm^3
# Si number density = 20.964332 Si / 1000 Ang^3
#
#
#
# Elastic Constant Matrix: (Units=GPa)
#
#
# Indices 1 2 3 4 5 6 
#
# 1 99.6462 51.1256 48.3702 0.0000 0.0000 0.0000
# 2 51.1256 134.1256 52.4242 0.0000 0.0000 0.0000
# 3 48.3702 52.4242 126.9362 0.0000 0.0000 0.0000
# 4 0.0000 0.0000 0.0000 50.7704 0.0000 0.0000
# 5 0.0000 0.0000 0.0000 0.0000 24.5881 0.0000
# 6 0.0000 0.0000 0.0000 0.0000 0.0000 39.5572
#
#
#
# Elastic Compliance Matrix: (Units=1/GPa)
#
#
# Indices 1 2 3 4 5 6 
#
# 1 0.013776 -0.003815 -0.003674 0.000000 0.000000 0.000000
# 2 -0.003815 0.009948 -0.002654 0.000000 0.000000 0.000000
# 3 -0.003674 -0.002654 0.010374 0.000000 0.000000 0.000000
# 4 0.000000 0.000000 0.000000 0.019697 0.000000 0.000000
# 5 0.000000 0.000000 0.000000 0.000000 0.040670 0.000000
# 6 0.000000 0.000000 0.000000 0.000000 0.000000 0.025280
#
#
# Mechanical properties :
#
#
# Convention : Reuss Voigt Hill
#
# Bulk Modulus (GPa) = 72.40678 73.83867 73.12273
# Shear Modulus (GPa) = 34.56966 36.90234 35.73600
#
# Velocity S-wave (km/s) = 4.06516 4.20008 4.13317
# Velocity P-wave (km/s) = 7.52643 7.66932 7.59821
#
# Compressibility (1/GPa) = 0.01381086
#
# Stress axis : x y z
#
# Youngs Moduli (GPa) = 72.58786 100.52777 96.39263
#
# Poissons Ratio (x) = 0.38354 0.35414
# Poissons Ratio (y) = 0.27694 0.25587
# Poissons Ratio (z) = 0.26668 0.26684
#
# Static dielectric constant tensor:
#      x y z
#    x 3.495990 0.000000 0.000000 
#    y 0.000000 4.104050 0.000000 
#    z 0.000000 0.000000 4.201090 
# 
# 
# High freq. dielectric constant tensor:
#      x y z
#    x 1.798390 0.000000 0.000000 
#    y 0.000000 1.833210 0.000000 
#    z 0.000000 0.000000 1.831250 
# 
# From -- ./inp_files/42125.got.cif
#   From: 2010.03.12/outbox.cif.g09.slc.cpg/sg72_22_cif.got.tgz:42125.got - 2010.04.16 14:54:00.
