data_PCOD8294438
_publ_section_title
;
Structure prediction by ZEFSAII (Michael W. Deem and Ramdas Pophale) SiO2 
 PCOD8294438
Probable space group: I B A M
;
_chemical_formula_sum "Si O2"
_cell_formula_units_Z 112
_cell_length_a 11.559600
_cell_length_b 30.881313
_cell_length_c 15.035172
_cell_angle_alpha 90.000000
_cell_angle_beta 90.000000
_cell_angle_gamma 90.000000
_cell_volume 5367.189933
_symmetry_space_group_name_H-M "I B A M"
_symmetry_group_IT_number 72
_symmetry_cell_setting 'orthorhombic'
loop_
_space_group_symop_operation_xyz
x,y,z
-x,-y,z
x,-y,1/2-z
-x,y,1/2-z
-x,-y,-z
x,y,-z
-x,y,1/2+z
x,-y,1/2+z
1/2+x,1/2+y,1/2+z
1/2-x,1/2-y,1/2+z
1/2+x,1/2-y,-z
1/2-x,1/2+y,-z
1/2-x,1/2-y,1/2-z
1/2+x,1/2+y,1/2-z
1/2-x,1/2+y,z
1/2+x,1/2-y,z
loop_
_atom_site_type_symbol
_atom_site_label
_atom_site_fract_x
_atom_site_fract_y
_atom_site_fract_z
Si Si1 0.234793 0.391886 0.399479
Si Si2 0.146031 0.277484 0.896828
Si Si3 0.384382 0.317668 0.347194
Si Si4 0.986800 0.362203 0.604810
Si Si5 0.868860 0.949015 0.755468
Si Si6 0.139961 0.828909 0.143979
Si Si7 0.234330 0.412052 0.097983
O O1 0.221795 0.410806 0.500000
O O2 0.300971 0.346099 0.408699
O O3 0.302303 0.427803 0.340016
O O4 0.109724 0.378828 0.356504
O O5 0.135919 0.233496 0.841678
O O6 0.059674 0.315365 0.858691
O O7 0.280171 0.288669 0.881715
O O8 0.120578 0.268592 0.000000
O O9 0.510875 0.321862 0.389407
O O10 0.364914 0.337878 0.249545
O O11 0.997289 0.356684 0.500000
O O12 0.894919 0.399507 0.629440
O O13 0.793479 0.943042 0.667618
O O14 0.000000 0.929211 0.750000
O O15 0.879499 0.000000 0.750000
O O16 0.190502 0.868949 0.090540
O O17 0.231893 0.433973 0.000000
#
# Coordination Sequence:
#
# PCOD8294438 Si02
#       7
#    16  16  16  16  16  16  16
#     4  11  23  41  65  94 129 167 207 262 323 374
#     4  10  21  36  55  82 118 163 214 257 302 365
#     4  11  22  35  56  84 120 161 207 261 311 365
#     4   8  19  39  61  89 125 165 212 260 306 367
#     4  11  25  44  66  97 131 158 202 262 315 385
#     4  10  21  38  54  80 118 156 206 258 302 365
#     4  10  20  41  68  88 117 166 209 248 309 377
#
# _framework density 20.867529999999999
#
# number of rings (size 3 to 8) (size 9 to 14) (size 15 to 20)
#    0.000    1.857    1.429    3.000    2.000    5.143 
#    0.000    2.857    0.000    2.571    0.000    0.000 
#    0.000    0.000    0.000    0.000    0.000    0.000 
#
# Total GULP energy -693903.317470 kJ/mol
# GULP energy per Si atom -12391.130669 kJ/mol
# Density = 2.082003 g / cm^3
# Si number density = 20.867530 Si / 1000 Ang^3
#
#
#
# Elastic Constant Matrix: (Units=GPa)
#
#
# Indices 1 2 3 4 5 6 
#
# 1 154.8588 54.9353 29.4356 0.0003 0.0000 0.0001
# 2 54.9353 68.4746 23.0248 -0.0003 0.0000 -0.0001
# 3 29.4356 23.0248 76.7927 -0.0009 0.0002 -0.0005
# 4 0.0003 -0.0003 -0.0009 23.0345 -0.0001 -0.0002
# 5 0.0000 0.0000 0.0002 -0.0001 29.7883 0.0000
# 6 0.0001 -0.0001 -0.0005 -0.0002 0.0000 18.6148
#
#
#
# Elastic Compliance Matrix: (Units=1/GPa)
#
#
# Indices 1 2 3 4 5 6 
#
# 1 0.009171 -0.006868 -0.001456 0.000000 0.000000 0.000000
# 2 -0.006868 0.021384 -0.003779 0.000000 0.000000 0.000000
# 3 -0.001456 -0.003779 0.014713 0.000001 0.000000 0.000000
# 4 0.000000 0.000000 0.000001 0.043413 0.000000 0.000000
# 5 0.000000 0.000000 0.000000 0.000000 0.033570 0.000000
# 6 0.000000 0.000000 0.000000 0.000000 0.000000 0.053721
#
#
# Mechanical properties :
#
#
# Convention : Reuss Voigt Hill
#
# Bulk Modulus (GPa) = 47.47795 57.21304 52.34549
# Shear Modulus (GPa) = 24.13140 27.13623 25.63382
#
# Velocity S-wave (km/s) = 3.40429 3.61002 3.50867
# Velocity P-wave (km/s) = 6.18496 6.69725 6.44620
#
# Compressibility (1/GPa) = 0.02106241
#
# Stress axis : x y z
#
# Youngs Moduli (GPa) = 109.04507 46.76296 67.96563
#
# Poissons Ratio (x) = 0.32115 0.09896
# Poissons Ratio (y) = 0.74888 0.25686
# Poissons Ratio (z) = 0.15877 0.17673
#
# Static dielectric constant tensor:
#      x y z
#    x 4.506670 0.000000 0.000000 
#    y 0.000000 3.521890 0.000000 
#    z 0.000000 0.000000 3.316000 
# 
# 
# High freq. dielectric constant tensor:
#      x y z
#    x 1.832890 0.000000 0.000000 
#    y 0.000000 1.793800 0.000000 
#    z 0.000000 0.000000 1.812530 
# 
# From -- ./inp_files/20693.got.cif
#   From: 2010.03.12/outbox.cif.g09.slc.cpg/sg72_11_cif.got.tgz:20693.got - 2010.04.16 14:54:00.
