data_PCOD8294169
_publ_section_title
;
Structure prediction by ZEFSAII (Michael W. Deem and Ramdas Pophale) SiO2 
 PCOD8294169
Probable space group: I B A M
;
_chemical_formula_sum "Si O2"
_cell_formula_units_Z 116
_cell_length_a 30.793374
_cell_length_b 21.795510
_cell_length_c 8.825678
_cell_angle_alpha 90.000000
_cell_angle_beta 90.000000
_cell_angle_gamma 90.000000
_cell_volume 5923.418137
_symmetry_space_group_name_H-M "I B A M"
_symmetry_group_IT_number 72
_symmetry_cell_setting 'orthorhombic'
loop_
_space_group_symop_operation_xyz
x,y,z
-x,-y,z
x,-y,1/2-z
-x,y,1/2-z
-x,-y,-z
x,y,-z
-x,y,1/2+z
x,-y,1/2+z
1/2+x,1/2+y,1/2+z
1/2-x,1/2-y,1/2+z
1/2+x,1/2-y,-z
1/2-x,1/2+y,-z
1/2-x,1/2-y,1/2-z
1/2+x,1/2+y,1/2-z
1/2-x,1/2+y,z
1/2+x,1/2-y,z
loop_
_atom_site_type_symbol
_atom_site_label
_atom_site_fract_x
_atom_site_fract_y
_atom_site_fract_z
Si Si1 0.284157 0.834944 0.823901
Si Si2 0.500000 0.000000 0.250000
Si Si3 0.456279 0.219537 0.821615
Si Si4 0.391073 0.326349 0.175655
Si Si5 0.658058 0.061877 0.679095
Si Si6 0.430639 0.093684 0.331298
Si Si7 0.697720 0.695111 0.324399
Si Si8 0.545745 0.436754 0.321769
O O1 0.313775 0.880357 0.728493
O O2 0.301707 0.767228 0.787656
O O3 0.234399 0.840376 0.770762
O O4 0.287308 0.851628 0.000000
O O5 0.468935 0.043722 0.349235
O O6 0.500000 0.248020 0.750000
O O7 0.416634 0.264393 0.782852
O O8 0.448266 0.153893 0.749087
O O9 0.462781 0.212129 0.000000
O O10 0.348503 0.331625 0.277337
O O11 0.419992 0.384536 0.217915
O O12 0.377744 0.326287 0.000000
O O13 0.658425 0.056505 0.500000
O O14 0.608696 0.067630 0.733353
O O15 0.678446 0.000000 0.750000
O O16 0.414066 0.109984 0.500000
O O17 0.706572 0.682411 0.500000
O O18 0.562988 0.500000 0.250000
O O19 0.500000 0.417531 0.250000
O O20 0.539409 0.445026 0.500000
#
# Coordination Sequence:
#
# PCOD8294169 Si02
#       8
#    16   4  16  16  16  16  16  16
#     4  10  21  40  64  89 119 152 191 238 292 353
#     4  12  26  40  64  82 118 160 208 252 294 348
#     4  11  23  38  57  83 118 157 200 249 300 350
#     4  10  22  38  57  85 120 156 192 239 296 353
#     4  12  25  41  62  88 119 154 198 245 294 349
#     4  12  25  41  61  85 117 158 208 253 299 350
#     4  10  21  37  62  92 118 149 190 239 294 351
#     4  10  20  36  58  84 115 153 196 236 283 342
#
# _framework density 19.583289000000001
#
# number of rings (size 3 to 8) (size 9 to 14) (size 15 to 20)
#    0.000    1.241    1.379    5.172    0.000    7.172 
#    0.000    0.690    0.000    1.655    0.000    0.000 
#    0.000    0.000    0.000    0.000    0.000    0.000 
#
# Total GULP energy -719459.570135 kJ/mol
# GULP energy per Si atom -12404.475347 kJ/mol
# Density = 1.953872 g / cm^3
# Si number density = 19.583289 Si / 1000 Ang^3
#
#
#
# Elastic Constant Matrix: (Units=GPa)
#
#
# Indices 1 2 3 4 5 6 
#
# 1 118.2470 58.0611 53.9934 0.0000 0.0000 0.0000
# 2 58.0611 95.8024 46.7307 0.0000 0.0000 0.0000
# 3 53.9934 46.7307 129.6971 0.0000 0.0000 0.0000
# 4 0.0000 0.0000 0.0000 26.8419 0.0000 0.0000
# 5 0.0000 0.0000 0.0000 0.0000 35.6177 0.0000
# 6 0.0000 0.0000 0.0000 0.0000 0.0000 20.4182
#
#
#
# Elastic Compliance Matrix: (Units=1/GPa)
#
#
# Indices 1 2 3 4 5 6 
#
# 1 0.013005 -0.006358 -0.003123 0.000000 0.000000 0.000000
# 2 -0.006358 0.015772 -0.003036 0.000000 0.000000 0.000000
# 3 -0.003123 -0.003036 0.010104 0.000000 0.000000 0.000000
# 4 0.000000 0.000000 0.000000 0.037255 0.000000 0.000000
# 5 0.000000 0.000000 0.000000 0.000000 0.028076 0.000000
# 6 0.000000 0.000000 0.000000 0.000000 0.000000 0.048976
#
#
# Mechanical properties :
#
#
# Convention : Reuss Voigt Hill
#
# Bulk Modulus (GPa) = 72.21729 73.47967 72.84848
# Shear Modulus (GPa) = 27.34647 28.90632 28.12639
#
# Velocity S-wave (km/s) = 3.74092 3.84613 3.79389
# Velocity P-wave (km/s) = 7.45764 7.57144 7.51476
#
# Compressibility (1/GPa) = 0.01384710
#
# Stress axis : x y z
#
# Youngs Moduli (GPa) = 76.89393 63.40162 98.96784
#
# Poissons Ratio (x) = 0.40312 0.30908
# Poissons Ratio (y) = 0.48891 0.30046
# Poissons Ratio (z) = 0.24015 0.19248
#
# Static dielectric constant tensor:
#      x y z
#    x 3.563510 0.000000 0.000000 
#    y 0.000000 3.648950 0.000000 
#    z 0.000000 0.000000 3.615970 
# 
# 
# High freq. dielectric constant tensor:
#      x y z
#    x 1.764210 0.000000 0.000000 
#    y 0.000000 1.763120 0.000000 
#    z 0.000000 0.000000 1.775980 
# 
# From -- ./inp_files/8450.got.cif
#   From: 2010.03.12/outbox.cif.g09.slc.cpg/sg72_5_cif.got.tgz:8450.got - 2010.04.16 14:54:00.
