data_PCOD8294652
_publ_section_title
;
Structure prediction by ZEFSAII (Michael W. Deem and Ramdas Pophale) SiO2 
 PCOD8294652
Probable space group: I B A M
;
_chemical_formula_sum "Si O2"
_cell_formula_units_Z 80
_cell_length_a 15.232072
_cell_length_b 14.910057
_cell_length_c 17.984637
_cell_angle_alpha 90.000000
_cell_angle_beta 90.000000
_cell_angle_gamma 90.000000
_cell_volume 4084.510004
_symmetry_space_group_name_H-M "I B A M"
_symmetry_group_IT_number 72
_symmetry_cell_setting 'orthorhombic'
loop_
_space_group_symop_operation_xyz
x,y,z
-x,-y,z
x,-y,1/2-z
-x,y,1/2-z
-x,-y,-z
x,y,-z
-x,y,1/2+z
x,-y,1/2+z
1/2+x,1/2+y,1/2+z
1/2-x,1/2-y,1/2+z
1/2+x,1/2-y,-z
1/2-x,1/2+y,-z
1/2-x,1/2-y,1/2-z
1/2+x,1/2+y,1/2-z
1/2-x,1/2+y,z
1/2+x,1/2-y,z
loop_
_atom_site_type_symbol
_atom_site_label
_atom_site_fract_x
_atom_site_fract_y
_atom_site_fract_z
Si Si1 0.817257 0.191938 0.845129
Si Si2 0.236098 0.014369 0.413518
Si Si3 0.072042 0.433594 0.912253
Si Si4 0.008176 0.261102 0.166426
Si Si5 0.321325 0.658500 0.174049
O O1 0.812234 0.109023 0.901680
O O2 0.742483 0.266260 0.862304
O O3 0.803625 0.154004 0.762104
O O4 0.912003 0.234920 0.861926
O O5 0.229966 0.987039 0.500000
O O6 0.335222 0.028314 0.385394
O O7 0.194642 0.936969 0.363439
O O8 0.053205 0.335292 0.883563
O O9 0.000000 0.500000 0.878587
O O10 0.068304 0.429138 0.000000
O O11 0.075489 0.177926 0.162030
O O12 0.000000 0.297979 0.250000
#
# Coordination Sequence:
#
# PCOD8294652 Si02
#       5
#    16  16  16  16  16
#     4  10  21  39  61  86 120 155 200 249 298 352
#     4  11  23  38  60  88 120 161 202 241 298 362
#     4  10  21  38  57  85 121 153 195 250 301 352
#     4  10  21  38  61  89 115 154 200 246 299 353
#     4  10  21  39  60  86 122 157 197 251 299 347
#
# _framework density 19.586190999999999
#
# number of rings (size 3 to 8) (size 9 to 14) (size 15 to 20)
#    0.000    1.800    2.000    1.800    0.000    3.600 
#    3.600    4.000    0.000    0.000    0.000    0.000 
#    0.000    0.000    0.000    0.000    0.000    0.000 
#
# Total GULP energy -496057.803315 kJ/mol
# GULP energy per Si atom -12401.445083 kJ/mol
# Density = 1.954161 g / cm^3
# Si number density = 19.586191 Si / 1000 Ang^3
#
#
#
# Elastic Constant Matrix: (Units=GPa)
#
#
# Indices 1 2 3 4 5 6 
#
# 1 106.5647 14.0608 18.5304 0.0000 0.0000 0.0000
# 2 14.0608 75.9236 20.8959 0.0000 0.0000 0.0000
# 3 18.5304 20.8959 21.6778 0.0000 0.0000 0.0000
# 4 0.0000 0.0000 0.0000 29.0090 0.0000 0.0000
# 5 0.0000 0.0000 0.0000 0.0000 25.2977 0.0000
# 6 0.0000 0.0000 0.0000 0.0000 0.0000 147.5064
#
#
#
# Elastic Compliance Matrix: (Units=1/GPa)
#
#
# Indices 1 2 3 4 5 6 
#
# 1 0.011054 0.000753 -0.010175 0.000000 0.000000 0.000000
# 2 0.000753 0.017978 -0.017974 0.000000 0.000000 0.000000
# 3 -0.010175 -0.017974 0.072153 0.000000 0.000000 0.000000
# 4 0.000000 0.000000 0.000000 0.034472 0.000000 0.000000
# 5 0.000000 0.000000 0.000000 0.000000 0.039529 0.000000
# 6 0.000000 0.000000 0.000000 0.000000 0.000000 0.006779
#
#
# Mechanical properties :
#
#
# Convention : Reuss Voigt Hill
#
# Bulk Modulus (GPa) = 21.55430 34.57113 28.06271
# Shear Modulus (GPa) = 19.82374 50.40787 35.11581
#
# Velocity S-wave (km/s) = 3.18485 5.07861 4.23884
# Velocity P-wave (km/s) = 4.95511 7.21657 6.18999
#
# Compressibility (1/GPa) = 0.04639445
#
# Stress axis : x y z
#
# Youngs Moduli (GPa) = 90.46560 55.62223 13.85935
#
# Poissons Ratio (x) = -0.04190 0.14102
# Poissons Ratio (y) = -0.06815 0.24911
# Poissons Ratio (z) = 0.92050 0.99974
#
# Static dielectric constant tensor:
#      x y z
#    x 3.889520 0.000000 0.000000 
#    y 0.000000 3.418440 0.000000 
#    z 0.000000 0.000000 3.401420 
# 
# 
# High freq. dielectric constant tensor:
#      x y z
#    x 1.778930 0.000000 0.000000 
#    y 0.000000 1.761530 0.000000 
#    z 0.000000 0.000000 1.750780 
# 
# From -- ./inp_files/37848.got.cif
#   From: 2010.03.12/outbox.cif.g09.slc.cpg/sg72_19_cif.got.tgz:37848.got - 2010.04.16 14:54:00.
