data_PCOD8294567
_publ_section_title
;
Structure prediction by ZEFSAII (Michael W. Deem and Ramdas Pophale) SiO2 
 PCOD8294567
Probable space group: I B A M
;
_chemical_formula_sum "Si O2"
_cell_formula_units_Z 96
_cell_length_a 26.692823
_cell_length_b 19.231609
_cell_length_c 10.185184
_cell_angle_alpha 90.000000
_cell_angle_beta 90.000000
_cell_angle_gamma 90.000000
_cell_volume 5228.522804
_symmetry_space_group_name_H-M "I B A M"
_symmetry_group_IT_number 72
_symmetry_cell_setting 'orthorhombic'
loop_
_space_group_symop_operation_xyz
x,y,z
-x,-y,z
x,-y,1/2-z
-x,y,1/2-z
-x,-y,-z
x,y,-z
-x,y,1/2+z
x,-y,1/2+z
1/2+x,1/2+y,1/2+z
1/2-x,1/2-y,1/2+z
1/2+x,1/2-y,-z
1/2-x,1/2+y,-z
1/2-x,1/2-y,1/2-z
1/2+x,1/2+y,1/2-z
1/2-x,1/2+y,z
1/2+x,1/2-y,z
loop_
_atom_site_type_symbol
_atom_site_label
_atom_site_fract_x
_atom_site_fract_y
_atom_site_fract_z
Si Si1 0.227483 0.654566 0.148700
Si Si2 0.691578 0.689961 0.848866
Si Si3 0.447399 0.540934 0.360078
Si Si4 0.420089 0.690274 0.651773
Si Si5 0.957949 0.664384 0.652430
Si Si6 0.633613 0.938728 0.851101
O O1 0.271771 0.646218 0.254481
O O2 0.200681 0.728337 0.165464
O O3 0.187311 0.594948 0.179258
O O4 0.248512 0.647258 0.000000
O O5 0.635680 0.675407 0.794287
O O6 0.699186 0.665434 0.000000
O O7 0.500000 0.500000 0.369524
O O8 0.414883 0.500000 0.250000
O O9 0.419223 0.536607 0.500000
O O10 0.454343 0.621976 0.322269
O O11 0.413345 0.708509 0.500000
O O12 0.446195 0.758463 0.711343
O O13 0.976458 0.665072 0.500000
O O14 0.908434 0.619287 0.667549
O O15 0.000000 0.633000 0.750000
O O16 0.622989 0.000000 0.750000
O O17 0.632053 0.967861 0.000000
#
# Coordination Sequence:
#
# PCOD8294567 Si02
#       6
#    16  16  16  16  16  16
#     4   9  17  32  53  80 108 135 171 220 271 318
#     4   9  16  30  55  80 105 139 176 216 264 319
#     4   9  18  31  48  71  99 134 174 212 253 303
#     4   9  17  33  55  77 107 145 181 219 267 321
#     4  10  21  37  56  80 108 141 183 229 275 326
#     4  10  21  38  58  79 110 147 183 226 278 334
#
# _framework density 18.360825999999999
#
# number of rings (size 3 to 8) (size 9 to 14) (size 15 to 20)
#    0.000    2.667    1.667    0.000    2.333    1.667 
#    0.000    4.167    0.000    4.000    0.000    0.000 
#    0.000    0.000    0.000    0.000    0.000    0.000 
#
# Total GULP energy -594759.351446 kJ/mol
# GULP energy per Si atom -12390.819822 kJ/mol
# Density = 1.831904 g / cm^3
# Si number density = 18.360826 Si / 1000 Ang^3
#
#
#
# Elastic Constant Matrix: (Units=GPa)
#
#
# Indices 1 2 3 4 5 6 
#
# 1 81.3282 20.0905 34.8139 0.0000 0.0000 0.0000
# 2 20.0905 89.5630 43.6086 0.0000 0.0000 0.0000
# 3 34.8139 43.6086 102.8995 0.0000 0.0000 0.0000
# 4 0.0000 0.0000 0.0000 27.6841 0.0000 0.0000
# 5 0.0000 0.0000 0.0000 0.0000 24.2395 0.0000
# 6 0.0000 0.0000 0.0000 0.0000 0.0000 20.7476
#
#
#
# Elastic Compliance Matrix: (Units=1/GPa)
#
#
# Indices 1 2 3 4 5 6 
#
# 1 0.014462 -0.001086 -0.004433 0.000000 0.000000 0.000000
# 2 -0.001086 0.014150 -0.005629 0.000000 0.000000 0.000000
# 3 -0.004433 -0.005629 0.013604 0.000000 0.000000 0.000000
# 4 0.000000 0.000000 0.000000 0.036122 0.000000 0.000000
# 5 0.000000 0.000000 0.000000 0.000000 0.041255 0.000000
# 6 0.000000 0.000000 0.000000 0.000000 0.000000 0.048198
#
#
# Mechanical properties :
#
#
# Convention : Reuss Voigt Hill
#
# Bulk Modulus (GPa) = 50.20181 52.31297 51.25739
# Shear Modulus (GPa) = 25.41615 26.21943 25.81779
#
# Velocity S-wave (km/s) = 3.72460 3.78300 3.75391
# Velocity P-wave (km/s) = 6.77481 6.90181 6.83860
#
# Compressibility (1/GPa) = 0.01991960
#
# Stress axis : x y z
#
# Youngs Moduli (GPa) = 69.14904 70.67235 73.50983
#
# Poissons Ratio (x) = 0.07673 0.32584
# Poissons Ratio (y) = 0.07507 0.41381
# Poissons Ratio (z) = 0.30651 0.39784
#
# Static dielectric constant tensor:
#      x y z
#    x 3.235820 0.000000 0.000000 
#    y 0.000000 3.280300 0.000000 
#    z 0.000000 0.000000 5.084530 
# 
# 
# High freq. dielectric constant tensor:
#      x y z
#    x 1.694950 0.000000 0.000000 
#    y 0.000000 1.703360 0.000000 
#    z 0.000000 0.000000 1.709430 
# 
# From -- ./inp_files/15525.got.cif
#   From: 2010.03.12/outbox.cif.g09.slc.cpg/sg72_8_cif.got.tgz:15525.got - 2010.04.16 14:54:00.
