data_PCOD8294301
_publ_section_title
;
Structure prediction by ZEFSAII (Michael W. Deem and Ramdas Pophale) SiO2 
 PCOD8294301
Probable space group: I B A M
;
_chemical_formula_sum "Si O2"
_cell_formula_units_Z 64
_cell_length_a 15.261969
_cell_length_b 10.225938
_cell_length_c 21.041510
_cell_angle_alpha 90.000000
_cell_angle_beta 90.000000
_cell_angle_gamma 90.000000
_cell_volume 3283.905304
_symmetry_space_group_name_H-M "I B A M"
_symmetry_group_IT_number 72
_symmetry_cell_setting 'orthorhombic'
loop_
_space_group_symop_operation_xyz
x,y,z
-x,-y,z
x,-y,1/2-z
-x,y,1/2-z
-x,-y,-z
x,y,-z
-x,y,1/2+z
x,-y,1/2+z
1/2+x,1/2+y,1/2+z
1/2-x,1/2-y,1/2+z
1/2+x,1/2-y,-z
1/2-x,1/2+y,-z
1/2-x,1/2-y,1/2-z
1/2+x,1/2+y,1/2-z
1/2-x,1/2+y,z
1/2+x,1/2-y,z
loop_
_atom_site_type_symbol
_atom_site_label
_atom_site_fract_x
_atom_site_fract_y
_atom_site_fract_z
Si Si1 0.820765 0.512814 0.680713
Si Si2 0.710685 0.707168 0.865761
Si Si3 0.527651 0.641782 0.074108
Si Si4 0.379839 0.148671 0.571891
O O1 0.866759 0.500000 0.750000
O O2 0.737356 0.413503 0.680191
O O3 0.785780 0.658507 0.672612
O O4 0.887030 0.471159 0.622889
O O5 0.614166 0.688236 0.891398
O O6 0.783004 0.714056 0.922628
O O7 0.500000 0.500000 0.100298
O O8 0.451051 0.743328 0.089847
O O9 0.547881 0.633585 0.000000
O O10 0.393364 0.095333 0.500000
#
# Coordination Sequence:
#
# PCOD8294301 Si02
#       4
#    16  16  16  16
#     4  10  22  40  64  85 126 165 206 252 311 370
#     4  10  21  38  64  85 122 161 206 250 316 360
#     4  10  20  37  61  92 126 160 203 258 312 370
#     4   9  21  36  60  92 122 156 208 253 304 371
#
# _framework density 19.488990000000001
#
# number of rings (size 3 to 8) (size 9 to 14) (size 15 to 20)
#    1.500    0.750    0.000    3.000    0.000    3.000 
#    0.000    5.000    0.000    0.000    0.000    0.000 
#    0.000    0.000    0.000    0.000    0.000    0.000 
#
# Total GULP energy -396515.470387 kJ/mol
# GULP energy per Si atom -12391.108450 kJ/mol
# Density = 1.944463 g / cm^3
# Si number density = 19.488990 Si / 1000 Ang^3
#
#
#
# Elastic Constant Matrix: (Units=GPa)
#
#
# Indices 1 2 3 4 5 6 
#
# 1 101.7980 41.9341 43.2433 0.0000 0.0000 0.0000
# 2 41.9341 136.4716 40.8430 0.0000 0.0000 0.0000
# 3 43.2433 40.8430 104.5514 0.0000 0.0000 0.0000
# 4 0.0000 0.0000 0.0000 15.6550 0.0000 0.0000
# 5 0.0000 0.0000 0.0000 0.0000 12.0155 0.0000
# 6 0.0000 0.0000 0.0000 0.0000 0.0000 32.4694
#
#
#
# Elastic Compliance Matrix: (Units=1/GPa)
#
#
# Indices 1 2 3 4 5 6 
#
# 1 0.012705 -0.002640 -0.004224 0.000000 0.000000 0.000000
# 2 -0.002640 0.008846 -0.002364 0.000000 0.000000 0.000000
# 3 -0.004224 -0.002364 0.012235 0.000000 0.000000 0.000000
# 4 0.000000 0.000000 0.000000 0.063878 0.000000 0.000000
# 5 0.000000 0.000000 0.000000 0.000000 0.083226 0.000000
# 6 0.000000 0.000000 0.000000 0.000000 0.000000 0.030798
#
#
# Mechanical properties :
#
#
# Convention : Reuss Voigt Hill
#
# Bulk Modulus (GPa) = 65.22539 66.09577 65.66058
# Shear Modulus (GPa) = 21.25373 26.48136 23.86754
#
# Velocity S-wave (km/s) = 3.30593 3.69017 3.50332
# Velocity P-wave (km/s) = 6.93633 7.22112 7.08016
#
# Compressibility (1/GPa) = 0.01533145
#
# Stress axis : x y z
#
# Youngs Moduli (GPa) = 78.70909 113.04352 81.73241
#
# Poissons Ratio (x) = 0.29842 0.34521
# Poissons Ratio (y) = 0.20778 0.19321
# Poissons Ratio (z) = 0.33244 0.26722
#
# Static dielectric constant tensor:
#      x y z
#    x 3.308180 0.000000 0.000000 
#    y 0.000000 3.601480 0.000000 
#    z 0.000000 0.000000 3.385240 
# 
# 
# High freq. dielectric constant tensor:
#      x y z
#    x 1.746080 0.000000 0.000000 
#    y 0.000000 1.767450 0.000000 
#    z 0.000000 0.000000 1.744770 
# 
# From -- ./inp_files/43923.got.cif
#   From: 2010.03.12/outbox.cif.g09.slc.cpg/sg72_22_cif.got.tgz:43923.got - 2010.04.16 14:54:00.
