data_PCOD8294164
_publ_section_title
;
Structure prediction by ZEFSAII (Michael W. Deem and Ramdas Pophale) SiO2 
 PCOD8294164
Probable space group: I B A M
;
_chemical_formula_sum "Si O2"
_cell_formula_units_Z 80
_cell_length_a 9.131092
_cell_length_b 14.572058
_cell_length_c 30.543447
_cell_angle_alpha 90.000000
_cell_angle_beta 90.000000
_cell_angle_gamma 90.000000
_cell_volume 4064.074474
_symmetry_space_group_name_H-M "I B A M"
_symmetry_group_IT_number 72
_symmetry_cell_setting 'orthorhombic'
loop_
_space_group_symop_operation_xyz
x,y,z
-x,-y,z
x,-y,1/2-z
-x,y,1/2-z
-x,-y,-z
x,y,-z
-x,y,1/2+z
x,-y,1/2+z
1/2+x,1/2+y,1/2+z
1/2-x,1/2-y,1/2+z
1/2+x,1/2-y,-z
1/2-x,1/2+y,-z
1/2-x,1/2-y,1/2-z
1/2+x,1/2+y,1/2-z
1/2-x,1/2+y,z
1/2+x,1/2-y,z
loop_
_atom_site_type_symbol
_atom_site_label
_atom_site_fract_x
_atom_site_fract_y
_atom_site_fract_z
Si Si1 0.962593 0.678209 0.798415
Si Si2 0.632080 0.144827 0.379395
Si Si3 0.919215 0.595968 0.951677
Si Si4 0.156139 0.821908 0.834820
Si Si5 0.658269 0.521650 0.900475
O O1 0.789147 0.669836 0.801215
O O2 0.000000 0.643751 0.750000
O O3 0.041931 0.614406 0.835395
O O4 0.016174 0.783999 0.807346
O O5 0.515369 0.157165 0.418838
O O6 0.700900 0.246011 0.372077
O O7 0.759306 0.072472 0.388703
O O8 0.754538 0.581321 0.934023
O O9 0.000000 0.500000 0.954896
O O10 0.910829 0.641855 0.000000
O O11 0.124758 0.919875 0.856657
O O12 0.500000 0.500000 0.922065
#
# Coordination Sequence:
#
# PCOD8294164 Si02
#       5
#    16  16  16  16  16
#     4  10  20  36  61  80 114 154 198 235 292 342
#     4   9  21  36  60  82 115 157 192 230 288 351
#     4   9  18  36  59  81 111 152 190 230 283 342
#     4  10  20  36  58  82 117 155 188 241 288 345
#     4  11  20  35  59  86 118 152 193 241 290 338
#
# _framework density 19.684678000000002
#
# number of rings (size 3 to 8) (size 9 to 14) (size 15 to 20)
#    1.200    1.000    2.000    1.800    0.000    0.400 
#    0.000    3.000    0.000    2.400    0.000    0.000 
#    0.000    0.000    0.000    0.000    0.000    0.000 
#
# Total GULP energy -495613.440648 kJ/mol
# GULP energy per Si atom -12390.336016 kJ/mol
# Density = 1.963987 g / cm^3
# Si number density = 19.684678 Si / 1000 Ang^3
#
#
#
# Elastic Constant Matrix: (Units=GPa)
#
#
# Indices 1 2 3 4 5 6 
#
# 1 101.1298 7.9210 30.8608 0.0000 0.0000 0.0000
# 2 7.9210 46.7509 6.0352 0.0000 0.0000 0.0000
# 3 30.8608 6.0352 124.6091 0.0000 0.0000 0.0000
# 4 0.0000 0.0000 0.0000 15.2146 0.0000 0.0000
# 5 0.0000 0.0000 0.0000 0.0000 22.0062 0.0000
# 6 0.0000 0.0000 0.0000 0.0000 0.0000 21.4777
#
#
#
# Elastic Compliance Matrix: (Units=1/GPa)
#
#
# Indices 1 2 3 4 5 6 
#
# 1 0.010799 -0.001494 -0.002602 0.000000 0.000000 0.000000
# 2 -0.001494 0.021731 -0.000683 0.000000 0.000000 0.000000
# 3 -0.002602 -0.000683 0.008703 0.000000 0.000000 0.000000
# 4 0.000000 0.000000 0.000000 0.065727 0.000000 0.000000
# 5 0.000000 0.000000 0.000000 0.000000 0.045442 0.000000
# 6 0.000000 0.000000 0.000000 0.000000 0.000000 0.046560
#
#
# Mechanical properties :
#
#
# Convention : Reuss Voigt Hill
#
# Bulk Modulus (GPa) = 31.56963 40.23598 35.90281
# Shear Modulus (GPa) = 22.82301 26.91788 24.87044
#
# Velocity S-wave (km/s) = 3.40873 3.70192 3.55835
# Velocity P-wave (km/s) = 5.61828 6.22551 5.92967
#
# Compressibility (1/GPa) = 0.03167601
#
# Stress axis : x y z
#
# Youngs Moduli (GPa) = 92.59783 46.01682 114.90782
#
# Poissons Ratio (x) = 0.06874 0.29902
# Poissons Ratio (y) = 0.13832 0.07843
# Poissons Ratio (z) = 0.24096 0.03141
#
# Static dielectric constant tensor:
#      x y z
#    x 3.551910 0.000000 0.000000 
#    y 0.000000 3.213940 0.000000 
#    z 0.000000 0.000000 3.679920 
# 
# 
# High freq. dielectric constant tensor:
#      x y z
#    x 1.774240 0.000000 0.000000 
#    y 0.000000 1.734470 0.000000 
#    z 0.000000 0.000000 1.752990 
# 
# From -- ./inp_files/48941.got.cif
#   From: 2010.03.12/outbox.cif.g09.slc.cpg/sg72_25_cif.got.tgz:48941.got - 2010.04.16 14:54:00.
