data_PCOD8294510
_publ_section_title
;
Structure prediction by ZEFSAII (Michael W. Deem and Ramdas Pophale) SiO2 
 PCOD8294510
Probable space group: I B A M
;
_chemical_formula_sum "Si O2"
_cell_formula_units_Z 80
_cell_length_a 7.594806
_cell_length_b 27.852764
_cell_length_c 18.209018
_cell_angle_alpha 90.000000
_cell_angle_beta 90.000000
_cell_angle_gamma 90.000000
_cell_volume 3851.869007
_symmetry_space_group_name_H-M "I B A M"
_symmetry_group_IT_number 72
_symmetry_cell_setting 'orthorhombic'
loop_
_space_group_symop_operation_xyz
x,y,z
-x,-y,z
x,-y,1/2-z
-x,y,1/2-z
-x,-y,-z
x,y,-z
-x,y,1/2+z
x,-y,1/2+z
1/2+x,1/2+y,1/2+z
1/2-x,1/2-y,1/2+z
1/2+x,1/2-y,-z
1/2-x,1/2+y,-z
1/2-x,1/2-y,1/2-z
1/2+x,1/2+y,1/2-z
1/2-x,1/2+y,z
1/2+x,1/2-y,z
loop_
_atom_site_type_symbol
_atom_site_label
_atom_site_fract_x
_atom_site_fract_y
_atom_site_fract_z
Si Si1 0.583279 0.401428 0.675136
Si Si2 0.547582 0.945173 0.667643
Si Si3 0.783409 0.779888 0.916686
Si Si4 0.096844 0.793418 0.175607
Si Si5 0.736256 0.113641 0.583530
O O1 0.500000 0.421801 0.750000
O O2 0.745077 0.435615 0.651042
O O3 0.663713 0.347856 0.688265
O O4 0.423166 0.401014 0.618187
O O5 0.500000 0.929823 0.750000
O O6 0.429820 0.914016 0.614324
O O7 0.500000 0.000000 0.652611
O O8 0.747679 0.743479 0.848866
O O9 0.681162 0.830240 0.907607
O O10 0.984648 0.792725 0.899955
O O11 0.764969 0.759227 0.000000
O O12 0.000000 0.775718 0.250000
O O13 0.758781 0.099149 0.500000
#
# Coordination Sequence:
#
# PCOD8294510 Si02
#       5
#    16  16  16  16  16
#     4  10  21  42  65  91 130 170 210 261 323 379
#     4  11  24  42  68  98 121 162 216 266 317 384
#     4  10  21  37  56  86 125 163 207 254 309 371
#     4  10  21  35  57  89 119 166 211 255 304 368
#     4  10  23  42  63  93 132 168 209 265 319 377
#
# _framework density 20.769137000000001
#
# number of rings (size 3 to 8) (size 9 to 14) (size 15 to 20)
#    0.000    1.800    2.000    1.200    2.800    3.600 
#    0.000    1.000    0.000    0.000    0.000    0.000 
#    0.000    0.000    0.000    0.000    0.000    0.000 
#
# Total GULP energy -495641.813592 kJ/mol
# GULP energy per Si atom -12391.045340 kJ/mol
# Density = 2.072187 g / cm^3
# Si number density = 20.769137 Si / 1000 Ang^3
#
#
#
# Elastic Constant Matrix: (Units=GPa)
#
#
# Indices 1 2 3 4 5 6 
#
# 1 109.5004 44.9503 24.2194 -0.0003 0.0000 0.0000
# 2 44.9503 77.8230 29.8094 -0.0004 0.0000 0.0000
# 3 24.2194 29.8094 87.2942 -0.0025 -0.0001 0.0001
# 4 -0.0003 -0.0004 -0.0025 -60.0707 -0.0002 -0.0003
# 5 0.0000 0.0000 -0.0001 -0.0002 33.2763 0.0000
# 6 0.0000 0.0000 0.0001 -0.0003 0.0000 34.0521
#
#
#
# Elastic Compliance Matrix: (Units=1/GPa)
#
#
# Indices 1 2 3 4 5 6 
#
# 1 0.012064 -0.006542 -0.001113 0.000000 0.000000 0.000000
# 2 -0.006542 0.018331 -0.004445 0.000000 0.000000 0.000000
# 3 -0.001113 -0.004445 0.013282 -0.000001 0.000000 0.000000
# 4 0.000000 0.000000 -0.000001 -0.016647 0.000000 0.000000
# 5 0.000000 0.000000 0.000000 0.000000 0.030051 0.000000
# 6 0.000000 0.000000 0.000000 0.000000 0.000000 0.029367
#
#
# Mechanical properties :
#
#
# Convention : Reuss Voigt Hill
#
# Bulk Modulus (GPa) = 51.34089 52.50841 51.92465
# Shear Modulus (GPa) = 42.68415 13.16078 27.92246
#
# Velocity S-wave (km/s) = 4.53832 2.52001 3.67061
# Velocity P-wave (km/s) = 7.22740 5.81413 6.55894
#
# Compressibility (1/GPa) = 0.01947765
#
# Stress axis : x y z
#
# Youngs Moduli (GPa) = 82.89115 54.55358 75.28922
#
# Poissons Ratio (x) = 0.35687 0.08381
# Poissons Ratio (y) = 0.54225 0.33463
# Poissons Ratio (z) = 0.09228 0.24247
#
# Static dielectric constant tensor:
#      x y z
#    x 3.612290 0.000000 0.000000 
#    y 0.000000 3.890180 0.000000 
#    z 0.000000 0.000000 3.715620 
# 
# 
# High freq. dielectric constant tensor:
#      x y z
#    x 1.805770 0.000000 0.000000 
#    y 0.000000 1.803270 0.000000 
#    z 0.000000 0.000000 1.819390 
# 
# From -- ./inp_files/28169.got.cif
#   From: 2010.03.12/outbox.cif.g09.slc.cpg/sg72_15_cif.got.tgz:28169.got - 2010.04.16 14:54:00.
