data_PCOD8294138
_publ_section_title
;
Structure prediction by ZEFSAII (Michael W. Deem and Ramdas Pophale) SiO2 
 PCOD8294138
Probable space group: I B A M
;
_chemical_formula_sum "Si O2"
_cell_formula_units_Z 88
_cell_length_a 29.900009
_cell_length_b 16.189467
_cell_length_c 9.416219
_cell_angle_alpha 90.000000
_cell_angle_beta 90.000000
_cell_angle_gamma 90.000000
_cell_volume 4558.064018
_symmetry_space_group_name_H-M "I B A M"
_symmetry_group_IT_number 72
_symmetry_cell_setting 'orthorhombic'
loop_
_space_group_symop_operation_xyz
x,y,z
-x,-y,z
x,-y,1/2-z
-x,y,1/2-z
-x,-y,-z
x,y,-z
-x,y,1/2+z
x,-y,1/2+z
1/2+x,1/2+y,1/2+z
1/2-x,1/2-y,1/2+z
1/2+x,1/2-y,-z
1/2-x,1/2+y,-z
1/2-x,1/2-y,1/2-z
1/2+x,1/2+y,1/2-z
1/2-x,1/2+y,z
1/2+x,1/2-y,z
loop_
_atom_site_type_symbol
_atom_site_label
_atom_site_fract_x
_atom_site_fract_y
_atom_site_fract_z
Si Si1 0.246201 0.336012 0.668138
Si Si2 0.456258 0.357584 0.661334
Si Si3 0.394278 0.500000 0.750000
Si Si4 0.175587 0.122588 0.654561
Si Si5 0.395411 0.243582 0.838289
Si Si6 0.846588 0.581354 0.664357
O O1 0.249620 0.321655 0.500000
O O2 0.250000 0.250000 0.750000
O O3 0.287649 0.392575 0.722824
O O4 0.201209 0.382813 0.712341
O O5 0.500000 0.380533 0.750000
O O6 0.469033 0.335296 0.500000
O O7 0.424466 0.437665 0.658772
O O8 0.432596 0.278006 0.731146
O O9 0.362456 0.447373 0.852520
O O10 0.199236 0.124311 0.500000
O O11 0.151911 0.210456 0.682690
O O12 0.385781 0.147754 0.805105
O O13 0.412512 0.255998 0.000000
O O14 0.859035 0.500000 0.750000
O O15 0.844832 0.557845 0.500000
#
# Coordination Sequence:
#
# PCOD8294138 Si02
#       6
#    16  16   8  16  16  16
#     4  11  22  37  55  79 111 151 199 247 293 343
#     4  11  23  39  62  91 119 153 195 238 290 355
#     4  10  23  38  56  86 122 160 202 240 285 346
#     4  10  20  36  55  77 112 156 197 243 292 337
#     4   9  19  39  60  80 112 150 188 236 293 348
#     4  10  22  39  57  83 115 152 196 245 298 350
#
# _framework density 19.306443000000002
#
# number of rings (size 3 to 8) (size 9 to 14) (size 15 to 20)
#    0.000    1.818    1.818    1.909    1.273    8.727 
#    0.000    0.000    0.000    0.545    0.000    3.818 
#    0.000    0.000    0.000    0.000    0.000    0.000 
#
# Total GULP energy -545592.902879 kJ/mol
# GULP energy per Si atom -12399.838702 kJ/mol
# Density = 1.926250 g / cm^3
# Si number density = 19.306443 Si / 1000 Ang^3
#
#
#
# Elastic Constant Matrix: (Units=GPa)
#
#
# Indices 1 2 3 4 5 6 
#
# 1 78.2576 36.7525 41.8993 0.0000 0.0000 0.0000
# 2 36.7525 118.1622 43.0040 0.0000 0.0000 0.0000
# 3 41.8993 43.0040 108.5990 0.0000 0.0000 0.0000
# 4 0.0000 0.0000 0.0000 25.3733 0.0000 0.0000
# 5 0.0000 0.0000 0.0000 0.0000 31.8113 0.0000
# 6 0.0000 0.0000 0.0000 0.0000 0.0000 18.1426
#
#
#
# Elastic Compliance Matrix: (Units=1/GPa)
#
#
# Indices 1 2 3 4 5 6 
#
# 1 0.017220 -0.003433 -0.005284 0.000000 0.000000 0.000000
# 2 -0.003433 0.010572 -0.002862 0.000000 0.000000 0.000000
# 3 -0.005284 -0.002862 0.012380 0.000000 0.000000 0.000000
# 4 0.000000 0.000000 0.000000 0.039412 0.000000 0.000000
# 5 0.000000 0.000000 0.000000 0.000000 0.031435 0.000000
# 6 0.000000 0.000000 0.000000 0.000000 0.000000 0.055119
#
#
# Mechanical properties :
#
#
# Convention : Reuss Voigt Hill
#
# Bulk Modulus (GPa) = 58.77519 60.92561 59.85040
# Shear Modulus (GPa) = 25.64529 27.28964 26.46746
#
# Velocity S-wave (km/s) = 3.64858 3.76373 3.70660
# Velocity P-wave (km/s) = 6.94686 7.10727 7.02752
#
# Compressibility (1/GPa) = 0.01701398
#
# Stress axis : x y z
#
# Youngs Moduli (GPa) = 58.07316 94.58703 80.77337
#
# Poissons Ratio (x) = 0.32469 0.42683
# Poissons Ratio (y) = 0.19935 0.23118
# Poissons Ratio (z) = 0.30688 0.27072
#
# Static dielectric constant tensor:
#      x y z
#    x 3.471840 0.000000 0.000000 
#    y 0.000000 3.517770 0.000000 
#    z 0.000000 0.000000 3.472390 
# 
# 
# High freq. dielectric constant tensor:
#      x y z
#    x 1.736770 0.000000 0.000000 
#    y 0.000000 1.746320 0.000000 
#    z 0.000000 0.000000 1.751780 
# 
# From -- ./inp_files/9067.got.cif
#   From: 2010.03.12/outbox.cif.g09.slc.cpg/sg72_5_cif.got.tgz:9067.got - 2010.04.16 14:54:00.
