data_PCOD8294274
_publ_section_title
;
Structure prediction by ZEFSAII (Michael W. Deem and Ramdas Pophale) SiO2 
 PCOD8294274
Probable space group: I B A M
;
_chemical_formula_sum "Si O2"
_cell_formula_units_Z 96
_cell_length_a 19.899283
_cell_length_b 9.954259
_cell_length_c 25.625310
_cell_angle_alpha 90.000000
_cell_angle_beta 90.000000
_cell_angle_gamma 90.000000
_cell_volume 5075.928464
_symmetry_space_group_name_H-M "I B A M"
_symmetry_group_IT_number 72
_symmetry_cell_setting 'orthorhombic'
loop_
_space_group_symop_operation_xyz
x,y,z
-x,-y,z
x,-y,1/2-z
-x,y,1/2-z
-x,-y,-z
x,y,-z
-x,y,1/2+z
x,-y,1/2+z
1/2+x,1/2+y,1/2+z
1/2-x,1/2-y,1/2+z
1/2+x,1/2-y,-z
1/2-x,1/2+y,-z
1/2-x,1/2-y,1/2-z
1/2+x,1/2+y,1/2-z
1/2-x,1/2+y,z
1/2+x,1/2-y,z
loop_
_atom_site_type_symbol
_atom_site_label
_atom_site_fract_x
_atom_site_fract_y
_atom_site_fract_z
Si Si1 0.005519 0.652975 0.139747
Si Si2 0.544217 0.371594 0.560642
Si Si3 0.762132 0.207635 0.383164
Si Si4 0.855231 0.648545 0.692148
Si Si5 0.865835 0.336594 0.691050
Si Si6 0.695988 0.562495 0.060682
O O1 0.009247 0.746407 0.089079
O O2 0.070549 0.683181 0.173715
O O3 0.000000 0.500000 0.119422
O O4 0.943933 0.684161 0.178156
O O5 0.500000 0.500000 0.574385
O O6 0.542227 0.335419 0.500000
O O7 0.620582 0.399604 0.578703
O O8 0.699502 0.217593 0.344119
O O9 0.827618 0.248853 0.351402
O O10 0.745785 0.312234 0.429471
O O11 0.775138 0.062068 0.406901
O O12 0.842916 0.490221 0.688421
O O13 0.849302 0.710810 0.750191
O O14 0.697194 0.524327 0.000000
#
# Coordination Sequence:
#
# PCOD8294274 Si02
#       6
#    16  16  16  16  16  16
#     4  10  20  37  61  87 117 154 197 246 292 350
#     4  10  21  39  60  84 119 159 195 242 306 362
#     4  12  21  40  61  89 119 159 202 250 302 362
#     4  10  20  37  59  87 120 158 198 243 297 350
#     4  10  21  36  60  88 119 156 199 243 296 358
#     4  11  24  40  62  88 120 160 201 254 308 361
#
# _framework density 18.912796
#
# number of rings (size 3 to 8) (size 9 to 14) (size 15 to 20)
#    0.000    1.500    3.333    2.500    0.000    2.333 
#    0.000    0.833    0.000    1.000    0.000    0.000 
#    0.000    0.000    0.000    0.000    0.000    0.000 
#
# Total GULP energy -595276.158765 kJ/mol
# GULP energy per Si atom -12401.586641 kJ/mol
# Density = 1.886975 g / cm^3
# Si number density = 18.912796 Si / 1000 Ang^3
#
#
#
# Elastic Constant Matrix: (Units=GPa)
#
#
# Indices 1 2 3 4 5 6 
#
# 1 82.6697 22.8287 30.4640 0.0000 0.0000 0.0000
# 2 22.8287 71.3783 35.7416 0.0000 0.0000 0.0000
# 3 30.4640 35.7416 87.6391 0.0000 0.0000 0.0000
# 4 0.0000 0.0000 0.0000 16.2213 0.0000 0.0000
# 5 0.0000 0.0000 0.0000 0.0000 32.8177 0.0000
# 6 0.0000 0.0000 0.0000 0.0000 0.0000 30.3139
#
#
#
# Elastic Compliance Matrix: (Units=1/GPa)
#
#
# Indices 1 2 3 4 5 6 
#
# 1 0.014250 -0.002610 -0.003889 0.000000 0.000000 0.000000
# 2 -0.002610 0.018083 -0.006467 0.000000 0.000000 0.000000
# 3 -0.003889 -0.006467 0.015400 0.000000 0.000000 0.000000
# 4 0.000000 0.000000 0.000000 0.061647 0.000000 0.000000
# 5 0.000000 0.000000 0.000000 0.000000 0.030471 0.000000
# 6 0.000000 0.000000 0.000000 0.000000 0.000000 0.032988
#
#
# Mechanical properties :
#
#
# Convention : Reuss Voigt Hill
#
# Bulk Modulus (GPa) = 45.87176 46.63953 46.25564
# Shear Modulus (GPa) = 24.26711 26.04743 25.15727
#
# Velocity S-wave (km/s) = 3.58593 3.71514 3.65111
# Velocity P-wave (km/s) = 6.43834 6.56634 6.50266
#
# Compressibility (1/GPa) = 0.02179991
#
# Stress axis : x y z
#
# Youngs Moduli (GPa) = 70.17430 55.30003 64.93567
#
# Poissons Ratio (x) = 0.14435 0.25253
# Poissons Ratio (y) = 0.18318 0.41997
# Poissons Ratio (z) = 0.27290 0.35765
#
# Static dielectric constant tensor:
#      x y z
#    x 3.585860 0.000000 0.000000 
#    y 0.000000 3.413860 0.000000 
#    z 0.000000 0.000000 3.483530 
# 
# 
# High freq. dielectric constant tensor:
#      x y z
#    x 1.748400 0.000000 0.000000 
#    y 0.000000 1.727270 0.000000 
#    z 0.000000 0.000000 1.738610 
# 
# From -- ./inp_files/43334.got.cif
#   From: 2010.03.12/outbox.cif.g09.slc.cpg/sg72_22_cif.got.tgz:43334.got - 2010.04.16 14:54:00.
