data_PCOD8294739
_publ_section_title
;
Structure prediction by ZEFSAII (Michael W. Deem and Ramdas Pophale) SiO2 
 PCOD8294739
Probable space group: I B A M
;
_chemical_formula_sum "Si O2"
_cell_formula_units_Z 116
_cell_length_a 30.510637
_cell_length_b 10.811919
_cell_length_c 17.981742
_cell_angle_alpha 90.000000
_cell_angle_beta 90.000000
_cell_angle_gamma 90.000000
_cell_volume 5931.790724
_symmetry_space_group_name_H-M "I B A M"
_symmetry_group_IT_number 72
_symmetry_cell_setting 'orthorhombic'
loop_
_space_group_symop_operation_xyz
x,y,z
-x,-y,z
x,-y,1/2-z
-x,y,1/2-z
-x,-y,-z
x,y,-z
-x,y,1/2+z
x,-y,1/2+z
1/2+x,1/2+y,1/2+z
1/2-x,1/2-y,1/2+z
1/2+x,1/2-y,-z
1/2-x,1/2+y,-z
1/2-x,1/2-y,1/2-z
1/2+x,1/2+y,1/2-z
1/2-x,1/2+y,z
1/2+x,1/2-y,z
loop_
_atom_site_type_symbol
_atom_site_label
_atom_site_fract_x
_atom_site_fract_y
_atom_site_fract_z
Si Si1 0.228106 0.763511 0.670056
Si Si2 0.500000 0.000000 0.750000
Si Si3 0.372993 0.757569 0.166856
Si Si4 0.235137 0.495997 0.914413
Si Si5 0.577030 0.152121 0.310686
Si Si6 0.535427 0.332134 0.582993
Si Si7 0.440120 0.385053 0.582788
Si Si8 0.634172 0.994504 0.581885
O O1 0.250000 0.750000 0.750000
O O2 0.176475 0.776807 0.687286
O O3 0.241349 0.640274 0.623023
O O4 0.240874 0.891714 0.628798
O O5 0.530661 0.084700 0.698992
O O6 0.398413 0.818919 0.234929
O O7 0.400904 0.639278 0.140500
O O8 0.372007 0.849633 0.096935
O O9 0.184598 0.532859 0.912933
O O10 0.252337 0.488588 0.000000
O O11 0.568000 0.273805 0.357698
O O12 0.609250 0.066707 0.355560
O O13 0.543686 0.278600 0.500000
O O14 0.484392 0.309927 0.604766
O O15 0.547466 0.473741 0.584947
O O16 0.425054 0.347409 0.500000
O O17 0.615531 0.024072 0.500000
#
# Coordination Sequence:
#
# PCOD8294739 Si02
#       8
#    16   4  16  16  16  16  16  16
#     4  11  23  42  66  94 127 168 206 257 324 385
#     4  12  24  36  58  86 128 160 206 260 302 348
#     4  11  22  39  62  86 122 160 202 247 297 372
#     4  10  22  42  67  93 123 161 209 257 314 380
#     4  12  22  38  55  87 123 154 201 248 301 349
#     4   9  20  38  60  82 117 157 195 246 302 352
#     4   9  19  39  60  84 114 155 201 244 294 356
#     4  10  21  39  62  85 115 157 198 246 305 360
#
# _framework density 19.555645999999999
#
# number of rings (size 3 to 8) (size 9 to 14) (size 15 to 20)
#    0.000    1.655    1.379    4.138    0.000    4.414 
#    7.448    2.069    0.000    0.000    0.000    0.000 
#    0.000    0.000    0.000    0.000    0.000    0.000 
#
# Total GULP energy -718914.527509 kJ/mol
# GULP energy per Si atom -12395.078060 kJ/mol
# Density = 1.951114 g / cm^3
# Si number density = 19.555646 Si / 1000 Ang^3
#
#
#
# Elastic Constant Matrix: (Units=GPa)
#
#
# Indices 1 2 3 4 5 6 
#
# 1 113.5459 44.4140 63.1633 0.0000 0.0000 0.0000
# 2 44.4140 82.3045 42.8299 0.0000 0.0000 0.0000
# 3 63.1633 42.8299 120.8834 0.0000 0.0000 0.0000
# 4 0.0000 0.0000 0.0000 37.8747 0.0000 0.0000
# 5 0.0000 0.0000 0.0000 0.0000 38.9814 0.0000
# 6 0.0000 0.0000 0.0000 0.0000 0.0000 40.4568
#
#
#
# Elastic Compliance Matrix: (Units=1/GPa)
#
#
# Indices 1 2 3 4 5 6 
#
# 1 0.013641 -0.004477 -0.005541 0.000000 0.000000 0.000000
# 2 -0.004477 0.016366 -0.003459 0.000000 0.000000 0.000000
# 3 -0.005541 -0.003459 0.012393 0.000000 0.000000 0.000000
# 4 0.000000 0.000000 0.000000 0.026403 0.000000 0.000000
# 5 0.000000 0.000000 0.000000 0.000000 0.025653 0.000000
# 6 0.000000 0.000000 0.000000 0.000000 0.000000 0.024718
#
#
# Mechanical properties :
#
#
# Convention : Reuss Voigt Hill
#
# Bulk Modulus (GPa) = 64.74610 68.61647 66.68128
# Shear Modulus (GPa) = 33.05172 34.55102 33.80137
#
# Velocity S-wave (km/s) = 4.11559 4.20790 4.16200
# Velocity P-wave (km/s) = 7.46757 7.66632 7.56760
#
# Compressibility (1/GPa) = 0.01544494
#
# Stress axis : x y z
#
# Youngs Moduli (GPa) = 73.30938 61.10127 80.68849
#
# Poissons Ratio (x) = 0.27358 0.44710
# Poissons Ratio (y) = 0.32824 0.27911
# Poissons Ratio (z) = 0.40622 0.21136
#
# Static dielectric constant tensor:
#      x y z
#    x 3.705500 0.000000 0.000000 
#    y 0.000000 3.617790 0.000000 
#    z 0.000000 0.000000 3.750940 
# 
# 
# High freq. dielectric constant tensor:
#      x y z
#    x 1.764930 0.000000 0.000000 
#    y 0.000000 1.759910 0.000000 
#    z 0.000000 0.000000 1.773850 
# 
# From -- ./inp_files/34331.got.cif
#   From: 2010.03.12/outbox.cif.g09.slc.cpg/sg72_18_cif.got.tgz:34331.got - 2010.04.16 14:54:00.
