data_PCOD8294556
_publ_section_title
;
Structure prediction by ZEFSAII (Michael W. Deem and Ramdas Pophale) SiO2 
 PCOD8294556
Probable space group: I B A M
;
_chemical_formula_sum "Si O2"
_cell_formula_units_Z 64
_cell_length_a 17.886022
_cell_length_b 9.229867
_cell_length_c 18.221918
_cell_angle_alpha 90.000000
_cell_angle_beta 90.000000
_cell_angle_gamma 90.000000
_cell_volume 3008.176343
_symmetry_space_group_name_H-M "I B A M"
_symmetry_group_IT_number 72
_symmetry_cell_setting 'orthorhombic'
loop_
_space_group_symop_operation_xyz
x,y,z
-x,-y,z
x,-y,1/2-z
-x,y,1/2-z
-x,-y,-z
x,y,-z
-x,y,1/2+z
x,-y,1/2+z
1/2+x,1/2+y,1/2+z
1/2-x,1/2-y,1/2+z
1/2+x,1/2-y,-z
1/2-x,1/2+y,-z
1/2-x,1/2-y,1/2-z
1/2+x,1/2+y,1/2-z
1/2-x,1/2+y,z
1/2+x,1/2-y,z
loop_
_atom_site_type_symbol
_atom_site_label
_atom_site_fract_x
_atom_site_fract_y
_atom_site_fract_z
Si Si1 0.184176 0.036818 0.829513
Si Si2 0.822966 0.718119 0.642795
Si Si3 0.586286 0.024461 0.921058
Si Si4 0.582799 0.767391 0.714571
O O1 0.239841 0.152805 0.865986
O O2 0.101096 0.107883 0.818781
O O3 0.218372 0.000000 0.750000
O O4 0.178060 0.889597 0.877596
O O5 0.875533 0.632677 0.586740
O O6 0.855647 0.697526 0.724404
O O7 0.601399 0.121855 0.850409
O O8 0.500000 0.000000 0.926170
O O9 0.613221 0.091709 0.000000
O O10 0.500000 0.777859 0.750000
#
# Coordination Sequence:
#
# PCOD8294556 Si02
#       4
#    16  16  16  16
#     4  10  21  36  62  94 128 158 205 261 314 369
#     4  11  21  39  62  91 125 163 205 259 312 374
#     4  11  23  40  61  89 123 163 208 255 309 375
#     4  11  21  38  63  95 125 162 210 257 314 371
#
# _framework density 21.275348999999999
#
# number of rings (size 3 to 8) (size 9 to 14) (size 15 to 20)
#    0.000    1.250    2.500    6.750    0.000    4.500 
#    0.000    6.250    0.000    3.000    0.000    0.000 
#    0.000    0.000    0.000    0.000    0.000    0.000 
#
# Total GULP energy -396467.004123 kJ/mol
# GULP energy per Si atom -12389.593879 kJ/mol
# Density = 2.122692 g / cm^3
# Si number density = 21.275349 Si / 1000 Ang^3
#
#
#
# Elastic Constant Matrix: (Units=GPa)
#
#
# Indices 1 2 3 4 5 6 
#
# 1 91.3764 55.0771 22.9292 0.0000 0.0000 0.0000
# 2 55.0771 141.7963 36.7046 0.0000 0.0000 0.0000
# 3 22.9292 36.7046 78.1275 0.0000 0.0000 0.0000
# 4 0.0000 0.0000 0.0000 33.0885 0.0000 0.0000
# 5 0.0000 0.0000 0.0000 0.0000 63.8932 0.0000
# 6 0.0000 0.0000 0.0000 0.0000 0.0000 35.7806
#
#
#
# Elastic Compliance Matrix: (Units=1/GPa)
#
#
# Indices 1 2 3 4 5 6 
#
# 1 0.014516 -0.005164 -0.001834 0.000000 0.000000 0.000000
# 2 -0.005164 0.009866 -0.003119 0.000000 0.000000 0.000000
# 3 -0.001834 -0.003119 0.014803 0.000000 0.000000 0.000000
# 4 0.000000 0.000000 0.000000 0.030222 0.000000 0.000000
# 5 0.000000 0.000000 0.000000 0.000000 0.015651 0.000000
# 6 0.000000 0.000000 0.000000 0.000000 0.000000 0.027948
#
#
# Mechanical properties :
#
#
# Convention : Reuss Voigt Hill
#
# Bulk Modulus (GPa) = 52.76926 60.08024 56.42475
# Shear Modulus (GPa) = 35.82725 39.65842 37.74284
#
# Velocity S-wave (km/s) = 4.10808 4.32215 4.21648
# Velocity P-wave (km/s) = 6.88176 7.29443 7.09110
#
# Compressibility (1/GPa) = 0.01895043
#
# Stress axis : x y z
#
# Youngs Moduli (GPa) = 68.88725 101.36282 67.55165
#
# Poissons Ratio (x) = 0.52341 0.12392
# Poissons Ratio (y) = 0.35571 0.21072
# Poissons Ratio (z) = 0.12637 0.31619
#
# Static dielectric constant tensor:
#      x y z
#    x 3.838270 0.000000 0.000000 
#    y 0.000000 2.723670 0.000000 
#    z 0.000000 0.000000 4.336590 
# 
# 
# High freq. dielectric constant tensor:
#      x y z
#    x 1.836960 0.000000 0.000000 
#    y 0.000000 1.840290 0.000000 
#    z 0.000000 0.000000 1.800510 
# 
# From -- ./inp_files/27640.got.cif
#   From: 2010.03.12/outbox.cif.g09.slc.cpg/sg72_14_cif.got.tgz:27640.got - 2010.04.16 14:54:00.
