data_PCOD8294950
_publ_section_title
;
Structure prediction by ZEFSAII (Michael W. Deem and Ramdas Pophale) SiO2 
 PCOD8294950
Probable space group: I B A M
;
_chemical_formula_sum "Si O2"
_cell_formula_units_Z 56
_cell_length_a 5.028689
_cell_length_b 23.504379
_cell_length_c 19.472265
_cell_angle_alpha 90.000000
_cell_angle_beta 90.000000
_cell_angle_gamma 90.000000
_cell_volume 2301.547965
_symmetry_space_group_name_H-M "I B A M"
_symmetry_group_IT_number 72
_symmetry_cell_setting 'orthorhombic'
loop_
_space_group_symop_operation_xyz
x,y,z
-x,-y,z
x,-y,1/2-z
-x,y,1/2-z
-x,-y,-z
x,y,-z
-x,y,1/2+z
x,-y,1/2+z
1/2+x,1/2+y,1/2+z
1/2-x,1/2-y,1/2+z
1/2+x,1/2-y,-z
1/2-x,1/2+y,-z
1/2-x,1/2-y,1/2-z
1/2+x,1/2+y,1/2-z
1/2-x,1/2+y,z
1/2+x,1/2-y,z
loop_
_atom_site_type_symbol
_atom_site_label
_atom_site_fract_x
_atom_site_fract_y
_atom_site_fract_z
Si Si1 0.500000 0.876035 0.250000
Si Si2 0.751664 0.039552 0.500000
Si Si3 0.749823 0.959439 0.148311
Si Si4 0.618450 0.785545 0.500000
Si Si5 0.723564 0.211008 0.146750
O O1 0.713489 0.912468 0.206968
O O2 0.314366 0.838297 0.201429
O O3 0.764197 0.073179 0.426794
O O4 0.500000 0.000000 0.500000
O O5 0.000000 0.000000 0.500000
O O6 0.500000 0.000000 0.149530
O O7 0.000000 0.000000 0.163909
O O8 0.805425 0.728926 0.500000
O O9 0.690406 0.818122 0.429189
O O10 0.015159 0.237379 0.156598
#
# Coordination Sequence:
#
# PCOD8294950 Si02
#       5
#     8   8  16   8  16
#     4  12  25  38  64  92 126 168 199 250 324 380
#     4   8  16  37  62  81 110 152 200 258 304 348
#     4  10  23  41  61  87 119 157 206 256 305 366
#     4   8  16  35  60  83 117 160 201 252 300 350
#     4  10  22  40  61  90 125 161 206 254 303 369
#
# _framework density 24.331448999999999
#
# number of rings (size 3 to 8) (size 9 to 14) (size 15 to 20)
#    0.000    2.286    0.000    1.286    0.000    8.000 
#    0.000    0.000    0.000   20.571    0.000    3.000 
#    0.000    0.000    0.000    0.000    0.000    0.000 
#
# Total GULP energy -346876.243743 kJ/mol
# GULP energy per Si atom -12388.437277 kJ/mol
# Density = 2.427607 g / cm^3
# Si number density = 24.331449 Si / 1000 Ang^3
#
#
#
# Elastic Constant Matrix: (Units=GPa)
#
#
# Indices 1 2 3 4 5 6 
#
# 1 118.1108 12.5967 13.5151 0.0000 0.0000 0.0000
# 2 12.5967 68.9287 71.9396 0.0000 0.0000 0.0000
# 3 13.5151 71.9396 229.5035 0.0000 0.0000 0.0000
# 4 0.0000 0.0000 0.0000 -106.8858 0.0000 0.0000
# 5 0.0000 0.0000 0.0000 0.0000 27.1774 0.0000
# 6 0.0000 0.0000 0.0000 0.0000 0.0000 19.6631
#
#
#
# Elastic Compliance Matrix: (Units=1/GPa)
#
#
# Indices 1 2 3 4 5 6 
#
# 1 0.008635 -0.001557 -0.000021 0.000000 0.000000 0.000000
# 2 -0.001557 0.021842 -0.006755 0.000000 0.000000 0.000000
# 3 -0.000021 -0.006755 0.006476 0.000000 0.000000 0.000000
# 4 0.000000 0.000000 0.000000 -0.009356 0.000000 0.000000
# 5 0.000000 0.000000 0.000000 0.000000 0.036795 0.000000
# 6 0.000000 0.000000 0.000000 0.000000 0.000000 0.050857
#
#
# Mechanical properties :
#
#
# Convention : Reuss Voigt Hill
#
# Bulk Modulus (GPa) = 49.28814 68.07177 58.67995
# Shear Modulus (GPa) = 36.05515 9.22371 22.63943
#
# Velocity S-wave (km/s) = 3.85364 1.94912 3.05365
# Velocity P-wave (km/s) = 6.33258 5.75353 6.04999
#
# Compressibility (1/GPa) = 0.02028886
#
# Stress axis : x y z
#
# Youngs Moduli (GPa) = 115.80791 45.78290 154.42031
#
# Poissons Ratio (x) = 0.07126 0.00318
# Poissons Ratio (y) = 0.18026 1.04310
# Poissons Ratio (z) = 0.00238 0.30926
#
# Static dielectric constant tensor:
#      x y z
#    x 4.287020 0.000000 0.000000 
#    y 0.000000 3.707870 0.000000 
#    z 0.000000 0.000000 -2.697640 
# 
# 
# High freq. dielectric constant tensor:
#      x y z
#    x 1.985830 0.000000 0.000000 
#    y 0.000000 1.903160 0.000000 
#    z 0.000000 0.000000 2.010530 
# 
# From -- ./inp_files/34668.got.cif
#   From: 2010.03.12/outbox.cif.g09.slc.cpg/sg72_18_cif.got.tgz:34668.got - 2010.04.16 14:54:00.
