data_PCOD8294919
_publ_section_title
;
Structure prediction by ZEFSAII (Michael W. Deem and Ramdas Pophale) SiO2 
 PCOD8294919
Probable space group: I B A M
;
_chemical_formula_sum "Si O2"
_cell_formula_units_Z 116
_cell_length_a 24.713010
_cell_length_b 11.193133
_cell_length_c 19.349567
_cell_angle_alpha 90.000000
_cell_angle_beta 90.000000
_cell_angle_gamma 90.000000
_cell_volume 5352.399975
_symmetry_space_group_name_H-M "I B A M"
_symmetry_group_IT_number 72
_symmetry_cell_setting 'orthorhombic'
loop_
_space_group_symop_operation_xyz
x,y,z
-x,-y,z
x,-y,1/2-z
-x,y,1/2-z
-x,-y,-z
x,y,-z
-x,y,1/2+z
x,-y,1/2+z
1/2+x,1/2+y,1/2+z
1/2-x,1/2-y,1/2+z
1/2+x,1/2-y,-z
1/2-x,1/2+y,-z
1/2-x,1/2-y,1/2-z
1/2+x,1/2+y,1/2-z
1/2-x,1/2+y,z
1/2+x,1/2-y,z
loop_
_atom_site_type_symbol
_atom_site_label
_atom_site_fract_x
_atom_site_fract_y
_atom_site_fract_z
Si Si1 0.500000 0.000000 0.250000
Si Si2 0.579233 0.096601 0.137836
Si Si3 0.916777 0.043404 0.319614
Si Si4 0.395269 0.343884 0.922546
Si Si5 0.271976 0.104248 0.195301
Si Si6 0.848462 0.592267 0.421101
Si Si7 0.017737 0.802380 0.576375
Si Si8 0.666207 0.257478 0.202893
O O1 0.540117 0.081543 0.204185
O O2 0.545727 0.173810 0.083018
O O3 0.635923 0.163509 0.153445
O O4 0.595840 0.970672 0.104209
O O5 0.961181 0.103237 0.368063
O O6 0.874049 0.133531 0.285472
O O7 0.946989 0.000000 0.250000
O O8 0.884458 0.944997 0.365066
O O9 0.353784 0.234978 0.913424
O O10 0.454422 0.287666 0.911676
O O11 0.389251 0.398320 0.000000
O O12 0.297650 0.049077 0.125627
O O13 0.319122 0.188354 0.226863
O O14 0.221468 0.186282 0.172349
O O15 0.255612 0.000000 0.250000
O O16 0.836643 0.555218 0.500000
O O17 0.030529 0.852869 0.500000
#
# Coordination Sequence:
#
# PCOD8294919 Si02
#       8
#     4  16  16  16  16  16  16  16
#     4  12  24  36  70 104 138 176 226 272 320 404
#     4  11  22  41  62 100 133 173 214 282 330 391
#     4  11  22  37  59  90 124 157 211 272 321 378
#     4  10  22  40  60  85 124 173 212 253 318 401
#     4  11  21  42  69  92 122 169 219 268 333 404
#     4  11  23  41  65  93 131 171 219 281 338 397
#     4  10  22  39  60  85 124 177 217 252 328 406
#     4  10  23  40  68  93 127 167 213 269 337 394
#
# _framework density 21.672521
#
# number of rings (size 3 to 8) (size 9 to 14) (size 15 to 20)
#    0.000    1.379    1.379    4.138    0.000    6.621 
#    0.000    6.897    0.000    0.000    0.000    0.000 
#    0.000    0.000    0.000    0.000    0.000    0.000 
#
# Total GULP energy -718988.421449 kJ/mol
# GULP energy per Si atom -12396.352094 kJ/mol
# Density = 2.162319 g / cm^3
# Si number density = 21.672521 Si / 1000 Ang^3
#
#
#
# Elastic Constant Matrix: (Units=GPa)
#
#
# Indices 1 2 3 4 5 6 
#
# 1 75.8932 16.8722 32.8870 0.0000 0.0000 0.0000
# 2 16.8722 88.7123 37.7231 0.0000 0.0000 0.0000
# 3 32.8870 37.7231 133.8938 0.0000 0.0000 0.0000
# 4 0.0000 0.0000 0.0000 28.4007 0.0000 0.0000
# 5 0.0000 0.0000 0.0000 0.0000 18.7931 0.0000
# 6 0.0000 0.0000 0.0000 0.0000 0.0000 20.1577
#
#
#
# Elastic Compliance Matrix: (Units=1/GPa)
#
#
# Indices 1 2 3 4 5 6 
#
# 1 0.014909 -0.001452 -0.003253 0.000000 0.000000 0.000000
# 2 -0.001452 0.012948 -0.003291 0.000000 0.000000 0.000000
# 3 -0.003253 -0.003291 0.009195 0.000000 0.000000 0.000000
# 4 0.000000 0.000000 0.000000 0.035210 0.000000 0.000000
# 5 0.000000 0.000000 0.000000 0.000000 0.053211 0.000000
# 6 0.000000 0.000000 0.000000 0.000000 0.000000 0.049609
#
#
# Mechanical properties :
#
#
# Convention : Reuss Voigt Hill
#
# Bulk Modulus (GPa) = 47.48542 52.60709 50.04625
# Shear Modulus (GPa) = 25.24050 27.53812 26.38931
#
# Velocity S-wave (km/s) = 3.41637 3.56848 3.49325
# Velocity P-wave (km/s) = 6.12537 6.42690 6.27795
#
# Compressibility (1/GPa) = 0.02105910
#
# Stress axis : x y z
#
# Youngs Moduli (GPa) = 67.07455 77.23100 108.75695
#
# Poissons Ratio (x) = 0.11217 0.35375
# Poissons Ratio (y) = 0.09742 0.35795
# Poissons Ratio (z) = 0.21817 0.25419
#
# Static dielectric constant tensor:
#      x y z
#    x 3.790680 0.000000 0.000000 
#    y 0.000000 4.069420 0.000000 
#    z 0.000000 0.000000 3.911110 
# 
# 
# High freq. dielectric constant tensor:
#      x y z
#    x 1.839840 0.000000 0.000000 
#    y 0.000000 1.858810 0.000000 
#    z 0.000000 0.000000 1.849220 
# 
# From -- ./inp_files/33988.got.cif
#   From: 2010.03.12/outbox.cif.g09.slc.cpg/sg72_17_cif.got.tgz:33988.got - 2010.04.16 14:54:00.
