data_PCOD8294890
_publ_section_title
;
Structure prediction by ZEFSAII (Michael W. Deem and Ramdas Pophale) SiO2 
 PCOD8294890
Probable space group: I B A M
;
_chemical_formula_sum "Si O2"
_cell_formula_units_Z 84
_cell_length_a 14.947392
_cell_length_b 22.032567
_cell_length_c 14.072917
_cell_angle_alpha 90.000000
_cell_angle_beta 90.000000
_cell_angle_gamma 90.000000
_cell_volume 4634.625533
_symmetry_space_group_name_H-M "I B A M"
_symmetry_group_IT_number 72
_symmetry_cell_setting 'orthorhombic'
loop_
_space_group_symop_operation_xyz
x,y,z
-x,-y,z
x,-y,1/2-z
-x,y,1/2-z
-x,-y,-z
x,y,-z
-x,y,1/2+z
x,-y,1/2+z
1/2+x,1/2+y,1/2+z
1/2-x,1/2-y,1/2+z
1/2+x,1/2-y,-z
1/2-x,1/2+y,-z
1/2-x,1/2-y,1/2-z
1/2+x,1/2+y,1/2-z
1/2-x,1/2+y,z
1/2+x,1/2-y,z
loop_
_atom_site_type_symbol
_atom_site_label
_atom_site_fract_x
_atom_site_fract_y
_atom_site_fract_z
Si Si1 0.066125 0.901126 0.387453
Si Si2 0.081506 0.198910 0.610731
Si Si3 0.276856 0.793858 0.895281
Si Si4 0.906348 0.320365 0.227100
Si Si5 0.000000 0.000000 0.250000
Si Si6 0.254230 0.848311 0.394801
O O1 0.061852 0.917126 0.500000
O O2 0.161548 0.874418 0.356353
O O3 0.988970 0.853004 0.360259
O O4 0.059163 0.960076 0.321711
O O5 0.069306 0.216656 0.500000
O O6 0.182387 0.172755 0.628794
O O7 0.065077 0.258733 0.672998
O O8 0.356130 0.807598 0.824947
O O9 0.251846 0.723668 0.890762
O O10 0.311153 0.812027 0.000000
O O11 0.841477 0.365320 0.167506
O O12 0.000000 0.354355 0.250000
O O13 0.272068 0.873017 0.500000
#
# Coordination Sequence:
#
# PCOD8294890 Si02
#       6
#    16  16  16  16   4  16
#     4  10  22  38  54  77 107 139 172 215 264 309
#     4   9  18  32  50  70 101 139 171 206 254 307
#     4   9  18  29  44  71 102 135 171 206 243 307
#     4  11  20  27  46  75 104 134 175 206 239 310
#     4  12  26  32  60  78 102 132 182 224 260 304
#     4   9  18  33  50  68 100 138 170 204 252 305
#
# _framework density 18.124441000000001
#
# number of rings (size 3 to 8) (size 9 to 14) (size 15 to 20)
#    0.000    2.286    0.000    5.429    6.667    3.048 
#    0.000    0.000    0.000    0.000    0.000    0.667 
#    0.000    3.048    0.000    0.000    0.000    0.000 
#
# Total GULP energy -520495.472973 kJ/mol
# GULP energy per Si atom -12392.749357 kJ/mol
# Density = 1.808319 g / cm^3
# Si number density = 18.124441 Si / 1000 Ang^3
#
#
#
# Elastic Constant Matrix: (Units=GPa)
#
#
# Indices 1 2 3 4 5 6 
#
# 1 174.9228 42.2588 67.8744 0.0000 0.0000 0.0000
# 2 42.2588 47.6579 30.2672 0.0000 0.0000 0.0000
# 3 67.8744 30.2672 90.8831 0.0000 0.0000 0.0000
# 4 0.0000 0.0000 0.0000 24.7889 0.0000 0.0000
# 5 0.0000 0.0000 0.0000 0.0000 26.8063 0.0000
# 6 0.0000 0.0000 0.0000 0.0000 0.0000 5.0117
#
#
#
# Elastic Compliance Matrix: (Units=1/GPa)
#
#
# Indices 1 2 3 4 5 6 
#
# 1 0.008776 -0.004590 -0.005025 0.000000 0.000000 0.000000
# 2 -0.004590 0.029012 -0.006234 0.000000 0.000000 0.000000
# 3 -0.005025 -0.006234 0.016832 0.000000 0.000000 0.000000
# 4 0.000000 0.000000 0.000000 0.040341 0.000000 0.000000
# 5 0.000000 0.000000 0.000000 0.000000 0.037305 0.000000
# 6 0.000000 0.000000 0.000000 0.000000 0.000000 0.199534
#
#
# Mechanical properties :
#
#
# Convention : Reuss Voigt Hill
#
# Bulk Modulus (GPa) = 43.62744 66.02942 54.82843
# Shear Modulus (GPa) = 13.47206 22.85894 18.16550
#
# Velocity S-wave (km/s) = 2.72933 3.55522 3.16929
# Velocity P-wave (km/s) = 5.83572 7.30500 6.61130
#
# Compressibility (1/GPa) = 0.02292136
#
# Stress axis : x y z
#
# Youngs Moduli (GPa) = 113.95230 34.46849 59.40926
#
# Poissons Ratio (x) = 0.15821 0.29855
# Poissons Ratio (y) = 0.52303 0.37036
# Poissons Ratio (z) = 0.57265 0.21488
#
# Static dielectric constant tensor:
#      x y z
#    x 3.757490 0.000000 0.000000 
#    y 0.000000 2.788680 0.000000 
#    z 0.000000 0.000000 3.731480 
# 
# 
# High freq. dielectric constant tensor:
#      x y z
#    x 1.717300 0.000000 0.000000 
#    y 0.000000 1.616840 0.000000 
#    z 0.000000 0.000000 1.729770 
# 
# From -- ./inp_files/21664.got.cif
#   From: 2010.03.12/outbox.cif.g09.slc.cpg/sg72_11_cif.got.tgz:21664.got - 2010.04.16 14:54:00.
