data_PCOD8294634
_publ_section_title
;
Structure prediction by ZEFSAII (Michael W. Deem and Ramdas Pophale) SiO2 
 PCOD8294634
Probable space group: I B A M
;
_chemical_formula_sum "Si O2"
_cell_formula_units_Z 116
_cell_length_a 27.738665
_cell_length_b 22.509231
_cell_length_c 8.926121
_cell_angle_alpha 90.000000
_cell_angle_beta 90.000000
_cell_angle_gamma 90.000000
_cell_volume 5573.255887
_symmetry_space_group_name_H-M "I B A M"
_symmetry_group_IT_number 72
_symmetry_cell_setting 'orthorhombic'
loop_
_space_group_symop_operation_xyz
x,y,z
-x,-y,z
x,-y,1/2-z
-x,y,1/2-z
-x,-y,-z
x,y,-z
-x,y,1/2+z
x,-y,1/2+z
1/2+x,1/2+y,1/2+z
1/2-x,1/2-y,1/2+z
1/2+x,1/2-y,-z
1/2-x,1/2+y,-z
1/2-x,1/2-y,1/2-z
1/2+x,1/2+y,1/2-z
1/2-x,1/2+y,z
1/2+x,1/2-y,z
loop_
_atom_site_type_symbol
_atom_site_label
_atom_site_fract_x
_atom_site_fract_y
_atom_site_fract_z
Si Si1 0.452743 0.320182 0.672114
Si Si2 0.685034 0.107587 0.830554
Si Si3 0.047632 0.696202 0.825336
Si Si4 0.300338 0.230865 0.821416
Si Si5 0.500000 0.000000 0.250000
Si Si6 0.847726 0.837893 0.825698
Si Si7 0.713213 0.440084 0.325162
Si Si8 0.919279 0.408922 0.336821
O O1 0.500000 0.349644 0.750000
O O2 0.466371 0.310387 0.500000
O O3 0.439820 0.257087 0.744181
O O4 0.403955 0.358567 0.690535
O O5 0.685033 0.164203 0.721037
O O6 0.730034 0.065631 0.790400
O O7 0.635964 0.067318 0.818267
O O8 0.691565 0.131841 0.000000
O O9 0.082824 0.641468 0.791760
O O10 0.000000 0.669481 0.750000
O O11 0.043454 0.708342 0.000000
O O12 0.250000 0.250000 0.750000
O O13 0.341103 0.274926 0.757167
O O14 0.298096 0.236666 0.000000
O O15 0.461857 0.958285 0.162859
O O16 0.814089 0.885487 0.748535
O O17 0.833672 0.831391 0.000000
O O18 0.693809 0.500000 0.250000
O O19 0.701167 0.441600 0.500000
O O20 0.924069 0.378295 0.500000
#
# Coordination Sequence:
#
# PCOD8294634 Si02
#       8
#    16  16  16  16   4  16  16  16
#     4  10  21  37  61  93 128 162 198 243 298 363
#     4  10  23  42  63  89 123 165 207 260 322 381
#     4  11  21  35  57  83 115 154 198 245 301 366
#     4  12  23  37  62  96 131 166 207 259 319 387
#     4  12  26  40  68  86 110 164 218 276 330 384
#     4  11  23  40  64  94 129 168 207 254 311 373
#     4  11  24  42  65  90 123 165 210 257 307 371
#     4  11  24  42  60  82 115 152 203 264 319 373
#
# _framework density 20.813685
#
# number of rings (size 3 to 8) (size 9 to 14) (size 15 to 20)
#    0.000    1.103    2.069    5.586    0.966    7.172 
#    0.000    0.000    0.000    0.414    0.000    2.897 
#    0.000    0.000    0.000    0.000    0.000    0.000 
#
# Total GULP energy -718603.240679 kJ/mol
# GULP energy per Si atom -12389.711046 kJ/mol
# Density = 2.076631 g / cm^3
# Si number density = 20.813685 Si / 1000 Ang^3
#
#
#
# Elastic Constant Matrix: (Units=GPa)
#
#
# Indices 1 2 3 4 5 6 
#
# 1 132.0065 11.5818 49.8410 0.0000 0.0000 0.0000
# 2 11.5818 43.8099 30.4015 0.0000 0.0000 0.0000
# 3 49.8410 30.4015 154.8968 0.0000 0.0000 0.0000
# 4 0.0000 0.0000 0.0000 25.7891 0.0000 0.0000
# 5 0.0000 0.0000 0.0000 0.0000 28.0718 0.0000
# 6 0.0000 0.0000 0.0000 0.0000 0.0000 11.0967
#
#
#
# Elastic Compliance Matrix: (Units=1/GPa)
#
#
# Indices 1 2 3 4 5 6 
#
# 1 0.008629 -0.000410 -0.002696 0.000000 0.000000 0.000000
# 2 -0.000410 0.026444 -0.005058 0.000000 0.000000 0.000000
# 3 -0.002696 -0.005058 0.008316 0.000000 0.000000 0.000000
# 4 0.000000 0.000000 0.000000 0.038776 0.000000 0.000000
# 5 0.000000 0.000000 0.000000 0.000000 0.035623 0.000000
# 6 0.000000 0.000000 0.000000 0.000000 0.000000 0.090117
#
#
# Mechanical properties :
#
#
# Convention : Reuss Voigt Hill
#
# Bulk Modulus (GPa) = 36.95396 57.15132 47.05264
# Shear Modulus (GPa) = 21.43569 28.91744 25.17657
#
# Velocity S-wave (km/s) = 3.21266 3.73144 3.48173
# Velocity P-wave (km/s) = 5.61737 6.78845 6.23048
#
# Compressibility (1/GPa) = 0.02706070
#
# Stress axis : x y z
#
# Youngs Moduli (GPa) = 115.88364 37.81505 120.24706
#
# Poissons Ratio (x) = 0.01552 0.32420
# Poissons Ratio (y) = 0.04755 0.60824
# Poissons Ratio (z) = 0.31244 0.19128
#
# Static dielectric constant tensor:
#      x y z
#    x 4.101950 0.000000 0.000000 
#    y 0.000000 3.355880 0.000000 
#    z 0.000000 0.000000 3.881670 
# 
# 
# High freq. dielectric constant tensor:
#      x y z
#    x 1.835040 0.000000 0.000000 
#    y 0.000000 1.776100 0.000000 
#    z 0.000000 0.000000 1.825330 
# 
# From -- ./inp_files/8381.got.cif
#   From: 2010.03.12/outbox.cif.g09.slc.cpg/sg72_5_cif.got.tgz:8381.got - 2010.04.16 14:54:00.
