data_PCOD8294417
_publ_section_title
;
Structure prediction by ZEFSAII (Michael W. Deem and Ramdas Pophale) SiO2 
 PCOD8294417
Probable space group: I B A M
;
_chemical_formula_sum "Si O2"
_cell_formula_units_Z 88
_cell_length_a 15.814452
_cell_length_b 19.971292
_cell_length_c 14.485429
_cell_angle_alpha 90.000000
_cell_angle_beta 90.000000
_cell_angle_gamma 90.000000
_cell_volume 4575.006029
_symmetry_space_group_name_H-M "I B A M"
_symmetry_group_IT_number 72
_symmetry_cell_setting 'orthorhombic'
loop_
_space_group_symop_operation_xyz
x,y,z
-x,-y,z
x,-y,1/2-z
-x,y,1/2-z
-x,-y,-z
x,y,-z
-x,y,1/2+z
x,-y,1/2+z
1/2+x,1/2+y,1/2+z
1/2-x,1/2-y,1/2+z
1/2+x,1/2-y,-z
1/2-x,1/2+y,-z
1/2-x,1/2-y,1/2-z
1/2+x,1/2+y,1/2-z
1/2-x,1/2+y,z
1/2+x,1/2-y,z
loop_
_atom_site_type_symbol
_atom_site_label
_atom_site_fract_x
_atom_site_fract_y
_atom_site_fract_z
Si Si1 0.704831 0.113743 0.000000
Si Si2 0.745778 0.240057 0.500000
Si Si3 0.540009 0.306611 0.154664
Si Si4 0.737409 0.564482 0.191708
Si Si5 0.073134 0.281703 0.000000
Si Si6 0.734994 0.312787 0.812767
Si Si7 0.941641 0.938069 0.395001
O O1 0.770564 0.178292 0.000000
O O2 0.717059 0.069046 0.908329
O O3 0.607418 0.141820 0.000000
O O4 0.846816 0.230950 0.500000
O O5 0.712559 0.202048 0.407975
O O6 0.500000 0.285022 0.250000
O O7 0.637197 0.325347 0.167753
O O8 0.495039 0.370601 0.110577
O O9 0.522682 0.240456 0.091617
O O10 0.764876 0.500000 0.250000
O O11 0.770411 0.624272 0.256724
O O12 0.636800 0.565553 0.174964
O O13 0.750000 0.250000 0.750000
O O14 0.908675 0.948006 0.500000
O O15 0.000000 0.000000 0.364541
#
# Coordination Sequence:
#
# PCOD8294417 Si02
#       7
#     8   8  16  16   8  16  16
#     4  10  20  40  55  75 111 152 191 252 297 331
#     4   8  18  33  55  70 102 139 183 233 303 319
#     4  11  19  31  53  76 106 147 193 236 279 339
#     4  12  23  35  55  81 115 159 201 236 287 349
#     4   8  18  35  52  75 103 143 183 237 295 326
#     4  11  20  35  55  78 106 153 196 244 292 342
#     4  11  23  35  47  72 118 161 197 230 271 335
#
# _framework density 19.234946999999998
#
# number of rings (size 3 to 8) (size 9 to 14) (size 15 to 20)
#    0.545    0.909    5.455    1.091    0.000    0.727 
#    0.000    0.909    0.000    0.000    0.000    0.000 
#    0.000   17.455    0.000    0.000    0.000    0.000 
#
# Total GULP energy -545191.361100 kJ/mol
# GULP energy per Si atom -12390.712752 kJ/mol
# Density = 1.919117 g / cm^3
# Si number density = 19.234947 Si / 1000 Ang^3
#
#
#
# Elastic Constant Matrix: (Units=GPa)
#
#
# Indices 1 2 3 4 5 6 
#
# 1 18.7502 23.3477 11.6785 0.0000 0.0000 0.0000
# 2 23.3477 125.7013 70.9159 0.0000 0.0000 0.0000
# 3 11.6785 70.9159 164.3855 0.0000 0.0000 0.0000
# 4 0.0000 0.0000 0.0000 31.4945 0.0000 0.0000
# 5 0.0000 0.0000 0.0000 0.0000 12.5579 0.0000
# 6 0.0000 0.0000 0.0000 0.0000 0.0000 21.9301
#
#
#
# Elastic Compliance Matrix: (Units=1/GPa)
#
#
# Indices 1 2 3 4 5 6 
#
# 1 0.069466 -0.013373 0.000834 0.000000 0.000000 0.000000
# 2 -0.013373 0.013089 -0.004696 0.000000 0.000000 0.000000
# 3 0.000834 -0.004696 0.008050 0.000000 0.000000 0.000000
# 4 0.000000 0.000000 0.000000 0.031752 0.000000 0.000000
# 5 0.000000 0.000000 0.000000 0.000000 0.079631 0.000000
# 6 0.000000 0.000000 0.000000 0.000000 0.000000 0.045599
#
#
# Mechanical properties :
#
#
# Convention : Reuss Voigt Hill
#
# Bulk Modulus (GPa) = 17.81466 57.85790 37.83628
# Shear Modulus (GPa) = 16.62409 26.72284 21.67347
#
# Velocity S-wave (km/s) = 2.94303 3.73136 3.36039
# Velocity P-wave (km/s) = 4.56402 6.97918 5.89657
#
# Compressibility (1/GPa) = 0.05613356
#
# Stress axis : x y z
#
# Youngs Moduli (GPa) = 14.39564 76.40097 124.22272
#
# Poissons Ratio (x) = 1.02171 -0.10361
# Poissons Ratio (y) = 0.19251 0.58341
# Poissons Ratio (z) = -0.01201 0.35881
#
# Static dielectric constant tensor:
#      x y z
#    x 3.112520 0.000000 0.000000 
#    y 0.000000 3.502610 0.000000 
#    z 0.000000 0.000000 4.071670 
# 
# 
# High freq. dielectric constant tensor:
#      x y z
#    x 1.693880 0.000000 0.000000 
#    y 0.000000 1.728280 0.000000 
#    z 0.000000 0.000000 1.779840 
# 
# From -- ./inp_files/21742.got.cif
#   From: 2010.03.12/outbox.cif.g09.slc.cpg/sg72_11_cif.got.tgz:21742.got - 2010.04.16 14:54:00.
