data_PCOD8294650
_publ_section_title
;
Structure prediction by ZEFSAII (Michael W. Deem and Ramdas Pophale) SiO2 
 PCOD8294650
Probable space group: I B A M
;
_chemical_formula_sum "Si O2"
_cell_formula_units_Z 64
_cell_length_a 28.311461
_cell_length_b 14.125403
_cell_length_c 8.685609
_cell_angle_alpha 90.000000
_cell_angle_beta 90.000000
_cell_angle_gamma 90.000000
_cell_volume 3473.468810
_symmetry_space_group_name_H-M "I B A M"
_symmetry_group_IT_number 72
_symmetry_cell_setting 'orthorhombic'
loop_
_space_group_symop_operation_xyz
x,y,z
-x,-y,z
x,-y,1/2-z
-x,y,1/2-z
-x,-y,-z
x,y,-z
-x,y,1/2+z
x,-y,1/2+z
1/2+x,1/2+y,1/2+z
1/2-x,1/2-y,1/2+z
1/2+x,1/2-y,-z
1/2-x,1/2+y,-z
1/2-x,1/2-y,1/2-z
1/2+x,1/2+y,1/2-z
1/2-x,1/2+y,z
1/2+x,1/2-y,z
loop_
_atom_site_type_symbol
_atom_site_label
_atom_site_fract_x
_atom_site_fract_y
_atom_site_fract_z
Si Si1 0.051790 0.241762 0.683405
Si Si2 0.375414 0.396504 0.317382
Si Si3 0.801500 0.755901 0.680518
Si Si4 0.623897 0.897859 0.177488
O O1 0.051165 0.234056 0.500000
O O2 0.076721 0.148486 0.749893
O O3 0.080874 0.333774 0.741063
O O4 0.000000 0.250604 0.750000
O O5 0.369817 0.500000 0.250000
O O6 0.378674 0.399747 0.500000
O O7 0.329505 0.338299 0.266543
O O8 0.800018 0.779837 0.500000
O O9 0.750000 0.750000 0.750000
O O10 0.826820 0.655294 0.710562
O O11 0.624544 0.000000 0.250000
O O12 0.615527 0.913995 0.000000
#
# Coordination Sequence:
#
# PCOD8294650 Si02
#       4
#    16  16  16  16
#     4  10  21  38  57  82 112 144 183 228 274 328
#     4  11  22  38  59  83 111 146 184 229 279 330
#     4  10  21  38  57  82 113 147 186 230 276 328
#     4   9  20  36  55  79 110 143 181 225 271 322
#
# _framework density 18.425384000000001
#
# number of rings (size 3 to 8) (size 9 to 14) (size 15 to 20)
#    0.000    2.000    0.000    5.250    0.000    8.000 
#    0.000    7.500    0.000    0.000    0.000    0.000 
#    0.000    0.000    0.000    0.000    0.000    0.000 
#
# Total GULP energy -396839.883807 kJ/mol
# GULP energy per Si atom -12401.246369 kJ/mol
# Density = 1.838345 g / cm^3
# Si number density = 18.425384 Si / 1000 Ang^3
#
#
#
# Elastic Constant Matrix: (Units=GPa)
#
#
# Indices 1 2 3 4 5 6 
#
# 1 135.3941 32.0444 47.0235 0.0000 0.0000 0.0000
# 2 32.0444 116.7860 45.9461 0.0000 0.0000 0.0000
# 3 47.0235 45.9461 112.3457 0.0000 0.0000 0.0000
# 4 0.0000 0.0000 0.0000 38.0789 0.0000 0.0000
# 5 0.0000 0.0000 0.0000 0.0000 36.7752 0.0000
# 6 0.0000 0.0000 0.0000 0.0000 0.0000 13.5414
#
#
#
# Elastic Compliance Matrix: (Units=1/GPa)
#
#
# Indices 1 2 3 4 5 6 
#
# 1 0.008769 -0.001147 -0.003201 0.000000 0.000000 0.000000
# 2 -0.001147 0.010354 -0.003755 0.000000 0.000000 0.000000
# 3 -0.003201 -0.003755 0.011777 0.000000 0.000000 0.000000
# 4 0.000000 0.000000 0.000000 0.026261 0.000000 0.000000
# 5 0.000000 0.000000 0.000000 0.000000 0.027192 0.000000
# 6 0.000000 0.000000 0.000000 0.000000 0.000000 0.073848
#
#
# Mechanical properties :
#
#
# Convention : Reuss Voigt Hill
#
# Bulk Modulus (GPa) = 68.05208 68.28375 68.16791
# Shear Modulus (GPa) = 27.88539 33.64656 30.76598
#
# Velocity S-wave (km/s) = 3.89449 4.27792 4.09070
# Velocity P-wave (km/s) = 7.56550 7.84480 7.70642
#
# Compressibility (1/GPa) = 0.01469463
#
# Stress axis : x y z
#
# Youngs Moduli (GPa) = 114.03654 96.57656 84.91340
#
# Poissons Ratio (x) = 0.11073 0.27185
# Poissons Ratio (y) = 0.13075 0.31883
# Poissons Ratio (z) = 0.36509 0.36262
#
# Static dielectric constant tensor:
#      x y z
#    x 3.481440 0.000000 0.000000 
#    y 0.000000 2.774660 0.000000 
#    z 0.000000 0.000000 3.797510 
# 
# 
# High freq. dielectric constant tensor:
#      x y z
#    x 1.721260 0.000000 0.000000 
#    y 0.000000 1.719650 0.000000 
#    z 0.000000 0.000000 1.728600 
# 
# From -- ./inp_files/2607.got.cif
#   From: 2010.03.12/outbox.cif.g09.slc.cpg/sg72_2_cif.got.tgz:2607.got - 2010.04.16 14:54:00.
