data_PCOD8294776
_publ_section_title
;
Structure prediction by ZEFSAII (Michael W. Deem and Ramdas Pophale) SiO2 
 PCOD8294776
Probable space group: I B A M
;
_chemical_formula_sum "Si O2"
_cell_formula_units_Z 96
_cell_length_a 19.813506
_cell_length_b 13.851267
_cell_length_c 14.988446
_cell_angle_alpha 90.000000
_cell_angle_beta 90.000000
_cell_angle_gamma 90.000000
_cell_volume 4113.461522
_symmetry_space_group_name_H-M "I B A M"
_symmetry_group_IT_number 72
_symmetry_cell_setting 'orthorhombic'
loop_
_space_group_symop_operation_xyz
x,y,z
-x,-y,z
x,-y,1/2-z
-x,y,1/2-z
-x,-y,-z
x,y,-z
-x,y,1/2+z
x,-y,1/2+z
1/2+x,1/2+y,1/2+z
1/2-x,1/2-y,1/2+z
1/2+x,1/2-y,-z
1/2-x,1/2+y,-z
1/2-x,1/2-y,1/2-z
1/2+x,1/2+y,1/2-z
1/2-x,1/2+y,z
1/2+x,1/2-y,z
loop_
_atom_site_type_symbol
_atom_site_label
_atom_site_fract_x
_atom_site_fract_y
_atom_site_fract_z
Si Si1 0.668072 0.704822 0.279871
Si Si2 0.107665 0.869360 0.898889
Si Si3 0.477000 0.274654 0.346800
Si Si4 0.305477 0.082344 0.679483
Si Si5 0.301460 0.537437 0.900921
Si Si6 0.050478 0.423998 0.901480
O O1 0.649168 0.691647 0.175667
O O2 0.601453 0.695440 0.342869
O O3 0.709760 0.806309 0.289788
O O4 0.711414 0.616337 0.322274
O O5 0.026779 0.858237 0.883462
O O6 0.126656 0.982432 0.887276
O O7 0.125988 0.834615 0.000000
O O8 0.500000 0.240441 0.250000
O O9 0.484910 0.180409 0.408592
O O10 0.383307 0.082513 0.656502
O O11 0.292256 0.000000 0.750000
O O12 0.254740 0.049215 0.601135
O O13 0.298075 0.585088 0.000000
O O14 0.000000 0.500000 0.855482
O O15 0.069223 0.461374 0.000000
#
# Coordination Sequence:
#
# PCOD8294776 Si02
#       6
#    16  16  16  16  16  16
#     4  10  23  44  67  94 132 179 220 272 341 403
#     4  10  21  39  66 100 134 169 221 275 329 403
#     4   9  20  37  62  94 129 172 213 268 330 392
#     4  11  25  43  66  93 128 173 219 270 331 399
#     4  11  25  44  67  96 131 174 224 278 334 402
#     4  10  22  37  59  90 128 167 211 266 323 387
#
# _framework density 23.338009
#
# number of rings (size 3 to 8) (size 9 to 14) (size 15 to 20)
#    0.000    1.833    0.000    2.500    7.000    7.333 
#    0.000    6.667    0.000    1.000    0.000    0.000 
#    0.000    0.000    0.000    0.000    0.000    0.000 
#
# Total GULP energy -594851.832259 kJ/mol
# GULP energy per Si atom -12392.746505 kJ/mol
# Density = 2.328489 g / cm^3
# Si number density = 23.338009 Si / 1000 Ang^3
#
#
#
# Elastic Constant Matrix: (Units=GPa)
#
#
# Indices 1 2 3 4 5 6 
#
# 1 64.3471 60.9959 21.9946 0.0000 0.0000 0.0000
# 2 60.9959 152.3134 53.5566 0.0000 0.0000 0.0000
# 3 21.9946 53.5566 121.7068 0.0000 0.0000 0.0000
# 4 0.0000 0.0000 0.0000 37.0223 0.0000 0.0000
# 5 0.0000 0.0000 0.0000 0.0000 20.7740 0.0000
# 6 0.0000 0.0000 0.0000 0.0000 0.0000 40.6363
#
#
#
# Elastic Compliance Matrix: (Units=1/GPa)
#
#
# Indices 1 2 3 4 5 6 
#
# 1 0.025052 -0.009985 -0.000133 0.000000 0.000000 0.000000
# 2 -0.009985 0.011747 -0.003365 0.000000 0.000000 0.000000
# 3 -0.000133 -0.003365 0.009721 0.000000 0.000000 0.000000
# 4 0.000000 0.000000 0.000000 0.027011 0.000000 0.000000
# 5 0.000000 0.000000 0.000000 0.000000 0.048137 0.000000
# 6 0.000000 0.000000 0.000000 0.000000 0.000000 0.024609
#
#
# Mechanical properties :
#
#
# Convention : Reuss Voigt Hill
#
# Bulk Modulus (GPa) = 51.14242 67.94018 59.54130
# Shear Modulus (GPa) = 27.81467 33.14120 30.47794
#
# Velocity S-wave (km/s) = 3.45602 3.77245 3.61769
# Velocity P-wave (km/s) = 6.15522 6.93900 6.55883
#
# Compressibility (1/GPa) = 0.01955324
#
# Stress axis : x y z
#
# Youngs Moduli (GPa) = 39.91756 85.12561 102.86766
#
# Poissons Ratio (x) = 0.85001 0.01371
# Poissons Ratio (y) = 0.39859 0.34613
# Poissons Ratio (z) = 0.00532 0.28643
#
# Static dielectric constant tensor:
#      x y z
#    x 4.419280 0.000000 0.000000 
#    y 0.000000 4.211680 0.000000 
#    z 0.000000 0.000000 4.104550 
# 
# 
# High freq. dielectric constant tensor:
#      x y z
#    x 1.936350 0.000000 0.000000 
#    y 0.000000 1.914070 0.000000 
#    z 0.000000 0.000000 1.922390 
# 
# From -- ./inp_files/24104.got.cif
#   From: 2010.03.12/outbox.cif.g09.slc.cpg/sg72_13_cif.got.tgz:24104.got - 2010.04.16 14:54:00.
