data_PCOD8294876
_publ_section_title
;
Structure prediction by ZEFSAII (Michael W. Deem and Ramdas Pophale) SiO2 
 PCOD8294876
Probable space group: I B A M
;
_chemical_formula_sum "Si O2"
_cell_formula_units_Z 112
_cell_length_a 23.429115
_cell_length_b 15.652215
_cell_length_c 14.774136
_cell_angle_alpha 90.000000
_cell_angle_beta 90.000000
_cell_angle_gamma 90.000000
_cell_volume 5417.934887
_symmetry_space_group_name_H-M "I B A M"
_symmetry_group_IT_number 72
_symmetry_cell_setting 'orthorhombic'
loop_
_space_group_symop_operation_xyz
x,y,z
-x,-y,z
x,-y,1/2-z
-x,y,1/2-z
-x,-y,-z
x,y,-z
-x,y,1/2+z
x,-y,1/2+z
1/2+x,1/2+y,1/2+z
1/2-x,1/2-y,1/2+z
1/2+x,1/2-y,-z
1/2-x,1/2+y,-z
1/2-x,1/2-y,1/2-z
1/2+x,1/2+y,1/2-z
1/2-x,1/2+y,z
1/2+x,1/2-y,z
loop_
_atom_site_type_symbol
_atom_site_label
_atom_site_fract_x
_atom_site_fract_y
_atom_site_fract_z
Si Si1 0.295473 0.387104 0.900563
Si Si2 0.402664 0.505782 0.393553
Si Si3 0.635048 0.235925 0.667483
Si Si4 0.457464 0.887901 0.395831
Si Si5 0.686861 0.096573 0.781160
Si Si6 0.063751 0.866622 0.744228
Si Si7 0.420404 0.069699 0.393162
O O1 0.335516 0.470244 0.883128
O O2 0.332410 0.299939 0.899615
O O3 0.246376 0.380694 0.827204
O O4 0.267980 0.395451 0.000000
O O5 0.420743 0.506450 0.500000
O O6 0.436603 0.575254 0.334907
O O7 0.418100 0.415052 0.348155
O O8 0.579981 0.195967 0.617889
O O9 0.678871 0.162181 0.698211
O O10 0.609927 0.290685 0.751022
O O11 0.466268 0.908525 0.500000
O O12 0.522580 0.879892 0.358474
O O13 0.425360 0.971698 0.356588
O O14 0.633890 0.113341 0.847483
O O15 0.690014 0.000000 0.750000
O O16 0.000000 0.829084 0.750000
O O17 0.410749 0.075291 0.500000
#
# Coordination Sequence:
#
# PCOD8294876 Si02
#       7
#    16  16  16  16  16  16  16
#     4  10  23  43  65  86 117 157 206 260 308 362
#     4   9  19  40  66  87 116 161 205 252 312 375
#     4  11  23  39  60  91 127 159 200 250 312 365
#     4   9  18  36  60  85 119 161 203 246 297 361
#     4  12  24  38  62  90 120 164 204 252 304 363
#     4  10  22  36  59  94 128 158 197 256 308 374
#     4   9  19  37  59  86 118 157 206 249 287 356
#
# _framework density 20.672083000000001
#
# number of rings (size 3 to 8) (size 9 to 14) (size 15 to 20)
#    0.000    2.000    1.429    3.000    6.000    1.714 
#    0.000    1.429    0.000    0.000    0.000    0.000 
#    0.000    0.000    0.000    0.000    0.000    0.000 
#
# Total GULP energy -694051.139724 kJ/mol
# GULP energy per Si atom -12393.770352 kJ/mol
# Density = 2.062503 g / cm^3
# Si number density = 20.672083 Si / 1000 Ang^3
#
#
#
# Elastic Constant Matrix: (Units=GPa)
#
#
# Indices 1 2 3 4 5 6 
#
# 1 98.5544 21.0142 16.9162 0.0000 0.0000 0.0000
# 2 21.0142 77.1210 13.7312 0.0000 0.0000 0.0000
# 3 16.9162 13.7312 71.6311 0.0000 0.0000 0.0000
# 4 0.0000 0.0000 0.0000 22.6225 0.0000 0.0000
# 5 0.0000 0.0000 0.0000 0.0000 33.0626 0.0000
# 6 0.0000 0.0000 0.0000 0.0000 0.0000 26.2269
#
#
#
# Elastic Compliance Matrix: (Units=1/GPa)
#
#
# Indices 1 2 3 4 5 6 
#
# 1 0.011072 -0.002641 -0.002108 0.000000 0.000000 0.000000
# 2 -0.002641 0.014055 -0.002070 0.000000 0.000000 0.000000
# 3 -0.002108 -0.002070 0.014855 0.000000 0.000000 0.000000
# 4 0.000000 0.000000 0.000000 0.044204 0.000000 0.000000
# 5 0.000000 0.000000 0.000000 0.000000 0.030246 0.000000
# 6 0.000000 0.000000 0.000000 0.000000 0.000000 0.038129
#
#
# Mechanical properties :
#
#
# Convention : Reuss Voigt Hill
#
# Bulk Modulus (GPa) = 37.96292 38.95885 38.46088
# Shear Modulus (GPa) = 28.57446 29.42537 28.99992
#
# Velocity S-wave (km/s) = 3.72193 3.77694 3.74953
# Velocity P-wave (km/s) = 6.07244 6.15690 6.11481
#
# Compressibility (1/GPa) = 0.02634149
#
# Stress axis : x y z
#
# Youngs Moduli (GPa) = 90.31960 71.14890 67.31643
#
# Poissons Ratio (x) = 0.18794 0.14193
# Poissons Ratio (y) = 0.23858 0.13938
# Poissons Ratio (z) = 0.19042 0.14731
#
# Static dielectric constant tensor:
#      x y z
#    x 3.765100 0.000000 0.000000 
#    y 0.000000 3.734350 0.000000 
#    z 0.000000 0.000000 3.602840 
# 
# 
# High freq. dielectric constant tensor:
#      x y z
#    x 1.813150 0.000000 0.000000 
#    y 0.000000 1.798340 0.000000 
#    z 0.000000 0.000000 1.801340 
# 
# From -- ./inp_files/22105.got.cif
#   From: 2010.03.12/outbox.cif.g09.slc.cpg/sg72_12_cif.got.tgz:22105.got - 2010.04.16 14:54:00.
