data_PCOD8294583
_publ_section_title
;
Structure prediction by ZEFSAII (Michael W. Deem and Ramdas Pophale) SiO2 
 PCOD8294583
Probable space group: I B A M
;
_chemical_formula_sum "Si O2"
_cell_formula_units_Z 72
_cell_length_a 15.730024
_cell_length_b 14.939194
_cell_length_c 14.476169
_cell_angle_alpha 90.000000
_cell_angle_beta 90.000000
_cell_angle_gamma 90.000000
_cell_volume 3401.811123
_symmetry_space_group_name_H-M "I B A M"
_symmetry_group_IT_number 72
_symmetry_cell_setting 'orthorhombic'
loop_
_space_group_symop_operation_xyz
x,y,z
-x,-y,z
x,-y,1/2-z
-x,y,1/2-z
-x,-y,-z
x,y,-z
-x,y,1/2+z
x,-y,1/2+z
1/2+x,1/2+y,1/2+z
1/2-x,1/2-y,1/2+z
1/2+x,1/2-y,-z
1/2-x,1/2+y,-z
1/2-x,1/2-y,1/2-z
1/2+x,1/2+y,1/2-z
1/2-x,1/2+y,z
1/2+x,1/2-y,z
loop_
_atom_site_type_symbol
_atom_site_label
_atom_site_fract_x
_atom_site_fract_y
_atom_site_fract_z
Si Si1 0.911495 0.049321 0.000000
Si Si2 0.431323 0.078193 0.000000
Si Si3 0.738260 0.594635 0.500000
Si Si4 0.257371 0.654245 0.798351
Si Si5 0.582341 0.634118 0.802411
Si Si6 0.425432 0.844706 0.309184
O O1 0.910028 0.110787 0.090511
O O2 0.000000 0.000000 0.000000
O O3 0.831939 0.982885 0.000000
O O4 0.331809 0.047312 0.000000
O O5 0.450196 0.141906 0.914527
O O6 0.500000 0.000000 0.000000
O O7 0.726209 0.658053 0.590409
O O8 0.250000 0.750000 0.750000
O O9 0.333181 0.597836 0.750682
O O10 0.164773 0.608180 0.783542
O O11 0.500000 0.591904 0.750000
O O12 0.580062 0.739890 0.789198
O O13 0.500000 0.890330 0.250000
#
# Coordination Sequence:
#
# PCOD8294583 Si02
#       6
#     8   8   8  16  16  16
#     4  12  25  37  55  85 121 158 191 238 293 347
#     4  10  21  37  57  83 115 146 179 232 291 341
#     4  10  22  38  56  84 118 148 189 240 291 348
#     4   9  19  37  60  82 109 147 190 240 287 339
#     4  10  21  38  59  83 113 154 197 236 285 345
#     4   9  19  37  59  83 109 144 191 234 277 338
#
# _framework density 21.165196999999999
#
# number of rings (size 3 to 8) (size 9 to 14) (size 15 to 20)
#    0.000    2.222    0.000    2.000    0.000    8.000 
#    0.000   11.111    0.000    2.667    0.000    0.000 
#    0.000    0.000    0.000    0.000    0.000    0.000 
#
# Total GULP energy -446023.247360 kJ/mol
# GULP energy per Si atom -12389.534649 kJ/mol
# Density = 2.111702 g / cm^3
# Si number density = 21.165197 Si / 1000 Ang^3
#
#
#
# Elastic Constant Matrix: (Units=GPa)
#
#
# Indices 1 2 3 4 5 6 
#
# 1 197.7828 26.2529 105.5952 0.0000 0.0000 0.0000
# 2 26.2529 23.8870 11.4447 0.0000 0.0000 0.0000
# 3 105.5952 11.4447 179.8202 0.0000 0.0000 0.0000
# 4 0.0000 0.0000 0.0000 13.8846 0.0000 0.0000
# 5 0.0000 0.0000 0.0000 0.0000 40.9787 0.0000
# 6 0.0000 0.0000 0.0000 0.0000 0.0000 14.6532
#
#
#
# Elastic Compliance Matrix: (Units=1/GPa)
#
#
# Indices 1 2 3 4 5 6 
#
# 1 0.008382 -0.007070 -0.004472 0.000000 0.000000 0.000000
# 2 -0.007070 0.049143 0.001024 0.000000 0.000000 0.000000
# 3 -0.004472 0.001024 0.008122 0.000000 0.000000 0.000000
# 4 0.000000 0.000000 0.000000 0.072022 0.000000 0.000000
# 5 0.000000 0.000000 0.000000 0.000000 0.024403 0.000000
# 6 0.000000 0.000000 0.000000 0.000000 0.000000 0.068244
#
#
# Mechanical properties :
#
#
# Convention : Reuss Voigt Hill
#
# Bulk Modulus (GPa) = 22.41595 76.45287 49.43441
# Shear Modulus (GPa) = 18.78120 31.11646 24.94883
#
# Velocity S-wave (km/s) = 2.98209 3.83844 3.43704
# Velocity P-wave (km/s) = 4.74037 7.47297 6.25765
#
# Compressibility (1/GPa) = 0.04461109
#
# Stress axis : x y z
#
# Youngs Moduli (GPa) = 119.30078 20.34876 123.11932
#
# Poissons Ratio (x) = 0.14386 0.55063
# Poissons Ratio (y) = 0.84341 -0.12604
# Poissons Ratio (z) = 0.53355 -0.02083
#
# Static dielectric constant tensor:
#      x y z
#    x 4.962080 0.000000 0.000000 
#    y 0.000000 3.072610 0.000000 
#    z 0.000000 0.000000 3.732630 
# 
# 
# High freq. dielectric constant tensor:
#      x y z
#    x 1.861570 0.000000 0.000000 
#    y 0.000000 1.788920 0.000000 
#    z 0.000000 0.000000 1.844010 
# 
# From -- ./inp_files/13646.got.cif
#   From: 2010.03.12/outbox.cif.g09.slc.cpg/sg72_7_cif.got.tgz:13646.got - 2010.04.16 14:54:00.
