data_PCOD8294872
_publ_section_title
;
Structure prediction by ZEFSAII (Michael W. Deem and Ramdas Pophale) SiO2 
 PCOD8294872
Probable space group: I B A M
;
_chemical_formula_sum "Si O2"
_cell_formula_units_Z 96
_cell_length_a 22.258940
_cell_length_b 17.275436
_cell_length_c 14.718404
_cell_angle_alpha 90.000000
_cell_angle_beta 90.000000
_cell_angle_gamma 90.000000
_cell_volume 5659.710476
_symmetry_space_group_name_H-M "I B A M"
_symmetry_group_IT_number 72
_symmetry_cell_setting 'orthorhombic'
loop_
_space_group_symop_operation_xyz
x,y,z
-x,-y,z
x,-y,1/2-z
-x,y,1/2-z
-x,-y,-z
x,y,-z
-x,y,1/2+z
x,-y,1/2+z
1/2+x,1/2+y,1/2+z
1/2-x,1/2-y,1/2+z
1/2+x,1/2-y,-z
1/2-x,1/2+y,-z
1/2-x,1/2-y,1/2-z
1/2+x,1/2+y,1/2-z
1/2-x,1/2+y,z
1/2+x,1/2-y,z
loop_
_atom_site_type_symbol
_atom_site_label
_atom_site_fract_x
_atom_site_fract_y
_atom_site_fract_z
Si Si1 0.752014 0.498090 0.602472
Si Si2 0.618819 0.502759 0.645274
Si Si3 0.231742 0.375337 0.252749
Si Si4 0.434308 0.666124 0.895648
Si Si5 0.070890 0.161825 0.603500
Si Si6 0.347618 0.270880 0.746877
O O1 0.779646 0.496539 0.500000
O O2 0.680456 0.505040 0.589641
O O3 0.778128 0.569978 0.659919
O O4 0.768730 0.420035 0.656701
O O5 0.638300 0.500000 0.750000
O O6 0.578458 0.576681 0.624762
O O7 0.579318 0.429294 0.618721
O O8 0.295120 0.333109 0.265303
O O9 0.176979 0.315724 0.250831
O O10 0.503029 0.682702 0.868545
O O11 0.392084 0.722602 0.838230
O O12 0.421963 0.685267 0.000000
O O13 0.083682 0.183650 0.500000
O O14 0.116906 0.212661 0.660886
#
# Coordination Sequence:
#
# PCOD8294872 Si02
#       6
#    16  16  16  16  16  16
#     4  11  19  35  56  75 104 140 177 217 256 298
#     4  12  19  32  51  75 110 144 182 211 243 298
#     4  10  22  36  51  79 102 138 182 217 251 317
#     4  11  22  34  51  77 107 143 181 211 251 307
#     4  11  22  34  51  77 107 143 181 211 251 307
#     4  11  21  36  52  72 112 140 174 215 263 298
#
# _framework density 16.961998000000001
#
# number of rings (size 3 to 8) (size 9 to 14) (size 15 to 20)
#    0.000    1.000    6.667    2.500    0.000    3.333 
#    0.000    3.333    0.000    0.000    0.000    9.333 
#    0.000   16.000    0.000    0.000    0.000    0.000 
#
# Total GULP energy -595352.749293 kJ/mol
# GULP energy per Si atom -12403.182277 kJ/mol
# Density = 1.692339 g / cm^3
# Si number density = 16.961998 Si / 1000 Ang^3
#
#
#
# Elastic Constant Matrix: (Units=GPa)
#
#
# Indices 1 2 3 4 5 6 
#
# 1 73.2029 26.3825 23.5220 0.0000 0.0000 0.0000
# 2 26.3825 56.3299 12.0819 0.0000 0.0000 0.0000
# 3 23.5220 12.0819 84.0275 0.0000 0.0000 0.0000
# 4 0.0000 0.0000 0.0000 -1.8108 0.0000 0.0000
# 5 0.0000 0.0000 0.0000 0.0000 20.8130 0.0000
# 6 0.0000 0.0000 0.0000 0.0000 0.0000 30.1547
#
#
#
# Elastic Compliance Matrix: (Units=1/GPa)
#
#
# Indices 1 2 3 4 5 6 
#
# 1 0.017566 -0.007401 -0.003853 0.000000 0.000000 0.000000
# 2 -0.007401 0.021435 -0.001010 0.000000 0.000000 0.000000
# 3 -0.003853 -0.001010 0.013125 0.000000 0.000000 0.000000
# 4 0.000000 0.000000 0.000000 -0.552255 0.000000 0.000000
# 5 0.000000 0.000000 0.000000 0.000000 0.048047 0.000000
# 6 0.000000 0.000000 0.000000 0.000000 0.000000 0.033162
#
#
# Mechanical properties :
#
#
# Convention : Reuss Voigt Hill
#
# Bulk Modulus (GPa) = 36.23495 37.50366 36.86931
# Shear Modulus (GPa) = -12.98056 19.93632 3.47788
#
# Velocity S-wave (km/s) = -2.76936 3.43206 1.43347
# Velocity P-wave (km/s) = 3.34410 6.15336 4.95211
#
# Compressibility (1/GPa) = 0.02759766
#
# Stress axis : x y z
#
# Youngs Moduli (GPa) = 56.92806 46.65168 76.19174
#
# Poissons Ratio (x) = 0.34526 0.29358
# Poissons Ratio (y) = 0.42131 0.07698
# Poissons Ratio (z) = 0.21935 0.04714
#
# Static dielectric constant tensor:
#      x y z
#    x 3.056740 0.000000 0.000000 
#    y 0.000000 2.928810 0.000000 
#    z 0.000000 0.000000 3.358240 
# 
# 
# High freq. dielectric constant tensor:
#      x y z
#    x 1.639000 0.000000 0.000000 
#    y 0.000000 1.629970 0.000000 
#    z 0.000000 0.000000 1.672220 
# 
# From -- ./inp_files/24417.got.cif
#   From: 2010.03.12/outbox.cif.g09.slc.cpg/sg72_13_cif.got.tgz:24417.got - 2010.04.16 14:54:00.
