data_PCOD8294436
_publ_section_title
;
Structure prediction by ZEFSAII (Michael W. Deem and Ramdas Pophale) SiO2 
 PCOD8294436
Probable space group: I B A M
;
_chemical_formula_sum "Si O2"
_cell_formula_units_Z 96
_cell_length_a 9.434122
_cell_length_b 27.552056
_cell_length_c 18.874597
_cell_angle_alpha 90.000000
_cell_angle_beta 90.000000
_cell_angle_gamma 90.000000
_cell_volume 4906.063762
_symmetry_space_group_name_H-M "I B A M"
_symmetry_group_IT_number 72
_symmetry_cell_setting 'orthorhombic'
loop_
_space_group_symop_operation_xyz
x,y,z
-x,-y,z
x,-y,1/2-z
-x,y,1/2-z
-x,-y,-z
x,y,-z
-x,y,1/2+z
x,-y,1/2+z
1/2+x,1/2+y,1/2+z
1/2-x,1/2-y,1/2+z
1/2+x,1/2-y,-z
1/2-x,1/2+y,-z
1/2-x,1/2-y,1/2-z
1/2+x,1/2+y,1/2-z
1/2-x,1/2+y,z
1/2+x,1/2-y,z
loop_
_atom_site_type_symbol
_atom_site_label
_atom_site_fract_x
_atom_site_fract_y
_atom_site_fract_z
Si Si1 0.055567 0.864926 0.078917
Si Si2 0.788705 0.287975 0.417691
Si Si3 0.914590 0.955811 0.322351
Si Si4 0.586200 0.043026 0.177288
Si Si5 0.995239 0.353094 0.665907
Si Si6 0.251868 0.822365 0.419827
O O1 0.147357 0.818001 0.098724
O O2 0.087648 0.908230 0.131278
O O3 0.895239 0.849498 0.084540
O O4 0.093563 0.882966 0.000000
O O5 0.834595 0.290536 0.500000
O O6 0.761297 0.233005 0.394388
O O7 0.913916 0.308413 0.369471
O O8 0.750517 0.971069 0.309809
O O9 0.000000 0.945301 0.250000
O O10 0.000000 0.000000 0.360659
O O11 0.500000 0.048583 0.250000
O O12 0.575919 0.095919 0.140639
O O13 0.500000 0.000000 0.134853
O O14 0.152806 0.352117 0.634949
O O15 0.000000 0.346322 0.750000
O O16 0.312859 0.824141 0.500000
#
# Coordination Sequence:
#
# PCOD8294436 Si02
#       6
#    16  16  16  16  16  16
#     4  10  22  38  60  88 120 153 196 252 293 337
#     4  10  20  41  63  84 117 162 204 239 289 355
#     4  11  23  38  65  90 114 158 197 240 295 359
#     4  10  21  38  59  87 121 155 194 238 292 357
#     4  11  23  36  60  92 122 154 191 249 302 339
#     4  10  22  39  63  86 115 162 205 238 286 358
#
# _framework density 19.567622
#
# number of rings (size 3 to 8) (size 9 to 14) (size 15 to 20)
#    0.000    1.667    1.667    3.500    7.000    3.667 
#    0.000    1.667    0.000    2.500    0.000    0.000 
#    0.000    0.000    0.000    0.000    0.000    0.000 
#
# Total GULP energy -595029.636022 kJ/mol
# GULP energy per Si atom -12396.450750 kJ/mol
# Density = 1.952309 g / cm^3
# Si number density = 19.567622 Si / 1000 Ang^3
#
#
#
# Elastic Constant Matrix: (Units=GPa)
#
#
# Indices 1 2 3 4 5 6 
#
# 1 120.9477 33.1865 29.5014 0.0001 0.0002 0.0000
# 2 33.1865 98.4822 31.9850 0.0000 -0.0001 0.0000
# 3 29.5014 31.9850 59.9838 0.0001 0.0002 0.0001
# 4 0.0001 0.0000 0.0001 25.2606 -0.0002 0.0000
# 5 0.0002 -0.0001 0.0002 -0.0002 45.6788 0.0000
# 6 0.0000 0.0000 0.0001 0.0000 0.0000 39.7777
#
#
#
# Elastic Compliance Matrix: (Units=1/GPa)
#
#
# Indices 1 2 3 4 5 6 
#
# 1 0.009737 -0.002087 -0.003676 0.000000 0.000000 0.000000
# 2 -0.002087 0.012728 -0.005761 0.000000 0.000000 0.000000
# 3 -0.003676 -0.005761 0.021551 0.000000 0.000000 0.000000
# 4 0.000000 0.000000 0.000000 0.039587 0.000000 0.000000
# 5 0.000000 0.000000 0.000000 0.000000 0.021892 0.000000
# 6 0.000000 0.000000 0.000000 0.000000 0.000000 0.025140
#
#
# Mechanical properties :
#
#
# Convention : Reuss Voigt Hill
#
# Bulk Modulus (GPa) = 47.69003 52.08440 49.88721
# Shear Modulus (GPa) = 31.11907 34.45949 32.78928
#
# Velocity S-wave (km/s) = 3.99223 4.20103 4.09796
# Velocity P-wave (km/s) = 6.75835 7.08569 6.92396
#
# Compressibility (1/GPa) = 0.02096874
#
# Stress axis : x y z
#
# Youngs Moduli (GPa) = 102.69631 78.56422 46.40197
#
# Poissons Ratio (x) = 0.16400 0.17058
# Poissons Ratio (y) = 0.21437 0.26730
# Poissons Ratio (z) = 0.37751 0.45257
#
# Static dielectric constant tensor:
#      x y z
#    x 3.745040 0.000000 0.000000 
#    y 0.000000 4.208380 0.000000 
#    z 0.000000 0.000000 3.434160 
# 
# 
# High freq. dielectric constant tensor:
#      x y z
#    x 1.781550 0.000000 0.000000 
#    y 0.000000 1.777380 0.000000 
#    z 0.000000 0.000000 1.732930 
# 
# From -- ./inp_files/35996.got.cif
#   From: 2010.03.12/outbox.cif.g09.slc.cpg/sg72_18_cif.got.tgz:35996.got - 2010.04.16 14:54:00.
