data_PCOD8294465
_publ_section_title
;
Structure prediction by ZEFSAII (Michael W. Deem and Ramdas Pophale) SiO2 
 PCOD8294465
Probable space group: I B A M
;
_chemical_formula_sum "Si O2"
_cell_formula_units_Z 112
_cell_length_a 27.671165
_cell_length_b 14.478593
_cell_length_c 15.058274
_cell_angle_alpha 90.000000
_cell_angle_beta 90.000000
_cell_angle_gamma 90.000000
_cell_volume 6032.939906
_symmetry_space_group_name_H-M "I B A M"
_symmetry_group_IT_number 72
_symmetry_cell_setting 'orthorhombic'
loop_
_space_group_symop_operation_xyz
x,y,z
-x,-y,z
x,-y,1/2-z
-x,y,1/2-z
-x,-y,-z
x,y,-z
-x,y,1/2+z
x,-y,1/2+z
1/2+x,1/2+y,1/2+z
1/2-x,1/2-y,1/2+z
1/2+x,1/2-y,-z
1/2-x,1/2+y,-z
1/2-x,1/2-y,1/2-z
1/2+x,1/2+y,1/2-z
1/2-x,1/2+y,z
1/2+x,1/2-y,z
loop_
_atom_site_type_symbol
_atom_site_label
_atom_site_fract_x
_atom_site_fract_y
_atom_site_fract_z
Si Si1 0.880199 0.310595 0.896094
Si Si2 0.872641 0.656915 0.899140
Si Si3 0.322144 0.017066 0.145073
Si Si4 0.716662 0.463820 0.899761
Si Si5 0.223843 0.241236 0.157016
Si Si6 0.443066 0.108346 0.748645
Si Si7 0.686495 0.346063 0.400096
O O1 0.835973 0.379044 0.877890
O O2 0.926016 0.341635 0.838733
O O3 0.858133 0.213226 0.860498
O O4 0.894645 0.307681 0.000000
O O5 0.859861 0.549281 0.904012
O O6 0.827895 0.709108 0.852312
O O7 0.920256 0.662278 0.836308
O O8 0.883109 0.693367 0.000000
O O9 0.270920 0.998705 0.101498
O O10 0.321209 0.000000 0.250000
O O11 0.711712 0.367210 0.850053
O O12 0.688921 0.551826 0.853867
O O13 0.699353 0.446234 0.000000
O O14 0.250000 0.250000 0.250000
O O15 0.263043 0.287866 0.092596
O O16 0.500000 0.118839 0.750000
O O17 0.427377 0.000000 0.750000
O O18 0.672672 0.368574 0.500000
#
# Coordination Sequence:
#
# PCOD8294465 Si02
#       7
#    16  16  16  16  16  16  16
#     4  11  20  36  58  81 111 154 195 230 286 354
#     4  12  22  36  56  82 112 154 198 235 285 348
#     4  12  20  32  51  79 118 153 193 230 277 330
#     4  11  22  35  50  77 117 158 193 231 269 321
#     4  12  23  34  53  79 117 157 197 236 277 329
#     4  11  24  41  58  82 112 141 185 244 303 362
#     4  10  21  33  51  79 110 148 191 224 266 332
#
# _framework density 18.564747000000001
#
# number of rings (size 3 to 8) (size 9 to 14) (size 15 to 20)
#    0.000    0.714    5.714    4.286    0.000    0.571 
#    0.000    1.429    0.000    0.000    0.000    2.000 
#    0.000    4.571    0.000    0.000    0.000    0.000 
#
# Total GULP energy -693742.015409 kJ/mol
# GULP energy per Si atom -12388.250275 kJ/mol
# Density = 1.852249 g / cm^3
# Si number density = 18.564747 Si / 1000 Ang^3
#
#
#
# Elastic Constant Matrix: (Units=GPa)
#
#
# Indices 1 2 3 4 5 6 
#
# 1 91.6680 46.0460 41.6110 0.0000 0.0000 0.0000
# 2 46.0460 139.3384 39.0707 0.0000 0.0000 0.0000
# 3 41.6110 39.0707 105.9584 0.0000 0.0000 0.0000
# 4 0.0000 0.0000 0.0000 23.2053 0.0000 0.0000
# 5 0.0000 0.0000 0.0000 0.0000 17.8044 0.0000
# 6 0.0000 0.0000 0.0000 0.0000 0.0000 24.3154
#
#
#
# Elastic Compliance Matrix: (Units=1/GPa)
#
#
# Indices 1 2 3 4 5 6 
#
# 1 0.014753 -0.003626 -0.004457 0.000000 0.000000 0.000000
# 2 -0.003626 0.008895 -0.001856 0.000000 0.000000 0.000000
# 3 -0.004457 -0.001856 0.011872 0.000000 0.000000 0.000000
# 4 0.000000 0.000000 0.000000 0.043094 0.000000 0.000000
# 5 0.000000 0.000000 0.000000 0.000000 0.056166 0.000000
# 6 0.000000 0.000000 0.000000 0.000000 0.000000 0.041126
#
#
# Mechanical properties :
#
#
# Convention : Reuss Voigt Hill
#
# Bulk Modulus (GPa) = 63.92408 65.60225 64.76317
# Shear Modulus (GPa) = 24.87578 27.08083 25.97830
#
# Velocity S-wave (km/s) = 3.66450 3.82347 3.74483
# Velocity P-wave (km/s) = 7.23965 7.40983 7.32523
#
# Compressibility (1/GPa) = 0.01564356
#
# Stress axis : x y z
#
# Youngs Moduli (GPa) = 67.78162 112.41757 84.22923
#
# Poissons Ratio (x) = 0.40759 0.37540
# Poissons Ratio (y) = 0.24576 0.15635
# Poissons Ratio (z) = 0.30209 0.20867
#
# Static dielectric constant tensor:
#      x y z
#    x 3.152320 0.000000 0.000000 
#    y 0.000000 3.848270 0.000000 
#    z 0.000000 0.000000 3.649070 
# 
# 
# High freq. dielectric constant tensor:
#      x y z
#    x 1.672560 0.000000 0.000000 
#    y 0.000000 1.721860 0.000000 
#    z 0.000000 0.000000 1.730830 
# 
# From -- ./inp_files/25931.got.cif
#   From: 2010.03.12/outbox.cif.g09.slc.cpg/sg72_13_cif.got.tgz:25931.got - 2010.04.16 14:54:00.
