data_PCOD8295459
_publ_section_title
;
Structure prediction by ZEFSAII (Michael W. Deem and Ramdas Pophale) SiO2 
 PCOD8295459
Probable space group: I B A M
;
_chemical_formula_sum "Si O2"
_cell_formula_units_Z 72
_cell_length_a 14.605709
_cell_length_b 9.578096
_cell_length_c 23.343003
_cell_angle_alpha 90.000000
_cell_angle_beta 90.000000
_cell_angle_gamma 90.000000
_cell_volume 3265.566672
_symmetry_space_group_name_H-M "I B A M"
_symmetry_group_IT_number 72
_symmetry_cell_setting 'orthorhombic'
loop_
_space_group_symop_operation_xyz
x,y,z
-x,-y,z
x,-y,1/2-z
-x,y,1/2-z
-x,-y,-z
x,y,-z
-x,y,1/2+z
x,-y,1/2+z
1/2+x,1/2+y,1/2+z
1/2-x,1/2-y,1/2+z
1/2+x,1/2-y,-z
1/2-x,1/2+y,-z
1/2-x,1/2-y,1/2-z
1/2+x,1/2+y,1/2-z
1/2-x,1/2+y,z
1/2+x,1/2-y,z
loop_
_atom_site_type_symbol
_atom_site_label
_atom_site_fract_x
_atom_site_fract_y
_atom_site_fract_z
Si Si1 0.249845 0.037708 0.367701
Si Si2 0.817641 0.794957 0.799308
Si Si3 0.000000 0.695767 0.750000
Si Si4 0.431700 0.110549 0.131799
Si Si5 0.577617 0.385570 0.434850
O O1 0.197760 0.956612 0.316233
O O2 0.329952 0.932569 0.386576
O O3 0.294980 0.185318 0.350297
O O4 0.178115 0.056642 0.419139
O O5 0.750000 0.750000 0.750000
O O6 0.923751 0.788124 0.781755
O O7 0.946154 0.606279 0.701242
O O8 0.451822 0.262727 0.107634
O O9 0.500000 0.000000 0.102905
O O10 0.500000 0.500000 0.426515
O O11 0.581003 0.332121 0.500000
#
# Coordination Sequence:
#
# PCOD8295459 Si02
#       5
#    16  16   8  16  16
#     4  12  24  44  68 104 138 182 238 292 351 425
#     4  12  24  39  68 101 146 188 233 281 350 437
#     4  12  23  42  69 104 151 192 223 290 361 432
#     4  12  25  43  74 107 143 187 239 289 359 437
#     4  11  27  51  73  99 140 187 244 309 361 417
#
# _framework density 22.048241999999998
#
# number of rings (size 3 to 8) (size 9 to 14) (size 15 to 20)
#    0.000    0.222    6.667    2.333    0.000    1.333 
#    0.000    7.222    0.000    0.000    0.000    0.000 
#    0.000    0.000    0.000    0.000    0.000    0.000 
#
# Total GULP energy -446380.388780 kJ/mol
# GULP energy per Si atom -12399.455244 kJ/mol
# Density = 2.199806 g / cm^3
# Si number density = 22.048242 Si / 1000 Ang^3
#
#
#
# Elastic Constant Matrix: (Units=GPa)
#
#
# Indices 1 2 3 4 5 6 
#
# 1 166.4238 39.9554 41.6577 0.0000 0.0000 0.0000
# 2 39.9554 99.8069 39.4713 0.0000 0.0000 0.0000
# 3 41.6577 39.4713 95.0876 0.0000 0.0000 0.0000
# 4 0.0000 0.0000 0.0000 10.3065 0.0000 0.0000
# 5 0.0000 0.0000 0.0000 0.0000 35.3473 0.0000
# 6 0.0000 0.0000 0.0000 0.0000 0.0000 40.0068
#
#
#
# Elastic Compliance Matrix: (Units=1/GPa)
#
#
# Indices 1 2 3 4 5 6 
#
# 1 0.007041 -0.001913 -0.002291 0.000000 0.000000 0.000000
# 2 -0.001913 0.012507 -0.004354 0.000000 0.000000 0.000000
# 3 -0.002291 -0.004354 0.013327 0.000000 0.000000 0.000000
# 4 0.000000 0.000000 0.000000 0.097026 0.000000 0.000000
# 5 0.000000 0.000000 0.000000 0.000000 0.028291 0.000000
# 6 0.000000 0.000000 0.000000 0.000000 0.000000 0.024996
#
#
# Mechanical properties :
#
#
# Convention : Reuss Voigt Hill
#
# Bulk Modulus (GPa) = 63.44735 67.05412 65.25074
# Shear Modulus (GPa) = 24.32422 33.14773 28.73597
#
# Velocity S-wave (km/s) = 3.32509 3.88160 3.61407
# Velocity P-wave (km/s) = 6.60157 7.11109 6.86106
#
# Compressibility (1/GPa) = 0.01576110
#
# Stress axis : x y z
#
# Youngs Moduli (GPa) = 142.01685 79.95589 75.03336
#
# Poissons Ratio (x) = 0.15295 0.17188
# Poissons Ratio (y) = 0.27167 0.32667
# Poissons Ratio (z) = 0.32533 0.34810
#
# Static dielectric constant tensor:
#      x y z
#    x 4.228860 0.000000 0.000000 
#    y 0.000000 4.399050 0.000000 
#    z 0.000000 0.000000 3.744790 
# 
# 
# High freq. dielectric constant tensor:
#      x y z
#    x 1.890730 0.000000 0.000000 
#    y 0.000000 1.874750 0.000000 
#    z 0.000000 0.000000 1.834270 
# 
# From -- ./inp_files/48473.got.cif
#   From: 2010.03.12/outbox.cif.g09.slc.cpg/sg72_25_cif.got.tgz:48473.got - 2010.04.16 14:54:00.
