data_PCOD8295694
_publ_section_title
;
Structure prediction by ZEFSAII (Michael W. Deem and Ramdas Pophale) SiO2 
 PCOD8295694
Probable space group: I B C A 
;
_chemical_formula_sum "Si O2"
_cell_formula_units_Z 112
_cell_length_a 5.030730
_cell_length_b 33.109160
_cell_length_c 33.414025
_cell_angle_alpha 90.000000
_cell_angle_beta 90.000000
_cell_angle_gamma 90.000000
_cell_volume 5565.548415
_symmetry_space_group_name_H-M "I B C A "
_symmetry_group_IT_number 73
_symmetry_cell_setting 'orthorhombic'
loop_
_space_group_symop_operation_xyz
x,y,z
-x,1/2-y,z
x,-y,1/2-z
1/2-x,y,-z
-x,-y,-z
x,1/2+y,-z
-x,y,1/2+z
1/2+x,-y,z
1/2+x,1/2+y,1/2+z
1/2-x,-y,1/2+z
1/2+x,1/2-y,-z
-x,1/2+y,1/2-z
1/2-x,1/2-y,1/2-z
1/2+x,y,1/2-z
1/2-x,1/2+y,z
x,1/2-y,1/2+z
loop_
_atom_site_type_symbol
_atom_site_label
_atom_site_fract_x
_atom_site_fract_y
_atom_site_fract_z
Si Si1 0.161948 0.474384 0.315762
Si Si2 0.145004 0.525620 0.090689
Si Si3 0.624015 0.294114 0.379712
Si Si4 0.638686 0.657717 0.041340
Si Si5 0.629597 0.386060 0.067934
Si Si6 0.131851 0.889065 0.724105
Si Si7 0.874027 0.837306 0.147197
O O1 0.950053 0.508736 0.303888
O O2 0.152270 0.464067 0.362497
O O3 0.096643 0.434209 0.291803
O O4 0.362843 0.492740 0.078479
O O5 0.196476 0.566657 0.066325
O O6 0.500000 0.250000 0.377297
O O7 0.645258 0.306630 0.426157
O O8 0.426808 0.321722 0.353970
O O9 0.917058 0.300476 0.360647
O O10 0.343309 0.638710 0.041250
O O11 0.837885 0.620817 0.050231
O O12 0.750000 0.677091 0.000000
O O13 0.609887 0.371674 0.113654
O O14 0.428805 0.881867 0.739702
O O15 0.067174 0.856716 0.689887
#
# Coordination Sequence:
#
# PCOD8295694 Si02
#       7
#    16  16  16  16  16  16  16
#     4  10  21  35  52  78 115 151 192 242 296 343
#     4  10  19  32  54  80 107 145 199 249 281 317
#     4  10  21  39  66  90 114 147 182 227 283 340
#     4  10  21  36  59  90 120 146 178 221 283 348
#     4  10  19  36  59  79 112 156 194 233 275 331
#     4  12  24  37  57  82 117 157 194 242 296 338
#     4  10  21  39  59  85 114 147 199 233 273 347
#
# _framework density 20.123802999999999
#
# number of rings (size 3 to 8) (size 9 to 14) (size 15 to 20)
#    0.000    1.714    1.429    3.429    0.000    1.714 
#    0.000    4.286    0.000   17.143    0.000    0.000 
#    0.000    0.000    0.000    0.000    0.000    0.000 
#
# Total GULP energy -694378.041216 kJ/mol
# GULP energy per Si atom -12399.607879 kJ/mol
# Density = 2.007800 g / cm^3
# Si number density = 20.123803 Si / 1000 Ang^3
#
#
#
# Elastic Constant Matrix: (Units=GPa)
#
#
# Indices 1 2 3 4 5 6 
#
# 1 95.2535 6.8962 13.3363 0.0000 0.0000 0.0000
# 2 6.8962 65.7949 35.4108 0.0000 0.0000 0.0000
# 3 13.3363 35.4108 60.5845 0.0000 0.0000 0.0000
# 4 0.0000 0.0000 0.0000 17.9255 0.0000 0.0000
# 5 0.0000 0.0000 0.0000 0.0000 23.9816 0.0000
# 6 0.0000 0.0000 0.0000 0.0000 0.0000 12.8531
#
#
#
# Elastic Compliance Matrix: (Units=1/GPa)
#
#
# Indices 1 2 3 4 5 6 
#
# 1 0.010834 0.000216 -0.002511 0.000000 0.000000 0.000000
# 2 0.000216 0.022178 -0.013010 0.000000 0.000000 0.000000
# 3 -0.002511 -0.013010 0.024663 0.000000 0.000000 0.000000
# 4 0.000000 0.000000 0.000000 0.055786 0.000000 0.000000
# 5 0.000000 0.000000 0.000000 0.000000 0.041699 0.000000
# 6 0.000000 0.000000 0.000000 0.000000 0.000000 0.077802
#
#
# Mechanical properties :
#
#
# Convention : Reuss Voigt Hill
#
# Bulk Modulus (GPa) = 36.94900 36.99106 36.97003
# Shear Modulus (GPa) = 18.34217 22.01801 20.18009
#
# Velocity S-wave (km/s) = 3.02233 3.31135 3.17013
# Velocity P-wave (km/s) = 5.52992 5.74819 5.64011
#
# Compressibility (1/GPa) = 0.02706433
#
# Stress axis : x y z
#
# Youngs Moduli (GPa) = 92.29990 45.08902 40.54648
#
# Poissons Ratio (x) = -0.00973 0.10182
# Poissons Ratio (y) = -0.01993 0.52753
# Poissons Ratio (z) = 0.23177 0.58663
#
# Static dielectric constant tensor:
#      x y z
#    x 3.866760 0.000000 0.000000 
#    y 0.000000 3.349540 0.000000 
#    z 0.000000 0.000000 3.564210 
# 
# 
# High freq. dielectric constant tensor:
#      x y z
#    x 1.805570 0.000000 0.000000 
#    y 0.000000 1.768120 0.000000 
#    z 0.000000 0.000000 1.770460 
# 
# From -- ./inp_files/3267.got.cif
#   From: 2010.03.12/outbox.cif.g09.slc.cpg/sg73_2_cif.got.tgz:3267.got - 2010.04.16 15:25:48.
