data_PCOD8295347
_publ_section_title
;
Structure prediction by ZEFSAII (Michael W. Deem and Ramdas Pophale) SiO2 
 PCOD8295347
Probable space group: I B A M
;
_chemical_formula_sum "Si O2"
_cell_formula_units_Z 64
_cell_length_a 18.237666
_cell_length_b 7.401524
_cell_length_c 16.643034
_cell_angle_alpha 90.000000
_cell_angle_beta 90.000000
_cell_angle_gamma 90.000000
_cell_volume 2246.585285
_symmetry_space_group_name_H-M "I B A M"
_symmetry_group_IT_number 72
_symmetry_cell_setting 'orthorhombic'
loop_
_space_group_symop_operation_xyz
x,y,z
-x,-y,z
x,-y,1/2-z
-x,y,1/2-z
-x,-y,-z
x,y,-z
-x,y,1/2+z
x,-y,1/2+z
1/2+x,1/2+y,1/2+z
1/2-x,1/2-y,1/2+z
1/2+x,1/2-y,-z
1/2-x,1/2+y,-z
1/2-x,1/2-y,1/2-z
1/2+x,1/2+y,1/2-z
1/2-x,1/2+y,z
1/2+x,1/2-y,z
loop_
_atom_site_type_symbol
_atom_site_label
_atom_site_fract_x
_atom_site_fract_y
_atom_site_fract_z
Si Si1 0.109992 0.037395 0.656002
Si Si2 0.759683 0.764897 0.407395
Si Si3 0.007566 0.728947 0.592553
Si Si4 0.862162 0.538213 0.157230
O O1 0.190885 0.059750 0.618469
O O2 0.066345 0.233018 0.645305
O O3 0.112286 0.000000 0.750000
O O4 0.063234 0.894479 0.606226
O O5 0.738277 0.779691 0.500000
O O6 0.809480 0.592052 0.392180
O O7 0.683437 0.770638 0.354637
O O8 0.985334 0.714855 0.500000
O O9 0.055807 0.550772 0.618772
O O10 0.868348 0.500000 0.250000
#
# Coordination Sequence:
#
# PCOD8295347 Si02
#       4
#    16  16  16  16
#     4  11  23  42  69 100 136 181 228 282 344 410
#     4  12  24  43  68 100 138 183 232 288 346 410
#     4  11  22  41  66  98 134 180 231 282 339 407
#     4  12  26  44  68 100 139 184 231 286 346 411
#
# _framework density 28.487680000000001
#
# number of rings (size 3 to 8) (size 9 to 14) (size 15 to 20)
#    0.000    0.500    0.000   11.250    0.000    1.000 
#    0.000    5.000    0.000    0.000    0.000    0.000 
#    0.000    0.000    0.000    0.000    0.000    0.000 
#
# Total GULP energy -397047.803178 kJ/mol
# GULP energy per Si atom -12407.743849 kJ/mol
# Density = 2.842284 g / cm^3
# Si number density = 28.487680 Si / 1000 Ang^3
#
#
#
# Elastic Constant Matrix: (Units=GPa)
#
#
# Indices 1 2 3 4 5 6 
#
# 1 223.6209 2.7020 81.2494 0.0000 0.0000 0.0000
# 2 2.7020 35.0308 28.5620 0.0000 0.0000 0.0000
# 3 81.2494 28.5620 247.3957 0.0000 0.0000 0.0000
# 4 0.0000 0.0000 0.0000 42.1830 0.0000 0.0000
# 5 0.0000 0.0000 0.0000 0.0000 9.8935 0.0000
# 6 0.0000 0.0000 0.0000 0.0000 0.0000 37.3363
#
#
#
# Elastic Compliance Matrix: (Units=1/GPa)
#
#
# Indices 1 2 3 4 5 6 
#
# 1 0.005114 0.001076 -0.001804 0.000000 0.000000 0.000000
# 2 0.001076 0.031739 -0.004018 0.000000 0.000000 0.000000
# 3 -0.001804 -0.004018 0.005098 0.000000 0.000000 0.000000
# 4 0.000000 0.000000 0.000000 0.023706 0.000000 0.000000
# 5 0.000000 0.000000 0.000000 0.000000 0.101076 0.000000
# 6 0.000000 0.000000 0.000000 0.000000 0.000000 0.026784
#
#
# Mechanical properties :
#
#
# Convention : Reuss Voigt Hill
#
# Bulk Modulus (GPa) = 30.80612 81.23047 56.01830
# Shear Modulus (GPa) = 23.38316 44.11817 33.75066
#
# Velocity S-wave (km/s) = 2.86810 3.93959 3.44575
# Velocity P-wave (km/s) = 4.66961 7.01926 5.96135
#
# Compressibility (1/GPa) = 0.03246108
#
# Stress axis : x y z
#
# Youngs Moduli (GPa) = 195.53161 31.50681 196.14026
#
# Poissons Ratio (x) = -0.03391 0.35381
# Poissons Ratio (y) = -0.21045 0.78805
# Poissons Ratio (z) = 0.35272 0.12659
#
# Static dielectric constant tensor:
#      x y z
#    x 6.291900 0.000000 0.000000 
#    y 0.000000 6.884510 0.000000 
#    z 0.000000 0.000000 4.535460 
# 
# 
# High freq. dielectric constant tensor:
#      x y z
#    x 2.206790 0.000000 0.000000 
#    y 0.000000 2.222650 0.000000 
#    z 0.000000 0.000000 2.128150 
# 
# From -- ./inp_files/24746.got.cif
#   From: 2010.03.12/outbox.cif.g09.slc.cpg/sg72_13_cif.got.tgz:24746.got - 2010.04.16 14:54:00.
