data_PCOD8295263
_publ_section_title
;
Structure prediction by ZEFSAII (Michael W. Deem and Ramdas Pophale) SiO2 
 PCOD8295263
Probable space group: I B A M
;
_chemical_formula_sum "Si O2"
_cell_formula_units_Z 96
_cell_length_a 26.064062
_cell_length_b 28.033048
_cell_length_c 9.507225
_cell_angle_alpha 90.000000
_cell_angle_beta 90.000000
_cell_angle_gamma 90.000000
_cell_volume 6946.502444
_symmetry_space_group_name_H-M "I B A M"
_symmetry_group_IT_number 72
_symmetry_cell_setting 'orthorhombic'
loop_
_space_group_symop_operation_xyz
x,y,z
-x,-y,z
x,-y,1/2-z
-x,y,1/2-z
-x,-y,-z
x,y,-z
-x,y,1/2+z
x,-y,1/2+z
1/2+x,1/2+y,1/2+z
1/2-x,1/2-y,1/2+z
1/2+x,1/2-y,-z
1/2-x,1/2+y,-z
1/2-x,1/2-y,1/2-z
1/2+x,1/2+y,1/2-z
1/2-x,1/2+y,z
1/2+x,1/2-y,z
loop_
_atom_site_type_symbol
_atom_site_label
_atom_site_fract_x
_atom_site_fract_y
_atom_site_fract_z
Si Si1 0.898839 0.605957 0.761261
Si Si2 0.428263 0.041117 0.500000
Si Si3 0.546879 0.933741 0.000000
Si Si4 0.228960 0.794686 0.164953
Si Si5 0.550721 0.797844 0.340190
Si Si6 0.871242 0.251121 0.154859
Si Si7 0.196523 0.346048 0.342797
O O1 0.899688 0.560384 0.862552
O O2 0.937779 0.597271 0.633782
O O3 0.917292 0.653209 0.841942
O O4 0.840338 0.611180 0.708341
O O5 0.486403 0.059390 0.500000
O O6 0.424155 0.984269 0.500000
O O7 0.250000 0.750000 0.250000
O O8 0.166804 0.794065 0.182271
O O9 0.254781 0.841351 0.236560
O O10 0.244340 0.791624 0.000000
O O11 0.500000 0.804548 0.250000
O O12 0.537313 0.783678 0.500000
O O13 0.584555 0.755088 0.271976
O O14 0.836718 0.298243 0.156754
O O15 0.896751 0.246146 0.000000
O O16 0.216880 0.357096 0.500000
#
# Coordination Sequence:
#
# PCOD8295263 Si02
#       7
#    16   8   8  16  16  16  16
#     4  11  21  32  45  60  75  94 122 160 201 242
#     4  11  22  34  48  60  69  94 126 160 198 251
#     4  11  22  36  46  56  75  94 122 158 206 247
#     4   9  16  25  41  58  77  97 118 144 178 223
#     4  11  21  29  42  58  76 102 129 159 193 229
#     4   8  16  28  39  56  78  98 120 149 182 220
#     4   9  17  28  41  57  76  97 115 146 189 229
#
# _framework density 13.819903999999999
#
# number of rings (size 3 to 8) (size 9 to 14) (size 15 to 20)
#    0.000    2.167    1.667    4.000    3.500    6.000 
#    0.000    0.000    0.000    0.000    0.000    0.000 
#    0.000    0.000    0.000    0.000    0.000    0.000 
#
# Total GULP energy -594953.268004 kJ/mol
# GULP energy per Si atom -12394.859750 kJ/mol
# Density = 1.378845 g / cm^3
# Si number density = 13.819904 Si / 1000 Ang^3
#
#
#
# Elastic Constant Matrix: (Units=GPa)
#
#
# Indices 1 2 3 4 5 6 
#
# 1 43.8143 25.6617 31.6869 0.0000 0.0000 0.0000
# 2 25.6617 28.3186 20.3540 0.0000 0.0000 0.0000
# 3 31.6869 20.3540 113.3557 0.0000 0.0000 0.0000
# 4 0.0000 0.0000 0.0000 12.7701 0.0000 0.0000
# 5 0.0000 0.0000 0.0000 0.0000 25.2026 0.0000
# 6 0.0000 0.0000 0.0000 0.0000 0.0000 22.0251
#
#
#
# Elastic Compliance Matrix: (Units=1/GPa)
#
#
# Indices 1 2 3 4 5 6 
#
# 1 0.053237 -0.043110 -0.007141 0.000000 0.000000 0.000000
# 2 -0.043110 0.075454 -0.001498 0.000000 0.000000 0.000000
# 3 -0.007141 -0.001498 0.011087 0.000000 0.000000 0.000000
# 4 0.000000 0.000000 0.000000 0.078308 0.000000 0.000000
# 5 0.000000 0.000000 0.000000 0.000000 0.039678 0.000000
# 6 0.000000 0.000000 0.000000 0.000000 0.000000 0.045403
#
#
# Mechanical properties :
#
#
# Convention : Reuss Voigt Hill
#
# Bulk Modulus (GPa) = 27.56248 37.87709 32.71979
# Shear Modulus (GPa) = 11.94007 19.18529 15.56268
#
# Velocity S-wave (km/s) = 2.94254 3.72995 3.35939
# Velocity P-wave (km/s) = 5.61534 6.78359 6.22692
#
# Compressibility (1/GPa) = 0.03628120
#
# Stress axis : x y z
#
# Youngs Moduli (GPa) = 18.78392 13.25308 90.19697
#
# Poissons Ratio (x) = 0.57134 0.64408
# Poissons Ratio (y) = 0.80977 0.13510
# Poissons Ratio (z) = 0.13413 0.01985
#
# Static dielectric constant tensor:
#      x y z
#    x 2.939930 0.000000 0.000000 
#    y 0.000000 2.534710 0.000000 
#    z 0.000000 0.000000 2.956720 
# 
# 
# High freq. dielectric constant tensor:
#      x y z
#    x 1.506730 0.000000 0.000000 
#    y 0.000000 1.465150 0.000000 
#    z 0.000000 0.000000 1.551000 
# 
# From -- ./inp_files/8304.got.cif
#   From: 2010.03.12/outbox.cif.g09.slc.cpg/sg72_5_cif.got.tgz:8304.got - 2010.04.16 14:54:00.
