data_PCOD8295004
_publ_section_title
;
Structure prediction by ZEFSAII (Michael W. Deem and Ramdas Pophale) SiO2 
 PCOD8295004
Probable space group: I B A M
;
_chemical_formula_sum "Si O2"
_cell_formula_units_Z 96
_cell_length_a 9.388557
_cell_length_b 20.530494
_cell_length_c 25.266852
_cell_angle_alpha 90.000000
_cell_angle_beta 90.000000
_cell_angle_gamma 90.000000
_cell_volume 4870.229009
_symmetry_space_group_name_H-M "I B A M"
_symmetry_group_IT_number 72
_symmetry_cell_setting 'orthorhombic'
loop_
_space_group_symop_operation_xyz
x,y,z
-x,-y,z
x,-y,1/2-z
-x,y,1/2-z
-x,-y,-z
x,y,-z
-x,y,1/2+z
x,-y,1/2+z
1/2+x,1/2+y,1/2+z
1/2-x,1/2-y,1/2+z
1/2+x,1/2-y,-z
1/2-x,1/2+y,-z
1/2-x,1/2-y,1/2-z
1/2+x,1/2+y,1/2-z
1/2-x,1/2+y,z
1/2+x,1/2-y,z
loop_
_atom_site_type_symbol
_atom_site_label
_atom_site_fract_x
_atom_site_fract_y
_atom_site_fract_z
Si Si1 0.391151 0.195352 0.394845
Si Si2 0.653770 0.568969 0.773109
Si Si3 0.841384 0.691174 0.772457
Si Si4 0.085856 0.804653 0.061111
Si Si5 0.894310 0.941615 0.396935
Si Si6 0.911408 0.439355 0.438713
O O1 0.340397 0.199227 0.335034
O O2 0.255027 0.204628 0.432735
O O3 0.507792 0.249638 0.405395
O O4 0.459536 0.124621 0.406344
O O5 0.705973 0.500000 0.750000
O O6 0.500000 0.588280 0.750000
O O7 0.767092 0.623420 0.755808
O O8 0.645984 0.563364 0.835885
O O9 0.750000 0.750000 0.750000
O O10 0.000000 0.692521 0.750000
O O11 0.034572 0.874128 0.084030
O O12 0.043624 0.798772 0.000000
O O13 0.754534 0.954799 0.431442
O O14 0.000000 0.000000 0.408786
O O15 0.946320 0.427562 0.500000
O O16 0.000000 0.500000 0.415882
#
# Coordination Sequence:
#
# PCOD8295004 Si02
#       6
#    16  16  16  16  16  16
#     4  11  23  43  62  93 129 166 211 262 319 377
#     4  11  23  43  66  92 129 173 218 264 325 382
#     4  12  26  42  67  97 130 171 214 267 321 390
#     4  11  23  40  66  92 127 168 213 265 316 380
#     4  11  22  41  64  92 126 167 213 265 316 380
#     4  10  22  41  66  92 129 168 210 266 321 380
#
# _framework density 19.711597999999999
#
# number of rings (size 3 to 8) (size 9 to 14) (size 15 to 20)
#    0.000    1.000    5.000    4.500    2.333    4.333 
#    0.000    1.667    0.000    0.000    0.000    0.000 
#    0.000    0.000    0.000    0.000    0.000    0.000 
#
# Total GULP energy -595424.415524 kJ/mol
# GULP energy per Si atom -12404.675323 kJ/mol
# Density = 1.966673 g / cm^3
# Si number density = 19.711598 Si / 1000 Ang^3
#
#
#
# Elastic Constant Matrix: (Units=GPa)
#
#
# Indices 1 2 3 4 5 6 
#
# 1 91.8390 89.2790 13.7692 0.0000 0.0000 0.0000
# 2 89.2790 195.6715 47.7118 0.0000 0.0000 0.0000
# 3 13.7692 47.7118 100.7594 0.0000 0.0000 0.0000
# 4 0.0000 0.0000 0.0000 32.0460 0.0000 0.0000
# 5 0.0000 0.0000 0.0000 0.0000 32.4785 0.0000
# 6 0.0000 0.0000 0.0000 0.0000 0.0000 51.0688
#
#
#
# Elastic Compliance Matrix: (Units=1/GPa)
#
#
# Indices 1 2 3 4 5 6 
#
# 1 0.019847 -0.009490 0.001782 0.000000 0.000000 0.000000
# 2 -0.009490 0.010315 -0.003588 0.000000 0.000000 0.000000
# 3 0.001782 -0.003588 0.011380 0.000000 0.000000 0.000000
# 4 0.000000 0.000000 0.000000 0.031205 0.000000 0.000000
# 5 0.000000 0.000000 0.000000 0.000000 0.030790 0.000000
# 6 0.000000 0.000000 0.000000 0.000000 0.000000 0.019581
#
#
# Mechanical properties :
#
#
# Convention : Reuss Voigt Hill
#
# Bulk Modulus (GPa) = 52.77019 76.64332 64.70676
# Shear Modulus (GPa) = 32.88875 38.95265 35.92070
#
# Velocity S-wave (km/s) = 4.08916 4.45019 4.27349
# Velocity P-wave (km/s) = 7.00886 8.08532 7.56626
#
# Compressibility (1/GPa) = 0.01895009
#
# Stress axis : x y z
#
# Youngs Moduli (GPa) = 50.38551 96.94223 87.87310
#
# Poissons Ratio (x) = 0.91998 -0.15655
# Poissons Ratio (y) = 0.47816 0.31527
# Poissons Ratio (z) = -0.08976 0.34780
#
# Static dielectric constant tensor:
#      x y z
#    x 3.813180 0.000000 0.000000 
#    y 0.000000 4.018020 0.000000 
#    z 0.000000 0.000000 3.730220 
# 
# 
# High freq. dielectric constant tensor:
#      x y z
#    x 1.760260 0.000000 0.000000 
#    y 0.000000 1.785880 0.000000 
#    z 0.000000 0.000000 1.781090 
# 
# From -- ./inp_files/47315.got.cif
#   From: 2010.03.12/outbox.cif.g09.slc.cpg/sg72_24_cif.got.tgz:47315.got - 2010.04.16 14:54:00.
