data_PCOD8295020
_publ_section_title
;
Structure prediction by ZEFSAII (Michael W. Deem and Ramdas Pophale) SiO2 
 PCOD8295020
Probable space group: I B A M
;
_chemical_formula_sum "Si O2"
_cell_formula_units_Z 80
_cell_length_a 7.235741
_cell_length_b 26.211135
_cell_length_c 18.282750
_cell_angle_alpha 90.000000
_cell_angle_beta 90.000000
_cell_angle_gamma 90.000000
_cell_volume 3467.451227
_symmetry_space_group_name_H-M "I B A M"
_symmetry_group_IT_number 72
_symmetry_cell_setting 'orthorhombic'
loop_
_space_group_symop_operation_xyz
x,y,z
-x,-y,z
x,-y,1/2-z
-x,y,1/2-z
-x,-y,-z
x,y,-z
-x,y,1/2+z
x,-y,1/2+z
1/2+x,1/2+y,1/2+z
1/2-x,1/2-y,1/2+z
1/2+x,1/2-y,-z
1/2-x,1/2+y,-z
1/2-x,1/2-y,1/2-z
1/2+x,1/2+y,1/2-z
1/2-x,1/2+y,z
1/2+x,1/2-y,z
loop_
_atom_site_type_symbol
_atom_site_label
_atom_site_fract_x
_atom_site_fract_y
_atom_site_fract_z
Si Si1 0.949030 0.160472 0.081908
Si Si2 0.150672 0.418102 0.917963
Si Si3 0.794766 0.009587 0.334718
Si Si4 0.300326 0.693846 0.275359
Si Si5 0.813394 0.625842 0.653781
O O1 0.858889 0.104114 0.082545
O O2 0.815708 0.193463 0.136276
O O3 0.163310 0.157916 0.106684
O O4 0.939926 0.184141 0.000000
O O5 0.151528 0.471527 0.874616
O O6 0.016226 0.374754 0.882534
O O7 0.081424 0.429075 0.000000
O O8 0.779888 0.000000 0.250000
O O9 0.745034 0.067559 0.347490
O O10 0.000000 0.000000 0.364924
O O11 0.500000 0.675904 0.250000
O O12 0.250000 0.750000 0.250000
O O13 0.169148 0.651869 0.234922
#
# Coordination Sequence:
#
# PCOD8295020 Si02
#       5
#    16  16  16  16  16
#     4  10  22  42  64  94 133 170 213 276 336 395
#     4  11  24  40  66  99 134 179 220 267 336 397
#     4  11  23  39  63  94 133 181 225 270 319 395
#     4  10  24  43  69  98 124 172 222 281 344 403
#     4  11  23  41  67  93 132 172 223 275 327 400
#
# _framework density 23.071701999999998
#
# number of rings (size 3 to 8) (size 9 to 14) (size 15 to 20)
#    0.000    1.400    2.000    2.400    8.400    6.000 
#    0.000    5.000    0.000    0.000    0.000    0.000 
#    0.000    0.000    0.000    0.000    0.000    0.000 
#
# Total GULP energy -495690.995829 kJ/mol
# GULP energy per Si atom -12392.274896 kJ/mol
# Density = 2.301919 g / cm^3
# Si number density = 23.071702 Si / 1000 Ang^3
#
#
#
# Elastic Constant Matrix: (Units=GPa)
#
#
# Indices 1 2 3 4 5 6 
#
# 1 91.3552 15.5814 42.2652 0.0000 0.0000 0.0000
# 2 15.5814 91.1315 38.7899 0.0000 0.0000 0.0000
# 3 42.2652 38.7899 168.6264 -0.0001 0.0001 0.0000
# 4 0.0000 0.0000 -0.0001 30.7025 0.0000 0.0000
# 5 0.0000 0.0000 0.0001 0.0000 58.6217 0.0000
# 6 0.0000 0.0000 0.0000 0.0000 0.0000 30.8200
#
#
#
# Elastic Compliance Matrix: (Units=1/GPa)
#
#
# Indices 1 2 3 4 5 6 
#
# 1 0.012446 -0.000887 -0.002916 0.000000 0.000000 0.000000
# 2 -0.000887 0.012227 -0.002590 0.000000 0.000000 0.000000
# 3 -0.002916 -0.002590 0.007257 0.000000 0.000000 0.000000
# 4 0.000000 0.000000 0.000000 0.032571 0.000000 0.000000
# 5 0.000000 0.000000 0.000000 0.000000 0.017059 0.000000
# 6 0.000000 0.000000 0.000000 0.000000 0.000000 0.032446
#
#
# Mechanical properties :
#
#
# Convention : Reuss Voigt Hill
#
# Bulk Modulus (GPa) = 52.23361 60.48733 56.36047
# Shear Modulus (GPa) = 37.54483 40.99393 39.26938
#
# Velocity S-wave (km/s) = 4.03837 4.21979 4.13008
# Velocity P-wave (km/s) = 6.66584 7.07221 6.87203
#
# Compressibility (1/GPa) = 0.01914476
#
# Stress axis : x y z
#
# Youngs Moduli (GPa) = 80.34411 81.78341 137.79946
#
# Poissons Ratio (x) = 0.07255 0.40177
# Poissons Ratio (y) = 0.07127 0.35696
# Poissons Ratio (z) = 0.23425 0.21185
#
# Static dielectric constant tensor:
#      x y z
#    x 4.572620 0.000000 0.000000 
#    y 0.000000 3.636440 0.000000 
#    z 0.000000 0.000000 4.469300 
# 
# 
# High freq. dielectric constant tensor:
#      x y z
#    x 1.925080 0.000000 0.000000 
#    y 0.000000 1.885800 0.000000 
#    z 0.000000 0.000000 1.914400 
# 
# From -- ./inp_files/28104.got.cif
#   From: 2010.03.12/outbox.cif.g09.slc.cpg/sg72_15_cif.got.tgz:28104.got - 2010.04.16 14:54:00.
