data_PCOD8295448
_publ_section_title
;
Structure prediction by ZEFSAII (Michael W. Deem and Ramdas Pophale) SiO2 
 PCOD8295448
Probable space group: I B A M
;
_chemical_formula_sum "Si O2"
_cell_formula_units_Z 48
_cell_length_a 7.194552
_cell_length_b 18.096620
_cell_length_c 17.299748
_cell_angle_alpha 90.000000
_cell_angle_beta 90.000000
_cell_angle_gamma 90.000000
_cell_volume 2252.376564
_symmetry_space_group_name_H-M "I B A M"
_symmetry_group_IT_number 72
_symmetry_cell_setting 'orthorhombic'
loop_
_space_group_symop_operation_xyz
x,y,z
-x,-y,z
x,-y,1/2-z
-x,y,1/2-z
-x,-y,-z
x,y,-z
-x,y,1/2+z
x,-y,1/2+z
1/2+x,1/2+y,1/2+z
1/2-x,1/2-y,1/2+z
1/2+x,1/2-y,-z
1/2-x,1/2+y,-z
1/2-x,1/2-y,1/2-z
1/2+x,1/2+y,1/2-z
1/2-x,1/2+y,z
1/2+x,1/2-y,z
loop_
_atom_site_type_symbol
_atom_site_label
_atom_site_fract_x
_atom_site_fract_y
_atom_site_fract_z
Si Si1 0.442368 0.916601 0.664078
Si Si2 0.288494 0.191420 0.588357
Si Si3 0.579358 0.664029 0.664463
O O1 0.500000 0.892227 0.750000
O O2 0.545624 0.865753 0.602060
O O3 0.220087 0.905341 0.656244
O O4 0.500000 0.000000 0.646568
O O5 0.295647 0.217814 0.500000
O O6 0.306772 0.261863 0.644282
O O7 0.091279 0.152484 0.605623
O O8 0.500000 0.669422 0.750000
#
# Coordination Sequence:
#
# PCOD8295448 Si02
#       3
#    16  16  16
#     4  11  25  46  68  97 135 179 226 279 340 401
#     4  12  25  41  68 104 137 175 224 282 340 399
#     4  12  23  42  72 101 134 178 230 275 327 406
#
# _framework density 21.310824
#
# number of rings (size 3 to 8) (size 9 to 14) (size 15 to 20)
#    0.000    0.333    6.667    3.000    0.000    3.333 
#    0.000    1.667    0.000    0.000    0.000    0.000 
#    0.000    0.000    0.000    0.000    0.000    0.000 
#
# Total GULP energy -297736.503127 kJ/mol
# GULP energy per Si atom -12405.687630 kJ/mol
# Density = 2.126232 g / cm^3
# Si number density = 21.310824 Si / 1000 Ang^3
#
#
#
# Elastic Constant Matrix: (Units=GPa)
#
#
# Indices 1 2 3 4 5 6 
#
# 1 164.9998 55.5587 51.8275 0.0000 0.0000 0.0000
# 2 55.5587 109.8266 47.0897 0.0000 0.0000 0.0000
# 3 51.8275 47.0897 87.5451 0.0000 0.0000 0.0000
# 4 0.0000 0.0000 0.0000 9.7364 0.0000 0.0000
# 5 0.0000 0.0000 0.0000 0.0000 27.6450 0.0000
# 6 0.0000 0.0000 0.0000 0.0000 0.0000 39.8856
#
#
#
# Elastic Compliance Matrix: (Units=1/GPa)
#
#
# Indices 1 2 3 4 5 6 
#
# 1 0.007984 -0.002616 -0.003320 0.000000 0.000000 0.000000
# 2 -0.002616 0.012692 -0.005278 0.000000 0.000000 0.000000
# 3 -0.003320 -0.005278 0.016227 0.000000 0.000000 0.000000
# 4 0.000000 0.000000 0.000000 0.102708 0.000000 0.000000
# 5 0.000000 0.000000 0.000000 0.000000 0.036173 0.000000
# 6 0.000000 0.000000 0.000000 0.000000 0.000000 0.025072
#
#
# Mechanical properties :
#
#
# Convention : Reuss Voigt Hill
#
# Bulk Modulus (GPa) = 69.08158 74.59149 71.83653
# Shear Modulus (GPa) = 21.91952 29.31311 25.61631
#
# Velocity S-wave (km/s) = 3.21060 3.71280 3.47080
# Velocity P-wave (km/s) = 6.79930 7.31147 7.06003
#
# Compressibility (1/GPa) = 0.01447564
#
# Stress axis : x y z
#
# Youngs Moduli (GPa) = 125.24915 78.79265 61.62519
#
# Poissons Ratio (x) = 0.20609 0.20458
# Poissons Ratio (y) = 0.32760 0.32527
# Poissons Ratio (z) = 0.41580 0.41589
#
# Static dielectric constant tensor:
#      x y z
#    x 4.268370 0.000000 0.000000 
#    y 0.000000 3.624300 0.000000 
#    z 0.000000 0.000000 3.764250 
# 
# 
# High freq. dielectric constant tensor:
#      x y z
#    x 1.861000 0.000000 0.000000 
#    y 0.000000 1.812580 0.000000 
#    z 0.000000 0.000000 1.833340 
# 
# From -- ./inp_files/18107.got.cif
#   From: 2010.03.12/outbox.cif.g09.slc.cpg/sg72_10_cif.got.tgz:18107.got - 2010.04.16 14:54:00.
