data_PCOD8295455
_publ_section_title
;
Structure prediction by ZEFSAII (Michael W. Deem and Ramdas Pophale) SiO2 
 PCOD8295455
Probable space group: I B A M
;
_chemical_formula_sum "Si O2"
_cell_formula_units_Z 96
_cell_length_a 21.783505
_cell_length_b 21.676266
_cell_length_c 10.204326
_cell_angle_alpha 90.000000
_cell_angle_beta 90.000000
_cell_angle_gamma 90.000000
_cell_volume 4818.330170
_symmetry_space_group_name_H-M "I B A M"
_symmetry_group_IT_number 72
_symmetry_cell_setting 'orthorhombic'
loop_
_space_group_symop_operation_xyz
x,y,z
-x,-y,z
x,-y,1/2-z
-x,y,1/2-z
-x,-y,-z
x,y,-z
-x,y,1/2+z
x,-y,1/2+z
1/2+x,1/2+y,1/2+z
1/2-x,1/2-y,1/2+z
1/2+x,1/2-y,-z
1/2-x,1/2+y,-z
1/2-x,1/2-y,1/2-z
1/2+x,1/2+y,1/2-z
1/2-x,1/2+y,z
1/2+x,1/2-y,z
loop_
_atom_site_type_symbol
_atom_site_label
_atom_site_fract_x
_atom_site_fract_y
_atom_site_fract_z
Si Si1 0.168996 0.252984 0.353601
Si Si2 0.230971 0.373430 0.344638
Si Si3 0.388242 0.946863 0.349607
Si Si4 0.434512 0.420600 0.500000
Si Si5 0.956054 0.325808 0.140016
Si Si6 0.078085 0.066052 0.500000
Si Si7 0.639733 0.376378 0.754396
O O1 0.188206 0.229828 0.500000
O O2 0.219180 0.302075 0.294988
O O3 0.107536 0.291496 0.365399
O O4 0.153114 0.196231 0.259751
O O5 0.235741 0.369811 0.500000
O O6 0.176277 0.418134 0.301714
O O7 0.292895 0.403629 0.285852
O O8 0.383336 0.970596 0.500000
O O9 0.442676 0.897643 0.335698
O O10 0.406293 0.000000 0.250000
O O11 0.507769 0.411549 0.500000
O O12 0.417065 0.492470 0.500000
O O13 0.407621 0.387686 0.628026
O O14 0.000000 0.297635 0.250000
O O15 0.989836 0.317360 0.000000
O O16 0.112288 0.092153 0.373668
#
# Coordination Sequence:
#
# PCOD8295455 Si02
#       7
#    16  16  16   8  16   8  16
#     4   9  19  38  60  88 122 151 188 243 297 344
#     4   9  19  38  60  88 122 151 188 243 297 344
#     4   9  19  36  56  80 115 154 191 237 287 334
#     4  11  26  44  61  86 122 158 199 254 302 345
#     4   9  19  36  56  80 115 154 191 237 287 334
#     4  11  26  44  61  86 122 158 199 254 302 345
#     4  12  21  41  66  90 112 158 200 231 293 366
#
# _framework density 19.923915000000001
#
# number of rings (size 3 to 8) (size 9 to 14) (size 15 to 20)
#    0.000    2.167    1.667    3.500    0.000    5.000 
#    3.000    1.667    0.000    0.000    0.000    0.000 
#    0.000    0.000    0.000    0.000    0.000    0.000 
#
# Total GULP energy -594954.676073 kJ/mol
# GULP energy per Si atom -12394.889085 kJ/mol
# Density = 1.987857 g / cm^3
# Si number density = 19.923915 Si / 1000 Ang^3
#
#
#
# Elastic Constant Matrix: (Units=GPa)
#
#
# Indices 1 2 3 4 5 6 
#
# 1 76.8664 3.8702 27.5411 0.0000 0.0000 0.0000
# 2 3.8702 58.2244 19.3165 0.0000 0.0000 0.0000
# 3 27.5411 19.3165 87.0309 0.0000 0.0000 0.0000
# 4 0.0000 0.0000 0.0000 -13.5636 0.0000 0.0000
# 5 0.0000 0.0000 0.0000 0.0000 24.1246 0.0000
# 6 0.0000 0.0000 0.0000 0.0000 0.0000 12.6416
#
#
#
# Elastic Compliance Matrix: (Units=1/GPa)
#
#
# Indices 1 2 3 4 5 6 
#
# 1 0.014693 0.000611 -0.004785 0.000000 0.000000 0.000000
# 2 0.000611 0.018566 -0.004314 0.000000 0.000000 0.000000
# 3 -0.004785 -0.004314 0.013962 0.000000 0.000000 0.000000
# 4 0.000000 0.000000 0.000000 -0.073727 0.000000 0.000000
# 5 0.000000 0.000000 0.000000 0.000000 0.041451 0.000000
# 6 0.000000 0.000000 0.000000 0.000000 0.000000 0.079104
#
#
# Mechanical properties :
#
#
# Convention : Reuss Voigt Hill
#
# Bulk Modulus (GPa) = 33.06423 35.95302 34.50862
# Shear Modulus (GPa) = 41.28568 16.06679 28.67623
#
# Velocity S-wave (km/s) = 4.55704 2.84281 3.79791
# Velocity P-wave (km/s) = 6.65734 5.37213 6.04896
#
# Compressibility (1/GPa) = 0.03024416
#
# Stress axis : x y z
#
# Youngs Moduli (GPa) = 68.05770 53.86331 71.62303
#
# Poissons Ratio (x) = -0.03291 0.34274
# Poissons Ratio (y) = -0.04158 0.30898
# Poissons Ratio (z) = 0.32568 0.23236
#
# Static dielectric constant tensor:
#      x y z
#    x 3.706540 0.000000 0.000000 
#    y 0.000000 3.624480 0.000000 
#    z 0.000000 0.000000 0.124620 
# 
# 
# High freq. dielectric constant tensor:
#      x y z
#    x 1.782580 0.000000 0.000000 
#    y 0.000000 1.772100 0.000000 
#    z 0.000000 0.000000 1.774680 
# 
# From -- ./inp_files/7004.got.cif
#   From: 2010.03.12/outbox.cif.g09.slc.cpg/sg72_4_cif.got.tgz:7004.got - 2010.04.16 14:54:00.
