data_PCOD8295722
_publ_section_title
;
Structure prediction by ZEFSAII (Michael W. Deem and Ramdas Pophale) SiO2 
 PCOD8295722
Probable space group: I B C A 
;
_chemical_formula_sum "Si O2"
_cell_formula_units_Z 104
_cell_length_a 28.675051
_cell_length_b 21.289285
_cell_length_c 9.006057
_cell_angle_alpha 90.000000
_cell_angle_beta 90.000000
_cell_angle_gamma 90.000000
_cell_volume 5497.939623
_symmetry_space_group_name_H-M "I B C A "
_symmetry_group_IT_number 73
_symmetry_cell_setting 'orthorhombic'
loop_
_space_group_symop_operation_xyz
x,y,z
-x,1/2-y,z
x,-y,1/2-z
1/2-x,y,-z
-x,-y,-z
x,1/2+y,-z
-x,y,1/2+z
1/2+x,-y,z
1/2+x,1/2+y,1/2+z
1/2-x,-y,1/2+z
1/2+x,1/2-y,-z
-x,1/2+y,1/2-z
1/2-x,1/2-y,1/2-z
1/2+x,y,1/2-z
1/2-x,1/2+y,z
x,1/2-y,1/2+z
loop_
_atom_site_type_symbol
_atom_site_label
_atom_site_fract_x
_atom_site_fract_y
_atom_site_fract_z
Si Si1 0.000000 0.250000 0.457226
Si Si2 0.140404 0.369929 0.824605
Si Si3 0.706702 0.788523 0.169755
Si Si4 0.636665 0.316769 0.364555
Si Si5 0.063705 0.710425 0.799056
Si Si6 0.815351 0.000000 0.750000
Si Si7 0.700127 0.148911 0.626440
Si Si8 0.250000 0.040413 0.000000
O O1 0.028150 0.298821 0.563618
O O2 0.036052 0.212428 0.355681
O O3 0.182661 0.319208 0.814259
O O4 0.098386 0.347989 0.716587
O O5 0.152063 0.439482 0.770524
O O6 0.126487 0.363914 0.999014
O O7 0.683362 0.724642 0.110764
O O8 0.764367 0.792360 0.181297
O O9 0.690817 0.839623 0.045712
O O10 0.591416 0.275672 0.326796
O O11 0.651986 0.356010 0.217611
O O12 0.785887 0.999310 0.596307
O O13 0.725873 0.081937 0.631277
#
# Coordination Sequence:
#
# PCOD8295722 Si02
#       8
#     8  16  16  16  16   8  16   8
#     4  10  20  38  66  88 126 140 168 234 310 378
#     4  11  22  36  56  85 115 157 198 243 283 346
#     4   9  18  34  49  77 115 151 192 239 298 333
#     4  11  21  31  55  86 118 144 191 237 298 358
#     4  10  21  38  59  97 114 148 179 232 304 375
#     4  12  24  42  58  74 122 166 218 250 282 324
#     4  10  19  35  48  77 114 157 197 249 284 329
#     4  10  24  40  52  76 104 168 226 250 270 328
#
# _framework density 18.916179
#
# number of rings (size 3 to 8) (size 9 to 14) (size 15 to 20)
#    0.000    1.846    4.615    2.308    4.308    1.846 
#    0.000    0.000    0.000    0.923    0.000    0.000 
#    0.000    0.000    0.000    0.000    0.000    0.000 
#
# Total GULP energy -644264.083703 kJ/mol
# GULP energy per Si atom -12389.693917 kJ/mol
# Density = 1.887312 g / cm^3
# Si number density = 18.916179 Si / 1000 Ang^3
#
#
#
# Elastic Constant Matrix: (Units=GPa)
#
#
# Indices 1 2 3 4 5 6 
#
# 1 97.8281 35.9107 46.6962 0.0000 0.0000 0.0000
# 2 35.9107 73.7465 20.2578 0.0000 0.0000 0.0000
# 3 46.6962 20.2578 92.6563 0.0000 0.0000 0.0000
# 4 0.0000 0.0000 0.0000 15.6325 0.0000 0.0000
# 5 0.0000 0.0000 0.0000 0.0000 33.8564 0.0000
# 6 0.0000 0.0000 0.0000 0.0000 0.0000 19.9986
#
#
#
# Elastic Compliance Matrix: (Units=1/GPa)
#
#
# Indices 1 2 3 4 5 6 
#
# 1 0.015440 -0.005725 -0.006530 0.000000 0.000000 0.000000
# 2 -0.005725 0.016549 -0.000733 0.000000 0.000000 0.000000
# 3 -0.006530 -0.000733 0.014244 0.000000 0.000000 0.000000
# 4 0.000000 0.000000 0.000000 0.063969 0.000000 0.000000
# 5 0.000000 0.000000 0.000000 0.000000 0.029537 0.000000
# 6 0.000000 0.000000 0.000000 0.000000 0.000000 0.050004
#
#
# Mechanical properties :
#
#
# Convention : Reuss Voigt Hill
#
# Bulk Modulus (GPa) = 49.36421 52.21782 50.79101
# Shear Modulus (GPa) = 22.47487 24.65523 23.56505
#
# Velocity S-wave (km/s) = 3.45066 3.61417 3.53336
# Velocity P-wave (km/s) = 6.48298 6.71424 6.59963
#
# Compressibility (1/GPa) = 0.02025759
#
# Stress axis : x y z
#
# Youngs Moduli (GPa) = 64.76498 60.42634 70.20643
#
# Poissons Ratio (x) = 0.34594 0.45844
# Poissons Ratio (y) = 0.37078 0.05146
# Poissons Ratio (z) = 0.42291 0.04429
#
# Static dielectric constant tensor:
#      x y z
#    x 3.489890 0.000000 0.000000 
#    y 0.000000 3.134380 0.000000 
#    z 0.000000 0.000000 3.736520 
# 
# 
# High freq. dielectric constant tensor:
#      x y z
#    x 1.723500 0.000000 0.000000 
#    y 0.000000 1.690350 0.000000 
#    z 0.000000 0.000000 1.757090 
# 
# From -- ./inp_files/8564.got.cif
#   From: 2010.03.12/outbox.cif.g09.slc.cpg/sg73_5_cif.got.tgz:8564.got - 2010.04.16 15:25:48.
