data_PCOD8295376
_publ_section_title
;
Structure prediction by ZEFSAII (Michael W. Deem and Ramdas Pophale) SiO2 
 PCOD8295376
Probable space group: I B A M
;
_chemical_formula_sum "Si O2"
_cell_formula_units_Z 52
_cell_length_a 16.232131
_cell_length_b 5.264093
_cell_length_c 28.914475
_cell_angle_alpha 90.000000
_cell_angle_beta 90.000000
_cell_angle_gamma 90.000000
_cell_volume 2470.668075
_symmetry_space_group_name_H-M "I B A M"
_symmetry_group_IT_number 72
_symmetry_cell_setting 'orthorhombic'
loop_
_space_group_symop_operation_xyz
x,y,z
-x,-y,z
x,-y,1/2-z
-x,y,1/2-z
-x,-y,-z
x,y,-z
-x,y,1/2+z
x,-y,1/2+z
1/2+x,1/2+y,1/2+z
1/2-x,1/2-y,1/2+z
1/2+x,1/2-y,-z
1/2-x,1/2+y,-z
1/2-x,1/2-y,1/2-z
1/2+x,1/2+y,1/2-z
1/2-x,1/2+y,z
1/2+x,1/2-y,z
loop_
_atom_site_type_symbol
_atom_site_label
_atom_site_fract_x
_atom_site_fract_y
_atom_site_fract_z
Si Si1 0.080127 0.844914 0.822205
Si Si2 0.198009 0.000000 0.250000
Si Si3 0.944080 0.252032 0.922378
Si Si4 0.192973 0.753450 0.000000
Si Si5 0.000000 0.500000 0.250000
O O1 0.100470 0.721939 0.871856
O O2 0.063387 0.647889 0.781657
O O3 0.148821 0.022564 0.798902
O O4 0.000000 0.000000 0.834082
O O5 0.250000 0.250000 0.250000
O O6 0.866325 0.244567 0.955850
O O7 0.000000 0.500000 0.931828
O O8 0.000000 0.000000 0.929089
O O9 0.249496 0.502362 0.000000
#
# Coordination Sequence:
#
# PCOD8295376 Si02
#       5
#    16   8  16   8   4
#     4  11  23  39  67  92 127 177 227 274 317 386
#     4  12  26  38  57  91 136 172 210 268 330 390
#     4  11  24  43  71 101 126 173 232 282 324 393
#     4  12  26  46  70  98 140 176 208 276 354 414
#     4  12  16  40  68  90 132 162 230 266 326 360
#
# _framework density 21.046937
#
# number of rings (size 3 to 8) (size 9 to 14) (size 15 to 20)
#    0.000    0.615    4.615    3.692    0.000    2.462 
#    0.000    0.000    0.000    0.000    0.000    0.000 
#    0.000    0.000    0.000    0.000    0.000    0.000 
#
# Total GULP energy -322191.719728 kJ/mol
# GULP energy per Si atom -12391.989220 kJ/mol
# Density = 2.099903 g / cm^3
# Si number density = 21.046937 Si / 1000 Ang^3
#
#
#
# Elastic Constant Matrix: (Units=GPa)
#
#
# Indices 1 2 3 4 5 6 
#
# 1 134.5082 70.8362 87.6187 0.0000 0.0000 0.0000
# 2 70.8362 158.9138 58.2206 0.0000 0.0000 0.0000
# 3 87.6187 58.2206 199.7557 0.0000 0.0000 0.0000
# 4 0.0000 0.0000 0.0000 32.7306 0.0000 0.0000
# 5 0.0000 0.0000 0.0000 0.0000 361.2301 0.0000
# 6 0.0000 0.0000 0.0000 0.0000 0.0000 50.2567
#
#
#
# Elastic Compliance Matrix: (Units=1/GPa)
#
#
# Indices 1 2 3 4 5 6 
#
# 1 0.012252 -0.003910 -0.004234 0.000000 0.000000 0.000000
# 2 -0.003910 0.008293 -0.000702 0.000000 0.000000 0.000000
# 3 -0.004234 -0.000702 0.007068 0.000000 0.000000 0.000000
# 4 0.000000 0.000000 0.000000 0.030552 0.000000 0.000000
# 5 0.000000 0.000000 0.000000 0.000000 0.002768 0.000000
# 6 0.000000 0.000000 0.000000 0.000000 0.000000 0.019898
#
#
# Mechanical properties :
#
#
# Convention : Reuss Voigt Hill
#
# Bulk Modulus (GPa) = 100.80680 102.94766 101.87723
# Shear Modulus (GPa) = 49.10103 107.27696 78.18900
#
# Velocity S-wave (km/s) = 4.83528 7.14710 6.10168
# Velocity P-wave (km/s) = 8.89794 10.82255 9.90709
#
# Compressibility (1/GPa) = 0.00991997
#
# Stress axis : x y z
#
# Youngs Moduli (GPa) = 81.61978 120.58681 141.48131
#
# Poissons Ratio (x) = 0.47149 0.59910
# Poissons Ratio (y) = 0.31913 0.09932
# Poissons Ratio (z) = 0.34562 0.08465
#
# Static dielectric constant tensor:
#      x y z
#    x 3.650350 0.000000 0.000000 
#    y 0.000000 3.992130 0.000000 
#    z 0.000000 0.000000 5.834980 
# 
# 
# High freq. dielectric constant tensor:
#      x y z
#    x 1.822650 0.000000 0.000000 
#    y 0.000000 1.836910 0.000000 
#    z 0.000000 0.000000 1.845230 
# 
# From -- ./inp_files/51635.got.cif
#   From: 2010.03.12/outbox.cif.g09.slc.cpg/sg72_26_cif.got.tgz:51635.got - 2010.04.16 14:54:00.
