data_PCOD8295089
_publ_section_title
;
Structure prediction by ZEFSAII (Michael W. Deem and Ramdas Pophale) SiO2 
 PCOD8295089
Probable space group: I B A M
;
_chemical_formula_sum "Si O2"
_cell_formula_units_Z 64
_cell_length_a 18.821590
_cell_length_b 10.064878
_cell_length_c 15.183243
_cell_angle_alpha 90.000000
_cell_angle_beta 90.000000
_cell_angle_gamma 90.000000
_cell_volume 2876.268112
_symmetry_space_group_name_H-M "I B A M"
_symmetry_group_IT_number 72
_symmetry_cell_setting 'orthorhombic'
loop_
_space_group_symop_operation_xyz
x,y,z
-x,-y,z
x,-y,1/2-z
-x,y,1/2-z
-x,-y,-z
x,y,-z
-x,y,1/2+z
x,-y,1/2+z
1/2+x,1/2+y,1/2+z
1/2-x,1/2-y,1/2+z
1/2+x,1/2-y,-z
1/2-x,1/2+y,-z
1/2-x,1/2-y,1/2-z
1/2+x,1/2+y,1/2-z
1/2-x,1/2+y,z
1/2+x,1/2-y,z
loop_
_atom_site_type_symbol
_atom_site_label
_atom_site_fract_x
_atom_site_fract_y
_atom_site_fract_z
Si Si1 0.213468 0.572790 0.160183
Si Si2 0.538251 0.624756 0.844819
Si Si3 0.058009 0.592999 0.900484
Si Si4 0.193797 0.854845 0.100068
O O1 0.237816 0.500000 0.250000
O O2 0.128913 0.572207 0.154429
O O3 0.234436 0.728493 0.146408
O O4 0.253239 0.479775 0.089315
O O5 0.500000 0.500000 0.893442
O O6 0.500000 0.637530 0.750000
O O7 0.525948 0.759036 0.898590
O O8 0.624036 0.603433 0.842834
O O9 0.000000 0.500000 0.855035
O O10 0.072887 0.548271 0.000000
O O11 0.170852 0.812143 0.000000
#
# Coordination Sequence:
#
# PCOD8295089 Si02
#       4
#    16  16  16  16
#     4  11  24  40  67  96 130 170 216 269 323 381
#     4  10  23  39  64  90 129 165 213 265 316 375
#     4  10  23  41  64  94 128 170 218 260 321 386
#     4  11  24  44  67  95 133 171 215 266 325 386
#
# _framework density 22.251055999999998
#
# number of rings (size 3 to 8) (size 9 to 14) (size 15 to 20)
#    0.000    1.500    0.000    5.250   10.500    4.000 
#    0.000    2.500    0.000    0.000    0.000    0.000 
#    0.000    0.000    0.000    0.000    0.000    0.000 
#
# Total GULP energy -396432.579176 kJ/mol
# GULP energy per Si atom -12388.518099 kJ/mol
# Density = 2.220041 g / cm^3
# Si number density = 22.251056 Si / 1000 Ang^3
#
#
#
# Elastic Constant Matrix: (Units=GPa)
#
#
# Indices 1 2 3 4 5 6 
#
# 1 87.5573 88.2037 14.1004 0.0000 0.0000 0.0000
# 2 88.2037 179.4336 1.6613 0.0000 0.0000 0.0000
# 3 14.1004 1.6613 78.5353 0.0000 0.0000 0.0000
# 4 0.0000 0.0000 0.0000 58.3320 0.0000 0.0000
# 5 0.0000 0.0000 0.0000 0.0000 22.3814 0.0000
# 6 0.0000 0.0000 0.0000 0.0000 0.0000 56.3540
#
#
#
# Elastic Compliance Matrix: (Units=1/GPa)
#
#
# Indices 1 2 3 4 5 6 
#
# 1 0.023837 -0.011680 -0.004033 0.000000 0.000000 0.000000
# 2 -0.011680 0.011297 0.001858 0.000000 0.000000 0.000000
# 3 -0.004033 0.001858 0.013418 0.000000 0.000000 0.000000
# 4 0.000000 0.000000 0.000000 0.017143 0.000000 0.000000
# 5 0.000000 0.000000 0.000000 0.000000 0.044680 0.000000
# 6 0.000000 0.000000 0.000000 0.000000 0.000000 0.017745
#
#
# Mechanical properties :
#
#
# Convention : Reuss Voigt Hill
#
# Bulk Modulus (GPa) = 47.97806 61.49521 54.73663
# Shear Modulus (GPa) = 30.71685 43.51752 37.11718
#
# Velocity S-wave (km/s) = 3.71949 4.42718 4.08868
# Velocity P-wave (km/s) = 6.32891 7.33691 6.85147
#
# Compressibility (1/GPa) = 0.02084286
#
# Stress axis : x y z
#
# Youngs Moduli (GPa) = 41.95187 88.51565 74.52758
#
# Poissons Ratio (x) = 1.03387 0.30054
# Poissons Ratio (y) = 0.49000 -0.13848
# Poissons Ratio (z) = 0.16918 -0.16447
#
# Static dielectric constant tensor:
#      x y z
#    x 3.878150 0.000000 0.000000 
#    y 0.000000 4.605770 0.000000 
#    z 0.000000 0.000000 3.756410 
# 
# 
# High freq. dielectric constant tensor:
#      x y z
#    x 1.869450 0.000000 0.000000 
#    y 0.000000 1.893430 0.000000 
#    z 0.000000 0.000000 1.865700 
# 
# From -- ./inp_files/22817.got.cif
#   From: 2010.03.12/outbox.cif.g09.slc.cpg/sg72_12_cif.got.tgz:22817.got - 2010.04.16 14:54:00.
