data_PCOD8295918
_publ_section_title
;
Structure prediction by ZEFSAII (Michael W. Deem and Ramdas Pophale) SiO2 
 PCOD8295918
Probable space group: I B C A 
;
_chemical_formula_sum "Si O2"
_cell_formula_units_Z 112
_cell_length_a 22.375826
_cell_length_b 16.016492
_cell_length_c 14.682537
_cell_angle_alpha 90.000000
_cell_angle_beta 90.000000
_cell_angle_gamma 90.000000
_cell_volume 5261.960471
_symmetry_space_group_name_H-M "I B C A "
_symmetry_group_IT_number 73
_symmetry_cell_setting 'orthorhombic'
loop_
_space_group_symop_operation_xyz
x,y,z
-x,1/2-y,z
x,-y,1/2-z
1/2-x,y,-z
-x,-y,-z
x,1/2+y,-z
-x,y,1/2+z
1/2+x,-y,z
1/2+x,1/2+y,1/2+z
1/2-x,-y,1/2+z
1/2+x,1/2-y,-z
-x,1/2+y,1/2-z
1/2-x,1/2-y,1/2-z
1/2+x,y,1/2-z
1/2-x,1/2+y,z
x,1/2-y,1/2+z
loop_
_atom_site_type_symbol
_atom_site_label
_atom_site_fract_x
_atom_site_fract_y
_atom_site_fract_z
Si Si1 0.758356 0.193638 0.099062
Si Si2 0.080039 0.942337 0.381843
Si Si3 0.132467 0.764190 0.650992
Si Si4 0.308495 0.907149 0.255910
Si Si5 0.449722 0.386011 0.184521
Si Si6 0.213047 0.123945 0.091911
Si Si7 0.462577 0.329207 0.536388
O O1 0.696098 0.222491 0.140510
O O2 0.786668 0.119957 0.156621
O O3 0.799430 0.276572 0.095425
O O4 0.750000 0.153890 0.000000
O O5 0.046082 0.915485 0.288871
O O6 0.149048 0.919146 0.396292
O O7 0.039951 0.903343 0.462776
O O8 0.079443 0.043203 0.380925
O O9 0.138645 0.844915 0.715444
O O10 0.090057 0.696035 0.694798
O O11 0.104995 0.797018 0.555470
O O12 0.252700 0.906604 0.324117
O O13 0.335397 0.000000 0.250000
O O14 0.511458 0.361114 0.134036
O O15 0.250000 0.100922 0.000000
O O16 0.500000 0.250000 0.498151
#
# Coordination Sequence:
#
# PCOD8295918 Si02
#       7
#    16  16  16  16  16  16  16
#     4  10  20  37  59  88 122 161 211 247 313 386
#     4  11  21  39  66  93 123 162 215 259 321 375
#     4  10  21  42  60  86 126 168 203 264 320 373
#     4  11  23  37  58  91 131 164 203 259 318 385
#     4  10  23  39  65  91 120 169 209 268 313 376
#     4  10  21  38  66  89 123 166 205 258 311 384
#     4  10  22  41  64  88 127 163 215 266 318 373
#
# _framework density 21.284842999999999
#
# number of rings (size 3 to 8) (size 9 to 14) (size 15 to 20)
#    0.000    1.714    0.000    6.429    4.000    2.286 
#    5.143    1.429    0.000    0.000    0.000    0.000 
#    0.000    0.000    0.000    0.000    0.000    0.000 
#
# Total GULP energy -694101.501733 kJ/mol
# GULP energy per Si atom -12394.669674 kJ/mol
# Density = 2.123640 g / cm^3
# Si number density = 21.284843 Si / 1000 Ang^3
#
#
#
# Elastic Constant Matrix: (Units=GPa)
#
#
# Indices 1 2 3 4 5 6 
#
# 1 73.4306 38.6829 19.3108 0.0000 0.0000 0.0000
# 2 38.6829 139.5693 52.5786 0.0000 0.0000 0.0000
# 3 19.3108 52.5786 100.4546 0.0000 0.0000 0.0000
# 4 0.0000 0.0000 0.0000 395.1242 0.0000 0.0000
# 5 0.0000 0.0000 0.0000 0.0000 15.0381 0.0000
# 6 0.0000 0.0000 0.0000 0.0000 0.0000 14.6965
#
#
#
# Elastic Compliance Matrix: (Units=1/GPa)
#
#
# Indices 1 2 3 4 5 6 
#
# 1 0.016018 -0.004085 -0.000941 0.000000 0.000000 0.000000
# 2 -0.004085 0.009966 -0.004431 0.000000 0.000000 0.000000
# 3 -0.000941 -0.004431 0.012455 0.000000 0.000000 0.000000
# 4 0.000000 0.000000 0.000000 0.002531 0.000000 0.000000
# 5 0.000000 0.000000 0.000000 0.000000 0.066498 0.000000
# 6 0.000000 0.000000 0.000000 0.000000 0.000000 0.068043
#
#
# Mechanical properties :
#
#
# Convention : Reuss Voigt Hill
#
# Bulk Modulus (GPa) = 51.21730 59.39989 55.30860
# Shear Modulus (GPa) = 24.88384 98.49723 61.69053
#
# Velocity S-wave (km/s) = 3.42290 6.81001 5.38946
# Velocity P-wave (km/s) = 6.30371 9.47643 8.04796
#
# Compressibility (1/GPa) = 0.01952465
#
# Stress axis : x y z
#
# Youngs Moduli (GPa) = 62.43090 100.33705 80.28911
#
# Poissons Ratio (x) = 0.40987 0.07556
# Poissons Ratio (y) = 0.25503 0.35578
# Poissons Ratio (z) = 0.05875 0.44462
#
# Static dielectric constant tensor:
#      x y z
#    x 3.736020 0.000000 0.000000 
#    y 0.000000 4.135610 0.000000 
#    z 0.000000 0.000000 3.958950 
# 
# 
# High freq. dielectric constant tensor:
#      x y z
#    x 1.821750 0.000000 0.000000 
#    y 0.000000 1.843330 0.000000 
#    z 0.000000 0.000000 1.834690 
# 
# From -- ./inp_files/19387.got.cif
#   From: 2010.03.12/outbox.cif.g09.slc.cpg/sg73_10_cif.got.tgz:19387.got - 2010.04.16 15:25:48.
