data_PCOD8295013
_publ_section_title
;
Structure prediction by ZEFSAII (Michael W. Deem and Ramdas Pophale) SiO2 
 PCOD8295013
Probable space group: I B A M
;
_chemical_formula_sum "Si O2"
_cell_formula_units_Z 88
_cell_length_a 18.303954
_cell_length_b 10.320574
_cell_length_c 22.844797
_cell_angle_alpha 90.000000
_cell_angle_beta 90.000000
_cell_angle_gamma 90.000000
_cell_volume 4315.549189
_symmetry_space_group_name_H-M "I B A M"
_symmetry_group_IT_number 72
_symmetry_cell_setting 'orthorhombic'
loop_
_space_group_symop_operation_xyz
x,y,z
-x,-y,z
x,-y,1/2-z
-x,y,1/2-z
-x,-y,-z
x,y,-z
-x,y,1/2+z
x,-y,1/2+z
1/2+x,1/2+y,1/2+z
1/2-x,1/2-y,1/2+z
1/2+x,1/2-y,-z
1/2-x,1/2+y,-z
1/2-x,1/2-y,1/2-z
1/2+x,1/2+y,1/2-z
1/2-x,1/2+y,z
1/2+x,1/2-y,z
loop_
_atom_site_type_symbol
_atom_site_label
_atom_site_fract_x
_atom_site_fract_y
_atom_site_fract_z
Si Si1 0.172549 0.785367 0.500000
Si Si2 0.395194 0.000000 0.750000
Si Si3 0.301848 0.417956 0.000000
Si Si4 0.888864 0.803982 0.121839
Si Si5 0.474782 0.231304 0.189956
Si Si6 0.276517 0.826848 0.193650
Si Si7 0.361666 0.409128 0.873610
O O1 0.227819 0.664763 0.500000
O O2 0.116779 0.773252 0.446383
O O3 0.214106 0.926075 0.500000
O O4 0.445829 0.090704 0.790497
O O5 0.343441 0.079628 0.707246
O O6 0.347481 0.379938 0.942082
O O7 0.808673 0.776669 0.148267
O O8 0.953841 0.718224 0.149161
O O9 0.904153 0.955657 0.133278
O O10 0.500000 0.305617 0.250000
O O11 0.411817 0.299640 0.153905
O O12 0.250000 0.750000 0.250000
O O13 0.213133 0.910172 0.163356
#
# Coordination Sequence:
#
# PCOD8295013 Si02
#       7
#     8   8   8  16  16  16  16
#     4  10  22  45  67 102 133 180 227 290 340 406
#     4  12  25  42  64  96 141 172 226 272 345 408
#     4  10  22  41  71  99 134 175 232 286 348 392
#     4  11  24  41  67  95 135 173 224 277 338 405
#     4  12  25  43  64  96 136 182 212 274 344 403
#     4  12  22  39  66  99 129 174 219 278 333 394
#     4  11  24  42  67 100 130 175 230 280 329 406
#
# _framework density 20.391380000000002
#
# number of rings (size 3 to 8) (size 9 to 14) (size 15 to 20)
#    0.000    0.727    5.455    1.909    0.000    3.636 
#    0.000    2.727    0.000    3.273    0.000    0.000 
#    0.000    0.000    0.000    0.000    0.000    0.000 
#
# Total GULP energy -545486.953916 kJ/mol
# GULP energy per Si atom -12397.430771 kJ/mol
# Density = 2.034497 g / cm^3
# Si number density = 20.391380 Si / 1000 Ang^3
#
#
#
# Elastic Constant Matrix: (Units=GPa)
#
#
# Indices 1 2 3 4 5 6 
#
# 1 129.5478 58.7683 68.6296 0.0000 0.0000 0.0000
# 2 58.7683 52.0720 48.5870 0.0000 0.0000 0.0000
# 3 68.6296 48.5870 162.5223 0.0000 0.0000 0.0000
# 4 0.0000 0.0000 0.0000 31.8098 0.0000 0.0000
# 5 0.0000 0.0000 0.0000 0.0000 13.7466 0.0000
# 6 0.0000 0.0000 0.0000 0.0000 0.0000 39.2050
#
#
#
# Elastic Compliance Matrix: (Units=1/GPa)
#
#
# Indices 1 2 3 4 5 6 
#
# 1 0.016234 -0.016539 -0.001911 0.000000 0.000000 0.000000
# 2 -0.016539 0.043483 -0.006015 0.000000 0.000000 0.000000
# 3 -0.001911 -0.006015 0.008758 0.000000 0.000000 0.000000
# 4 0.000000 0.000000 0.000000 0.031437 0.000000 0.000000
# 5 0.000000 0.000000 0.000000 0.000000 0.072745 0.000000
# 6 0.000000 0.000000 0.000000 0.000000 0.000000 0.025507
#
#
# Mechanical properties :
#
#
# Convention : Reuss Voigt Hill
#
# Bulk Modulus (GPa) = 51.16460 77.34577 64.25518
# Shear Modulus (GPa) = 19.71538 28.16277 23.93908
#
# Velocity S-wave (km/s) = 3.11279 3.72036 3.43006
# Velocity P-wave (km/s) = 6.16969 7.51450 6.87506
#
# Compressibility (1/GPa) = 0.01954476
#
# Stress axis : x y z
#
# Youngs Moduli (GPa) = 61.59837 22.99772 114.17726
#
# Poissons Ratio (x) = 0.38035 0.21819
# Poissons Ratio (y) = 1.01876 0.68682
# Poissons Ratio (z) = 0.11771 0.13834
#
# Static dielectric constant tensor:
#      x y z
#    x 3.800740 0.000000 0.000000 
#    y 0.000000 3.802710 0.000000 
#    z 0.000000 0.000000 4.217920 
# 
# 
# High freq. dielectric constant tensor:
#      x y z
#    x 1.803400 0.000000 0.000000 
#    y 0.000000 1.794890 0.000000 
#    z 0.000000 0.000000 1.809410 
# 
# From -- ./inp_files/38905.got.cif
#   From: 2010.03.12/outbox.cif.g09.slc.cpg/sg72_20_cif.got.tgz:38905.got - 2010.04.16 14:54:00.
