data_PCOD8295821
_publ_section_title
;
Structure prediction by ZEFSAII (Michael W. Deem and Ramdas Pophale) SiO2 
 PCOD8295821
Probable space group: I B C A 
;
_chemical_formula_sum "Si O2"
_cell_formula_units_Z 88
_cell_length_a 8.991053
_cell_length_b 28.911912
_cell_length_c 15.631006
_cell_angle_alpha 90.000000
_cell_angle_beta 90.000000
_cell_angle_gamma 90.000000
_cell_volume 4063.257081
_symmetry_space_group_name_H-M "I B C A "
_symmetry_group_IT_number 73
_symmetry_cell_setting 'orthorhombic'
loop_
_space_group_symop_operation_xyz
x,y,z
-x,1/2-y,z
x,-y,1/2-z
1/2-x,y,-z
-x,-y,-z
x,1/2+y,-z
-x,y,1/2+z
1/2+x,-y,z
1/2+x,1/2+y,1/2+z
1/2-x,-y,1/2+z
1/2+x,1/2-y,-z
-x,1/2+y,1/2-z
1/2-x,1/2-y,1/2-z
1/2+x,y,1/2-z
1/2-x,1/2+y,z
x,1/2-y,1/2+z
loop_
_atom_site_type_symbol
_atom_site_label
_atom_site_fract_x
_atom_site_fract_y
_atom_site_fract_z
Si Si1 0.456999 0.612399 0.368750
Si Si2 0.750000 0.495903 0.000000
Si Si3 0.515285 0.937422 0.546083
Si Si4 0.581563 0.704863 0.970421
Si Si5 0.722414 0.635355 0.258274
Si Si6 0.511838 0.841243 0.135801
O O1 0.456064 0.577979 0.447921
O O2 0.429950 0.665154 0.399625
O O3 0.613526 0.606025 0.319744
O O4 0.322661 0.601843 0.302305
O O5 0.650770 0.527293 0.064851
O O6 0.858226 0.463398 0.056058
O O7 0.515820 0.894899 0.610479
O O8 0.500000 0.750000 0.932476
O O9 0.486547 0.691187 0.054046
O O10 0.750000 0.713697 0.000000
O O11 0.622365 0.670415 0.201063
O O12 0.830441 0.665882 0.318130
#
# Coordination Sequence:
#
# PCOD8295821 Si02
#       6
#    16   8  16  16  16  16
#     4  10  21  39  63  83 117 156 195 234 290 345
#     4  10  20  32  58  92 114 140 200 248 286 324
#     4  10  20  36  61  85 113 154 195 242 280 346
#     4  11  24  41  61  88 117 152 195 240 281 337
#     4  10  20  36  61  89 112 154 198 234 286 349
#     4  10  21  39  63  83 117 156 195 234 290 345
#
# _framework density 21.657502999999998
#
# number of rings (size 3 to 8) (size 9 to 14) (size 15 to 20)
#    0.000    1.818    1.818    2.182    5.091    1.455 
#    0.000    5.455    0.000   76.364    0.000    0.000 
#    0.000    0.000    0.000    0.000    0.000    0.000 
#
# Total GULP energy -545445.164991 kJ/mol
# GULP energy per Si atom -12396.481023 kJ/mol
# Density = 2.160821 g / cm^3
# Si number density = 21.657503 Si / 1000 Ang^3
#
#
#
# Elastic Constant Matrix: (Units=GPa)
#
#
# Indices 1 2 3 4 5 6 
#
# 1 160.0464 29.5032 35.9438 0.0001 0.0000 0.0000
# 2 29.5032 88.7206 10.1147 0.0000 0.0000 0.0000
# 3 35.9438 10.1147 86.8010 0.0003 -0.0001 0.0000
# 4 0.0001 0.0000 0.0003 10.7352 0.0000 0.0000
# 5 0.0000 0.0000 -0.0001 0.0000 34.4085 0.0000
# 6 0.0000 0.0000 0.0000 0.0000 0.0000 24.2587
#
#
#
# Elastic Compliance Matrix: (Units=1/GPa)
#
#
# Indices 1 2 3 4 5 6 
#
# 1 0.007255 -0.002098 -0.002760 0.000000 0.000000 0.000000
# 2 -0.002098 0.012030 -0.000533 0.000000 0.000000 0.000000
# 3 -0.002760 -0.000533 0.012725 0.000000 0.000000 0.000000
# 4 0.000000 0.000000 0.000000 0.093152 0.000000 0.000000
# 5 0.000000 0.000000 0.000000 0.000000 0.029063 0.000000
# 6 0.000000 0.000000 0.000000 0.000000 0.000000 0.041222
#
#
# Mechanical properties :
#
#
# Convention : Reuss Voigt Hill
#
# Bulk Modulus (GPa) = 47.10604 54.07680 50.59142
# Shear Modulus (GPa) = 23.44073 31.21423 27.32748
#
# Velocity S-wave (km/s) = 3.29346 3.80052 3.55604
# Velocity P-wave (km/s) = 6.02164 6.65446 6.34595
#
# Compressibility (1/GPa) = 0.02122870
#
# Stress axis : x y z
#
# Youngs Moduli (GPa) = 137.84195 83.12730 78.58246
#
# Poissons Ratio (x) = 0.17439 0.21686
# Poissons Ratio (y) = 0.28917 0.04189
# Poissons Ratio (z) = 0.38040 0.04431
#
# Static dielectric constant tensor:
#      x y z
#    x 4.206440 0.000000 0.000000 
#    y 0.000000 3.540170 0.000000 
#    z 0.000000 0.000000 3.868300 
# 
# 
# High freq. dielectric constant tensor:
#      x y z
#    x 1.879890 0.000000 0.000000 
#    y 0.000000 1.809070 0.000000 
#    z 0.000000 0.000000 1.843720 
# 
# From -- ./inp_files/20828.got.cif
#   From: 2010.03.12/outbox.cif.g09.slc.cpg/sg73_11_cif.got.tgz:20828.got - 2010.04.16 15:25:48.
