data_PCOD8295891
_publ_section_title
;
Structure prediction by ZEFSAII (Michael W. Deem and Ramdas Pophale) SiO2 
 PCOD8295891
Probable space group: I B C A 
;
_chemical_formula_sum "Si O2"
_cell_formula_units_Z 120
_cell_length_a 23.964612
_cell_length_b 19.930988
_cell_length_c 13.239415
_cell_angle_alpha 90.000000
_cell_angle_beta 90.000000
_cell_angle_gamma 90.000000
_cell_volume 6323.652921
_symmetry_space_group_name_H-M "I B C A "
_symmetry_group_IT_number 73
_symmetry_cell_setting 'orthorhombic'
loop_
_space_group_symop_operation_xyz
x,y,z
-x,1/2-y,z
x,-y,1/2-z
1/2-x,y,-z
-x,-y,-z
x,1/2+y,-z
-x,y,1/2+z
1/2+x,-y,z
1/2+x,1/2+y,1/2+z
1/2-x,-y,1/2+z
1/2+x,1/2-y,-z
-x,1/2+y,1/2-z
1/2-x,1/2-y,1/2-z
1/2+x,y,1/2-z
1/2-x,1/2+y,z
x,1/2-y,1/2+z
loop_
_atom_site_type_symbol
_atom_site_label
_atom_site_fract_x
_atom_site_fract_y
_atom_site_fract_z
Si Si1 0.690014 0.309261 0.019501
Si Si2 0.196224 0.840559 0.952083
Si Si3 0.071097 0.623416 0.498001
Si Si4 0.938333 0.426540 0.284574
Si Si5 0.000000 0.250000 0.054457
Si Si6 0.105211 0.312431 0.654444
Si Si7 0.847017 0.319754 0.752593
Si Si8 0.439917 0.927263 0.213902
O O1 0.675933 0.322534 0.135451
O O2 0.750000 0.345216 0.000000
O O3 0.697300 0.231118 0.004071
O O4 0.641785 0.334567 0.943171
O O5 0.200805 0.839952 0.829324
O O6 0.250000 0.880051 0.000000
O O7 0.136778 0.869908 0.980268
O O8 0.066276 0.578929 0.596112
O O9 0.048767 0.577840 0.406114
O O10 0.037412 0.695159 0.508316
O O11 0.920280 0.500000 0.250000
O O12 0.897451 0.375585 0.228054
O O13 0.002231 0.410446 0.265277
O O14 0.957025 0.291556 0.122377
O O15 0.132612 0.253554 0.719549
O O16 0.897893 0.370763 0.750017
O O17 0.417639 0.000000 0.250000
#
# Coordination Sequence:
#
# PCOD8295891 Si02
#       8
#    16  16  16  16   8  16  16  16
#     4  10  21  34  55  88 119 152 195 247 304 352
#     4   9  19  36  57  85 115 153 198 244 303 354
#     4  11  22  39  60  88 125 155 202 248 300 359
#     4  11  25  38  58  87 123 164 196 244 302 363
#     4  12  20  38  58  96 120 152 194 254 296 358
#     4  11  21  37  59  87 123 150 203 247 296 355
#     4  10  20  36  59  85 115 155 196 249 298 354
#     4  10  22  38  57  87 119 160 196 238 302 372
#
# _framework density 18.976372999999999
#
# number of rings (size 3 to 8) (size 9 to 14) (size 15 to 20)
#    0.000    1.600    5.333    0.800    1.867    9.600 
#    0.000    0.000    0.000   11.200    0.000    0.000 
#    0.000    0.000    0.000    0.000    0.000    0.000 
#
# Total GULP energy -743536.977444 kJ/mol
# GULP energy per Si atom -12392.282957 kJ/mol
# Density = 1.893318 g / cm^3
# Si number density = 18.976373 Si / 1000 Ang^3
#
#
#
# Elastic Constant Matrix: (Units=GPa)
#
#
# Indices 1 2 3 4 5 6 
#
# 1 101.9282 26.7302 61.6056 0.0000 0.0000 0.0000
# 2 26.7302 89.3164 56.7382 0.0000 0.0000 0.0000
# 3 61.6056 56.7382 186.5053 0.0000 0.0000 0.0000
# 4 0.0000 0.0000 0.0000 23.4499 0.0000 0.0000
# 5 0.0000 0.0000 0.0000 0.0000 19.4249 0.0000
# 6 0.0000 0.0000 0.0000 0.0000 0.0000 -1.7583
#
#
#
# Elastic Compliance Matrix: (Units=1/GPa)
#
#
# Indices 1 2 3 4 5 6 
#
# 1 0.012393 -0.001374 -0.003675 0.000000 0.000000 0.000000
# 2 -0.001374 0.014030 -0.003814 0.000000 0.000000 0.000000
# 3 -0.003675 -0.003814 0.007736 0.000000 0.000000 0.000000
# 4 0.000000 0.000000 0.000000 0.042644 0.000000 0.000000
# 5 0.000000 0.000000 0.000000 0.000000 0.051480 0.000000
# 6 0.000000 0.000000 0.000000 0.000000 0.000000 -0.568746
#
#
# Mechanical properties :
#
#
# Convention : Reuss Voigt Hill
#
# Bulk Modulus (GPa) = 60.85862 74.21089 67.53476
# Shear Modulus (GPa) = -11.98303 23.73503 5.87600
#
# Velocity S-wave (km/s) = -2.51564 3.54046 1.76159
# Velocity P-wave (km/s) = 4.86852 7.47696 6.30902
#
# Compressibility (1/GPa) = 0.01643153
#
# Stress axis : x y z
#
# Youngs Moduli (GPa) = 80.69324 71.27335 129.26099
#
# Poissons Ratio (x) = 0.09793 0.47510
# Poissons Ratio (y) = 0.11087 0.49306
# Poissons Ratio (z) = 0.29659 0.27187
#
# Static dielectric constant tensor:
#      x y z
#    x 4.828370 0.000000 0.000000 
#    y 0.000000 3.393480 0.000000 
#    z 0.000000 0.000000 3.986090 
# 
# 
# High freq. dielectric constant tensor:
#      x y z
#    x 1.745100 0.000000 0.000000 
#    y 0.000000 1.708280 0.000000 
#    z 0.000000 0.000000 1.748560 
# 
# From -- ./inp_files/13825.got.cif
#   From: 2010.03.12/outbox.cif.g09.slc.cpg/sg73_7_cif.got.tgz:13825.got - 2010.04.16 15:25:48.
