data_PCOD8295536
_publ_section_title
;
Structure prediction by ZEFSAII (Michael W. Deem and Ramdas Pophale) SiO2 
 PCOD8295536
Probable space group: I B C A 
;
_chemical_formula_sum "Si O2"
_cell_formula_units_Z 88
_cell_length_a 31.620837
_cell_length_b 5.131518
_cell_length_c 23.914119
_cell_angle_alpha 90.000000
_cell_angle_beta 90.000000
_cell_angle_gamma 90.000000
_cell_volume 3880.374162
_symmetry_space_group_name_H-M "I B C A "
_symmetry_group_IT_number 73
_symmetry_cell_setting 'orthorhombic'
loop_
_space_group_symop_operation_xyz
x,y,z
-x,1/2-y,z
x,-y,1/2-z
1/2-x,y,-z
-x,-y,-z
x,1/2+y,-z
-x,y,1/2+z
1/2+x,-y,z
1/2+x,1/2+y,1/2+z
1/2-x,-y,1/2+z
1/2+x,1/2-y,-z
-x,1/2+y,1/2-z
1/2-x,1/2-y,1/2-z
1/2+x,y,1/2-z
1/2-x,1/2+y,z
x,1/2-y,1/2+z
loop_
_atom_site_type_symbol
_atom_site_label
_atom_site_fract_x
_atom_site_fract_y
_atom_site_fract_z
Si Si1 0.868338 0.463138 0.312814
Si Si2 0.473194 0.000000 0.250000
Si Si3 0.449962 0.212994 0.468562
Si Si4 0.296336 0.530631 0.475793
Si Si5 0.412245 0.552451 0.649011
Si Si6 0.277708 0.579596 0.348093
O O1 0.885862 0.500000 0.250000
O O2 0.874818 0.735196 0.345074
O O3 0.818619 0.397137 0.309075
O O4 0.893148 0.236849 0.345853
O O5 0.500000 0.250000 0.230179
O O6 0.445904 0.097987 0.302176
O O7 0.500000 0.250000 0.466842
O O8 0.433218 0.499095 0.486132
O O9 0.434748 0.105512 0.409295
O O10 0.250000 0.459027 0.500000
O O11 0.320432 0.259291 0.489698
O O12 0.294794 0.596203 0.411088
O O13 0.253915 0.312797 0.334944
#
# Coordination Sequence:
#
# PCOD8295536 Si02
#       6
#    16   8  16  16  16  16
#     4  12  26  46  66  93 138 192 216 290 376 388
#     4  12  24  40  74 110 130 174 236 282 324 382
#     4  10  22  42  71 103 142 186 225 277 337 409
#     4  10  16  32  57  82 118 150 191 283 349 363
#     4  12  24  47  69  99 148 182 226 286 342 430
#     4  12  23  39  65  93 119 168 236 283 331 422
#
# _framework density 22.678225000000001
#
# number of rings (size 3 to 8) (size 9 to 14) (size 15 to 20)
#    0.000    0.727    5.455    3.818    0.000    2.909 
#    0.000    5.455    0.000    0.000    0.000    0.000 
#    0.000    0.000    0.000    0.000    0.000    0.000 
#
# Total GULP energy -545540.238641 kJ/mol
# GULP energy per Si atom -12398.641787 kJ/mol
# Density = 2.262661 g / cm^3
# Si number density = 22.678225 Si / 1000 Ang^3
#
#
#
# Elastic Constant Matrix: (Units=GPa)
#
#
# Indices 1 2 3 4 5 6 
#
# 1 56.1756 30.2388 25.6178 0.0000 0.0000 0.0000
# 2 30.2388 159.9058 40.5272 0.0000 0.0000 0.0000
# 3 25.6178 40.5272 111.5745 0.0000 0.0000 0.0000
# 4 0.0000 0.0000 0.0000 25.0712 0.0000 0.0000
# 5 0.0000 0.0000 0.0000 0.0000 -76.9913 0.0000
# 6 0.0000 0.0000 0.0000 0.0000 0.0000 28.6195
#
#
#
# Elastic Compliance Matrix: (Units=1/GPa)
#
#
# Indices 1 2 3 4 5 6 
#
# 1 0.021153 -0.003050 -0.003749 0.000000 0.000000 0.000000
# 2 -0.003050 0.007328 -0.001961 0.000000 0.000000 0.000000
# 3 -0.003749 -0.001961 0.010536 0.000000 0.000000 0.000000
# 4 0.000000 0.000000 0.000000 0.039886 0.000000 0.000000
# 5 0.000000 0.000000 0.000000 0.000000 -0.012988 0.000000
# 6 0.000000 0.000000 0.000000 0.000000 0.000000 0.034941
#
#
# Mechanical properties :
#
#
# Convention : Reuss Voigt Hill
#
# Bulk Modulus (GPa) = 46.52085 57.82485 52.17285
# Shear Modulus (GPa) = 39.82774 10.75802 25.29288
#
# Velocity S-wave (km/s) = 4.19526 2.18038 3.34322
# Velocity P-wave (km/s) = 6.63513 5.64731 6.16105
#
# Compressibility (1/GPa) = 0.02149574
#
# Stress axis : x y z
#
# Youngs Moduli (GPa) = 47.27533 136.47193 94.91465
#
# Poissons Ratio (x) = 0.41623 0.35583
# Poissons Ratio (y) = 0.14419 0.18616
# Poissons Ratio (z) = 0.17723 0.26766
#
# Static dielectric constant tensor:
#      x y z
#    x 3.865790 0.000000 0.000000 
#    y 0.000000 4.614540 0.000000 
#    z 0.000000 0.000000 4.040740 
# 
# 
# High freq. dielectric constant tensor:
#      x y z
#    x 1.871320 0.000000 0.000000 
#    y 0.000000 1.924690 0.000000 
#    z 0.000000 0.000000 1.890680 
# 
# From -- ./inp_files/30626.got.cif
#   From: 2010.03.12/outbox.cif.g09.slc.cpg/sg73_16_cif.got.tgz:30626.got - 2010.04.16 15:25:48.
