data_PCOD8295033
_publ_section_title
;
Structure prediction by ZEFSAII (Michael W. Deem and Ramdas Pophale) SiO2 
 PCOD8295033
Probable space group: I B A M
;
_chemical_formula_sum "Si O2"
_cell_formula_units_Z 68
_cell_length_a 11.060098
_cell_length_b 13.661969
_cell_length_c 20.542513
_cell_angle_alpha 90.000000
_cell_angle_beta 90.000000
_cell_angle_gamma 90.000000
_cell_volume 3104.029508
_symmetry_space_group_name_H-M "I B A M"
_symmetry_group_IT_number 72
_symmetry_cell_setting 'orthorhombic'
loop_
_space_group_symop_operation_xyz
x,y,z
-x,-y,z
x,-y,1/2-z
-x,y,1/2-z
-x,-y,-z
x,y,-z
-x,y,1/2+z
x,-y,1/2+z
1/2+x,1/2+y,1/2+z
1/2-x,1/2-y,1/2+z
1/2+x,1/2-y,-z
1/2-x,1/2+y,-z
1/2-x,1/2-y,1/2-z
1/2+x,1/2+y,1/2-z
1/2-x,1/2+y,z
1/2+x,1/2-y,z
loop_
_atom_site_type_symbol
_atom_site_label
_atom_site_fract_x
_atom_site_fract_y
_atom_site_fract_z
Si Si1 0.376898 0.437545 0.070114
Si Si2 0.042494 0.611010 0.818450
Si Si3 0.500000 0.500000 0.750000
Si Si4 0.686771 0.594391 0.656222
Si Si5 0.032552 0.237985 0.923001
O O1 0.500000 0.500000 0.069470
O O2 0.287826 0.489129 0.120983
O O3 0.410588 0.326158 0.087521
O O4 0.312897 0.440844 0.000000
O O5 0.186730 0.623836 0.812997
O O6 0.000000 0.500000 0.823343
O O7 0.000000 0.658294 0.750000
O O8 0.985836 0.664003 0.881478
O O9 0.581935 0.575080 0.708908
O O10 0.647294 0.678104 0.604912
O O11 0.053731 0.260452 0.000000
#
# Coordination Sequence:
#
# PCOD8295033 Si02
#       5
#    16  16   4  16  16
#     4   8  15  34  63  96 126 155 203 267 321 380
#     4  11  27  47  62  92 138 181 221 273 334 397
#     4  12  20  36  68 104 122 172 226 270 324 400
#     4  11  22  40  69  96 133 168 223 271 330 389
#     4  10  22  42  68 101 131 169 224 273 329 399
#
# _framework density 21.907008999999999
#
# number of rings (size 3 to 8) (size 9 to 14) (size 15 to 20)
#    0.000    1.882    3.529    3.529    1.647    5.176 
#    0.000    2.353    0.000    0.000    0.000    0.000 
#    0.000    0.000    0.000    0.000    0.000    0.000 
#
# Total GULP energy -421337.253515 kJ/mol
# GULP energy per Si atom -12392.272162 kJ/mol
# Density = 2.185715 g / cm^3
# Si number density = 21.907009 Si / 1000 Ang^3
#
#
#
# Elastic Constant Matrix: (Units=GPa)
#
#
# Indices 1 2 3 4 5 6 
#
# 1 113.5474 27.1999 64.5913 0.0000 0.0000 0.0000
# 2 27.1999 84.1223 61.4171 0.0000 0.0000 0.0000
# 3 64.5913 61.4171 179.6544 0.0000 0.0000 0.0000
# 4 0.0000 0.0000 0.0000 41.1752 0.0000 0.0000
# 5 0.0000 0.0000 0.0000 0.0000 20.9263 0.0000
# 6 0.0000 0.0000 0.0000 0.0000 0.0000 20.5767
#
#
#
# Elastic Compliance Matrix: (Units=1/GPa)
#
#
# Indices 1 2 3 4 5 6 
#
# 1 0.011122 -0.000902 -0.003690 0.000000 0.000000 0.000000
# 2 -0.000902 0.015914 -0.005116 0.000000 0.000000 0.000000
# 3 -0.003690 -0.005116 0.008642 0.000000 0.000000 0.000000
# 4 0.000000 0.000000 0.000000 0.024286 0.000000 0.000000
# 5 0.000000 0.000000 0.000000 0.000000 0.047787 0.000000
# 6 0.000000 0.000000 0.000000 0.000000 0.000000 0.048599
#
#
# Mechanical properties :
#
#
# Convention : Reuss Voigt Hill
#
# Bulk Modulus (GPa) = 61.49469 75.97119 68.73294
# Shear Modulus (GPa) = 27.59558 31.47670 29.53614
#
# Velocity S-wave (km/s) = 3.55303 3.79467 3.67584
# Velocity P-wave (km/s) = 6.70550 7.34531 7.03269
#
# Compressibility (1/GPa) = 0.01626157
#
# Stress axis : x y z
#
# Youngs Moduli (GPa) = 89.90984 62.83609 115.71193
#
# Poissons Ratio (x) = 0.05667 0.42703
# Poissons Ratio (y) = 0.08109 0.59202
# Poissons Ratio (z) = 0.33181 0.32149
#
# Static dielectric constant tensor:
#      x y z
#    x 3.617710 0.000000 0.000000 
#    y 0.000000 3.983130 0.000000 
#    z 0.000000 0.000000 4.411300 
# 
# 
# High freq. dielectric constant tensor:
#      x y z
#    x 1.831610 0.000000 0.000000 
#    y 0.000000 1.852910 0.000000 
#    z 0.000000 0.000000 1.877580 
# 
# From -- ./inp_files/36638.got.cif
#   From: 2010.03.12/outbox.cif.g09.slc.cpg/sg72_19_cif.got.tgz:36638.got - 2010.04.16 14:54:00.
