data_PCOD8295853
_publ_section_title
;
Structure prediction by ZEFSAII (Michael W. Deem and Ramdas Pophale) SiO2 
 PCOD8295853
Probable space group: I B C A 
;
_chemical_formula_sum "Si O2"
_cell_formula_units_Z 104
_cell_length_a 14.256073
_cell_length_b 18.423325
_cell_length_c 20.137265
_cell_angle_alpha 90.000000
_cell_angle_beta 90.000000
_cell_angle_gamma 90.000000
_cell_volume 5288.937187
_symmetry_space_group_name_H-M "I B C A "
_symmetry_group_IT_number 73
_symmetry_cell_setting 'orthorhombic'
loop_
_space_group_symop_operation_xyz
x,y,z
-x,1/2-y,z
x,-y,1/2-z
1/2-x,y,-z
-x,-y,-z
x,1/2+y,-z
-x,y,1/2+z
1/2+x,-y,z
1/2+x,1/2+y,1/2+z
1/2-x,-y,1/2+z
1/2+x,1/2-y,-z
-x,1/2+y,1/2-z
1/2-x,1/2-y,1/2-z
1/2+x,y,1/2-z
1/2-x,1/2+y,z
x,1/2-y,1/2+z
loop_
_atom_site_type_symbol
_atom_site_label
_atom_site_fract_x
_atom_site_fract_y
_atom_site_fract_z
Si Si1 0.654181 0.881890 0.142248
Si Si2 0.134329 0.517974 0.553965
Si Si3 0.750000 0.359762 0.500000
Si Si4 0.424058 0.512623 0.912024
Si Si5 0.447253 0.873007 0.171265
Si Si6 0.673391 0.926133 0.787527
Si Si7 0.603185 0.758878 0.572712
O O1 0.558180 0.879957 0.183793
O O2 0.736134 0.876317 0.197141
O O3 0.653756 0.817953 0.087194
O O4 0.672164 0.958413 0.105221
O O5 0.201595 0.588979 0.556331
O O6 0.136860 0.484973 0.479326
O O7 0.028750 0.540926 0.572856
O O8 0.669664 0.308418 0.471295
O O9 0.421487 0.430283 0.886175
O O10 0.379749 0.564011 0.856930
O O11 0.397129 0.882855 0.240948
O O12 0.416539 0.795083 0.144221
O O13 0.703350 0.000000 0.750000
O O14 0.500000 0.750000 0.537657
#
# Coordination Sequence:
#
# PCOD8295853 Si02
#       7
#    16  16   8  16  16  16  16
#     4  10  22  38  62  89 116 158 203 250 300 363
#     4  10  20  34  63  90 120 154 199 250 305 359
#     4  12  22  38  66  92 122 166 200 246 308 384
#     4   9  18  35  57  90 121 151 193 255 300 347
#     4   9  19  40  57  78 121 163 195 240 301 358
#     4  10  21  35  59  89 118 152 203 254 294 351
#     4  10  23  42  60  86 126 167 199 243 312 369
#
# _framework density 19.663685999999998
#
# number of rings (size 3 to 8) (size 9 to 14) (size 15 to 20)
#    0.000    2.154    1.538    0.923    4.308    5.538 
#    0.000    0.000    0.000    0.000    0.000    0.000 
#    0.000    0.000    0.000    0.000    0.000    0.000 
#
# Total GULP energy -644706.669639 kJ/mol
# GULP energy per Si atom -12398.205185 kJ/mol
# Density = 1.961893 g / cm^3
# Si number density = 19.663686 Si / 1000 Ang^3
#
#
#
# Elastic Constant Matrix: (Units=GPa)
#
#
# Indices 1 2 3 4 5 6 
#
# 1 127.1856 62.2820 61.1206 0.0000 0.0000 0.0000
# 2 62.2820 93.1333 23.1429 0.0000 0.0000 0.0000
# 3 61.1206 23.1429 87.5537 0.0000 0.0000 0.0000
# 4 0.0000 0.0000 0.0000 16.4445 0.0000 0.0000
# 5 0.0000 0.0000 0.0000 0.0000 33.2426 0.0000
# 6 0.0000 0.0000 0.0000 0.0000 0.0000 37.6204
#
#
#
# Elastic Compliance Matrix: (Units=1/GPa)
#
#
# Indices 1 2 3 4 5 6 
#
# 1 0.016648 -0.008825 -0.009289 0.000000 0.000000 0.000000
# 2 -0.008825 0.016170 0.001886 0.000000 0.000000 0.000000
# 3 -0.009289 0.001886 0.017408 0.000000 0.000000 0.000000
# 4 0.000000 0.000000 0.000000 0.060810 0.000000 0.000000
# 5 0.000000 0.000000 0.000000 0.000000 0.030082 0.000000
# 6 0.000000 0.000000 0.000000 0.000000 0.000000 0.026581
#
#
# Mechanical properties :
#
#
# Convention : Reuss Voigt Hill
#
# Bulk Modulus (GPa) = 56.27345 66.77374 61.52360
# Shear Modulus (GPa) = 24.26258 28.21665 26.23962
#
# Velocity S-wave (km/s) = 3.51647 3.79220 3.65693
# Velocity P-wave (km/s) = 6.72068 7.29424 7.01333
#
# Compressibility (1/GPa) = 0.01777037
#
# Stress axis : x y z
#
# Youngs Moduli (GPa) = 60.06677 61.84231 57.44590
#
# Poissons Ratio (x) = 0.54576 0.53363
# Poissons Ratio (y) = 0.53009 -0.10837
# Poissons Ratio (z) = 0.55798 -0.11666
#
# Static dielectric constant tensor:
#      x y z
#    x 3.830010 0.000000 0.000000 
#    y 0.000000 3.522210 0.000000 
#    z 0.000000 0.000000 3.350850 
# 
# 
# High freq. dielectric constant tensor:
#      x y z
#    x 1.786080 0.000000 0.000000 
#    y 0.000000 1.750810 0.000000 
#    z 0.000000 0.000000 1.745560 
# 
# From -- ./inp_files/23195.got.cif
#   From: 2010.03.12/outbox.cif.g09.slc.cpg/sg73_12_cif.got.tgz:23195.got - 2010.04.16 15:25:48.
