data_PCOD8295899
_publ_section_title
;
Structure prediction by ZEFSAII (Michael W. Deem and Ramdas Pophale) SiO2 
 PCOD8295899
Probable space group: I B C A 
;
_chemical_formula_sum "Si O2"
_cell_formula_units_Z 80
_cell_length_a 10.851122
_cell_length_b 24.116010
_cell_length_c 14.412344
_cell_angle_alpha 90.000000
_cell_angle_beta 90.000000
_cell_angle_gamma 90.000000
_cell_volume 3771.505289
_symmetry_space_group_name_H-M "I B C A "
_symmetry_group_IT_number 73
_symmetry_cell_setting 'orthorhombic'
loop_
_space_group_symop_operation_xyz
x,y,z
-x,1/2-y,z
x,-y,1/2-z
1/2-x,y,-z
-x,-y,-z
x,1/2+y,-z
-x,y,1/2+z
1/2+x,-y,z
1/2+x,1/2+y,1/2+z
1/2-x,-y,1/2+z
1/2+x,1/2-y,-z
-x,1/2+y,1/2-z
1/2-x,1/2-y,1/2-z
1/2+x,y,1/2-z
1/2-x,1/2+y,z
x,1/2-y,1/2+z
loop_
_atom_site_type_symbol
_atom_site_label
_atom_site_fract_x
_atom_site_fract_y
_atom_site_fract_z
Si Si1 0.580586 0.601995 0.848318
Si Si2 0.719199 0.828485 0.212922
Si Si3 0.694199 0.425190 0.100004
Si Si4 0.250000 0.148370 0.500000
Si Si5 0.199339 0.500000 0.750000
Si Si6 0.872014 0.219295 0.143936
O O1 0.600789 0.655616 0.779430
O O2 0.447469 0.595362 0.896518
O O3 0.610839 0.546998 0.790736
O O4 0.679193 0.608153 0.930472
O O5 0.723507 0.874208 0.133740
O O6 0.843132 0.827395 0.277169
O O7 0.721759 0.769699 0.160983
O O8 0.711742 0.476889 0.169151
O O9 0.750000 0.441837 0.000000
O O10 0.148586 0.189270 0.546195
O O11 0.000000 0.250000 0.150644
#
# Coordination Sequence:
#
# PCOD8295899 Si02
#       6
#    16  16  16   8   8  16
#     4  10  22  44  61  90 131 158 207 264 317 382
#     4   9  21  39  59  90 126 166 207 245 317 369
#     4  11  24  40  68  97 119 167 214 262 312 386
#     4  10  24  36  60  94 126 168 202 264 316 360
#     4  10  24  46  64  92 124 166 208 268 338 368
#     4  10  20  36  60  87 124 169 201 251 307 363
#
# _framework density 21.211690999999998
#
# number of rings (size 3 to 8) (size 9 to 14) (size 15 to 20)
#    0.000    2.000    0.000    1.800    5.600    0.800 
#    7.200    2.000    0.000    0.000    0.000    0.000 
#    0.000    0.000    0.000    0.000    0.000    0.000 
#
# Total GULP energy -495526.939483 kJ/mol
# GULP energy per Si atom -12388.173487 kJ/mol
# Density = 2.116341 g / cm^3
# Si number density = 21.211691 Si / 1000 Ang^3
#
#
#
# Elastic Constant Matrix: (Units=GPa)
#
#
# Indices 1 2 3 4 5 6 
#
# 1 112.6832 10.7625 39.9333 0.0000 0.0000 0.0000
# 2 10.7625 81.5527 44.8786 0.0002 0.0000 0.0000
# 3 39.9333 44.8786 124.9838 0.0008 -0.0001 0.0000
# 4 0.0000 0.0002 0.0008 31.8588 0.0000 0.0000
# 5 0.0000 0.0000 -0.0001 0.0000 21.0704 0.0000
# 6 0.0000 0.0000 0.0000 0.0000 0.0000 24.3385
#
#
#
# Elastic Compliance Matrix: (Units=1/GPa)
#
#
# Indices 1 2 3 4 5 6 
#
# 1 0.010027 0.000548 -0.003401 0.000000 0.000000 0.000000
# 2 0.000548 0.015312 -0.005673 0.000000 0.000000 0.000000
# 3 -0.003401 -0.005673 0.011125 0.000000 0.000000 0.000000
# 4 0.000000 0.000000 0.000000 0.031389 0.000000 0.000000
# 5 0.000000 0.000000 0.000000 0.000000 0.047460 0.000000
# 6 0.000000 0.000000 0.000000 0.000000 0.000000 0.041087
#
#
# Mechanical properties :
#
#
# Convention : Reuss Voigt Hill
#
# Bulk Modulus (GPa) = 51.51412 56.70762 54.11087
# Shear Modulus (GPa) = 27.78998 30.36323 29.07661
#
# Velocity S-wave (km/s) = 3.62349 3.78754 3.70642
# Velocity P-wave (km/s) = 6.46875 6.77639 6.62436
#
# Compressibility (1/GPa) = 0.01941215
#
# Stress axis : x y z
#
# Youngs Moduli (GPa) = 99.72873 65.30984 89.89064
#
# Poissons Ratio (x) = -0.03579 0.30568
# Poissons Ratio (y) = -0.05466 0.50996
# Poissons Ratio (z) = 0.33913 0.37051
#
# Static dielectric constant tensor:
#      x y z
#    x 3.916010 0.000000 0.000000 
#    y 0.000000 4.293210 0.000000 
#    z 0.000000 0.000000 3.887130 
# 
# 
# High freq. dielectric constant tensor:
#      x y z
#    x 1.815900 0.000000 0.000000 
#    y 0.000000 1.839410 0.000000 
#    z 0.000000 0.000000 1.835550 
# 
# From -- ./inp_files/10860.got.cif
#   From: 2010.03.12/outbox.cif.g09.slc.cpg/sg73_6_cif.got.tgz:10860.got - 2010.04.16 15:25:48.
