data_PCOD8295876
_publ_section_title
;
Structure prediction by ZEFSAII (Michael W. Deem and Ramdas Pophale) SiO2 
 PCOD8295876
Probable space group: I B C A 
;
_chemical_formula_sum "Si O2"
_cell_formula_units_Z 64
_cell_length_a 8.897595
_cell_length_b 26.523864
_cell_length_c 12.819444
_cell_angle_alpha 90.000000
_cell_angle_beta 90.000000
_cell_angle_gamma 90.000000
_cell_volume 3025.370833
_symmetry_space_group_name_H-M "I B C A "
_symmetry_group_IT_number 73
_symmetry_cell_setting 'orthorhombic'
loop_
_space_group_symop_operation_xyz
x,y,z
-x,1/2-y,z
x,-y,1/2-z
1/2-x,y,-z
-x,-y,-z
x,1/2+y,-z
-x,y,1/2+z
1/2+x,-y,z
1/2+x,1/2+y,1/2+z
1/2-x,-y,1/2+z
1/2+x,1/2-y,-z
-x,1/2+y,1/2-z
1/2-x,1/2-y,1/2-z
1/2+x,y,1/2-z
1/2-x,1/2+y,z
x,1/2-y,1/2+z
loop_
_atom_site_type_symbol
_atom_site_label
_atom_site_fract_x
_atom_site_fract_y
_atom_site_fract_z
Si Si1 0.561777 0.800894 0.336857
Si Si2 0.750000 0.248177 0.500000
Si Si3 0.756847 0.663350 0.346991
Si Si4 0.284263 0.448999 0.383432
Si Si5 0.036795 0.000000 0.750000
O O1 0.500000 0.750000 0.280076
O O2 0.625419 0.784387 0.449626
O O3 0.424049 0.838999 0.352972
O O4 0.690640 0.828512 0.271727
O O5 0.821738 0.210349 0.586369
O O6 0.817845 0.610610 0.389872
O O7 0.250000 0.469669 0.500000
O O8 0.434734 0.474403 0.338658
O O9 0.142897 0.459237 0.307398
#
# Coordination Sequence:
#
# PCOD8295876 Si02
#       5
#    16   8  16  16   8
#     4  10  22  37  58  84 124 165 207 246 305 348
#     4  10  20  36  54  86 120 164 198 244 296 356
#     4  11  22  39  60  89 121 161 206 254 297 366
#     4  11  22  44  67  96 127 161 209 256 322 376
#     4  10  24  42  70  94 126 162 200 266 322 382
#
# _framework density 21.154430999999999
#
# number of rings (size 3 to 8) (size 9 to 14) (size 15 to 20)
#    0.000    1.500    1.250    5.250    0.000    9.000 
#    4.500    0.000    5.500    0.000    0.000    0.000 
#    0.000    0.000    0.000    0.000    0.000    0.000 
#
# Total GULP energy -396691.684725 kJ/mol
# GULP energy per Si atom -12396.615148 kJ/mol
# Density = 2.110628 g / cm^3
# Si number density = 21.154431 Si / 1000 Ang^3
#
#
#
# Elastic Constant Matrix: (Units=GPa)
#
#
# Indices 1 2 3 4 5 6 
#
# 1 107.6737 26.1054 54.6633 0.0001 0.0000 0.0000
# 2 26.1054 58.7797 21.5227 0.0000 0.0000 0.0000
# 3 54.6633 21.5227 129.2761 -0.0004 -0.0001 -0.0002
# 4 0.0001 0.0000 -0.0004 17.2688 -0.0001 -0.0001
# 5 0.0000 0.0000 -0.0001 -0.0001 41.0069 0.0000
# 6 0.0000 0.0000 -0.0002 -0.0001 0.0000 21.8385
#
#
#
# Elastic Compliance Matrix: (Units=1/GPa)
#
#
# Indices 1 2 3 4 5 6 
#
# 1 0.012607 -0.003884 -0.004684 0.000000 0.000000 0.000000
# 2 -0.003884 0.019314 -0.001573 0.000000 0.000000 0.000000
# 3 -0.004684 -0.001573 0.009978 0.000000 0.000000 0.000000
# 4 0.000000 0.000000 0.000000 0.057908 0.000000 0.000000
# 5 0.000000 0.000000 0.000000 0.000000 0.024386 0.000000
# 6 0.000000 0.000000 0.000000 0.000000 0.000000 0.045791
#
#
# Mechanical properties :
#
#
# Convention : Reuss Voigt Hill
#
# Bulk Modulus (GPa) = 46.26178 55.59025 50.92602
# Shear Modulus (GPa) = 25.32016 28.91873 27.11945
#
# Velocity S-wave (km/s) = 3.46341 3.70135 3.58435
# Velocity P-wave (km/s) = 6.15708 6.67847 6.42307
#
# Compressibility (1/GPa) = 0.02161611
#
# Stress axis : x y z
#
# Youngs Moduli (GPa) = 79.32105 51.77687 100.22108
#
# Poissons Ratio (x) = 0.20110 0.46945
# Poissons Ratio (y) = 0.30808 0.15767
# Poissons Ratio (z) = 0.37155 0.08145
#
# Static dielectric constant tensor:
#      x y z
#    x 3.864230 0.000000 0.000000 
#    y 0.000000 3.578010 0.000000 
#    z 0.000000 0.000000 3.958350 
# 
# 
# High freq. dielectric constant tensor:
#      x y z
#    x 1.828180 0.000000 0.000000 
#    y 0.000000 1.813160 0.000000 
#    z 0.000000 0.000000 1.833060 
# 
# From -- ./inp_files/4705.got.cif
#   From: 2010.03.12/outbox.cif.g09.slc.cpg/sg73_3_cif.got.tgz:4705.got - 2010.04.16 15:25:48.
