data_PCOD8295590
_publ_section_title
;
Structure prediction by ZEFSAII (Michael W. Deem and Ramdas Pophale) SiO2 
 PCOD8295590
Probable space group: I B C A 
;
_chemical_formula_sum "Si O2"
_cell_formula_units_Z 120
_cell_length_a 17.722404
_cell_length_b 17.520849
_cell_length_c 20.513871
_cell_angle_alpha 90.000000
_cell_angle_beta 90.000000
_cell_angle_gamma 90.000000
_cell_volume 6369.794176
_symmetry_space_group_name_H-M "I B C A "
_symmetry_group_IT_number 73
_symmetry_cell_setting 'orthorhombic'
loop_
_space_group_symop_operation_xyz
x,y,z
-x,1/2-y,z
x,-y,1/2-z
1/2-x,y,-z
-x,-y,-z
x,1/2+y,-z
-x,y,1/2+z
1/2+x,-y,z
1/2+x,1/2+y,1/2+z
1/2-x,-y,1/2+z
1/2+x,1/2-y,-z
-x,1/2+y,1/2-z
1/2-x,1/2-y,1/2-z
1/2+x,y,1/2-z
1/2-x,1/2+y,z
x,1/2-y,1/2+z
loop_
_atom_site_type_symbol
_atom_site_label
_atom_site_fract_x
_atom_site_fract_y
_atom_site_fract_z
Si Si1 0.084105 0.978300 0.820961
Si Si2 0.167808 0.327041 0.476675
Si Si3 0.750000 0.431903 0.500000
Si Si4 0.717528 0.451912 0.115657
Si Si5 0.875312 0.917510 0.898353
Si Si6 0.520601 0.331712 0.366986
Si Si7 0.521791 0.959923 0.432637
Si Si8 0.900630 0.830183 0.506469
O O1 0.078836 0.886067 0.827572
O O2 0.052752 0.000000 0.750000
O O3 0.171085 0.005714 0.827627
O O4 0.041507 0.024053 0.878492
O O5 0.250000 0.299704 0.500000
O O6 0.170105 0.380516 0.412995
O O7 0.130125 0.376966 0.532278
O O8 0.118104 0.252016 0.462859
O O9 0.742656 0.487724 0.438806
O O10 0.824690 0.379821 0.499587
O O11 0.796881 0.416929 0.142425
O O12 0.942005 0.876101 0.860596
O O13 0.899006 0.005061 0.909124
O O14 0.500000 0.250000 0.334830
O O15 0.557733 0.318825 0.437452
O O16 0.538378 0.870607 0.445545
O O17 0.500000 0.000000 0.500000
#
# Coordination Sequence:
#
# PCOD8295590 Si02
#       8
#    16  16   8  16  16  16  16  16
#     4  11  25  43  61  85 122 172 215 249 308 378
#     4  10  19  29  49  89 131 149 185 251 321 357
#     4  12  18  30  58  92 118 162 196 244 306 376
#     4  11  20  36  56  81 123 161 202 253 302 366
#     4  10  18  31  53  84 115 156 195 247 302 363
#     4  11  22  35  61  91 124 160 201 255 318 372
#     4  11  19  35  59  89 116 149 202 255 302 360
#     4  12  20  30  56  94 129 154 196 257 315 367
#
# _framework density 18.838913999999999
#
# number of rings (size 3 to 8) (size 9 to 14) (size 15 to 20)
#    0.000    1.067    9.333    0.800    0.000    0.000 
#    0.000    4.000    0.000    0.800    0.000    0.000 
#    0.000    0.000    0.000    0.000    0.000    0.000 
#
# Total GULP energy -743396.257833 kJ/mol
# GULP energy per Si atom -12389.937631 kJ/mol
# Density = 1.879604 g / cm^3
# Si number density = 18.838914 Si / 1000 Ang^3
#
#
#
# Elastic Constant Matrix: (Units=GPa)
#
#
# Indices 1 2 3 4 5 6 
#
# 1 81.5455 46.0303 21.8718 0.0000 0.0000 0.0000
# 2 46.0303 125.4739 21.0285 0.0000 0.0000 0.0000
# 3 21.8718 21.0285 63.5400 0.0000 0.0000 0.0000
# 4 0.0000 0.0000 0.0000 8.1576 0.0000 0.0000
# 5 0.0000 0.0000 0.0000 0.0000 15.0571 0.0000
# 6 0.0000 0.0000 0.0000 0.0000 0.0000 30.2060
#
#
#
# Elastic Compliance Matrix: (Units=1/GPa)
#
#
# Indices 1 2 3 4 5 6 
#
# 1 0.016308 -0.005338 -0.003847 0.000000 0.000000 0.000000
# 2 -0.005338 0.010185 -0.001533 0.000000 0.000000 0.000000
# 3 -0.003847 -0.001533 0.017570 0.000000 0.000000 0.000000
# 4 0.000000 0.000000 0.000000 0.122585 0.000000 0.000000
# 5 0.000000 0.000000 0.000000 0.000000 0.066414 0.000000
# 6 0.000000 0.000000 0.000000 0.000000 0.000000 0.033106
#
#
# Mechanical properties :
#
#
# Convention : Reuss Voigt Hill
#
# Bulk Modulus (GPa) = 44.19613 49.82449 47.01031
# Shear Modulus (GPa) = 16.94080 22.79275 19.86677
#
# Velocity S-wave (km/s) = 3.00199 3.48210 3.25092
# Velocity P-wave (km/s) = 5.96045 6.53236 6.25295
#
# Compressibility (1/GPa) = 0.02262642
#
# Stress axis : x y z
#
# Youngs Moduli (GPa) = 61.31957 98.18389 56.91596
#
# Poissons Ratio (x) = 0.52410 0.21895
# Poissons Ratio (y) = 0.32732 0.08727
# Poissons Ratio (z) = 0.23590 0.15054
#
# Static dielectric constant tensor:
#      x y z
#    x 4.241320 0.000000 0.000000 
#    y 0.000000 3.821560 0.000000 
#    z 0.000000 0.000000 2.901460 
# 
# 
# High freq. dielectric constant tensor:
#      x y z
#    x 1.756670 0.000000 0.000000 
#    y 0.000000 1.742790 0.000000 
#    z 0.000000 0.000000 1.657440 
# 
# From -- ./inp_files/26679.got.cif
#   From: 2010.03.12/outbox.cif.g09.slc.cpg/sg73_14_cif.got.tgz:26679.got - 2010.04.16 15:25:48.
