data_PCOD8295055
_publ_section_title
;
Structure prediction by ZEFSAII (Michael W. Deem and Ramdas Pophale) SiO2 
 PCOD8295055
Probable space group: I B A M
;
_chemical_formula_sum "Si O2"
_cell_formula_units_Z 88
_cell_length_a 8.609121
_cell_length_b 18.316300
_cell_length_c 27.292203
_cell_angle_alpha 90.000000
_cell_angle_beta 90.000000
_cell_angle_gamma 90.000000
_cell_volume 4303.632246
_symmetry_space_group_name_H-M "I B A M"
_symmetry_group_IT_number 72
_symmetry_cell_setting 'orthorhombic'
loop_
_space_group_symop_operation_xyz
x,y,z
-x,-y,z
x,-y,1/2-z
-x,y,1/2-z
-x,-y,-z
x,y,-z
-x,y,1/2+z
x,-y,1/2+z
1/2+x,1/2+y,1/2+z
1/2-x,1/2-y,1/2+z
1/2+x,1/2-y,-z
1/2-x,1/2+y,-z
1/2-x,1/2-y,1/2-z
1/2+x,1/2+y,1/2-z
1/2-x,1/2+y,z
1/2+x,1/2-y,z
loop_
_atom_site_type_symbol
_atom_site_label
_atom_site_fract_x
_atom_site_fract_y
_atom_site_fract_z
Si Si1 0.233049 0.457348 0.702217
Si Si2 0.000000 0.868955 0.250000
Si Si3 0.358345 0.448568 0.884282
Si Si4 0.320714 0.692968 0.666222
Si Si5 0.075476 0.577977 0.445928
Si Si6 0.969876 0.341568 0.852142
O O1 0.170961 0.500000 0.750000
O O2 0.399076 0.419820 0.713678
O O3 0.257080 0.516275 0.659400
O O4 0.102384 0.400878 0.684686
O O5 0.115778 0.815495 0.221227
O O6 0.500000 0.500000 0.899683
O O7 0.409415 0.368031 0.866482
O O8 0.254234 0.435484 0.931889
O O9 0.356056 0.772474 0.644888
O O10 0.136482 0.681990 0.668316
O O11 0.068148 0.614543 0.500000
O O12 0.000000 0.500000 0.447144
O O13 0.985170 0.628849 0.407391
#
# Coordination Sequence:
#
# PCOD8295055 Si02
#       6
#    16   8  16  16  16  16
#     4  12  22  41  64  95 137 181 217 264 326 394
#     4  12  23  42  62  92 133 182 220 268 307 392
#     4  11  21  41  68 100 132 174 218 276 327 396
#     4  11  25  42  62  93 135 177 221 269 325 385
#     4  10  22  44  69  96 127 167 219 280 340 393
#     4  11  26  45  64  96 133 175 221 278 330 401
#
# _framework density 20.447844
#
# number of rings (size 3 to 8) (size 9 to 14) (size 15 to 20)
#    0.000    0.909    5.455    1.364    0.000    4.000 
#    6.545    3.636    0.000    0.000    0.000    0.000 
#    0.000    0.000    0.000    0.000    0.000    0.000 
#
# Total GULP energy -545691.441104 kJ/mol
# GULP energy per Si atom -12402.078207 kJ/mol
# Density = 2.040130 g / cm^3
# Si number density = 20.447844 Si / 1000 Ang^3
#
#
#
# Elastic Constant Matrix: (Units=GPa)
#
#
# Indices 1 2 3 4 5 6 
#
# 1 105.1262 51.7074 55.2682 0.0000 0.0000 0.0000
# 2 51.7074 133.2865 60.7426 0.0000 0.0000 0.0000
# 3 55.2682 60.7426 136.6474 0.0000 0.0000 0.0000
# 4 0.0000 0.0000 0.0000 22.7118 0.0000 0.0000
# 5 0.0000 0.0000 0.0000 0.0000 32.9966 0.0000
# 6 0.0000 0.0000 0.0000 0.0000 0.0000 37.4374
#
#
#
# Elastic Compliance Matrix: (Units=1/GPa)
#
#
# Indices 1 2 3 4 5 6 
#
# 1 0.013185 -0.003367 -0.003836 0.000000 0.000000 0.000000
# 2 -0.003367 0.010268 -0.003203 0.000000 0.000000 0.000000
# 3 -0.003836 -0.003203 0.010293 0.000000 0.000000 0.000000
# 4 0.000000 0.000000 0.000000 0.044030 0.000000 0.000000
# 5 0.000000 0.000000 0.000000 0.000000 0.030306 0.000000
# 6 0.000000 0.000000 0.000000 0.000000 0.000000 0.026711
#
#
# Mechanical properties :
#
#
# Convention : Reuss Voigt Hill
#
# Bulk Modulus (GPa) = 77.30766 78.94404 78.12585
# Shear Modulus (GPa) = 31.26608 32.45196 31.85902
#
# Velocity S-wave (km/s) = 3.91457 3.98811 3.95151
# Velocity P-wave (km/s) = 7.63683 7.73938 7.68828
#
# Compressibility (1/GPa) = 0.01293533
#
# Stress axis : x y z
#
# Youngs Moduli (GPa) = 75.84256 97.38659 97.14959
#
# Poissons Ratio (x) = 0.32788 0.37269
# Poissons Ratio (y) = 0.25535 0.31115
# Poissons Ratio (z) = 0.29095 0.31191
#
# Static dielectric constant tensor:
#      x y z
#    x 3.651010 0.000000 0.000000 
#    y 0.000000 3.793790 0.000000 
#    z 0.000000 0.000000 3.894780 
# 
# 
# High freq. dielectric constant tensor:
#      x y z
#    x 1.805730 0.000000 0.000000 
#    y 0.000000 1.805970 0.000000 
#    z 0.000000 0.000000 1.781020 
# 
# From -- ./inp_files/50817.got.cif
#   From: 2010.03.12/outbox.cif.g09.slc.cpg/sg72_26_cif.got.tgz:50817.got - 2010.04.16 14:54:00.
