data_PCOD8295197
_publ_section_title
;
Structure prediction by ZEFSAII (Michael W. Deem and Ramdas Pophale) SiO2 
 PCOD8295197
Probable space group: I B A M
;
_chemical_formula_sum "Si O2"
_cell_formula_units_Z 92
_cell_length_a 8.462449
_cell_length_b 20.517389
_cell_length_c 25.043391
_cell_angle_alpha 90.000000
_cell_angle_beta 90.000000
_cell_angle_gamma 90.000000
_cell_volume 4348.217815
_symmetry_space_group_name_H-M "I B A M"
_symmetry_group_IT_number 72
_symmetry_cell_setting 'orthorhombic'
loop_
_space_group_symop_operation_xyz
x,y,z
-x,-y,z
x,-y,1/2-z
-x,y,1/2-z
-x,-y,-z
x,y,-z
-x,y,1/2+z
x,-y,1/2+z
1/2+x,1/2+y,1/2+z
1/2-x,1/2-y,1/2+z
1/2+x,1/2-y,-z
1/2-x,1/2+y,-z
1/2-x,1/2-y,1/2-z
1/2+x,1/2+y,1/2-z
1/2-x,1/2+y,z
1/2+x,1/2-y,z
loop_
_atom_site_type_symbol
_atom_site_label
_atom_site_fract_x
_atom_site_fract_y
_atom_site_fract_z
Si Si1 0.604659 0.162141 0.000000
Si Si2 0.650168 0.181269 0.644961
Si Si3 0.722932 0.592314 0.183228
Si Si4 0.555093 0.293411 0.500000
Si Si5 0.544068 0.070378 0.096698
Si Si6 0.000000 0.654410 0.750000
Si Si7 0.000000 0.000000 0.750000
Si Si8 0.992590 0.189343 0.883764
O O1 0.606065 0.116067 0.050671
O O2 0.758003 0.206027 0.000000
O O3 0.467789 0.215403 0.000000
O O4 0.598367 0.108719 0.626631
O O5 0.582107 0.197357 0.704062
O O6 0.570070 0.236721 0.608930
O O7 0.838563 0.185312 0.644715
O O8 0.602773 0.544654 0.211695
O O9 0.630737 0.651002 0.153573
O O10 0.814547 0.553696 0.137210
O O11 0.854162 0.613560 0.226014
O O12 0.491515 0.331633 0.446510
O O13 0.500000 0.000000 0.072913
#
# Coordination Sequence:
#
# PCOD8295197 Si02
#       8
#     8  16  16   8  16   8   4  16
#     4  12  23  46  69 108 132 195 232 294 368 421
#     4  11  24  42  69 101 138 183 232 296 361 425
#     4  11  26  44  69 102 136 186 242 293 352 430
#     4  12  24  42  73 100 140 176 231 294 361 423
#     4  11  25  43  69  99 144 186 235 292 355 439
#     4  10  24  44  66 100 131 185 228 292 356 420
#     4  12  28  44  72 102 142 202 234 292 364 428
#     4  12  24  44  70 104 140 178 236 300 358 430
#
# _framework density 21.158093000000001
#
# number of rings (size 3 to 8) (size 9 to 14) (size 15 to 20)
#    0.000    0.696    3.478    4.435    7.304    3.478 
#    0.000    0.000    0.000    2.087    0.000    0.000 
#    0.000    0.000    0.000    0.000    0.000    0.000 
#
# Total GULP energy -570174.010287 kJ/mol
# GULP energy per Si atom -12395.087180 kJ/mol
# Density = 2.110994 g / cm^3
# Si number density = 21.158093 Si / 1000 Ang^3
#
#
#
# Elastic Constant Matrix: (Units=GPa)
#
#
# Indices 1 2 3 4 5 6 
#
# 1 142.0710 52.3747 50.1889 0.0000 0.0000 0.0000
# 2 52.3747 115.1794 34.4127 0.0000 0.0000 0.0000
# 3 50.1889 34.4127 129.8867 0.0000 0.0000 0.0000
# 4 0.0000 0.0000 0.0000 39.5306 0.0000 0.0000
# 5 0.0000 0.0000 0.0000 0.0000 -25.6403 0.0000
# 6 0.0000 0.0000 0.0000 0.0000 0.0000 14.1432
#
#
#
# Elastic Compliance Matrix: (Units=1/GPa)
#
#
# Indices 1 2 3 4 5 6 
#
# 1 0.009235 -0.003403 -0.002667 0.000000 0.000000 0.000000
# 2 -0.003403 0.010682 -0.001515 0.000000 0.000000 0.000000
# 3 -0.002667 -0.001515 0.009131 0.000000 0.000000 0.000000
# 4 0.000000 0.000000 0.000000 0.025297 0.000000 0.000000
# 5 0.000000 0.000000 0.000000 0.000000 -0.039001 0.000000
# 6 0.000000 0.000000 0.000000 0.000000 0.000000 0.070705
#
#
# Mechanical properties :
#
#
# Convention : Reuss Voigt Hill
#
# Bulk Modulus (GPa) = 72.05468 73.45443 72.75455
# Shear Modulus (GPa) = 47.23844 22.28408 34.76126
#
# Velocity S-wave (km/s) = 4.73021 3.24885 4.05770
# Velocity P-wave (km/s) = 7.99766 6.99040 7.51093
#
# Compressibility (1/GPa) = 0.01387835
#
# Stress axis : x y z
#
# Youngs Moduli (GPa) = 108.27995 93.61432 109.51615
#
# Poissons Ratio (x) = 0.31854 0.29209
# Poissons Ratio (y) = 0.36844 0.16596
# Poissons Ratio (z) = 0.28879 0.14186
#
# Static dielectric constant tensor:
#      x y z
#    x 3.903860 0.000000 0.000000 
#    y 0.000000 3.584790 0.000000 
#    z 0.000000 0.000000 4.255510 
# 
# 
# High freq. dielectric constant tensor:
#      x y z
#    x 1.840760 0.000000 0.000000 
#    y 0.000000 1.807980 0.000000 
#    z 0.000000 0.000000 1.854540 
# 
# From -- ./inp_files/42332.got.cif
#   From: 2010.03.12/outbox.cif.g09.slc.cpg/sg72_22_cif.got.tgz:42332.got - 2010.04.16 14:54:00.
