data_PCOD8295030
_publ_section_title
;
Structure prediction by ZEFSAII (Michael W. Deem and Ramdas Pophale) SiO2 
 PCOD8295030
Probable space group: I B A M
;
_chemical_formula_sum "Si O2"
_cell_formula_units_Z 80
_cell_length_a 8.070014
_cell_length_b 17.726529
_cell_length_c 24.209111
_cell_angle_alpha 90.000000
_cell_angle_beta 90.000000
_cell_angle_gamma 90.000000
_cell_volume 3463.194119
_symmetry_space_group_name_H-M "I B A M"
_symmetry_group_IT_number 72
_symmetry_cell_setting 'orthorhombic'
loop_
_space_group_symop_operation_xyz
x,y,z
-x,-y,z
x,-y,1/2-z
-x,y,1/2-z
-x,-y,-z
x,y,-z
-x,y,1/2+z
x,-y,1/2+z
1/2+x,1/2+y,1/2+z
1/2-x,1/2-y,1/2+z
1/2+x,1/2-y,-z
1/2-x,1/2+y,-z
1/2-x,1/2-y,1/2-z
1/2+x,1/2+y,1/2-z
1/2-x,1/2+y,z
1/2+x,1/2-y,z
loop_
_atom_site_type_symbol
_atom_site_label
_atom_site_fract_x
_atom_site_fract_y
_atom_site_fract_z
Si Si1 0.156061 0.551544 0.062731
Si Si2 0.116358 0.800668 0.877309
Si Si3 0.562735 0.191234 0.939321
Si Si4 0.660002 0.815367 0.783818
Si Si5 0.106000 0.069618 0.163138
O O1 0.305382 0.541542 0.106480
O O2 0.000000 0.500000 0.079629
O O3 0.095157 0.637086 0.065770
O O4 0.216140 0.531014 0.000000
O O5 0.296694 0.829557 0.894913
O O6 0.117550 0.722903 0.842093
O O7 0.005298 0.776242 0.929947
O O8 0.032267 0.867416 0.845164
O O9 0.642685 0.186271 0.000000
O O10 0.500000 0.842392 0.750000
O O11 0.750000 0.750000 0.750000
O O12 0.765322 0.892423 0.793602
O O13 0.000000 0.000000 0.188452
#
# Coordination Sequence:
#
# PCOD8295030 Si02
#       5
#    16  16  16  16  16
#     4  10  22  42  67 102 152 203 241 291 370 442
#     4  12  22  42  68 102 143 185 245 303 367 435
#     4  11  21  36  64 102 145 194 248 297 356 443
#     4  12  24  47  78 102 138 196 245 309 382 440
#     4  12  26  45  74 110 149 187 247 310 368 446
#
# _framework density 23.100062000000001
#
# number of rings (size 3 to 8) (size 9 to 14) (size 15 to 20)
#    0.000    0.600    6.000    1.800    0.000    3.600 
#    0.000    2.000    0.000    0.000    0.000    0.000 
#    0.000    0.000    0.000    0.000    0.000    0.000 
#
# Total GULP energy -495879.344507 kJ/mol
# GULP energy per Si atom -12396.983613 kJ/mol
# Density = 2.304748 g / cm^3
# Si number density = 23.100062 Si / 1000 Ang^3
#
#
#
# Elastic Constant Matrix: (Units=GPa)
#
#
# Indices 1 2 3 4 5 6 
#
# 1 123.0839 46.8063 45.2794 0.0000 0.0000 0.0000
# 2 46.8063 122.7939 35.0097 0.0000 0.0000 0.0000
# 3 45.2794 35.0097 90.7248 0.0000 0.0000 0.0000
# 4 0.0000 0.0000 0.0000 25.6907 0.0000 0.0000
# 5 0.0000 0.0000 0.0000 0.0000 43.0246 0.0000
# 6 0.0000 0.0000 0.0000 0.0000 0.0000 50.6595
#
#
#
# Elastic Compliance Matrix: (Units=1/GPa)
#
#
# Indices 1 2 3 4 5 6 
#
# 1 0.010798 -0.002898 -0.004271 0.000000 0.000000 0.000000
# 2 -0.002898 0.009928 -0.002385 0.000000 0.000000 0.000000
# 3 -0.004271 -0.002385 0.014074 0.000000 0.000000 0.000000
# 4 0.000000 0.000000 0.000000 0.038925 0.000000 0.000000
# 5 0.000000 0.000000 0.000000 0.000000 0.023243 0.000000
# 6 0.000000 0.000000 0.000000 0.000000 0.000000 0.019740
#
#
# Mechanical properties :
#
#
# Convention : Reuss Voigt Hill
#
# Bulk Modulus (GPa) = 63.72320 65.64370 64.68345
# Shear Modulus (GPa) = 35.44965 37.84210 36.64588
#
# Velocity S-wave (km/s) = 3.92166 4.05184 3.98728
# Velocity P-wave (km/s) = 6.93913 7.09709 7.01855
#
# Compressibility (1/GPa) = 0.01569287
#
# Stress axis : x y z
#
# Youngs Moduli (GPa) = 92.61205 100.72108 71.05313
#
# Poissons Ratio (x) = 0.29192 0.30344
# Poissons Ratio (y) = 0.26842 0.16945
# Poissons Ratio (z) = 0.39551 0.24020
#
# Static dielectric constant tensor:
#      x y z
#    x 4.243780 0.000000 0.000000 
#    y 0.000000 4.130580 0.000000 
#    z 0.000000 0.000000 4.470000 
# 
# 
# High freq. dielectric constant tensor:
#      x y z
#    x 1.916580 0.000000 0.000000 
#    y 0.000000 1.904250 0.000000 
#    z 0.000000 0.000000 1.913620 
# 
# From -- ./inp_files/47181.got.cif
#   From: 2010.03.12/outbox.cif.g09.slc.cpg/sg72_24_cif.got.tgz:47181.got - 2010.04.16 14:54:00.
