data_PCOD8295180
_publ_section_title
;
Structure prediction by ZEFSAII (Michael W. Deem and Ramdas Pophale) SiO2 
 PCOD8295180
Probable space group: I B A M
;
_chemical_formula_sum "Si O2"
_cell_formula_units_Z 72
_cell_length_a 8.702283
_cell_length_b 33.126006
_cell_length_c 12.619583
_cell_angle_alpha 90.000000
_cell_angle_beta 90.000000
_cell_angle_gamma 90.000000
_cell_volume 3637.870902
_symmetry_space_group_name_H-M "I B A M"
_symmetry_group_IT_number 72
_symmetry_cell_setting 'orthorhombic'
loop_
_space_group_symop_operation_xyz
x,y,z
-x,-y,z
x,-y,1/2-z
-x,y,1/2-z
-x,-y,-z
x,y,-z
-x,y,1/2+z
x,-y,1/2+z
1/2+x,1/2+y,1/2+z
1/2-x,1/2-y,1/2+z
1/2+x,1/2-y,-z
1/2-x,1/2+y,-z
1/2-x,1/2-y,1/2-z
1/2+x,1/2+y,1/2-z
1/2-x,1/2+y,z
1/2+x,1/2-y,z
loop_
_atom_site_type_symbol
_atom_site_label
_atom_site_fract_x
_atom_site_fract_y
_atom_site_fract_z
Si Si1 0.238128 0.705522 0.880491
Si Si2 0.134547 0.406970 0.115138
Si Si3 0.220441 0.028448 0.500000
Si Si4 0.625320 0.559708 0.500000
Si Si5 0.500000 0.253711 0.250000
Si Si6 0.290033 0.112959 0.161688
O O1 0.384639 0.717256 0.811483
O O2 0.084726 0.725088 0.833447
O O3 0.219146 0.657743 0.882370
O O4 0.259956 0.721286 0.000000
O O5 0.192181 0.453618 0.104273
O O6 0.229288 0.385944 0.210386
O O7 0.953456 0.406676 0.134948
O O8 0.169680 0.385386 0.000000
O O9 0.049146 0.046319 0.500000
O O10 0.230431 0.980415 0.500000
O O11 0.660465 0.585830 0.605351
#
# Coordination Sequence:
#
# PCOD8295180 Si02
#       6
#    16  16   8   8   8  16
#     4  11  22  42  63  95 123 164 200 259 303 378
#     4   9  20  40  56  89 115 164 199 252 289 356
#     4   9  23  39  57  83 128 153 207 237 315 351
#     4  11  21  39  59  91 114 165 191 261 297 363
#     4  10  24  40  64  90 128 160 204 242 322 370
#     4  11  21  37  67  86 123 149 211 246 301 347
#
# _framework density 19.791796000000001
#
# number of rings (size 3 to 8) (size 9 to 14) (size 15 to 20)
#    0.667    1.111    2.222    2.000    0.000    5.333 
#    0.000    8.889    0.000    0.000    0.000    0.000 
#    0.000    0.000    0.000    0.000    0.000    0.000 
#
# Total GULP energy -446176.964212 kJ/mol
# GULP energy per Si atom -12393.804561 kJ/mol
# Density = 1.974675 g / cm^3
# Si number density = 19.791796 Si / 1000 Ang^3
#
#
#
# Elastic Constant Matrix: (Units=GPa)
#
#
# Indices 1 2 3 4 5 6 
#
# 1 75.6352 47.9908 21.6352 -0.0001 -0.0001 0.0000
# 2 47.9908 108.6089 22.5605 -0.0003 -0.0001 0.0000
# 3 21.6352 22.5605 151.2984 -0.0008 0.0001 0.0002
# 4 -0.0001 -0.0003 -0.0008 32.4801 -0.0001 0.0000
# 5 -0.0001 -0.0001 0.0001 -0.0001 4.7931 0.0000
# 6 0.0000 0.0000 0.0002 0.0000 0.0000 17.5363
#
#
#
# Elastic Compliance Matrix: (Units=1/GPa)
#
#
# Indices 1 2 3 4 5 6 
#
# 1 0.018691 -0.007950 -0.001487 0.000000 0.000000 0.000000
# 2 -0.007950 0.012883 -0.000784 0.000000 0.000000 0.000000
# 3 -0.001487 -0.000784 0.006939 0.000000 0.000000 0.000000
# 4 0.000000 0.000000 0.000000 0.030788 0.000001 0.000000
# 5 0.000000 0.000000 0.000000 0.000001 0.208634 0.000001
# 6 0.000000 0.000000 0.000000 0.000000 0.000001 0.057025
#
#
# Mechanical properties :
#
#
# Convention : Reuss Voigt Hill
#
# Bulk Modulus (GPa) = 55.33984 57.76839 56.55412
# Shear Modulus (GPa) = 13.83406 27.18562 20.50984
#
# Velocity S-wave (km/s) = 2.64669 3.71021 3.22262
# Velocity P-wave (km/s) = 6.11242 6.89968 6.51795
#
# Compressibility (1/GPa) = 0.01807016
#
# Stress axis : x y z
#
# Youngs Moduli (GPa) = 53.50131 77.62097 144.11147
#
# Poissons Ratio (x) = 0.61709 0.21434
# Poissons Ratio (y) = 0.42534 0.11301
# Poissons Ratio (z) = 0.07957 0.06087
#
# Static dielectric constant tensor:
#      x y z
#    x 3.621980 0.000000 0.000000 
#    y 0.000000 3.458640 0.000000 
#    z 0.000000 0.000000 3.997770 
# 
# 
# High freq. dielectric constant tensor:
#      x y z
#    x 1.770490 0.000000 0.000000 
#    y 0.000000 1.759410 0.000000 
#    z 0.000000 0.000000 1.784490 
# 
# From -- ./inp_files/18921.got.cif
#   From: 2010.03.12/outbox.cif.g09.slc.cpg/sg72_10_cif.got.tgz:18921.got - 2010.04.16 14:54:00.
