data_PCOD8295656
_publ_section_title
;
Structure prediction by ZEFSAII (Michael W. Deem and Ramdas Pophale) SiO2 
 PCOD8295656
Probable space group: I B C A 
;
_chemical_formula_sum "Si O2"
_cell_formula_units_Z 112
_cell_length_a 22.355640
_cell_length_b 14.889454
_cell_length_c 17.053275
_cell_angle_alpha 90.000000
_cell_angle_beta 90.000000
_cell_angle_gamma 90.000000
_cell_volume 5676.408939
_symmetry_space_group_name_H-M "I B C A "
_symmetry_group_IT_number 73
_symmetry_cell_setting 'orthorhombic'
loop_
_space_group_symop_operation_xyz
x,y,z
-x,1/2-y,z
x,-y,1/2-z
1/2-x,y,-z
-x,-y,-z
x,1/2+y,-z
-x,y,1/2+z
1/2+x,-y,z
1/2+x,1/2+y,1/2+z
1/2-x,-y,1/2+z
1/2+x,1/2-y,-z
-x,1/2+y,1/2-z
1/2-x,1/2-y,1/2-z
1/2+x,y,1/2-z
1/2-x,1/2+y,z
x,1/2-y,1/2+z
loop_
_atom_site_type_symbol
_atom_site_label
_atom_site_fract_x
_atom_site_fract_y
_atom_site_fract_z
Si Si1 0.553956 0.864452 0.605519
Si Si2 0.669371 0.443812 0.819130
Si Si3 0.115603 0.954629 0.569565
Si Si4 0.582775 0.837045 0.078340
Si Si5 0.773007 0.345958 0.733918
Si Si6 0.739984 0.956810 0.586274
Si Si7 0.896051 0.400900 0.768088
O O1 0.484313 0.871178 0.588162
O O2 0.583399 0.771497 0.573956
O O3 0.557469 0.870289 0.700961
O O4 0.586153 0.946173 0.559497
O O5 0.635497 0.500000 0.750000
O O6 0.624022 0.367195 0.848345
O O7 0.731223 0.412920 0.780602
O O8 0.694565 0.502478 0.891500
O O9 0.108525 0.886552 0.497862
O O10 0.080475 0.904816 0.642143
O O11 0.186372 0.969033 0.586879
O O12 0.750000 0.250000 0.750000
O O13 0.776612 0.373616 0.642476
O O14 0.839293 0.337063 0.767380
O O15 0.750000 0.916578 0.500000
O O16 0.871016 0.500000 0.750000
#
# Coordination Sequence:
#
# PCOD8295656 Si02
#       7
#    16  16  16  16  16  16  16
#     4  10  23  41  64  89 120 165 216 255 311 382
#     4  10  21  35  57  87 125 163 200 249 320 376
#     4  11  21  40  67  88 121 168 211 255 317 375
#     4  11  23  42  61  92 131 159 203 275 320 363
#     4  11  20  35  57  87 125 161 205 254 308 365
#     4  11  20  38  59  89 124 160 206 258 308 379
#     4  10  18  38  64  84 112 164 216 248 294 383
#
# _framework density 19.730784
#
# number of rings (size 3 to 8) (size 9 to 14) (size 15 to 20)
#    0.000    1.429    5.714    1.714    0.000    1.714 
#    2.571    5.000    0.000    0.000    0.000    0.000 
#    0.000    0.000    0.000    0.000    0.000    0.000 
#
# Total GULP energy -693870.806971 kJ/mol
# GULP energy per Si atom -12390.550124 kJ/mol
# Density = 1.968588 g / cm^3
# Si number density = 19.730784 Si / 1000 Ang^3
#
#
#
# Elastic Constant Matrix: (Units=GPa)
#
#
# Indices 1 2 3 4 5 6 
#
# 1 70.3173 28.0920 23.0476 0.0000 0.0000 0.0000
# 2 28.0920 98.8200 51.6269 0.0000 0.0000 0.0000
# 3 23.0476 51.6269 129.4046 0.0000 0.0000 0.0000
# 4 0.0000 0.0000 0.0000 28.7216 0.0000 0.0000
# 5 0.0000 0.0000 0.0000 0.0000 22.7731 0.0000
# 6 0.0000 0.0000 0.0000 0.0000 0.0000 26.3510
#
#
#
# Elastic Compliance Matrix: (Units=1/GPa)
#
#
# Indices 1 2 3 4 5 6 
#
# 1 0.016221 -0.003919 -0.001326 0.000000 0.000000 0.000000
# 2 -0.003919 0.013731 -0.004780 0.000000 0.000000 0.000000
# 3 -0.001326 -0.004780 0.009871 0.000000 0.000000 0.000000
# 4 0.000000 0.000000 0.000000 0.034817 0.000000 0.000000
# 5 0.000000 0.000000 0.000000 0.000000 0.043911 0.000000
# 6 0.000000 0.000000 0.000000 0.000000 0.000000 0.037949
#
#
# Mechanical properties :
#
#
# Convention : Reuss Voigt Hill
#
# Bulk Modulus (GPa) = 50.57158 56.00833 53.28996
# Shear Modulus (GPa) = 27.30144 28.62084 27.96114
#
# Velocity S-wave (km/s) = 3.72384 3.81276 3.76857
# Velocity P-wave (km/s) = 6.64649 6.91598 6.78257
#
# Compressibility (1/GPa) = 0.01977395
#
# Stress axis : x y z
#
# Youngs Moduli (GPa) = 61.64730 72.82981 101.30865
#
# Poissons Ratio (x) = 0.28540 0.13430
# Poissons Ratio (y) = 0.24158 0.48425
# Poissons Ratio (z) = 0.08173 0.34813
#
# Static dielectric constant tensor:
#      x y z
#    x 3.394670 0.000000 0.000000 
#    y 0.000000 3.468340 0.000000 
#    z 0.000000 0.000000 3.880480 
# 
# 
# High freq. dielectric constant tensor:
#      x y z
#    x 1.760960 0.000000 0.000000 
#    y 0.000000 1.756450 0.000000 
#    z 0.000000 0.000000 1.775960 
# 
# From -- ./inp_files/19432.got.cif
#   From: 2010.03.12/outbox.cif.g09.slc.cpg/sg73_10_cif.got.tgz:19432.got - 2010.04.16 15:25:48.
