data_PCOD8295066
_publ_section_title
;
Structure prediction by ZEFSAII (Michael W. Deem and Ramdas Pophale) SiO2 
 PCOD8295066
Probable space group: I B A M
;
_chemical_formula_sum "Si O2"
_cell_formula_units_Z 84
_cell_length_a 11.124179
_cell_length_b 14.847101
_cell_length_c 26.666548
_cell_angle_alpha 90.000000
_cell_angle_beta 90.000000
_cell_angle_gamma 90.000000
_cell_volume 4404.295312
_symmetry_space_group_name_H-M "I B A M"
_symmetry_group_IT_number 72
_symmetry_cell_setting 'orthorhombic'
loop_
_space_group_symop_operation_xyz
x,y,z
-x,-y,z
x,-y,1/2-z
-x,y,1/2-z
-x,-y,-z
x,y,-z
-x,y,1/2+z
x,-y,1/2+z
1/2+x,1/2+y,1/2+z
1/2-x,1/2-y,1/2+z
1/2+x,1/2-y,-z
1/2-x,1/2+y,-z
1/2-x,1/2-y,1/2-z
1/2+x,1/2+y,1/2-z
1/2-x,1/2+y,z
1/2+x,1/2-y,z
loop_
_atom_site_type_symbol
_atom_site_label
_atom_site_fract_x
_atom_site_fract_y
_atom_site_fract_z
Si Si1 0.000000 0.000000 0.750000
Si Si2 0.004548 0.605210 0.555274
Si Si3 0.404313 0.639400 0.500000
Si Si4 0.767938 0.376704 0.896268
Si Si5 0.745806 0.321240 0.592456
Si Si6 0.842862 0.070057 0.500000
Si Si7 0.626279 0.528346 0.845776
O O1 0.907962 0.051695 0.787648
O O2 0.978893 0.650083 0.500000
O O3 0.136978 0.630466 0.572553
O O4 0.000000 0.500000 0.548032
O O5 0.912666 0.632193 0.599981
O O6 0.351585 0.690265 0.548209
O O7 0.374589 0.534166 0.500000
O O8 0.548644 0.642580 0.500000
O O9 0.718337 0.276458 0.885412
O O10 0.733502 0.414084 0.950595
O O11 0.719127 0.444512 0.853239
O O12 0.683569 0.380310 0.635136
O O13 0.500000 0.500000 0.874059
#
# Coordination Sequence:
#
# PCOD8295066 Si02
#       7
#     4  16   8  16  16   8  16
#     4   8  24  44  84  80 116 154 204 284 334 366
#     4  11  22  37  50  80 133 176 197 235 292 347
#     4  11  21  35  55  88 129 179 216 256 280 352
#     4  12  24  36  60  91 131 167 211 251 299 374
#     4  12  24  36  60  91 131 167 211 251 299 374
#     4  11  21  35  55  88 129 179 216 256 280 352
#     4  10  22  46  66  90 112 158 212 257 324 373
#
# _framework density 19.072291
#
# number of rings (size 3 to 8) (size 9 to 14) (size 15 to 20)
#    0.571    0.381    5.714    1.714    5.333    0.000 
#    0.000    0.952    0.000    2.286    0.000    0.000 
#    0.000    0.000    0.000    0.000    0.000    0.000 
#
# Total GULP energy -520439.294118 kJ/mol
# GULP energy per Si atom -12391.411765 kJ/mol
# Density = 1.902888 g / cm^3
# Si number density = 19.072291 Si / 1000 Ang^3
#
#
#
# Elastic Constant Matrix: (Units=GPa)
#
#
# Indices 1 2 3 4 5 6 
#
# 1 72.7613 -8.2752 26.0686 0.0000 0.0000 0.0000
# 2 -8.2752 75.2962 31.6701 0.0000 0.0000 0.0000
# 3 26.0686 31.6701 97.7786 0.0000 0.0000 0.0000
# 4 0.0000 0.0000 0.0000 -8.1667 0.0000 0.0000
# 5 0.0000 0.0000 0.0000 0.0000 -46.1363 0.0000
# 6 0.0000 0.0000 0.0000 0.0000 0.0000 22.4050
#
#
#
# Elastic Compliance Matrix: (Units=1/GPa)
#
#
# Indices 1 2 3 4 5 6 
#
# 1 0.016257 0.004179 -0.005688 0.000000 0.000000 0.000000
# 2 0.004179 0.016450 -0.006442 0.000000 0.000000 0.000000
# 3 -0.005688 -0.006442 0.013830 0.000000 0.000000 0.000000
# 4 0.000000 0.000000 0.000000 -0.122449 0.000000 0.000000
# 5 0.000000 0.000000 0.000000 0.000000 -0.021675 0.000000
# 6 0.000000 0.000000 0.000000 0.000000 0.000000 0.044633
#
#
# Mechanical properties :
#
#
# Convention : Reuss Voigt Hill
#
# Bulk Modulus (GPa) = 32.64273 38.30701 35.47487
# Shear Modulus (GPa) = -186.28090 6.71192 -89.78449
#
# Velocity S-wave (km/s) = -9.89358 1.87799 -6.86863
# Velocity P-wave (km/s) = 10.64698 4.98309 6.65308
#
# Compressibility (1/GPa) = 0.03063469
#
# Stress axis : x y z
#
# Youngs Moduli (GPa) = 61.51348 60.79117 72.30580
#
# Poissons Ratio (x) = -0.25404 0.41125
# Poissons Ratio (y) = -0.25706 0.46580
# Poissons Ratio (z) = 0.34987 0.39163
#
# Static dielectric constant tensor:
#      x y z
#    x 6.246740 0.000000 0.000000 
#    y 0.000000 3.541900 0.000000 
#    z 0.000000 0.000000 3.100820 
# 
# 
# High freq. dielectric constant tensor:
#      x y z
#    x 1.759470 0.000000 0.000000 
#    y 0.000000 1.747020 0.000000 
#    z 0.000000 0.000000 1.684440 
# 
# From -- ./inp_files/51399.got.cif
#   From: 2010.03.12/outbox.cif.g09.slc.cpg/sg72_26_cif.got.tgz:51399.got - 2010.04.16 14:54:00.
