data_PCOD8295035
_publ_section_title
;
Structure prediction by ZEFSAII (Michael W. Deem and Ramdas Pophale) SiO2 
 PCOD8295035
Probable space group: I B A M
;
_chemical_formula_sum "Si O2"
_cell_formula_units_Z 68
_cell_length_a 11.591009
_cell_length_b 11.577081
_cell_length_c 27.221847
_cell_angle_alpha 90.000000
_cell_angle_beta 90.000000
_cell_angle_gamma 90.000000
_cell_volume 3652.901012
_symmetry_space_group_name_H-M "I B A M"
_symmetry_group_IT_number 72
_symmetry_cell_setting 'orthorhombic'
loop_
_space_group_symop_operation_xyz
x,y,z
-x,-y,z
x,-y,1/2-z
-x,y,1/2-z
-x,-y,-z
x,y,-z
-x,y,1/2+z
x,-y,1/2+z
1/2+x,1/2+y,1/2+z
1/2-x,1/2-y,1/2+z
1/2+x,1/2-y,-z
1/2-x,1/2+y,-z
1/2-x,1/2-y,1/2-z
1/2+x,1/2+y,1/2-z
1/2-x,1/2+y,z
1/2+x,1/2-y,z
loop_
_atom_site_type_symbol
_atom_site_label
_atom_site_fract_x
_atom_site_fract_y
_atom_site_fract_z
Si Si1 0.972988 0.813906 0.600009
Si Si2 0.500000 0.000000 0.750000
Si Si3 0.310983 0.011453 0.000000
Si Si4 0.518530 0.184577 0.000000
Si Si5 0.591009 0.911671 0.155636
Si Si6 0.684987 0.473522 0.899531
O O1 0.942348 0.716014 0.639099
O O2 0.000148 0.764901 0.546667
O O3 0.086028 0.883870 0.615724
O O4 0.861707 0.896222 0.600307
O O5 0.580045 0.919365 0.784941
O O6 0.424061 0.086813 0.000000
O O7 0.234867 0.047692 0.953549
O O8 0.354364 0.877082 0.000000
O O9 0.717356 0.953903 0.140968
O O10 0.500000 0.000000 0.130103
#
# Coordination Sequence:
#
# PCOD8295035 Si02
#       6
#    16   4   8   8  16  16
#     4  11  24  39  61  95 131 168 208 253 303 364
#     4   8  24  44  68  98 108 156 212 256 328 382
#     4  11  22  35  58  93 129 172 212 245 291 359
#     4  11  22  35  58  93 129 172 212 245 291 359
#     4  10  22  42  68  89 116 159 208 254 319 377
#     4  11  24  39  61  95 131 168 208 253 303 364
#
# _framework density 18.615341000000001
#
# number of rings (size 3 to 8) (size 9 to 14) (size 15 to 20)
#    0.706    0.706    2.353    2.824    6.588    3.765 
#    0.000    4.706    0.000    2.824    0.000    0.000 
#    0.000    0.000    0.000    0.000    0.000    0.000 
#
# Total GULP energy -421492.618740 kJ/mol
# GULP energy per Si atom -12396.841728 kJ/mol
# Density = 1.857297 g / cm^3
# Si number density = 18.615341 Si / 1000 Ang^3
#
#
#
# Elastic Constant Matrix: (Units=GPa)
#
#
# Indices 1 2 3 4 5 6 
#
# 1 101.9811 28.7896 30.0867 0.0000 0.0000 0.0000
# 2 28.7896 89.6053 21.0505 0.0000 0.0000 0.0000
# 3 30.0867 21.0505 112.1571 0.0000 0.0000 0.0000
# 4 0.0000 0.0000 0.0000 9.8532 0.0000 0.0000
# 5 0.0000 0.0000 0.0000 0.0000 -1.9004 0.0000
# 6 0.0000 0.0000 0.0000 0.0000 0.0000 32.7691
#
#
#
# Elastic Compliance Matrix: (Units=1/GPa)
#
#
# Indices 1 2 3 4 5 6 
#
# 1 0.011408 -0.003082 -0.002482 0.000000 0.000000 0.000000
# 2 -0.003082 0.012508 -0.001521 0.000000 0.000000 0.000000
# 3 -0.002482 -0.001521 0.009867 0.000000 0.000000 0.000000
# 4 0.000000 0.000000 0.000000 0.101490 0.000000 0.000000
# 5 0.000000 0.000000 0.000000 0.000000 -0.526205 0.000000
# 6 0.000000 0.000000 0.000000 0.000000 0.000000 0.030517
#
#
# Mechanical properties :
#
#
# Convention : Reuss Voigt Hill
#
# Bulk Modulus (GPa) = 50.98552 51.51079 51.24816
# Shear Modulus (GPa) = -14.71853 23.06550 4.17348
#
# Velocity S-wave (km/s) = -2.81493 3.52385 1.49894
# Velocity P-wave (km/s) = 4.10893 6.65491 5.53042
#
# Compressibility (1/GPa) = 0.01961341
#
# Stress axis : x y z
#
# Youngs Moduli (GPa) = 87.65739 79.95127 101.34567
#
# Poissons Ratio (x) = 0.24643 0.25152
# Poissons Ratio (y) = 0.27019 0.15411
# Poissons Ratio (z) = 0.21754 0.12158
#
# Static dielectric constant tensor:
#      x y z
#    x 3.696650 0.000000 0.000000 
#    y 0.000000 3.649250 0.000000 
#    z 0.000000 0.000000 2.919910 
# 
# 
# High freq. dielectric constant tensor:
#      x y z
#    x 1.734760 0.000000 0.000000 
#    y 0.000000 1.733450 0.000000 
#    z 0.000000 0.000000 1.699430 
# 
# From -- ./inp_files/47929.got.cif
#   From: 2010.03.12/outbox.cif.g09.slc.cpg/sg72_24_cif.got.tgz:47929.got - 2010.04.16 14:54:00.
