data_PCOD8295603
_publ_section_title
;
Structure prediction by ZEFSAII (Michael W. Deem and Ramdas Pophale) SiO2 
 PCOD8295603
Probable space group: I B C A 
;
_chemical_formula_sum "Si O2"
_cell_formula_units_Z 104
_cell_length_a 15.902588
_cell_length_b 11.419071
_cell_length_c 29.948775
_cell_angle_alpha 90.000000
_cell_angle_beta 90.000000
_cell_angle_gamma 90.000000
_cell_volume 5438.481353
_symmetry_space_group_name_H-M "I B C A "
_symmetry_group_IT_number 73
_symmetry_cell_setting 'orthorhombic'
loop_
_space_group_symop_operation_xyz
x,y,z
-x,1/2-y,z
x,-y,1/2-z
1/2-x,y,-z
-x,-y,-z
x,1/2+y,-z
-x,y,1/2+z
1/2+x,-y,z
1/2+x,1/2+y,1/2+z
1/2-x,-y,1/2+z
1/2+x,1/2-y,-z
-x,1/2+y,1/2-z
1/2-x,1/2-y,1/2-z
1/2+x,y,1/2-z
1/2-x,1/2+y,z
x,1/2-y,1/2+z
loop_
_atom_site_type_symbol
_atom_site_label
_atom_site_fract_x
_atom_site_fract_y
_atom_site_fract_z
Si Si1 0.943136 0.989728 0.697499
Si Si2 0.546871 0.360912 0.036246
Si Si3 0.151484 0.885927 0.614576
Si Si4 0.000000 0.250000 0.839991
Si Si5 0.043619 0.092634 0.062065
Si Si6 0.162853 0.138534 0.138599
Si Si7 0.579411 0.118994 0.861037
O O1 0.955941 0.852092 0.688693
O O2 0.940221 0.000000 0.750000
O O3 0.855974 0.039259 0.676072
O O4 0.015773 0.071947 0.676609
O O5 0.500000 0.250000 0.056912
O O6 0.637178 0.381719 0.060742
O O7 0.481128 0.462957 0.047295
O O8 0.561864 0.337750 0.983586
O O9 0.073112 0.811582 0.632211
O O10 0.238965 0.834610 0.631686
O O11 0.149534 0.020252 0.631077
O O12 0.128184 0.091031 0.091359
O O13 0.968627 0.146720 0.092273
O O14 0.121407 0.260639 0.154701
#
# Coordination Sequence:
#
# PCOD8295603 Si02
#       7
#    16  16  16   8  16  16  16
#     4  10  22  39  66  88 110 153 198 237 300 360
#     4  10  18  32  57  79 117 154 203 235 281 351
#     4  10  22  36  58  88 114 163 192 243 295 348
#     4  10  22  42  60  84 120 152 198 238 296 368
#     4   9  19  34  53  85 110 159 197 238 289 348
#     4  11  22  36  61  84 125 149 197 247 298 345
#     4   9  20  39  58  82 119 154 196 237 298 351
#
# _framework density 19.122986000000001
#
# number of rings (size 3 to 8) (size 9 to 14) (size 15 to 20)
#    0.000    2.154    0.769    3.692    4.308    0.615 
#    0.000    3.846    0.000    5.538    0.000    0.000 
#    0.000    0.000    0.000    0.000    0.000    0.000 
#
# Total GULP energy -644403.991736 kJ/mol
# GULP energy per Si atom -12392.384456 kJ/mol
# Density = 1.907946 g / cm^3
# Si number density = 19.122986 Si / 1000 Ang^3
#
#
#
# Elastic Constant Matrix: (Units=GPa)
#
#
# Indices 1 2 3 4 5 6 
#
# 1 91.1723 31.4285 37.3435 0.0000 0.0000 0.0000
# 2 31.4285 113.2325 39.2756 0.0000 0.0000 0.0000
# 3 37.3435 39.2756 121.3078 0.0000 0.0000 0.0000
# 4 0.0000 0.0000 0.0000 16.0370 0.0000 0.0000
# 5 0.0000 0.0000 0.0000 0.0000 9.0894 0.0000
# 6 0.0000 0.0000 0.0000 0.0000 0.0000 20.1139
#
#
#
# Elastic Compliance Matrix: (Units=1/GPa)
#
#
# Indices 1 2 3 4 5 6 
#
# 1 0.013165 -0.002533 -0.003233 0.000000 0.000000 0.000000
# 2 -0.002533 0.010436 -0.002599 0.000000 0.000000 0.000000
# 3 -0.003233 -0.002599 0.010080 0.000000 0.000000 0.000000
# 4 0.000000 0.000000 0.000000 0.062356 0.000000 0.000000
# 5 0.000000 0.000000 0.000000 0.000000 0.110018 0.000000
# 6 0.000000 0.000000 0.000000 0.000000 0.000000 0.049717
#
#
# Mechanical properties :
#
#
# Convention : Reuss Voigt Hill
#
# Bulk Modulus (GPa) = 58.98987 60.20085 59.59536
# Shear Modulus (GPa) = 17.97576 23.55907 20.76742
#
# Velocity S-wave (km/s) = 3.06928 3.51376 3.29901
# Velocity P-wave (km/s) = 6.59358 6.92901 6.76337
#
# Compressibility (1/GPa) = 0.01695206
#
# Stress axis : x y z
#
# Youngs Moduli (GPa) = 75.95618 95.82291 99.20450
#
# Poissons Ratio (x) = 0.24270 0.32071
# Poissons Ratio (y) = 0.19239 0.25784
# Poissons Ratio (z) = 0.24555 0.24905
#
# Static dielectric constant tensor:
#      x y z
#    x 3.229320 0.000000 0.000000 
#    y 0.000000 3.800500 0.000000 
#    z 0.000000 0.000000 3.531990 
# 
# 
# High freq. dielectric constant tensor:
#      x y z
#    x 1.711730 0.000000 0.000000 
#    y 0.000000 1.764270 0.000000 
#    z 0.000000 0.000000 1.737800 
# 
# From -- ./inp_files/34554.got.cif
#   From: 2010.03.12/outbox.cif.g09.slc.cpg/sg73_18_cif.got.tgz:34554.got - 2010.04.16 15:25:48.
