data_PCOD8295377
_publ_section_title
;
Structure prediction by ZEFSAII (Michael W. Deem and Ramdas Pophale) SiO2 
 PCOD8295377
Probable space group: I B A M
;
_chemical_formula_sum "Si O2"
_cell_formula_units_Z 64
_cell_length_a 8.476304
_cell_length_b 23.766198
_cell_length_c 16.990914
_cell_angle_alpha 90.000000
_cell_angle_beta 90.000000
_cell_angle_gamma 90.000000
_cell_volume 3422.811456
_symmetry_space_group_name_H-M "I B A M"
_symmetry_group_IT_number 72
_symmetry_cell_setting 'orthorhombic'
loop_
_space_group_symop_operation_xyz
x,y,z
-x,-y,z
x,-y,1/2-z
-x,y,1/2-z
-x,-y,-z
x,y,-z
-x,y,1/2+z
x,-y,1/2+z
1/2+x,1/2+y,1/2+z
1/2-x,1/2-y,1/2+z
1/2+x,1/2-y,-z
1/2-x,1/2+y,-z
1/2-x,1/2-y,1/2-z
1/2+x,1/2+y,1/2-z
1/2-x,1/2+y,z
1/2+x,1/2-y,z
loop_
_atom_site_type_symbol
_atom_site_label
_atom_site_fract_x
_atom_site_fract_y
_atom_site_fract_z
Si Si1 0.312614 0.499237 0.585699
Si Si2 0.816750 0.311007 0.267024
Si Si3 0.815457 0.875211 0.408596
Si Si4 0.113825 0.899630 0.679695
O O1 0.500000 0.500000 0.578719
O O2 0.240262 0.483753 0.500000
O O3 0.251724 0.561337 0.610560
O O4 0.274305 0.450883 0.649359
O O5 0.750000 0.250000 0.250000
O O6 0.781650 0.330386 0.356668
O O7 0.732205 0.352102 0.206595
O O8 0.000000 0.311829 0.250000
O O9 0.792418 0.859783 0.500000
O O10 0.002343 0.873305 0.388397
O O11 0.000000 0.921182 0.750000
#
# Coordination Sequence:
#
# PCOD8295377 Si02
#       4
#    16  16  16  16
#     4   8  14  27  50  81 112 139 171 211 256 312
#     4  11  23  40  56  75 105 142 184 227 270 317
#     4   9  18  35  58  83 111 141 176 218 263 314
#     4   9  17  30  54  82 109 141 179 217 259 309
#
# _framework density 18.698079
#
# number of rings (size 3 to 8) (size 9 to 14) (size 15 to 20)
#    0.000    2.750    0.000    4.500    0.000   11.500 
#    0.000   11.250    0.000    3.000    0.000    0.000 
#    0.000    0.000    0.000    0.000    0.000    0.000 
#
# Total GULP energy -396536.677622 kJ/mol
# GULP energy per Si atom -12391.771176 kJ/mol
# Density = 1.865552 g / cm^3
# Si number density = 18.698079 Si / 1000 Ang^3
#
#
#
# Elastic Constant Matrix: (Units=GPa)
#
#
# Indices 1 2 3 4 5 6 
#
# 1 78.4529 50.9251 49.7952 0.0000 0.0000 0.0000
# 2 50.9251 153.5654 98.4005 0.0001 0.0001 0.0000
# 3 49.7952 98.4005 134.9503 0.0001 0.0002 0.0001
# 4 0.0000 0.0001 0.0001 15.8232 0.0000 0.0000
# 5 0.0000 0.0001 0.0002 0.0000 16.6639 -0.0001
# 6 0.0000 0.0000 0.0001 0.0000 -0.0001 24.0706
#
#
#
# Elastic Compliance Matrix: (Units=1/GPa)
#
#
# Indices 1 2 3 4 5 6 
#
# 1 0.017401 -0.003109 -0.004154 0.000000 0.000000 0.000000
# 2 -0.003109 0.012778 -0.008170 0.000000 0.000000 0.000000
# 3 -0.004154 -0.008170 0.014900 0.000000 0.000000 0.000000
# 4 0.000000 0.000000 0.000000 0.063198 0.000000 0.000000
# 5 0.000000 0.000000 0.000000 0.000000 0.060010 0.000000
# 6 0.000000 0.000000 0.000000 0.000000 0.000000 0.041544
#
#
# Mechanical properties :
#
#
# Convention : Reuss Voigt Hill
#
# Bulk Modulus (GPa) = 70.35543 85.02333 77.68938
# Shear Modulus (GPa) = 20.37194 22.50140 21.43667
#
# Velocity S-wave (km/s) = 3.30437 3.47278 3.38962
# Velocity P-wave (km/s) = 7.22961 7.85179 7.54712
#
# Compressibility (1/GPa) = 0.01421354
#
# Stress axis : x y z
#
# Youngs Moduli (GPa) = 57.46776 78.25964 67.11291
#
# Poissons Ratio (x) = 0.24329 0.27879
# Poissons Ratio (y) = 0.17865 0.54832
# Poissons Ratio (z) = 0.23872 0.63939
#
# Static dielectric constant tensor:
#      x y z
#    x 3.133810 0.000000 0.000000 
#    y 0.000000 3.655900 0.000000 
#    z 0.000000 0.000000 3.734590 
# 
# 
# High freq. dielectric constant tensor:
#      x y z
#    x 1.678690 0.000000 0.000000 
#    y 0.000000 1.726030 0.000000 
#    z 0.000000 0.000000 1.735120 
# 
# From -- ./inp_files/27641.got.cif
#   From: 2010.03.12/outbox.cif.g09.slc.cpg/sg72_14_cif.got.tgz:27641.got - 2010.04.16 14:54:00.
