data_PCOD8295410
_publ_section_title
;
Structure prediction by ZEFSAII (Michael W. Deem and Ramdas Pophale) SiO2 
 PCOD8295410
Probable space group: I B A M
;
_chemical_formula_sum "Si O2"
_cell_formula_units_Z 88
_cell_length_a 4.966112
_cell_length_b 30.807675
_cell_length_c 26.943471
_cell_angle_alpha 90.000000
_cell_angle_beta 90.000000
_cell_angle_gamma 90.000000
_cell_volume 4122.199223
_symmetry_space_group_name_H-M "I B A M"
_symmetry_group_IT_number 72
_symmetry_cell_setting 'orthorhombic'
loop_
_space_group_symop_operation_xyz
x,y,z
-x,-y,z
x,-y,1/2-z
-x,y,1/2-z
-x,-y,-z
x,y,-z
-x,y,1/2+z
x,-y,1/2+z
1/2+x,1/2+y,1/2+z
1/2-x,1/2-y,1/2+z
1/2+x,1/2-y,-z
1/2-x,1/2+y,-z
1/2-x,1/2-y,1/2-z
1/2+x,1/2+y,1/2-z
1/2-x,1/2+y,z
1/2+x,1/2-y,z
loop_
_atom_site_type_symbol
_atom_site_label
_atom_site_fract_x
_atom_site_fract_y
_atom_site_fract_z
Si Si1 0.500000 0.175030 0.250000
Si Si2 0.234986 0.601453 0.500000
Si Si3 0.500000 0.614596 0.250000
Si Si4 0.485009 0.221456 0.148174
Si Si5 0.514188 0.413754 0.143514
Si Si6 0.971353 0.632332 0.897926
Si Si7 0.254459 0.043896 0.000000
Si Si8 0.000000 0.000000 0.587316
O O1 0.248901 0.145060 0.263161
O O2 0.435105 0.205830 0.204017
O O3 0.154521 0.629656 0.547424
O O4 0.545240 0.585170 0.500000
O O5 0.061601 0.557996 0.500000
O O6 0.423622 0.584398 0.202524
O O7 0.280944 0.260456 0.137635
O O8 0.434058 0.181421 0.111135
O O9 0.269410 0.379974 0.139155
O O10 0.412427 0.460215 0.122876
O O11 0.774088 0.399141 0.111607
O O12 0.234008 0.015330 0.049949
#
# Coordination Sequence:
#
# PCOD8295410 Si02
#       8
#     8   8   8  16  16  16   8   8
#     4  12  22  41  68  97 125 166 223 263 326 375
#     4  12  22  45  68  97 121 178 213 263 330 389
#     4  12  22  42  66  92 131 180 217 252 312 404
#     4  12  24  41  65  99 130 162 214 273 322 381
#     4  12  24  42  65  93 136 175 212 262 324 381
#     4  12  24  44  66  95 131 172 211 263 333 388
#     4  11  24  38  68  99 129 158 227 281 318 362
#     4  11  24  41  64 104 128 171 218 277 316 372
#
# _framework density 21.347829000000001
#
# number of rings (size 3 to 8) (size 9 to 14) (size 15 to 20)
#    0.000    0.182    7.273    2.727    0.000    4.000 
#    0.000    0.909    0.000    3.273    0.000    0.000 
#    0.000    0.000    0.000    0.000    0.000    0.000 
#
# Total GULP energy -545596.777998 kJ/mol
# GULP energy per Si atom -12399.926773 kJ/mol
# Density = 2.129924 g / cm^3
# Si number density = 21.347829 Si / 1000 Ang^3
#
#
#
# Elastic Constant Matrix: (Units=GPa)
#
#
# Indices 1 2 3 4 5 6 
#
# 1 83.2006 15.3685 9.3191 0.0000 0.0000 0.0000
# 2 15.3685 106.3832 59.6480 0.0000 0.0000 0.0000
# 3 9.3191 59.6480 119.8430 0.0000 0.0000 0.0000
# 4 0.0000 0.0000 0.0000 30.7598 0.0000 0.0000
# 5 0.0000 0.0000 0.0000 0.0000 7.2126 0.0000
# 6 0.0000 0.0000 0.0000 0.0000 0.0000 34.3325
#
#
#
# Elastic Compliance Matrix: (Units=1/GPa)
#
#
# Indices 1 2 3 4 5 6 
#
# 1 0.012350 -0.001728 -0.000100 0.000000 0.000000 0.000000
# 2 -0.001728 0.013280 -0.006476 0.000000 0.000000 0.000000
# 3 -0.000100 -0.006476 0.011575 0.000000 0.000000 0.000000
# 4 0.000000 0.000000 0.000000 0.032510 0.000000 0.000000
# 5 0.000000 0.000000 0.000000 0.000000 0.138647 0.000000
# 6 0.000000 0.000000 0.000000 0.000000 0.000000 0.029127
#
#
# Mechanical properties :
#
#
# Convention : Reuss Voigt Hill
#
# Bulk Modulus (GPa) = 48.54936 53.12200 50.83568
# Shear Modulus (GPa) = 19.15991 29.46705 24.31348
#
# Velocity S-wave (km/s) = 2.99910 3.71931 3.37845
# Velocity P-wave (km/s) = 5.89781 6.58653 6.25166
#
# Compressibility (1/GPa) = 0.02059760
#
# Stress axis : x y z
#
# Youngs Moduli (GPa) = 80.97467 75.29924 86.39283
#
# Poissons Ratio (x) = 0.13010 0.00867
# Poissons Ratio (y) = 0.13991 0.55944
# Poissons Ratio (z) = 0.00813 0.48760
#
# Static dielectric constant tensor:
#      x y z
#    x 3.815060 0.000000 0.000000 
#    y 0.000000 3.733380 0.000000 
#    z 0.000000 0.000000 3.910020 
# 
# 
# High freq. dielectric constant tensor:
#      x y z
#    x 1.846460 0.000000 0.000000 
#    y 0.000000 1.826920 0.000000 
#    z 0.000000 0.000000 1.841740 
# 
# From -- ./inp_files/46791.got.cif
#   From: 2010.03.12/outbox.cif.g09.slc.cpg/sg72_24_cif.got.tgz:46791.got - 2010.04.16 14:54:00.
