data_PCOD8295931
_publ_section_title
;
Structure prediction by ZEFSAII (Michael W. Deem and Ramdas Pophale) SiO2 
 PCOD8295931
Probable space group: I B C A 
;
_chemical_formula_sum "Si O2"
_cell_formula_units_Z 96
_cell_length_a 9.906820
_cell_length_b 24.617668
_cell_length_c 17.865543
_cell_angle_alpha 90.000000
_cell_angle_beta 90.000000
_cell_angle_gamma 90.000000
_cell_volume 4357.098752
_symmetry_space_group_name_H-M "I B C A "
_symmetry_group_IT_number 73
_symmetry_cell_setting 'orthorhombic'
loop_
_space_group_symop_operation_xyz
x,y,z
-x,1/2-y,z
x,-y,1/2-z
1/2-x,y,-z
-x,-y,-z
x,1/2+y,-z
-x,y,1/2+z
1/2+x,-y,z
1/2+x,1/2+y,1/2+z
1/2-x,-y,1/2+z
1/2+x,1/2-y,-z
-x,1/2+y,1/2-z
1/2-x,1/2-y,1/2-z
1/2+x,y,1/2-z
1/2-x,1/2+y,z
x,1/2-y,1/2+z
loop_
_atom_site_type_symbol
_atom_site_label
_atom_site_fract_x
_atom_site_fract_y
_atom_site_fract_z
Si Si1 0.670226 0.469447 0.173267
Si Si2 0.548270 0.449728 0.882091
Si Si3 0.032820 0.625836 0.250575
Si Si4 0.386613 0.793883 0.134987
Si Si5 0.594245 0.126514 0.993857
Si Si6 0.911275 0.302195 0.367697
O O1 0.712288 0.500000 0.250000
O O2 0.796160 0.469227 0.115155
O O3 0.548998 0.499296 0.130639
O O4 0.620577 0.408771 0.191960
O O5 0.548018 0.411848 0.808500
O O6 0.501253 0.421231 0.960068
O O7 0.133381 0.662315 0.299258
O O8 0.930267 0.667678 0.211233
O O9 0.500000 0.750000 0.156229
O O10 0.430248 0.821965 0.058674
O O11 0.234605 0.773248 0.124237
O O12 0.750000 0.106482 0.000000
O O13 0.552301 0.149123 0.074536
O O14 0.000000 0.250000 0.380156
#
# Coordination Sequence:
#
# PCOD8295931 Si02
#       6
#    16  16  16  16  16  16
#     4  10  20  37  62  92 121 155 199 248 302 356
#     4  10  21  39  64  88 118 157 198 245 299 359
#     4  10  21  36  60  90 122 156 197 244 292 350
#     4  10  21  38  60  86 119 159 198 240 294 350
#     4   9  21  41  60  82 118 160 197 242 299 351
#     4  11  23  39  61  88 119 155 199 246 290 346
#
# _framework density 22.033010000000001
#
# number of rings (size 3 to 8) (size 9 to 14) (size 15 to 20)
#    0.000    2.000    0.000    3.500    0.000   10.667 
#    0.000    5.833    0.000    0.000    0.000    0.000 
#    0.000    0.000    0.000    0.000    0.000    0.000 
#
# Total GULP energy -594834.611745 kJ/mol
# GULP energy per Si atom -12392.387745 kJ/mol
# Density = 2.198286 g / cm^3
# Si number density = 22.033010 Si / 1000 Ang^3
#
#
#
# Elastic Constant Matrix: (Units=GPa)
#
#
# Indices 1 2 3 4 5 6 
#
# 1 124.6284 51.1683 21.9907 0.0000 0.0000 0.0000
# 2 51.1683 44.3370 -0.9300 -0.0001 0.0000 0.0001
# 3 21.9907 -0.9300 53.0475 0.0000 0.0000 0.0000
# 4 0.0000 -0.0001 0.0000 23.6312 0.0000 -0.0001
# 5 0.0000 0.0000 0.0000 0.0000 23.8536 -0.0001
# 6 0.0000 0.0001 0.0000 -0.0001 -0.0001 -35.0047
#
#
#
# Elastic Compliance Matrix: (Units=1/GPa)
#
#
# Indices 1 2 3 4 5 6 
#
# 1 0.018003 -0.020942 -0.007830 0.000000 0.000000 0.000000
# 2 -0.020942 0.046922 0.009504 0.000000 0.000000 0.000000
# 3 -0.007830 0.009504 0.022264 0.000000 0.000000 0.000000
# 4 0.000000 0.000000 0.000000 0.042317 0.000000 0.000000
# 5 0.000000 0.000000 0.000000 0.000000 0.041922 0.000000
# 6 0.000000 0.000000 0.000000 0.000000 0.000000 -0.028568
#
#
# Mechanical properties :
#
#
# Convention : Reuss Voigt Hill
#
# Bulk Modulus (GPa) = 20.55370 40.71899 30.63634
# Shear Modulus (GPa) = 25.30171 12.48162 18.89167
#
# Velocity S-wave (km/s) = 3.39241 2.38270 2.93136
# Velocity P-wave (km/s) = 4.96925 5.10791 5.03906
#
# Compressibility (1/GPa) = 0.04865304
#
# Stress axis : x y z
#
# Youngs Moduli (GPa) = 55.54476 21.31188 44.91611
#
# Poissons Ratio (x) = 0.44631 0.35171
# Poissons Ratio (y) = 1.16320 -0.42688
# Poissons Ratio (z) = 0.43494 -0.20255
#
# Static dielectric constant tensor:
#      x y z
#    x 3.775560 0.000000 0.000000 
#    y 0.000000 3.909950 0.000000 
#    z 0.000000 0.000000 4.112590 
# 
# 
# High freq. dielectric constant tensor:
#      x y z
#    x 1.860920 0.000000 0.000000 
#    y 0.000000 1.864150 0.000000 
#    z 0.000000 0.000000 1.862700 
# 
# From -- ./inp_files/24881.got.cif
#   From: 2010.03.12/outbox.cif.g09.slc.cpg/sg73_13_cif.got.tgz:24881.got - 2010.04.16 15:25:48.
