data_PCOD8295117
_publ_section_title
;
Structure prediction by ZEFSAII (Michael W. Deem and Ramdas Pophale) SiO2 
 PCOD8295117
Probable space group: I B A M
;
_chemical_formula_sum "Si O2"
_cell_formula_units_Z 68
_cell_length_a 8.898707
_cell_length_b 17.828245
_cell_length_c 17.816804
_cell_angle_alpha 90.000000
_cell_angle_beta 90.000000
_cell_angle_gamma 90.000000
_cell_volume 2826.606175
_symmetry_space_group_name_H-M "I B A M"
_symmetry_group_IT_number 72
_symmetry_cell_setting 'orthorhombic'
loop_
_space_group_symop_operation_xyz
x,y,z
-x,-y,z
x,-y,1/2-z
-x,y,1/2-z
-x,-y,-z
x,y,-z
-x,y,1/2+z
x,-y,1/2+z
1/2+x,1/2+y,1/2+z
1/2-x,1/2-y,1/2+z
1/2+x,1/2-y,-z
1/2-x,1/2+y,-z
1/2-x,1/2-y,1/2-z
1/2+x,1/2+y,1/2-z
1/2-x,1/2+y,z
1/2+x,1/2-y,z
loop_
_atom_site_type_symbol
_atom_site_label
_atom_site_fract_x
_atom_site_fract_y
_atom_site_fract_z
Si Si1 0.500000 0.000000 0.750000
Si Si2 0.000000 0.238529 0.750000
Si Si3 0.879679 0.066000 0.500000
Si Si4 0.845495 0.605414 0.629001
Si Si5 0.662194 0.657569 0.000000
Si Si6 0.751912 0.771356 0.651833
Si Si7 0.949138 0.416007 0.500000
O O1 0.607937 0.949752 0.803108
O O2 0.878616 0.188590 0.795443
O O3 0.912224 0.289833 0.687052
O O4 0.780347 0.065911 0.424489
O O5 0.985411 0.141758 0.500000
O O6 0.000000 0.000000 0.500000
O O7 0.778840 0.681849 0.662484
O O8 0.988879 0.623806 0.575325
O O9 0.723016 0.707106 0.932454
O O10 0.766387 0.582783 0.000000
O O11 0.000000 0.500000 0.500000
#
# Coordination Sequence:
#
# PCOD8295117 Si02
#       7
#     4   8   8  16   8  16   8
#     4  12  26  46  74 100 140 208 248 292 344 456
#     4  10  23  42  60  98 152 171 220 278 370 405
#     4  11  26  46  69 101 144 180 225 306 360 427
#     4  11  24  44  70  98 139 178 253 284 358 419
#     4  12  24  42  80 104 141 181 244 290 377 423
#     4  11  23  43  68 105 134 190 226 301 351 437
#     4  11  22  43  70  97 131 183 241 301 338 432
#
# _framework density 24.057117999999999
#
# number of rings (size 3 to 8) (size 9 to 14) (size 15 to 20)
#    0.000    0.941    1.176    6.353    0.000    4.706 
#    4.235    0.000    0.000    0.000    0.000    0.000 
#    0.000    0.000    0.000    0.000    0.000    0.000 
#
# Total GULP energy -421249.197679 kJ/mol
# GULP energy per Si atom -12389.682285 kJ/mol
# Density = 2.400236 g / cm^3
# Si number density = 24.057118 Si / 1000 Ang^3
#
#
#
# Elastic Constant Matrix: (Units=GPa)
#
#
# Indices 1 2 3 4 5 6 
#
# 1 159.0837 15.8622 73.3689 0.0000 0.0000 0.0000
# 2 15.8622 82.6669 37.0294 0.0000 0.0000 0.0000
# 3 73.3689 37.0294 202.6489 0.0000 0.0000 0.0000
# 4 0.0000 0.0000 0.0000 13.9948 0.0000 0.0000
# 5 0.0000 0.0000 0.0000 0.0000 47.9276 0.0000
# 6 0.0000 0.0000 0.0000 0.0000 0.0000 20.9960
#
#
#
# Elastic Compliance Matrix: (Units=1/GPa)
#
#
# Indices 1 2 3 4 5 6 
#
# 1 0.007551 -0.000244 -0.002689 0.000000 0.000000 0.000000
# 2 -0.000244 0.013183 -0.002320 0.000000 0.000000 0.000000
# 3 -0.002689 -0.002320 0.006332 0.000000 0.000000 0.000000
# 4 0.000000 0.000000 0.000000 0.071455 0.000000 0.000000
# 5 0.000000 0.000000 0.000000 0.000000 0.020865 0.000000
# 6 0.000000 0.000000 0.000000 0.000000 0.000000 0.047628
#
#
# Mechanical properties :
#
#
# Convention : Reuss Voigt Hill
#
# Bulk Modulus (GPa) = 60.39292 77.43561 68.91426
# Shear Modulus (GPa) = 27.31630 37.79293 32.55462
#
# Velocity S-wave (km/s) = 3.37334 3.96784 3.68261
# Velocity P-wave (km/s) = 6.35067 7.29725 6.84035
#
# Compressibility (1/GPa) = 0.01655823
#
# Stress axis : x y z
#
# Youngs Moduli (GPa) = 132.44108 75.85513 157.92279
#
# Poissons Ratio (x) = 0.01853 0.42466
# Poissons Ratio (y) = 0.03235 0.36645
# Poissons Ratio (z) = 0.35614 0.17602
#
# Static dielectric constant tensor:
#      x y z
#    x 5.112100 0.000000 0.000000 
#    y 0.000000 4.008120 0.000000 
#    z 0.000000 0.000000 3.129770 
# 
# 
# High freq. dielectric constant tensor:
#      x y z
#    x 1.981520 0.000000 0.000000 
#    y 0.000000 1.915630 0.000000 
#    z 0.000000 0.000000 1.983620 
# 
# From -- ./inp_files/27865.got.cif
#   From: 2010.03.12/outbox.cif.g09.slc.cpg/sg72_14_cif.got.tgz:27865.got - 2010.04.16 14:54:00.
