data_PCOD8295468
_publ_section_title
;
Structure prediction by ZEFSAII (Michael W. Deem and Ramdas Pophale) SiO2 
 PCOD8295468
Probable space group: I B A M
;
_chemical_formula_sum "Si O2"
_cell_formula_units_Z 104
_cell_length_a 9.163454
_cell_length_b 25.253858
_cell_length_c 19.276331
_cell_angle_alpha 90.000000
_cell_angle_beta 90.000000
_cell_angle_gamma 90.000000
_cell_volume 4460.785222
_symmetry_space_group_name_H-M "I B A M"
_symmetry_group_IT_number 72
_symmetry_cell_setting 'orthorhombic'
loop_
_space_group_symop_operation_xyz
x,y,z
-x,-y,z
x,-y,1/2-z
-x,y,1/2-z
-x,-y,-z
x,y,-z
-x,y,1/2+z
x,-y,1/2+z
1/2+x,1/2+y,1/2+z
1/2-x,1/2-y,1/2+z
1/2+x,1/2-y,-z
1/2-x,1/2+y,-z
1/2-x,1/2-y,1/2-z
1/2+x,1/2+y,1/2-z
1/2-x,1/2+y,z
1/2+x,1/2-y,z
loop_
_atom_site_type_symbol
_atom_site_label
_atom_site_fract_x
_atom_site_fract_y
_atom_site_fract_z
Si Si1 0.085193 0.679531 0.616200
Si Si2 0.659894 0.368896 0.857578
Si Si3 0.582498 0.444525 0.651783
Si Si4 0.728031 0.575470 0.500000
Si Si5 0.547975 0.906210 0.500000
Si Si6 0.661240 0.539606 0.000000
Si Si7 0.347023 0.900153 0.231490
Si Si8 0.281263 0.772088 0.418379
O O1 0.061139 0.629803 0.567286
O O2 0.120165 0.654730 0.691013
O O3 0.229403 0.711804 0.591861
O O4 0.942282 0.717347 0.613184
O O5 0.512070 0.393343 0.824452
O O6 0.691372 0.394088 0.931209
O O7 0.788360 0.382701 0.805643
O O8 0.661528 0.306377 0.874599
O O9 0.500000 0.500000 0.670395
O O10 0.596913 0.435271 0.569641
O O11 0.738176 0.440691 0.690997
O O12 0.629119 0.522880 0.500000
O O13 0.898070 0.561792 0.500000
O O14 0.666523 0.951968 0.500000
O O15 0.500000 0.929646 0.250000
O O16 0.283145 0.787032 0.500000
#
# Coordination Sequence:
#
# PCOD8295468 Si02
#       8
#    16  16  16   8   8   8  16  16
#     4  12  25  46  74 111 148 197 255 311 377 455
#     4  12  25  46  76 104 155 196 247 314 381 448
#     4  12  27  49  77 115 152 193 255 318 380 459
#     4  12  22  47  76 108 146 200 249 317 376 451
#     4  12  21  44  72 109 155 194 246 316 367 458
#     4  12  25  44  81 114 147 190 255 313 393 442
#     4  12  27  52  75 103 154 210 251 304 383 455
#     4  12  24  44  75 112 150 194 255 315 380 448
#
# _framework density 23.314281000000001
#
# number of rings (size 3 to 8) (size 9 to 14) (size 15 to 20)
#    0.000    0.000    8.462    1.385    2.154    1.846 
#    0.000    1.538    0.000    0.000    0.000    0.000 
#    0.000    0.000    0.000    0.000    0.000    0.000 
#
# Total GULP energy -644579.375470 kJ/mol
# GULP energy per Si atom -12395.757221 kJ/mol
# Density = 2.326122 g / cm^3
# Si number density = 23.314281 Si / 1000 Ang^3
#
#
#
# Elastic Constant Matrix: (Units=GPa)
#
#
# Indices 1 2 3 4 5 6 
#
# 1 136.5730 35.8837 47.3190 0.0000 0.0000 0.0000
# 2 35.8837 62.2101 28.0970 0.0000 0.0000 0.0000
# 3 47.3190 28.0970 129.3549 0.0001 0.0000 0.0000
# 4 0.0000 0.0000 0.0001 36.9584 0.0000 0.0000
# 5 0.0000 0.0000 0.0000 0.0000 29.8121 0.0000
# 6 0.0000 0.0000 0.0000 0.0000 0.0000 48.2072
#
#
#
# Elastic Compliance Matrix: (Units=1/GPa)
#
#
# Indices 1 2 3 4 5 6 
#
# 1 0.009296 -0.004242 -0.002479 0.000000 0.000000 0.000000
# 2 -0.004242 0.019759 -0.002740 0.000000 0.000000 0.000000
# 3 -0.002479 -0.002740 0.009233 0.000000 0.000000 0.000000
# 4 0.000000 0.000000 0.000000 0.027057 0.000000 0.000000
# 5 0.000000 0.000000 0.000000 0.000000 0.033543 0.000000
# 6 0.000000 0.000000 0.000000 0.000000 0.000000 0.020744
#
#
# Mechanical properties :
#
#
# Convention : Reuss Voigt Hill
#
# Bulk Modulus (GPa) = 51.63974 61.19305 56.41639
# Shear Modulus (GPa) = 34.48057 37.45144 35.96601
#
# Velocity S-wave (km/s) = 3.84988 4.01231 3.93193
# Velocity P-wave (km/s) = 6.47762 6.91150 6.69807
#
# Compressibility (1/GPa) = 0.01936493
#
# Stress axis : x y z
#
# Youngs Moduli (GPa) = 107.57770 50.60975 108.31142
#
# Poissons Ratio (x) = 0.21470 0.26850
# Poissons Ratio (y) = 0.45637 0.29677
# Poissons Ratio (z) = 0.26668 0.13867
#
# Static dielectric constant tensor:
#      x y z
#    x 4.745730 0.000000 0.000000 
#    y 0.000000 4.095970 0.000000 
#    z 0.000000 0.000000 4.327970 
# 
# 
# High freq. dielectric constant tensor:
#      x y z
#    x 1.940890 0.000000 0.000000 
#    y 0.000000 1.902610 0.000000 
#    z 0.000000 0.000000 1.934990 
# 
# From -- ./inp_files/36202.got.cif
#   From: 2010.03.12/outbox.cif.g09.slc.cpg/sg72_19_cif.got.tgz:36202.got - 2010.04.16 14:54:00.
