data_PCOD8295212
_publ_section_title
;
Structure prediction by ZEFSAII (Michael W. Deem and Ramdas Pophale) SiO2 
 PCOD8295212
Probable space group: I B A M
;
_chemical_formula_sum "Si O2"
_cell_formula_units_Z 96
_cell_length_a 14.756279
_cell_length_b 24.968434
_cell_length_c 13.660196
_cell_angle_alpha 90.000000
_cell_angle_beta 90.000000
_cell_angle_gamma 90.000000
_cell_volume 5032.978710
_symmetry_space_group_name_H-M "I B A M"
_symmetry_group_IT_number 72
_symmetry_cell_setting 'orthorhombic'
loop_
_space_group_symop_operation_xyz
x,y,z
-x,-y,z
x,-y,1/2-z
-x,y,1/2-z
-x,-y,-z
x,y,-z
-x,y,1/2+z
x,-y,1/2+z
1/2+x,1/2+y,1/2+z
1/2-x,1/2-y,1/2+z
1/2+x,1/2-y,-z
1/2-x,1/2+y,-z
1/2-x,1/2-y,1/2-z
1/2+x,1/2+y,1/2-z
1/2-x,1/2+y,z
1/2+x,1/2-y,z
loop_
_atom_site_type_symbol
_atom_site_label
_atom_site_fract_x
_atom_site_fract_y
_atom_site_fract_z
Si Si1 0.122235 0.804087 0.388372
Si Si2 0.660028 0.445996 0.698807
Si Si3 0.500000 0.627108 0.250000
Si Si4 0.231248 0.540752 0.500000
Si Si5 0.714557 0.127277 0.323106
Si Si6 0.936616 0.615522 0.000000
Si Si7 0.122994 0.430290 0.500000
Si Si8 0.583609 0.188993 0.817848
O O1 0.091719 0.807710 0.500000
O O2 0.046702 0.835469 0.328914
O O3 0.219962 0.830408 0.374725
O O4 0.130242 0.742616 0.357010
O O5 0.626425 0.500000 0.750000
O O6 0.572305 0.408182 0.689555
O O7 0.703143 0.457522 0.593250
O O8 0.733374 0.420597 0.770634
O O9 0.164234 0.591323 0.500000
O O10 0.168164 0.488415 0.500000
O O11 0.650480 0.101766 0.403763
O O12 0.658143 0.157075 0.241306
O O13 0.951744 0.652365 0.094269
O O14 0.012897 0.568429 0.000000
O O15 0.500000 0.205231 0.750000
#
# Coordination Sequence:
#
# PCOD8295212 Si02
#       8
#    16  16   8   8  16   8   8  16
#     4  11  23  41  65  95 128 166 214 263 321 385
#     4  11  23  43  65  93 130 169 213 263 322 381
#     4  10  25  42  64  96 134 166 207 268 324 384
#     4  12  25  42  67  97 127 169 218 267 320 381
#     4  11  23  41  64  90 128 170 213 261 319 380
#     4  12  25  41  64  96 127 166 215 268 317 383
#     4  12  23  41  66  96 123 168 217 260 320 382
#     4  12  23  41  64  91 131 169 211 263 321 383
#
# _framework density 19.074192
#
# number of rings (size 3 to 8) (size 9 to 14) (size 15 to 20)
#    0.000    0.667    7.500    1.000    1.167    0.000 
#    0.000    0.833    3.667    0.000    0.000    0.000 
#    0.000    0.000    0.000    0.000    0.000    0.000 
#
# Total GULP energy -595406.965145 kJ/mol
# GULP energy per Si atom -12404.311774 kJ/mol
# Density = 1.903078 g / cm^3
# Si number density = 19.074192 Si / 1000 Ang^3
#
#
#
# Elastic Constant Matrix: (Units=GPa)
#
#
# Indices 1 2 3 4 5 6 
#
# 1 65.8187 16.7725 24.1326 0.0000 0.0000 0.0000
# 2 16.7725 92.7589 33.9762 0.0000 -0.0002 0.0000
# 3 24.1326 33.9762 115.2460 -0.0004 -0.0006 -0.0003
# 4 0.0000 0.0000 -0.0004 36.6929 0.0001 0.0000
# 5 0.0000 -0.0002 -0.0006 0.0001 14.9413 -0.0001
# 6 0.0000 0.0000 -0.0003 0.0000 -0.0001 21.1944
#
#
#
# Elastic Compliance Matrix: (Units=1/GPa)
#
#
# Indices 1 2 3 4 5 6 
#
# 1 0.016768 -0.001957 -0.002934 0.000000 0.000000 0.000000
# 2 -0.001957 0.012314 -0.003221 0.000000 0.000000 0.000000
# 3 -0.002934 -0.003221 0.010241 0.000000 0.000000 0.000000
# 4 0.000000 0.000000 0.000000 0.027253 0.000000 0.000000
# 5 0.000000 0.000000 0.000000 0.000000 0.066929 0.000000
# 6 0.000000 0.000000 0.000000 0.000000 0.000000 0.047182
#
#
# Mechanical properties :
#
#
# Convention : Reuss Voigt Hill
#
# Bulk Modulus (GPa) = 43.29170 47.06514 45.17842
# Shear Modulus (GPa) = 24.43666 27.82854 26.13260
#
# Velocity S-wave (km/s) = 3.58318 3.82378 3.70543
# Velocity P-wave (km/s) = 6.31385 6.65007 6.48414
#
# Compressibility (1/GPa) = 0.02309912
#
# Stress axis : x y z
#
# Youngs Moduli (GPa) = 59.63802 81.20722 97.64693
#
# Poissons Ratio (x) = 0.15894 0.28651
# Poissons Ratio (y) = 0.11672 0.31448
# Poissons Ratio (z) = 0.17499 0.26153
#
# Static dielectric constant tensor:
#      x y z
#    x 3.516630 0.000000 0.000000 
#    y 0.000000 3.599910 0.000000 
#    z 0.000000 0.000000 3.529970 
# 
# 
# High freq. dielectric constant tensor:
#      x y z
#    x 1.747550 0.000000 0.000000 
#    y 0.000000 1.754720 0.000000 
#    z 0.000000 0.000000 1.754930 
# 
# From -- ./inp_files/21938.got.cif
#   From: 2010.03.12/outbox.cif.g09.slc.cpg/sg72_11_cif.got.tgz:21938.got - 2010.04.16 14:54:00.
