data_PCOD8296334
_publ_section_title
;
Structure prediction by ZEFSAII (Michael W. Deem and Ramdas Pophale) SiO2 
 PCOD8296334
Probable space group: I B C A 
;
_chemical_formula_sum "Si O2"
_cell_formula_units_Z 96
_cell_length_a 12.529984
_cell_length_b 19.532585
_cell_length_c 18.279515
_cell_angle_alpha 90.000000
_cell_angle_beta 90.000000
_cell_angle_gamma 90.000000
_cell_volume 4473.782929
_symmetry_space_group_name_H-M "I B C A "
_symmetry_group_IT_number 73
_symmetry_cell_setting 'orthorhombic'
loop_
_space_group_symop_operation_xyz
x,y,z
-x,1/2-y,z
x,-y,1/2-z
1/2-x,y,-z
-x,-y,-z
x,1/2+y,-z
-x,y,1/2+z
1/2+x,-y,z
1/2+x,1/2+y,1/2+z
1/2-x,-y,1/2+z
1/2+x,1/2-y,-z
-x,1/2+y,1/2-z
1/2-x,1/2-y,1/2-z
1/2+x,y,1/2-z
1/2-x,1/2+y,z
x,1/2-y,1/2+z
loop_
_atom_site_type_symbol
_atom_site_label
_atom_site_fract_x
_atom_site_fract_y
_atom_site_fract_z
Si Si1 0.914894 0.555491 0.520253
Si Si2 0.732538 0.522530 0.611265
Si Si3 0.293245 0.633385 0.356415
Si Si4 0.435229 0.319676 0.852657
Si Si5 0.057236 0.818323 0.023986
Si Si6 0.082995 0.074320 0.227411
O O1 0.856061 0.538098 0.596373
O O2 0.834777 0.559213 0.452488
O O3 0.000000 0.500000 0.500000
O O4 0.970510 0.625074 0.540801
O O5 0.727644 0.441013 0.610136
O O6 0.693808 0.555675 0.686649
O O7 0.187143 0.671627 0.323244
O O8 0.339139 0.676555 0.424450
O O9 0.383538 0.624288 0.293697
O O10 0.500000 0.250000 0.830270
O O11 0.501359 0.385302 0.824834
O O12 0.413759 0.321943 0.938919
O O13 0.000000 0.750000 0.047043
O O14 0.031916 0.000000 0.250000
#
# Coordination Sequence:
#
# PCOD8296334 Si02
#       6
#    16  16  16  16  16  16
#     4  11  20  37  68  96 126 174 222 278 326 386
#     4  10  22  37  65  99 132 168 224 278 333 387
#     4  11  24  42  67  98 131 177 227 276 337 406
#     4  11  25  44  67  93 137 179 217 277 338 408
#     4  11  24  42  66 100 136 173 221 276 336 400
#     4  10  24  44  65  98 133 174 226 279 339 396
#
# _framework density 21.458349999999999
#
# number of rings (size 3 to 8) (size 9 to 14) (size 15 to 20)
#    0.000    1.333    3.333    1.500    2.333    6.000 
#    3.000    0.000    0.000    0.000    0.000    0.000 
#    0.000    0.000    0.000    0.000    0.000    0.000 
#
# Total GULP energy -594877.227892 kJ/mol
# GULP energy per Si atom -12393.275581 kJ/mol
# Density = 2.140951 g / cm^3
# Si number density = 21.458350 Si / 1000 Ang^3
#
#
#
# Elastic Constant Matrix: (Units=GPa)
#
#
# Indices 1 2 3 4 5 6 
#
# 1 108.3125 61.5491 20.9439 0.0000 0.0000 0.0000
# 2 61.5491 131.9180 33.7132 0.0000 0.0000 0.0000
# 3 20.9439 33.7132 57.7248 0.0000 0.0000 0.0000
# 4 0.0000 0.0000 0.0000 28.6150 0.0000 0.0000
# 5 0.0000 0.0000 0.0000 0.0000 31.1903 0.0000
# 6 0.0000 0.0000 0.0000 0.0000 0.0000 30.6792
#
#
#
# Elastic Compliance Matrix: (Units=1/GPa)
#
#
# Indices 1 2 3 4 5 6 
#
# 1 0.012652 -0.005560 -0.001343 0.000000 0.000000 0.000000
# 2 -0.005560 0.011353 -0.004614 0.000000 0.000000 0.000000
# 3 -0.001343 -0.004614 0.020505 0.000000 0.000000 0.000000
# 4 0.000000 0.000000 0.000000 0.034947 0.000000 0.000000
# 5 0.000000 0.000000 0.000000 0.000000 0.032061 0.000000
# 6 0.000000 0.000000 0.000000 0.000000 0.000000 0.032595
#
#
# Mechanical properties :
#
#
# Convention : Reuss Voigt Hill
#
# Bulk Modulus (GPa) = 46.56049 58.92975 52.74512
# Shear Modulus (GPa) = 28.68520 30.21352 29.44936
#
# Velocity S-wave (km/s) = 3.66017 3.75641 3.70861
# Velocity P-wave (km/s) = 6.29346 6.80707 6.55530
#
# Compressibility (1/GPa) = 0.02147744
#
# Stress axis : x y z
#
# Youngs Moduli (GPa) = 79.04187 88.07885 48.76745
#
# Poissons Ratio (x) = 0.48968 0.06551
# Poissons Ratio (y) = 0.43944 0.22500
# Poissons Ratio (z) = 0.10618 0.40637
#
# Static dielectric constant tensor:
#      x y z
#    x 4.052060 0.000000 0.000000 
#    y 0.000000 3.863310 0.000000 
#    z 0.000000 0.000000 3.923620 
# 
# 
# High freq. dielectric constant tensor:
#      x y z
#    x 1.847110 0.000000 0.000000 
#    y 0.000000 1.835820 0.000000 
#    z 0.000000 0.000000 1.841120 
# 
# From -- ./inp_files/25442.got.cif
#   From: 2010.03.12/outbox.cif.g09.slc.cpg/sg73_13_cif.got.tgz:25442.got - 2010.04.16 15:25:48.
