data_PCOD8296044
_publ_section_title
;
Structure prediction by ZEFSAII (Michael W. Deem and Ramdas Pophale) SiO2 
 PCOD8296044
Probable space group: I B C A 
;
_chemical_formula_sum "Si O2"
_cell_formula_units_Z 96
_cell_length_a 9.429094
_cell_length_b 17.648689
_cell_length_c 29.697410
_cell_angle_alpha 90.000000
_cell_angle_beta 90.000000
_cell_angle_gamma 90.000000
_cell_volume 4941.980078
_symmetry_space_group_name_H-M "I B C A "
_symmetry_group_IT_number 73
_symmetry_cell_setting 'orthorhombic'
loop_
_space_group_symop_operation_xyz
x,y,z
-x,1/2-y,z
x,-y,1/2-z
1/2-x,y,-z
-x,-y,-z
x,1/2+y,-z
-x,y,1/2+z
1/2+x,-y,z
1/2+x,1/2+y,1/2+z
1/2-x,-y,1/2+z
1/2+x,1/2-y,-z
-x,1/2+y,1/2-z
1/2-x,1/2-y,1/2-z
1/2+x,y,1/2-z
1/2-x,1/2+y,z
x,1/2-y,1/2+z
loop_
_atom_site_type_symbol
_atom_site_label
_atom_site_fract_x
_atom_site_fract_y
_atom_site_fract_z
Si Si1 0.733298 0.915137 0.370111
Si Si2 0.869274 0.293421 0.694711
Si Si3 0.327271 0.828624 0.956245
Si Si4 0.844272 0.155042 0.456768
Si Si5 0.885774 0.309787 0.793253
Si Si6 0.401047 0.067876 0.132127
O O1 0.782204 0.854853 0.333145
O O2 0.751050 0.875880 0.418002
O O3 0.570244 0.940364 0.368536
O O4 0.835903 0.985443 0.363137
O O5 0.926846 0.331191 0.741563
O O6 0.768179 0.225158 0.707474
O O7 0.000000 0.250000 0.669417
O O8 0.299959 0.740611 0.944814
O O9 0.489667 0.847492 0.967096
O O10 0.250000 0.856380 0.000000
O O11 0.750000 0.126193 0.500000
O O12 0.825265 0.104601 0.411930
O O13 0.870990 0.383903 0.823549
O O14 0.000000 0.250000 0.813993
#
# Coordination Sequence:
#
# PCOD8296044 Si02
#       6
#    16  16  16  16  16  16
#     4  11  24  41  57  89 124 161 199 244 305 367
#     4  10  22  39  64  93 118 151 209 254 296 361
#     4   9  19  38  61  85 116 152 202 251 294 354
#     4   9  19  37  62  87 111 155 203 247 300 355
#     4  10  20  41  66  87 116 160 200 250 304 358
#     4  11  24  39  61  85 125 163 196 244 309 364
#
# _framework density 19.425412999999999
#
# number of rings (size 3 to 8) (size 9 to 14) (size 15 to 20)
#    0.000    2.000    1.667    1.000    4.667    2.667 
#    6.000    5.000    0.000    0.000    0.000    0.000 
#    0.000    0.000    0.000    0.000    0.000    0.000 
#
# Total GULP energy -594785.658809 kJ/mol
# GULP energy per Si atom -12391.367892 kJ/mol
# Density = 1.938120 g / cm^3
# Si number density = 19.425413 Si / 1000 Ang^3
#
#
#
# Elastic Constant Matrix: (Units=GPa)
#
#
# Indices 1 2 3 4 5 6 
#
# 1 79.8783 39.9294 40.6460 0.0000 0.0000 0.0000
# 2 39.9294 93.4924 59.3381 0.0000 0.0000 0.0000
# 3 40.6460 59.3381 114.2420 0.0000 0.0000 0.0000
# 4 0.0000 0.0000 0.0000 1.1593 0.0000 0.0000
# 5 0.0000 0.0000 0.0000 0.0000 34.7455 0.0000
# 6 0.0000 0.0000 0.0000 0.0000 0.0000 37.0454
#
#
#
# Elastic Compliance Matrix: (Units=1/GPa)
#
#
# Indices 1 2 3 4 5 6 
#
# 1 0.016732 -0.005024 -0.003344 0.000000 0.000000 0.000000
# 2 -0.005024 0.017465 -0.007284 0.000000 0.000000 0.000000
# 3 -0.003344 -0.007284 0.013726 0.000000 0.000000 0.000000
# 4 0.000000 0.000000 0.000000 0.862597 0.000000 0.000000
# 5 0.000000 0.000000 0.000000 0.000000 0.028781 0.000000
# 6 0.000000 0.000000 0.000000 0.000000 0.000000 0.026994
#
#
# Mechanical properties :
#
#
# Convention : Reuss Voigt Hill
#
# Bulk Modulus (GPa) = 60.16790 63.04886 61.60838
# Shear Modulus (GPa) = 4.98437 24.43665 14.71051
#
# Velocity S-wave (km/s) = 1.60358 3.55064 2.75486
# Velocity P-wave (km/s) = 5.87109 7.02401 6.47327
#
# Compressibility (1/GPa) = 0.01662016
#
# Stress axis : x y z
#
# Youngs Moduli (GPa) = 59.76685 57.25878 72.85329
#
# Poissons Ratio (x) = 0.28766 0.24359
# Poissons Ratio (y) = 0.30026 0.53065
# Poissons Ratio (z) = 0.19983 0.41706
#
# Static dielectric constant tensor:
#      x y z
#    x 3.703570 0.000000 0.000000 
#    y 0.000000 3.364950 0.000000 
#    z 0.000000 0.000000 3.782300 
# 
# 
# High freq. dielectric constant tensor:
#      x y z
#    x 1.767070 0.000000 0.000000 
#    y 0.000000 1.740510 0.000000 
#    z 0.000000 0.000000 1.761090 
# 
# From -- ./inp_files/31189.got.cif
#   From: 2010.03.12/outbox.cif.g09.slc.cpg/sg73_16_cif.got.tgz:31189.got - 2010.04.16 15:25:48.
