data_PCOD8296274
_publ_section_title
;
Structure prediction by ZEFSAII (Michael W. Deem and Ramdas Pophale) SiO2 
 PCOD8296274
Probable space group: I B C A 
;
_chemical_formula_sum "Si O2"
_cell_formula_units_Z 104
_cell_length_a 17.872284
_cell_length_b 26.103413
_cell_length_c 10.153062
_cell_angle_alpha 90.000000
_cell_angle_beta 90.000000
_cell_angle_gamma 90.000000
_cell_volume 4736.683754
_symmetry_space_group_name_H-M "I B C A "
_symmetry_group_IT_number 73
_symmetry_cell_setting 'orthorhombic'
loop_
_space_group_symop_operation_xyz
x,y,z
-x,1/2-y,z
x,-y,1/2-z
1/2-x,y,-z
-x,-y,-z
x,1/2+y,-z
-x,y,1/2+z
1/2+x,-y,z
1/2+x,1/2+y,1/2+z
1/2-x,-y,1/2+z
1/2+x,1/2-y,-z
-x,1/2+y,1/2-z
1/2-x,1/2-y,1/2-z
1/2+x,y,1/2-z
1/2-x,1/2+y,z
x,1/2-y,1/2+z
loop_
_atom_site_type_symbol
_atom_site_label
_atom_site_fract_x
_atom_site_fract_y
_atom_site_fract_z
Si Si1 0.886583 0.196639 0.981004
Si Si2 0.750000 0.379744 0.500000
Si Si3 0.975554 0.442501 0.746872
Si Si4 0.976157 0.622299 0.491477
Si Si5 0.303648 0.557081 0.736410
Si Si6 0.836601 0.763967 0.253173
Si Si7 0.680087 0.644313 0.422014
O O1 0.822816 0.154288 0.981666
O O2 0.884364 0.227398 0.843277
O O3 0.966744 0.169756 0.997201
O O4 0.871801 0.237125 0.100218
O O5 0.745384 0.415444 0.373311
O O6 0.009078 0.500000 0.750000
O O7 0.985989 0.417224 0.889040
O O8 0.890481 0.444748 0.695897
O O9 0.019199 0.407844 0.644191
O O10 0.892350 0.644411 0.485534
O O11 0.270976 0.500000 0.750000
O O12 0.296105 0.587569 0.874160
O O13 0.750000 0.750000 0.250000
O O14 0.841265 0.822834 0.206488
O O15 0.750000 0.669188 0.500000
#
# Coordination Sequence:
#
# PCOD8296274 Si02
#       7
#    16   8  16  16  16  16  16
#     4  12  24  43  71  99 132 178 227 278 340 401
#     4  12  20  42  72  94 138 178 230 272 336 404
#     4  10  21  42  68  96 137 184 226 276 347 402
#     4  11  24  44  66  98 137 175 228 288 337 411
#     4  10  22  40  66  99 141 178 218 284 338 401
#     4  12  23  44  70  98 131 179 223 273 346 407
#     4  11  24  44  65  96 137 174 220 288 346 399
#
# _framework density 21.956289000000002
#
# number of rings (size 3 to 8) (size 9 to 14) (size 15 to 20)
#    0.000    0.923    4.615    2.308    1.077    4.308 
#    0.000    4.615    0.000    0.000    0.000    0.000 
#    0.000    0.000    0.000    0.000    0.000    0.000 
#
# Total GULP energy -645007.786951 kJ/mol
# GULP energy per Si atom -12403.995903 kJ/mol
# Density = 2.190632 g / cm^3
# Si number density = 21.956289 Si / 1000 Ang^3
#
#
#
# Elastic Constant Matrix: (Units=GPa)
#
#
# Indices 1 2 3 4 5 6 
#
# 1 108.1668 28.5330 26.7089 0.0000 0.0000 0.0000
# 2 28.5330 105.3336 24.6734 0.0000 0.0000 0.0000
# 3 26.7089 24.6734 77.6438 0.0000 0.0000 0.0000
# 4 0.0000 0.0000 0.0000 48.4343 0.0000 0.0000
# 5 0.0000 0.0000 0.0000 0.0000 26.3689 0.0000
# 6 0.0000 0.0000 0.0000 0.0000 0.0000 15.9270
#
#
#
# Elastic Compliance Matrix: (Units=1/GPa)
#
#
# Indices 1 2 3 4 5 6 
#
# 1 0.010542 -0.002168 -0.002938 0.000000 0.000000 0.000000
# 2 -0.002168 0.010703 -0.002655 0.000000 0.000000 0.000000
# 3 -0.002938 -0.002655 0.014734 0.000000 0.000000 0.000000
# 4 0.000000 0.000000 0.000000 0.020647 0.000000 0.000000
# 5 0.000000 0.000000 0.000000 0.000000 0.037923 0.000000
# 6 0.000000 0.000000 0.000000 0.000000 0.000000 0.062787
#
#
# Mechanical properties :
#
#
# Convention : Reuss Voigt Hill
#
# Bulk Modulus (GPa) = 48.88225 50.10832 49.49529
# Shear Modulus (GPa) = 27.82793 32.22796 30.02794
#
# Velocity S-wave (km/s) = 3.56395 3.83538 3.70215
# Velocity P-wave (km/s) = 6.26478 6.51804 6.39266
#
# Compressibility (1/GPa) = 0.02045732
#
# Stress axis : x y z
#
# Youngs Moduli (GPa) = 94.85761 93.43327 67.87165
#
# Poissons Ratio (x) = 0.20252 0.19938
# Poissons Ratio (y) = 0.20561 0.18023
# Poissons Ratio (z) = 0.27865 0.24811
#
# Static dielectric constant tensor:
#      x y z
#    x 3.887090 0.000000 0.000000 
#    y 0.000000 4.209730 0.000000 
#    z 0.000000 0.000000 3.997460 
# 
# 
# High freq. dielectric constant tensor:
#      x y z
#    x 1.853080 0.000000 0.000000 
#    y 0.000000 1.876830 0.000000 
#    z 0.000000 0.000000 1.868040 
# 
# From -- ./inp_files/6551.got.cif
#   From: 2010.03.12/outbox.cif.g09.slc.cpg/sg73_4_cif.got.tgz:6551.got - 2010.04.16 15:25:48.
