data_PCOD8296846
_publ_section_title
;
Structure prediction by ZEFSAII (Michael W. Deem and Ramdas Pophale) SiO2 
 PCOD8296846
Probable space group: I B C A 
;
_chemical_formula_sum "Si O2"
_cell_formula_units_Z 72
_cell_length_a 13.200219
_cell_length_b 18.043243
_cell_length_c 14.903364
_cell_angle_alpha 90.000000
_cell_angle_beta 90.000000
_cell_angle_gamma 90.000000
_cell_volume 3549.605130
_symmetry_space_group_name_H-M "I B C A "
_symmetry_group_IT_number 73
_symmetry_cell_setting 'orthorhombic'
loop_
_space_group_symop_operation_xyz
x,y,z
-x,1/2-y,z
x,-y,1/2-z
1/2-x,y,-z
-x,-y,-z
x,1/2+y,-z
-x,y,1/2+z
1/2+x,-y,z
1/2+x,1/2+y,1/2+z
1/2-x,-y,1/2+z
1/2+x,1/2-y,-z
-x,1/2+y,1/2-z
1/2-x,1/2-y,1/2-z
1/2+x,y,1/2-z
1/2-x,1/2+y,z
x,1/2-y,1/2+z
loop_
_atom_site_type_symbol
_atom_site_label
_atom_site_fract_x
_atom_site_fract_y
_atom_site_fract_z
Si Si1 0.037941 0.081311 0.478851
Si Si2 0.250000 0.964998 0.000000
Si Si3 0.967263 0.165373 0.640378
Si Si4 0.214436 0.059444 0.172711
Si Si5 0.556339 0.421139 0.208867
O O1 0.153735 0.088467 0.515265
O O2 0.976280 0.139801 0.537701
O O3 0.019155 0.098300 0.373755
O O4 0.000000 0.000000 0.500000
O O5 0.208582 0.015909 0.079783
O O6 0.857601 0.132889 0.674338
O O7 0.000000 0.250000 0.642716
O O8 0.048860 0.134587 0.709357
O O9 0.328746 0.086812 0.178521
O O10 0.184768 0.000000 0.250000
O O11 0.527016 0.500000 0.250000
#
# Coordination Sequence:
#
# PCOD8296846 Si02
#       5
#    16   8  16  16  16
#     4  12  21  40  67  93 122 161 211 255 304 366
#     4  12  20  36  68  98 116 156 218 262 296 364
#     4  12  26  41  58  92 133 163 201 258 315 370
#     4  11  21  37  66  92 116 164 212 254 312 368
#     4  11  21  40  67  94 120 161 216 261 302 371
#
# _framework density 20.283946
#
# number of rings (size 3 to 8) (size 9 to 14) (size 15 to 20)
#    0.000    0.444    6.667    3.333    0.000    1.778 
#    0.000    3.333    0.000    0.000    0.000    0.000 
#    0.000    0.000    0.000    0.000    0.000    0.000 
#
# Total GULP energy -445978.364954 kJ/mol
# GULP energy per Si atom -12388.287915 kJ/mol
# Density = 2.023778 g / cm^3
# Si number density = 20.283946 Si / 1000 Ang^3
#
#
#
# Elastic Constant Matrix: (Units=GPa)
#
#
# Indices 1 2 3 4 5 6 
#
# 1 112.3829 29.6245 15.3829 0.0000 0.0000 0.0002
# 2 29.6245 127.5030 50.7788 0.0001 0.0000 0.0007
# 3 15.3829 50.7788 130.5472 0.0003 0.0000 0.0006
# 4 0.0000 0.0001 0.0003 27.4135 0.0000 0.0008
# 5 0.0000 0.0000 0.0000 0.0000 36.3226 0.0001
# 6 0.0002 0.0007 0.0006 0.0008 0.0001 -264.0121
#
#
#
# Elastic Compliance Matrix: (Units=1/GPa)
#
#
# Indices 1 2 3 4 5 6 
#
# 1 0.009489 -0.002082 -0.000308 0.000000 0.000000 0.000000
# 2 -0.002082 0.009737 -0.003542 0.000000 0.000000 0.000000
# 3 -0.000308 -0.003542 0.009074 0.000000 0.000000 0.000000
# 4 0.000000 0.000000 0.000000 0.036478 0.000000 0.000000
# 5 0.000000 0.000000 0.000000 0.000000 0.027531 0.000000
# 6 0.000000 0.000000 0.000000 0.000000 0.000000 -0.003788
#
#
# Mechanical properties :
#
#
# Convention : Reuss Voigt Hill
#
# Bulk Modulus (GPa) = 60.84294 62.44505 61.64399
# Shear Modulus (GPa) = 47.22949 -21.74541 12.74204
#
# Velocity S-wave (km/s) = 4.83060 -3.27777 2.50908
# Velocity P-wave (km/s) = 7.82136 4.06537 6.23301
#
# Compressibility (1/GPa) = 0.01643576
#
# Stress axis : x y z
#
# Youngs Moduli (GPa) = 105.38335 102.69690 110.20239
#
# Poissons Ratio (x) = 0.21381 0.03398
# Poissons Ratio (y) = 0.21940 0.39036
# Poissons Ratio (z) = 0.03249 0.36377
#
# Static dielectric constant tensor:
#      x y z
#    x 4.273020 0.000000 0.000000 
#    y 0.000000 2.986650 0.000000 
#    z 0.000000 0.000000 4.297920 
# 
# 
# High freq. dielectric constant tensor:
#      x y z
#    x 1.812010 0.000000 0.000000 
#    y 0.000000 1.744180 0.000000 
#    z 0.000000 0.000000 1.816960 
# 
# From -- ./inp_files/16781.got.cif
#   From: 2010.03.12/outbox.cif.g09.slc.cpg/sg73_9_cif.got.tgz:16781.got - 2010.04.16 15:25:48.
