data_PCOD8296257
_publ_section_title
;
Structure prediction by ZEFSAII (Michael W. Deem and Ramdas Pophale) SiO2 
 PCOD8296257
Probable space group: I B C A 
;
_chemical_formula_sum "Si O2"
_cell_formula_units_Z 72
_cell_length_a 13.696131
_cell_length_b 8.796186
_cell_length_c 25.297261
_cell_angle_alpha 90.000000
_cell_angle_beta 90.000000
_cell_angle_gamma 90.000000
_cell_volume 3047.655031
_symmetry_space_group_name_H-M "I B C A "
_symmetry_group_IT_number 73
_symmetry_cell_setting 'orthorhombic'
loop_
_space_group_symop_operation_xyz
x,y,z
-x,1/2-y,z
x,-y,1/2-z
1/2-x,y,-z
-x,-y,-z
x,1/2+y,-z
-x,y,1/2+z
1/2+x,-y,z
1/2+x,1/2+y,1/2+z
1/2-x,-y,1/2+z
1/2+x,1/2-y,-z
-x,1/2+y,1/2-z
1/2-x,1/2-y,1/2-z
1/2+x,y,1/2-z
1/2-x,1/2+y,z
x,1/2-y,1/2+z
loop_
_atom_site_type_symbol
_atom_site_label
_atom_site_fract_x
_atom_site_fract_y
_atom_site_fract_z
Si Si1 0.346483 0.940023 0.435076
Si Si2 0.139769 0.711337 0.702465
Si Si3 0.750000 0.815241 0.500000
Si Si4 0.500000 0.750000 0.711193
Si Si5 0.666439 0.544299 0.178987
Si Si6 0.000000 0.750000 0.109819
O O1 0.336571 0.075564 0.477696
O O2 0.300835 0.993865 0.379653
O O3 0.289492 0.788259 0.452815
O O4 0.459190 0.888244 0.426362
O O5 0.073479 0.651593 0.751143
O O6 0.246416 0.640404 0.704407
O O7 0.086638 0.681908 0.646366
O O8 0.148189 0.893301 0.713729
O O9 0.434495 0.639959 0.674587
#
# Coordination Sequence:
#
# PCOD8296257 Si02
#       6
#    16  16   8   8  16   8
#     4  10  21  41  66  96 126 170 212 270 325 382
#     4  10  23  41  65  97 133 174 216 265 313 380
#     4  10  22  42  68  94 128 162 220 270 328 392
#     4  11  24  40  61  98 134 170 217 260 312 383
#     4  11  23  42  68  94 132 175 217 264 325 381
#     4   9  20  38  61  94 134 166 213 256 314 383
#
# _framework density 23.624721999999998
#
# number of rings (size 3 to 8) (size 9 to 14) (size 15 to 20)
#    0.000    1.778    0.000    4.000    0.000    8.000 
#    0.000   10.000    0.000    0.000    0.000    0.000 
#    0.000    0.000    0.000    0.000    0.000    0.000 
#
# Total GULP energy -446340.457669 kJ/mol
# GULP energy per Si atom -12398.346046 kJ/mol
# Density = 2.357095 g / cm^3
# Si number density = 23.624722 Si / 1000 Ang^3
#
#
#
# Elastic Constant Matrix: (Units=GPa)
#
#
# Indices 1 2 3 4 5 6 
#
# 1 146.9755 70.7586 45.0884 0.0000 0.0000 0.0000
# 2 70.7586 130.5763 48.7439 0.0000 0.0000 0.0000
# 3 45.0884 48.7439 91.6669 0.0000 0.0000 0.0000
# 4 0.0000 0.0000 0.0000 34.2515 0.0000 0.0000
# 5 0.0000 0.0000 0.0000 0.0000 44.0893 0.0000
# 6 0.0000 0.0000 0.0000 0.0000 0.0000 28.7784
#
#
#
# Elastic Compliance Matrix: (Units=1/GPa)
#
#
# Indices 1 2 3 4 5 6 
#
# 1 0.009626 -0.004303 -0.002447 0.000000 0.000000 0.000000
# 2 -0.004303 0.011479 -0.003987 0.000000 0.000000 0.000000
# 3 -0.002447 -0.003987 0.014233 0.000000 0.000000 0.000000
# 4 0.000000 0.000000 0.000000 0.029196 0.000000 0.000000
# 5 0.000000 0.000000 0.000000 0.000000 0.022681 0.000000
# 6 0.000000 0.000000 0.000000 0.000000 0.000000 0.034748
#
#
# Mechanical properties :
#
#
# Convention : Reuss Voigt Hill
#
# Bulk Modulus (GPa) = 72.13141 77.60007 74.86574
# Shear Modulus (GPa) = 33.77069 35.06570 34.41819
#
# Velocity S-wave (km/s) = 3.78493 3.85681 3.82104
# Velocity P-wave (km/s) = 7.04978 7.26303 7.15720
#
# Compressibility (1/GPa) = 0.01386359
#
# Stress axis : x y z
#
# Youngs Moduli (GPa) = 103.88524 87.11926 70.26071
#
# Poissons Ratio (x) = 0.37487 0.17191
# Poissons Ratio (y) = 0.44701 0.28014
# Poissons Ratio (z) = 0.25417 0.34736
#
# Static dielectric constant tensor:
#      x y z
#    x 4.231600 0.000000 0.000000 
#    y 0.000000 4.244170 0.000000 
#    z 0.000000 0.000000 4.214500 
# 
# 
# High freq. dielectric constant tensor:
#      x y z
#    x 1.929570 0.000000 0.000000 
#    y 0.000000 1.935160 0.000000 
#    z 0.000000 0.000000 1.937160 
# 
# From -- ./inp_files/8324.got.cif
#   From: 2010.03.12/outbox.cif.g09.slc.cpg/sg73_5_cif.got.tgz:8324.got - 2010.04.16 15:25:48.
