data_PCOD8296105
_publ_section_title
;
Structure prediction by ZEFSAII (Michael W. Deem and Ramdas Pophale) SiO2 
 PCOD8296105
Probable space group: I B C A 
;
_chemical_formula_sum "Si O2"
_cell_formula_units_Z 120
_cell_length_a 10.235417
_cell_length_b 24.140776
_cell_length_c 25.583077
_cell_angle_alpha 90.000000
_cell_angle_beta 90.000000
_cell_angle_gamma 90.000000
_cell_volume 6321.345753
_symmetry_space_group_name_H-M "I B C A "
_symmetry_group_IT_number 73
_symmetry_cell_setting 'orthorhombic'
loop_
_space_group_symop_operation_xyz
x,y,z
-x,1/2-y,z
x,-y,1/2-z
1/2-x,y,-z
-x,-y,-z
x,1/2+y,-z
-x,y,1/2+z
1/2+x,-y,z
1/2+x,1/2+y,1/2+z
1/2-x,-y,1/2+z
1/2+x,1/2-y,-z
-x,1/2+y,1/2-z
1/2-x,1/2-y,1/2-z
1/2+x,y,1/2-z
1/2-x,1/2+y,z
x,1/2-y,1/2+z
loop_
_atom_site_type_symbol
_atom_site_label
_atom_site_fract_x
_atom_site_fract_y
_atom_site_fract_z
Si Si1 0.879457 0.089491 0.319525
Si Si2 0.395541 0.053729 0.846502
Si Si3 0.602792 0.943512 0.393604
Si Si4 0.642524 0.276232 0.327483
Si Si5 0.622735 0.289709 0.208391
Si Si6 0.014870 0.500000 0.250000
Si Si7 0.394539 0.451081 0.994878
Si Si8 0.637308 0.887127 0.612943
O O1 0.731480 0.091116 0.339560
O O2 0.927588 0.151167 0.310097
O O3 0.968072 0.066112 0.365129
O O4 0.893756 0.051048 0.268203
O O5 0.416734 0.016502 0.795702
O O6 0.517254 0.094618 0.851484
O O7 0.378201 0.010718 0.894878
O O8 0.587580 0.916724 0.451304
O O9 0.731067 0.916941 0.366920
O O10 0.500000 0.250000 0.334403
O O11 0.664122 0.299657 0.268771
O O12 0.758900 0.230571 0.329726
O O13 0.657573 0.321697 0.374355
O O14 0.500000 0.250000 0.203247
O O15 0.400352 0.407333 0.946442
O O16 0.250000 0.478285 0.000000
O O17 0.500000 0.500000 0.000000
#
# Coordination Sequence:
#
# PCOD8296105 Si02
#       8
#    16  16  16  16  16   8  16  16
#     4  11  22  36  57  83 116 154 197 239 294 355
#     4  11  21  33  53  81 114 152 189 231 288 358
#     4  10  21  36  54  82 115 148 187 232 300 362
#     4  10  21  37  57  81 110 148 199 242 292 343
#     4  10  21  37  57  82 112 153 198 246 286 348
#     4  10  22  34  50  80 122 152 184 230 296 358
#     4  10  21  36  58  83 114 150 188 237 295 363
#     4  11  21  36  58  80 113 150 187 245 297 350
#
# _framework density 18.983298000000001
#
# number of rings (size 3 to 8) (size 9 to 14) (size 15 to 20)
#    0.000    1.600    1.333    4.400    1.867    5.333 
#    0.000    0.000    0.000    5.600    0.000    0.000 
#    0.000    0.000    0.000    0.000    0.000    0.000 
#
# Total GULP energy -743334.057495 kJ/mol
# GULP energy per Si atom -12388.900958 kJ/mol
# Density = 1.894009 g / cm^3
# Si number density = 18.983298 Si / 1000 Ang^3
#
#
#
# Elastic Constant Matrix: (Units=GPa)
#
#
# Indices 1 2 3 4 5 6 
#
# 1 122.2995 33.8124 27.4634 0.0000 0.0000 0.0000
# 2 33.8124 110.3063 35.3120 0.0000 0.0000 0.0000
# 3 27.4634 35.3120 84.7680 0.0000 0.0000 0.0000
# 4 0.0000 0.0000 0.0000 26.1469 0.0000 0.0000
# 5 0.0000 0.0000 0.0000 0.0000 16.2399 0.0000
# 6 0.0000 0.0000 0.0000 0.0000 0.0000 29.4750
#
#
#
# Elastic Compliance Matrix: (Units=1/GPa)
#
#
# Indices 1 2 3 4 5 6 
#
# 1 0.009245 -0.002164 -0.002094 0.000000 0.000000 0.000000
# 2 -0.002164 0.010967 -0.003868 0.000000 0.000000 0.000000
# 3 -0.002094 -0.003868 0.014086 0.000000 0.000000 0.000000
# 4 0.000000 0.000000 0.000000 0.038245 0.000000 0.000000
# 5 0.000000 0.000000 0.000000 0.000000 0.061577 0.000000
# 6 0.000000 0.000000 0.000000 0.000000 0.000000 0.033927
#
#
# Mechanical properties :
#
#
# Convention : Reuss Voigt Hill
#
# Bulk Modulus (GPa) = 55.40703 56.72771 56.06737
# Shear Modulus (GPa) = 26.27238 29.09142 27.68190
#
# Velocity S-wave (km/s) = 3.72421 3.91893 3.82281
# Velocity P-wave (km/s) = 6.90968 7.10107 7.00603
#
# Compressibility (1/GPa) = 0.01804825
#
# Stress axis : x y z
#
# Youngs Moduli (GPa) = 108.16629 91.18276 70.99025
#
# Poissons Ratio (x) = 0.19728 0.14865
# Poissons Ratio (y) = 0.23402 0.27456
# Poissons Ratio (z) = 0.22649 0.35266
#
# Static dielectric constant tensor:
#      x y z
#    x 3.608470 0.000000 0.000000 
#    y 0.000000 3.376760 0.000000 
#    z 0.000000 0.000000 3.606360 
# 
# 
# High freq. dielectric constant tensor:
#      x y z
#    x 1.758030 0.000000 0.000000 
#    y 0.000000 1.716340 0.000000 
#    z 0.000000 0.000000 1.724100 
# 
# From -- ./inp_files/31410.got.cif
#   From: 2010.03.12/outbox.cif.g09.slc.cpg/sg73_16_cif.got.tgz:31410.got - 2010.04.16 15:25:48.
