data_PCOD8296534
_publ_section_title
;
Structure prediction by ZEFSAII (Michael W. Deem and Ramdas Pophale) SiO2 
 PCOD8296534
Probable space group: I B C A 
;
_chemical_formula_sum "Si O2"
_cell_formula_units_Z 120
_cell_length_a 27.796085
_cell_length_b 9.323258
_cell_length_c 20.292076
_cell_angle_alpha 90.000000
_cell_angle_beta 90.000000
_cell_angle_gamma 90.000000
_cell_volume 5258.692953
_symmetry_space_group_name_H-M "I B C A "
_symmetry_group_IT_number 73
_symmetry_cell_setting 'orthorhombic'
loop_
_space_group_symop_operation_xyz
x,y,z
-x,1/2-y,z
x,-y,1/2-z
1/2-x,y,-z
-x,-y,-z
x,1/2+y,-z
-x,y,1/2+z
1/2+x,-y,z
1/2+x,1/2+y,1/2+z
1/2-x,-y,1/2+z
1/2+x,1/2-y,-z
-x,1/2+y,1/2-z
1/2-x,1/2-y,1/2-z
1/2+x,y,1/2-z
1/2-x,1/2+y,z
x,1/2-y,1/2+z
loop_
_atom_site_type_symbol
_atom_site_label
_atom_site_fract_x
_atom_site_fract_y
_atom_site_fract_z
Si Si1 0.049621 0.475046 0.537616
Si Si2 0.301252 0.086051 0.868827
Si Si3 0.225068 0.110288 0.569935
Si Si4 0.122235 0.363210 0.891111
Si Si5 0.500000 0.250000 0.387827
Si Si6 0.371023 0.558911 0.931079
Si Si7 0.575414 0.086482 0.814950
Si Si8 0.868962 0.652961 0.256568
O O1 0.066139 0.591711 0.593960
O O2 0.043508 0.317799 0.569423
O O3 0.091983 0.488707 0.486064
O O4 0.000000 0.500000 0.500000
O O5 0.288060 0.232650 0.904618
O O6 0.317290 0.121121 0.793067
O O7 0.256860 0.974057 0.874944
O O8 0.346412 0.006812 0.904486
O O9 0.250000 0.127842 0.500000
O O10 0.178483 0.017882 0.555449
O O11 0.136953 0.230106 0.937149
O O12 0.134924 0.296729 0.818849
O O13 0.476402 0.122118 0.345971
O O14 0.392007 0.513637 0.860359
O O15 0.602356 0.235666 0.800937
O O16 0.563705 0.000000 0.750000
O O17 0.897025 0.500000 0.250000
#
# Coordination Sequence:
#
# PCOD8296534 Si02
#       8
#    16  16  16  16   8  16  16  16
#     4  12  26  46  75 109 151 195 250 308 376 448
#     4  11  24  46  71 107 146 191 245 310 378 448
#     4  12  26  44  73 109 148 192 247 311 382 453
#     4  11  25  46  75 105 146 190 245 307 367 446
#     4  12  26  46  70 108 152 194 254 312 374 438
#     4  12  26  48  75 105 148 195 247 310 372 448
#     4  12  25  48  74 108 150 200 246 309 371 443
#     4  10  22  46  74 102 145 189 246 297 371 435
#
# _framework density 22.819358000000001
#
# number of rings (size 3 to 8) (size 9 to 14) (size 15 to 20)
#    0.000    0.533    4.000    4.400    0.000    3.733 
#    0.000   13.333    0.000    0.000    0.000    0.000 
#    0.000    0.000    0.000    0.000    0.000    0.000 
#
# Total GULP energy -743611.165011 kJ/mol
# GULP energy per Si atom -12393.519417 kJ/mol
# Density = 2.276742 g / cm^3
# Si number density = 22.819358 Si / 1000 Ang^3
#
#
#
# Elastic Constant Matrix: (Units=GPa)
#
#
# Indices 1 2 3 4 5 6 
#
# 1 141.6275 58.2677 61.3191 0.0000 0.0000 0.0000
# 2 58.2677 152.9345 42.6539 0.0000 0.0000 0.0000
# 3 61.3191 42.6539 120.8280 0.0000 0.0000 0.0000
# 4 0.0000 0.0000 0.0000 34.4093 0.0000 0.0000
# 5 0.0000 0.0000 0.0000 0.0000 20.2753 0.0000
# 6 0.0000 0.0000 0.0000 0.0000 0.0000 45.0725
#
#
#
# Elastic Compliance Matrix: (Units=1/GPa)
#
#
# Indices 1 2 3 4 5 6 
#
# 1 0.009922 -0.002635 -0.004105 0.000000 0.000000 0.000000
# 2 -0.002635 0.007953 -0.001470 0.000000 0.000000 0.000000
# 3 -0.004105 -0.001470 0.010878 0.000000 0.000000 0.000000
# 4 0.000000 0.000000 0.000000 0.029062 0.000000 0.000000
# 5 0.000000 0.000000 0.000000 0.000000 0.049321 0.000000
# 6 0.000000 0.000000 0.000000 0.000000 0.000000 0.022186
#
#
# Mechanical properties :
#
#
# Convention : Reuss Voigt Hill
#
# Bulk Modulus (GPa) = 81.08665 82.20793 81.64729
# Shear Modulus (GPa) = 33.36551 36.82804 35.09677
#
# Velocity S-wave (km/s) = 3.82797 4.02169 3.92602
# Velocity P-wave (km/s) = 7.42624 7.59401 7.51060
#
# Compressibility (1/GPa) = 0.01233249
#
# Stress axis : x y z
#
# Youngs Moduli (GPa) = 100.78164 125.74125 91.92447
#
# Poissons Ratio (x) = 0.33139 0.37737
# Poissons Ratio (y) = 0.26561 0.13513
# Poissons Ratio (z) = 0.41373 0.18484
#
# Static dielectric constant tensor:
#      x y z
#    x 5.007530 0.000000 0.000000 
#    y 0.000000 4.346350 0.000000 
#    z 0.000000 0.000000 4.431700 
# 
# 
# High freq. dielectric constant tensor:
#      x y z
#    x 1.888800 0.000000 0.000000 
#    y 0.000000 1.919470 0.000000 
#    z 0.000000 0.000000 1.910870 
# 
# From -- ./inp_files/30531.got.cif
#   From: 2010.03.12/outbox.cif.g09.slc.cpg/sg73_16_cif.got.tgz:30531.got - 2010.04.16 15:25:48.
