data_PCOD8296581
_publ_section_title
;
Structure prediction by ZEFSAII (Michael W. Deem and Ramdas Pophale) SiO2 
 PCOD8296581
Probable space group: I B C A 
;
_chemical_formula_sum "Si O2"
_cell_formula_units_Z 120
_cell_length_a 25.918284
_cell_length_b 25.455294
_cell_length_c 8.361696
_cell_angle_alpha 90.000000
_cell_angle_beta 90.000000
_cell_angle_gamma 90.000000
_cell_volume 5516.691976
_symmetry_space_group_name_H-M "I B C A "
_symmetry_group_IT_number 73
_symmetry_cell_setting 'orthorhombic'
loop_
_space_group_symop_operation_xyz
x,y,z
-x,1/2-y,z
x,-y,1/2-z
1/2-x,y,-z
-x,-y,-z
x,1/2+y,-z
-x,y,1/2+z
1/2+x,-y,z
1/2+x,1/2+y,1/2+z
1/2-x,-y,1/2+z
1/2+x,1/2-y,-z
-x,1/2+y,1/2-z
1/2-x,1/2-y,1/2-z
1/2+x,y,1/2-z
1/2-x,1/2+y,z
x,1/2-y,1/2+z
loop_
_atom_site_type_symbol
_atom_site_label
_atom_site_fract_x
_atom_site_fract_y
_atom_site_fract_z
Si Si1 0.251852 0.840530 0.685428
Si Si2 0.057134 0.635347 0.601609
Si Si3 0.223006 0.553279 0.665916
Si Si4 0.891851 0.970427 0.591256
Si Si5 0.577662 0.500000 0.250000
Si Si6 0.857067 0.297278 0.223289
Si Si7 0.549382 0.380602 0.253628
Si Si8 0.859484 0.813991 0.151085
O O1 0.250000 0.826861 0.500000
O O2 0.263830 0.901708 0.708187
O O3 0.297054 0.807553 0.778778
O O4 0.193823 0.828101 0.745303
O O5 0.065416 0.573650 0.581795
O O6 0.103507 0.661938 0.697561
O O7 0.054469 0.652398 0.417952
O O8 0.001841 0.644551 0.680216
O O9 0.241722 0.500000 0.750000
O O10 0.250000 0.564319 0.500000
O O11 0.163233 0.554001 0.626312
O O12 0.890307 0.001699 0.419360
O O13 0.910031 0.000000 0.750000
O O14 0.545760 0.444774 0.254480
O O15 0.878215 0.240003 0.268328
O O16 0.854067 0.304782 0.035613
O O17 0.600634 0.362345 0.160901
#
# Coordination Sequence:
#
# PCOD8296581 Si02
#       8
#    16  16  16  16   8  16  16  16
#     4  10  23  42  67  97 133 176 223 276 339 412
#     4  11  24  44  67  98 136 170 233 273 353 398
#     4  11  24  38  60  95 134 181 224 276 340 403
#     4  10  24  41  67  96 136 185 227 289 338 408
#     4  10  26  42  68 100 138 176 246 276 350 410
#     4  11  23  45  69  99 135 175 223 286 336 415
#     4  11  26  43  67 102 132 184 220 295 333 419
#     4  11  25  42  70  98 134 176 225 278 345 406
#
# _framework density 21.752167
#
# number of rings (size 3 to 8) (size 9 to 14) (size 15 to 20)
#    0.000    1.333    1.333    2.400    9.333    3.733 
#    0.000    2.667    0.000    0.000    0.000    0.000 
#    0.000    0.000    0.000    0.000    0.000    0.000 
#
# Total GULP energy -743348.845819 kJ/mol
# GULP energy per Si atom -12389.147430 kJ/mol
# Density = 2.170266 g / cm^3
# Si number density = 21.752167 Si / 1000 Ang^3
#
#
#
# Elastic Constant Matrix: (Units=GPa)
#
#
# Indices 1 2 3 4 5 6 
#
# 1 120.3623 32.9153 30.9758 0.0000 0.0000 0.0000
# 2 32.9153 86.5182 22.7730 0.0000 0.0000 0.0000
# 3 30.9758 22.7730 107.9566 0.0000 0.0000 0.0000
# 4 0.0000 0.0000 0.0000 35.4143 0.0000 0.0000
# 5 0.0000 0.0000 0.0000 0.0000 -35.6297 0.0000
# 6 0.0000 0.0000 0.0000 0.0000 0.0000 31.1233
#
#
#
# Elastic Compliance Matrix: (Units=1/GPa)
#
#
# Indices 1 2 3 4 5 6 
#
# 1 0.009713 -0.003136 -0.002125 0.000000 0.000000 0.000000
# 2 -0.003136 0.013250 -0.001895 0.000000 0.000000 0.000000
# 3 -0.002125 -0.001895 0.010273 0.000000 0.000000 0.000000
# 4 0.000000 0.000000 0.000000 0.028237 0.000000 0.000000
# 5 0.000000 0.000000 0.000000 0.000000 -0.028066 0.000000
# 6 0.000000 0.000000 0.000000 0.000000 0.000000 0.032130
#
#
# Mechanical properties :
#
#
# Convention : Reuss Voigt Hill
#
# Bulk Modulus (GPa) = 52.84686 54.24059 53.54372
# Shear Modulus (GPa) = 58.03369 21.39312 39.71340
#
# Velocity S-wave (km/s) = 5.17082 3.13947 4.27748
# Velocity P-wave (km/s) = 7.74581 6.17508 7.00461
#
# Compressibility (1/GPa) = 0.01892260
#
# Stress axis : x y z
#
# Youngs Moduli (GPa) = 102.95747 75.47108 97.34603
#
# Poissons Ratio (x) = 0.23666 0.20690
# Poissons Ratio (y) = 0.32285 0.18450
# Poissons Ratio (z) = 0.21883 0.14304
#
# Static dielectric constant tensor:
#      x y z
#    x 3.952630 0.000000 0.000000 
#    y 0.000000 3.866580 0.000000 
#    z 0.000000 0.000000 4.121130 
# 
# 
# High freq. dielectric constant tensor:
#      x y z
#    x 1.857030 0.000000 0.000000 
#    y 0.000000 1.849320 0.000000 
#    z 0.000000 0.000000 1.865780 
# 
# From -- ./inp_files/7392.got.cif
#   From: 2010.03.12/outbox.cif.g09.slc.cpg/sg73_4_cif.got.tgz:7392.got - 2010.04.16 15:25:48.
