data_PCOD8296595
_publ_section_title
;
Structure prediction by ZEFSAII (Michael W. Deem and Ramdas Pophale) SiO2 
 PCOD8296595
Probable space group: I B C A 
;
_chemical_formula_sum "Si O2"
_cell_formula_units_Z 112
_cell_length_a 10.861465
_cell_length_b 17.918810
_cell_length_c 28.104207
_cell_angle_alpha 90.000000
_cell_angle_beta 90.000000
_cell_angle_gamma 90.000000
_cell_volume 5469.768013
_symmetry_space_group_name_H-M "I B C A "
_symmetry_group_IT_number 73
_symmetry_cell_setting 'orthorhombic'
loop_
_space_group_symop_operation_xyz
x,y,z
-x,1/2-y,z
x,-y,1/2-z
1/2-x,y,-z
-x,-y,-z
x,1/2+y,-z
-x,y,1/2+z
1/2+x,-y,z
1/2+x,1/2+y,1/2+z
1/2-x,-y,1/2+z
1/2+x,1/2-y,-z
-x,1/2+y,1/2-z
1/2-x,1/2-y,1/2-z
1/2+x,y,1/2-z
1/2-x,1/2+y,z
x,1/2-y,1/2+z
loop_
_atom_site_type_symbol
_atom_site_label
_atom_site_fract_x
_atom_site_fract_y
_atom_site_fract_z
Si Si1 0.877055 0.205197 0.303740
Si Si2 0.143286 0.583036 0.382656
Si Si3 0.836265 0.557490 0.040515
Si Si4 0.373779 0.206191 0.306602
Si Si5 0.095173 0.401749 0.566484
Si Si6 0.534031 0.334793 0.026085
Si Si7 0.654154 0.591055 0.382674
O O1 0.748984 0.245935 0.316605
O O2 0.883288 0.184462 0.248490
O O3 0.879733 0.128911 0.333098
O O4 0.000000 0.250000 0.318526
O O5 0.267130 0.591531 0.413554
O O6 0.149796 0.627980 0.333379
O O7 0.120262 0.495197 0.374494
O O8 0.031411 0.623669 0.409763
O O9 0.923863 0.488803 0.053922
O O10 0.907470 0.623224 0.013854
O O11 0.750000 0.522082 0.000000
O O12 0.500000 0.250000 0.322058
O O13 0.121804 0.349739 0.519783
O O14 0.203773 0.394630 0.604611
O O15 0.500000 0.250000 0.034619
O O16 0.578967 0.372236 0.074484
#
# Coordination Sequence:
#
# PCOD8296595 Si02
#       7
#    16  16  16  16  16  16  16
#     4  10  23  43  67  93 130 168 206 266 327 380
#     4  11  23  39  66  91 121 166 212 254 317 378
#     4  11  22  40  62  85 124 170 205 255 311 370
#     4  10  23  44  67  94 127 169 211 260 327 385
#     4  11  22  42  61  85 125 168 204 256 308 368
#     4  12  25  39  60  90 126 164 212 255 309 376
#     4  11  24  39  64  93 125 160 211 262 314 374
#
# _framework density 20.476189000000002
#
# number of rings (size 3 to 8) (size 9 to 14) (size 15 to 20)
#    0.000    1.143    2.857    3.857    4.000    3.429 
#    0.000    0.000    0.000    6.857    0.000    0.000 
#    0.000    0.000    0.000    0.000    0.000    0.000 
#
# Total GULP energy -694174.958642 kJ/mol
# GULP energy per Si atom -12395.981404 kJ/mol
# Density = 2.042958 g / cm^3
# Si number density = 20.476189 Si / 1000 Ang^3
#
#
#
# Elastic Constant Matrix: (Units=GPa)
#
#
# Indices 1 2 3 4 5 6 
#
# 1 81.7077 20.8675 16.2344 0.0000 0.0000 0.0000
# 2 20.8675 98.1425 52.7151 0.0000 0.0000 0.0000
# 3 16.2344 52.7151 99.2009 0.0000 0.0000 0.0000
# 4 0.0000 0.0000 0.0000 41.7260 0.0000 0.0000
# 5 0.0000 0.0000 0.0000 0.0000 19.8082 0.0000
# 6 0.0000 0.0000 0.0000 0.0000 0.0000 25.6072
#
#
#
# Elastic Compliance Matrix: (Units=1/GPa)
#
#
# Indices 1 2 3 4 5 6 
#
# 1 0.013001 -0.002269 -0.000922 0.000000 0.000000 0.000000
# 2 -0.002269 0.014655 -0.007416 0.000000 0.000000 0.000000
# 3 -0.000922 -0.007416 0.014172 0.000000 0.000000 0.000000
# 4 0.000000 0.000000 0.000000 0.023966 0.000000 0.000000
# 5 0.000000 0.000000 0.000000 0.000000 0.050484 0.000000
# 6 0.000000 0.000000 0.000000 0.000000 0.000000 0.039052
#
#
# Mechanical properties :
#
#
# Convention : Reuss Voigt Hill
#
# Bulk Modulus (GPa) = 48.51025 50.96501 49.73763
# Shear Modulus (GPa) = 27.26022 30.04388 28.65205
#
# Velocity S-wave (km/s) = 3.65267 3.83464 3.74476
# Velocity P-wave (km/s) = 6.44452 6.67457 6.56055
#
# Compressibility (1/GPa) = 0.02061420
#
# Stress axis : x y z
#
# Youngs Moduli (GPa) = 76.91440 68.23449 70.55924
#
# Poissons Ratio (x) = 0.15484 0.06504
# Poissons Ratio (y) = 0.17454 0.52330
# Poissons Ratio (z) = 0.07090 0.50606
#
# Static dielectric constant tensor:
#      x y z
#    x 3.937820 0.000000 0.000000 
#    y 0.000000 3.522320 0.000000 
#    z 0.000000 0.000000 3.659430 
# 
# 
# High freq. dielectric constant tensor:
#      x y z
#    x 1.815600 0.000000 0.000000 
#    y 0.000000 1.789760 0.000000 
#    z 0.000000 0.000000 1.800520 
# 
# From -- ./inp_files/34005.got.cif
#   From: 2010.03.12/outbox.cif.g09.slc.cpg/sg73_18_cif.got.tgz:34005.got - 2010.04.16 15:25:48.
