data_PCOD8296138
_publ_section_title
;
Structure prediction by ZEFSAII (Michael W. Deem and Ramdas Pophale) SiO2 
 PCOD8296138
Probable space group: I B C A 
;
_chemical_formula_sum "Si O2"
_cell_formula_units_Z 80
_cell_length_a 18.317317
_cell_length_b 22.480353
_cell_length_c 9.376742
_cell_angle_alpha 90.000000
_cell_angle_beta 90.000000
_cell_angle_gamma 90.000000
_cell_volume 3861.152497
_symmetry_space_group_name_H-M "I B C A "
_symmetry_group_IT_number 73
_symmetry_cell_setting 'orthorhombic'
loop_
_space_group_symop_operation_xyz
x,y,z
-x,1/2-y,z
x,-y,1/2-z
1/2-x,y,-z
-x,-y,-z
x,1/2+y,-z
-x,y,1/2+z
1/2+x,-y,z
1/2+x,1/2+y,1/2+z
1/2-x,-y,1/2+z
1/2+x,1/2-y,-z
-x,1/2+y,1/2-z
1/2-x,1/2-y,1/2-z
1/2+x,y,1/2-z
1/2-x,1/2+y,z
x,1/2-y,1/2+z
loop_
_atom_site_type_symbol
_atom_site_label
_atom_site_fract_x
_atom_site_fract_y
_atom_site_fract_z
Si Si1 0.511000 0.622680 0.419871
Si Si2 0.062194 0.442918 0.674812
Si Si3 0.416886 0.271336 0.703830
Si Si4 0.374424 0.178803 0.484407
Si Si5 0.750000 0.080679 0.000000
Si Si6 0.703083 0.000000 0.250000
O O1 0.540401 0.565919 0.509142
O O2 0.464496 0.610452 0.276295
O O3 0.577739 0.667039 0.385559
O O4 0.456015 0.653787 0.529707
O O5 0.023860 0.500000 0.750000
O O6 0.150062 0.451489 0.673230
O O7 0.500000 0.250000 0.737538
O O8 0.369173 0.222866 0.618844
O O9 0.365873 0.282705 0.840989
O O10 0.320098 0.123153 0.497400
O O11 0.748119 0.036844 0.862676
#
# Coordination Sequence:
#
# PCOD8296138 Si02
#       6
#    16  16  16  16   8   8
#     4  11  19  38  65  98 130 156 203 277 336 379
#     4  10  21  37  62  96 127 161 211 274 326 383
#     4  10  22  37  65  98 127 160 205 267 337 381
#     4  11  23  40  62  94 128 171 209 258 318 393
#     4  12  26  48  62  86 134 178 222 260 304 390
#     4  10  26  44  62  88 128 174 222 266 306 376
#
# _framework density 20.719201999999999
#
# number of rings (size 3 to 8) (size 9 to 14) (size 15 to 20)
#    0.600    0.800    4.000    2.400    2.800    2.400 
#    1.800    0.000    0.000    0.000    0.000    0.000 
#    0.000    0.000    0.000    0.000    0.000    0.000 
#
# Total GULP energy -495558.032932 kJ/mol
# GULP energy per Si atom -12388.950823 kJ/mol
# Density = 2.067204 g / cm^3
# Si number density = 20.719202 Si / 1000 Ang^3
#
#
#
# Elastic Constant Matrix: (Units=GPa)
#
#
# Indices 1 2 3 4 5 6 
#
# 1 42.0342 29.0532 39.2324 0.0000 0.0000 0.0000
# 2 29.0532 110.4008 58.8073 0.0000 0.0000 0.0000
# 3 39.2324 58.8073 118.5370 0.0000 0.0000 0.0000
# 4 0.0000 0.0000 0.0000 51.5532 0.0000 0.0000
# 5 0.0000 0.0000 0.0000 0.0000 16.4858 0.0000
# 6 0.0000 0.0000 0.0000 0.0000 0.0000 43.1751
#
#
#
# Elastic Compliance Matrix: (Units=1/GPa)
#
#
# Indices 1 2 3 4 5 6 
#
# 1 0.035820 -0.004229 -0.009757 0.000000 0.000000 0.000000
# 2 -0.004229 0.012811 -0.004956 0.000000 0.000000 0.000000
# 3 -0.009757 -0.004956 0.014124 0.000000 0.000000 0.000000
# 4 0.000000 0.000000 0.000000 0.019397 0.000000 0.000000
# 5 0.000000 0.000000 0.000000 0.000000 0.060658 0.000000
# 6 0.000000 0.000000 0.000000 0.000000 0.000000 0.023161
#
#
# Mechanical properties :
#
#
# Convention : Reuss Voigt Hill
#
# Bulk Modulus (GPa) = 40.20811 58.35089 49.27950
# Shear Modulus (GPa) = 23.56859 31.83476 27.70167
#
# Velocity S-wave (km/s) = 3.37638 3.92406 3.66047
# Velocity P-wave (km/s) = 5.88628 6.98246 6.45767
#
# Compressibility (1/GPa) = 0.02487061
#
# Stress axis : x y z
#
# Youngs Moduli (GPa) = 27.91723 78.06022 70.80031
#
# Poissons Ratio (x) = 0.33012 0.69083
# Poissons Ratio (y) = 0.11806 0.35087
# Poissons Ratio (z) = 0.27240 0.38685
#
# Static dielectric constant tensor:
#      x y z
#    x 3.283650 0.000000 0.000000 
#    y 0.000000 3.885410 0.000000 
#    z 0.000000 0.000000 3.707550 
# 
# 
# High freq. dielectric constant tensor:
#      x y z
#    x 1.762840 0.000000 0.000000 
#    y 0.000000 1.823170 0.000000 
#    z 0.000000 0.000000 1.817120 
# 
# From -- ./inp_files/5633.got.cif
#   From: 2010.03.12/outbox.cif.g09.slc.cpg/sg73_3_cif.got.tgz:5633.got - 2010.04.16 15:25:48.
