data_PCOD8296222
_publ_section_title
;
Structure prediction by ZEFSAII (Michael W. Deem and Ramdas Pophale) SiO2 
 PCOD8296222
Probable space group: I B C A 
;
_chemical_formula_sum "Si O2"
_cell_formula_units_Z 112
_cell_length_a 30.732885
_cell_length_b 10.050335
_cell_length_c 16.668020
_cell_angle_alpha 90.000000
_cell_angle_beta 90.000000
_cell_angle_gamma 90.000000
_cell_volume 5148.347841
_symmetry_space_group_name_H-M "I B C A "
_symmetry_group_IT_number 73
_symmetry_cell_setting 'orthorhombic'
loop_
_space_group_symop_operation_xyz
x,y,z
-x,1/2-y,z
x,-y,1/2-z
1/2-x,y,-z
-x,-y,-z
x,1/2+y,-z
-x,y,1/2+z
1/2+x,-y,z
1/2+x,1/2+y,1/2+z
1/2-x,-y,1/2+z
1/2+x,1/2-y,-z
-x,1/2+y,1/2-z
1/2-x,1/2-y,1/2-z
1/2+x,y,1/2-z
1/2-x,1/2+y,z
x,1/2-y,1/2+z
loop_
_atom_site_type_symbol
_atom_site_label
_atom_site_fract_x
_atom_site_fract_y
_atom_site_fract_z
Si Si1 0.751391 0.618345 0.303464
Si Si2 0.661022 0.419965 0.117172
Si Si3 0.599988 0.337579 0.393362
Si Si4 0.012042 0.104542 0.682669
Si Si5 0.416707 0.443146 0.336995
Si Si6 0.368121 0.339864 0.068742
Si Si7 0.793790 0.523715 0.457848
O O1 0.771075 0.500000 0.250000
O O2 0.750000 0.750000 0.250000
O O3 0.702327 0.579765 0.325712
O O4 0.782209 0.623987 0.383371
O O5 0.633732 0.551488 0.138433
O O6 0.630784 0.288712 0.127585
O O7 0.675219 0.405766 0.023250
O O8 0.550321 0.388551 0.383231
O O9 0.605159 0.202887 0.341589
O O10 0.610753 0.300953 0.484175
O O11 0.000000 0.250000 0.720558
O O12 0.967802 0.055042 0.640877
O O13 0.027164 0.000000 0.750000
O O14 0.407132 0.500000 0.250000
O O15 0.396099 0.537966 0.401728
O O16 0.317695 0.387953 0.068427
O O17 0.750000 0.473398 0.500000
#
# Coordination Sequence:
#
# PCOD8296222 Si02
#       7
#    16  16  16  16  16  16  16
#     4  11  24  40  60  89 119 154 207 259 306 362
#     4  10  23  39  61  89 121 160 202 253 313 371
#     4  10  21  40  63  89 121 158 209 257 299 371
#     4   9  20  39  62  88 123 164 202 250 315 379
#     4  10  23  42  63  90 127 167 202 249 320 384
#     4  11  22  39  63  92 122 161 207 253 309 370
#     4   9  21  41  61  82 119 164 202 250 312 372
#
# _framework density 21.754550999999999
#
# number of rings (size 3 to 8) (size 9 to 14) (size 15 to 20)
#    0.000    2.000    0.000    2.571    0.000   13.714 
#    0.000    1.429    0.000    0.000    0.000    0.000 
#    0.000    0.000    0.000    0.000    0.000    0.000 
#
# Total GULP energy -694155.889082 kJ/mol
# GULP energy per Si atom -12395.640876 kJ/mol
# Density = 2.170504 g / cm^3
# Si number density = 21.754551 Si / 1000 Ang^3
#
#
#
# Elastic Constant Matrix: (Units=GPa)
#
#
# Indices 1 2 3 4 5 6 
#
# 1 109.3690 56.8266 48.0304 0.0000 0.0000 0.0000
# 2 56.8266 142.6913 48.5703 0.0000 0.0000 0.0000
# 3 48.0304 48.5703 88.2741 0.0000 0.0000 0.0000
# 4 0.0000 0.0000 0.0000 35.0480 0.0000 0.0000
# 5 0.0000 0.0000 0.0000 0.0000 29.5214 0.0000
# 6 0.0000 0.0000 0.0000 0.0000 0.0000 29.7727
#
#
#
# Elastic Compliance Matrix: (Units=1/GPa)
#
#
# Indices 1 2 3 4 5 6 
#
# 1 0.013286 -0.003483 -0.005313 0.000000 0.000000 0.000000
# 2 -0.003483 0.009536 -0.003352 0.000000 0.000000 0.000000
# 3 -0.005313 -0.003352 0.016063 0.000000 0.000000 0.000000
# 4 0.000000 0.000000 0.000000 0.028532 0.000000 0.000000
# 5 0.000000 0.000000 0.000000 0.000000 0.033874 0.000000
# 6 0.000000 0.000000 0.000000 0.000000 0.000000 0.033588
#
#
# Mechanical properties :
#
#
# Convention : Reuss Voigt Hill
#
# Bulk Modulus (GPa) = 68.53729 71.90988 70.22358
# Shear Modulus (GPa) = 30.48077 31.32891 30.90484
#
# Velocity S-wave (km/s) = 3.74722 3.79899 3.77319
# Velocity P-wave (km/s) = 7.09192 7.23671 7.16468
#
# Compressibility (1/GPa) = 0.01459060
#
# Stress axis : x y z
#
# Youngs Moduli (GPa) = 75.26670 104.86452 62.25352
#
# Poissons Ratio (x) = 0.36522 0.33074
# Poissons Ratio (y) = 0.26214 0.20867
# Poissons Ratio (z) = 0.39987 0.35150
#
# Static dielectric constant tensor:
#      x y z
#    x 4.035930 0.000000 0.000000 
#    y 0.000000 4.056000 0.000000 
#    z 0.000000 0.000000 3.931780 
# 
# 
# High freq. dielectric constant tensor:
#      x y z
#    x 1.859580 0.000000 0.000000 
#    y 0.000000 1.865610 0.000000 
#    z 0.000000 0.000000 1.839240 
# 
# From -- ./inp_files/20042.got.cif
#   From: 2010.03.12/outbox.cif.g09.slc.cpg/sg73_11_cif.got.tgz:20042.got - 2010.04.16 15:25:48.
