data_PCOD8296015
_publ_section_title
;
Structure prediction by ZEFSAII (Michael W. Deem and Ramdas Pophale) SiO2 
 PCOD8296015
Probable space group: I B C A 
;
_chemical_formula_sum "Si O2"
_cell_formula_units_Z 112
_cell_length_a 24.515923
_cell_length_b 15.726818
_cell_length_c 14.456948
_cell_angle_alpha 90.000000
_cell_angle_beta 90.000000
_cell_angle_gamma 90.000000
_cell_volume 5573.984138
_symmetry_space_group_name_H-M "I B C A "
_symmetry_group_IT_number 73
_symmetry_cell_setting 'orthorhombic'
loop_
_space_group_symop_operation_xyz
x,y,z
-x,1/2-y,z
x,-y,1/2-z
1/2-x,y,-z
-x,-y,-z
x,1/2+y,-z
-x,y,1/2+z
1/2+x,-y,z
1/2+x,1/2+y,1/2+z
1/2-x,-y,1/2+z
1/2+x,1/2-y,-z
-x,1/2+y,1/2-z
1/2-x,1/2-y,1/2-z
1/2+x,y,1/2-z
1/2-x,1/2+y,z
x,1/2-y,1/2+z
loop_
_atom_site_type_symbol
_atom_site_label
_atom_site_fract_x
_atom_site_fract_y
_atom_site_fract_z
Si Si1 0.083300 0.915408 0.804000
Si Si2 0.557164 0.472010 0.039285
Si Si3 0.380030 0.381706 0.193541
Si Si4 0.262730 0.817693 0.604777
Si Si5 0.674243 0.286560 0.244663
Si Si6 0.501694 0.849854 0.826366
Si Si7 0.144679 0.550425 0.886924
O O1 0.128549 0.845064 0.788125
O O2 0.024101 0.876481 0.775076
O O3 0.099412 0.000000 0.750000
O O4 0.080372 0.943381 0.910664
O O5 0.546055 0.391655 0.105620
O O6 0.500000 0.500000 0.000000
O O7 0.602533 0.437964 0.969741
O O8 0.351871 0.290317 0.185126
O O9 0.441372 0.385293 0.154198
O O10 0.344682 0.450690 0.135903
O O11 0.384328 0.405104 0.300756
O O12 0.250000 0.785205 0.500000
O O13 0.292934 0.744983 0.664736
O O14 0.209693 0.838352 0.668287
O O15 0.297847 0.903958 0.592677
O O16 0.500000 0.750000 0.840053
#
# Coordination Sequence:
#
# PCOD8296015 Si02
#       7
#    16  16  16  16  16  16  16
#     4  10  23  38  64  91 128 171 208 262 322 387
#     4  11  22  39  59  97 132 165 212 264 315 396
#     4  10  20  40  66  88 128 169 208 255 321 392
#     4  10  24  43  67  91 131 167 218 283 322 378
#     4  10  22  46  64  95 126 169 223 271 326 385
#     4  11  21  37  61  92 127 171 202 252 321 385
#     4  10  22  40  63  93 126 170 212 263 323 383
#
# _framework density 20.093347000000001
#
# number of rings (size 3 to 8) (size 9 to 14) (size 15 to 20)
#    0.000    1.714    2.857    0.857    8.000    1.143 
#   12.857    0.714    0.000    0.000    0.000    0.000 
#    0.000    0.000    0.000    0.000    0.000    0.000 
#
# Total GULP energy -694124.664047 kJ/mol
# GULP energy per Si atom -12395.083287 kJ/mol
# Density = 2.004761 g / cm^3
# Si number density = 20.093347 Si / 1000 Ang^3
#
#
#
# Elastic Constant Matrix: (Units=GPa)
#
#
# Indices 1 2 3 4 5 6 
#
# 1 108.9145 44.7670 48.2129 0.0000 0.0000 0.0000
# 2 44.7670 112.8894 35.0723 0.0000 0.0000 0.0000
# 3 48.2129 35.0723 106.6436 0.0000 0.0000 0.0000
# 4 0.0000 0.0000 0.0000 19.7048 0.0000 0.0000
# 5 0.0000 0.0000 0.0000 0.0000 33.1500 0.0000
# 6 0.0000 0.0000 0.0000 0.0000 0.0000 28.8849
#
#
#
# Elastic Compliance Matrix: (Units=1/GPa)
#
#
# Indices 1 2 3 4 5 6 
#
# 1 0.012679 -0.003617 -0.004543 0.000000 0.000000 0.000000
# 2 -0.003617 0.010898 -0.001949 0.000000 0.000000 0.000000
# 3 -0.004543 -0.001949 0.012072 0.000000 0.000000 0.000000
# 4 0.000000 0.000000 0.000000 0.050749 0.000000 0.000000
# 5 0.000000 0.000000 0.000000 0.000000 0.030166 0.000000
# 6 0.000000 0.000000 0.000000 0.000000 0.000000 0.034620
#
#
# Mechanical properties :
#
#
# Convention : Reuss Voigt Hill
#
# Bulk Modulus (GPa) = 64.80023 64.95021 64.87522
# Shear Modulus (GPa) = 28.32152 29.70763 29.01458
#
# Velocity S-wave (km/s) = 3.75840 3.84927 3.80411
# Velocity P-wave (km/s) = 7.15218 7.22152 7.18693
#
# Compressibility (1/GPa) = 0.01543204
#
# Stress axis : x y z
#
# Youngs Moduli (GPa) = 78.87104 91.76056 82.83826
#
# Poissons Ratio (x) = 0.33186 0.37631
# Poissons Ratio (y) = 0.28524 0.16145
# Poissons Ratio (z) = 0.35828 0.17884
#
# Static dielectric constant tensor:
#      x y z
#    x 3.785220 0.000000 0.000000 
#    y 0.000000 3.740940 0.000000 
#    z 0.000000 0.000000 3.825610 
# 
# 
# High freq. dielectric constant tensor:
#      x y z
#    x 1.785850 0.000000 0.000000 
#    y 0.000000 1.782890 0.000000 
#    z 0.000000 0.000000 1.782010 
# 
# From -- ./inp_files/19835.got.cif
#   From: 2010.03.12/outbox.cif.g09.slc.cpg/sg73_10_cif.got.tgz:19835.got - 2010.04.16 15:25:48.
