data_PCOD8296055
_publ_section_title
;
Structure prediction by ZEFSAII (Michael W. Deem and Ramdas Pophale) SiO2 
 PCOD8296055
Probable space group: I B C A 
;
_chemical_formula_sum "Si O2"
_cell_formula_units_Z 96
_cell_length_a 18.829879
_cell_length_b 20.869015
_cell_length_c 11.214434
_cell_angle_alpha 90.000000
_cell_angle_beta 90.000000
_cell_angle_gamma 90.000000
_cell_volume 4406.835505
_symmetry_space_group_name_H-M "I B C A "
_symmetry_group_IT_number 73
_symmetry_cell_setting 'orthorhombic'
loop_
_space_group_symop_operation_xyz
x,y,z
-x,1/2-y,z
x,-y,1/2-z
1/2-x,y,-z
-x,-y,-z
x,1/2+y,-z
-x,y,1/2+z
1/2+x,-y,z
1/2+x,1/2+y,1/2+z
1/2-x,-y,1/2+z
1/2+x,1/2-y,-z
-x,1/2+y,1/2-z
1/2-x,1/2-y,1/2-z
1/2+x,y,1/2-z
1/2-x,1/2+y,z
x,1/2-y,1/2+z
loop_
_atom_site_type_symbol
_atom_site_label
_atom_site_fract_x
_atom_site_fract_y
_atom_site_fract_z
Si Si1 0.750000 0.825765 0.000000
Si Si2 0.173916 0.237638 0.812015
Si Si3 0.829319 0.046814 0.005411
Si Si4 0.387684 0.000000 0.250000
Si Si5 0.587859 0.864676 0.335916
Si Si6 0.072383 0.128404 0.852403
Si Si7 0.358028 0.412134 0.402945
O O1 0.690309 0.778701 0.948937
O O2 0.784345 0.871182 0.897077
O O3 0.250000 0.250000 0.750000
O O4 0.127909 0.300099 0.803520
O O5 0.125125 0.175281 0.774968
O O6 0.882605 0.101262 0.955625
O O7 0.837823 0.985676 0.920536
O O8 0.750000 0.074948 0.000000
O O9 0.840574 0.026254 0.141652
O O10 0.435886 0.059092 0.209072
O O11 0.506869 0.843868 0.356915
O O12 0.598013 0.908991 0.219458
O O13 0.097859 0.117324 0.987390
#
# Coordination Sequence:
#
# PCOD8296055 Si02
#       7
#     8  16  16   8  16  16  16
#     4  10  20  42  66  94 130 184 218 292 356 400
#     4  11  24  44  67 100 138 181 236 288 345 417
#     4  11  26  40  71 105 137 175 234 291 351 414
#     4  10  26  46  70 102 144 174 232 296 350 416
#     4  12  26  42  71 102 140 185 237 282 353 438
#     4  10  26  46  69  97 141 188 226 290 363 415
#     4  10  22  44  67  96 140 179 220 287 361 407
#
# _framework density 21.784338999999999
#
# number of rings (size 3 to 8) (size 9 to 14) (size 15 to 20)
#    0.000    1.333    2.500    1.000   10.500    1.333 
#    0.000    1.667    0.000    0.000    0.000    0.000 
#    0.000    0.000    0.000    0.000    0.000    0.000 
#
# Total GULP energy -594792.832276 kJ/mol
# GULP energy per Si atom -12391.517339 kJ/mol
# Density = 2.173476 g / cm^3
# Si number density = 21.784339 Si / 1000 Ang^3
#
#
#
# Elastic Constant Matrix: (Units=GPa)
#
#
# Indices 1 2 3 4 5 6 
#
# 1 159.3714 51.6814 26.3850 0.0000 0.0000 0.0000
# 2 51.6814 105.4393 33.4136 0.0000 0.0000 0.0000
# 3 26.3850 33.4136 82.4700 0.0000 0.0000 0.0000
# 4 0.0000 0.0000 0.0000 28.6739 0.0000 0.0000
# 5 0.0000 0.0000 0.0000 0.0000 24.1355 0.0000
# 6 0.0000 0.0000 0.0000 0.0000 0.0000 33.1256
#
#
#
# Elastic Compliance Matrix: (Units=1/GPa)
#
#
# Indices 1 2 3 4 5 6 
#
# 1 0.007539 -0.003363 -0.001050 0.000000 0.000000 0.000000
# 2 -0.003363 0.012381 -0.003941 0.000000 0.000000 0.000000
# 3 -0.001050 -0.003941 0.014058 0.000000 0.000000 0.000000
# 4 0.000000 0.000000 0.000000 0.034875 0.000000 0.000000
# 5 0.000000 0.000000 0.000000 0.000000 0.041433 0.000000
# 6 0.000000 0.000000 0.000000 0.000000 0.000000 0.030188
#
#
# Mechanical properties :
#
#
# Convention : Reuss Voigt Hill
#
# Bulk Modulus (GPa) = 57.89532 63.36008 60.62770
# Shear Modulus (GPa) = 30.68681 32.90705 31.79693
#
# Velocity S-wave (km/s) = 3.75729 3.89084 3.82465
# Velocity P-wave (km/s) = 6.74220 7.02375 6.88442
#
# Compressibility (1/GPa) = 0.01727255
#
# Stress axis : x y z
#
# Youngs Moduli (GPa) = 132.64649 80.76859 71.13412
#
# Poissons Ratio (x) = 0.27159 0.07466
# Poissons Ratio (y) = 0.44603 0.28031
# Poissons Ratio (z) = 0.13922 0.31827
#
# Static dielectric constant tensor:
#      x y z
#    x 3.985150 0.000000 0.000000 
#    y 0.000000 4.199810 0.000000 
#    z 0.000000 0.000000 3.850880 
# 
# 
# High freq. dielectric constant tensor:
#      x y z
#    x 1.858290 0.000000 0.000000 
#    y 0.000000 1.865200 0.000000 
#    z 0.000000 0.000000 1.844470 
# 
# From -- ./inp_files/12924.got.cif
#   From: 2010.03.12/outbox.cif.g09.slc.cpg/sg73_7_cif.got.tgz:12924.got - 2010.04.16 15:25:48.
