data_PCOD8296254
_publ_section_title
;
Structure prediction by ZEFSAII (Michael W. Deem and Ramdas Pophale) SiO2 
 PCOD8296254
Probable space group: I B C A 
;
_chemical_formula_sum "Si O2"
_cell_formula_units_Z 88
_cell_length_a 24.352248
_cell_length_b 13.854192
_cell_length_c 11.956778
_cell_angle_alpha 90.000000
_cell_angle_beta 90.000000
_cell_angle_gamma 90.000000
_cell_volume 4033.986364
_symmetry_space_group_name_H-M "I B C A "
_symmetry_group_IT_number 73
_symmetry_cell_setting 'orthorhombic'
loop_
_space_group_symop_operation_xyz
x,y,z
-x,1/2-y,z
x,-y,1/2-z
1/2-x,y,-z
-x,-y,-z
x,1/2+y,-z
-x,y,1/2+z
1/2+x,-y,z
1/2+x,1/2+y,1/2+z
1/2-x,-y,1/2+z
1/2+x,1/2-y,-z
-x,1/2+y,1/2-z
1/2-x,1/2-y,1/2-z
1/2+x,y,1/2-z
1/2-x,1/2+y,z
x,1/2-y,1/2+z
loop_
_atom_site_type_symbol
_atom_site_label
_atom_site_fract_x
_atom_site_fract_y
_atom_site_fract_z
Si Si1 0.190378 0.247181 0.805962
Si Si2 0.924565 0.478494 0.527803
Si Si3 0.321555 0.423320 0.832147
Si Si4 0.750000 0.192017 0.000000
Si Si5 0.402766 0.895971 0.793509
Si Si6 0.479174 0.643247 0.096430
O O1 0.250000 0.250000 0.750000
O O2 0.155642 0.159204 0.753012
O O3 0.203582 0.241241 0.939860
O O4 0.154334 0.340628 0.783264
O O5 0.868632 0.475677 0.596950
O O6 0.922783 0.405793 0.421367
O O7 0.937576 0.590408 0.492833
O O8 0.971067 0.433147 0.608213
O O9 0.292763 0.500000 0.750000
O O10 0.275863 0.379916 0.911100
O O11 0.450027 0.846603 0.717316
O O12 0.387295 0.000000 0.750000
O O13 0.500000 0.750000 0.057628
#
# Coordination Sequence:
#
# PCOD8296254 Si02
#       6
#    16  16  16   8  16  16
#     4  10  22  41  67  94 136 178 235 290 340 418
#     4  10  22  41  63  95 142 174 225 295 344 414
#     4  11  24  42  65 101 134 184 231 292 348 426
#     4  10  22  46  64  96 138 182 240 290 348 416
#     4  10  21  41  66  93 134 186 231 288 352 424
#     4  10  22  39  65  99 128 183 231 275 353 420
#
# _framework density 21.81465
#
# number of rings (size 3 to 8) (size 9 to 14) (size 15 to 20)
#    0.000    1.818    1.818    1.091    0.000    9.455 
#   13.091    0.000    0.000    0.000    0.000    0.000 
#    0.000    0.000    0.000    0.000    0.000    0.000 
#
# Total GULP energy -545113.112276 kJ/mol
# GULP energy per Si atom -12388.934370 kJ/mol
# Density = 2.176500 g / cm^3
# Si number density = 21.814650 Si / 1000 Ang^3
#
#
#
# Elastic Constant Matrix: (Units=GPa)
#
#
# Indices 1 2 3 4 5 6 
#
# 1 90.7455 38.1683 51.1106 0.0000 0.0000 0.0000
# 2 38.1683 126.8185 55.4460 0.0000 0.0000 0.0000
# 3 51.1106 55.4460 131.8600 0.0000 0.0000 0.0000
# 4 0.0000 0.0000 0.0000 37.2420 0.0000 0.0000
# 5 0.0000 0.0000 0.0000 0.0000 37.0460 0.0000
# 6 0.0000 0.0000 0.0000 0.0000 0.0000 41.3570
#
#
#
# Elastic Compliance Matrix: (Units=1/GPa)
#
#
# Indices 1 2 3 4 5 6 
#
# 1 0.014653 -0.002361 -0.004687 0.000000 0.000000 0.000000
# 2 -0.002361 0.010042 -0.003307 0.000000 0.000000 0.000000
# 3 -0.004687 -0.003307 0.010791 0.000000 0.000000 0.000000
# 4 0.000000 0.000000 0.000000 0.026851 0.000000 0.000000
# 5 0.000000 0.000000 0.000000 0.000000 0.026993 0.000000
# 6 0.000000 0.000000 0.000000 0.000000 0.000000 0.024180
#
#
# Mechanical properties :
#
#
# Convention : Reuss Voigt Hill
#
# Bulk Modulus (GPa) = 67.67969 70.98600 69.33284
# Shear Modulus (GPa) = 35.93360 36.77560 36.35460
#
# Velocity S-wave (km/s) = 4.06300 4.11033 4.08673
# Velocity P-wave (km/s) = 7.28717 7.42547 7.35665
#
# Compressibility (1/GPa) = 0.01477548
#
# Stress axis : x y z
#
# Youngs Moduli (GPa) = 68.24741 99.58327 92.66809
#
# Poissons Ratio (x) = 0.23510 0.43432
# Poissons Ratio (y) = 0.16112 0.30649
# Poissons Ratio (z) = 0.31986 0.32936
#
# Static dielectric constant tensor:
#      x y z
#    x 3.879700 0.000000 0.000000 
#    y 0.000000 4.234060 0.000000 
#    z 0.000000 0.000000 4.809350 
# 
# 
# High freq. dielectric constant tensor:
#      x y z
#    x 1.851770 0.000000 0.000000 
#    y 0.000000 1.852150 0.000000 
#    z 0.000000 0.000000 1.865360 
# 
# From -- ./inp_files/10977.got.cif
#   From: 2010.03.12/outbox.cif.g09.slc.cpg/sg73_6_cif.got.tgz:10977.got - 2010.04.16 15:25:48.
