data_PCOD8296918
_publ_section_title
;
Structure prediction by ZEFSAII (Michael W. Deem and Ramdas Pophale) SiO2 
 PCOD8296918
Probable space group: I B C A 
;
_chemical_formula_sum "Si O2"
_cell_formula_units_Z 88
_cell_length_a 22.218633
_cell_length_b 13.285170
_cell_length_c 12.670241
_cell_angle_alpha 90.000000
_cell_angle_beta 90.000000
_cell_angle_gamma 90.000000
_cell_volume 3739.980409
_symmetry_space_group_name_H-M "I B C A "
_symmetry_group_IT_number 73
_symmetry_cell_setting 'orthorhombic'
loop_
_space_group_symop_operation_xyz
x,y,z
-x,1/2-y,z
x,-y,1/2-z
1/2-x,y,-z
-x,-y,-z
x,1/2+y,-z
-x,y,1/2+z
1/2+x,-y,z
1/2+x,1/2+y,1/2+z
1/2-x,-y,1/2+z
1/2+x,1/2-y,-z
-x,1/2+y,1/2-z
1/2-x,1/2-y,1/2-z
1/2+x,y,1/2-z
1/2-x,1/2+y,z
x,1/2-y,1/2+z
loop_
_atom_site_type_symbol
_atom_site_label
_atom_site_fract_x
_atom_site_fract_y
_atom_site_fract_z
Si Si1 0.096764 0.161969 0.967381
Si Si2 0.912624 0.107411 0.693635
Si Si3 0.207201 0.962394 0.593962
Si Si4 0.312727 0.334377 0.012529
Si Si5 0.783915 0.144705 0.754524
Si Si6 0.500000 0.750000 0.820814
O O1 0.145584 0.099395 0.902781
O O2 0.126952 0.269883 0.997490
O O3 0.039916 0.177613 0.893024
O O4 0.071975 0.101460 0.069144
O O5 0.845939 0.154948 0.690823
O O6 0.958960 0.181428 0.748069
O O7 0.915044 0.000000 0.750000
O O8 0.250000 0.925039 0.500000
O O9 0.241542 0.941251 0.704007
O O10 0.188896 0.080116 0.578928
O O11 0.306077 0.388320 0.127637
O O12 0.250000 0.269523 0.000000
O O13 0.750000 0.250000 0.750000
#
# Coordination Sequence:
#
# PCOD8296918 Si02
#       6
#    16  16  16  16  16   8
#     4  12  24  47  74 105 145 194 255 307 372 453
#     4  12  27  49  75 104 149 199 251 320 386 445
#     4  11  23  40  72 109 146 187 233 300 390 449
#     4  11  24  40  71 110 150 185 236 303 380 453
#     4  12  22  43  72 106 153 190 238 308 380 473
#     4  12  28  50  72 104 140 210 262 316 368 440
#
# _framework density 23.529534999999999
#
# number of rings (size 3 to 8) (size 9 to 14) (size 15 to 20)
#    0.000    0.364    5.455    3.273    2.545    0.727 
#    3.273    0.000    0.000    0.000    0.000    0.000 
#    0.000    0.000    0.000    0.000    0.000    0.000 
#
# Total GULP energy -545465.414763 kJ/mol
# GULP energy per Si atom -12396.941245 kJ/mol
# Density = 2.347598 g / cm^3
# Si number density = 23.529535 Si / 1000 Ang^3
#
#
#
# Elastic Constant Matrix: (Units=GPa)
#
#
# Indices 1 2 3 4 5 6 
#
# 1 136.1060 50.5012 36.8855 0.0000 0.0000 0.0000
# 2 50.5012 123.8098 33.9820 0.0000 0.0000 0.0000
# 3 36.8855 33.9820 116.3875 0.0000 0.0000 0.0000
# 4 0.0000 0.0000 0.0000 34.6122 0.0000 0.0000
# 5 0.0000 0.0000 0.0000 0.0000 29.8685 0.0000
# 6 0.0000 0.0000 0.0000 0.0000 0.0000 -11.1392
#
#
#
# Elastic Compliance Matrix: (Units=1/GPa)
#
#
# Indices 1 2 3 4 5 6 
#
# 1 0.009045 -0.003156 -0.001945 0.000000 0.000000 0.000000
# 2 -0.003156 0.009881 -0.001885 0.000000 0.000000 0.000000
# 3 -0.001945 -0.001885 0.009759 0.000000 0.000000 0.000000
# 4 0.000000 0.000000 0.000000 0.028892 0.000000 0.000000
# 5 0.000000 0.000000 0.000000 0.000000 0.033480 0.000000
# 6 0.000000 0.000000 0.000000 0.000000 0.000000 -0.089773
#
#
# Mechanical properties :
#
#
# Convention : Reuss Voigt Hill
#
# Bulk Modulus (GPa) = 67.96365 68.78231 68.37298
# Shear Modulus (GPa) = 248.01222 27.66395 137.83808
#
# Velocity S-wave (km/s) = 10.27781 3.43259 7.66212
# Velocity P-wave (km/s) = 13.03042 6.70865 10.36334
#
# Compressibility (1/GPa) = 0.01471375
#
# Stress axis : x y z
#
# Youngs Moduli (GPa) = 110.55516 101.19993 102.47093
#
# Poissons Ratio (x) = 0.31934 0.19933
# Poissons Ratio (y) = 0.34887 0.19316
# Poissons Ratio (z) = 0.21506 0.19077
#
# Static dielectric constant tensor:
#      x y z
#    x 4.300700 0.000000 0.000000 
#    y 0.000000 4.133090 0.000000 
#    z 0.000000 0.000000 4.737360 
# 
# 
# High freq. dielectric constant tensor:
#      x y z
#    x 1.921140 0.000000 0.000000 
#    y 0.000000 1.935030 0.000000 
#    z 0.000000 0.000000 1.949080 
# 
# From -- ./inp_files/14201.got.cif
#   From: 2010.03.12/outbox.cif.g09.slc.cpg/sg73_8_cif.got.tgz:14201.got - 2010.04.16 15:25:48.
