data_PCOD8296616
_publ_section_title
;
Structure prediction by ZEFSAII (Michael W. Deem and Ramdas Pophale) SiO2 
 PCOD8296616
Probable space group: I B C A 
;
_chemical_formula_sum "Si O2"
_cell_formula_units_Z 120
_cell_length_a 10.488564
_cell_length_b 19.616392
_cell_length_c 28.144069
_cell_angle_alpha 90.000000
_cell_angle_beta 90.000000
_cell_angle_gamma 90.000000
_cell_volume 5790.579800
_symmetry_space_group_name_H-M "I B C A "
_symmetry_group_IT_number 73
_symmetry_cell_setting 'orthorhombic'
loop_
_space_group_symop_operation_xyz
x,y,z
-x,1/2-y,z
x,-y,1/2-z
1/2-x,y,-z
-x,-y,-z
x,1/2+y,-z
-x,y,1/2+z
1/2+x,-y,z
1/2+x,1/2+y,1/2+z
1/2-x,-y,1/2+z
1/2+x,1/2-y,-z
-x,1/2+y,1/2-z
1/2-x,1/2-y,1/2-z
1/2+x,y,1/2-z
1/2-x,1/2+y,z
x,1/2-y,1/2+z
loop_
_atom_site_type_symbol
_atom_site_label
_atom_site_fract_x
_atom_site_fract_y
_atom_site_fract_z
Si Si1 0.000770 0.005685 0.860440
Si Si2 0.380203 0.206718 0.804459
Si Si3 0.249578 0.470160 0.197519
Si Si4 0.000000 0.250000 0.368877
Si Si5 0.597325 0.123441 0.581371
Si Si6 0.625263 0.880531 0.103914
Si Si7 0.673183 0.820423 0.297361
Si Si8 0.604154 0.806093 0.009691
O O1 0.134651 0.000169 0.833388
O O2 0.978379 0.940925 0.894630
O O3 0.996953 0.073114 0.893492
O O4 0.886140 0.007767 0.822782
O O5 0.500000 0.250000 0.820756
O O6 0.359098 0.149700 0.843537
O O7 0.401358 0.172157 0.752886
O O8 0.257506 0.253401 0.799800
O O9 0.235276 0.500000 0.250000
O O10 0.241612 0.387877 0.195768
O O11 0.906731 0.202633 0.400366
O O12 0.930536 0.308526 0.338098
O O13 0.736316 0.091013 0.589799
O O14 0.575247 0.128788 0.524555
O O15 0.581417 0.826126 0.064532
O O16 0.500000 0.750000 0.996587
O O17 0.750000 0.780361 0.000000
#
# Coordination Sequence:
#
# PCOD8296616 Si02
#       8
#    16  16  16   8  16  16  16  16
#     4  12  25  44  67  94 137 181 226 274 341 408
#     4  11  22  37  59  92 131 164 212 269 327 390
#     4  12  26  43  65  97 136 183 234 276 330 404
#     4  12  20  42  68  92 130 166 222 270 332 396
#     4  11  23  43  71  94 130 174 225 280 338 404
#     4  11  23  43  65  96 138 175 217 283 342 402
#     4  11  24  37  62  93 123 174 217 266 326 394
#     4  10  23  44  70 102 132 171 223 283 347 407
#
# _framework density 20.723313999999998
#
# number of rings (size 3 to 8) (size 9 to 14) (size 15 to 20)
#    0.000    0.800    5.333    2.400    0.000    1.600 
#    2.400    0.000    0.000    0.000    0.000    0.000 
#    0.000    0.000    0.000    0.000    0.000    0.000 
#
# Total GULP energy -743952.713030 kJ/mol
# GULP energy per Si atom -12399.211884 kJ/mol
# Density = 2.067615 g / cm^3
# Si number density = 20.723314 Si / 1000 Ang^3
#
#
#
# Elastic Constant Matrix: (Units=GPa)
#
#
# Indices 1 2 3 4 5 6 
#
# 1 89.5906 29.9591 31.6921 0.0000 0.0000 0.0000
# 2 29.9591 97.2531 35.7147 0.0000 0.0000 0.0000
# 3 31.6921 35.7147 104.9240 0.0000 0.0000 0.0000
# 4 0.0000 0.0000 0.0000 36.8134 0.0000 0.0000
# 5 0.0000 0.0000 0.0000 0.0000 29.0058 0.0000
# 6 0.0000 0.0000 0.0000 0.0000 0.0000 32.2079
#
#
#
# Elastic Compliance Matrix: (Units=1/GPa)
#
#
# Indices 1 2 3 4 5 6 
#
# 1 0.013210 -0.002976 -0.002977 0.000000 0.000000 0.000000
# 2 -0.002976 0.012422 -0.003329 0.000000 0.000000 0.000000
# 3 -0.002977 -0.003329 0.011563 0.000000 0.000000 0.000000
# 4 0.000000 0.000000 0.000000 0.027164 0.000000 0.000000
# 5 0.000000 0.000000 0.000000 0.000000 0.034476 0.000000
# 6 0.000000 0.000000 0.000000 0.000000 0.000000 0.031048
#
#
# Mechanical properties :
#
#
# Convention : Reuss Voigt Hill
#
# Bulk Modulus (GPa) = 53.67621 54.05548 53.86585
# Shear Modulus (GPa) = 32.32927 32.56555 32.44741
#
# Velocity S-wave (km/s) = 3.95402 3.96845 3.96124
# Velocity P-wave (km/s) = 6.84130 6.86579 6.85355
#
# Compressibility (1/GPa) = 0.01863023
#
# Stress axis : x y z
#
# Youngs Moduli (GPa) = 75.69886 80.50298 86.48137
#
# Poissons Ratio (x) = 0.23959 0.25746
# Poissons Ratio (y) = 0.22529 0.28792
# Poissons Ratio (z) = 0.22536 0.26802
#
# Static dielectric constant tensor:
#      x y z
#    x 3.724300 0.000000 0.000000 
#    y 0.000000 3.449400 0.000000 
#    z 0.000000 0.000000 3.965540 
# 
# 
# High freq. dielectric constant tensor:
#      x y z
#    x 1.808060 0.000000 0.000000 
#    y 0.000000 1.804270 0.000000 
#    z 0.000000 0.000000 1.821320 
# 
# From -- ./inp_files/31813.got.cif
#   From: 2010.03.12/outbox.cif.g09.slc.cpg/sg73_16_cif.got.tgz:31813.got - 2010.04.16 15:25:48.
