data_PCOD8296528
_publ_section_title
;
Structure prediction by ZEFSAII (Michael W. Deem and Ramdas Pophale) SiO2 
 PCOD8296528
Probable space group: I B C A 
;
_chemical_formula_sum "Si O2"
_cell_formula_units_Z 104
_cell_length_a 27.228046
_cell_length_b 19.634608
_cell_length_c 9.469011
_cell_angle_alpha 90.000000
_cell_angle_beta 90.000000
_cell_angle_gamma 90.000000
_cell_volume 5062.247002
_symmetry_space_group_name_H-M "I B C A "
_symmetry_group_IT_number 73
_symmetry_cell_setting 'orthorhombic'
loop_
_space_group_symop_operation_xyz
x,y,z
-x,1/2-y,z
x,-y,1/2-z
1/2-x,y,-z
-x,-y,-z
x,1/2+y,-z
-x,y,1/2+z
1/2+x,-y,z
1/2+x,1/2+y,1/2+z
1/2-x,-y,1/2+z
1/2+x,1/2-y,-z
-x,1/2+y,1/2-z
1/2-x,1/2-y,1/2-z
1/2+x,y,1/2-z
1/2-x,1/2+y,z
x,1/2-y,1/2+z
loop_
_atom_site_type_symbol
_atom_site_label
_atom_site_fract_x
_atom_site_fract_y
_atom_site_fract_z
Si Si1 0.661877 0.737770 0.439885
Si Si2 0.560535 0.690779 0.918204
Si Si3 0.804155 0.529035 0.962311
Si Si4 0.700159 0.606926 0.312158
Si Si5 0.616860 0.431362 0.686455
Si Si6 0.000000 0.250000 0.163212
Si Si7 0.307845 0.334147 0.289326
O O1 0.605202 0.758332 0.451068
O O2 0.665140 0.669786 0.346351
O O3 0.686218 0.724510 0.592216
O O4 0.692275 0.798118 0.364190
O O5 0.576804 0.611966 0.900899
O O6 0.537141 0.710786 0.766954
O O7 0.525330 0.695745 0.055417
O O8 0.820688 0.574560 0.830348
O O9 0.805295 0.448579 0.934708
O O10 0.750000 0.553685 0.000000
O O11 0.839385 0.542955 0.089932
O O12 0.757334 0.626578 0.308440
O O13 0.591795 0.500000 0.750000
O O14 0.644420 0.383680 0.802121
#
# Coordination Sequence:
#
# PCOD8296528 Si02
#       7
#    16  16  16  16  16   8  16
#     4  11  23  37  61  90 123 157 211 259 306 352
#     4  10  23  41  69  93 119 153 196 253 328 388
#     4  11  22  36  57  82 124 179 219 244 290 346
#     4  11  23  36  55  85 128 175 216 253 287 344
#     4  11  22  39  64  89 126 165 212 253 302 363
#     4  10  22  46  68  94 118 148 190 256 332 410
#     4  11  23  38  58  88 131 175 215 255 298 342
#
# _framework density 20.544235
#
# number of rings (size 3 to 8) (size 9 to 14) (size 15 to 20)
#    0.000    1.231    1.538    5.538    6.462    0.000 
#    0.000    0.769    0.000    0.000    0.000    0.000 
#    0.000    0.000    0.000    0.000    0.000    0.000 
#
# Total GULP energy -644721.735323 kJ/mol
# GULP energy per Si atom -12398.494910 kJ/mol
# Density = 2.049748 g / cm^3
# Si number density = 20.544235 Si / 1000 Ang^3
#
#
#
# Elastic Constant Matrix: (Units=GPa)
#
#
# Indices 1 2 3 4 5 6 
#
# 1 47.8315 22.0226 6.4424 0.0000 0.0000 0.0000
# 2 22.0226 97.5875 19.5556 0.0000 0.0000 0.0000
# 3 6.4424 19.5556 73.9214 0.0000 0.0000 0.0000
# 4 0.0000 0.0000 0.0000 64.5200 0.0000 0.0000
# 5 0.0000 0.0000 0.0000 0.0000 25.7156 0.0000
# 6 0.0000 0.0000 0.0000 0.0000 0.0000 19.5032
#
#
#
# Elastic Compliance Matrix: (Units=1/GPa)
#
#
# Indices 1 2 3 4 5 6 
#
# 1 0.023363 -0.005137 -0.000677 0.000000 0.000000 0.000000
# 2 -0.005137 0.011950 -0.002714 0.000000 0.000000 0.000000
# 3 -0.000677 -0.002714 0.014305 0.000000 0.000000 0.000000
# 4 0.000000 0.000000 0.000000 0.015499 0.000000 0.000000
# 5 0.000000 0.000000 0.000000 0.000000 0.038887 0.000000
# 6 0.000000 0.000000 0.000000 0.000000 0.000000 0.051274
#
#
# Mechanical properties :
#
#
# Convention : Reuss Voigt Hill
#
# Bulk Modulus (GPa) = 30.70992 35.04241 32.87617
# Shear Modulus (GPa) = 27.29454 33.36910 30.33182
#
# Velocity S-wave (km/s) = 3.64892 4.03458 3.84658
# Velocity P-wave (km/s) = 5.72131 6.22879 5.98044
#
# Compressibility (1/GPa) = 0.03256277
#
# Stress axis : x y z
#
# Youngs Moduli (GPa) = 42.80285 83.68069 69.90652
#
# Poissons Ratio (x) = 0.42983 0.04735
# Poissons Ratio (y) = 0.21986 0.18971
# Poissons Ratio (z) = 0.02899 0.22708
#
# Static dielectric constant tensor:
#      x y z
#    x 3.492250 0.000000 0.000000 
#    y 0.000000 4.028770 0.000000 
#    z 0.000000 0.000000 4.121920 
# 
# 
# High freq. dielectric constant tensor:
#      x y z
#    x 1.771540 0.000000 0.000000 
#    y 0.000000 1.813220 0.000000 
#    z 0.000000 0.000000 1.819680 
# 
# From -- ./inp_files/7881.got.cif
#   From: 2010.03.12/outbox.cif.g09.slc.cpg/sg73_4_cif.got.tgz:7881.got - 2010.04.16 15:25:48.
