data_PCOD8296597
_publ_section_title
;
Structure prediction by ZEFSAII (Michael W. Deem and Ramdas Pophale) SiO2 
 PCOD8296597
Probable space group: I B C A 
;
_chemical_formula_sum "Si O2"
_cell_formula_units_Z 48
_cell_length_a 13.811260
_cell_length_b 15.692984
_cell_length_c 9.947841
_cell_angle_alpha 90.000000
_cell_angle_beta 90.000000
_cell_angle_gamma 90.000000
_cell_volume 2156.093886
_symmetry_space_group_name_H-M "I B C A "
_symmetry_group_IT_number 73
_symmetry_cell_setting 'orthorhombic'
loop_
_space_group_symop_operation_xyz
x,y,z
-x,1/2-y,z
x,-y,1/2-z
1/2-x,y,-z
-x,-y,-z
x,1/2+y,-z
-x,y,1/2+z
1/2+x,-y,z
1/2+x,1/2+y,1/2+z
1/2-x,-y,1/2+z
1/2+x,1/2-y,-z
-x,1/2+y,1/2-z
1/2-x,1/2-y,1/2-z
1/2+x,y,1/2-z
1/2-x,1/2+y,z
x,1/2-y,1/2+z
loop_
_atom_site_type_symbol
_atom_site_label
_atom_site_fract_x
_atom_site_fract_y
_atom_site_fract_z
Si Si1 0.430251 0.918020 0.982574
Si Si2 0.000000 0.250000 0.082229
Si Si3 0.750000 0.483885 0.000000
Si Si4 0.100817 0.905352 0.325815
O O1 0.415655 0.942348 0.823620
O O2 0.435378 0.814781 0.992363
O O3 0.334942 0.954433 0.058051
O O4 0.529209 0.950637 0.060286
O O5 0.074002 0.195120 0.174896
O O6 0.790368 0.422860 0.120217
#
# Coordination Sequence:
#
# PCOD8296597 Si02
#       4
#    16   8   8  16
#     4  10  23  43  67  96 129 174 218 271 327 384
#     4   8  22  44  70  92 128 174 218 270 326 386
#     4  12  24  38  62 100 132 166 216 264 328 386
#     4  10  23  43  67  96 129 174 218 271 327 384
#
# _framework density 22.262481999999999
#
# number of rings (size 3 to 8) (size 9 to 14) (size 15 to 20)
#    2.000    0.000    0.000    3.000    0.000    6.667 
#    0.000    3.333    0.000    0.000    0.000    0.000 
#    0.000    0.000    0.000    0.000    0.000    0.000 
#
# Total GULP energy -297355.813002 kJ/mol
# GULP energy per Si atom -12389.825542 kJ/mol
# Density = 2.221181 g / cm^3
# Si number density = 22.262482 Si / 1000 Ang^3
#
#
#
# Elastic Constant Matrix: (Units=GPa)
#
#
# Indices 1 2 3 4 5 6 
#
# 1 152.7919 78.8714 59.7914 0.0000 0.0000 0.0000
# 2 78.8714 154.5042 68.5602 0.0000 0.0000 0.0000
# 3 59.7914 68.5602 145.3927 0.0000 0.0000 0.0000
# 4 0.0000 0.0000 0.0000 42.3769 0.0000 0.0000
# 5 0.0000 0.0000 0.0000 0.0000 25.7190 0.0000
# 6 0.0000 0.0000 0.0000 0.0000 0.0000 60.3997
#
#
#
# Elastic Compliance Matrix: (Units=1/GPa)
#
#
# Indices 1 2 3 4 5 6 
#
# 1 0.009330 -0.003870 -0.002012 0.000000 0.000000 0.000000
# 2 -0.003870 0.009790 -0.003025 0.000000 0.000000 0.000000
# 3 -0.002012 -0.003025 0.009132 0.000000 0.000000 0.000000
# 4 0.000000 0.000000 0.000000 0.023598 0.000000 0.000000
# 5 0.000000 0.000000 0.000000 0.000000 0.038882 0.000000
# 6 0.000000 0.000000 0.000000 0.000000 0.000000 0.016556
#
#
# Mechanical properties :
#
#
# Convention : Reuss Voigt Hill
#
# Bulk Modulus (GPa) = 95.80469 96.34829 96.07649
# Shear Modulus (GPa) = 38.88597 42.06350 40.47474
#
# Velocity S-wave (km/s) = 4.18389 4.35148 4.26851
# Velocity P-wave (km/s) = 8.15276 8.28368 8.21848
#
# Compressibility (1/GPa) = 0.01043790
#
# Stress axis : x y z
#
# Youngs Moduli (GPa) = 107.18315 102.14289 109.50718
#
# Poissons Ratio (x) = 0.39528 0.22032
# Poissons Ratio (y) = 0.41479 0.33127
# Poissons Ratio (z) = 0.21565 0.30900
#
# Static dielectric constant tensor:
#      x y z
#    x 3.733350 0.000000 0.000000 
#    y 0.000000 4.352700 0.000000 
#    z 0.000000 0.000000 3.616930 
# 
# 
# High freq. dielectric constant tensor:
#      x y z
#    x 1.856330 0.000000 0.000000 
#    y 0.000000 1.933010 0.000000 
#    z 0.000000 0.000000 1.865070 
# 
# From -- ./inp_files/4381.got.cif
#   From: 2010.03.12/outbox.cif.g09.slc.cpg/sg73_3_cif.got.tgz:4381.got - 2010.04.16 15:25:48.
