data_PCOD8296315
_publ_section_title
;
Structure prediction by ZEFSAII (Michael W. Deem and Ramdas Pophale) SiO2 
 PCOD8296315
Probable space group: I B C A 
;
_chemical_formula_sum "Si O2"
_cell_formula_units_Z 120
_cell_length_a 22.753743
_cell_length_b 22.370843
_cell_length_c 11.733595
_cell_angle_alpha 90.000000
_cell_angle_beta 90.000000
_cell_angle_gamma 90.000000
_cell_volume 5972.639365
_symmetry_space_group_name_H-M "I B C A "
_symmetry_group_IT_number 73
_symmetry_cell_setting 'orthorhombic'
loop_
_space_group_symop_operation_xyz
x,y,z
-x,1/2-y,z
x,-y,1/2-z
1/2-x,y,-z
-x,-y,-z
x,1/2+y,-z
-x,y,1/2+z
1/2+x,-y,z
1/2+x,1/2+y,1/2+z
1/2-x,-y,1/2+z
1/2+x,1/2-y,-z
-x,1/2+y,1/2-z
1/2-x,1/2-y,1/2-z
1/2+x,y,1/2-z
1/2-x,1/2+y,z
x,1/2-y,1/2+z
loop_
_atom_site_type_symbol
_atom_site_label
_atom_site_fract_x
_atom_site_fract_y
_atom_site_fract_z
Si Si1 0.948137 0.175116 0.663596
Si Si2 0.584433 0.308953 0.376192
Si Si3 0.708377 0.927121 0.249198
Si Si4 0.636760 0.096024 0.468431
Si Si5 0.895886 0.000000 0.250000
Si Si6 0.333296 0.117173 0.208887
Si Si7 0.435321 0.018363 0.482554
Si Si8 0.606232 0.370136 0.607806
O O1 0.917756 0.238070 0.635930
O O2 0.921331 0.128776 0.575439
O O3 0.931960 0.160500 0.793879
O O4 0.017849 0.169353 0.645381
O O5 0.628266 0.336709 0.282023
O O6 0.611321 0.324381 0.501090
O O7 0.686806 0.906463 0.126180
O O8 0.769789 0.892247 0.266035
O O9 0.667860 0.897840 0.347709
O O10 0.712523 0.000000 0.250000
O O11 0.664492 0.133873 0.574358
O O12 0.615525 0.028547 0.488985
O O13 0.857738 0.050959 0.305591
O O14 0.932700 0.033783 0.151924
O O15 0.430308 0.074957 0.561952
O O16 0.500000 0.000000 0.500000
#
# Coordination Sequence:
#
# PCOD8296315 Si02
#       8
#    16  16  16  16   8  16  16  16
#     4  10  26  43  69  91 137 172 222 279 332 403
#     4  11  25  44  66 101 125 178 225 278 332 394
#     4  11  22  43  65  96 134 175 218 271 337 411
#     4  10  23  41  63  95 126 176 214 267 338 401
#     4  10  22  36  52  98 122 166 206 258 328 390
#     4  11  23  40  67  92 128 169 225 269 324 402
#     4  11  22  35  61  95 137 165 207 274 336 413
#     4  11  24  42  66  99 132 177 223 270 343 400
#
# _framework density 20.091619999999999
#
# number of rings (size 3 to 8) (size 9 to 14) (size 15 to 20)
#    0.000    1.333    3.333    1.200    7.467    2.667 
#    2.400    2.667    5.867    0.000    0.000    0.000 
#    0.000    0.000    0.000    0.000    0.000    0.000 
#
# Total GULP energy -743361.855161 kJ/mol
# GULP energy per Si atom -12389.364253 kJ/mol
# Density = 2.004589 g / cm^3
# Si number density = 20.091620 Si / 1000 Ang^3
#
#
#
# Elastic Constant Matrix: (Units=GPa)
#
#
# Indices 1 2 3 4 5 6 
#
# 1 102.1646 31.1165 50.4255 0.0000 0.0000 0.0000
# 2 31.1165 88.4391 48.5545 0.0000 0.0000 0.0000
# 3 50.4255 48.5545 150.4335 0.0000 0.0000 0.0000
# 4 0.0000 0.0000 0.0000 33.5203 0.0000 0.0000
# 5 0.0000 0.0000 0.0000 0.0000 30.6198 0.0000
# 6 0.0000 0.0000 0.0000 0.0000 0.0000 18.5905
#
#
#
# Elastic Compliance Matrix: (Units=1/GPa)
#
#
# Indices 1 2 3 4 5 6 
#
# 1 0.012160 -0.002480 -0.003276 0.000000 0.000000 0.000000
# 2 -0.002480 0.014248 -0.003767 0.000000 0.000000 0.000000
# 3 -0.003276 -0.003767 0.008961 0.000000 0.000000 0.000000
# 4 0.000000 0.000000 0.000000 0.029833 0.000000 0.000000
# 5 0.000000 0.000000 0.000000 0.000000 0.032659 0.000000
# 6 0.000000 0.000000 0.000000 0.000000 0.000000 0.053791
#
#
# Mechanical properties :
#
#
# Convention : Reuss Voigt Hill
#
# Bulk Modulus (GPa) = 61.26139 66.80337 64.03238
# Shear Modulus (GPa) = 28.38655 30.60883 29.49769
#
# Velocity S-wave (km/s) = 3.76287 3.90739 3.83581
# Velocity P-wave (km/s) = 7.03109 7.32656 7.18034
#
# Compressibility (1/GPa) = 0.01632350
#
# Stress axis : x y z
#
# Youngs Moduli (GPa) = 82.23507 70.18414 111.58887
#
# Poissons Ratio (x) = 0.17406 0.36553
# Poissons Ratio (y) = 0.20395 0.42041
# Poissons Ratio (z) = 0.26937 0.26442
#
# Static dielectric constant tensor:
#      x y z
#    x 3.524600 0.000000 0.000000 
#    y 0.000000 3.628670 0.000000 
#    z 0.000000 0.000000 4.453370 
# 
# 
# High freq. dielectric constant tensor:
#      x y z
#    x 1.780850 0.000000 0.000000 
#    y 0.000000 1.780100 0.000000 
#    z 0.000000 0.000000 1.804260 
# 
# From -- ./inp_files/13859.got.cif
#   From: 2010.03.12/outbox.cif.g09.slc.cpg/sg73_7_cif.got.tgz:13859.got - 2010.04.16 15:25:48.
