data_PCOD8296609
_publ_section_title
;
Structure prediction by ZEFSAII (Michael W. Deem and Ramdas Pophale) SiO2 
 PCOD8296609
Probable space group: I B C A 
;
_chemical_formula_sum "Si O2"
_cell_formula_units_Z 48
_cell_length_a 14.872746
_cell_length_b 13.059240
_cell_length_c 11.643497
_cell_angle_alpha 90.000000
_cell_angle_beta 90.000000
_cell_angle_gamma 90.000000
_cell_volume 2261.478691
_symmetry_space_group_name_H-M "I B C A "
_symmetry_group_IT_number 73
_symmetry_cell_setting 'orthorhombic'
loop_
_space_group_symop_operation_xyz
x,y,z
-x,1/2-y,z
x,-y,1/2-z
1/2-x,y,-z
-x,-y,-z
x,1/2+y,-z
-x,y,1/2+z
1/2+x,-y,z
1/2+x,1/2+y,1/2+z
1/2-x,-y,1/2+z
1/2+x,1/2-y,-z
-x,1/2+y,1/2-z
1/2-x,1/2-y,1/2-z
1/2+x,y,1/2-z
1/2-x,1/2+y,z
x,1/2-y,1/2+z
loop_
_atom_site_type_symbol
_atom_site_label
_atom_site_fract_x
_atom_site_fract_y
_atom_site_fract_z
Si Si1 0.081296 0.065285 0.547647
Si Si2 0.197815 0.500000 0.250000
Si Si3 0.367091 0.897769 0.801738
Si Si4 0.500000 0.750000 0.185800
O O1 0.141911 0.097349 0.439348
O O2 0.047308 0.167276 0.607361
O O3 0.137157 0.994953 0.636141
O O4 0.000000 0.000000 0.500000
O O5 0.263947 0.399506 0.247157
O O6 0.422390 0.797999 0.765538
O O7 0.417161 0.000000 0.750000
#
# Coordination Sequence:
#
# PCOD8296609 Si02
#       4
#    16   8  16   8
#     4  12  22  43  71 101 142 183 237 298 351 430
#     4  10  24  44  72  98 150 182 236 304 354 412
#     4  10  23  44  66 106 138 185 237 291 354 416
#     4  12  24  42  74 104 136 194 244 278 372 422
#
# _framework density 21.225051000000001
#
# number of rings (size 3 to 8) (size 9 to 14) (size 15 to 20)
#    1.000    0.000    3.333    4.000    0.000    1.333 
#    0.000    3.333    0.000    0.000    0.000    0.000 
#    0.000    0.000    0.000    0.000    0.000    0.000 
#
# Total GULP energy -297482.837690 kJ/mol
# GULP energy per Si atom -12395.118237 kJ/mol
# Density = 2.117674 g / cm^3
# Si number density = 21.225051 Si / 1000 Ang^3
#
#
#
# Elastic Constant Matrix: (Units=GPa)
#
#
# Indices 1 2 3 4 5 6 
#
# 1 152.7838 61.8837 86.5740 0.0000 0.0000 0.0000
# 2 61.8837 91.2274 64.8069 0.0000 0.0000 0.0000
# 3 86.5740 64.8069 199.8938 0.0000 0.0000 0.0000
# 4 0.0000 0.0000 0.0000 41.1866 0.0000 0.0000
# 5 0.0000 0.0000 0.0000 0.0000 56.1943 0.0000
# 6 0.0000 0.0000 0.0000 0.0000 0.0000 48.9960
#
#
#
# Elastic Compliance Matrix: (Units=1/GPa)
#
#
# Indices 1 2 3 4 5 6 
#
# 1 0.010101 -0.004864 -0.002798 0.000000 0.000000 0.000000
# 2 -0.004864 0.016584 -0.003270 0.000000 0.000000 0.000000
# 3 -0.002798 -0.003270 0.007274 0.000000 0.000000 0.000000
# 4 0.000000 0.000000 0.000000 0.024280 0.000000 0.000000
# 5 0.000000 0.000000 0.000000 0.000000 0.017795 0.000000
# 6 0.000000 0.000000 0.000000 0.000000 0.000000 0.020410
#
#
# Mechanical properties :
#
#
# Convention : Reuss Voigt Hill
#
# Bulk Modulus (GPa) = 82.67475 96.71488 89.69482
# Shear Modulus (GPa) = 40.86966 44.65139 42.76053
#
# Velocity S-wave (km/s) = 4.39286 4.59160 4.49333
# Velocity P-wave (km/s) = 8.04771 8.58928 8.32290
#
# Compressibility (1/GPa) = 0.01209559
#
# Stress axis : x y z
#
# Youngs Moduli (GPa) = 99.00317 60.29788 137.46819
#
# Poissons Ratio (x) = 0.29331 0.38457
# Poissons Ratio (y) = 0.48159 0.44952
# Poissons Ratio (z) = 0.27696 0.19717
#
# Static dielectric constant tensor:
#      x y z
#    x 3.922140 0.000000 0.000000 
#    y 0.000000 3.257330 0.000000 
#    z 0.000000 0.000000 2.889590 
# 
# 
# High freq. dielectric constant tensor:
#      x y z
#    x 1.839180 0.000000 0.000000 
#    y 0.000000 1.807290 0.000000 
#    z 0.000000 0.000000 1.849260 
# 
# From -- ./inp_files/9300.got.cif
#   From: 2010.03.12/outbox.cif.g09.slc.cpg/sg73_5_cif.got.tgz:9300.got - 2010.04.16 15:25:48.
