data_PCOD8296735
_publ_section_title
;
Structure prediction by ZEFSAII (Michael W. Deem and Ramdas Pophale) SiO2 
 PCOD8296735
Probable space group: I B C A 
;
_chemical_formula_sum "Si O2"
_cell_formula_units_Z 112
_cell_length_a 10.612518
_cell_length_b 34.095672
_cell_length_c 13.951368
_cell_angle_alpha 90.000000
_cell_angle_beta 90.000000
_cell_angle_gamma 90.000000
_cell_volume 5048.176011
_symmetry_space_group_name_H-M "I B C A "
_symmetry_group_IT_number 73
_symmetry_cell_setting 'orthorhombic'
loop_
_space_group_symop_operation_xyz
x,y,z
-x,1/2-y,z
x,-y,1/2-z
1/2-x,y,-z
-x,-y,-z
x,1/2+y,-z
-x,y,1/2+z
1/2+x,-y,z
1/2+x,1/2+y,1/2+z
1/2-x,-y,1/2+z
1/2+x,1/2-y,-z
-x,1/2+y,1/2-z
1/2-x,1/2-y,1/2-z
1/2+x,y,1/2-z
1/2-x,1/2+y,z
x,1/2-y,1/2+z
loop_
_atom_site_type_symbol
_atom_site_label
_atom_site_fract_x
_atom_site_fract_y
_atom_site_fract_z
Si Si1 0.250000 0.575338 0.500000
Si Si2 0.633086 0.313950 0.866449
Si Si3 0.767674 0.540873 0.201559
Si Si4 0.109201 0.356329 0.369499
Si Si5 0.995952 0.881860 0.452209
Si Si6 0.515922 0.080823 0.763595
Si Si7 0.424063 0.712098 0.344670
Si Si8 0.250000 0.250206 0.500000
O O1 0.251556 0.544188 0.587595
O O2 0.140040 0.607696 0.494868
O O3 0.746467 0.344849 0.869892
O O4 0.509992 0.338306 0.902303
O O5 0.634150 0.301436 0.755893
O O6 0.654293 0.277303 0.938180
O O7 0.806904 0.500000 0.250000
O O8 0.636642 0.552682 0.253101
O O9 0.888815 0.568564 0.212005
O O10 0.064043 0.376775 0.272123
O O11 0.092453 0.385736 0.459363
O O12 0.020118 0.319083 0.389354
O O13 0.023727 0.915436 0.374273
O O14 0.500000 0.750000 0.314992
O O15 0.320997 0.721907 0.425436
#
# Coordination Sequence:
#
# PCOD8296735 Si02
#       8
#     8  16  16  16  16  16  16   8
#     4  10  24  45  76 111 140 186 244 284 348 433
#     4  12  24  45  70  99 139 188 240 305 364 430
#     4  11  24  48  73 108 151 188 232 291 357 432
#     4  12  24  43  69 101 139 182 244 294 361 424
#     4  11  22  43  70 101 137 180 236 299 345 417
#     4  11  24  44  73 107 143 189 238 296 354 425
#     4  12  27  46  68 101 139 192 238 304 369 430
#     4  12  26  45  64  97 142 182 246 298 366 439
#
# _framework density 22.186230999999999
#
# number of rings (size 3 to 8) (size 9 to 14) (size 15 to 20)
#    0.000    0.571    5.714    1.714    0.000    3.429 
#    2.571    2.143    0.000    0.000    0.000    0.000 
#    0.000    0.000    0.000    0.000    0.000    0.000 
#
# Total GULP energy -693897.104811 kJ/mol
# GULP energy per Si atom -12391.019729 kJ/mol
# Density = 2.213573 g / cm^3
# Si number density = 22.186231 Si / 1000 Ang^3
#
#
#
# Elastic Constant Matrix: (Units=GPa)
#
#
# Indices 1 2 3 4 5 6 
#
# 1 95.4192 35.4921 46.4336 0.0009 -0.0010 -0.0002
# 2 35.4921 84.5766 34.8347 0.0007 -0.0023 0.0000
# 3 46.4336 34.8347 130.9705 0.0069 0.0020 -0.0008
# 4 0.0009 0.0007 0.0069 39.4022 -0.0044 -0.0002
# 5 -0.0010 -0.0023 0.0020 -0.0044 -3.4333 0.0006
# 6 -0.0002 0.0000 -0.0008 -0.0002 0.0006 24.9706
#
#
#
# Elastic Compliance Matrix: (Units=1/GPa)
#
#
# Indices 1 2 3 4 5 6 
#
# 1 0.013919 -0.004277 -0.003797 0.000000 -0.000003 0.000000
# 2 -0.004277 0.014592 -0.002365 0.000000 -0.000010 0.000000
# 3 -0.003797 -0.002365 0.009611 -0.000002 0.000008 0.000000
# 4 0.000000 0.000000 -0.000002 0.025379 -0.000033 0.000000
# 5 -0.000003 -0.000010 0.000008 -0.000033 -0.291263 0.000007
# 6 0.000000 0.000000 0.000000 0.000000 0.000007 0.040047
#
#
# Mechanical properties :
#
#
# Convention : Reuss Voigt Hill
#
# Bulk Modulus (GPa) = 57.99205 60.49857 59.24531
# Shear Modulus (GPa) = -31.03863 25.13496 -2.95184
#
# Velocity S-wave (km/s) = -3.74438 3.36952 -1.15472
# Velocity P-wave (km/s) = 2.73891 6.51659 4.99838
#
# Compressibility (1/GPa) = 0.01724374
#
# Stress axis : x y z
#
# Youngs Moduli (GPa) = 71.84580 68.52869 104.05285
#
# Poissons Ratio (x) = 0.29310 0.39510
# Poissons Ratio (y) = 0.30728 0.24607
# Poissons Ratio (z) = 0.27281 0.16206
#
# Static dielectric constant tensor:
#      x y z
#    x 4.171850 0.000050 0.000000 
#    y 0.000050 3.174740 -0.000010 
#    z 0.000000 -0.000010 4.225870 
# 
# 
# High freq. dielectric constant tensor:
#      x y z
#    x 1.877790 0.000000 0.000000 
#    y 0.000000 1.850930 0.000000 
#    z 0.000000 0.000000 1.898650 
# 
# From -- ./inp_files/16387.got.cif
#   From: 2010.03.12/outbox.cif.g09.slc.cpg/sg73_9_cif.got.tgz:16387.got - 2010.04.16 15:25:48.
