data_PCOD8296394
_publ_section_title
;
Structure prediction by ZEFSAII (Michael W. Deem and Ramdas Pophale) SiO2 
 PCOD8296394
Probable space group: I B C A 
;
_chemical_formula_sum "Si O2"
_cell_formula_units_Z 120
_cell_length_a 17.252673
_cell_length_b 11.882984
_cell_length_c 25.749668
_cell_angle_alpha 90.000000
_cell_angle_beta 90.000000
_cell_angle_gamma 90.000000
_cell_volume 5279.022794
_symmetry_space_group_name_H-M "I B C A "
_symmetry_group_IT_number 73
_symmetry_cell_setting 'orthorhombic'
loop_
_space_group_symop_operation_xyz
x,y,z
-x,1/2-y,z
x,-y,1/2-z
1/2-x,y,-z
-x,-y,-z
x,1/2+y,-z
-x,y,1/2+z
1/2+x,-y,z
1/2+x,1/2+y,1/2+z
1/2-x,-y,1/2+z
1/2+x,1/2-y,-z
-x,1/2+y,1/2-z
1/2-x,1/2-y,1/2-z
1/2+x,y,1/2-z
1/2-x,1/2+y,z
x,1/2-y,1/2+z
loop_
_atom_site_type_symbol
_atom_site_label
_atom_site_fract_x
_atom_site_fract_y
_atom_site_fract_z
Si Si1 0.338450 0.005596 0.096461
Si Si2 0.807586 0.500000 0.250000
Si Si3 0.419708 0.946741 0.306642
Si Si4 0.094704 0.431682 0.839576
Si Si5 0.722220 0.686316 0.300109
Si Si6 0.665225 0.700962 0.024368
Si Si7 0.314633 0.378418 0.389296
Si Si8 0.910291 0.749302 0.579117
O O1 0.374143 0.971372 0.152928
O O2 0.246033 0.023005 0.096019
O O3 0.376291 0.124938 0.081864
O O4 0.358823 0.909882 0.055747
O O5 0.860194 0.585912 0.215413
O O6 0.752330 0.558806 0.291435
O O7 0.503814 0.919946 0.328987
O O8 0.371264 0.827116 0.305622
O O9 0.425123 0.000000 0.250000
O O10 0.112664 0.557753 0.862075
O O11 0.126669 0.335395 0.878369
O O12 0.750000 0.750000 0.250000
O O13 0.769579 0.715945 0.352928
O O14 0.656563 0.811646 0.060245
O O15 0.750000 0.694469 0.000000
O O16 0.603504 0.704628 0.978457
O O17 0.000000 0.750000 0.590507
#
# Coordination Sequence:
#
# PCOD8296394 Si02
#       8
#    16   8  16  16  16  16  16  16
#     4  11  26  47  72 107 142 191 246 305 372 450
#     4  10  22  40  66 102 138 180 242 294 368 432
#     4  11  23  45  72 103 146 193 235 299 374 447
#     4  11  24  44  71 105 147 187 241 310 361 452
#     4  10  23  39  69 100 138 185 238 297 361 446
#     4  12  27  45  75 104 145 188 249 310 369 445
#     4  10  25  44  69 108 140 185 245 304 365 434
#     4  12  27  45  73 103 143 194 241 304 380 440
#
# _framework density 22.731480000000001
#
# number of rings (size 3 to 8) (size 9 to 14) (size 15 to 20)
#    0.000    1.067    4.000    0.800    9.333    1.600 
#    0.000    0.000    0.000    0.000    0.000    0.000 
#    0.000    0.000    0.000    0.000    0.000    0.000 
#
# Total GULP energy -743627.210391 kJ/mol
# GULP energy per Si atom -12393.786840 kJ/mol
# Density = 2.267974 g / cm^3
# Si number density = 22.731480 Si / 1000 Ang^3
#
#
#
# Elastic Constant Matrix: (Units=GPa)
#
#
# Indices 1 2 3 4 5 6 
#
# 1 104.6409 31.2776 25.1401 0.0000 0.0000 0.0000
# 2 31.2776 83.0397 53.0179 0.0000 0.0000 0.0000
# 3 25.1401 53.0179 153.7205 0.0000 0.0000 0.0000
# 4 0.0000 0.0000 0.0000 50.2712 0.0000 0.0000
# 5 0.0000 0.0000 0.0000 0.0000 38.1889 0.0000
# 6 0.0000 0.0000 0.0000 0.0000 0.0000 22.2934
#
#
#
# Elastic Compliance Matrix: (Units=1/GPa)
#
#
# Indices 1 2 3 4 5 6 
#
# 1 0.010795 -0.003769 -0.000466 0.000000 0.000000 0.000000
# 2 -0.003769 0.016759 -0.005164 0.000000 0.000000 0.000000
# 3 -0.000466 -0.005164 0.008362 0.000000 0.000000 0.000000
# 4 0.000000 0.000000 0.000000 0.019892 0.000000 0.000000
# 5 0.000000 0.000000 0.000000 0.000000 0.026186 0.000000
# 6 0.000000 0.000000 0.000000 0.000000 0.000000 0.044856
#
#
# Mechanical properties :
#
#
# Convention : Reuss Voigt Hill
#
# Bulk Modulus (GPa) = 58.41125 62.25248 60.33187
# Shear Modulus (GPa) = 33.03540 37.61507 35.32524
#
# Velocity S-wave (km/s) = 3.81634 4.07228 3.94639
# Velocity P-wave (km/s) = 6.72095 7.03966 6.88215
#
# Compressibility (1/GPa) = 0.01711999
#
# Stress axis : x y z
#
# Youngs Moduli (GPa) = 92.63690 59.67015 119.58253
#
# Poissons Ratio (x) = 0.22488 0.05568
# Poissons Ratio (y) = 0.34912 0.61749
# Poissons Ratio (z) = 0.04313 0.30812
#
# Static dielectric constant tensor:
#      x y z
#    x 4.344270 0.000000 0.000000 
#    y 0.000000 4.305620 0.000000 
#    z 0.000000 0.000000 4.659750 
# 
# 
# High freq. dielectric constant tensor:
#      x y z
#    x 1.893600 0.000000 0.000000 
#    y 0.000000 1.882150 0.000000 
#    z 0.000000 0.000000 1.923020 
# 
# From -- ./inp_files/32455.got.cif
#   From: 2010.03.12/outbox.cif.g09.slc.cpg/sg73_17_cif.got.tgz:32455.got - 2010.04.16 15:25:48.
