data_PCOD8296186
_publ_section_title
;
Structure prediction by ZEFSAII (Michael W. Deem and Ramdas Pophale) SiO2 
 PCOD8296186
Probable space group: I B C A 
;
_chemical_formula_sum "Si O2"
_cell_formula_units_Z 88
_cell_length_a 21.852214
_cell_length_b 10.725720
_cell_length_c 17.986120
_cell_angle_alpha 90.000000
_cell_angle_beta 90.000000
_cell_angle_gamma 90.000000
_cell_volume 4215.599913
_symmetry_space_group_name_H-M "I B C A "
_symmetry_group_IT_number 73
_symmetry_cell_setting 'orthorhombic'
loop_
_space_group_symop_operation_xyz
x,y,z
-x,1/2-y,z
x,-y,1/2-z
1/2-x,y,-z
-x,-y,-z
x,1/2+y,-z
-x,y,1/2+z
1/2+x,-y,z
1/2+x,1/2+y,1/2+z
1/2-x,-y,1/2+z
1/2+x,1/2-y,-z
-x,1/2+y,1/2-z
1/2-x,1/2-y,1/2-z
1/2+x,y,1/2-z
1/2-x,1/2+y,z
x,1/2-y,1/2+z
loop_
_atom_site_type_symbol
_atom_site_label
_atom_site_fract_x
_atom_site_fract_y
_atom_site_fract_z
Si Si1 0.900982 0.886549 0.796100
Si Si2 0.198367 0.509704 0.159984
Si Si3 0.279364 0.261315 0.328744
Si Si4 0.000000 0.250000 0.802301
Si Si5 0.027670 0.876563 0.433903
Si Si6 0.429483 0.577369 0.914829
O O1 0.850962 0.785211 0.817893
O O2 0.929015 0.940212 0.872250
O O3 0.953855 0.826985 0.747470
O O4 0.870184 0.000000 0.750000
O O5 0.188063 0.500000 0.250000
O O6 0.244639 0.620703 0.133386
O O7 0.225584 0.375270 0.131606
O O8 0.136290 0.536929 0.115426
O O9 0.250000 0.250000 0.250000
O O10 0.038086 0.153649 0.850623
O O11 0.069015 0.844888 0.507579
O O12 0.000000 0.750000 0.401148
O O13 0.967650 0.959776 0.444129
#
# Coordination Sequence:
#
# PCOD8296186 Si02
#       6
#    16  16  16   8  16  16
#     4  12  23  36  64  95 126 166 217 268 319 389
#     4  10  21  39  66  90 125 166 214 263 316 379
#     4  10  21  39  61  93 125 161 210 268 319 367
#     4  12  22  36  62  98 126 162 214 258 320 390
#     4  11  23  41  59  90 135 166 206 257 328 387
#     4  11  24  40  60  92 130 169 202 262 327 386
#
# _framework density 20.874846999999999
#
# number of rings (size 3 to 8) (size 9 to 14) (size 15 to 20)
#    0.000    1.091    3.636    4.909    2.545    0.000 
#    0.000    0.909    0.000    4.364    0.000    0.000 
#    0.000    0.000    0.000    0.000    0.000    0.000 
#
# Total GULP energy -545159.152363 kJ/mol
# GULP energy per Si atom -12389.980736 kJ/mol
# Density = 2.082734 g / cm^3
# Si number density = 20.874847 Si / 1000 Ang^3
#
#
#
# Elastic Constant Matrix: (Units=GPa)
#
#
# Indices 1 2 3 4 5 6 
#
# 1 103.8033 51.7348 47.4592 0.0000 0.0000 0.0000
# 2 51.7348 138.7375 20.3040 0.0000 0.0000 0.0000
# 3 47.4592 20.3040 90.1593 0.0000 0.0000 0.0000
# 4 0.0000 0.0000 0.0000 16.5797 0.0000 0.0000
# 5 0.0000 0.0000 0.0000 0.0000 20.9735 0.0000
# 6 0.0000 0.0000 0.0000 0.0000 0.0000 22.4432
#
#
#
# Elastic Compliance Matrix: (Units=1/GPa)
#
#
# Indices 1 2 3 4 5 6 
#
# 1 0.015091 -0.004617 -0.006904 0.000000 0.000000 0.000000
# 2 -0.004617 0.008866 0.000434 0.000000 0.000000 0.000000
# 3 -0.006904 0.000434 0.014628 0.000000 0.000000 0.000000
# 4 0.000000 0.000000 0.000000 0.060315 0.000000 0.000000
# 5 0.000000 0.000000 0.000000 0.000000 0.047679 0.000000
# 6 0.000000 0.000000 0.000000 0.000000 0.000000 0.044557
#
#
# Mechanical properties :
#
#
# Convention : Reuss Voigt Hill
#
# Bulk Modulus (GPa) = 60.93673 63.52178 62.22926
# Shear Modulus (GPa) = 22.85386 26.21277 24.53332
#
# Velocity S-wave (km/s) = 3.31237 3.54745 3.43192
# Velocity P-wave (km/s) = 6.62449 6.87568 6.75126
#
# Compressibility (1/GPa) = 0.01641046
#
# Stress axis : x y z
#
# Youngs Moduli (GPa) = 66.26310 112.78940 68.36147
#
# Poissons Ratio (x) = 0.52076 0.47198
# Poissons Ratio (y) = 0.30594 -0.02965
# Poissons Ratio (z) = 0.45749 -0.04892
#
# Static dielectric constant tensor:
#      x y z
#    x 3.829910 0.000000 0.000000 
#    y 0.000000 4.518640 0.000000 
#    z 0.000000 0.000000 3.712320 
# 
# 
# High freq. dielectric constant tensor:
#      x y z
#    x 1.813660 0.000000 0.000000 
#    y 0.000000 1.834610 0.000000 
#    z 0.000000 0.000000 1.797130 
# 
# From -- ./inp_files/11864.got.cif
#   From: 2010.03.12/outbox.cif.g09.slc.cpg/sg73_6_cif.got.tgz:11864.got - 2010.04.16 15:25:48.
