data_PCOD8296179
_publ_section_title
;
Structure prediction by ZEFSAII (Michael W. Deem and Ramdas Pophale) SiO2 
 PCOD8296179
Probable space group: I B C A 
;
_chemical_formula_sum "Si O2"
_cell_formula_units_Z 96
_cell_length_a 13.641751
_cell_length_b 21.456916
_cell_length_c 15.153531
_cell_angle_alpha 90.000000
_cell_angle_beta 90.000000
_cell_angle_gamma 90.000000
_cell_volume 4435.588624
_symmetry_space_group_name_H-M "I B C A "
_symmetry_group_IT_number 73
_symmetry_cell_setting 'orthorhombic'
loop_
_space_group_symop_operation_xyz
x,y,z
-x,1/2-y,z
x,-y,1/2-z
1/2-x,y,-z
-x,-y,-z
x,1/2+y,-z
-x,y,1/2+z
1/2+x,-y,z
1/2+x,1/2+y,1/2+z
1/2-x,-y,1/2+z
1/2+x,1/2-y,-z
-x,1/2+y,1/2-z
1/2-x,1/2-y,1/2-z
1/2+x,y,1/2-z
1/2-x,1/2+y,z
x,1/2-y,1/2+z
loop_
_atom_site_type_symbol
_atom_site_label
_atom_site_fract_x
_atom_site_fract_y
_atom_site_fract_z
Si Si1 0.250000 0.280825 0.000000
Si Si2 0.256458 0.674740 0.867439
Si Si3 0.423082 0.494814 0.924269
Si Si4 0.556808 0.358644 0.460767
Si Si5 0.961551 0.114649 0.348101
Si Si6 0.445449 0.811040 0.703109
Si Si7 0.750000 0.927419 0.000000
O O1 0.283942 0.237140 0.080129
O O2 0.157529 0.322424 0.025556
O O3 0.357262 0.647825 0.827310
O O4 0.173051 0.694575 0.796795
O O5 0.206426 0.619435 0.925918
O O6 0.412144 0.421406 0.906334
O O7 0.454460 0.538829 0.841708
O O8 0.325715 0.525761 0.959458
O O9 0.500000 0.500000 0.000000
O O10 0.500748 0.367918 0.553703
O O11 0.484862 0.321177 0.396181
O O12 0.035301 0.133227 0.271265
O O13 0.500000 0.750000 0.741513
#
# Coordination Sequence:
#
# PCOD8296179 Si02
#       7
#     8  16  16  16  16  16   8
#     4  11  21  36  64  94 129 171 204 266 322 383
#     4  10  21  39  61  89 130 168 211 259 326 384
#     4   9  18  38  62  90 122 161 211 257 314 379
#     4  11  23  40  64  95 129 167 214 265 322 380
#     4  10  25  41  66  90 125 173 210 267 323 384
#     4  12  25  40  62  96 128 168 218 263 319 392
#     4   9  17  36  66  92 119 169 208 258 318 389
#
# _framework density 21.643125000000001
#
# number of rings (size 3 to 8) (size 9 to 14) (size 15 to 20)
#    0.000    1.667    1.667    4.500    2.333    2.667 
#    0.000    0.000    0.000    6.000    0.000    0.000 
#    0.000    0.000    0.000    0.000    0.000    0.000 
#
# Total GULP energy -594733.950146 kJ/mol
# GULP energy per Si atom -12390.290628 kJ/mol
# Density = 2.159386 g / cm^3
# Si number density = 21.643125 Si / 1000 Ang^3
#
#
#
# Elastic Constant Matrix: (Units=GPa)
#
#
# Indices 1 2 3 4 5 6 
#
# 1 94.6742 44.3097 20.9965 -0.0001 0.0001 0.0001
# 2 44.3097 124.9236 13.1423 0.0004 -0.0001 0.0001
# 3 20.9965 13.1423 66.6480 0.0006 -0.0003 0.0001
# 4 -0.0001 0.0004 0.0006 17.9989 -0.0002 0.0001
# 5 0.0001 -0.0001 -0.0003 -0.0002 21.6691 0.0001
# 6 0.0001 0.0001 0.0001 0.0001 0.0001 31.6035
#
#
#
# Elastic Compliance Matrix: (Units=1/GPa)
#
#
# Indices 1 2 3 4 5 6 
#
# 1 0.013357 -0.004386 -0.003343 0.000000 0.000000 0.000000
# 2 -0.004386 0.009615 -0.000514 0.000000 0.000000 0.000000
# 3 -0.003343 -0.000514 0.016159 -0.000001 0.000000 0.000000
# 4 0.000000 0.000000 -0.000001 0.055559 0.000000 0.000000
# 5 0.000000 0.000000 0.000000 0.000000 0.046149 0.000000
# 6 0.000000 0.000000 0.000000 0.000000 0.000000 0.031642
#
#
# Mechanical properties :
#
#
# Convention : Reuss Voigt Hill
#
# Bulk Modulus (GPa) = 44.16187 49.23808 46.69997
# Shear Modulus (GPa) = 25.44352 28.10745 26.77548
#
# Velocity S-wave (km/s) = 3.43241 3.60763 3.52111
# Velocity P-wave (km/s) = 6.01311 6.33661 6.17698
#
# Compressibility (1/GPa) = 0.02264397
#
# Stress axis : x y z
#
# Youngs Moduli (GPa) = 74.86941 104.00837 61.88596
#
# Poissons Ratio (x) = 0.45616 0.20688
# Poissons Ratio (y) = 0.32836 0.03182
# Poissons Ratio (z) = 0.25029 0.05348
#
# Static dielectric constant tensor:
#      x y z
#    x 3.706670 0.000000 0.000000 
#    y 0.000000 4.877640 0.000000 
#    z 0.000000 0.000000 3.580700 
# 
# 
# High freq. dielectric constant tensor:
#      x y z
#    x 1.856550 0.000000 0.000000 
#    y 0.000000 1.868710 0.000000 
#    z 0.000000 0.000000 1.822340 
# 
# From -- ./inp_files/17123.got.cif
#   From: 2010.03.12/outbox.cif.g09.slc.cpg/sg73_9_cif.got.tgz:17123.got - 2010.04.16 15:25:48.
