data_PCOD8296521
_publ_section_title
;
Structure prediction by ZEFSAII (Michael W. Deem and Ramdas Pophale) SiO2 
 PCOD8296521
Probable space group: I B C A 
;
_chemical_formula_sum "Si O2"
_cell_formula_units_Z 88
_cell_length_a 10.874567
_cell_length_b 14.623860
_cell_length_c 24.748102
_cell_angle_alpha 90.000000
_cell_angle_beta 90.000000
_cell_angle_gamma 90.000000
_cell_volume 3935.644762
_symmetry_space_group_name_H-M "I B C A "
_symmetry_group_IT_number 73
_symmetry_cell_setting 'orthorhombic'
loop_
_space_group_symop_operation_xyz
x,y,z
-x,1/2-y,z
x,-y,1/2-z
1/2-x,y,-z
-x,-y,-z
x,1/2+y,-z
-x,y,1/2+z
1/2+x,-y,z
1/2+x,1/2+y,1/2+z
1/2-x,-y,1/2+z
1/2+x,1/2-y,-z
-x,1/2+y,1/2-z
1/2-x,1/2-y,1/2-z
1/2+x,y,1/2-z
1/2-x,1/2+y,z
x,1/2-y,1/2+z
loop_
_atom_site_type_symbol
_atom_site_label
_atom_site_fract_x
_atom_site_fract_y
_atom_site_fract_z
Si Si1 0.303803 0.554382 0.351970
Si Si2 0.784912 0.643517 0.386237
Si Si3 0.158443 0.000000 0.750000
Si Si4 0.842307 0.398701 0.542187
Si Si5 0.750000 0.928122 0.000000
Si Si6 0.000000 0.250000 0.085284
Si Si7 0.459603 0.152392 0.179785
O O1 0.340105 0.449623 0.362878
O O2 0.239909 0.555232 0.293311
O O3 0.213682 0.592064 0.397720
O O4 0.427008 0.613694 0.354561
O O5 0.778097 0.638411 0.450882
O O6 0.885036 0.723434 0.376056
O O7 0.655456 0.669726 0.359777
O O8 0.072180 0.921654 0.725129
O O9 0.750000 0.347488 0.500000
O O10 0.862525 0.502067 0.517960
O O11 0.965135 0.337800 0.547614
O O12 0.500000 0.250000 0.205395
#
# Coordination Sequence:
#
# PCOD8296521 Si02
#       7
#    16  16   8  16   8   8  16
#     4  10  22  45  70  98 139 178 242 281 354 430
#     4  10  24  40  67  98 136 187 228 285 356 411
#     4  10  24  44  74 106 136 186 230 292 366 408
#     4   9  22  42  62  99 132 186 231 287 350 411
#     4   8  20  42  58  88 134 184 232 270 348 420
#     4  12  24  38  62 100 140 176 234 296 338 420
#     4  11  24  46  73 107 138 184 233 297 349 425
#
# _framework density 22.359742000000001
#
# number of rings (size 3 to 8) (size 9 to 14) (size 15 to 20)
#    0.545    1.455    0.000    1.636    8.909    2.909 
#    4.909    0.000    0.000    0.000    0.000    0.000 
#    0.000    0.000    0.000    0.000    0.000    0.000 
#
# Total GULP energy -545227.534748 kJ/mol
# GULP energy per Si atom -12391.534881 kJ/mol
# Density = 2.230885 g / cm^3
# Si number density = 22.359742 Si / 1000 Ang^3
#
#
#
# Elastic Constant Matrix: (Units=GPa)
#
#
# Indices 1 2 3 4 5 6 
#
# 1 102.4887 62.4893 42.9138 0.0000 0.0000 0.0000
# 2 62.4893 115.7357 33.6812 0.0000 0.0000 0.0000
# 3 42.9138 33.6812 128.9829 0.0000 0.0000 0.0000
# 4 0.0000 0.0000 0.0000 21.7725 0.0000 0.0000
# 5 0.0000 0.0000 0.0000 0.0000 15.6626 0.0000
# 6 0.0000 0.0000 0.0000 0.0000 0.0000 52.2691
#
#
#
# Elastic Compliance Matrix: (Units=1/GPa)
#
#
# Indices 1 2 3 4 5 6 
#
# 1 0.015719 -0.007538 -0.003261 0.000000 0.000000 0.000000
# 2 -0.007538 0.012966 -0.000878 0.000000 0.000000 0.000000
# 3 -0.003261 -0.000878 0.009067 0.000000 0.000000 0.000000
# 4 0.000000 0.000000 0.000000 0.045929 0.000000 0.000000
# 5 0.000000 0.000000 0.000000 0.000000 0.063846 0.000000
# 6 0.000000 0.000000 0.000000 0.000000 0.000000 0.019132
#
#
# Mechanical properties :
#
#
# Convention : Reuss Voigt Hill
#
# Bulk Modulus (GPa) = 69.45614 69.48619 69.47117
# Shear Modulus (GPa) = 25.66564 31.81572 28.74068
#
# Velocity S-wave (km/s) = 3.39167 3.77623 3.58910
# Velocity P-wave (km/s) = 6.81677 7.08217 6.95074
#
# Compressibility (1/GPa) = 0.01439758
#
# Stress axis : x y z
#
# Youngs Moduli (GPa) = 63.61807 77.12593 110.28661
#
# Poissons Ratio (x) = 0.58137 0.35969
# Poissons Ratio (y) = 0.47955 0.09681
# Poissons Ratio (z) = 0.20748 0.06770
#
# Static dielectric constant tensor:
#      x y z
#    x 3.844690 0.000000 0.000000 
#    y 0.000000 4.183350 0.000000 
#    z 0.000000 0.000000 3.931710 
# 
# 
# High freq. dielectric constant tensor:
#      x y z
#    x 1.870790 0.000000 0.000000 
#    y 0.000000 1.890330 0.000000 
#    z 0.000000 0.000000 1.868310 
# 
# From -- ./inp_files/31721.got.cif
#   From: 2010.03.12/outbox.cif.g09.slc.cpg/sg73_16_cif.got.tgz:31721.got - 2010.04.16 15:25:48.
