data_PCOD8296071
_publ_section_title
;
Structure prediction by ZEFSAII (Michael W. Deem and Ramdas Pophale) SiO2 
 PCOD8296071
Probable space group: I B C A 
;
_chemical_formula_sum "Si O2"
_cell_formula_units_Z 104
_cell_length_a 28.185321
_cell_length_b 20.920406
_cell_length_c 8.183267
_cell_angle_alpha 90.000000
_cell_angle_beta 90.000000
_cell_angle_gamma 90.000000
_cell_volume 4825.249954
_symmetry_space_group_name_H-M "I B C A "
_symmetry_group_IT_number 73
_symmetry_cell_setting 'orthorhombic'
loop_
_space_group_symop_operation_xyz
x,y,z
-x,1/2-y,z
x,-y,1/2-z
1/2-x,y,-z
-x,-y,-z
x,1/2+y,-z
-x,y,1/2+z
1/2+x,-y,z
1/2+x,1/2+y,1/2+z
1/2-x,-y,1/2+z
1/2+x,1/2-y,-z
-x,1/2+y,1/2-z
1/2-x,1/2-y,1/2-z
1/2+x,y,1/2-z
1/2-x,1/2+y,z
x,1/2-y,1/2+z
loop_
_atom_site_type_symbol
_atom_site_label
_atom_site_fract_x
_atom_site_fract_y
_atom_site_fract_z
Si Si1 0.193814 0.598094 0.483963
Si Si2 0.142891 0.790713 0.829452
Si Si3 0.611621 0.425529 0.728165
Si Si4 0.215516 0.000000 0.750000
Si Si5 0.943047 0.179609 0.940272
Si Si6 0.000000 0.750000 0.318730
Si Si7 0.250000 0.906757 0.500000
Si Si8 0.651945 0.662074 0.524107
O O1 0.250000 0.590841 0.500000
O O2 0.185402 0.665442 0.396044
O O3 0.162897 0.587845 0.646173
O O4 0.179353 0.538840 0.366627
O O5 0.101127 0.795655 0.959210
O O6 0.129711 0.810808 0.644678
O O7 0.157964 0.716514 0.835921
O O8 0.599521 0.500000 0.750000
O O9 0.568659 0.392250 0.623970
O O10 0.616533 0.392531 0.906532
O O11 0.251281 0.951765 0.658652
O O12 0.986684 0.187951 0.068399
O O13 0.954683 0.226387 0.786918
O O14 0.295938 0.863231 0.489603
#
# Coordination Sequence:
#
# PCOD8296071 Si02
#       8
#    16  16  16   8  16   8   8  16
#     4  11  23  38  63  86 127 178 230 277 319 386
#     4  11  24  42  63  96 133 165 219 279 343 389
#     4  11  25  43  63  93 138 181 223 277 333 392
#     4  12  22  40  56  84 120 168 236 280 308 380
#     4  10  22  42  71 105 130 167 211 270 339 416
#     4  10  20  42  80 104 128 164 214 268 346 432
#     4  12  26  38  60  86 122 184 240 280 322 378
#     4  12  25  40  62  91 129 180 223 283 330 382
#
# _framework density 21.553287000000001
#
# number of rings (size 3 to 8) (size 9 to 14) (size 15 to 20)
#    0.000    0.923    2.308    5.538    3.231    1.846 
#    0.000    0.769    0.000    0.000    0.000    0.000 
#    0.000    0.000    0.000    0.000    0.000    0.000 
#
# Total GULP energy -644423.275495 kJ/mol
# GULP energy per Si atom -12392.755298 kJ/mol
# Density = 2.150423 g / cm^3
# Si number density = 21.553287 Si / 1000 Ang^3
#
#
#
# Elastic Constant Matrix: (Units=GPa)
#
#
# Indices 1 2 3 4 5 6 
#
# 1 81.4582 45.9778 44.9654 0.0000 0.0000 0.0000
# 2 45.9778 164.1950 71.9396 0.0000 0.0000 0.0000
# 3 44.9654 71.9396 139.1694 0.0000 0.0000 0.0000
# 4 0.0000 0.0000 0.0000 43.2114 0.0000 0.0000
# 5 0.0000 0.0000 0.0000 0.0000 23.7835 0.0000
# 6 0.0000 0.0000 0.0000 0.0000 0.0000 25.1062
#
#
#
# Elastic Compliance Matrix: (Units=1/GPa)
#
#
# Indices 1 2 3 4 5 6 
#
# 1 0.015908 -0.002848 -0.003668 0.000000 0.000000 0.000000
# 2 -0.002848 0.008383 -0.003413 0.000000 0.000000 0.000000
# 3 -0.003668 -0.003413 0.010135 0.000000 0.000000 0.000000
# 4 0.000000 0.000000 0.000000 0.023142 0.000000 0.000000
# 5 0.000000 0.000000 0.000000 0.000000 0.042046 0.000000
# 6 0.000000 0.000000 0.000000 0.000000 0.000000 0.039831
#
#
# Mechanical properties :
#
#
# Convention : Reuss Voigt Hill
#
# Bulk Modulus (GPa) = 68.64056 78.95424 73.79740
# Shear Modulus (GPa) = 30.45819 33.21621 31.83720
#
# Velocity S-wave (km/s) = 3.76328 3.92997 3.84753
# Velocity P-wave (km/s) = 7.12735 7.56997 7.35199
#
# Compressibility (1/GPa) = 0.01456865
#
# Stress axis : x y z
#
# Youngs Moduli (GPa) = 62.86055 119.28578 98.66729
#
# Poissons Ratio (x) = 0.33967 0.36191
# Poissons Ratio (y) = 0.17900 0.33679
# Poissons Ratio (z) = 0.23057 0.40717
#
# Static dielectric constant tensor:
#      x y z
#    x 3.653810 0.000000 0.000000 
#    y 0.000000 4.212760 0.000000 
#    z 0.000000 0.000000 4.423850 
# 
# 
# High freq. dielectric constant tensor:
#      x y z
#    x 1.813820 0.000000 0.000000 
#    y 0.000000 1.845490 0.000000 
#    z 0.000000 0.000000 1.872520 
# 
# From -- ./inp_files/7922.got.cif
#   From: 2010.03.12/outbox.cif.g09.slc.cpg/sg73_4_cif.got.tgz:7922.got - 2010.04.16 15:25:48.
