data_PCOD8296554
_publ_section_title
;
Structure prediction by ZEFSAII (Michael W. Deem and Ramdas Pophale) SiO2 
 PCOD8296554
Probable space group: I B C A 
;
_chemical_formula_sum "Si O2"
_cell_formula_units_Z 112
_cell_length_a 30.595604
_cell_length_b 10.829460
_cell_length_c 16.071700
_cell_angle_alpha 90.000000
_cell_angle_beta 90.000000
_cell_angle_gamma 90.000000
_cell_volume 5325.098554
_symmetry_space_group_name_H-M "I B C A "
_symmetry_group_IT_number 73
_symmetry_cell_setting 'orthorhombic'
loop_
_space_group_symop_operation_xyz
x,y,z
-x,1/2-y,z
x,-y,1/2-z
1/2-x,y,-z
-x,-y,-z
x,1/2+y,-z
-x,y,1/2+z
1/2+x,-y,z
1/2+x,1/2+y,1/2+z
1/2-x,-y,1/2+z
1/2+x,1/2-y,-z
-x,1/2+y,1/2-z
1/2-x,1/2-y,1/2-z
1/2+x,y,1/2-z
1/2-x,1/2+y,z
x,1/2-y,1/2+z
loop_
_atom_site_type_symbol
_atom_site_label
_atom_site_fract_x
_atom_site_fract_y
_atom_site_fract_z
Si Si1 0.875395 0.539974 0.447233
Si Si2 0.500000 0.750000 0.774935
Si Si3 0.884355 0.028093 0.371491
Si Si4 0.459746 0.500000 0.750000
Si Si5 0.296597 0.139841 0.532194
Si Si6 0.418713 0.394097 0.182835
Si Si7 0.169087 0.257339 0.306213
Si Si8 0.160869 0.231038 0.625905
O O1 0.891998 0.584486 0.536936
O O2 0.828417 0.475770 0.460934
O O3 0.912093 0.450736 0.408968
O O4 0.870637 0.651207 0.382207
O O5 0.487154 0.624016 0.724069
O O6 0.542163 0.704944 0.827449
O O7 0.845898 0.104086 0.326813
O O8 0.930606 0.041186 0.327426
O O9 0.870531 0.886316 0.371938
O O10 0.250000 0.089579 0.500000
O O11 0.297183 0.209087 0.622638
O O12 0.189921 0.232683 0.542323
O O13 0.429580 0.500000 0.250000
O O14 0.373473 0.327346 0.204410
O O15 0.189420 0.259143 0.212018
#
# Coordination Sequence:
#
# PCOD8296554 Si02
#       8
#    16   8  16   8  16  16  16  16
#     4  10  23  40  65  91 123 171 220 268 325 404
#     4  12  24  38  64  98 134 168 214 284 344 384
#     4  11  21  39  64  94 123 166 220 270 323 393
#     4  12  24  40  66  94 132 176 216 280 340 400
#     4  10  24  40  60  94 132 167 208 275 335 383
#     4  11  21  39  64  90 125 170 219 263 324 397
#     4  11  20  39  67  91 122 171 224 264 315 403
#     4  11  20  37  66  93 121 171 224 266 323 395
#
# _framework density 21.032475000000002
#
# number of rings (size 3 to 8) (size 9 to 14) (size 15 to 20)
#    0.000    1.143    6.429    0.000    0.000    1.143 
#    0.000    1.429    6.286    0.000    0.000    0.000 
#    0.000    0.000    0.000    0.000    0.000    0.000 
#
# Total GULP energy -693799.560588 kJ/mol
# GULP energy per Si atom -12389.277868 kJ/mol
# Density = 2.098460 g / cm^3
# Si number density = 21.032475 Si / 1000 Ang^3
#
#
#
# Elastic Constant Matrix: (Units=GPa)
#
#
# Indices 1 2 3 4 5 6 
#
# 1 77.2309 29.3914 26.8359 0.0000 0.0000 0.0000
# 2 29.3914 118.8214 36.5832 0.0000 0.0000 0.0000
# 3 26.8359 36.5832 167.5360 0.0000 0.0000 0.0000
# 4 0.0000 0.0000 0.0000 29.6179 0.0000 0.0000
# 5 0.0000 0.0000 0.0000 0.0000 14.2572 0.0000
# 6 0.0000 0.0000 0.0000 0.0000 0.0000 16.1434
#
#
#
# Elastic Compliance Matrix: (Units=1/GPa)
#
#
# Indices 1 2 3 4 5 6 
#
# 1 0.014720 -0.003125 -0.001675 0.000000 0.000000 0.000000
# 2 -0.003125 0.009686 -0.001614 0.000000 0.000000 0.000000
# 3 -0.001675 -0.001614 0.006590 0.000000 0.000000 0.000000
# 4 0.000000 0.000000 0.000000 0.033763 0.000000 0.000000
# 5 0.000000 0.000000 0.000000 0.000000 0.070140 0.000000
# 6 0.000000 0.000000 0.000000 0.000000 0.000000 0.061945
#
#
# Mechanical properties :
#
#
# Convention : Reuss Voigt Hill
#
# Bulk Modulus (GPa) = 55.04952 61.02323 58.03637
# Shear Modulus (GPa) = 23.17722 30.05555 26.61639
#
# Velocity S-wave (km/s) = 3.32320 3.78432 3.56123
# Velocity P-wave (km/s) = 6.39963 6.94058 6.67558
#
# Compressibility (1/GPa) = 0.01816546
#
# Stress axis : x y z
#
# Youngs Moduli (GPa) = 67.93622 103.24064 151.75052
#
# Poissons Ratio (x) = 0.32265 0.25424
# Poissons Ratio (y) = 0.21231 0.24500
# Poissons Ratio (z) = 0.11382 0.16668
#
# Static dielectric constant tensor:
#      x y z
#    x 3.506580 0.000000 0.000000 
#    y 0.000000 3.899940 0.000000 
#    z 0.000000 0.000000 4.145590 
# 
# 
# High freq. dielectric constant tensor:
#      x y z
#    x 1.788010 0.000000 0.000000 
#    y 0.000000 1.840970 0.000000 
#    z 0.000000 0.000000 1.827340 
# 
# From -- ./inp_files/20077.got.cif
#   From: 2010.03.12/outbox.cif.g09.slc.cpg/sg73_11_cif.got.tgz:20077.got - 2010.04.16 15:25:48.
