data_PCOD8296839
_publ_section_title
;
Structure prediction by ZEFSAII (Michael W. Deem and Ramdas Pophale) SiO2 
 PCOD8296839
Probable space group: I B C A 
;
_chemical_formula_sum "Si O2"
_cell_formula_units_Z 96
_cell_length_a 13.887484
_cell_length_b 16.115698
_cell_length_c 19.704831
_cell_angle_alpha 90.000000
_cell_angle_beta 90.000000
_cell_angle_gamma 90.000000
_cell_volume 4410.069222
_symmetry_space_group_name_H-M "I B C A "
_symmetry_group_IT_number 73
_symmetry_cell_setting 'orthorhombic'
loop_
_space_group_symop_operation_xyz
x,y,z
-x,1/2-y,z
x,-y,1/2-z
1/2-x,y,-z
-x,-y,-z
x,1/2+y,-z
-x,y,1/2+z
1/2+x,-y,z
1/2+x,1/2+y,1/2+z
1/2-x,-y,1/2+z
1/2+x,1/2-y,-z
-x,1/2+y,1/2-z
1/2-x,1/2-y,1/2-z
1/2+x,y,1/2-z
1/2-x,1/2+y,z
x,1/2-y,1/2+z
loop_
_atom_site_type_symbol
_atom_site_label
_atom_site_fract_x
_atom_site_fract_y
_atom_site_fract_z
Si Si1 0.675284 0.063400 0.119092
Si Si2 0.812586 0.068336 0.379038
Si Si3 0.648622 0.301929 0.907129
Si Si4 0.250000 0.325050 0.000000
Si Si5 0.000000 0.250000 0.200300
Si Si6 0.500644 0.587385 0.289418
Si Si7 0.090901 0.553164 0.981879
O O1 0.690111 0.123061 0.055135
O O2 0.602876 0.102429 0.174075
O O3 0.771183 0.019893 0.152113
O O4 0.629733 0.980697 0.088882
O O5 0.740688 0.147365 0.377129
O O6 0.832227 0.049851 0.458079
O O7 0.912806 0.089122 0.343092
O O8 0.595522 0.262079 0.843516
O O9 0.574484 0.352700 0.956278
O O10 0.677698 0.227891 0.955894
O O11 0.017539 0.333566 0.242425
O O12 0.498355 0.500000 0.250000
O O13 0.000000 0.500000 0.000000
#
# Coordination Sequence:
#
# PCOD8296839 Si02
#       7
#    16  16  16   8   8  16  16
#     4  11  24  42  73 105 143 179 243 300 364 442
#     4  11  23  46  75 104 142 187 242 308 367 440
#     4  11  26  46  69 109 147 179 237 316 364 437
#     4  12  24  42  74 112 138 180 232 306 398 412
#     4  12  32  48  70 104 154 202 256 288 356 448
#     4  12  29  49  70 103 144 207 249 287 360 440
#     4  11  20  42  73 107 136 181 238 313 381 426
#
# _framework density 21.768364999999999
#
# number of rings (size 3 to 8) (size 9 to 14) (size 15 to 20)
#    0.000    0.667    5.000    3.000    7.000    2.667 
#    0.000    0.000    0.000    0.000    0.000    0.000 
#    0.000    0.000    0.000    0.000    0.000    0.000 
#
# Total GULP energy -594672.597122 kJ/mol
# GULP energy per Si atom -12389.012440 kJ/mol
# Density = 2.171882 g / cm^3
# Si number density = 21.768365 Si / 1000 Ang^3
#
#
#
# Elastic Constant Matrix: (Units=GPa)
#
#
# Indices 1 2 3 4 5 6 
#
# 1 97.1498 51.0088 48.6263 0.0000 0.0000 0.0000
# 2 51.0088 118.6621 46.3154 0.0000 0.0000 0.0000
# 3 48.6263 46.3154 91.2614 0.0000 0.0000 0.0000
# 4 0.0000 0.0000 0.0000 54.5556 0.0000 0.0000
# 5 0.0000 0.0000 0.0000 0.0000 45.1102 0.0000
# 6 0.0000 0.0000 0.0000 0.0000 0.0000 32.0161
#
#
#
# Elastic Compliance Matrix: (Units=1/GPa)
#
#
# Indices 1 2 3 4 5 6 
#
# 1 0.015636 -0.004327 -0.006135 0.000000 0.000000 0.000000
# 2 -0.004327 0.011706 -0.003636 0.000000 0.000000 0.000000
# 3 -0.006135 -0.003636 0.016072 0.000000 0.000000 0.000000
# 4 0.000000 0.000000 0.000000 0.018330 0.000000 0.000000
# 5 0.000000 0.000000 0.000000 0.000000 0.022168 0.000000
# 6 0.000000 0.000000 0.000000 0.000000 0.000000 0.031234
#
#
# Mechanical properties :
#
#
# Convention : Reuss Voigt Hill
#
# Bulk Modulus (GPa) = 65.70922 66.55269 66.13096
# Shear Modulus (GPa) = 33.68943 37.07790 35.38367
#
# Velocity S-wave (km/s) = 3.93826 4.13157 4.03608
# Velocity P-wave (km/s) = 7.13660 7.30749 7.22255
#
# Compressibility (1/GPa) = 0.01521856
#
# Stress axis : x y z
#
# Youngs Moduli (GPa) = 63.95459 85.42493 62.22102
#
# Poissons Ratio (x) = 0.36960 0.38176
# Poissons Ratio (y) = 0.27671 0.22621
# Poissons Ratio (z) = 0.39239 0.31057
#
# Static dielectric constant tensor:
#      x y z
#    x 3.804200 0.000000 0.000000 
#    y 0.000000 4.008670 0.000000 
#    z 0.000000 0.000000 3.789470 
# 
# 
# High freq. dielectric constant tensor:
#      x y z
#    x 1.860050 0.000000 0.000000 
#    y 0.000000 1.870140 0.000000 
#    z 0.000000 0.000000 1.855600 
# 
# From -- ./inp_files/26033.got.cif
#   From: 2010.03.12/outbox.cif.g09.slc.cpg/sg73_14_cif.got.tgz:26033.got - 2010.04.16 15:25:48.
