data_PCOD8297650
_publ_section_title
;
Structure prediction by ZEFSAII (Michael W. Deem and Ramdas Pophale) SiO2 
 PCOD8297650
Probable space group: I M M A
;
_chemical_formula_sum "Si O2"
_cell_formula_units_Z 104
_cell_length_a 8.718770
_cell_length_b 31.799141
_cell_length_c 20.851024
_cell_angle_alpha 90.000000
_cell_angle_beta 90.000000
_cell_angle_gamma 90.000000
_cell_volume 5780.933822
_symmetry_space_group_name_H-M "I M M A"
_symmetry_group_IT_number 74
_symmetry_cell_setting 'orthorhombic'
loop_
_space_group_symop_operation_xyz
x,y,z
-x,1/2-y,z
x,-y,-z
-x,1/2+y,-z
-x,-y,-z
x,1/2+y,-z
-x,y,z
x,1/2-y,z
1/2+x,1/2+y,1/2+z
1/2-x,-y,1/2+z
1/2+x,1/2-y,1/2-z
1/2-x,y,1/2-z
1/2-x,1/2-y,1/2-z
1/2+x,y,1/2-z
1/2-x,1/2+y,1/2+z
1/2+x,-y,1/2+z
loop_
_atom_site_type_symbol
_atom_site_label
_atom_site_fract_x
_atom_site_fract_y
_atom_site_fract_z
Si Si1 0.320165 0.063031 0.684636
Si Si2 0.681365 0.466491 0.317512
Si Si3 0.818806 0.114093 0.938352
Si Si4 0.175827 0.703166 0.452401
Si Si5 0.816545 0.589353 0.570645
Si Si6 0.816526 0.750000 0.681753
Si Si7 0.174924 0.179666 0.404854
O O1 0.500000 0.066542 0.690816
O O2 0.250000 0.081610 0.750000
O O3 0.260621 0.090310 0.625078
O O4 0.268976 0.014845 0.675114
O O5 0.500000 0.459867 0.315818
O O6 0.750000 0.448586 0.250000
O O7 0.748306 0.445171 0.381642
O O8 0.773651 0.163242 0.928193
O O9 0.000000 0.111214 0.947814
O O10 0.740570 0.088335 0.996881
O O11 0.232018 0.750000 0.428181
O O12 0.189679 0.703979 0.528605
O O13 0.000000 0.696181 0.431003
O O14 0.749109 0.633836 0.595724
O O15 0.000000 0.585981 0.569923
O O16 0.750000 0.750000 0.750000
O O17 0.746294 0.708715 0.648253
O O18 0.000000 0.750000 0.678209
O O19 0.000000 0.172243 0.386569
#
# Coordination Sequence:
#
# PCOD8297650 Si02
#       7
#    16  16  16  16  16   8  16
#     4   9  20  37  57  78 104 138 174 212 262 319
#     4  10  20  36  55  75 101 138 179 219 264 318
#     4  10  20  34  52  80 111 137 169 216 269 315
#     4   9  16  30  53  76  98 131 171 209 252 308
#     4  10  20  34  52  77 104 136 176 219 263 312
#     4  10  18  30  44  60  84 120 161 202 243 288
#     4   8  15  29  48  64  87 124 164 203 247 292
#
# _framework density 17.990172999999999
#
# number of rings (size 3 to 8) (size 9 to 14) (size 15 to 20)
#    0.000    2.615    0.769    2.308    0.000    3.385 
#    0.000    8.462    0.000    0.462    0.000    0.000 
#    0.000    0.000    0.000    0.000    0.000    0.000 
#
# Total GULP energy -644256.370527 kJ/mol
# GULP energy per Si atom -12389.545587 kJ/mol
# Density = 1.794923 g / cm^3
# Si number density = 17.990173 Si / 1000 Ang^3
#
#
#
# Elastic Constant Matrix: (Units=GPa)
#
#
# Indices 1 2 3 4 5 6 
#
# 1 57.1677 32.4881 39.0982 0.0000 0.0000 0.0000
# 2 32.4881 95.6441 73.8943 0.0000 0.0000 0.0000
# 3 39.0982 73.8943 139.2082 0.0003 0.0000 0.0000
# 4 0.0000 0.0000 0.0003 -8.0930 0.0000 0.0000
# 5 0.0000 0.0000 0.0000 0.0000 28.6407 0.0000
# 6 0.0000 0.0000 0.0000 0.0000 0.0000 24.4686
#
#
#
# Elastic Compliance Matrix: (Units=1/GPa)
#
#
# Indices 1 2 3 4 5 6 
#
# 1 0.022859 -0.004754 -0.003897 0.000000 0.000000 0.000000
# 2 -0.004754 0.018713 -0.008598 0.000000 0.000000 0.000000
# 3 -0.003897 -0.008598 0.012842 0.000000 0.000000 0.000000
# 4 0.000000 0.000000 0.000000 -0.123564 0.000000 0.000000
# 5 0.000000 0.000000 0.000000 0.000000 0.034915 0.000000
# 6 0.000000 0.000000 0.000000 0.000000 0.000000 0.040869
#
#
# Mechanical properties :
#
#
# Convention : Reuss Voigt Hill
#
# Bulk Modulus (GPa) = 50.20968 64.77568 57.49268
# Shear Modulus (GPa) = 104.66661 18.77256 61.71959
#
# Velocity S-wave (km/s) = 7.63585 3.23381 5.86361
# Velocity P-wave (km/s) = 10.28162 7.07303 8.82438
#
# Compressibility (1/GPa) = 0.01991648
#
# Stress axis : x y z
#
# Youngs Moduli (GPa) = 43.74616 53.43857 77.87032
#
# Poissons Ratio (x) = 0.25406 0.30343
# Poissons Ratio (y) = 0.20798 0.66953
# Poissons Ratio (z) = 0.17046 0.45946
#
# Static dielectric constant tensor:
#      x y z
#    x 3.095160 0.000000 0.000000 
#    y 0.000000 3.572690 0.000000 
#    z 0.000000 0.000000 3.288280 
# 
# 
# High freq. dielectric constant tensor:
#      x y z
#    x 1.683900 0.000000 0.000000 
#    y 0.000000 1.701790 0.000000 
#    z 0.000000 0.000000 1.683520 
# 
# From -- ./inp_files/49617.got.cif
#   From: 2010.03.12/outbox.cif.g09.slc.cpg/sg74_25_cif.got.tgz:49617.got - 2010.04.16 15:46:19.
