data_PCOD8297796
_publ_section_title
;
Structure prediction by ZEFSAII (Michael W. Deem and Ramdas Pophale) SiO2 
 PCOD8297796
Probable space group: I M M A
;
_chemical_formula_sum "Si O2"
_cell_formula_units_Z 112
_cell_length_a 18.406520
_cell_length_b 20.796954
_cell_length_c 14.535865
_cell_angle_alpha 90.000000
_cell_angle_beta 90.000000
_cell_angle_gamma 90.000000
_cell_volume 5564.322577
_symmetry_space_group_name_H-M "I M M A"
_symmetry_group_IT_number 74
_symmetry_cell_setting 'orthorhombic'
loop_
_space_group_symop_operation_xyz
x,y,z
-x,1/2-y,z
x,-y,-z
-x,1/2+y,-z
-x,-y,-z
x,1/2+y,-z
-x,y,z
x,1/2-y,z
1/2+x,1/2+y,1/2+z
1/2-x,-y,1/2+z
1/2+x,1/2-y,1/2-z
1/2-x,y,1/2-z
1/2-x,1/2-y,1/2-z
1/2+x,y,1/2-z
1/2-x,1/2+y,1/2+z
1/2+x,-y,1/2+z
loop_
_atom_site_type_symbol
_atom_site_label
_atom_site_fract_x
_atom_site_fract_y
_atom_site_fract_z
Si Si1 0.355412 0.399114 0.090544
Si Si2 0.217854 0.426064 0.998002
Si Si3 0.916235 0.820335 0.745365
Si Si4 0.082172 0.869357 0.397845
Si Si5 0.233567 0.821846 0.356078
Si Si6 0.918122 0.505148 0.288037
Si Si7 0.082879 0.568293 0.885062
O O1 0.375044 0.337923 0.151843
O O2 0.367050 0.465005 0.145095
O O3 0.269608 0.391240 0.071937
O O4 0.402639 0.401555 0.996857
O O5 0.227209 0.382610 0.906052
O O6 0.246596 0.500000 0.000000
O O7 0.133285 0.428667 0.025438
O O8 0.890795 0.750000 0.777424
O O9 0.899418 0.867917 0.828121
O O10 0.000000 0.822047 0.719133
O O11 0.146374 0.819330 0.375614
O O12 0.000000 0.839489 0.397512
O O13 0.087402 0.920999 0.315186
O O14 0.262150 0.750000 0.385420
O O15 0.250000 0.833598 0.250000
O O16 0.897179 0.493090 0.180346
O O17 0.000000 0.477836 0.299967
O O18 0.000000 0.565505 0.920249
#
# Coordination Sequence:
#
# PCOD8297796 Si02
#       7
#    16  16  16  16  16  16  16
#     4  10  18  31  47  80 119 153 192 234 288 347
#     4  11  24  39  60  91 113 149 199 253 300 357
#     4   9  18  33  54  81 118 161 194 227 283 353
#     4  10  19  32  57  86 110 150 200 244 290 347
#     4  10  24  45  63  83 120 163 196 243 308 362
#     4   9  17  30  51  82 121 155 185 235 294 347
#     4   9  20  38  57  83 117 152 193 245 302 355
#
# _framework density 20.128236000000001
#
# number of rings (size 3 to 8) (size 9 to 14) (size 15 to 20)
#    0.000    2.286    0.000    4.286    2.000    6.857 
#    0.000    1.429    0.000    0.857    0.000    0.000 
#    0.000    0.000    0.000    0.000    0.000    0.000 
#
# Total GULP energy -693889.367442 kJ/mol
# GULP energy per Si atom -12390.881561 kJ/mol
# Density = 2.008242 g / cm^3
# Si number density = 20.128236 Si / 1000 Ang^3
#
#
#
# Elastic Constant Matrix: (Units=GPa)
#
#
# Indices 1 2 3 4 5 6 
#
# 1 100.3339 8.4252 43.2100 0.0000 0.0000 0.0000
# 2 8.4252 97.9799 31.1221 0.0000 0.0000 0.0000
# 3 43.2100 31.1221 79.3442 0.0000 0.0000 0.0000
# 4 0.0000 0.0000 0.0000 21.9741 0.0000 0.0000
# 5 0.0000 0.0000 0.0000 0.0000 30.7120 0.0000
# 6 0.0000 0.0000 0.0000 0.0000 0.0000 22.2162
#
#
#
# Elastic Compliance Matrix: (Units=1/GPa)
#
#
# Indices 1 2 3 4 5 6 
#
# 1 0.013166 0.001308 -0.007683 0.000000 0.000000 0.000000
# 2 0.001308 0.011789 -0.005337 0.000000 0.000000 0.000000
# 3 -0.007683 -0.005337 0.018881 0.000000 0.000000 0.000000
# 4 0.000000 0.000000 0.000000 0.045508 0.000000 0.000000
# 5 0.000000 0.000000 0.000000 0.000000 0.032561 0.000000
# 6 0.000000 0.000000 0.000000 0.000000 0.000000 0.045012
#
#
# Mechanical properties :
#
#
# Convention : Reuss Voigt Hill
#
# Bulk Modulus (GPa) = 48.98955 49.24139 49.11547
# Shear Modulus (GPa) = 25.36235 27.97384 26.66810
#
# Velocity S-wave (km/s) = 3.55355 3.73202 3.64388
# Velocity P-wave (km/s) = 6.42095 6.56411 6.49292
#
# Compressibility (1/GPa) = 0.02041252
#
# Stress axis : x y z
#
# Youngs Moduli (GPa) = 75.95522 84.82658 52.96434
#
# Poissons Ratio (x) = -0.11098 0.40693
# Poissons Ratio (y) = -0.09937 0.28265
# Poissons Ratio (z) = 0.58357 0.45268
#
# Static dielectric constant tensor:
#      x y z
#    x 3.633920 0.000000 0.000000 
#    y 0.000000 3.875460 0.000000 
#    z 0.000000 0.000000 3.513850 
# 
# 
# High freq. dielectric constant tensor:
#      x y z
#    x 1.781740 0.000000 0.000000 
#    y 0.000000 1.775540 0.000000 
#    z 0.000000 0.000000 1.774070 
# 
# From -- ./inp_files/32763.got.cif
#   From: 2010.03.12/outbox.cif.g09.slc.cpg/sg74_17_cif.got.tgz:32763.got - 2010.04.16 15:46:19.
