data_PCOD8297197
_publ_section_title
;
Structure prediction by ZEFSAII (Michael W. Deem and Ramdas Pophale) SiO2 
 PCOD8297197
Probable space group: I M M A
;
_chemical_formula_sum "Si O2"
_cell_formula_units_Z 72
_cell_length_a 22.899798
_cell_length_b 8.847141
_cell_length_c 23.513942
_cell_angle_alpha 90.000000
_cell_angle_beta 90.000000
_cell_angle_gamma 90.000000
_cell_volume 4763.871549
_symmetry_space_group_name_H-M "I M M A"
_symmetry_group_IT_number 74
_symmetry_cell_setting 'orthorhombic'
loop_
_space_group_symop_operation_xyz
x,y,z
-x,1/2-y,z
x,-y,-z
-x,1/2+y,-z
-x,-y,-z
x,1/2+y,-z
-x,y,z
x,1/2-y,z
1/2+x,1/2+y,1/2+z
1/2-x,-y,1/2+z
1/2+x,1/2-y,1/2-z
1/2-x,y,1/2-z
1/2-x,1/2-y,1/2-z
1/2+x,y,1/2-z
1/2-x,1/2+y,1/2+z
1/2+x,-y,1/2+z
loop_
_atom_site_type_symbol
_atom_site_label
_atom_site_fract_x
_atom_site_fract_y
_atom_site_fract_z
Si Si1 0.677180 0.427966 0.702461
Si Si2 0.000000 0.426987 0.561240
Si Si3 0.712795 0.074305 0.179411
Si Si4 0.065435 0.074478 0.231177
Si Si5 0.090887 0.423602 0.359922
O O1 0.681237 0.250000 0.695573
O O2 0.693464 0.481399 0.765383
O O3 0.724583 0.505550 0.659245
O O4 0.610706 0.482641 0.691099
O O5 0.000000 0.500000 0.500000
O O6 0.058475 0.474185 0.594354
O O7 0.000000 0.250000 0.553468
O O8 0.719589 0.250000 0.195238
O O9 0.661172 0.053679 0.132980
O O10 0.081187 0.250000 0.225553
O O11 0.070836 0.025925 0.297032
O O12 0.000000 0.039110 0.209664
O O13 0.073036 0.250000 0.370462
#
# Coordination Sequence:
#
# PCOD8297197 Si02
#       5
#    16   8  16  16  16
#     4  10  17  23  34  55  79  97 121 161 193 221
#     4  12  24  34  46  60  78 100 126 164 208 250
#     4   9  16  27  41  53  70  98 125 152 189 235
#     4   9  16  27  41  54  74 105 134 159 191 236
#     4   9  17  31  46  58  72  93 127 164 199 238
#
# _framework density 15.113758000000001
#
# number of rings (size 3 to 8) (size 9 to 14) (size 15 to 20)
#    0.000    2.444    1.111    6.333    0.000    4.889 
#    0.000    0.000    0.000    0.000    0.000    0.000 
#    0.000    0.000    0.000    0.000    0.000    1.111 
#
# Total GULP energy -446077.468344 kJ/mol
# GULP energy per Si atom -12391.040787 kJ/mol
# Density = 1.507936 g / cm^3
# Si number density = 15.113758 Si / 1000 Ang^3
#
#
#
# Elastic Constant Matrix: (Units=GPa)
#
#
# Indices 1 2 3 4 5 6 
#
# 1 144.6995 60.3327 31.6495 0.0000 0.0000 0.0000
# 2 60.3327 89.9954 22.8977 0.0000 0.0000 0.0000
# 3 31.6495 22.8977 25.9155 0.0000 0.0000 0.0000
# 4 0.0000 0.0000 0.0000 12.8493 0.0000 0.0000
# 5 0.0000 0.0000 0.0000 0.0000 8.7701 0.0000
# 6 0.0000 0.0000 0.0000 0.0000 0.0000 27.9028
#
#
#
# Elastic Compliance Matrix: (Units=1/GPa)
#
#
# Indices 1 2 3 4 5 6 
#
# 1 0.010985 -0.005097 -0.008913 0.000000 0.000000 0.000000
# 2 -0.005097 0.016699 -0.008530 0.000000 0.000000 0.000000
# 3 -0.008913 -0.008530 0.057008 0.000000 0.000000 0.000000
# 4 0.000000 0.000000 0.000000 0.077825 0.000000 0.000000
# 5 0.000000 0.000000 0.000000 0.000000 0.114024 0.000000
# 6 0.000000 0.000000 0.000000 0.000000 0.000000 0.035839
#
#
# Mechanical properties :
#
#
# Convention : Reuss Voigt Hill
#
# Bulk Modulus (GPa) = 25.24375 54.48557 39.86466
# Shear Modulus (GPa) = 13.48933 19.61981 16.55457
#
# Velocity S-wave (km/s) = 2.99075 3.60688 3.31317
# Velocity P-wave (km/s) = 5.35396 7.31264 6.40857
#
# Compressibility (1/GPa) = 0.03961377
#
# Stress axis : x y z
#
# Youngs Moduli (GPa) = 91.02913 59.88416 17.54142
#
# Poissons Ratio (x) = 0.30523 0.15634
# Poissons Ratio (y) = 0.46397 0.14962
# Poissons Ratio (z) = 0.81131 0.51079
#
# Static dielectric constant tensor:
#      x y z
#    x 3.830800 0.000000 0.000000 
#    y 0.000000 2.907190 0.000000 
#    z 0.000000 0.000000 2.318260 
# 
# 
# High freq. dielectric constant tensor:
#      x y z
#    x 1.606790 0.000000 0.000000 
#    y 0.000000 1.586900 0.000000 
#    z 0.000000 0.000000 1.481010 
# 
# From -- ./inp_files/54359.got.cif
#   From: 2010.03.12/outbox.cif.g09.slc.cpg/sg74_28_cif.got.tgz:54359.got - 2010.04.16 15:46:19.
