data_PCOD8297157
_publ_section_title
;
Structure prediction by ZEFSAII (Michael W. Deem and Ramdas Pophale) SiO2 
 PCOD8297157
Probable space group: I M M A
;
_chemical_formula_sum "Si O2"
_cell_formula_units_Z 72
_cell_length_a 10.373335
_cell_length_b 21.151823
_cell_length_c 20.136314
_cell_angle_alpha 90.000000
_cell_angle_beta 90.000000
_cell_angle_gamma 90.000000
_cell_volume 4418.208246
_symmetry_space_group_name_H-M "I M M A"
_symmetry_group_IT_number 74
_symmetry_cell_setting 'orthorhombic'
loop_
_space_group_symop_operation_xyz
x,y,z
-x,1/2-y,z
x,-y,-z
-x,1/2+y,-z
-x,-y,-z
x,1/2+y,-z
-x,y,z
x,1/2-y,z
1/2+x,1/2+y,1/2+z
1/2-x,-y,1/2+z
1/2+x,1/2-y,1/2-z
1/2-x,y,1/2-z
1/2-x,1/2-y,1/2-z
1/2+x,y,1/2-z
1/2-x,1/2+y,1/2+z
1/2+x,-y,1/2+z
loop_
_atom_site_type_symbol
_atom_site_label
_atom_site_fract_x
_atom_site_fract_y
_atom_site_fract_z
Si Si1 0.500000 0.054370 0.055844
Si Si2 0.000000 0.437358 0.818324
Si Si3 0.758487 0.425209 0.012025
Si Si4 0.654312 0.250000 0.812337
Si Si5 0.500000 0.459703 0.432255
Si Si6 0.000000 0.961314 0.331889
Si Si7 0.754985 0.120523 0.631134
O O1 0.374712 0.098552 0.044926
O O2 0.500000 0.028272 0.130917
O O3 0.500000 0.000000 0.000000
O O4 0.000000 0.470227 0.746790
O O5 0.128057 0.393925 0.824437
O O6 0.000000 0.494373 0.869914
O O7 0.873786 0.414926 0.065373
O O8 0.745700 0.500000 0.000000
O O9 0.788104 0.386632 0.945151
O O10 0.500000 0.250000 0.793598
O O11 0.750000 0.250000 0.750000
O O12 0.689897 0.189785 0.856330
O O13 0.500000 0.500000 0.500000
O O14 0.869946 0.927147 0.354101
#
# Coordination Sequence:
#
# PCOD8297157 Si02
#       7
#     8   8  16   8   8   8  16
#     4  10  16  28  48  68  94 115 159 200 253 308
#     4  12  22  31  51  74 100 130 167 206 247 303
#     4  10  16  30  52  71  86 119 165 202 257 295
#     4  12  28  42  50  66 100 142 181 217 250 286
#     4  10  16  32  48  72  96 119 159 198 255 304
#     4  12  20  31  47  74  96 130 167 204 251 297
#     4  12  22  36  51  67  95 133 178 213 242 288
#
# _framework density 16.296199000000001
#
# number of rings (size 3 to 8) (size 9 to 14) (size 15 to 20)
#    0.000    0.889   10.000    2.000    1.556    0.000 
#    0.000    0.000    0.000    0.000    0.000    0.000 
#    0.000    0.000    0.000    6.000    0.000    0.000 
#
# Total GULP energy -446109.934204 kJ/mol
# GULP energy per Si atom -12391.942617 kJ/mol
# Density = 1.625911 g / cm^3
# Si number density = 16.296199 Si / 1000 Ang^3
#
#
#
# Elastic Constant Matrix: (Units=GPa)
#
#
# Indices 1 2 3 4 5 6 
#
# 1 149.1865 10.2257 21.5441 0.0000 0.0000 0.0000
# 2 10.2257 31.2439 29.5851 0.0000 0.0000 0.0000
# 3 21.5441 29.5851 83.6187 0.0000 0.0000 0.0000
# 4 0.0000 0.0000 0.0000 15.9847 0.0000 0.0000
# 5 0.0000 0.0000 0.0000 0.0000 22.4224 0.0000
# 6 0.0000 0.0000 0.0000 0.0000 0.0000 4.2624
#
#
#
# Elastic Compliance Matrix: (Units=1/GPa)
#
#
# Indices 1 2 3 4 5 6 
#
# 1 0.006978 -0.000874 -0.001488 0.000000 0.000000 0.000000
# 2 -0.000874 0.048241 -0.016843 0.000000 0.000000 0.000000
# 3 -0.001488 -0.016843 0.018302 0.000000 0.000000 0.000000
# 4 0.000000 0.000000 0.000000 0.062560 0.000000 0.000000
# 5 0.000000 0.000000 0.000000 0.000000 0.044598 0.000000
# 6 0.000000 0.000000 0.000000 0.000000 0.000000 0.234611
#
#
# Mechanical properties :
#
#
# Convention : Reuss Voigt Hill
#
# Bulk Modulus (GPa) = 28.48243 42.97320 35.72782
# Shear Modulus (GPa) = 10.74335 22.04684 16.39509
#
# Velocity S-wave (km/s) = 2.57038 3.68215 3.17530
# Velocity P-wave (km/s) = 5.13079 6.67120 5.95105
#
# Compressibility (1/GPa) = 0.03510936
#
# Stress axis : x y z
#
# Youngs Moduli (GPa) = 143.30957 20.72916 54.63950
#
# Poissons Ratio (x) = 0.01812 0.08133
# Poissons Ratio (y) = 0.12529 0.92029
# Poissons Ratio (z) = 0.21332 0.34914
#
# Static dielectric constant tensor:
#      x y z
#    x 9.424040 0.000000 0.000000 
#    y 0.000000 2.779820 0.000000 
#    z 0.000000 0.000000 3.302840 
# 
# 
# High freq. dielectric constant tensor:
#      x y z
#    x 1.672840 0.000000 0.000000 
#    y 0.000000 1.554720 0.000000 
#    z 0.000000 0.000000 1.613960 
# 
# From -- ./inp_files/41165.got.cif
#   From: 2010.03.12/outbox.cif.g09.slc.cpg/sg74_21_cif.got.tgz:41165.got - 2010.04.16 15:46:19.
