data_PCOD8297317
_publ_section_title
;
Structure prediction by ZEFSAII (Michael W. Deem and Ramdas Pophale) SiO2 
 PCOD8297317
Probable space group: I M M A
;
_chemical_formula_sum "Si O2"
_cell_formula_units_Z 96
_cell_length_a 29.474883
_cell_length_b 8.782374
_cell_length_c 23.577396
_cell_angle_alpha 90.000000
_cell_angle_beta 90.000000
_cell_angle_gamma 90.000000
_cell_volume 6103.231669
_symmetry_space_group_name_H-M "I M M A"
_symmetry_group_IT_number 74
_symmetry_cell_setting 'orthorhombic'
loop_
_space_group_symop_operation_xyz
x,y,z
-x,1/2-y,z
x,-y,-z
-x,1/2+y,-z
-x,-y,-z
x,1/2+y,-z
-x,y,z
x,1/2-y,z
1/2+x,1/2+y,1/2+z
1/2-x,-y,1/2+z
1/2+x,1/2-y,1/2-z
1/2-x,y,1/2-z
1/2-x,1/2-y,1/2-z
1/2+x,y,1/2-z
1/2-x,1/2+y,1/2+z
1/2+x,-y,1/2+z
loop_
_atom_site_type_symbol
_atom_site_label
_atom_site_fract_x
_atom_site_fract_y
_atom_site_fract_z
Si Si1 0.816460 0.429047 0.059222
Si Si2 0.738858 0.930257 0.667726
Si Si3 0.500000 0.078759 0.609839
Si Si4 0.092129 0.929468 0.755959
Si Si5 0.316791 0.569264 0.231177
Si Si6 0.500000 0.576301 0.255256
Si Si7 0.908910 0.928969 0.887225
O O1 0.820036 0.250000 0.052600
O O2 0.778265 0.472852 0.105074
O O3 0.865539 0.493204 0.078720
O O4 0.801390 0.500000 0.000000
O O5 0.744070 0.750000 0.675935
O O6 0.701935 0.989692 0.712323
O O7 0.786880 0.013603 0.677640
O O8 0.500000 0.250000 0.587788
O O9 0.500000 0.066089 0.677259
O O10 0.545470 0.999987 0.586042
O O11 0.095570 0.750000 0.746251
O O12 0.097095 0.975255 0.821745
O O13 0.131787 0.014586 0.721431
O O14 0.044363 0.990255 0.731570
O O15 0.313856 0.750000 0.237152
O O16 0.500000 0.750000 0.234005
O O17 0.913269 0.750000 0.892887
#
# Coordination Sequence:
#
# PCOD8297317 Si02
#       7
#    16  16   8  16  16   8  16
#     4  10  21  35  50  67  86 114 150 188 231 276
#     4  10  19  34  49  65  89 118 150 183 226 282
#     4   9  17  27  42  64  83 105 140 187 234 268
#     4  10  17  29  46  64  89 123 154 182 222 275
#     4  11  20  29  46  72  94 115 146 189 232 265
#     4   9  17  27  39  64  94 117 148 187 225 265
#     4   9  17  31  46  61  82 112 148 183 224 275
#
# _framework density 15.729372
#
# number of rings (size 3 to 8) (size 9 to 14) (size 15 to 20)
#    0.000    2.167    1.667    4.000    0.000    4.667 
#    0.000    0.417    0.000    0.000    0.000    0.000 
#    0.000    0.000    0.000    0.750    0.000   10.167 
#
# Total GULP energy -595199.264017 kJ/mol
# GULP energy per Si atom -12399.984667 kJ/mol
# Density = 1.569357 g / cm^3
# Si number density = 15.729372 Si / 1000 Ang^3
#
#
#
# Elastic Constant Matrix: (Units=GPa)
#
#
# Indices 1 2 3 4 5 6 
#
# 1 124.2504 35.6499 46.6576 0.0000 0.0000 0.0000
# 2 35.6499 54.5940 20.9042 0.0000 0.0000 0.0000
# 3 46.6576 20.9042 57.2155 0.0000 0.0000 0.0000
# 4 0.0000 0.0000 0.0000 17.6266 0.0000 0.0000
# 5 0.0000 0.0000 0.0000 0.0000 16.9966 0.0000
# 6 0.0000 0.0000 0.0000 0.0000 0.0000 27.0792
#
#
#
# Elastic Compliance Matrix: (Units=1/GPa)
#
#
# Indices 1 2 3 4 5 6 
#
# 1 0.012685 -0.005026 -0.008508 0.000000 0.000000 0.000000
# 2 -0.005026 0.023287 -0.004410 0.000000 0.000000 0.000000
# 3 -0.008508 -0.004410 0.026027 0.000000 0.000000 0.000000
# 4 0.000000 0.000000 0.000000 0.056732 0.000000 0.000000
# 5 0.000000 0.000000 0.000000 0.000000 0.058835 0.000000
# 6 0.000000 0.000000 0.000000 0.000000 0.000000 0.036929
#
#
# Mechanical properties :
#
#
# Convention : Reuss Voigt Hill
#
# Bulk Modulus (GPa) = 38.29650 49.16484 43.73067
# Shear Modulus (GPa) = 19.29847 21.19703 20.24775
#
# Velocity S-wave (km/s) = 3.50652 3.67496 3.59173
# Velocity P-wave (km/s) = 6.38704 7.02365 6.71290
#
# Compressibility (1/GPa) = 0.02611205
#
# Stress axis : x y z
#
# Youngs Moduli (GPa) = 78.83222 42.94172 38.42123
#
# Poissons Ratio (x) = 0.21581 0.32690
# Poissons Ratio (y) = 0.39618 0.16944
# Poissons Ratio (z) = 0.67072 0.18937
#
# Static dielectric constant tensor:
#      x y z
#    x 3.251700 0.000000 0.000000 
#    y 0.000000 3.014990 0.000000 
#    z 0.000000 0.000000 2.662430 
# 
# 
# High freq. dielectric constant tensor:
#      x y z
#    x 1.612310 0.000000 0.000000 
#    y 0.000000 1.615610 0.000000 
#    z 0.000000 0.000000 1.541050 
# 
# From -- ./inp_files/62305.got.cif
#   From: 2010.03.12/outbox.cif.g09.slc.cpg/sg74_32_cif.got.tgz:62305.got - 2010.04.16 15:46:19.
