data_PCOD8297147
_publ_section_title
;
Structure prediction by ZEFSAII (Michael W. Deem and Ramdas Pophale) SiO2 
 PCOD8297147
Probable space group: I M M A
;
_chemical_formula_sum "Si O2"
_cell_formula_units_Z 72
_cell_length_a 14.037239
_cell_length_b 26.268684
_cell_length_c 11.551217
_cell_angle_alpha 90.000000
_cell_angle_beta 90.000000
_cell_angle_gamma 90.000000
_cell_volume 4259.393395
_symmetry_space_group_name_H-M "I M M A"
_symmetry_group_IT_number 74
_symmetry_cell_setting 'orthorhombic'
loop_
_space_group_symop_operation_xyz
x,y,z
-x,1/2-y,z
x,-y,-z
-x,1/2+y,-z
-x,-y,-z
x,1/2+y,-z
-x,y,z
x,1/2-y,z
1/2+x,1/2+y,1/2+z
1/2-x,-y,1/2+z
1/2+x,1/2-y,1/2-z
1/2-x,y,1/2-z
1/2-x,1/2-y,1/2-z
1/2+x,y,1/2-z
1/2-x,1/2+y,1/2+z
1/2+x,-y,1/2+z
loop_
_atom_site_type_symbol
_atom_site_label
_atom_site_fract_x
_atom_site_fract_y
_atom_site_fract_z
Si Si1 0.609046 0.163642 0.989044
Si Si2 0.390814 0.340961 0.721496
Si Si3 0.727196 0.750000 0.885821
Si Si4 0.393554 0.551732 0.068135
Si Si5 0.389780 0.250000 0.557760
Si Si6 0.250000 0.576100 0.250000
O O1 0.500000 0.176315 0.019964
O O2 0.672056 0.198822 0.073644
O O3 0.629991 0.176169 0.854020
O O4 0.630211 0.102796 0.006942
O O5 0.500000 0.356425 0.706418
O O6 0.360308 0.297439 0.635006
O O7 0.326687 0.388644 0.683815
O O8 0.750000 0.750000 0.750000
O O9 0.831753 0.750000 0.940184
O O10 0.500000 0.560584 0.122422
O O11 0.311227 0.541932 0.162505
O O12 0.394638 0.500000 0.000000
O O13 0.500000 0.250000 0.523601
#
# Coordination Sequence:
#
# PCOD8297147 Si02
#       6
#    16  16   8  16   8   8
#     4   9  18  34  55  75  97 127 166 214 262 306
#     4   9  17  29  51  79 100 118 154 209 267 315
#     4  12  24  34  45  70 102 145 183 207 226 297
#     4   9  18  33  53  77 101 129 168 214 261 309
#     4  10  19  30  45  70 102 130 154 197 255 296
#     4  10  16  27  50  76  98 127 154 202 260 302
#
# _framework density 16.903815000000002
#
# number of rings (size 3 to 8) (size 9 to 14) (size 15 to 20)
#    0.000    2.444    0.000    5.667    0.000    4.000 
#    2.000    0.000    0.000    2.667    0.000    0.000 
#    0.000    0.000    0.000    0.000    0.000    0.000 
#
# Total GULP energy -445992.293873 kJ/mol
# GULP energy per Si atom -12388.674830 kJ/mol
# Density = 1.686534 g / cm^3
# Si number density = 16.903815 Si / 1000 Ang^3
#
#
#
# Elastic Constant Matrix: (Units=GPa)
#
#
# Indices 1 2 3 4 5 6 
#
# 1 92.4379 35.7370 45.1054 -0.0001 0.0000 -0.0001
# 2 35.7370 95.7493 46.1668 0.0000 0.0000 0.0001
# 3 45.1054 46.1668 88.9777 0.0004 0.0001 -0.0005
# 4 -0.0001 0.0000 0.0004 19.6736 0.0000 -0.0001
# 5 0.0000 0.0000 0.0001 0.0000 28.1614 0.0000
# 6 -0.0001 0.0001 -0.0005 -0.0001 0.0000 28.0621
#
#
#
# Elastic Compliance Matrix: (Units=1/GPa)
#
#
# Indices 1 2 3 4 5 6 
#
# 1 0.014825 -0.002547 -0.006194 0.000000 0.000000 0.000000
# 2 -0.002547 0.014366 -0.006163 0.000000 0.000000 0.000000
# 3 -0.006194 -0.006163 0.017576 0.000000 0.000000 0.000000
# 4 0.000000 0.000000 0.000000 0.050830 0.000000 0.000000
# 5 0.000000 0.000000 0.000000 0.000000 0.035510 0.000000
# 6 0.000000 0.000000 0.000000 0.000000 0.000000 0.035635
#
#
# Mechanical properties :
#
#
# Convention : Reuss Voigt Hill
#
# Bulk Modulus (GPa) = 58.96119 59.02037 58.99078
# Shear Modulus (GPa) = 24.48556 25.18979 24.83767
#
# Velocity S-wave (km/s) = 3.81007 3.86448 3.83737
# Velocity P-wave (km/s) = 7.36965 7.40969 7.38969
#
# Compressibility (1/GPa) = 0.01696031
#
# Stress axis : x y z
#
# Youngs Moduli (GPa) = 67.45386 69.60877 56.89503
#
# Poissons Ratio (x) = 0.17728 0.35240
# Poissons Ratio (y) = 0.17179 0.35064
# Poissons Ratio (z) = 0.41779 0.42899
#
# Static dielectric constant tensor:
#      x y z
#    x 3.536230 0.000000 0.000000 
#    y 0.000000 3.149770 0.000000 
#    z 0.000000 0.000000 2.816420 
# 
# 
# High freq. dielectric constant tensor:
#      x y z
#    x 1.676530 0.000000 0.000000 
#    y 0.000000 1.649750 0.000000 
#    z 0.000000 0.000000 1.604370 
# 
# From -- ./inp_files/18942.got.cif
#   From: 2010.03.12/outbox.cif.g09.slc.cpg/sg74_10_cif.got.tgz:18942.got - 2010.04.16 15:46:19.
