data_PCOD8297306
_publ_section_title
;
Structure prediction by ZEFSAII (Michael W. Deem and Ramdas Pophale) SiO2 
 PCOD8297306
Probable space group: I M M A
;
_chemical_formula_sum "Si O2"
_cell_formula_units_Z 120
_cell_length_a 27.333072
_cell_length_b 13.104268
_cell_length_c 19.523253
_cell_angle_alpha 90.000000
_cell_angle_beta 90.000000
_cell_angle_gamma 90.000000
_cell_volume 6992.836822
_symmetry_space_group_name_H-M "I M M A"
_symmetry_group_IT_number 74
_symmetry_cell_setting 'orthorhombic'
loop_
_space_group_symop_operation_xyz
x,y,z
-x,1/2-y,z
x,-y,-z
-x,1/2+y,-z
-x,-y,-z
x,1/2+y,-z
-x,y,z
x,1/2-y,z
1/2+x,1/2+y,1/2+z
1/2-x,-y,1/2+z
1/2+x,1/2-y,1/2-z
1/2-x,y,1/2-z
1/2-x,1/2-y,1/2-z
1/2+x,y,1/2-z
1/2-x,1/2+y,1/2+z
1/2+x,-y,1/2+z
loop_
_atom_site_type_symbol
_atom_site_label
_atom_site_fract_x
_atom_site_fract_y
_atom_site_fract_z
Si Si1 0.382101 0.000000 0.500000
Si Si2 0.193975 0.129949 0.747060
Si Si3 0.141847 0.635480 0.114373
Si Si4 0.893018 0.955665 0.328705
Si Si5 0.944135 0.445322 0.810714
Si Si6 0.556898 0.366276 0.108016
Si Si7 0.556444 0.366182 0.399178
Si Si8 0.946200 0.369874 0.544716
O O1 0.346332 0.059171 0.552217
O O2 0.414715 0.085425 0.462705
O O3 0.187982 0.250000 0.730496
O O4 0.250000 0.095405 0.750000
O O5 0.174060 0.101314 0.821465
O O6 0.164029 0.065390 0.689540
O O7 0.153879 0.750000 0.091450
O O8 0.084712 0.624509 0.134665
O O9 0.906545 0.073998 0.341132
O O10 0.925456 0.917937 0.265008
O O11 0.906291 0.894893 0.397857
O O12 0.935836 0.564935 0.830652
O O13 0.000000 0.412530 0.816145
O O14 0.500000 0.378480 0.130046
O O15 0.573547 0.250000 0.112333
O O16 0.564902 0.414607 0.031687
O O17 0.500000 0.366107 0.420569
O O18 0.574474 0.250000 0.384579
O O19 0.947848 0.250000 0.532398
O O20 0.000000 0.408210 0.569537
#
# Coordination Sequence:
#
# PCOD8297306 Si02
#       8
#     8  16  16  16  16  16  16  16
#     4  10  17  28  46  68  90 112 148 192 221 268
#     4   9  19  36  55  73  93 118 154 203 256 304
#     4   9  18  31  48  69  92 120 148 181 230 280
#     4  11  18  28  49  71  91 125 168 205 242 286
#     4   9  18  28  39  64  96 121 154 194 226 270
#     4   9  18  30  44  68 105 144 172 193 228 284
#     4   9  17  28  40  57  88 127 158 184 219 262
#     4   9  17  28  43  68 103 136 164 196 238 292
#
# _framework density 17.160418
#
# number of rings (size 3 to 8) (size 9 to 14) (size 15 to 20)
#    0.000    2.667    0.000    3.400    0.000    2.933 
#    0.000    1.333    2.933    0.400    0.000    0.000 
#    0.000    0.000    0.000    0.000    0.000    0.000 
#
# Total GULP energy -743675.558261 kJ/mol
# GULP energy per Si atom -12394.592638 kJ/mol
# Density = 1.712136 g / cm^3
# Si number density = 17.160418 Si / 1000 Ang^3
#
#
#
# Elastic Constant Matrix: (Units=GPa)
#
#
# Indices 1 2 3 4 5 6 
#
# 1 101.1657 27.4657 42.9393 0.0000 0.0000 0.0000
# 2 27.4657 52.4299 24.0344 0.0000 0.0000 0.0000
# 3 42.9393 24.0344 81.1046 0.0000 0.0000 0.0000
# 4 0.0000 0.0000 0.0000 28.1723 0.0000 0.0000
# 5 0.0000 0.0000 0.0000 0.0000 17.8830 0.0000
# 6 0.0000 0.0000 0.0000 0.0000 0.0000 18.2263
#
#
#
# Elastic Compliance Matrix: (Units=1/GPa)
#
#
# Indices 1 2 3 4 5 6 
#
# 1 0.013580 -0.004418 -0.005880 0.000000 0.000000 0.000000
# 2 -0.004418 0.023509 -0.004627 0.000000 0.000000 0.000000
# 3 -0.005880 -0.004627 0.016814 0.000000 0.000000 0.000000
# 4 0.000000 0.000000 0.000000 0.035496 0.000000 0.000000
# 5 0.000000 0.000000 0.000000 0.000000 0.055919 0.000000
# 6 0.000000 0.000000 0.000000 0.000000 0.000000 0.054866
#
#
# Mechanical properties :
#
#
# Convention : Reuss Voigt Hill
#
# Bulk Modulus (GPa) = 41.57826 47.06435 44.32130
# Shear Modulus (GPa) = 21.00367 22.20705 21.60536
#
# Velocity S-wave (km/s) = 3.50231 3.60124 3.55212
# Velocity P-wave (km/s) = 6.37469 6.69160 6.53507
#
# Compressibility (1/GPa) = 0.02405103
#
# Stress axis : x y z
#
# Youngs Moduli (GPa) = 73.63611 42.53699 59.47308
#
# Poissons Ratio (x) = 0.18795 0.34973
# Poissons Ratio (y) = 0.32536 0.27520
# Poissons Ratio (z) = 0.43302 0.19683
#
# Static dielectric constant tensor:
#      x y z
#    x 2.906670 0.000000 0.000000 
#    y 0.000000 3.304320 0.000000 
#    z 0.000000 0.000000 3.242060 
# 
# 
# High freq. dielectric constant tensor:
#      x y z
#    x 1.613920 0.000000 0.000000 
#    y 0.000000 1.668560 0.000000 
#    z 0.000000 0.000000 1.666270 
# 
# From -- ./inp_files/54825.got.cif
#   From: 2010.03.12/outbox.cif.g09.slc.cpg/sg74_28_cif.got.tgz:54825.got - 2010.04.16 15:46:19.
