data_PCOD8297504
_publ_section_title
;
Structure prediction by ZEFSAII (Michael W. Deem and Ramdas Pophale) SiO2 
 PCOD8297504
Probable space group: I M M A
;
_chemical_formula_sum "Si O2"
_cell_formula_units_Z 80
_cell_length_a 8.743574
_cell_length_b 23.371521
_cell_length_c 26.258952
_cell_angle_alpha 90.000000
_cell_angle_beta 90.000000
_cell_angle_gamma 90.000000
_cell_volume 5366.033210
_symmetry_space_group_name_H-M "I M M A"
_symmetry_group_IT_number 74
_symmetry_cell_setting 'orthorhombic'
loop_
_space_group_symop_operation_xyz
x,y,z
-x,1/2-y,z
x,-y,-z
-x,1/2+y,-z
-x,-y,-z
x,1/2+y,-z
-x,y,z
x,1/2-y,z
1/2+x,1/2+y,1/2+z
1/2-x,-y,1/2+z
1/2+x,1/2-y,1/2-z
1/2-x,y,1/2-z
1/2-x,1/2-y,1/2-z
1/2+x,y,1/2-z
1/2-x,1/2+y,1/2+z
1/2+x,-y,1/2+z
loop_
_atom_site_type_symbol
_atom_site_label
_atom_site_fract_x
_atom_site_fract_y
_atom_site_fract_z
Si Si1 0.169472 0.959486 0.048790
Si Si2 0.680167 0.565564 0.608755
Si Si3 0.173211 0.750000 0.543324
Si Si4 0.680811 0.364636 0.195785
Si Si5 0.325194 0.873600 0.985068
Si Si6 0.320148 0.250000 0.349449
O O1 0.000000 0.935523 0.059479
O O2 0.224078 0.999322 0.095947
O O3 0.278996 0.905338 0.037831
O O4 0.168153 0.000000 0.000000
O O5 0.500000 0.572045 0.618962
O O6 0.774838 0.583902 0.658033
O O7 0.720943 0.606541 0.561671
O O8 0.199781 0.805619 0.508035
O O9 0.287865 0.750000 0.590611
O O10 0.000000 0.750000 0.565404
O O11 0.500000 0.358946 0.199378
O O12 0.750000 0.380791 0.250000
O O13 0.749119 0.305337 0.176516
O O14 0.500000 0.888677 0.972213
O O15 0.500000 0.250000 0.339811
#
# Coordination Sequence:
#
# PCOD8297504 Si02
#       6
#    16  16   8  16  16   8
#     4   8  16  29  44  62  86 110 139 179 219 263
#     4  10  19  32  47  64  85 111 144 183 226 266
#     4  10  20  31  43  64  92 120 148 187 224 257
#     4  12  24  37  50  65  86 112 148 191 229 269
#     4  10  18  28  44  64  88 115 147 181 219 264
#     4  12  23  35  50  64  83 116 152 189 229 267
#
# _framework density 14.908592000000001
#
# number of rings (size 3 to 8) (size 9 to 14) (size 15 to 20)
#    0.000    1.800    2.000    5.400    0.000    5.200 
#    0.000    0.000    0.000    0.000    0.000    0.000 
#    0.000    0.000    0.000    0.900    0.000   11.600 
#
# Total GULP energy -495892.122773 kJ/mol
# GULP energy per Si atom -12397.303069 kJ/mol
# Density = 1.487466 g / cm^3
# Si number density = 14.908592 Si / 1000 Ang^3
#
#
#
# Elastic Constant Matrix: (Units=GPa)
#
#
# Indices 1 2 3 4 5 6 
#
# 1 99.2000 42.9800 35.4600 0.0000 0.0000 0.0000
# 2 42.9800 93.1191 53.0052 0.0000 0.0000 0.0000
# 3 35.4600 53.0052 66.6137 0.0000 0.0000 0.0000
# 4 0.0000 0.0000 0.0000 7.1206 0.0000 0.0000
# 5 0.0000 0.0000 0.0000 0.0000 22.2966 0.0000
# 6 0.0000 0.0000 0.0000 0.0000 0.0000 21.0265
#
#
#
# Elastic Compliance Matrix: (Units=1/GPa)
#
#
# Indices 1 2 3 4 5 6 
#
# 1 0.013150 -0.003811 -0.003968 0.000000 0.000000 0.000000
# 2 -0.003811 0.020735 -0.014470 0.000000 0.000000 0.000000
# 3 -0.003968 -0.014470 0.028638 0.000000 0.000000 0.000000
# 4 0.000000 0.000000 0.000000 0.140438 0.000000 0.000000
# 5 0.000000 0.000000 0.000000 0.000000 0.044850 0.000000
# 6 0.000000 0.000000 0.000000 0.000000 0.000000 0.047559
#
#
# Mechanical properties :
#
#
# Convention : Reuss Voigt Hill
#
# Bulk Modulus (GPa) = 55.47777 57.98035 56.72906
# Shear Modulus (GPa) = 14.45609 18.58793 16.52201
#
# Velocity S-wave (km/s) = 3.11730 3.53483 3.33261
# Velocity P-wave (km/s) = 7.08868 7.45889 7.27614
#
# Compressibility (1/GPa) = 0.01802524
#
# Stress axis : x y z
#
# Youngs Moduli (GPa) = 76.04498 48.22863 34.91889
#
# Poissons Ratio (x) = 0.18381 0.13854
# Poissons Ratio (y) = 0.28982 0.50527
# Poissons Ratio (z) = 0.30171 0.69787
#
# Static dielectric constant tensor:
#      x y z
#    x 3.043130 0.000000 0.000000 
#    y 0.000000 3.125770 0.000000 
#    z 0.000000 0.000000 2.811930 
# 
# 
# High freq. dielectric constant tensor:
#      x y z
#    x 1.587880 0.000000 0.000000 
#    y 0.000000 1.560860 0.000000 
#    z 0.000000 0.000000 1.527680 
# 
# From -- ./inp_files/48600.got.cif
#   From: 2010.03.12/outbox.cif.g09.slc.cpg/sg74_25_cif.got.tgz:48600.got - 2010.04.16 15:46:19.
