data_PCOD8297183
_publ_section_title
;
Structure prediction by ZEFSAII (Michael W. Deem and Ramdas Pophale) SiO2 
 PCOD8297183
Probable space group: I M M A
;
_chemical_formula_sum "Si O2"
_cell_formula_units_Z 88
_cell_length_a 19.764824
_cell_length_b 8.943100
_cell_length_c 27.250333
_cell_angle_alpha 90.000000
_cell_angle_beta 90.000000
_cell_angle_gamma 90.000000
_cell_volume 4816.736093
_symmetry_space_group_name_H-M "I M M A"
_symmetry_group_IT_number 74
_symmetry_cell_setting 'orthorhombic'
loop_
_space_group_symop_operation_xyz
x,y,z
-x,1/2-y,z
x,-y,-z
-x,1/2+y,-z
-x,-y,-z
x,1/2+y,-z
-x,y,z
x,1/2-y,z
1/2+x,1/2+y,1/2+z
1/2-x,-y,1/2+z
1/2+x,1/2-y,1/2-z
1/2-x,y,1/2-z
1/2-x,1/2-y,1/2-z
1/2+x,y,1/2-z
1/2-x,1/2+y,1/2+z
1/2+x,-y,1/2+z
loop_
_atom_site_type_symbol
_atom_site_label
_atom_site_fract_x
_atom_site_fract_y
_atom_site_fract_z
Si Si1 0.500000 0.412957 0.317216
Si Si2 0.146999 0.428581 0.176192
Si Si3 0.852606 0.584749 0.275555
Si Si4 0.364213 0.570764 0.946810
Si Si5 0.229815 0.072821 0.629527
Si Si6 0.000000 0.499727 0.710903
Si Si7 0.000000 0.083357 0.398475
O O1 0.500000 0.250000 0.341080
O O2 0.429828 0.491039 0.334094
O O3 0.500000 0.391696 0.257969
O O4 0.151584 0.250000 0.171425
O O5 0.167143 0.473709 0.231616
O O6 0.194550 0.510066 0.137062
O O7 0.826156 0.750000 0.261499
O O8 0.815149 0.524733 0.323854
O O9 0.932489 0.599622 0.286590
O O10 0.360685 0.750000 0.948802
O O11 0.299443 0.508438 0.918098
O O12 0.431936 0.507863 0.919762
O O13 0.362881 0.500000 0.000000
O O14 0.231171 0.250000 0.621337
O O15 0.000000 0.590103 0.660286
O O16 0.000000 0.250000 0.419191
#
# Coordination Sequence:
#
# PCOD8297183 Si02
#       7
#     8  16  16  16  16   8   8
#     4   8  17  31  50  75 108 139 174 218 261 312
#     4  10  20  34  53  77 105 141 178 218 266 321
#     4  10  20  32  48  73 106 142 182 224 265 312
#     4  11  23  40  58  80 106 140 183 231 279 323
#     4  11  22  36  53  76 106 140 178 224 272 323
#     4  10  16  31  49  74 103 146 188 224 263 308
#     4  10  20  34  55  79 106 140 186 233 273 315
#
# _framework density 18.269632999999999
#
# number of rings (size 3 to 8) (size 9 to 14) (size 15 to 20)
#    0.000    1.818    1.818    3.000    0.000    4.364 
#    0.000    2.727    0.000    0.000    0.000    0.636 
#    0.000    0.000    0.000    0.000    0.000    0.000 
#
# Total GULP energy -545380.769024 kJ/mol
# GULP energy per Si atom -12395.017478 kJ/mol
# Density = 1.822805 g / cm^3
# Si number density = 18.269633 Si / 1000 Ang^3
#
#
#
# Elastic Constant Matrix: (Units=GPa)
#
#
# Indices 1 2 3 4 5 6 
#
# 1 132.5102 32.4384 60.5399 0.0000 0.0000 0.0000
# 2 32.4384 78.5350 27.3492 0.0000 0.0000 0.0000
# 3 60.5399 27.3492 77.9602 0.0000 0.0000 0.0000
# 4 0.0000 0.0000 0.0000 27.7053 0.0000 0.0000
# 5 0.0000 0.0000 0.0000 0.0000 25.1857 0.0000
# 6 0.0000 0.0000 0.0000 0.0000 0.0000 18.7970
#
#
#
# Elastic Compliance Matrix: (Units=1/GPa)
#
#
# Indices 1 2 3 4 5 6 
#
# 1 0.011951 -0.001942 -0.008599 0.000000 0.000000 0.000000
# 2 -0.001942 0.014821 -0.003692 0.000000 0.000000 0.000000
# 3 -0.008599 -0.003692 0.020800 0.000000 0.000000 0.000000
# 4 0.000000 0.000000 0.000000 0.036094 0.000000 0.000000
# 5 0.000000 0.000000 0.000000 0.000000 0.039705 0.000000
# 6 0.000000 0.000000 0.000000 0.000000 0.000000 0.053200
#
#
# Mechanical properties :
#
#
# Convention : Reuss Voigt Hill
#
# Bulk Modulus (GPa) = 52.33791 58.85115 55.59453
# Shear Modulus (GPa) = 23.65149 25.58279 24.61714
#
# Velocity S-wave (km/s) = 3.60193 3.74610 3.67472
# Velocity P-wave (km/s) = 6.78293 7.14098 6.96426
#
# Compressibility (1/GPa) = 0.01910661
#
# Stress axis : x y z
#
# Youngs Moduli (GPa) = 83.67833 67.47332 48.07767
#
# Poissons Ratio (x) = 0.13100 0.41342
# Poissons Ratio (y) = 0.16246 0.17748
# Poissons Ratio (z) = 0.71955 0.24908
#
# Static dielectric constant tensor:
#      x y z
#    x 3.715550 0.000000 0.000000 
#    y 0.000000 3.177400 0.000000 
#    z 0.000000 0.000000 3.053290 
# 
# 
# High freq. dielectric constant tensor:
#      x y z
#    x 1.721420 0.000000 0.000000 
#    y 0.000000 1.701130 0.000000 
#    z 0.000000 0.000000 1.670230 
# 
# From -- ./inp_files/61510.got.cif
#   From: 2010.03.12/outbox.cif.g09.slc.cpg/sg74_31_cif.got.tgz:61510.got - 2010.04.16 15:46:19.
