data_PCOD8297330
_publ_section_title
;
Structure prediction by ZEFSAII (Michael W. Deem and Ramdas Pophale) SiO2 
 PCOD8297330
Probable space group: I M M A
;
_chemical_formula_sum "Si O2"
_cell_formula_units_Z 80
_cell_length_a 24.933934
_cell_length_b 8.697422
_cell_length_c 20.965171
_cell_angle_alpha 90.000000
_cell_angle_beta 90.000000
_cell_angle_gamma 90.000000
_cell_volume 4546.526819
_symmetry_space_group_name_H-M "I M M A"
_symmetry_group_IT_number 74
_symmetry_cell_setting 'orthorhombic'
loop_
_space_group_symop_operation_xyz
x,y,z
-x,1/2-y,z
x,-y,-z
-x,1/2+y,-z
-x,-y,-z
x,1/2+y,-z
-x,y,z
x,1/2-y,z
1/2+x,1/2+y,1/2+z
1/2-x,-y,1/2+z
1/2+x,1/2-y,1/2-z
1/2-x,y,1/2-z
1/2-x,1/2-y,1/2-z
1/2+x,y,1/2-z
1/2-x,1/2+y,1/2+z
1/2+x,-y,1/2+z
loop_
_atom_site_type_symbol
_atom_site_label
_atom_site_fract_x
_atom_site_fract_y
_atom_site_fract_z
Si Si1 0.000000 0.919336 0.115474
Si Si2 0.719794 0.432329 0.434211
Si Si3 0.000000 0.420704 0.732858
Si Si4 0.615217 0.934151 0.380044
Si Si5 0.719786 0.929353 0.811125
Si Si6 0.391716 0.070922 0.242860
O O1 0.943523 0.998341 0.095649
O O2 0.000000 0.750000 0.085637
O O3 0.000000 0.910437 0.191583
O O4 0.742832 0.500000 0.500000
O O5 0.720285 0.250000 0.437649
O O6 0.659129 0.490828 0.425334
O O7 0.756854 0.498556 0.376933
O O8 0.946405 0.509650 0.710560
O O9 0.000000 0.250000 0.702716
O O10 0.617244 0.750000 0.383522
O O11 0.624566 0.983851 0.307296
O O12 0.733441 0.750000 0.811534
O O13 0.750000 0.004103 0.750000
O O14 0.656123 0.959545 0.807451
O O15 0.397856 0.250000 0.259107
#
# Coordination Sequence:
#
# PCOD8297330 Si02
#       6
#     8  16   8  16  16  16
#     4   7  14  27  44  64  93 128 163 202 244 286
#     4  11  22  37  53  72 101 135 172 213 259 310
#     4   9  17  29  43  70 109 136 159 206 260 300
#     4  10  18  31  49  72 101 134 168 211 260 300
#     4   9  17  32  53  76 102 132 168 213 257 302
#     4  10  17  29  51  76 100 134 173 207 250 305
#
# _framework density 17.595849000000001
#
# number of rings (size 3 to 8) (size 9 to 14) (size 15 to 20)
#    0.000    2.400    2.000    3.300    0.000    0.000 
#    0.000    7.000    0.000    0.000    0.000    0.700 
#    0.000    0.000    0.000    0.000    0.000    0.000 
#
# Total GULP energy -495717.587514 kJ/mol
# GULP energy per Si atom -12392.939688 kJ/mol
# Density = 1.755580 g / cm^3
# Si number density = 17.595849 Si / 1000 Ang^3
#
#
#
# Elastic Constant Matrix: (Units=GPa)
#
#
# Indices 1 2 3 4 5 6 
#
# 1 118.6178 31.2855 55.4093 0.0000 0.0000 0.0000
# 2 31.2855 63.5249 23.9200 0.0000 0.0000 0.0000
# 3 55.4093 23.9200 98.9487 0.0000 0.0000 0.0000
# 4 0.0000 0.0000 0.0000 19.1643 0.0000 0.0000
# 5 0.0000 0.0000 0.0000 0.0000 18.4164 0.0000
# 6 0.0000 0.0000 0.0000 0.0000 0.0000 19.7859
#
#
#
# Elastic Compliance Matrix: (Units=1/GPa)
#
#
# Indices 1 2 3 4 5 6 
#
# 1 0.012188 -0.003776 -0.005912 0.000000 0.000000 0.000000
# 2 -0.003776 0.018488 -0.002355 0.000000 0.000000 0.000000
# 3 -0.005912 -0.002355 0.013986 0.000000 0.000000 0.000000
# 4 0.000000 0.000000 0.000000 0.052180 0.000000 0.000000
# 5 0.000000 0.000000 0.000000 0.000000 0.054300 0.000000
# 6 0.000000 0.000000 0.000000 0.000000 0.000000 0.050541
#
#
# Mechanical properties :
#
#
# Convention : Reuss Voigt Hill
#
# Bulk Modulus (GPa) = 48.60002 55.81344 52.20673
# Shear Modulus (GPa) = 21.49346 22.83843 22.16594
#
# Velocity S-wave (km/s) = 3.49880 3.60661 3.55311
# Velocity P-wave (km/s) = 6.63342 7.00942 6.82401
#
# Compressibility (1/GPa) = 0.02057612
#
# Stress axis : x y z
#
# Youngs Moduli (GPa) = 82.04643 54.08813 71.49897
#
# Poissons Ratio (x) = 0.20426 0.42272
# Poissons Ratio (y) = 0.30984 0.16836
# Poissons Ratio (z) = 0.48508 0.12736
#
# Static dielectric constant tensor:
#      x y z
#    x 3.634450 0.000000 0.000000 
#    y 0.000000 3.160040 0.000000 
#    z 0.000000 0.000000 3.024940 
# 
# 
# High freq. dielectric constant tensor:
#      x y z
#    x 1.692580 0.000000 0.000000 
#    y 0.000000 1.668260 0.000000 
#    z 0.000000 0.000000 1.632770 
# 
# From -- ./inp_files/39845.got.cif
#   From: 2010.03.12/outbox.cif.g09.slc.cpg/sg74_20_cif.got.tgz:39845.got - 2010.04.16 15:46:19.
