data_PCOD8297408
_publ_section_title
;
Structure prediction by ZEFSAII (Michael W. Deem and Ramdas Pophale) SiO2 
 PCOD8297408
Probable space group: I M M A
;
_chemical_formula_sum "Si O2"
_cell_formula_units_Z 80
_cell_length_a 8.921952
_cell_length_b 25.328363
_cell_length_c 20.857569
_cell_angle_alpha 90.000000
_cell_angle_beta 90.000000
_cell_angle_gamma 90.000000
_cell_volume 4713.360882
_symmetry_space_group_name_H-M "I M M A"
_symmetry_group_IT_number 74
_symmetry_cell_setting 'orthorhombic'
loop_
_space_group_symop_operation_xyz
x,y,z
-x,1/2-y,z
x,-y,-z
-x,1/2+y,-z
-x,-y,-z
x,1/2+y,-z
-x,y,z
x,1/2-y,z
1/2+x,1/2+y,1/2+z
1/2-x,-y,1/2+z
1/2+x,1/2-y,1/2-z
1/2-x,y,1/2-z
1/2-x,1/2-y,1/2-z
1/2+x,y,1/2-z
1/2-x,1/2+y,1/2+z
1/2+x,-y,1/2+z
loop_
_atom_site_type_symbol
_atom_site_label
_atom_site_fract_x
_atom_site_fract_y
_atom_site_fract_z
Si Si1 0.673950 0.136834 0.126912
Si Si2 0.322861 0.144838 0.981419
Si Si3 0.673865 0.250000 0.118310
Si Si4 0.678039 0.469322 0.184362
Si Si5 0.177518 0.468084 0.560808
Si Si6 0.676103 0.750000 0.482976
O O1 0.500000 0.123618 0.123013
O O2 0.704747 0.195527 0.157694
O O3 0.743095 0.089921 0.169708
O O4 0.735172 0.136064 0.054282
O O5 0.500000 0.154015 0.979610
O O6 0.273726 0.093263 0.941330
O O7 0.243983 0.196697 0.951120
O O8 0.500000 0.250000 0.094504
O O9 0.780759 0.250000 0.057408
O O10 0.500000 0.470876 0.191411
O O11 0.750000 0.489792 0.250000
O O12 0.735541 0.507071 0.127210
O O13 0.245444 0.500000 0.500000
O O14 0.000000 0.473006 0.557350
O O15 0.500000 0.750000 0.473150
#
# Coordination Sequence:
#
# PCOD8297408 Si02
#       6
#    16  16   8  16  16   8
#     4   8  13  24  44  65  86 113 153 196 229 260
#     4   9  15  27  48  70  88 115 157 200 230 260
#     4   8  14  26  45  65  81 113 163 207 230 251
#     4  10  19  31  46  67  95 125 154 192 238 282
#     4   9  15  27  51  75  90 113 161 209 232 258
#     4  10  18  26  38  65 102 127 141 175 237 295
#
# _framework density 16.973025
#
# number of rings (size 3 to 8) (size 9 to 14) (size 15 to 20)
#    0.000    3.000    2.000    2.100    0.000    0.000 
#    0.000    5.500    0.000    1.200    0.000    0.700 
#    0.000    0.000    0.000    0.000    0.000    0.000 
#
# Total GULP energy -495523.575620 kJ/mol
# GULP energy per Si atom -12388.089391 kJ/mol
# Density = 1.693439 g / cm^3
# Si number density = 16.973025 Si / 1000 Ang^3
#
#
#
# Elastic Constant Matrix: (Units=GPa)
#
#
# Indices 1 2 3 4 5 6 
#
# 1 36.0051 34.4402 18.1548 0.0000 0.0000 0.0000
# 2 34.4402 156.4599 63.5501 0.0000 0.0000 0.0000
# 3 18.1548 63.5501 91.2022 -0.0001 0.0000 0.0000
# 4 0.0000 0.0000 -0.0001 18.4641 0.0000 0.0000
# 5 0.0000 0.0000 0.0000 0.0000 15.8193 0.0000
# 6 0.0000 0.0000 0.0000 0.0000 0.0000 9.6421
#
#
#
# Elastic Compliance Matrix: (Units=1/GPa)
#
#
# Indices 1 2 3 4 5 6 
#
# 1 0.035513 -0.006898 -0.002263 0.000000 0.000000 0.000000
# 2 -0.006898 0.010254 -0.005772 0.000000 0.000000 0.000000
# 3 -0.002263 -0.005772 0.015437 0.000000 0.000000 0.000000
# 4 0.000000 0.000000 0.000000 0.054159 0.000000 0.000000
# 5 0.000000 0.000000 0.000000 0.000000 0.063214 0.000000
# 6 0.000000 0.000000 0.000000 0.000000 0.000000 0.103711
#
#
# Mechanical properties :
#
#
# Convention : Reuss Voigt Hill
#
# Bulk Modulus (GPa) = 31.90938 57.32858 44.61898
# Shear Modulus (GPa) = 15.49902 19.95325 17.72614
#
# Velocity S-wave (km/s) = 3.02513 3.43240 3.23518
# Velocity P-wave (km/s) = 5.57160 7.03975 6.34826
#
# Compressibility (1/GPa) = 0.03133875
#
# Stress axis : x y z
#
# Youngs Moduli (GPa) = 28.15863 97.51971 64.77917
#
# Poissons Ratio (x) = 0.67271 0.14657
# Poissons Ratio (y) = 0.19424 0.37391
# Poissons Ratio (z) = 0.06371 0.56289
#
# Static dielectric constant tensor:
#      x y z
#    x 2.692920 0.000000 0.000000 
#    y 0.000000 3.737220 0.000000 
#    z 0.000000 0.000000 2.848820 
# 
# 
# High freq. dielectric constant tensor:
#      x y z
#    x 1.608220 0.000000 0.000000 
#    y 0.000000 1.677810 0.000000 
#    z 0.000000 0.000000 1.600940 
# 
# From -- ./inp_files/48979.got.cif
#   From: 2010.03.12/outbox.cif.g09.slc.cpg/sg74_25_cif.got.tgz:48979.got - 2010.04.16 15:46:19.
