data_PCOD8297299
_publ_section_title
;
Structure prediction by ZEFSAII (Michael W. Deem and Ramdas Pophale) SiO2 
 PCOD8297299
Probable space group: I M M A
;
_chemical_formula_sum "Si O2"
_cell_formula_units_Z 120
_cell_length_a 23.077706
_cell_length_b 16.891233
_cell_length_c 20.592290
_cell_angle_alpha 90.000000
_cell_angle_beta 90.000000
_cell_angle_gamma 90.000000
_cell_volume 8027.099286
_symmetry_space_group_name_H-M "I M M A"
_symmetry_group_IT_number 74
_symmetry_cell_setting 'orthorhombic'
loop_
_space_group_symop_operation_xyz
x,y,z
-x,1/2-y,z
x,-y,-z
-x,1/2+y,-z
-x,-y,-z
x,1/2+y,-z
-x,y,z
x,1/2-y,z
1/2+x,1/2+y,1/2+z
1/2-x,-y,1/2+z
1/2+x,1/2-y,1/2-z
1/2-x,y,1/2-z
1/2-x,1/2-y,1/2-z
1/2+x,y,1/2-z
1/2-x,1/2+y,1/2+z
1/2+x,-y,1/2+z
loop_
_atom_site_type_symbol
_atom_site_label
_atom_site_fract_x
_atom_site_fract_y
_atom_site_fract_z
Si Si1 0.174311 0.840193 0.943039
Si Si2 0.750000 0.939296 0.250000
Si Si3 0.434550 0.591552 0.489899
Si Si4 0.564302 0.842054 0.217917
Si Si5 0.822376 0.343719 0.646724
Si Si6 0.248611 0.926227 0.458206
Si Si7 0.821976 0.518134 0.856264
Si Si8 0.564799 0.564413 0.346214
O O1 0.180837 0.750000 0.921825
O O2 0.188194 0.892023 0.879033
O O3 0.109584 0.854757 0.969797
O O4 0.221920 0.859842 0.997464
O O5 0.785300 0.880534 0.295536
O O6 0.790897 0.999789 0.211300
O O7 0.416745 0.500000 0.500000
O O8 0.500000 0.606262 0.515801
O O9 0.430926 0.613611 0.413473
O O10 0.500000 0.869696 0.195333
O O11 0.565377 0.750000 0.232429
O O12 0.610078 0.863014 0.161260
O O13 0.582244 0.880149 0.286310
O O14 0.810533 0.250000 0.642559
O O15 0.805035 0.385957 0.579402
O O16 0.223948 0.000000 0.500000
O O17 0.298747 0.956924 0.410271
O O18 0.890884 0.508424 0.847863
O O19 0.500000 0.529602 0.338037
#
# Coordination Sequence:
#
# PCOD8297299 Si02
#       8
#    16   8  16  16  16  16  16  16
#     4  11  20  30  44  62  86 115 150 192 222 252
#     4  10  19  30  45  64  90 116 146 184 219 268
#     4  10  18  29  43  59  83 118 153 184 218 257
#     4   9  18  30  43  65  95 119 140 172 216 263
#     4  10  18  28  46  71  92 113 143 182 221 259
#     4   9  18  32  46  62  89 119 147 174 217 269
#     4  10  18  32  45  63  83 116 149 178 222 266
#     4  10  17  28  45  60  85 122 153 175 208 261
#
# _framework density 14.94936
#
# number of rings (size 3 to 8) (size 9 to 14) (size 15 to 20)
#    0.000    2.133    4.000    1.000    0.000    0.800 
#    0.000    1.667    0.000    0.400    0.000    0.000 
#    0.000    0.000    0.000    0.000    0.000    0.000 
#
# Total GULP energy -743804.920567 kJ/mol
# GULP energy per Si atom -12396.748676 kJ/mol
# Density = 1.491533 g / cm^3
# Si number density = 14.949360 Si / 1000 Ang^3
#
#
#
# Elastic Constant Matrix: (Units=GPa)
#
#
# Indices 1 2 3 4 5 6 
#
# 1 78.1135 39.4676 43.7679 0.0000 0.0000 0.0000
# 2 39.4676 84.6982 37.6256 0.0000 0.0000 0.0000
# 3 43.7679 37.6256 70.7663 0.0000 0.0000 0.0000
# 4 0.0000 0.0000 0.0000 22.6991 0.0000 0.0000
# 5 0.0000 0.0000 0.0000 0.0000 23.6087 0.0000
# 6 0.0000 0.0000 0.0000 0.0000 0.0000 16.7893
#
#
#
# Elastic Compliance Matrix: (Units=1/GPa)
#
#
# Indices 1 2 3 4 5 6 
#
# 1 0.021282 -0.005328 -0.010330 0.000000 0.000000 0.000000
# 2 -0.005328 0.016792 -0.005633 0.000000 0.000000 0.000000
# 3 -0.010330 -0.005633 0.023514 0.000000 0.000000 0.000000
# 4 0.000000 0.000000 0.000000 0.044055 0.000000 0.000000
# 5 0.000000 0.000000 0.000000 0.000000 0.042357 0.000000
# 6 0.000000 0.000000 0.000000 0.000000 0.000000 0.059562
#
#
# Mechanical properties :
#
#
# Convention : Reuss Voigt Hill
#
# Bulk Modulus (GPa) = 52.61115 52.81113 52.71114
# Shear Modulus (GPa) = 19.49489 20.13388 19.81439
#
# Velocity S-wave (km/s) = 3.61510 3.67387 3.64460
# Velocity P-wave (km/s) = 7.25910 7.30751 7.28335
#
# Compressibility (1/GPa) = 0.01900738
#
# Stress axis : x y z
#
# Youngs Moduli (GPa) = 46.98862 59.55369 42.52708
#
# Poissons Ratio (x) = 0.31731 0.43929
# Poissons Ratio (y) = 0.25036 0.23953
# Poissons Ratio (z) = 0.48537 0.33544
#
# Static dielectric constant tensor:
#      x y z
#    x 3.047160 0.000000 0.000000 
#    y 0.000000 2.701140 0.000000 
#    z 0.000000 0.000000 2.884770 
# 
# 
# High freq. dielectric constant tensor:
#      x y z
#    x 1.573920 0.000000 0.000000 
#    y 0.000000 1.549440 0.000000 
#    z 0.000000 0.000000 1.557050 
# 
# From -- ./inp_files/54826.got.cif
#   From: 2010.03.12/outbox.cif.g09.slc.cpg/sg74_28_cif.got.tgz:54826.got - 2010.04.16 15:46:19.
