data_PCOD8297631
_publ_section_title
;
Structure prediction by ZEFSAII (Michael W. Deem and Ramdas Pophale) SiO2 
 PCOD8297631
Probable space group: I M M A
;
_chemical_formula_sum "Si O2"
_cell_formula_units_Z 96
_cell_length_a 18.132472
_cell_length_b 16.683900
_cell_length_c 18.602898
_cell_angle_alpha 90.000000
_cell_angle_beta 90.000000
_cell_angle_gamma 90.000000
_cell_volume 5627.755207
_symmetry_space_group_name_H-M "I M M A"
_symmetry_group_IT_number 74
_symmetry_cell_setting 'orthorhombic'
loop_
_space_group_symop_operation_xyz
x,y,z
-x,1/2-y,z
x,-y,-z
-x,1/2+y,-z
-x,-y,-z
x,1/2+y,-z
-x,y,z
x,1/2-y,z
1/2+x,1/2+y,1/2+z
1/2-x,-y,1/2+z
1/2+x,1/2-y,1/2-z
1/2-x,y,1/2-z
1/2-x,1/2-y,1/2-z
1/2+x,y,1/2-z
1/2-x,1/2+y,1/2+z
1/2+x,-y,1/2+z
loop_
_atom_site_type_symbol
_atom_site_label
_atom_site_fract_x
_atom_site_fract_y
_atom_site_fract_z
Si Si1 0.915073 0.938905 0.145069
Si Si2 0.585893 0.513846 0.797483
Si Si3 0.193405 0.978151 0.421829
Si Si4 0.834097 0.584338 0.910688
Si Si5 0.166316 0.841146 0.763692
Si Si6 0.306087 0.343261 0.561439
O O1 0.866235 0.862119 0.123203
O O2 0.000000 0.916895 0.134757
O O3 0.896492 0.960689 0.227445
O O4 0.894578 0.013642 0.093431
O O5 0.500000 0.515248 0.815682
O O6 0.627698 0.475423 0.864843
O O7 0.612548 0.604597 0.784222
O O8 0.230452 0.890420 0.423252
O O9 0.160351 0.000000 0.500000
O O10 0.253715 0.044775 0.400452
O O11 0.849727 0.648359 0.848228
O O12 0.841352 0.629594 0.985832
O O13 0.151365 0.750000 0.740691
O O14 0.250000 0.867179 0.750000
O O15 0.287103 0.250000 0.560935
#
# Coordination Sequence:
#
# PCOD8297631 Si02
#       6
#    16  16  16  16  16  16
#     4   9  19  33  50  72 101 137 171 205 248 300
#     4  10  20  35  53  73 100 134 171 209 246 295
#     4   9  18  34  53  74  98 128 168 208 250 304
#     4   9  17  31  51  74 103 134 166 200 240 304
#     4  10  18  29  51  79 105 133 160 194 245 302
#     4  10  20  32  50  75 102 130 168 218 255 291
#
# _framework density 17.058311
#
# number of rings (size 3 to 8) (size 9 to 14) (size 15 to 20)
#    0.000    2.500    1.667    2.000    0.000    2.333 
#    0.000    1.667    0.000    4.500    0.000    0.000 
#    0.000    0.000    0.000    0.000    0.000    0.000 
#
# Total GULP energy -595215.262217 kJ/mol
# GULP energy per Si atom -12400.317963 kJ/mol
# Density = 1.701949 g / cm^3
# Si number density = 17.058311 Si / 1000 Ang^3
#
#
#
# Elastic Constant Matrix: (Units=GPa)
#
#
# Indices 1 2 3 4 5 6 
#
# 1 88.8445 43.1321 60.1978 0.0000 0.0000 0.0000
# 2 43.1321 97.2318 50.7870 0.0000 0.0000 0.0000
# 3 60.1978 50.7870 105.4684 0.0000 0.0000 0.0000
# 4 0.0000 0.0000 0.0000 17.4678 0.0000 0.0000
# 5 0.0000 0.0000 0.0000 0.0000 27.3035 0.0000
# 6 0.0000 0.0000 0.0000 0.0000 0.0000 17.0082
#
#
#
# Elastic Compliance Matrix: (Units=1/GPa)
#
#
# Indices 1 2 3 4 5 6 
#
# 1 0.019329 -0.003757 -0.009223 0.000000 0.000000 0.000000
# 2 -0.003757 0.014471 -0.004824 0.000000 0.000000 0.000000
# 3 -0.009223 -0.004824 0.017069 0.000000 0.000000 0.000000
# 4 0.000000 0.000000 0.000000 0.057248 0.000000 0.000000
# 5 0.000000 0.000000 0.000000 0.000000 0.036625 0.000000
# 6 0.000000 0.000000 0.000000 0.000000 0.000000 0.058795
#
#
# Mechanical properties :
#
#
# Convention : Reuss Voigt Hill
#
# Bulk Modulus (GPa) = 65.52881 66.64206 66.08544
# Shear Modulus (GPa) = 20.47235 21.51776 20.99506
#
# Velocity S-wave (km/s) = 3.46806 3.55551 3.51206
# Velocity P-wave (km/s) = 7.38475 7.48382 7.43445
#
# Compressibility (1/GPa) = 0.01526046
#
# Stress axis : x y z
#
# Youngs Moduli (GPa) = 51.73649 69.10403 58.58638
#
# Poissons Ratio (x) = 0.25960 0.54035
# Poissons Ratio (y) = 0.19436 0.28263
# Poissons Ratio (z) = 0.47718 0.33337
#
# Static dielectric constant tensor:
#      x y z
#    x 3.041250 0.000000 0.000000 
#    y 0.000000 2.994050 0.000000 
#    z 0.000000 0.000000 3.271380 
# 
# 
# High freq. dielectric constant tensor:
#      x y z
#    x 1.642130 0.000000 0.000000 
#    y 0.000000 1.641840 0.000000 
#    z 0.000000 0.000000 1.662920 
# 
# From -- ./inp_files/44126.got.cif
#   From: 2010.03.12/outbox.cif.g09.slc.cpg/sg74_23_cif.got.tgz:44126.got - 2010.04.16 15:46:19.
