data_PCOD8297706
_publ_section_title
;
Structure prediction by ZEFSAII (Michael W. Deem and Ramdas Pophale) SiO2 
 PCOD8297706
Probable space group: I M M A
;
_chemical_formula_sum "Si O2"
_cell_formula_units_Z 96
_cell_length_a 9.098554
_cell_length_b 23.546170
_cell_length_c 25.066861
_cell_angle_alpha 90.000000
_cell_angle_beta 90.000000
_cell_angle_gamma 90.000000
_cell_volume 5370.226521
_symmetry_space_group_name_H-M "I M M A"
_symmetry_group_IT_number 74
_symmetry_cell_setting 'orthorhombic'
loop_
_space_group_symop_operation_xyz
x,y,z
-x,1/2-y,z
x,-y,-z
-x,1/2+y,-z
-x,-y,-z
x,1/2+y,-z
-x,y,z
x,1/2-y,z
1/2+x,1/2+y,1/2+z
1/2-x,-y,1/2+z
1/2+x,1/2-y,1/2-z
1/2-x,y,1/2-z
1/2-x,1/2-y,1/2-z
1/2+x,y,1/2-z
1/2-x,1/2+y,1/2+z
1/2+x,-y,1/2+z
loop_
_atom_site_type_symbol
_atom_site_label
_atom_site_fract_x
_atom_site_fract_y
_atom_site_fract_z
Si Si1 0.171389 0.872712 0.411216
Si Si2 0.840877 0.503712 0.440007
Si Si3 0.829999 0.425251 0.695760
Si Si4 0.829367 0.185092 0.004722
Si Si5 0.171658 0.555522 0.694379
Si Si6 0.172775 0.599923 0.903445
O O1 0.219902 0.933823 0.431657
O O2 0.212393 0.876789 0.348058
O O3 0.256670 0.827030 0.446974
O O4 0.000000 0.860096 0.418866
O O5 0.886599 0.500000 0.500000
O O6 0.709296 0.461134 0.427710
O O7 0.000000 0.492885 0.408539
O O8 0.750000 0.409488 0.750000
O O9 0.793806 0.490017 0.675455
O O10 0.000000 0.422192 0.709256
O O11 0.797018 0.250000 0.019834
O O12 0.000000 0.172421 0.997251
O O13 0.769591 0.147575 0.054521
O O14 0.250000 0.567070 0.750000
O O15 0.237934 0.601278 0.652359
O O16 0.000000 0.566996 0.701929
O O17 0.000000 0.606515 0.892363
#
# Coordination Sequence:
#
# PCOD8297706 Si02
#       6
#    16  16  16  16  16  16
#     4  10  19  33  53  77 105 137 173 212 259 312
#     4  10  18  30  48  73 107 140 166 205 263 317
#     4   9  18  31  48  74 108 141 169 202 248 304
#     4  10  23  40  54  73 103 138 177 223 270 310
#     4  10  19  33  51  76 111 145 173 208 254 309
#     4  11  21  32  51  77 105 139 176 213 258 316
#
# _framework density 17.876342000000001
#
# number of rings (size 3 to 8) (size 9 to 14) (size 15 to 20)
#    0.000    2.000    3.333    1.000    0.000    3.333 
#    0.000    0.000    0.000    1.000    0.000    0.000 
#    0.000    0.000    0.000    0.000    0.000    0.000 
#
# Total GULP energy -594673.537252 kJ/mol
# GULP energy per Si atom -12389.032026 kJ/mol
# Density = 1.783565 g / cm^3
# Si number density = 17.876342 Si / 1000 Ang^3
#
#
#
# Elastic Constant Matrix: (Units=GPa)
#
#
# Indices 1 2 3 4 5 6 
#
# 1 69.0752 24.3318 50.7408 0.0000 0.0000 0.0000
# 2 24.3318 44.9036 30.5300 0.0000 0.0000 0.0000
# 3 50.7408 30.5300 120.1846 0.0000 0.0000 0.0000
# 4 0.0000 0.0000 0.0000 13.6738 0.0000 0.0000
# 5 0.0000 0.0000 0.0000 0.0000 34.6726 0.0000
# 6 0.0000 0.0000 0.0000 0.0000 0.0000 20.1209
#
#
#
# Elastic Compliance Matrix: (Units=1/GPa)
#
#
# Indices 1 2 3 4 5 6 
#
# 1 0.022661 -0.006980 -0.007794 0.000000 0.000000 0.000000
# 2 -0.006980 0.029069 -0.004437 0.000000 0.000000 0.000000
# 3 -0.007794 -0.004437 0.012738 0.000000 0.000000 0.000000
# 4 0.000000 0.000000 0.000000 0.073132 0.000000 0.000000
# 5 0.000000 0.000000 0.000000 0.000000 0.028841 0.000000
# 6 0.000000 0.000000 0.000000 0.000000 0.000000 0.049700
#
#
# Mechanical properties :
#
#
# Convention : Reuss Voigt Hill
#
# Bulk Modulus (GPa) = 38.39451 49.48540 43.93996
# Shear Modulus (GPa) = 18.99357 22.26419 20.62888
#
# Velocity S-wave (km/s) = 3.26313 3.53293 3.40071
# Velocity P-wave (km/s) = 5.97678 6.66215 6.32875
#
# Compressibility (1/GPa) = 0.02604539
#
# Stress axis : x y z
#
# Youngs Moduli (GPa) = 44.12843 34.40071 78.50283
#
# Poissons Ratio (x) = 0.24012 0.61187
# Poissons Ratio (y) = 0.30802 0.34835
# Poissons Ratio (z) = 0.34395 0.15265
#
# Static dielectric constant tensor:
#      x y z
#    x 3.197350 0.000000 0.000000 
#    y 0.000000 3.000610 0.000000 
#    z 0.000000 0.000000 3.571920 
# 
# 
# High freq. dielectric constant tensor:
#      x y z
#    x 1.690660 0.000000 0.000000 
#    y 0.000000 1.644750 0.000000 
#    z 0.000000 0.000000 1.710790 
# 
# From -- ./inp_files/64656.got.cif
#   From: 2010.03.12/outbox.cif.g09.slc.cpg/sg74_33_cif.got.tgz:64656.got - 2010.04.16 15:46:19.
