data_PCOD8297513
_publ_section_title
;
Structure prediction by ZEFSAII (Michael W. Deem and Ramdas Pophale) SiO2 
 PCOD8297513
Probable space group: I M M A
;
_chemical_formula_sum "Si O2"
_cell_formula_units_Z 96
_cell_length_a 9.170078
_cell_length_b 22.585015
_cell_length_c 27.625391
_cell_angle_alpha 90.000000
_cell_angle_beta 90.000000
_cell_angle_gamma 90.000000
_cell_volume 5721.393875
_symmetry_space_group_name_H-M "I M M A"
_symmetry_group_IT_number 74
_symmetry_cell_setting 'orthorhombic'
loop_
_space_group_symop_operation_xyz
x,y,z
-x,1/2-y,z
x,-y,-z
-x,1/2+y,-z
-x,-y,-z
x,1/2+y,-z
-x,y,z
x,1/2-y,z
1/2+x,1/2+y,1/2+z
1/2-x,-y,1/2+z
1/2+x,1/2-y,1/2-z
1/2-x,y,1/2-z
1/2-x,1/2-y,1/2-z
1/2+x,y,1/2-z
1/2-x,1/2+y,1/2+z
1/2+x,-y,1/2+z
loop_
_atom_site_type_symbol
_atom_site_label
_atom_site_fract_x
_atom_site_fract_y
_atom_site_fract_z
Si Si1 0.326774 0.988577 0.200015
Si Si2 0.831212 0.376534 0.642903
Si Si3 0.828377 0.630517 0.966399
Si Si4 0.825336 0.250000 0.985056
Si Si5 0.330761 0.750000 0.118076
Si Si6 0.834346 0.067006 0.940468
Si Si7 0.668631 0.050594 0.384539
O O1 0.500000 0.993995 0.205700
O O2 0.250000 0.004144 0.250000
O O3 0.274337 0.922099 0.184233
O O4 0.271565 0.036774 0.160974
O O5 0.797263 0.307084 0.652528
O O6 0.760738 0.389623 0.591742
O O7 0.000000 0.389600 0.637336
O O8 0.775844 0.610240 0.912410
O O9 0.000000 0.636198 0.962683
O O10 0.765631 0.693427 0.984585
O O11 0.785793 0.578570 0.004336
O O12 0.763126 0.250000 0.930781
O O13 0.000000 0.250000 0.980515
O O14 0.500000 0.750000 0.102273
O O15 0.000000 0.087841 0.932971
O O16 0.814109 0.999342 0.925673
O O17 0.500000 0.054978 0.367169
#
# Coordination Sequence:
#
# PCOD8297513 Si02
#       7
#    16  16  16   8   8  16  16
#     4  10  20  35  52  70  90 114 148 194 244 288
#     4   9  18  30  45  65  91 122 156 191 230 272
#     4   9  16  26  42  67  97 126 157 189 221 261
#     4  10  18  28  44  67  96 131 165 194 217 251
#     4  10  18  30  45  63  91 129 163 190 224 265
#     4   9  15  25  43  65  91 123 157 189 221 262
#     4   9  17  29  46  68  93 122 153 187 230 276
#
# _framework density 16.779129000000001
#
# number of rings (size 3 to 8) (size 9 to 14) (size 15 to 20)
#    0.000    2.667    1.667    1.000    0.000    2.667 
#    0.000    2.083    0.000    4.000    0.000    0.583 
#    0.000    0.000    0.000    0.000    0.000    0.000 
#
# Total GULP energy -594649.680219 kJ/mol
# GULP energy per Si atom -12388.535005 kJ/mol
# Density = 1.674094 g / cm^3
# Si number density = 16.779129 Si / 1000 Ang^3
#
#
#
# Elastic Constant Matrix: (Units=GPa)
#
#
# Indices 1 2 3 4 5 6 
#
# 1 27.8404 12.9160 25.9823 0.0000 0.0000 0.0000
# 2 12.9160 49.9619 36.8242 0.0000 0.0000 0.0000
# 3 25.9823 36.8242 100.9762 0.0000 0.0000 0.0000
# 4 0.0000 0.0000 0.0000 15.4949 0.0000 0.0000
# 5 0.0000 0.0000 0.0000 0.0000 21.1360 0.0000
# 6 0.0000 0.0000 0.0000 0.0000 0.0000 15.3275
#
#
#
# Elastic Compliance Matrix: (Units=1/GPa)
#
#
# Indices 1 2 3 4 5 6 
#
# 1 0.048006 -0.004521 -0.010704 0.000000 0.000000 0.000000
# 2 -0.004521 0.027799 -0.008974 0.000000 0.000000 0.000000
# 3 -0.010704 -0.008974 0.015930 0.000000 0.000000 0.000000
# 4 0.000000 0.000000 0.000000 0.064537 0.000000 0.000000
# 5 0.000000 0.000000 0.000000 0.000000 0.047313 0.000000
# 6 0.000000 0.000000 0.000000 0.000000 0.000000 0.065242
#
#
# Mechanical properties :
#
#
# Convention : Reuss Voigt Hill
#
# Bulk Modulus (GPa) = 23.07533 36.69149 29.88341
# Shear Modulus (GPa) = 15.07523 17.26210 16.16867
#
# Velocity S-wave (km/s) = 3.00067 3.21095 3.10759
# Velocity P-wave (km/s) = 5.07815 5.97174 5.54298
#
# Compressibility (1/GPa) = 0.04333632
#
# Stress axis : x y z
#
# Youngs Moduli (GPa) = 20.83083 35.97316 62.77384
#
# Poissons Ratio (x) = 0.16264 0.67190
# Poissons Ratio (y) = 0.09418 0.56335
# Poissons Ratio (z) = 0.22296 0.32283
#
# Static dielectric constant tensor:
#      x y z
#    x 3.002040 0.000000 0.000000 
#    y 0.000000 3.686490 0.000000 
#    z 0.000000 0.000000 3.028240 
# 
# 
# High freq. dielectric constant tensor:
#      x y z
#    x 1.627900 0.000000 0.000000 
#    y 0.000000 1.637720 0.000000 
#    z 0.000000 0.000000 1.624490 
# 
# From -- ./inp_files/64735.got.cif
#   From: 2010.03.12/outbox.cif.g09.slc.cpg/sg74_33_cif.got.tgz:64735.got - 2010.04.16 15:46:19.
