data_PCOD8297409
_publ_section_title
;
Structure prediction by ZEFSAII (Michael W. Deem and Ramdas Pophale) SiO2 
 PCOD8297409
Probable space group: I M M A
;
_chemical_formula_sum "Si O2"
_cell_formula_units_Z 120
_cell_length_a 23.768637
_cell_length_b 15.053146
_cell_length_c 22.008289
_cell_angle_alpha 90.000000
_cell_angle_beta 90.000000
_cell_angle_gamma 90.000000
_cell_volume 7874.406530
_symmetry_space_group_name_H-M "I M M A"
_symmetry_group_IT_number 74
_symmetry_cell_setting 'orthorhombic'
loop_
_space_group_symop_operation_xyz
x,y,z
-x,1/2-y,z
x,-y,-z
-x,1/2+y,-z
-x,-y,-z
x,1/2+y,-z
-x,y,z
x,1/2-y,z
1/2+x,1/2+y,1/2+z
1/2-x,-y,1/2+z
1/2+x,1/2-y,1/2-z
1/2-x,y,1/2-z
1/2-x,1/2-y,1/2-z
1/2+x,y,1/2-z
1/2-x,1/2+y,1/2+z
1/2+x,-y,1/2+z
loop_
_atom_site_type_symbol
_atom_site_label
_atom_site_fract_x
_atom_site_fract_y
_atom_site_fract_z
Si Si1 0.250000 0.478568 0.250000
Si Si2 0.937550 0.146621 0.462765
Si Si3 0.322915 0.351583 0.329021
Si Si4 0.274440 0.149683 0.087728
Si Si5 0.060903 0.646630 0.785032
Si Si6 0.437516 0.542855 0.837969
Si Si7 0.677161 0.478359 0.855467
Si Si8 0.329786 0.648076 0.035457
O O1 0.296732 0.415713 0.279135
O O2 0.281594 0.541899 0.201271
O O3 0.927137 0.250000 0.451042
O O4 0.930857 0.100239 0.398518
O O5 0.890159 0.112415 0.510146
O O6 0.000000 0.128427 0.490327
O O7 0.315927 0.250000 0.306692
O O8 0.291272 0.364731 0.393834
O O9 0.389427 0.376203 0.333349
O O10 0.294077 0.250000 0.105052
O O11 0.312921 0.080687 0.124543
O O12 0.281988 0.135468 0.015907
O O13 0.059204 0.750000 0.771609
O O14 0.073106 0.603029 0.720367
O O15 0.000000 0.614981 0.811369
O O16 0.500000 0.499053 0.835704
O O17 0.388810 0.467655 0.838008
O O18 0.691684 0.409613 0.908397
O O19 0.334862 0.750000 0.056477
#
# Coordination Sequence:
#
# PCOD8297409 Si02
#       8
#     8  16  16  16  16  16  16  16
#     4  10  19  30  41  62  84 110 144 184 214 258
#     4   9  17  28  41  59  85 117 151 183 213 245
#     4   9  16  26  41  62  88 116 141 170 209 254
#     4   9  18  29  44  65  88 113 142 174 212 258
#     4   9  16  25  38  59  90 123 148 169 199 247
#     4  10  18  26  39  60  87 117 149 178 209 245
#     4  11  20  31  46  63  86 113 146 183 219 257
#     4  10  20  33  46  61  83 114 149 187 223 253
#
# _framework density 15.239243
#
# number of rings (size 3 to 8) (size 9 to 14) (size 15 to 20)
#    0.000    2.400    2.667    1.000    0.000    3.200 
#    0.000    1.667    0.000    0.000    0.000    0.000 
#    0.000    9.600    0.000    2.267    0.000    0.667 
#
# Total GULP energy -743467.910914 kJ/mol
# GULP energy per Si atom -12391.131849 kJ/mol
# Density = 1.520456 g / cm^3
# Si number density = 15.239243 Si / 1000 Ang^3
#
#
#
# Elastic Constant Matrix: (Units=GPa)
#
#
# Indices 1 2 3 4 5 6 
#
# 1 122.0877 28.1650 64.5006 0.0000 0.0000 0.0000
# 2 28.1650 31.2183 29.4385 0.0000 0.0000 0.0000
# 3 64.5006 29.4385 81.0028 0.0000 0.0000 0.0000
# 4 0.0000 0.0000 0.0000 19.7132 0.0000 0.0000
# 5 0.0000 0.0000 0.0000 0.0000 24.2644 0.0000
# 6 0.0000 0.0000 0.0000 0.0000 0.0000 10.8126
#
#
#
# Elastic Compliance Matrix: (Units=1/GPa)
#
#
# Indices 1 2 3 4 5 6 
#
# 1 0.014360 -0.003306 -0.010233 0.000000 0.000000 0.000000
# 2 -0.003306 0.049495 -0.015356 0.000000 0.000000 0.000000
# 3 -0.010233 -0.015356 0.026074 0.000000 0.000000 0.000000
# 4 0.000000 0.000000 0.000000 0.050727 0.000000 0.000000
# 5 0.000000 0.000000 0.000000 0.000000 0.041213 0.000000
# 6 0.000000 0.000000 0.000000 0.000000 0.000000 0.092484
#
#
# Mechanical properties :
#
#
# Convention : Reuss Voigt Hill
#
# Bulk Modulus (GPa) = 31.11341 53.16855 42.14098
# Shear Modulus (GPa) = 14.58345 18.43837 16.51091
#
# Velocity S-wave (km/s) = 3.09684 3.48217 3.29515
# Velocity P-wave (km/s) = 5.76613 7.15069 6.49540
#
# Compressibility (1/GPa) = 0.03214048
#
# Stress axis : x y z
#
# Youngs Moduli (GPa) = 69.64007 20.20408 38.35240
#
# Poissons Ratio (x) = 0.06679 0.39245
# Poissons Ratio (y) = 0.23021 0.58892
# Poissons Ratio (z) = 0.71261 0.31024
#
# Static dielectric constant tensor:
#      x y z
#    x 3.398580 0.000000 0.000000 
#    y 0.000000 2.600880 0.000000 
#    z 0.000000 0.000000 2.750480 
# 
# 
# High freq. dielectric constant tensor:
#      x y z
#    x 1.593460 0.000000 0.000000 
#    y 0.000000 1.547880 0.000000 
#    z 0.000000 0.000000 1.554350 
# 
# From -- ./inp_files/54829.got.cif
#   From: 2010.03.12/outbox.cif.g09.slc.cpg/sg74_28_cif.got.tgz:54829.got - 2010.04.16 15:46:19.
