data_PCOD8297821
_publ_section_title
;
Structure prediction by ZEFSAII (Michael W. Deem and Ramdas Pophale) SiO2 
 PCOD8297821
Probable space group: I M M A
;
_chemical_formula_sum "Si O2"
_cell_formula_units_Z 56
_cell_length_a 16.959636
_cell_length_b 17.781572
_cell_length_c 10.994382
_cell_angle_alpha 90.000000
_cell_angle_beta 90.000000
_cell_angle_gamma 90.000000
_cell_volume 3315.564660
_symmetry_space_group_name_H-M "I M M A"
_symmetry_group_IT_number 74
_symmetry_cell_setting 'orthorhombic'
loop_
_space_group_symop_operation_xyz
x,y,z
-x,1/2-y,z
x,-y,-z
-x,1/2+y,-z
-x,-y,-z
x,1/2+y,-z
-x,y,z
x,1/2-y,z
1/2+x,1/2+y,1/2+z
1/2-x,-y,1/2+z
1/2+x,1/2-y,1/2-z
1/2-x,y,1/2-z
1/2-x,1/2-y,1/2-z
1/2+x,y,1/2-z
1/2-x,1/2+y,1/2+z
1/2+x,-y,1/2+z
loop_
_atom_site_type_symbol
_atom_site_label
_atom_site_fract_x
_atom_site_fract_y
_atom_site_fract_z
Si Si1 0.906730 0.960521 0.779337
Si Si2 0.092686 0.334518 0.410628
Si Si3 0.188981 0.000000 0.000000
Si Si4 0.840787 0.561356 0.409805
O O1 0.874897 0.039689 0.722665
O O2 0.000000 0.963551 0.796319
O O3 0.878997 0.889361 0.698244
O O4 0.866088 0.951021 0.910756
O O5 0.119517 0.250000 0.378203
O O6 0.131856 0.357394 0.540406
O O7 0.000000 0.339904 0.427524
O O8 0.245278 0.945077 0.081065
O O9 0.881210 0.500000 0.500000
#
# Coordination Sequence:
#
# PCOD8297821 Si02
#       4
#    16  16   8  16
#     4  10  18  31  50  73  96 130 168 204 241 291
#     4   9  17  30  50  76 101 126 162 206 248 292
#     4  10  19  30  47  70 102 126 162 200 249 284
#     4   8  17  29  49  68  96 121 162 199 246 279
#
# _framework density 16.890034
#
# number of rings (size 3 to 8) (size 9 to 14) (size 15 to 20)
#    0.857    2.000    0.000    2.143    0.000    3.429 
#    0.000    2.857    0.000    5.143    0.000    4.000 
#    0.000    0.000    0.000    0.000    0.000    0.000 
#
# Total GULP energy -346891.528802 kJ/mol
# GULP energy per Si atom -12388.983172 kJ/mol
# Density = 1.685159 g / cm^3
# Si number density = 16.890034 Si / 1000 Ang^3
#
#
#
# Elastic Constant Matrix: (Units=GPa)
#
#
# Indices 1 2 3 4 5 6 
#
# 1 70.2642 35.9465 27.0837 0.0000 0.0000 0.0000
# 2 35.9465 88.2455 40.8225 0.0000 0.0000 0.0000
# 3 27.0837 40.8225 33.0698 0.0000 0.0000 0.0000
# 4 0.0000 0.0000 0.0000 16.6898 0.0000 0.0000
# 5 0.0000 0.0000 0.0000 0.0000 35.4180 0.0000
# 6 0.0000 0.0000 0.0000 0.0000 0.0000 16.4944
#
#
#
# Elastic Compliance Matrix: (Units=1/GPa)
#
#
# Indices 1 2 3 4 5 6 
#
# 1 0.020870 -0.001386 -0.015382 0.000000 0.000000 0.000000
# 2 -0.001386 0.026510 -0.031590 0.000000 0.000000 0.000000
# 3 -0.015382 -0.031590 0.081832 0.000000 0.000000 0.000000
# 4 0.000000 0.000000 0.000000 0.059917 0.000000 0.000000
# 5 0.000000 0.000000 0.000000 0.000000 0.028234 0.000000
# 6 0.000000 0.000000 0.000000 0.000000 0.000000 0.060626
#
#
# Mechanical properties :
#
#
# Convention : Reuss Voigt Hill
#
# Bulk Modulus (GPa) = 30.77164 44.36499 37.56832
# Shear Modulus (GPa) = 12.96894 19.56890 16.26892
#
# Velocity S-wave (km/s) = 2.77401 3.40752 3.10695
# Velocity P-wave (km/s) = 5.34027 6.46573 5.92976
#
# Compressibility (1/GPa) = 0.03249745
#
# Stress axis : x y z
#
# Youngs Moduli (GPa) = 47.91602 37.72149 12.22015
#
# Poissons Ratio (x) = 0.05227 0.18796
# Poissons Ratio (y) = 0.06640 0.38603
# Poissons Ratio (z) = 0.73702 1.19162
#
# Static dielectric constant tensor:
#      x y z
#    x 3.043230 0.000000 0.000000 
#    y 0.000000 3.036700 0.000000 
#    z 0.000000 0.000000 3.063940 
# 
# 
# High freq. dielectric constant tensor:
#      x y z
#    x 1.653110 0.000000 0.000000 
#    y 0.000000 1.608660 0.000000 
#    z 0.000000 0.000000 1.637580 
# 
# From -- ./inp_files/19575.got.cif
#   From: 2010.03.12/outbox.cif.g09.slc.cpg/sg74_10_cif.got.tgz:19575.got - 2010.04.16 15:46:19.
