data_PCOD8297328
_publ_section_title
;
Structure prediction by ZEFSAII (Michael W. Deem and Ramdas Pophale) SiO2 
 PCOD8297328
Probable space group: I M M A
;
_chemical_formula_sum "Si O2"
_cell_formula_units_Z 128
_cell_length_a 19.340548
_cell_length_b 16.943322
_cell_length_c 22.528006
_cell_angle_alpha 90.000000
_cell_angle_beta 90.000000
_cell_angle_gamma 90.000000
_cell_volume 7382.272853
_symmetry_space_group_name_H-M "I M M A"
_symmetry_group_IT_number 74
_symmetry_cell_setting 'orthorhombic'
loop_
_space_group_symop_operation_xyz
x,y,z
-x,1/2-y,z
x,-y,-z
-x,1/2+y,-z
-x,-y,-z
x,1/2+y,-z
-x,y,z
x,1/2-y,z
1/2+x,1/2+y,1/2+z
1/2-x,-y,1/2+z
1/2+x,1/2-y,1/2-z
1/2-x,y,1/2-z
1/2-x,1/2-y,1/2-z
1/2+x,y,1/2-z
1/2-x,1/2+y,1/2+z
1/2+x,-y,1/2+z
loop_
_atom_site_type_symbol
_atom_site_label
_atom_site_fract_x
_atom_site_fract_y
_atom_site_fract_z
Si Si1 0.422582 0.433384 0.139112
Si Si2 0.137462 0.161781 0.751999
Si Si3 0.577525 0.936992 0.049044
Si Si4 0.746117 0.112486 0.837918
Si Si5 0.781930 0.058439 0.189523
Si Si6 0.076864 0.996962 0.767064
Si Si7 0.290463 0.343328 0.095381
Si Si8 0.794022 0.658802 0.461917
O O1 0.500000 0.401814 0.123267
O O2 0.413179 0.520837 0.112248
O O3 0.413655 0.443663 0.208894
O O4 0.366821 0.372724 0.113227
O O5 0.103709 0.250000 0.754643
O O6 0.185937 0.151237 0.809681
O O7 0.180279 0.156429 0.690536
O O8 0.081875 0.091045 0.754130
O O9 0.500000 0.907424 0.037351
O O10 0.625229 0.860483 0.046323
O O11 0.601181 0.000000 0.000000
O O12 0.749828 0.117411 0.909562
O O13 0.737838 0.020819 0.820993
O O14 0.750000 0.095158 0.250000
O O15 0.768992 0.119896 0.136715
O O16 0.863409 0.036119 0.189518
O O17 0.000000 0.982527 0.794016
O O18 0.289967 0.250000 0.102825
O O19 0.271086 0.368238 0.027845
O O20 0.782551 0.750000 0.453334
#
# Coordination Sequence:
#
# PCOD8297328 Si02
#       8
#    16  16  16  16  16  16  16  16
#     4  10  19  34  51  70 101 138 178 216 251 299
#     4  10  17  29  50  77 107 138 168 204 257 304
#     4  10  19  30  46  65  92 139 184 212 243 288
#     4  10  18  31  52  77 104 140 174 206 247 305
#     4  11  19  36  57  77  98 133 174 214 261 309
#     4  10  20  34  52  75 101 131 169 215 258 305
#     4  11  23  35  50  75 103 135 173 219 270 307
#     4  11  22  32  47  74 107 134 170 220 257 299
#
# _framework density 17.338833999999999
#
# number of rings (size 3 to 8) (size 9 to 14) (size 15 to 20)
#    0.000    1.625    5.000    3.000    0.000    1.000 
#    0.000    1.250    0.000    4.125    0.000    7.000 
#    0.000    4.000    0.000    0.000    0.000    0.000 
#
# Total GULP energy -793319.186407 kJ/mol
# GULP energy per Si atom -12395.612288 kJ/mol
# Density = 1.729937 g / cm^3
# Si number density = 17.338834 Si / 1000 Ang^3
#
#
#
# Elastic Constant Matrix: (Units=GPa)
#
#
# Indices 1 2 3 4 5 6 
#
# 1 78.6220 20.1328 40.9471 0.0000 0.0000 0.0000
# 2 20.1328 49.6355 40.2060 0.0000 0.0000 0.0000
# 3 40.9471 40.2060 113.3805 0.0000 0.0000 0.0000
# 4 0.0000 0.0000 0.0000 23.6112 0.0000 0.0000
# 5 0.0000 0.0000 0.0000 0.0000 19.9350 0.0000
# 6 0.0000 0.0000 0.0000 0.0000 0.0000 19.2161
#
#
#
# Elastic Compliance Matrix: (Units=1/GPa)
#
#
# Indices 1 2 3 4 5 6 
#
# 1 0.015887 -0.002520 -0.004844 0.000000 0.000000 0.000000
# 2 -0.002520 0.028666 -0.009255 0.000000 0.000000 0.000000
# 3 -0.004844 -0.009255 0.013851 0.000000 0.000000 0.000000
# 4 0.000000 0.000000 0.000000 0.042353 0.000000 0.000000
# 5 0.000000 0.000000 0.000000 0.000000 0.050163 0.000000
# 6 0.000000 0.000000 0.000000 0.000000 0.000000 0.052040
#
#
# Mechanical properties :
#
#
# Convention : Reuss Voigt Hill
#
# Bulk Modulus (GPa) = 39.73657 49.35665 44.54661
# Shear Modulus (GPa) = 20.44263 21.90928 21.17595
#
# Velocity S-wave (km/s) = 3.43739 3.55857 3.49850
# Velocity P-wave (km/s) = 6.22267 6.73886 6.48591
#
# Compressibility (1/GPa) = 0.02516573
#
# Stress axis : x y z
#
# Youngs Moduli (GPa) = 62.94368 34.88452 72.19611
#
# Poissons Ratio (x) = 0.08792 0.34971
# Poissons Ratio (y) = 0.15864 0.66818
# Poissons Ratio (z) = 0.30489 0.32286
#
# Static dielectric constant tensor:
#      x y z
#    x 3.109800 0.000000 0.000000 
#    y 0.000000 3.099340 0.000000 
#    z 0.000000 0.000000 3.360090 
# 
# 
# High freq. dielectric constant tensor:
#      x y z
#    x 1.643940 0.000000 0.000000 
#    y 0.000000 1.659130 0.000000 
#    z 0.000000 0.000000 1.665870 
# 
# From -- ./inp_files/54186.got.cif
#   From: 2010.03.12/outbox.cif.g09.slc.cpg/sg74_28_cif.got.tgz:54186.got - 2010.04.16 15:46:19.
