data_PCOD8297668
_publ_section_title
;
Structure prediction by ZEFSAII (Michael W. Deem and Ramdas Pophale) SiO2 
 PCOD8297668
Probable space group: I M M A
;
_chemical_formula_sum "Si O2"
_cell_formula_units_Z 56
_cell_length_a 8.640903
_cell_length_b 13.747402
_cell_length_c 32.134639
_cell_angle_alpha 90.000000
_cell_angle_beta 90.000000
_cell_angle_gamma 90.000000
_cell_volume 3817.272712
_symmetry_space_group_name_H-M "I M M A"
_symmetry_group_IT_number 74
_symmetry_cell_setting 'orthorhombic'
loop_
_space_group_symop_operation_xyz
x,y,z
-x,1/2-y,z
x,-y,-z
-x,1/2+y,-z
-x,-y,-z
x,1/2+y,-z
-x,y,z
x,1/2-y,z
1/2+x,1/2+y,1/2+z
1/2-x,-y,1/2+z
1/2+x,1/2-y,1/2-z
1/2-x,y,1/2-z
1/2-x,1/2-y,1/2-z
1/2+x,y,1/2-z
1/2-x,1/2+y,1/2+z
1/2+x,-y,1/2+z
loop_
_atom_site_type_symbol
_atom_site_label
_atom_site_fract_x
_atom_site_fract_y
_atom_site_fract_z
Si Si1 0.680495 0.139197 0.513922
Si Si2 0.317105 0.250000 0.204284
Si Si3 0.175251 0.642510 0.865752
Si Si4 0.681391 0.970530 0.938405
O O1 0.500000 0.123468 0.504898
O O2 0.719121 0.250000 0.525480
O O3 0.733017 0.072395 0.552483
O O4 0.772647 0.109489 0.472573
O O5 0.500000 0.250000 0.205858
O O6 0.250000 0.250000 0.250000
O O7 0.255982 0.346329 0.179679
O O8 0.176331 0.750000 0.887423
O O9 0.270278 0.566074 0.892980
O O10 0.000000 0.604883 0.860249
O O11 0.500000 0.988588 0.939863
#
# Coordination Sequence:
#
# PCOD8297668 Si02
#       4
#    16   8  16  16
#     4  10  20  32  45  59  82 116 152 190 227 266
#     4  10  18  30  46  68  94 120 148 180 222 268
#     4   9  18  30  45  63  87 119 148 179 215 261
#     4  11  20  29  44  64  86 113 148 189 228 267
#
# _framework density 14.670159999999999
#
# number of rings (size 3 to 8) (size 9 to 14) (size 15 to 20)
#    0.857    1.143    0.000    7.714    0.000    5.714 
#    0.000    0.000    0.000    0.000    0.000    0.000 
#    0.000    1.143    0.000    4.286    0.000    6.571 
#
# Total GULP energy -347080.809998 kJ/mol
# GULP energy per Si atom -12395.743214 kJ/mol
# Density = 1.463677 g / cm^3
# Si number density = 14.670160 Si / 1000 Ang^3
#
#
#
# Elastic Constant Matrix: (Units=GPa)
#
#
# Indices 1 2 3 4 5 6 
#
# 1 84.8231 24.3522 23.3030 0.0000 0.0000 0.0000
# 2 24.3522 82.4255 37.1560 0.0000 0.0000 0.0000
# 3 23.3030 37.1560 97.3718 0.0000 0.0000 0.0000
# 4 0.0000 0.0000 0.0000 20.4095 0.0000 0.0000
# 5 0.0000 0.0000 0.0000 0.0000 26.7952 0.0000
# 6 0.0000 0.0000 0.0000 0.0000 0.0000 16.0792
#
#
#
# Elastic Compliance Matrix: (Units=1/GPa)
#
#
# Indices 1 2 3 4 5 6 
#
# 1 0.013202 -0.002991 -0.002018 0.000000 0.000000 0.000000
# 2 -0.002991 0.015330 -0.005134 0.000000 0.000000 0.000000
# 3 -0.002018 -0.005134 0.012712 0.000000 0.000000 0.000000
# 4 0.000000 0.000000 0.000000 0.048997 0.000000 0.000000
# 5 0.000000 0.000000 0.000000 0.000000 0.037320 0.000000
# 6 0.000000 0.000000 0.000000 0.000000 0.000000 0.062192
#
#
# Mechanical properties :
#
#
# Convention : Reuss Voigt Hill
#
# Bulk Modulus (GPa) = 47.71395 48.24918 47.98157
# Shear Modulus (GPa) = 23.03871 24.64405 23.84138
#
# Velocity S-wave (km/s) = 3.96719 4.10308 4.03570
# Velocity P-wave (km/s) = 7.31983 7.44364 7.38199
#
# Compressibility (1/GPa) = 0.02095823
#
# Stress axis : x y z
#
# Youngs Moduli (GPa) = 75.74409 65.23107 78.66553
#
# Poissons Ratio (x) = 0.19509 0.15877
# Poissons Ratio (y) = 0.22653 0.40387
# Poissons Ratio (z) = 0.15288 0.33490
#
# Static dielectric constant tensor:
#      x y z
#    x 2.991660 0.000000 0.000000 
#    y 0.000000 2.739080 0.000000 
#    z 0.000000 0.000000 5.628650 
# 
# 
# High freq. dielectric constant tensor:
#      x y z
#    x 1.585030 0.000000 0.000000 
#    y 0.000000 1.535110 0.000000 
#    z 0.000000 0.000000 1.534310 
# 
# From -- ./inp_files/69880.got.cif
#   From: 2010.03.12/outbox.cif.g09.slc.cpg/sg74_35_cif.got.tgz:69880.got - 2010.04.16 15:46:19.
