data_PCOD8297879
_publ_section_title
;
Structure prediction by ZEFSAII (Michael W. Deem and Ramdas Pophale) SiO2 
 PCOD8297879
Probable space group: I M M A
;
_chemical_formula_sum "Si O2"
_cell_formula_units_Z 48
_cell_length_a 20.282573
_cell_length_b 15.458298
_cell_length_c 8.157108
_cell_angle_alpha 90.000000
_cell_angle_beta 90.000000
_cell_angle_gamma 90.000000
_cell_volume 2557.531170
_symmetry_space_group_name_H-M "I M M A"
_symmetry_group_IT_number 74
_symmetry_cell_setting 'orthorhombic'
loop_
_space_group_symop_operation_xyz
x,y,z
-x,1/2-y,z
x,-y,-z
-x,1/2+y,-z
-x,-y,-z
x,1/2+y,-z
-x,y,z
x,1/2-y,z
1/2+x,1/2+y,1/2+z
1/2-x,-y,1/2+z
1/2+x,1/2-y,1/2-z
1/2-x,y,1/2-z
1/2-x,1/2-y,1/2-z
1/2+x,y,1/2-z
1/2-x,1/2+y,1/2+z
1/2+x,-y,1/2+z
loop_
_atom_site_type_symbol
_atom_site_label
_atom_site_fract_x
_atom_site_fract_y
_atom_site_fract_z
Si Si1 0.924361 0.416673 0.395321
Si Si2 0.425342 0.250000 0.887648
Si Si3 0.317543 0.653526 0.681151
Si Si4 0.312664 0.250000 0.632242
O O1 0.904084 0.500000 0.500000
O O2 0.910812 0.334434 0.507275
O O3 0.878302 0.408005 0.234253
O O4 0.000000 0.422199 0.335502
O O5 0.500000 0.250000 0.822762
O O6 0.380108 0.250000 0.729580
O O7 0.326925 0.750000 0.759645
O O8 0.250000 0.611990 0.750000
O O9 0.312787 0.663786 0.483163
O O10 0.250000 0.250000 0.750000
#
# Coordination Sequence:
#
# PCOD8297879 Si02
#       4
#    16   8  16   8
#     4  10  20  36  58  82 113 153 197 244 297 357
#     4  10  19  33  53  79 106 141 187 237 291 350
#     4   9  18  34  58  80 108 146 193 237 290 352
#     4  10  18  31  56  83 110 149 186 239 294 346
#
# _framework density 18.768101000000001
#
# number of rings (size 3 to 8) (size 9 to 14) (size 15 to 20)
#    1.000    1.333    1.667    2.000    0.000    1.333 
#    0.000    6.667    0.000    6.000    0.000    0.000 
#    0.000    0.000    0.000    0.000    0.000    0.000 
#
# Total GULP energy -297459.918773 kJ/mol
# GULP energy per Si atom -12394.163282 kJ/mol
# Density = 1.872538 g / cm^3
# Si number density = 18.768101 Si / 1000 Ang^3
#
#
#
# Elastic Constant Matrix: (Units=GPa)
#
#
# Indices 1 2 3 4 5 6 
#
# 1 134.9658 36.4510 84.8641 0.0000 0.0000 0.0000
# 2 36.4510 87.9053 34.3048 0.0000 0.0000 0.0000
# 3 84.8641 34.3048 126.9336 0.0000 0.0000 0.0000
# 4 0.0000 0.0000 0.0000 50.0097 0.0000 0.0000
# 5 0.0000 0.0000 0.0000 0.0000 47.2532 0.0000
# 6 0.0000 0.0000 0.0000 0.0000 0.0000 23.4872
#
#
#
# Elastic Compliance Matrix: (Units=1/GPa)
#
#
# Indices 1 2 3 4 5 6 
#
# 1 0.013174 -0.002264 -0.008196 0.000000 0.000000 0.000000
# 2 -0.002264 0.013106 -0.002028 0.000000 0.000000 0.000000
# 3 -0.008196 -0.002028 0.013906 0.000000 0.000000 0.000000
# 4 0.000000 0.000000 0.000000 0.019996 0.000000 0.000000
# 5 0.000000 0.000000 0.000000 0.000000 0.021163 0.000000
# 6 0.000000 0.000000 0.000000 0.000000 0.000000 0.042576
#
#
# Mechanical properties :
#
#
# Convention : Reuss Voigt Hill
#
# Bulk Modulus (GPa) = 65.74899 73.44940 69.59920
# Shear Modulus (GPa) = 32.47415 37.09567 34.78491
#
# Velocity S-wave (km/s) = 4.16418 4.45064 4.30979
# Velocity P-wave (km/s) = 7.63079 8.10130 7.86956
#
# Compressibility (1/GPa) = 0.01520936
#
# Stress axis : x y z
#
# Youngs Moduli (GPa) = 75.90503 76.29898 71.91211
#
# Poissons Ratio (x) = 0.17277 0.58939
# Poissons Ratio (y) = 0.17188 0.14585
# Poissons Ratio (z) = 0.62212 0.15475
#
# Static dielectric constant tensor:
#      x y z
#    x 3.564880 0.000000 0.000000 
#    y 0.000000 3.270470 0.000000 
#    z 0.000000 0.000000 3.204060 
# 
# 
# High freq. dielectric constant tensor:
#      x y z
#    x 1.742950 0.000000 0.000000 
#    y 0.000000 1.700020 0.000000 
#    z 0.000000 0.000000 1.712100 
# 
# From -- ./inp_files/9848.got.cif
#   From: 2010.03.12/outbox.cif.g09.slc.cpg/sg74_5_cif.got.tgz:9848.got - 2010.04.16 15:46:19.
