data_PCOD8297369
_publ_section_title
;
Structure prediction by ZEFSAII (Michael W. Deem and Ramdas Pophale) SiO2 
 PCOD8297369
Probable space group: I M M A
;
_chemical_formula_sum "Si O2"
_cell_formula_units_Z 96
_cell_length_a 23.991254
_cell_length_b 19.526727
_cell_length_c 11.782635
_cell_angle_alpha 90.000000
_cell_angle_beta 90.000000
_cell_angle_gamma 90.000000
_cell_volume 5519.818880
_symmetry_space_group_name_H-M "I M M A"
_symmetry_group_IT_number 74
_symmetry_cell_setting 'orthorhombic'
loop_
_space_group_symop_operation_xyz
x,y,z
-x,1/2-y,z
x,-y,-z
-x,1/2+y,-z
-x,-y,-z
x,1/2+y,-z
-x,y,z
x,1/2-y,z
1/2+x,1/2+y,1/2+z
1/2-x,-y,1/2+z
1/2+x,1/2-y,1/2-z
1/2-x,y,1/2-z
1/2-x,1/2-y,1/2-z
1/2+x,y,1/2-z
1/2-x,1/2+y,1/2+z
1/2+x,-y,1/2+z
loop_
_atom_site_type_symbol
_atom_site_label
_atom_site_fract_x
_atom_site_fract_y
_atom_site_fract_z
Si Si1 0.302291 0.672030 0.326539
Si Si2 0.817060 0.423413 0.456443
Si Si3 0.882649 0.546184 0.752818
Si Si4 0.000000 0.095093 0.579051
Si Si5 0.805691 0.923292 0.959821
Si Si6 0.881313 0.609166 0.330526
Si Si7 0.500000 0.942597 0.832435
O O1 0.290742 0.750000 0.362823
O O2 0.250000 0.643824 0.250000
O O3 0.316501 0.627603 0.436840
O O4 0.359242 0.666826 0.254866
O O5 0.819623 0.500000 0.500000
O O6 0.856462 0.411702 0.349975
O O7 0.755432 0.401679 0.414299
O O8 0.841452 0.380096 0.560444
O O9 0.854674 0.576778 0.866462
O O10 0.874327 0.464836 0.732190
O O11 0.947683 0.566218 0.751630
O O12 0.055369 0.126998 0.635281
O O13 0.000000 0.108071 0.442284
O O14 0.000000 0.015534 0.607348
O O15 0.800753 0.000000 0.000000
#
# Coordination Sequence:
#
# PCOD8297369 Si02
#       7
#    16  16  16   8  16  16   8
#     4  11  23  38  55  76 110 150 184 222 273 329
#     4   9  17  26  49  78 109 136 169 221 271 316
#     4  10  18  29  50  82 113 138 174 222 277 321
#     4   9  16  28  52  77 111 138 176 221 276 323
#     4  11  20  32  52  80 111 142 181 225 268 327
#     4  10  17  32  52  80 107 141 179 225 273 323
#     4   9  16  28  46  80 114 143 164 216 282 330
#
# _framework density 17.391876
#
# number of rings (size 3 to 8) (size 9 to 14) (size 15 to 20)
#    0.000    2.000    5.000    0.500    0.000    0.000 
#    0.000    1.667    0.000    3.000    0.000    0.000 
#    0.000    0.000    0.000    0.000    0.000    0.000 
#
# Total GULP energy -594629.759545 kJ/mol
# GULP energy per Si atom -12388.119991 kJ/mol
# Density = 1.735229 g / cm^3
# Si number density = 17.391876 Si / 1000 Ang^3
#
#
#
# Elastic Constant Matrix: (Units=GPa)
#
#
# Indices 1 2 3 4 5 6 
#
# 1 155.6558 18.3919 67.4400 0.0000 0.0000 0.0000
# 2 18.3919 38.6009 28.5032 0.0000 0.0000 0.0000
# 3 67.4400 28.5032 102.4428 0.0000 0.0000 0.0000
# 4 0.0000 0.0000 0.0000 11.6531 0.0000 0.0000
# 5 0.0000 0.0000 0.0000 0.0000 22.0843 0.0000
# 6 0.0000 0.0000 0.0000 0.0000 0.0000 14.4239
#
#
#
# Elastic Compliance Matrix: (Units=1/GPa)
#
#
# Indices 1 2 3 4 5 6 
#
# 1 0.008988 0.000109 -0.005948 0.000000 0.000000 0.000000
# 2 0.000109 0.032606 -0.009144 0.000000 0.000000 0.000000
# 3 -0.005948 -0.009144 0.016221 0.000000 0.000000 0.000000
# 4 0.000000 0.000000 0.000000 0.085814 0.000000 0.000000
# 5 0.000000 0.000000 0.000000 0.000000 0.045281 0.000000
# 6 0.000000 0.000000 0.000000 0.000000 0.000000 0.069330
#
#
# Mechanical properties :
#
#
# Convention : Reuss Voigt Hill
#
# Bulk Modulus (GPa) = 35.90571 58.37440 47.14006
# Shear Modulus (GPa) = 16.80732 21.78986 19.29859
#
# Velocity S-wave (km/s) = 3.11205 3.54344 3.33473
# Velocity P-wave (km/s) = 5.79682 7.09777 6.48002
#
# Compressibility (1/GPa) = 0.02785072
#
# Stress axis : x y z
#
# Youngs Moduli (GPa) = 111.25419 30.66904 61.64786
#
# Poissons Ratio (x) = -0.00335 0.36666
# Poissons Ratio (y) = -0.01214 0.56371
# Poissons Ratio (z) = 0.66170 0.28044
#
# Static dielectric constant tensor:
#      x y z
#    x 3.583970 0.000000 0.000000 
#    y 0.000000 2.703540 0.000000 
#    z 0.000000 0.000000 3.310240 
# 
# 
# High freq. dielectric constant tensor:
#      x y z
#    x 1.684640 0.000000 0.000000 
#    y 0.000000 1.610000 0.000000 
#    z 0.000000 0.000000 1.667400 
# 
# From -- ./inp_files/24116.got.cif
#   From: 2010.03.12/outbox.cif.g09.slc.cpg/sg74_13_cif.got.tgz:24116.got - 2010.04.16 15:46:19.
