data_PCOD8297130
_publ_section_title
;
Structure prediction by ZEFSAII (Michael W. Deem and Ramdas Pophale) SiO2 
 PCOD8297130
Probable space group: I M M A
;
_chemical_formula_sum "Si O2"
_cell_formula_units_Z 112
_cell_length_a 18.442714
_cell_length_b 23.674427
_cell_length_c 18.411945
_cell_angle_alpha 90.000000
_cell_angle_beta 90.000000
_cell_angle_gamma 90.000000
_cell_volume 8039.036062
_symmetry_space_group_name_H-M "I M M A"
_symmetry_group_IT_number 74
_symmetry_cell_setting 'orthorhombic'
loop_
_space_group_symop_operation_xyz
x,y,z
-x,1/2-y,z
x,-y,-z
-x,1/2+y,-z
-x,-y,-z
x,1/2+y,-z
-x,y,z
x,1/2-y,z
1/2+x,1/2+y,1/2+z
1/2-x,-y,1/2+z
1/2+x,1/2-y,1/2-z
1/2-x,y,1/2-z
1/2-x,1/2-y,1/2-z
1/2+x,y,1/2-z
1/2-x,1/2+y,1/2+z
1/2+x,-y,1/2+z
loop_
_atom_site_type_symbol
_atom_site_label
_atom_site_fract_x
_atom_site_fract_y
_atom_site_fract_z
Si Si1 0.143511 0.185881 0.108934
Si Si2 0.720789 0.986464 0.831259
Si Si3 0.913937 0.414467 0.021983
Si Si4 0.219168 0.638312 0.669438
Si Si5 0.918529 0.359700 0.256338
Si Si6 0.418956 0.507152 0.761215
Si Si7 0.137013 0.521436 0.110530
O O1 0.127972 0.250000 0.086231
O O2 0.116154 0.146737 0.043439
O O3 0.230349 0.178768 0.121024
O O4 0.098828 0.171312 0.181224
O O5 0.750000 0.982280 0.750000
O O6 0.775211 0.024770 0.879031
O O7 0.719883 0.923915 0.866427
O O8 0.638244 0.010708 0.824891
O O9 0.883131 0.461395 0.076006
O O10 0.000000 0.415651 0.026207
O O11 0.887918 0.427069 0.939982
O O12 0.250000 0.634979 0.750000
O O13 0.136041 0.660558 0.679016
O O14 0.908310 0.426597 0.243412
O O15 0.000000 0.344610 0.280608
O O16 0.500000 0.493688 0.788914
O O17 0.403544 0.472623 0.687499
#
# Coordination Sequence:
#
# PCOD8297130 Si02
#       7
#    16  16  16  16  16  16  16
#     4  11  20  29  38  49  73 106 137 164 187 220
#     4   8  13  23  39  56  77  99 122 154 191 225
#     4  11  20  27  37  55  74 100 133 160 186 216
#     4   8  14  26  37  51  72  98 130 161 190 219
#     4   9  16  25  38  55  76 101 130 162 193 216
#     4   9  14  23  40  61  82 101 120 153 193 228
#     4  10  16  26  40  56  77 100 126 158 185 223
#
# _framework density 13.932017999999999
#
# number of rings (size 3 to 8) (size 9 to 14) (size 15 to 20)
#    0.000    2.571    2.857    3.857    0.000    3.714 
#    0.000    0.000    0.000    0.000    0.000    3.000 
#    0.000    5.143    0.000    0.286    0.000    0.000 
#
# Total GULP energy -693903.050749 kJ/mol
# GULP energy per Si atom -12391.125906 kJ/mol
# Density = 1.390031 g / cm^3
# Si number density = 13.932018 Si / 1000 Ang^3
#
#
#
# Elastic Constant Matrix: (Units=GPa)
#
#
# Indices 1 2 3 4 5 6 
#
# 1 143.5271 30.6885 36.8288 0.0000 0.0000 0.0000
# 2 30.6885 44.0570 24.9671 0.0001 0.0000 0.0000
# 3 36.8288 24.9671 34.9251 0.0001 0.0000 0.0000
# 4 0.0000 0.0001 0.0001 11.7562 0.0000 0.0000
# 5 0.0000 0.0000 0.0000 0.0000 19.4583 0.0000
# 6 0.0000 0.0000 0.0000 0.0000 0.0000 9.1276
#
#
#
# Elastic Compliance Matrix: (Units=1/GPa)
#
#
# Indices 1 2 3 4 5 6 
#
# 1 0.009619 -0.001600 -0.008999 0.000000 0.000000 0.000000
# 2 -0.001600 0.038422 -0.025779 0.000000 0.000000 0.000000
# 3 -0.008999 -0.025779 0.056551 0.000000 0.000000 0.000000
# 4 0.000000 0.000000 0.000000 0.085062 0.000000 0.000000
# 5 0.000000 0.000000 0.000000 0.000000 0.051392 0.000000
# 6 0.000000 0.000000 0.000000 0.000000 0.000000 0.109558
#
#
# Mechanical properties :
#
#
# Convention : Reuss Voigt Hill
#
# Bulk Modulus (GPa) = 31.41242 45.27533 38.34388
# Shear Modulus (GPa) = 11.52151 16.73673 14.12912
#
# Velocity S-wave (km/s) = 2.87885 3.46976 3.18802
# Velocity P-wave (km/s) = 5.80054 6.97282 6.41352
#
# Compressibility (1/GPa) = 0.03183454
#
# Stress axis : x y z
#
# Youngs Moduli (GPa) = 103.96529 26.02709 17.68319
#
# Poissons Ratio (x) = 0.04165 0.15913
# Poissons Ratio (y) = 0.16637 0.45586
# Poissons Ratio (z) = 0.93557 0.67095
#
# Static dielectric constant tensor:
#      x y z
#    x 3.312040 0.000000 0.000000 
#    y 0.000000 2.422960 0.000000 
#    z 0.000000 0.000000 2.470380 
# 
# 
# High freq. dielectric constant tensor:
#      x y z
#    x 1.553350 0.000000 0.000000 
#    y 0.000000 1.484980 0.000000 
#    z 0.000000 0.000000 1.481500 
# 
# From -- ./inp_files/53373.got.cif
#   From: 2010.03.12/outbox.cif.g09.slc.cpg/sg74_27_cif.got.tgz:53373.got - 2010.04.16 15:46:19.
