data_PCOD8297823
_publ_section_title
;
Structure prediction by ZEFSAII (Michael W. Deem and Ramdas Pophale) SiO2 
 PCOD8297823
Probable space group: I M M A
;
_chemical_formula_sum "Si O2"
_cell_formula_units_Z 104
_cell_length_a 18.293892
_cell_length_b 14.117108
_cell_length_c 24.211214
_cell_angle_alpha 90.000000
_cell_angle_beta 90.000000
_cell_angle_gamma 90.000000
_cell_volume 6252.711841
_symmetry_space_group_name_H-M "I M M A"
_symmetry_group_IT_number 74
_symmetry_cell_setting 'orthorhombic'
loop_
_space_group_symop_operation_xyz
x,y,z
-x,1/2-y,z
x,-y,-z
-x,1/2+y,-z
-x,-y,-z
x,1/2+y,-z
-x,y,z
x,1/2-y,z
1/2+x,1/2+y,1/2+z
1/2-x,-y,1/2+z
1/2+x,1/2-y,1/2-z
1/2-x,y,1/2-z
1/2-x,1/2-y,1/2-z
1/2+x,y,1/2-z
1/2-x,1/2+y,1/2+z
1/2+x,-y,1/2+z
loop_
_atom_site_type_symbol
_atom_site_label
_atom_site_fract_x
_atom_site_fract_y
_atom_site_fract_z
Si Si1 0.307349 0.500000 0.000000
Si Si2 0.812284 0.640358 0.795293
Si Si3 0.918178 0.857935 0.455109
Si Si4 0.768940 0.974803 0.619259
Si Si5 0.787349 0.140659 0.809144
Si Si6 0.579390 0.484121 0.852733
Si Si7 0.417233 0.975443 0.273078
O O1 0.360171 0.589836 0.006299
O O2 0.255922 0.482285 0.053377
O O3 0.833999 0.750000 0.798809
O O4 0.750000 0.620558 0.750000
O O5 0.782987 0.605302 0.854893
O O6 0.884090 0.581132 0.779585
O O7 0.894609 0.750000 0.454721
O O8 0.914576 0.893344 0.392185
O O9 0.000000 0.872562 0.479293
O O10 0.755772 0.078471 0.645955
O O11 0.853735 0.945740 0.631668
O O12 0.787311 0.250000 0.827672
O O13 0.750000 0.125515 0.750000
O O14 0.870473 0.101975 0.806681
O O15 0.500000 0.535400 0.860875
O O16 0.585306 0.445857 0.790719
O O17 0.500000 0.975578 0.296101
#
# Coordination Sequence:
#
# PCOD8297823 Si02
#       7
#     8  16  16  16  16  16  16
#     4  10  21  30  50  70  93 128 174 212 246 282
#     4  10  19  33  52  71  97 134 169 205 251 296
#     4   9  18  31  45  64  94 133 172 208 245 279
#     4  10  18  34  48  69  98 133 169 208 246 291
#     4  10  19  32  51  74 101 131 159 194 248 305
#     4   9  16  27  45  68  98 131 164 202 238 278
#     4  10  18  31  50  75 104 128 160 203 242 295
#
# _framework density 16.632784000000001
#
# number of rings (size 3 to 8) (size 9 to 14) (size 15 to 20)
#    0.000    2.308    3.077    1.154    0.000    4.923 
#    0.000    1.538    0.000    0.462    0.000    8.615 
#    0.000    9.846    0.000    0.000    0.000    0.000 
#
# Total GULP energy -644575.391092 kJ/mol
# GULP energy per Si atom -12395.680598 kJ/mol
# Density = 1.659493 g / cm^3
# Si number density = 16.632784 Si / 1000 Ang^3
#
#
#
# Elastic Constant Matrix: (Units=GPa)
#
#
# Indices 1 2 3 4 5 6 
#
# 1 89.8841 31.3411 30.5060 0.0000 0.0000 0.0000
# 2 31.3411 101.7270 29.9266 0.0000 0.0000 0.0000
# 3 30.5060 29.9266 98.3454 0.0000 0.0000 0.0000
# 4 0.0000 0.0000 0.0000 15.0077 0.0000 0.0000
# 5 0.0000 0.0000 0.0000 0.0000 21.3299 0.0000
# 6 0.0000 0.0000 0.0000 0.0000 0.0000 16.4747
#
#
#
# Elastic Compliance Matrix: (Units=1/GPa)
#
#
# Indices 1 2 3 4 5 6 
#
# 1 0.013304 -0.003168 -0.003163 0.000000 0.000000 0.000000
# 2 -0.003168 0.011551 -0.002532 0.000000 0.000000 0.000000
# 3 -0.003163 -0.002532 0.011920 0.000000 0.000000 0.000000
# 4 0.000000 0.000000 0.000000 0.066633 0.000000 0.000000
# 5 0.000000 0.000000 0.000000 0.000000 0.046882 0.000000
# 6 0.000000 0.000000 0.000000 0.000000 0.000000 0.060699
#
#
# Mechanical properties :
#
#
# Convention : Reuss Voigt Hill
#
# Bulk Modulus (GPa) = 52.49789 52.61155 52.55472
# Shear Modulus (GPa) = 21.27075 23.77465 22.52270
#
# Velocity S-wave (km/s) = 3.57997 3.78482 3.68382
# Velocity P-wave (km/s) = 6.97995 7.12739 7.05406
#
# Compressibility (1/GPa) = 0.01904838
#
# Stress axis : x y z
#
# Youngs Moduli (GPa) = 75.16814 86.57019 83.89391
#
# Poissons Ratio (x) = 0.27428 0.26532
# Poissons Ratio (y) = 0.23816 0.21244
# Poissons Ratio (z) = 0.23772 0.21922
#
# Static dielectric constant tensor:
#      x y z
#    x 3.241230 0.000000 0.000000 
#    y 0.000000 2.960960 0.000000 
#    z 0.000000 0.000000 3.069270 
# 
# 
# High freq. dielectric constant tensor:
#      x y z
#    x 1.633690 0.000000 0.000000 
#    y 0.000000 1.624290 0.000000 
#    z 0.000000 0.000000 1.623490 
# 
# From -- ./inp_files/60964.got.cif
#   From: 2010.03.12/outbox.cif.g09.slc.cpg/sg74_31_cif.got.tgz:60964.got - 2010.04.16 15:46:19.
