data_PCOD8297547
_publ_section_title
;
Structure prediction by ZEFSAII (Michael W. Deem and Ramdas Pophale) SiO2 
 PCOD8297547
Probable space group: I M M A
;
_chemical_formula_sum "Si O2"
_cell_formula_units_Z 88
_cell_length_a 27.923428
_cell_length_b 9.198925
_cell_length_c 24.506604
_cell_angle_alpha 90.000000
_cell_angle_beta 90.000000
_cell_angle_gamma 90.000000
_cell_volume 6294.901578
_symmetry_space_group_name_H-M "I M M A"
_symmetry_group_IT_number 74
_symmetry_cell_setting 'orthorhombic'
loop_
_space_group_symop_operation_xyz
x,y,z
-x,1/2-y,z
x,-y,-z
-x,1/2+y,-z
-x,-y,-z
x,1/2+y,-z
-x,y,z
x,1/2-y,z
1/2+x,1/2+y,1/2+z
1/2-x,-y,1/2+z
1/2+x,1/2-y,1/2-z
1/2-x,y,1/2-z
1/2-x,1/2-y,1/2-z
1/2+x,y,1/2-z
1/2-x,1/2+y,1/2+z
1/2+x,-y,1/2+z
loop_
_atom_site_type_symbol
_atom_site_label
_atom_site_fract_x
_atom_site_fract_y
_atom_site_fract_z
Si Si1 0.174380 0.414274 0.838954
Si Si2 0.582298 0.078317 0.360416
Si Si3 0.350290 0.588611 0.211829
Si Si4 0.263267 0.586500 0.813367
Si Si5 0.500000 0.418813 0.443440
Si Si6 0.947067 0.917642 0.246304
O O1 0.177924 0.250000 0.861410
O O2 0.133220 0.500966 0.871517
O O3 0.162118 0.415560 0.775483
O O4 0.225289 0.493380 0.848189
O O5 0.590429 0.250000 0.354435
O O6 0.547499 0.038117 0.410114
O O7 0.557643 0.021368 0.305508
O O8 0.341351 0.750000 0.188329
O O9 0.316546 0.479132 0.178336
O O10 0.406651 0.543995 0.207937
O O11 0.263346 0.750000 0.835954
O O12 0.250000 0.582344 0.750000
O O13 0.500000 0.250000 0.456267
O O14 0.500000 0.500000 0.500000
O O15 0.939174 0.750000 0.227339
O O16 0.000000 0.939059 0.271980
#
# Coordination Sequence:
#
# PCOD8297547 Si02
#       6
#    16  16  16  16   8  16
#     4   9  16  25  37  51  64  83 104 126 158 197
#     4  10  18  29  40  54  69  81 102 134 169 204
#     4   8  14  22  31  45  65  86 108 133 158 191
#     4   9  15  22  32  47  65  85 105 128 158 192
#     4  10  22  34  44  56  70  88 108 136 174 214
#     4   9  16  25  37  51  66  88 114 138 167 202
#
# _framework density 13.979568
#
# number of rings (size 3 to 8) (size 9 to 14) (size 15 to 20)
#    0.000    2.909    0.909    2.727    0.000    8.000 
#    0.000    0.000    0.000    0.000    0.000    0.000 
#    0.000    0.000    0.000    0.000    0.000    0.000 
#
# Total GULP energy -545327.301082 kJ/mol
# GULP energy per Si atom -12393.802297 kJ/mol
# Density = 1.394775 g / cm^3
# Si number density = 13.979568 Si / 1000 Ang^3
#
#
#
# Elastic Constant Matrix: (Units=GPa)
#
#
# Indices 1 2 3 4 5 6 
#
# 1 149.5332 69.4170 26.6851 0.0000 0.0000 0.0000
# 2 69.4170 102.0057 20.3232 0.0000 0.0000 0.0000
# 3 26.6851 20.3232 16.3598 0.0000 0.0000 0.0000
# 4 0.0000 0.0000 0.0000 11.2454 0.0000 0.0000
# 5 0.0000 0.0000 0.0000 0.0000 9.0781 0.0000
# 6 0.0000 0.0000 0.0000 0.0000 0.0000 26.4756
#
#
#
# Elastic Compliance Matrix: (Units=1/GPa)
#
#
# Indices 1 2 3 4 5 6 
#
# 1 0.011252 -0.005316 -0.011750 0.000000 0.000000 0.000000
# 2 -0.005316 0.015540 -0.010633 0.000000 0.000000 0.000000
# 3 -0.011750 -0.010633 0.093499 0.000000 0.000000 0.000000
# 4 0.000000 0.000000 0.000000 0.088925 0.000000 0.000000
# 5 0.000000 0.000000 0.000000 0.000000 0.110155 0.000000
# 6 0.000000 0.000000 0.000000 0.000000 0.000000 0.037771
#
#
# Mechanical properties :
#
#
# Convention : Reuss Voigt Hill
#
# Bulk Modulus (GPa) = 15.40976 55.63882 35.52429
# Shear Modulus (GPa) = 11.51620 19.45805 15.48712
#
# Velocity S-wave (km/s) = 2.87328 3.73485 3.33203
# Velocity P-wave (km/s) = 4.69624 7.64757 6.34587
#
# Compressibility (1/GPa) = 0.06489394
#
# Stress axis : x y z
#
# Youngs Moduli (GPa) = 88.87065 64.35114 10.69527
#
# Poissons Ratio (x) = 0.34212 0.12567
# Poissons Ratio (y) = 0.47248 0.11372
# Poissons Ratio (z) = 1.04420 0.68422
#
# Static dielectric constant tensor:
#      x y z
#    x 3.172030 0.000000 0.000000 
#    y 0.000000 2.920690 0.000000 
#    z 0.000000 0.000000 2.052890 
# 
# 
# High freq. dielectric constant tensor:
#      x y z
#    x 1.553540 0.000000 0.000000 
#    y 0.000000 1.549060 0.000000 
#    z 0.000000 0.000000 1.431500 
# 
# From -- ./inp_files/47056.got.cif
#   From: 2010.03.12/outbox.cif.g09.slc.cpg/sg74_24_cif.got.tgz:47056.got - 2010.04.16 15:46:19.
