data_PCOD8297008
_publ_section_title
;
Structure prediction by ZEFSAII (Michael W. Deem and Ramdas Pophale) SiO2 
 PCOD8297008
Probable space group: I B C A 
;
_chemical_formula_sum "Si O2"
_cell_formula_units_Z 48
_cell_length_a 9.744894
_cell_length_b 8.389979
_cell_length_c 25.479912
_cell_angle_alpha 90.000000
_cell_angle_beta 90.000000
_cell_angle_gamma 90.000000
_cell_volume 2083.223744
_symmetry_space_group_name_H-M "I B C A "
_symmetry_group_IT_number 73
_symmetry_cell_setting 'orthorhombic'
loop_
_space_group_symop_operation_xyz
x,y,z
-x,1/2-y,z
x,-y,1/2-z
1/2-x,y,-z
-x,-y,-z
x,1/2+y,-z
-x,y,1/2+z
1/2+x,-y,z
1/2+x,1/2+y,1/2+z
1/2-x,-y,1/2+z
1/2+x,1/2-y,-z
-x,1/2+y,1/2-z
1/2-x,1/2-y,1/2-z
1/2+x,y,1/2-z
1/2-x,1/2+y,z
x,1/2-y,1/2+z
loop_
_atom_site_type_symbol
_atom_site_label
_atom_site_fract_x
_atom_site_fract_y
_atom_site_fract_z
Si Si1 0.859541 0.841931 0.282481
Si Si2 0.556574 0.522142 0.558250
Si Si3 0.303963 0.343559 0.900519
O O1 0.750000 0.750000 0.250000
O O2 0.783166 0.850438 0.338334
O O3 0.000000 0.750000 0.291698
O O4 0.894425 0.000000 0.250000
O O5 0.500000 0.500000 0.500000
O O6 0.417690 0.516983 0.592246
O O7 0.639671 0.684521 0.571395
O O8 0.657909 0.377681 0.572155
#
# Coordination Sequence:
#
# PCOD8297008 Si02
#       3
#    16  16  16
#     4  12  26  47  78 111 153 199 253 313 384 454
#     4  11  25  46  74 101 147 194 247 304 372 442
#     4  11  26  49  70 110 148 190 252 308 374 445
#
# _framework density 23.041214
#
# number of rings (size 3 to 8) (size 9 to 14) (size 15 to 20)
#    0.000    0.667    3.333    4.000    4.667   12.000 
#    0.000    0.000    0.000    0.000    0.000    0.000 
#    0.000    0.000    0.000    0.000    0.000    0.000 
#
# Total GULP energy -297366.834422 kJ/mol
# GULP energy per Si atom -12390.284768 kJ/mol
# Density = 2.298877 g / cm^3
# Si number density = 23.041214 Si / 1000 Ang^3
#
#
#
# Elastic Constant Matrix: (Units=GPa)
#
#
# Indices 1 2 3 4 5 6 
#
# 1 118.5188 8.6432 74.3292 0.0000 0.0000 0.0000
# 2 8.6432 73.3478 59.3370 0.0000 0.0000 0.0000
# 3 74.3292 59.3370 219.6524 0.0000 0.0000 0.0000
# 4 0.0000 0.0000 0.0000 40.5929 0.0000 0.0000
# 5 0.0000 0.0000 0.0000 0.0000 52.6430 0.0000
# 6 0.0000 0.0000 0.0000 0.0000 0.0000 30.8178
#
#
#
# Elastic Compliance Matrix: (Units=1/GPa)
#
#
# Indices 1 2 3 4 5 6 
#
# 1 0.010979 0.002190 -0.004307 0.000000 0.000000 0.000000
# 2 0.002190 0.017883 -0.005572 0.000000 0.000000 0.000000
# 3 -0.004307 -0.005572 0.007515 0.000000 0.000000 0.000000
# 4 0.000000 0.000000 0.000000 0.024635 0.000000 0.000000
# 5 0.000000 0.000000 0.000000 0.000000 0.018996 0.000000
# 6 0.000000 0.000000 0.000000 0.000000 0.000000 0.032449
#
#
# Mechanical properties :
#
#
# Convention : Reuss Voigt Hill
#
# Bulk Modulus (GPa) = 47.61862 77.34865 62.48364
# Shear Modulus (GPa) = 37.08246 42.75804 39.92025
#
# Velocity S-wave (km/s) = 4.01608 4.31248 4.16692
# Velocity P-wave (km/s) = 6.49745 7.64455 7.09422
#
# Compressibility (1/GPa) = 0.02100019
#
# Stress axis : x y z
#
# Youngs Moduli (GPa) = 91.08445 55.91776 133.06048
#
# Poissons Ratio (x) = -0.12249 0.57308
# Poissons Ratio (y) = -0.19952 0.74145
# Poissons Ratio (z) = 0.39229 0.31159
#
# Static dielectric constant tensor:
#      x y z
#    x 4.665770 0.000000 0.000000 
#    y 0.000000 4.450990 0.000000 
#    z 0.000000 0.000000 4.009350 
# 
# 
# High freq. dielectric constant tensor:
#      x y z
#    x 1.937870 0.000000 0.000000 
#    y 0.000000 1.902090 0.000000 
#    z 0.000000 0.000000 1.930020 
# 
# From -- ./inp_files/3460.got.cif
#   From: 2010.03.12/outbox.cif.g09.slc.cpg/sg73_2_cif.got.tgz:3460.got - 2010.04.16 15:25:48.
