data_PCOD8297719
_publ_section_title
;
Structure prediction by ZEFSAII (Michael W. Deem and Ramdas Pophale) SiO2 
 PCOD8297719
Probable space group: I M M A
;
_chemical_formula_sum "Si O2"
_cell_formula_units_Z 96
_cell_length_a 22.747339
_cell_length_b 9.003811
_cell_length_c 26.944321
_cell_angle_alpha 90.000000
_cell_angle_beta 90.000000
_cell_angle_gamma 90.000000
_cell_volume 5518.540241
_symmetry_space_group_name_H-M "I M M A"
_symmetry_group_IT_number 74
_symmetry_cell_setting 'orthorhombic'
loop_
_space_group_symop_operation_xyz
x,y,z
-x,1/2-y,z
x,-y,-z
-x,1/2+y,-z
-x,-y,-z
x,1/2+y,-z
-x,y,z
x,1/2-y,z
1/2+x,1/2+y,1/2+z
1/2-x,-y,1/2+z
1/2+x,1/2-y,1/2-z
1/2-x,y,1/2-z
1/2-x,1/2-y,1/2-z
1/2+x,y,1/2-z
1/2-x,1/2+y,1/2+z
1/2+x,-y,1/2+z
loop_
_atom_site_type_symbol
_atom_site_label
_atom_site_fract_x
_atom_site_fract_y
_atom_site_fract_z
Si Si1 0.500000 0.926960 0.876923
Si Si2 0.767840 0.922234 0.449426
Si Si3 0.382731 0.917841 0.710752
Si Si4 0.000000 0.926872 0.737103
Si Si5 0.185834 0.419236 0.309019
Si Si6 0.617207 0.926069 0.108369
Si Si7 0.204907 0.924596 0.149682
O O1 0.500000 0.750000 0.881110
O O2 0.500000 0.984033 0.819704
O O3 0.556301 0.993820 0.905652
O O4 0.766588 0.750000 0.460276
O O5 0.833161 0.970041 0.431926
O O6 0.720046 0.964588 0.407328
O O7 0.749462 0.000000 0.500000
O O8 0.393455 0.750000 0.692053
O O9 0.442904 0.985226 0.733226
O O10 0.331845 0.921227 0.751807
O O11 0.360109 0.016339 0.664179
O O12 0.000000 0.750000 0.734493
O O13 0.187623 0.250000 0.329062
O O14 0.136848 0.511781 0.338463
O O15 0.248945 0.494553 0.314469
O O16 0.608818 0.750000 0.111822
O O17 0.209625 0.750000 0.158885
#
# Coordination Sequence:
#
# PCOD8297719 Si02
#       7
#     8  16  16   8  16  16  16
#     4  11  19  33  52  72  99 140 183 214 242 288
#     4   9  20  37  55  74  98 125 160 210 264 311
#     4  10  19  32  49  71 101 137 173 206 239 287
#     4   9  18  33  49  70 103 138 175 214 237 268
#     4  10  18  30  49  72  99 135 175 206 241 294
#     4  10  20  33  49  74 104 133 167 214 261 299
#     4  10  21  34  48  73 105 130 159 208 259 302
#
# _framework density 17.395904000000002
#
# number of rings (size 3 to 8) (size 9 to 14) (size 15 to 20)
#    0.000    2.167    1.667    3.250    0.000    7.333 
#    0.000    0.833    0.000    0.000    0.000    0.583 
#    0.000    0.000    0.000    0.000    0.000    0.000 
#
# Total GULP energy -595120.393085 kJ/mol
# GULP energy per Si atom -12398.341523 kJ/mol
# Density = 1.735631 g / cm^3
# Si number density = 17.395904 Si / 1000 Ang^3
#
#
#
# Elastic Constant Matrix: (Units=GPa)
#
#
# Indices 1 2 3 4 5 6 
#
# 1 61.7872 26.9136 37.8694 0.0000 0.0000 0.0000
# 2 26.9136 73.7948 35.3477 0.0000 0.0000 0.0000
# 3 37.8694 35.3477 80.8039 0.0000 0.0000 0.0000
# 4 0.0000 0.0000 0.0000 26.7582 0.0000 0.0000
# 5 0.0000 0.0000 0.0000 0.0000 14.1962 0.0000
# 6 0.0000 0.0000 0.0000 0.0000 0.0000 29.3178
#
#
#
# Elastic Compliance Matrix: (Units=1/GPa)
#
#
# Indices 1 2 3 4 5 6 
#
# 1 0.023695 -0.004203 -0.009266 0.000000 0.000000 0.000000
# 2 -0.004203 0.017889 -0.005856 0.000000 0.000000 0.000000
# 3 -0.009266 -0.005856 0.019280 0.000000 0.000000 0.000000
# 4 0.000000 0.000000 0.000000 0.037372 0.000000 0.000000
# 5 0.000000 0.000000 0.000000 0.000000 0.070441 0.000000
# 6 0.000000 0.000000 0.000000 0.000000 0.000000 0.034109
#
#
# Mechanical properties :
#
#
# Convention : Reuss Voigt Hill
#
# Bulk Modulus (GPa) = 45.01745 46.29413 45.65579
# Shear Modulus (GPa) = 20.09329 21.80479 20.94904
#
# Velocity S-wave (km/s) = 3.40230 3.54424 3.47400
# Velocity P-wave (km/s) = 6.43184 6.58929 6.51104
#
# Compressibility (1/GPa) = 0.02221361
#
# Stress axis : x y z
#
# Youngs Moduli (GPa) = 42.20376 55.90063 51.86789
#
# Poissons Ratio (x) = 0.23496 0.48061
# Poissons Ratio (y) = 0.17739 0.30372
# Poissons Ratio (z) = 0.39106 0.32733
#
# Static dielectric constant tensor:
#      x y z
#    x 3.328830 0.000000 0.000000 
#    y 0.000000 3.218850 0.000000 
#    z 0.000000 0.000000 3.003780 
# 
# 
# High freq. dielectric constant tensor:
#      x y z
#    x 1.662900 0.000000 0.000000 
#    y 0.000000 1.673590 0.000000 
#    z 0.000000 0.000000 1.641120 
# 
# From -- ./inp_files/68588.got.cif
#   From: 2010.03.12/outbox.cif.g09.slc.cpg/sg74_35_cif.got.tgz:68588.got - 2010.04.16 15:46:19.
