data_PCOD8298193
_publ_section_title
;
Structure prediction by ZEFSAII (Michael W. Deem and Ramdas Pophale) SiO2 
 PCOD8298193
Probable space group: I M M A
;
_chemical_formula_sum "Si O2"
_cell_formula_units_Z 80
_cell_length_a 24.792564
_cell_length_b 13.902265
_cell_length_c 11.509003
_cell_angle_alpha 90.000000
_cell_angle_beta 90.000000
_cell_angle_gamma 90.000000
_cell_volume 3966.840229
_symmetry_space_group_name_H-M "I M M A"
_symmetry_group_IT_number 74
_symmetry_cell_setting 'orthorhombic'
loop_
_space_group_symop_operation_xyz
x,y,z
-x,1/2-y,z
x,-y,-z
-x,1/2+y,-z
-x,-y,-z
x,1/2+y,-z
-x,y,z
x,1/2-y,z
1/2+x,1/2+y,1/2+z
1/2-x,-y,1/2+z
1/2+x,1/2-y,1/2-z
1/2-x,y,1/2-z
1/2-x,1/2-y,1/2-z
1/2+x,y,1/2-z
1/2-x,1/2+y,1/2+z
1/2+x,-y,1/2+z
loop_
_atom_site_type_symbol
_atom_site_label
_atom_site_fract_x
_atom_site_fract_y
_atom_site_fract_z
Si Si1 0.158894 0.639014 0.727830
Si Si2 0.205556 0.464170 0.845467
Si Si3 0.127027 0.359367 0.702844
Si Si4 0.560785 0.975799 0.866072
Si Si5 0.715496 0.140585 0.988593
O O1 0.156842 0.750000 0.768866
O O2 0.179881 0.572174 0.834641
O O3 0.100273 0.608263 0.679970
O O4 0.201770 0.624863 0.623586
O O5 0.250000 0.444748 0.750000
O O6 0.158509 0.386713 0.820441
O O7 0.233893 0.431700 0.966606
O O8 0.108306 0.250000 0.703862
O O9 0.073597 0.424406 0.699413
O O10 0.163822 0.385703 0.590412
O O11 0.500000 0.942600 0.837919
O O12 0.568731 0.000000 0.000000
O O13 0.732515 0.250000 0.962313
#
# Coordination Sequence:
#
# PCOD8298193 Si02
#       5
#    16  16  16  16  16
#     4  10  20  33  48  67  95 132 170 202 239 288
#     4   9  18  28  46  66  92 119 160 204 244 282
#     4   9  16  27  42  62  86 115 154 197 238 278
#     4  10  19  29  43  64  91 125 167 207 239 273
#     4   9  16  29  48  67  88 122 164 202 241 285
#
# _framework density 20.167185
#
# number of rings (size 3 to 8) (size 9 to 14) (size 15 to 20)
#    0.000    2.600    2.000    0.600    0.000    3.600 
#    0.000    2.000    0.000    2.400    0.000    0.000 
#    0.000    0.000    0.000  136.800    0.000  514.000 
#
# Total GULP energy -495644.888084 kJ/mol
# GULP energy per Si atom -12391.122202 kJ/mol
# Density = 2.012128 g / cm^3
# Si number density = 20.167185 Si / 1000 Ang^3
#
#
#
# Elastic Constant Matrix: (Units=GPa)
#
#
# Indices 1 2 3 4 5 6 
#
# 1 102.8754 47.9919 26.3008 0.0000 0.0000 0.0000
# 2 47.9919 124.7419 25.9397 0.0000 0.0000 0.0000
# 3 26.3008 25.9397 29.4319 0.0000 0.0000 0.0000
# 4 0.0000 0.0000 0.0000 20.8430 0.0000 0.0000
# 5 0.0000 0.0000 0.0000 0.0000 18.0778 0.0000
# 6 0.0000 0.0000 0.0000 0.0000 0.0000 23.3797
#
#
#
# Elastic Compliance Matrix: (Units=1/GPa)
#
#
# Indices 1 2 3 4 5 6 
#
# 1 0.013637 -0.003321 -0.009259 0.000000 0.000000 0.000000
# 2 -0.003321 0.010624 -0.006396 0.000000 0.000000 0.000000
# 3 -0.009259 -0.006396 0.047888 0.000000 0.000000 0.000000
# 4 0.000000 0.000000 0.000000 0.047978 0.000000 0.000000
# 5 0.000000 0.000000 0.000000 0.000000 0.055316 0.000000
# 6 0.000000 0.000000 0.000000 0.000000 0.000000 0.042772
#
#
# Mechanical properties :
#
#
# Convention : Reuss Voigt Hill
#
# Bulk Modulus (GPa) = 29.24251 50.83490 40.03870
# Shear Modulus (GPa) = 18.68693 22.91455 20.80074
#
# Velocity S-wave (km/s) = 3.04731 3.37446 3.21505
# Velocity P-wave (km/s) = 5.18778 6.35957 5.80332
#
# Compressibility (1/GPa) = 0.03419680
#
# Stress axis : x y z
#
# Youngs Moduli (GPa) = 73.32989 94.12390 20.88213
#
# Poissons Ratio (x) = 0.31260 0.19335
# Poissons Ratio (y) = 0.24354 0.13356
# Poissons Ratio (z) = 0.67897 0.60200
#
# Static dielectric constant tensor:
#      x y z
#    x 3.570960 0.000000 0.000000 
#    y 0.000000 3.809290 0.000000 
#    z 0.000000 0.000000 3.560890 
# 
# 
# High freq. dielectric constant tensor:
#      x y z
#    x 1.759030 0.000000 0.000000 
#    y 0.000000 1.808440 0.000000 
#    z 0.000000 0.000000 1.752890 
# 
# From -- ./inp_files/20495.got.cif
#   From: 2010.03.12/outbox.cif.g09.slc.cpg/sg74_11_cif.got.tgz:20495.got - 2010.04.16 15:46:19.
