data_PCOD8298576
_publ_section_title
;
Structure prediction by ZEFSAII (Michael W. Deem and Ramdas Pophale) SiO2 
 PCOD8298576
Probable space group: I M M A
;
_chemical_formula_sum "Si O2"
_cell_formula_units_Z 88
_cell_length_a 31.409247
_cell_length_b 34.163786
_cell_length_c 5.124574
_cell_angle_alpha 90.000000
_cell_angle_beta 90.000000
_cell_angle_gamma 90.000000
_cell_volume 5498.969191
_symmetry_space_group_name_H-M "I M M A"
_symmetry_group_IT_number 74
_symmetry_cell_setting 'orthorhombic'
loop_
_space_group_symop_operation_xyz
x,y,z
-x,1/2-y,z
x,-y,-z
-x,1/2+y,-z
-x,-y,-z
x,1/2+y,-z
-x,y,z
x,1/2-y,z
1/2+x,1/2+y,1/2+z
1/2-x,-y,1/2+z
1/2+x,1/2-y,1/2-z
1/2-x,y,1/2-z
1/2-x,1/2-y,1/2-z
1/2+x,y,1/2-z
1/2-x,1/2+y,1/2+z
1/2+x,-y,1/2+z
loop_
_atom_site_type_symbol
_atom_site_label
_atom_site_fract_x
_atom_site_fract_y
_atom_site_fract_z
Si Si1 0.550525 0.341178 0.524838
Si Si2 0.050517 0.793767 0.523784
Si Si3 0.500000 0.472851 0.741703
Si Si4 0.871861 0.455179 0.432535
Si Si5 0.727303 0.954229 0.994375
Si Si6 0.582935 0.073750 0.590968
O O1 0.500000 0.347467 0.524436
O O2 0.566026 0.314702 0.285566
O O3 0.572990 0.382755 0.497327
O O4 0.566919 0.319287 0.782205
O O5 0.069887 0.750000 0.511018
O O6 0.000000 0.791004 0.516222
O O7 0.500000 0.500000 0.500000
O O8 0.458736 0.446134 0.714691
O O9 0.500000 0.500000 0.000000
O O10 0.882764 0.500000 0.500000
O O11 0.822022 0.446735 0.439379
O O12 0.886651 0.425897 0.659445
O O13 0.894647 0.447868 0.153629
O O14 0.750000 0.933949 0.750000
O O15 0.750000 0.935396 0.250000
O O16 0.737184 0.000000 0.000000
#
# Coordination Sequence:
#
# PCOD8298576 Si02
#       6
#    16  16   8  16  16  16
#     4  10  19  32  46  64  90 121 156 195 238 278
#     4   9  17  29  48  68  86 109 148 196 238 283
#     4  12  24  36  48  60  83 128 179 220 244 264
#     4  11  22  34  50  68  92 120 162 209 244 286
#     4   9  17  31  50  70  88 110 143 191 248 301
#     4  12  22  35  47  66  92 127 166 206 247 274
#
# _framework density 16.003
#
# number of rings (size 3 to 8) (size 9 to 14) (size 15 to 20)
#    0.000    1.636    0.909    6.000    0.000    5.091 
#    0.000    0.000    0.000    0.000    0.000    0.000 
#    0.000    0.000    0.000    0.000    0.000  229.091 
#
# Total GULP energy -545291.401937 kJ/mol
# GULP energy per Si atom -12392.986408 kJ/mol
# Density = 1.596658 g / cm^3
# Si number density = 16.003000 Si / 1000 Ang^3
#
#
#
# Elastic Constant Matrix: (Units=GPa)
#
#
# Indices 1 2 3 4 5 6 
#
# 1 64.3782 27.8056 50.8221 0.0000 0.0000 0.0000
# 2 27.8056 82.5723 34.5590 0.0000 0.0000 0.0000
# 3 50.8221 34.5590 145.9263 0.0000 0.0000 0.0000
# 4 0.0000 0.0000 0.0000 24.1217 0.0000 0.0000
# 5 0.0000 0.0000 0.0000 0.0000 18.2320 0.0000
# 6 0.0000 0.0000 0.0000 0.0000 0.0000 4.3158
#
#
#
# Elastic Compliance Matrix: (Units=1/GPa)
#
#
# Indices 1 2 3 4 5 6 
#
# 1 0.023076 -0.004892 -0.006878 0.000000 0.000000 0.000000
# 2 -0.004892 0.014480 -0.001726 0.000000 0.000000 0.000000
# 3 -0.006878 -0.001726 0.009657 0.000000 0.000000 0.000000
# 4 0.000000 0.000000 0.000000 0.041457 0.000000 0.000000
# 5 0.000000 0.000000 0.000000 0.000000 0.054849 0.000000
# 6 0.000000 0.000000 0.000000 0.000000 0.000000 0.231704
#
#
# Mechanical properties :
#
#
# Convention : Reuss Voigt Hill
#
# Bulk Modulus (GPa) = 49.45187 57.69445 53.57316
# Shear Modulus (GPa) = 12.22630 21.31323 16.76977
#
# Velocity S-wave (km/s) = 2.76706 3.65338 3.24066
# Velocity P-wave (km/s) = 6.41697 7.34349 6.89581
#
# Compressibility (1/GPa) = 0.02022168
#
# Stress axis : x y z
#
# Youngs Moduli (GPa) = 43.33522 69.06037 103.55283
#
# Poissons Ratio (x) = 0.33784 0.71226
# Poissons Ratio (y) = 0.21199 0.17868
# Poissons Ratio (z) = 0.29807 0.11917
#
# Static dielectric constant tensor:
#      x y z
#    x 2.845840 0.000000 0.000000 
#    y 0.000000 2.923980 0.000000 
#    z 0.000000 0.000000 3.371440 
# 
# 
# High freq. dielectric constant tensor:
#      x y z
#    x 1.583730 0.000000 0.000000 
#    y 0.000000 1.588070 0.000000 
#    z 0.000000 0.000000 1.643960 
# 
# From -- ./inp_files/4633.got.cif
#   From: 2010.03.12/outbox.cif.g09.slc.cpg/sg74_3_cif.got.tgz:4633.got - 2010.04.16 15:46:19.
