data_PCOD8298928
_publ_section_title
;
Structure prediction by ZEFSAII (Michael W. Deem and Ramdas Pophale) SiO2 
 PCOD8298928
Probable space group: I M M A
;
_chemical_formula_sum "Si O2"
_cell_formula_units_Z 112
_cell_length_a 25.255242
_cell_length_b 16.710851
_cell_length_c 12.777191
_cell_angle_alpha 90.000000
_cell_angle_beta 90.000000
_cell_angle_gamma 90.000000
_cell_volume 5392.442069
_symmetry_space_group_name_H-M "I M M A"
_symmetry_group_IT_number 74
_symmetry_cell_setting 'orthorhombic'
loop_
_space_group_symop_operation_xyz
x,y,z
-x,1/2-y,z
x,-y,-z
-x,1/2+y,-z
-x,-y,-z
x,1/2+y,-z
-x,y,z
x,1/2-y,z
1/2+x,1/2+y,1/2+z
1/2-x,-y,1/2+z
1/2+x,1/2-y,1/2-z
1/2-x,y,1/2-z
1/2-x,1/2-y,1/2-z
1/2+x,y,1/2-z
1/2-x,1/2+y,1/2+z
1/2+x,-y,1/2+z
loop_
_atom_site_type_symbol
_atom_site_label
_atom_site_fract_x
_atom_site_fract_y
_atom_site_fract_z
Si Si1 0.137252 0.839262 0.669647
Si Si2 0.211449 0.570135 0.344749
Si Si3 0.107204 0.843695 0.286584
Si Si4 0.854337 0.154322 0.101427
Si Si5 0.057647 0.844240 0.503282
Si Si6 0.735432 0.104915 0.069820
Si Si7 0.059205 0.155654 0.936021
O O1 0.115994 0.750000 0.680869
O O2 0.128811 0.877999 0.783997
O O3 0.101501 0.883923 0.581117
O O4 0.199172 0.834475 0.636175
O O5 0.250000 0.589787 0.250000
O O6 0.155161 0.595044 0.299050
O O7 0.224063 0.622146 0.447669
O O8 0.215408 0.479346 0.383788
O O9 0.125338 0.750000 0.285553
O O10 0.068473 0.862710 0.382400
O O11 0.076997 0.866849 0.180591
O O12 0.847880 0.250000 0.095817
O O13 0.797719 0.114474 0.081710
O O14 0.897915 0.121532 0.019250
O O15 0.058391 0.750000 0.519735
O O16 0.000000 0.879736 0.531871
O O17 0.057069 0.250000 0.950106
O O18 0.000000 0.120518 0.957006
#
# Coordination Sequence:
#
# PCOD8298928 Si02
#       7
#    16  16  16  16  16  16  16
#     4  10  19  33  54  79 108 146 186 228 275 330
#     4  11  23  36  54  79 108 146 185 229 286 336
#     4  10  19  34  55  80 111 144 184 230 278 339
#     4  10  20  33  54  82 114 150 188 229 274 332
#     4   9  17  30  51  79 106 136 176 222 272 323
#     4  11  22  37  54  78 112 147 188 231 281 339
#     4   9  18  33  55  86 120 151 186 233 288 341
#
# _framework density 20.76981
#
# number of rings (size 3 to 8) (size 9 to 14) (size 15 to 20)
#    0.000    2.000    1.429    3.000    0.000    4.286 
#    0.000    2.857    0.000    2.571    0.000   16.000 
#    0.000    0.000    0.000    0.000    0.000    0.429 
#
# Total GULP energy -693937.988668 kJ/mol
# GULP energy per Si atom -12391.749798 kJ/mol
# Density = 2.072254 g / cm^3
# Si number density = 20.769810 Si / 1000 Ang^3
#
#
#
# Elastic Constant Matrix: (Units=GPa)
#
#
# Indices 1 2 3 4 5 6 
#
# 1 189.7568 21.5453 90.3948 0.0000 0.0000 0.0000
# 2 21.5453 26.5998 8.4506 0.0000 0.0000 0.0000
# 3 90.3948 8.4506 179.2198 0.0000 0.0000 0.0000
# 4 0.0000 0.0000 0.0000 14.7342 0.0000 0.0000
# 5 0.0000 0.0000 0.0000 0.0000 30.5391 0.0000
# 6 0.0000 0.0000 0.0000 0.0000 0.0000 10.1786
#
#
#
# Elastic Compliance Matrix: (Units=1/GPa)
#
#
# Indices 1 2 3 4 5 6 
#
# 1 0.007532 -0.004968 -0.003565 0.000000 0.000000 0.000000
# 2 -0.004968 0.041443 0.000552 0.000000 0.000000 0.000000
# 3 -0.003565 0.000552 0.007352 0.000000 0.000000 0.000000
# 4 0.000000 0.000000 0.000000 0.067869 0.000000 0.000000
# 5 0.000000 0.000000 0.000000 0.000000 0.032745 0.000000
# 6 0.000000 0.000000 0.000000 0.000000 0.000000 0.098245
#
#
# Mechanical properties :
#
#
# Convention : Reuss Voigt Hill
#
# Bulk Modulus (GPa) = 24.77431 70.70643 47.74037
# Shear Modulus (GPa) = 17.56826 29.43609 23.50217
#
# Velocity S-wave (km/s) = 2.91151 3.76873 3.36751
# Velocity P-wave (km/s) = 4.82250 7.28385 6.17701
#
# Compressibility (1/GPa) = 0.04036440
#
# Stress axis : x y z
#
# Youngs Moduli (GPa) = 132.76319 24.12938 136.02214
#
# Poissons Ratio (x) = 0.11989 0.48489
# Poissons Ratio (y) = 0.65962 -0.07506
# Poissons Ratio (z) = 0.47328 -0.01332
#
# Static dielectric constant tensor:
#      x y z
#    x 4.059400 0.000000 0.000000 
#    y 0.000000 3.271270 0.000000 
#    z 0.000000 0.000000 4.277500 
# 
# 
# High freq. dielectric constant tensor:
#      x y z
#    x 1.817080 0.000000 0.000000 
#    y 0.000000 1.763040 0.000000 
#    z 0.000000 0.000000 1.835580 
# 
# From -- ./inp_files/25357.got.cif
#   From: 2010.03.12/outbox.cif.g09.slc.cpg/sg74_13_cif.got.tgz:25357.got - 2010.04.16 15:46:19.
