data_PCOD8298786
_publ_section_title
;
Structure prediction by ZEFSAII (Michael W. Deem and Ramdas Pophale) SiO2 
 PCOD8298786
Probable space group: I M M A
;
_chemical_formula_sum "Si O2"
_cell_formula_units_Z 112
_cell_length_a 28.510551
_cell_length_b 18.046166
_cell_length_c 10.468379
_cell_angle_alpha 90.000000
_cell_angle_beta 90.000000
_cell_angle_gamma 90.000000
_cell_volume 5386.045230
_symmetry_space_group_name_H-M "I M M A"
_symmetry_group_IT_number 74
_symmetry_cell_setting 'orthorhombic'
loop_
_space_group_symop_operation_xyz
x,y,z
-x,1/2-y,z
x,-y,-z
-x,1/2+y,-z
-x,-y,-z
x,1/2+y,-z
-x,y,z
x,1/2-y,z
1/2+x,1/2+y,1/2+z
1/2-x,-y,1/2+z
1/2+x,1/2-y,1/2-z
1/2-x,y,1/2-z
1/2-x,1/2-y,1/2-z
1/2+x,y,1/2-z
1/2-x,1/2+y,1/2+z
1/2+x,-y,1/2+z
loop_
_atom_site_type_symbol
_atom_site_label
_atom_site_fract_x
_atom_site_fract_y
_atom_site_fract_z
Si Si1 0.853590 0.665594 0.761465
Si Si2 0.305994 0.834125 0.992226
Si Si3 0.052604 0.665886 0.403612
Si Si4 0.303256 0.571414 0.246264
Si Si5 0.198871 0.165739 0.998327
Si Si6 0.391908 0.022964 0.858132
Si Si7 0.448211 0.383388 0.191671
O O1 0.836267 0.750000 0.760836
O O2 0.836373 0.630788 0.625384
O O3 0.909704 0.659200 0.776588
O O4 0.830597 0.628539 0.886581
O O5 0.322227 0.750000 0.019470
O O6 0.313427 0.879912 0.120562
O O7 0.251978 0.837673 0.953379
O O8 0.069473 0.750000 0.373713
O O9 0.088895 0.607149 0.343723
O O10 0.051418 0.654748 0.554716
O O11 0.000000 0.653250 0.349221
O O12 0.250000 0.537745 0.250000
O O13 0.310304 0.619944 0.371146
O O14 0.345696 0.511675 0.234217
O O15 0.183639 0.250000 0.968332
O O16 0.433825 0.969648 0.813597
O O17 0.376754 0.000000 0.000000
O O18 0.500000 0.377378 0.254102
#
# Coordination Sequence:
#
# PCOD8298786 Si02
#       7
#    16  16  16  16  16  16  16
#     4  10  19  32  54  83 111 143 183 225 269 316
#     4   9  16  29  52  81 112 144 178 217 263 318
#     4   9  17  30  52  83 112 137 173 224 275 320
#     4  10  20  34  52  77 107 142 183 222 266 320
#     4   9  18  32  51  79 115 148 179 219 267 319
#     4  10  20  35  54  77 108 145 180 219 272 328
#     4  10  20  34  52  75 104 139 181 227 273 322
#
# _framework density 20.794478000000002
#
# number of rings (size 3 to 8) (size 9 to 14) (size 15 to 20)
#    0.000    2.429    0.000    3.429    0.000    8.286 
#    0.000    5.000    0.000    2.571    0.000    0.000 
#    0.000    0.571    0.000    0.000    0.000    0.000 
#
# Total GULP energy -693988.787731 kJ/mol
# GULP energy per Si atom -12392.656924 kJ/mol
# Density = 2.074715 g / cm^3
# Si number density = 20.794478 Si / 1000 Ang^3
#
#
#
# Elastic Constant Matrix: (Units=GPa)
#
#
# Indices 1 2 3 4 5 6 
#
# 1 138.1707 12.3671 48.6352 0.0000 0.0000 0.0000
# 2 12.3671 53.8972 10.6220 0.0000 0.0000 0.0000
# 3 48.6352 10.6220 91.4605 0.0000 0.0000 0.0000
# 4 0.0000 0.0000 0.0000 14.1485 0.0000 0.0000
# 5 0.0000 0.0000 0.0000 0.0000 27.8552 0.0000
# 6 0.0000 0.0000 0.0000 0.0000 0.0000 21.9890
#
#
#
# Elastic Compliance Matrix: (Units=1/GPa)
#
#
# Indices 1 2 3 4 5 6 
#
# 1 0.008973 -0.001145 -0.004638 0.000000 0.000000 0.000000
# 2 -0.001145 0.019134 -0.001614 0.000000 0.000000 0.000000
# 3 -0.004638 -0.001614 0.013588 0.000000 0.000000 0.000000
# 4 0.000000 0.000000 0.000000 0.070679 0.000000 0.000000
# 5 0.000000 0.000000 0.000000 0.000000 0.035900 0.000000
# 6 0.000000 0.000000 0.000000 0.000000 0.000000 0.045477
#
#
# Mechanical properties :
#
#
# Convention : Reuss Voigt Hill
#
# Bulk Modulus (GPa) = 37.17261 47.41964 42.29613
# Shear Modulus (GPa) = 22.98736 26.92549 24.95642
#
# Velocity S-wave (km/s) = 3.32845 3.60229 3.46807
# Velocity P-wave (km/s) = 5.71720 6.33683 6.03498
#
# Compressibility (1/GPa) = 0.02690153
#
# Stress axis : x y z
#
# Youngs Moduli (GPa) = 111.45122 52.26163 73.59683
#
# Poissons Ratio (x) = 0.05982 0.34136
# Poissons Ratio (y) = 0.12758 0.11875
# Poissons Ratio (z) = 0.51694 0.08433
#
# Static dielectric constant tensor:
#      x y z
#    x 4.118950 0.000000 0.000000 
#    y 0.000000 3.763070 0.000000 
#    z 0.000000 0.000000 3.473720 
# 
# 
# High freq. dielectric constant tensor:
#      x y z
#    x 1.827090 0.000000 0.000000 
#    y 0.000000 1.812010 0.000000 
#    z 0.000000 0.000000 1.768620 
# 
# From -- ./inp_files/26485.got.cif
#   From: 2010.03.12/outbox.cif.g09.slc.cpg/sg74_14_cif.got.tgz:26485.got - 2010.04.16 15:46:19.
