data_PCOD8298733
_publ_section_title
;
Structure prediction by ZEFSAII (Michael W. Deem and Ramdas Pophale) SiO2 
 PCOD8298733
Probable space group: I M M A
;
_chemical_formula_sum "Si O2"
_cell_formula_units_Z 88
_cell_length_a 9.200948
_cell_length_b 27.479743
_cell_length_c 18.998671
_cell_angle_alpha 90.000000
_cell_angle_beta 90.000000
_cell_angle_gamma 90.000000
_cell_volume 4803.618018
_symmetry_space_group_name_H-M "I M M A"
_symmetry_group_IT_number 74
_symmetry_cell_setting 'orthorhombic'
loop_
_space_group_symop_operation_xyz
x,y,z
-x,1/2-y,z
x,-y,-z
-x,1/2+y,-z
-x,-y,-z
x,1/2+y,-z
-x,y,z
x,1/2-y,z
1/2+x,1/2+y,1/2+z
1/2-x,-y,1/2+z
1/2+x,1/2-y,1/2-z
1/2-x,y,1/2-z
1/2-x,1/2-y,1/2-z
1/2+x,y,1/2-z
1/2-x,1/2+y,1/2+z
1/2+x,-y,1/2+z
loop_
_atom_site_type_symbol
_atom_site_label
_atom_site_fract_x
_atom_site_fract_y
_atom_site_fract_z
Si Si1 0.169204 0.345162 0.907947
Si Si2 0.329441 0.862336 0.824591
Si Si3 0.170538 0.426351 0.674976
Si Si4 0.834993 0.967891 0.679388
Si Si5 0.666234 0.193716 0.440885
Si Si6 0.329642 0.750000 0.323275
O O1 0.264920 0.389996 0.882099
O O2 0.218579 0.297308 0.866258
O O3 0.000000 0.356334 0.895023
O O4 0.202543 0.337459 0.990001
O O5 0.500000 0.853125 0.813306
O O6 0.250000 0.856682 0.750000
O O7 0.297924 0.916482 0.858882
O O8 0.269723 0.822382 0.877818
O O9 0.250000 0.419950 0.750000
O O10 0.195709 0.480596 0.640346
O O11 0.000000 0.415661 0.686420
O O12 0.750000 0.970266 0.750000
O O13 0.000000 0.966042 0.703225
O O14 0.500000 0.185377 0.417798
O O15 0.694914 0.250000 0.458217
O O16 0.500000 0.750000 0.309512
O O17 0.250000 0.750000 0.250000
#
# Coordination Sequence:
#
# PCOD8298733 Si02
#       6
#    16  16  16  16  16   8
#     4  10  20  36  54  74 104 142 181 220 267 316
#     4  10  20  36  59  85 109 136 174 219 264 319
#     4  10  19  32  52  79 109 142 179 220 264 312
#     4   8  16  31  51  76 107 139 171 212 264 313
#     4  10  21  39  59  77 104 143 179 219 272 321
#     4  10  20  34  52  74 101 136 177 220 263 306
#
# _framework density 18.319526
#
# number of rings (size 3 to 8) (size 9 to 14) (size 15 to 20)
#    0.000    2.364    0.909    1.636    0.000    5.091 
#    0.000    0.909    0.000    5.455    0.000    0.000 
#    0.000    0.000    0.000    0.000    0.000    0.000 
#
# Total GULP energy -545227.347307 kJ/mol
# GULP energy per Si atom -12391.530621 kJ/mol
# Density = 1.827783 g / cm^3
# Si number density = 18.319526 Si / 1000 Ang^3
#
#
#
# Elastic Constant Matrix: (Units=GPa)
#
#
# Indices 1 2 3 4 5 6 
#
# 1 77.5557 42.6370 44.2449 -0.0001 0.0000 0.0000
# 2 42.6370 80.6022 37.8659 -0.0001 0.0000 0.0000
# 3 44.2449 37.8659 82.4341 -0.0004 0.0000 0.0000
# 4 -0.0001 -0.0001 -0.0004 11.1706 0.0000 0.0000
# 5 0.0000 0.0000 0.0000 0.0000 29.4685 0.0000
# 6 0.0000 0.0000 0.0000 0.0000 0.0000 29.3513
#
#
#
# Elastic Compliance Matrix: (Units=1/GPa)
#
#
# Indices 1 2 3 4 5 6 
#
# 1 0.021772 -0.007686 -0.008155 0.000000 0.000000 0.000000
# 2 -0.007686 0.018534 -0.004388 0.000000 0.000000 0.000000
# 3 -0.008155 -0.004388 0.018524 0.000001 0.000000 0.000000
# 4 0.000000 0.000000 0.000001 0.089521 0.000000 0.000000
# 5 0.000000 0.000000 0.000000 0.000000 0.033935 0.000000
# 6 0.000000 0.000000 0.000000 0.000000 0.000000 0.034070
#
#
# Mechanical properties :
#
#
# Convention : Reuss Voigt Hill
#
# Bulk Modulus (GPa) = 54.43357 54.45417 54.44387
# Shear Modulus (GPa) = 19.01601 21.72101 20.36851
#
# Velocity S-wave (km/s) = 3.22532 3.44710 3.33805
# Velocity P-wave (km/s) = 6.60668 6.75518 6.68134
#
# Compressibility (1/GPa) = 0.01837102
#
# Stress axis : x y z
#
# Youngs Moduli (GPa) = 45.93132 53.95575 53.98465
#
# Poissons Ratio (x) = 0.41468 0.44025
# Poissons Ratio (y) = 0.35301 0.23690
# Poissons Ratio (z) = 0.37458 0.23678
#
# Static dielectric constant tensor:
#      x y z
#    x 3.350510 0.000000 0.000000 
#    y 0.000000 4.039890 0.000000 
#    z 0.000000 0.000000 3.003030 
# 
# 
# High freq. dielectric constant tensor:
#      x y z
#    x 1.715220 0.000000 0.000000 
#    y 0.000000 1.729330 0.000000 
#    z 0.000000 0.000000 1.679840 
# 
# From -- ./inp_files/40142.got.cif
#   From: 2010.03.12/outbox.cif.g09.slc.cpg/sg74_21_cif.got.tgz:40142.got - 2010.04.16 15:46:19.
