data_PCOD8298717
_publ_section_title
;
Structure prediction by ZEFSAII (Michael W. Deem and Ramdas Pophale) SiO2 
 PCOD8298717
Probable space group: I M M A
;
_chemical_formula_sum "Si O2"
_cell_formula_units_Z 80
_cell_length_a 17.351590
_cell_length_b 14.445696
_cell_length_c 17.067612
_cell_angle_alpha 90.000000
_cell_angle_beta 90.000000
_cell_angle_gamma 90.000000
_cell_volume 4278.095842
_symmetry_space_group_name_H-M "I M M A"
_symmetry_group_IT_number 74
_symmetry_cell_setting 'orthorhombic'
loop_
_space_group_symop_operation_xyz
x,y,z
-x,1/2-y,z
x,-y,-z
-x,1/2+y,-z
-x,-y,-z
x,1/2+y,-z
-x,y,z
x,1/2-y,z
1/2+x,1/2+y,1/2+z
1/2-x,-y,1/2+z
1/2+x,1/2-y,1/2-z
1/2-x,y,1/2-z
1/2-x,1/2-y,1/2-z
1/2+x,y,1/2-z
1/2-x,1/2+y,1/2+z
1/2+x,-y,1/2+z
loop_
_atom_site_type_symbol
_atom_site_label
_atom_site_fract_x
_atom_site_fract_y
_atom_site_fract_z
Si Si1 0.334391 0.478550 0.090205
Si Si2 0.085122 0.351681 0.837620
Si Si3 0.089731 0.142033 0.287270
Si Si4 0.915326 0.851451 0.347117
Si Si5 0.307021 0.013269 0.318222
O O1 0.391282 0.401016 0.126943
O O2 0.349962 0.576612 0.130942
O O3 0.246888 0.447308 0.111422
O O4 0.348829 0.500000 0.000000
O O5 0.112532 0.250000 0.868237
O O6 0.078679 0.349045 0.745173
O O7 0.145229 0.431414 0.860157
O O8 0.000000 0.373955 0.872515
O O9 0.111365 0.250000 0.288051
O O10 0.137811 0.092436 0.217915
O O11 0.000000 0.126088 0.269384
O O12 0.892129 0.750000 0.379543
O O13 0.000000 0.879659 0.380715
O O14 0.250000 0.976210 0.250000
#
# Coordination Sequence:
#
# PCOD8298717 Si02
#       5
#    16  16  16  16  16
#     4  11  23  35  49  77 113 143 169 208 267 329
#     4   9  16  28  50  77 100 124 160 207 252 295
#     4  10  21  38  60  81 100 135 189 236 268 303
#     4   9  17  30  49  74 103 133 164 200 246 301
#     4  10  19  32  52  76 103 138 175 217 260 311
#
# _framework density 18.699908000000001
#
# number of rings (size 3 to 8) (size 9 to 14) (size 15 to 20)
#    0.000    2.200    4.000    2.400    0.000    7.200 
#    0.000    2.000    0.000    2.400    0.000    2.800 
#    0.000    0.000    0.000    0.000    0.000    0.000 
#
# Total GULP energy -495544.986148 kJ/mol
# GULP energy per Si atom -12388.624654 kJ/mol
# Density = 1.865735 g / cm^3
# Si number density = 18.699908 Si / 1000 Ang^3
#
#
#
# Elastic Constant Matrix: (Units=GPa)
#
#
# Indices 1 2 3 4 5 6 
#
# 1 95.4724 53.6432 15.8071 0.0000 0.0000 0.0000
# 2 53.6432 119.4857 16.8403 0.0000 0.0000 0.0000
# 3 15.8071 16.8403 32.6046 0.0000 0.0000 0.0000
# 4 0.0000 0.0000 0.0000 5.6835 0.0000 0.0000
# 5 0.0000 0.0000 0.0000 0.0000 -32.4020 0.0000
# 6 0.0000 0.0000 0.0000 0.0000 0.0000 25.0458
#
#
#
# Elastic Compliance Matrix: (Units=1/GPa)
#
#
# Indices 1 2 3 4 5 6 
#
# 1 0.014463 -0.005937 -0.003945 0.000000 0.000000 0.000000
# 2 -0.005937 0.011464 -0.003042 0.000000 0.000000 0.000000
# 3 -0.003945 -0.003042 0.034155 0.000000 0.000000 0.000000
# 4 0.000000 0.000000 0.000000 0.175949 0.000000 0.000000
# 5 0.000000 0.000000 0.000000 0.000000 -0.030862 0.000000
# 6 0.000000 0.000000 0.000000 0.000000 0.000000 0.039927
#
#
# Mechanical properties :
#
#
# Convention : Reuss Voigt Hill
#
# Bulk Modulus (GPa) = 29.21298 46.68264 37.94781
# Shear Modulus (GPa) = 17.70811 10.41692 14.06251
#
# Velocity S-wave (km/s) = 3.08061 2.36277 2.74525
# Velocity P-wave (km/s) = 5.32067 5.69753 5.51232
#
# Compressibility (1/GPa) = 0.03423135
#
# Stress axis : x y z
#
# Youngs Moduli (GPa) = 69.13966 87.23286 29.27852
#
# Poissons Ratio (x) = 0.51793 0.11552
# Poissons Ratio (y) = 0.41050 0.08908
# Poissons Ratio (z) = 0.27279 0.26540
#
# Static dielectric constant tensor:
#      x y z
#    x 3.845390 0.000000 0.000000 
#    y 0.000000 0.592540 0.000000 
#    z 0.000000 0.000000 3.285280 
# 
# 
# High freq. dielectric constant tensor:
#      x y z
#    x 1.739270 0.000000 0.000000 
#    y 0.000000 1.728470 0.000000 
#    z 0.000000 0.000000 1.664210 
# 
# From -- ./inp_files/42676.got.cif
#   From: 2010.03.12/outbox.cif.g09.slc.cpg/sg74_22_cif.got.tgz:42676.got - 2010.04.16 15:46:19.
