data_PCOD8298303
_publ_section_title
;
Structure prediction by ZEFSAII (Michael W. Deem and Ramdas Pophale) SiO2 
 PCOD8298303
Probable space group: I M M A
;
_chemical_formula_sum "Si O2"
_cell_formula_units_Z 104
_cell_length_a 24.579700
_cell_length_b 9.245288
_cell_length_c 24.216322
_cell_angle_alpha 90.000000
_cell_angle_beta 90.000000
_cell_angle_gamma 90.000000
_cell_volume 5503.072128
_symmetry_space_group_name_H-M "I M M A"
_symmetry_group_IT_number 74
_symmetry_cell_setting 'orthorhombic'
loop_
_space_group_symop_operation_xyz
x,y,z
-x,1/2-y,z
x,-y,-z
-x,1/2+y,-z
-x,-y,-z
x,1/2+y,-z
-x,y,z
x,1/2-y,z
1/2+x,1/2+y,1/2+z
1/2-x,-y,1/2+z
1/2+x,1/2-y,1/2-z
1/2-x,y,1/2-z
1/2-x,1/2-y,1/2-z
1/2+x,y,1/2-z
1/2-x,1/2+y,1/2+z
1/2+x,-y,1/2+z
loop_
_atom_site_type_symbol
_atom_site_label
_atom_site_fract_x
_atom_site_fract_y
_atom_site_fract_z
Si Si1 0.500000 0.082929 0.943133
Si Si2 0.267455 0.905356 0.309880
Si Si3 0.789013 0.579659 0.605165
Si Si4 0.825780 0.415638 0.053243
Si Si5 0.366827 0.414129 0.330070
Si Si6 0.561892 0.417321 0.229156
Si Si7 0.894000 0.421333 0.626425
O O1 0.500000 0.250000 0.958178
O O2 0.447603 0.040297 0.907715
O O3 0.500000 0.000000 0.000000
O O4 0.267713 0.750000 0.342795
O O5 0.250000 0.865472 0.250000
O O6 0.226292 0.024128 0.334068
O O7 0.326888 0.970445 0.304347
O O8 0.800353 0.750000 0.604356
O O9 0.736514 0.536605 0.567897
O O10 0.844547 0.493658 0.591056
O O11 0.825385 0.250000 0.036539
O O12 0.868445 0.445006 0.103633
O O13 0.847078 0.500000 0.000000
O O14 0.344642 0.250000 0.322991
O O15 0.421703 0.435350 0.294238
O O16 0.500000 0.471687 0.224384
O O17 0.567589 0.250000 0.211635
O O18 0.599571 0.510553 0.187740
O O19 0.883884 0.250000 0.632251
#
# Coordination Sequence:
#
# PCOD8298303 Si02
#       7
#     8  16  16  16  16  16  16
#     4  10  24  42  58  76 104 144 187 232 277 320
#     4  10  19  30  46  73 105 137 171 209 260 320
#     4  10  21  35  52  76 104 137 176 218 263 317
#     4   9  19  35  54  76 106 141 178 222 272 325
#     4   9  19  34  51  76 108 140 178 223 271 326
#     4  10  20  35  58  84 109 144 187 228 274 330
#     4  11  22  38  56  80 112 144 180 228 281 323
#
# _framework density 18.898534999999999
#
# number of rings (size 3 to 8) (size 9 to 14) (size 15 to 20)
#    0.000    2.154    0.769    3.231    0.000    9.231 
#    0.000    3.077    0.000    0.462    0.000    0.000 
#    0.000    0.000    0.000    0.000    0.000    0.308 
#
# Total GULP energy -644244.215880 kJ/mol
# GULP energy per Si atom -12389.311844 kJ/mol
# Density = 1.885552 g / cm^3
# Si number density = 18.898535 Si / 1000 Ang^3
#
#
#
# Elastic Constant Matrix: (Units=GPa)
#
#
# Indices 1 2 3 4 5 6 
#
# 1 43.1562 15.6446 14.3391 0.0000 0.0000 0.0000
# 2 15.6446 75.0958 37.9071 0.0000 0.0000 0.0000
# 3 14.3391 37.9071 102.9616 0.0000 0.0000 0.0000
# 4 0.0000 0.0000 0.0000 31.2058 0.0000 0.0000
# 5 0.0000 0.0000 0.0000 0.0000 21.3537 0.0000
# 6 0.0000 0.0000 0.0000 0.0000 0.0000 24.7406
#
#
#
# Elastic Compliance Matrix: (Units=1/GPa)
#
#
# Indices 1 2 3 4 5 6 
#
# 1 0.025379 -0.004303 -0.001950 0.000000 0.000000 0.000000
# 2 -0.004303 0.017085 -0.005691 0.000000 0.000000 0.000000
# 3 -0.001950 -0.005691 0.012079 0.000000 0.000000 0.000000
# 4 0.000000 0.000000 0.000000 0.032045 0.000000 0.000000
# 5 0.000000 0.000000 0.000000 0.000000 0.046830 0.000000
# 6 0.000000 0.000000 0.000000 0.000000 0.000000 0.040419
#
#
# Mechanical properties :
#
#
# Convention : Reuss Voigt Hill
#
# Bulk Modulus (GPa) = 32.62026 39.66612 36.14319
# Shear Modulus (GPa) = 24.04469 25.68155 24.86312
#
# Velocity S-wave (km/s) = 3.57081 3.69035 3.63107
# Velocity P-wave (km/s) = 5.85654 6.26041 6.06184
#
# Compressibility (1/GPa) = 0.03065579
#
# Stress axis : x y z
#
# Youngs Moduli (GPa) = 39.40189 58.52924 82.78650
#
# Poissons Ratio (x) = 0.25184 0.16147
# Poissons Ratio (y) = 0.16954 0.47115
# Poissons Ratio (z) = 0.07685 0.33310
#
# Static dielectric constant tensor:
#      x y z
#    x 3.475790 0.000000 0.000000 
#    y 0.000000 3.615310 0.000000 
#    z 0.000000 0.000000 3.382210 
# 
# 
# High freq. dielectric constant tensor:
#      x y z
#    x 1.715430 0.000000 0.000000 
#    y 0.000000 1.745750 0.000000 
#    z 0.000000 0.000000 1.721690 
# 
# From -- ./inp_files/62330.got.cif
#   From: 2010.03.12/outbox.cif.g09.slc.cpg/sg74_32_cif.got.tgz:62330.got - 2010.04.16 15:46:19.
