data_PCOD8298632
_publ_section_title
;
Structure prediction by ZEFSAII (Michael W. Deem and Ramdas Pophale) SiO2 
 PCOD8298632
Probable space group: I M M A
;
_chemical_formula_sum "Si O2"
_cell_formula_units_Z 72
_cell_length_a 8.914660
_cell_length_b 33.462001
_cell_length_c 14.295432
_cell_angle_alpha 90.000000
_cell_angle_beta 90.000000
_cell_angle_gamma 90.000000
_cell_volume 4264.361129
_symmetry_space_group_name_H-M "I M M A"
_symmetry_group_IT_number 74
_symmetry_cell_setting 'orthorhombic'
loop_
_space_group_symop_operation_xyz
x,y,z
-x,1/2-y,z
x,-y,-z
-x,1/2+y,-z
-x,-y,-z
x,1/2+y,-z
-x,y,z
x,1/2-y,z
1/2+x,1/2+y,1/2+z
1/2-x,-y,1/2+z
1/2+x,1/2-y,1/2-z
1/2-x,y,1/2-z
1/2-x,1/2-y,1/2-z
1/2+x,y,1/2-z
1/2-x,1/2+y,1/2+z
1/2+x,-y,1/2+z
loop_
_atom_site_type_symbol
_atom_site_label
_atom_site_fract_x
_atom_site_fract_y
_atom_site_fract_z
Si Si1 0.322855 0.663204 0.852329
Si Si2 0.677327 0.591862 0.543831
Si Si3 0.332605 0.515032 0.895345
Si Si4 0.828524 0.250000 0.346971
Si Si5 0.323907 0.562414 0.340260
O O1 0.500000 0.654444 0.844540
O O2 0.250000 0.658262 0.750000
O O3 0.246531 0.633733 0.925684
O O4 0.290078 0.707676 0.896960
O O5 0.500000 0.591528 0.558228
O O6 0.747411 0.557342 0.608899
O O7 0.720941 0.585429 0.435087
O O8 0.500000 0.519711 0.852804
O O9 0.237562 0.482828 0.838260
O O10 0.343796 0.500000 0.000000
O O11 0.750000 0.250000 0.250000
O O12 0.000000 0.250000 0.320245
O O13 0.500000 0.561074 0.327301
O O14 0.250000 0.584499 0.250000
#
# Coordination Sequence:
#
# PCOD8298632 Si02
#       5
#    16  16  16   8  16
#     4  10  19  32  50  72  98 126 155 188 229 278
#     4  10  20  33  48  70  98 125 157 197 237 277
#     4   9  17  30  47  65  87 117 153 192 233 274
#     4   8  16  30  48  70  95 122 151 184 225 276
#     4  10  20  33  49  68  93 125 161 200 239 279
#
# _framework density 16.884122999999999
#
# number of rings (size 3 to 8) (size 9 to 14) (size 15 to 20)
#    0.000    2.444    0.000    2.667    0.000    7.111 
#    0.000    4.444    0.000    0.000    0.000    0.778 
#    0.000    0.000    0.000    0.000    0.000    0.000 
#
# Total GULP energy -446114.677514 kJ/mol
# GULP energy per Si atom -12392.074375 kJ/mol
# Density = 1.684569 g / cm^3
# Si number density = 16.884123 Si / 1000 Ang^3
#
#
#
# Elastic Constant Matrix: (Units=GPa)
#
#
# Indices 1 2 3 4 5 6 
#
# 1 95.3854 55.5215 41.3170 0.0001 0.0001 -0.0001
# 2 55.5215 133.9158 47.1001 0.0000 0.0002 -0.0001
# 3 41.3170 47.1001 77.0035 0.0002 0.0005 -0.0003
# 4 0.0001 0.0000 0.0002 17.9468 0.0002 -0.0002
# 5 0.0001 0.0002 0.0005 0.0002 26.7708 0.0000
# 6 -0.0001 -0.0001 -0.0003 -0.0002 0.0000 24.6932
#
#
#
# Elastic Compliance Matrix: (Units=1/GPa)
#
#
# Indices 1 2 3 4 5 6 
#
# 1 0.015501 -0.004461 -0.005589 0.000000 0.000000 0.000000
# 2 -0.004461 0.010798 -0.004211 0.000000 0.000000 0.000000
# 3 -0.005589 -0.004211 0.018561 0.000000 0.000000 0.000000
# 4 0.000000 0.000000 0.000000 0.055720 0.000000 0.000000
# 5 0.000000 0.000000 0.000000 0.000000 0.037354 0.000000
# 6 0.000000 0.000000 0.000000 0.000000 0.000000 0.040497
#
#
# Mechanical properties :
#
#
# Convention : Reuss Voigt Hill
#
# Bulk Modulus (GPa) = 61.20560 66.02019 63.61290
# Shear Modulus (GPa) = 23.54053 24.70656 24.12354
#
# Velocity S-wave (km/s) = 3.73800 3.82946 3.78401
# Velocity P-wave (km/s) = 7.41345 7.66419 7.53987
#
# Compressibility (1/GPa) = 0.01633837
#
# Stress axis : x y z
#
# Youngs Moduli (GPa) = 64.51065 92.60888 53.87708
#
# Poissons Ratio (x) = 0.41315 0.30110
# Poissons Ratio (y) = 0.28780 0.22688
# Poissons Ratio (z) = 0.36052 0.38998
#
# Static dielectric constant tensor:
#      x y z
#    x 3.352130 0.000000 0.000000 
#    y 0.000000 3.101260 0.000000 
#    z 0.000000 0.000000 3.071720 
# 
# 
# High freq. dielectric constant tensor:
#      x y z
#    x 1.672070 0.000000 0.000000 
#    y 0.000000 1.637570 0.000000 
#    z 0.000000 0.000000 1.626900 
# 
# From -- ./inp_files/29396.got.cif
#   From: 2010.03.12/outbox.cif.g09.slc.cpg/sg74_15_cif.got.tgz:29396.got - 2010.04.16 15:46:19.
