data_PCOD8298856
_publ_section_title
;
Structure prediction by ZEFSAII (Michael W. Deem and Ramdas Pophale) SiO2 
 PCOD8298856
Probable space group: I M M A
;
_chemical_formula_sum "Si O2"
_cell_formula_units_Z 96
_cell_length_a 11.181389
_cell_length_b 13.859565
_cell_length_c 36.507472
_cell_angle_alpha 90.000000
_cell_angle_beta 90.000000
_cell_angle_gamma 90.000000
_cell_volume 5657.533278
_symmetry_space_group_name_H-M "I M M A"
_symmetry_group_IT_number 74
_symmetry_cell_setting 'orthorhombic'
loop_
_space_group_symop_operation_xyz
x,y,z
-x,1/2-y,z
x,-y,-z
-x,1/2+y,-z
-x,-y,-z
x,1/2+y,-z
-x,y,z
x,1/2-y,z
1/2+x,1/2+y,1/2+z
1/2-x,-y,1/2+z
1/2+x,1/2-y,1/2-z
1/2-x,y,1/2-z
1/2-x,1/2-y,1/2-z
1/2+x,y,1/2-z
1/2-x,1/2+y,1/2+z
1/2+x,-y,1/2+z
loop_
_atom_site_type_symbol
_atom_site_label
_atom_site_fract_x
_atom_site_fract_y
_atom_site_fract_z
Si Si1 0.363438 0.635663 0.726179
Si Si2 0.217395 0.359218 0.146317
Si Si3 0.500000 0.355081 0.408048
Si Si4 0.500000 0.463272 0.540808
Si Si5 0.640664 0.359982 0.023442
Si Si6 0.744233 0.136395 0.552016
Si Si7 0.859297 0.978489 0.593194
O O1 0.500000 0.597790 0.736698
O O2 0.367045 0.750000 0.729925
O O3 0.250000 0.594951 0.750000
O O4 0.334018 0.603686 0.684852
O O5 0.268682 0.250000 0.150145
O O6 0.113996 0.364274 0.117135
O O7 0.319988 0.431338 0.131753
O O8 0.500000 0.250000 0.427843
O O9 0.500000 0.438324 0.437181
O O10 0.500000 0.500000 0.500000
O O11 0.392033 0.394012 0.550971
O O12 0.500000 0.371791 0.020043
O O13 0.680102 0.250000 0.029356
O O14 0.690712 0.416149 0.058749
O O15 0.695343 0.400216 0.985775
O O16 0.759156 0.250000 0.557469
O O17 0.807904 0.085894 0.586948
O O18 0.000000 0.982403 0.593619
#
# Coordination Sequence:
#
# PCOD8298856 Si02
#       7
#    16  16   8   8  16  16  16
#     4   9  17  30  49  74 106 143 178 209 249 309
#     4  10  19  33  52  75 102 135 172 209 254 310
#     4  10  20  35  56  73  96 136 178 213 256 307
#     4  12  23  37  52  73  99 130 173 227 270 309
#     4   9  18  33  50  67  90 122 162 209 262 315
#     4  11  23  36  49  67  93 129 171 217 265 314
#     4  11  21  33  50  72  96 127 168 216 261 310
#
# _framework density 16.968526000000001
#
# number of rings (size 3 to 8) (size 9 to 14) (size 15 to 20)
#    0.000    1.833    2.500    2.750    0.000    4.667 
#    0.000    1.667    0.000    0.000    0.000    0.000 
#    0.000    0.667    0.000    1.500    0.000    0.333 
#
# Total GULP energy -595004.286463 kJ/mol
# GULP energy per Si atom -12395.922635 kJ/mol
# Density = 1.692991 g / cm^3
# Si number density = 16.968526 Si / 1000 Ang^3
#
#
#
# Elastic Constant Matrix: (Units=GPa)
#
#
# Indices 1 2 3 4 5 6 
#
# 1 87.9884 28.1299 39.2534 0.0000 0.0000 0.0000
# 2 28.1299 62.0549 31.3136 0.0000 0.0000 0.0000
# 3 39.2534 31.3136 76.6746 0.0000 0.0000 0.0000
# 4 0.0000 0.0000 0.0000 16.3065 0.0000 0.0000
# 5 0.0000 0.0000 0.0000 0.0000 10.5320 0.0000
# 6 0.0000 0.0000 0.0000 0.0000 0.0000 20.7254
#
#
#
# Elastic Compliance Matrix: (Units=1/GPa)
#
#
# Indices 1 2 3 4 5 6 
#
# 1 0.015403 -0.003783 -0.006341 0.000000 0.000000 0.000000
# 2 -0.003783 0.021227 -0.006732 0.000000 0.000000 0.000000
# 3 -0.006341 -0.006732 0.019038 0.000000 0.000000 0.000000
# 4 0.000000 0.000000 0.000000 0.061325 0.000000 0.000000
# 5 0.000000 0.000000 0.000000 0.000000 0.094949 0.000000
# 6 0.000000 0.000000 0.000000 0.000000 0.000000 0.048250
#
#
# Mechanical properties :
#
#
# Convention : Reuss Voigt Hill
#
# Bulk Modulus (GPa) = 45.54576 47.12353 46.33465
# Shear Modulus (GPa) = 16.59905 18.04752 17.32329
#
# Velocity S-wave (km/s) = 3.13105 3.26481 3.19863
# Velocity P-wave (km/s) = 6.32226 6.48409 6.40368
#
# Compressibility (1/GPa) = 0.02195594
#
# Stress axis : x y z
#
# Youngs Moduli (GPa) = 64.92140 47.11042 52.52732
#
# Poissons Ratio (x) = 0.17821 0.33306
# Poissons Ratio (y) = 0.24558 0.35363
# Poissons Ratio (z) = 0.41165 0.31716
#
# Static dielectric constant tensor:
#      x y z
#    x 3.370160 0.000000 0.000000 
#    y 0.000000 3.088740 0.000000 
#    z 0.000000 0.000000 3.094620 
# 
# 
# High freq. dielectric constant tensor:
#      x y z
#    x 1.673240 0.000000 0.000000 
#    y 0.000000 1.626210 0.000000 
#    z 0.000000 0.000000 1.628490 
# 
# From -- ./inp_files/71831.got.cif
#   From: 2010.03.12/outbox.cif.g09.slc.cpg/sg74_36_cif.got.tgz:71831.got - 2010.04.16 15:46:19.
