data_PCOD8298471
_publ_section_title
;
Structure prediction by ZEFSAII (Michael W. Deem and Ramdas Pophale) SiO2 
 PCOD8298471
Probable space group: I M M A
;
_chemical_formula_sum "Si O2"
_cell_formula_units_Z 96
_cell_length_a 30.615595
_cell_length_b 9.035737
_cell_length_c 19.515897
_cell_angle_alpha 90.000000
_cell_angle_beta 90.000000
_cell_angle_gamma 90.000000
_cell_volume 5398.769716
_symmetry_space_group_name_H-M "I M M A"
_symmetry_group_IT_number 74
_symmetry_cell_setting 'orthorhombic'
loop_
_space_group_symop_operation_xyz
x,y,z
-x,1/2-y,z
x,-y,-z
-x,1/2+y,-z
-x,-y,-z
x,1/2+y,-z
-x,y,z
x,1/2-y,z
1/2+x,1/2+y,1/2+z
1/2-x,-y,1/2+z
1/2+x,1/2-y,1/2-z
1/2-x,y,1/2-z
1/2-x,1/2-y,1/2-z
1/2+x,y,1/2-z
1/2-x,1/2+y,1/2+z
1/2+x,-y,1/2+z
loop_
_atom_site_type_symbol
_atom_site_label
_atom_site_fract_x
_atom_site_fract_y
_atom_site_fract_z
Si Si1 0.448020 0.915748 0.434014
Si Si2 0.334142 0.074594 0.068014
Si Si3 0.950879 0.077414 0.202153
Si Si4 0.629945 0.421490 0.211515
Si Si5 0.258460 0.923336 0.432942
Si Si6 0.206999 0.578667 0.212930
O O1 0.500000 0.915701 0.437709
O O2 0.429169 0.750000 0.434066
O O3 0.428541 0.000000 0.500000
O O4 0.432555 0.995195 0.364815
O O5 0.329457 0.250000 0.057523
O O6 0.365163 0.033915 0.131990
O O7 0.287193 0.003311 0.082876
O O8 0.354816 0.000000 0.000000
O O9 0.950441 0.250000 0.184661
O O10 0.919368 0.038424 0.265736
O O11 0.000000 0.025107 0.221324
O O12 0.639958 0.250000 0.221339
O O13 0.663626 0.503022 0.260457
O O14 0.249901 0.750000 0.446535
O O15 0.290301 0.947381 0.368671
O O16 0.279992 0.000000 0.500000
O O17 0.203598 0.750000 0.232022
O O18 0.250000 0.511670 0.250000
#
# Coordination Sequence:
#
# PCOD8298471 Si02
#       6
#    16  16  16  16  16  16
#     4   9  16  27  46  72  98 126 163 205 249 298
#     4  10  19  31  49  74 101 129 165 205 247 295
#     4   9  18  34  53  73 100 133 170 214 260 304
#     4  10  21  34  52  78 102 130 170 211 253 300
#     4  10  19  32  50  72 100 135 171 203 244 293
#     4  10  20  34  51  73 103 136 166 201 249 301
#
# _framework density 17.781828000000001
#
# number of rings (size 3 to 8) (size 9 to 14) (size 15 to 20)
#    0.000    2.333    1.667    2.500    0.000    5.000 
#    0.000    0.833    0.000    2.500    0.000    0.000 
#    0.000    0.000    0.000    0.000    0.000    0.667 
#
# Total GULP energy -595122.578471 kJ/mol
# GULP energy per Si atom -12398.387051 kJ/mol
# Density = 1.774136 g / cm^3
# Si number density = 17.781828 Si / 1000 Ang^3
#
#
#
# Elastic Constant Matrix: (Units=GPa)
#
#
# Indices 1 2 3 4 5 6 
#
# 1 73.3989 36.4360 61.5708 0.0000 0.0000 0.0000
# 2 36.4360 85.5460 62.2730 0.0000 0.0000 0.0000
# 3 61.5708 62.2730 154.1830 0.0000 0.0000 0.0000
# 4 0.0000 0.0000 0.0000 29.6909 0.0000 0.0000
# 5 0.0000 0.0000 0.0000 0.0000 26.0269 0.0000
# 6 0.0000 0.0000 0.0000 0.0000 0.0000 17.6219
#
#
#
# Elastic Compliance Matrix: (Units=1/GPa)
#
#
# Indices 1 2 3 4 5 6 
#
# 1 0.021461 -0.004111 -0.006910 0.000000 0.000000 0.000000
# 2 -0.004111 0.017345 -0.005364 0.000000 0.000000 0.000000
# 3 -0.006910 -0.005364 0.011412 0.000000 0.000000 0.000000
# 4 0.000000 0.000000 0.000000 0.033680 0.000000 0.000000
# 5 0.000000 0.000000 0.000000 0.000000 0.038422 0.000000
# 6 0.000000 0.000000 0.000000 0.000000 0.000000 0.056748
#
#
# Mechanical properties :
#
#
# Convention : Reuss Voigt Hill
#
# Bulk Modulus (GPa) = 57.31085 70.40972 63.86028
# Shear Modulus (GPa) = 22.97232 24.85782 23.91507
#
# Velocity S-wave (km/s) = 3.59820 3.74295 3.67129
# Velocity P-wave (km/s) = 7.04008 7.63950 7.34591
#
# Compressibility (1/GPa) = 0.01744870
#
# Stress axis : x y z
#
# Youngs Moduli (GPa) = 46.59571 57.65293 87.62977
#
# Poissons Ratio (x) = 0.23700 0.60552
# Poissons Ratio (y) = 0.19154 0.47004
# Poissons Ratio (z) = 0.32197 0.30925
#
# Static dielectric constant tensor:
#      x y z
#    x 3.010350 0.000000 0.000000 
#    y 0.000000 3.384780 0.000000 
#    z 0.000000 0.000000 3.597010 
# 
# 
# High freq. dielectric constant tensor:
#      x y z
#    x 1.647700 0.000000 0.000000 
#    y 0.000000 1.694850 0.000000 
#    z 0.000000 0.000000 1.697610 
# 
# From -- ./inp_files/49095.got.cif
#   From: 2010.03.12/outbox.cif.g09.slc.cpg/sg74_25_cif.got.tgz:49095.got - 2010.04.16 15:46:19.
