data_PCOD8298752
_publ_section_title
;
Structure prediction by ZEFSAII (Michael W. Deem and Ramdas Pophale) SiO2 
 PCOD8298752
Probable space group: I M M A
;
_chemical_formula_sum "Si O2"
_cell_formula_units_Z 80
_cell_length_a 17.776278
_cell_length_b 10.228215
_cell_length_c 23.107629
_cell_angle_alpha 90.000000
_cell_angle_beta 90.000000
_cell_angle_gamma 90.000000
_cell_volume 4201.419707
_symmetry_space_group_name_H-M "I M M A"
_symmetry_group_IT_number 74
_symmetry_cell_setting 'orthorhombic'
loop_
_space_group_symop_operation_xyz
x,y,z
-x,1/2-y,z
x,-y,-z
-x,1/2+y,-z
-x,-y,-z
x,1/2+y,-z
-x,y,z
x,1/2-y,z
1/2+x,1/2+y,1/2+z
1/2-x,-y,1/2+z
1/2+x,1/2-y,1/2-z
1/2-x,y,1/2-z
1/2-x,1/2-y,1/2-z
1/2+x,y,1/2-z
1/2-x,1/2+y,1/2+z
1/2+x,-y,1/2+z
loop_
_atom_site_type_symbol
_atom_site_label
_atom_site_fract_x
_atom_site_fract_y
_atom_site_fract_z
Si Si1 0.911167 0.250000 0.231719
Si Si2 0.089871 0.750000 0.637098
Si Si3 0.088707 0.519907 0.175549
Si Si4 0.161553 0.250000 0.754819
Si Si5 0.589402 0.004344 0.064828
Si Si6 0.088864 0.250000 0.631358
Si Si7 0.088966 0.601544 0.047197
O O1 0.877817 0.250000 0.297205
O O2 0.884691 0.376530 0.195829
O O3 0.000000 0.250000 0.236813
O O4 0.120957 0.625168 0.602096
O O5 0.000000 0.750000 0.638915
O O6 0.134254 0.621517 0.213186
O O7 0.111007 0.541932 0.109112
O O8 0.000000 0.541681 0.185586
O O9 0.250000 0.250000 0.750000
O O10 0.127642 0.250000 0.692034
O O11 0.500000 0.013312 0.061601
O O12 0.616982 0.874469 0.096063
O O13 0.622993 0.000000 0.000000
O O14 0.000000 0.250000 0.640465
O O15 0.121436 0.750000 0.039803
O O16 0.000000 0.609039 0.040196
O O17 0.122717 0.500000 0.000000
#
# Coordination Sequence:
#
# PCOD8298752 Si02
#       7
#     8   8  16   8  16   8  16
#     4   9  18  29  50  80 106 135 174 219 268 328
#     4   9  15  24  36  60  98 130 157 197 247 296
#     4  10  19  35  56  81 111 144 180 224 280 335
#     4  12  24  37  54  76 106 146 193 236 275 318
#     4   9  16  26  44  72 103 129 158 203 259 316
#     4  10  19  32  53  78 102 135 174 214 264 320
#     4   9  17  28  47  78 113 142 170 214 269 327
#
# _framework density 19.041181999999999
#
# number of rings (size 3 to 8) (size 9 to 14) (size 15 to 20)
#    0.000    2.400    1.000    2.700    1.400    5.600 
#    0.000    0.500    0.000    1.200    0.000    0.000 
#    0.000    0.000    0.000    0.000    0.000    0.000 
#
# Total GULP energy -495912.929539 kJ/mol
# GULP energy per Si atom -12397.823238 kJ/mol
# Density = 1.899784 g / cm^3
# Si number density = 19.041182 Si / 1000 Ang^3
#
#
#
# Elastic Constant Matrix: (Units=GPa)
#
#
# Indices 1 2 3 4 5 6 
#
# 1 21.8792 29.1135 27.3375 0.0000 0.0000 0.0000
# 2 29.1135 219.8826 121.0430 0.0000 0.0000 0.0000
# 3 27.3375 121.0430 203.0465 0.0000 0.0000 0.0000
# 4 0.0000 0.0000 0.0000 45.2818 0.0000 0.0000
# 5 0.0000 0.0000 0.0000 0.0000 -41.0954 0.0000
# 6 0.0000 0.0000 0.0000 0.0000 0.0000 4.3829
#
#
#
# Elastic Compliance Matrix: (Units=1/GPa)
#
#
# Indices 1 2 3 4 5 6 
#
# 1 0.058525 -0.005078 -0.004853 0.000000 0.000000 0.000000
# 2 -0.005078 0.007210 -0.003614 0.000000 0.000000 0.000000
# 3 -0.004853 -0.003614 0.007733 0.000000 0.000000 0.000000
# 4 0.000000 0.000000 0.000000 0.022084 0.000000 0.000000
# 5 0.000000 0.000000 0.000000 0.000000 -0.024334 0.000000
# 6 0.000000 0.000000 0.000000 0.000000 0.000000 0.228159
#
#
# Mechanical properties :
#
#
# Convention : Reuss Voigt Hill
#
# Bulk Modulus (GPa) = 21.56164 88.86627 55.21396
# Shear Modulus (GPa) = 14.62303 19.53482 17.07892
#
# Velocity S-wave (km/s) = 2.77423 3.20648 2.99816
# Velocity P-wave (km/s) = 4.64866 7.77693 6.40666
#
# Compressibility (1/GPa) = 0.04637865
#
# Stress axis : x y z
#
# Youngs Moduli (GPa) = 17.08662 138.69823 129.31581
#
# Poissons Ratio (x) = 0.70427 0.62752
# Poissons Ratio (y) = 0.08676 0.46740
# Poissons Ratio (z) = 0.08292 0.50131
#
# Static dielectric constant tensor:
#      x y z
#    x 2.716690 0.000000 0.000000 
#    y 0.000000 3.762070 0.000000 
#    z 0.000000 0.000000 3.772090 
# 
# 
# High freq. dielectric constant tensor:
#      x y z
#    x 1.657420 0.000000 0.000000 
#    y 0.000000 1.762320 0.000000 
#    z 0.000000 0.000000 1.761470 
# 
# From -- ./inp_files/61376.got.cif
#   From: 2010.03.12/outbox.cif.g09.slc.cpg/sg74_31_cif.got.tgz:61376.got - 2010.04.16 15:46:19.
