data_PCOD8298941
_publ_section_title
;
Structure prediction by ZEFSAII (Michael W. Deem and Ramdas Pophale) SiO2 
 PCOD8298941
Probable space group: I M M A
;
_chemical_formula_sum "Si O2"
_cell_formula_units_Z 80
_cell_length_a 28.657580
_cell_length_b 16.987950
_cell_length_c 8.577219
_cell_angle_alpha 90.000000
_cell_angle_beta 90.000000
_cell_angle_gamma 90.000000
_cell_volume 4175.677856
_symmetry_space_group_name_H-M "I M M A"
_symmetry_group_IT_number 74
_symmetry_cell_setting 'orthorhombic'
loop_
_space_group_symop_operation_xyz
x,y,z
-x,1/2-y,z
x,-y,-z
-x,1/2+y,-z
-x,-y,-z
x,1/2+y,-z
-x,y,z
x,1/2-y,z
1/2+x,1/2+y,1/2+z
1/2-x,-y,1/2+z
1/2+x,1/2-y,1/2-z
1/2-x,y,1/2-z
1/2-x,1/2-y,1/2-z
1/2+x,y,1/2-z
1/2-x,1/2+y,1/2+z
1/2+x,-y,1/2+z
loop_
_atom_site_type_symbol
_atom_site_label
_atom_site_fract_x
_atom_site_fract_y
_atom_site_fract_z
Si Si1 0.947727 0.081734 0.190234
Si Si2 0.356498 0.839007 0.198473
Si Si3 0.133929 0.574635 0.601321
Si Si4 0.199270 0.020590 0.820140
Si Si5 0.052544 0.103084 0.840887
O O1 0.910006 0.114854 0.311776
O O2 0.000000 0.097926 0.252343
O O3 0.937950 0.989086 0.177935
O O4 0.940791 0.123644 0.023534
O O5 0.340256 0.750000 0.228723
O O6 0.327628 0.896570 0.310482
O O7 0.411571 0.847709 0.236290
O O8 0.346008 0.860434 0.017767
O O9 0.116732 0.500000 0.500000
O O10 0.173199 0.548564 0.725106
O O11 0.250000 0.031728 0.750000
O O12 0.202491 0.000000 0.000000
O O13 0.000000 0.124833 0.787840
#
# Coordination Sequence:
#
# PCOD8298941 Si02
#       5
#    16  16  16  16  16
#     4   9  16  29  53  82 108 143 196 245 273 315
#     4  11  23  37  55  84 121 153 183 227 282 335
#     4  10  19  33  54  82 113 145 187 227 272 331
#     4  11  22  41  67  88 108 140 186 232 279 333
#     4   9  17  31  53  80 112 150 191 234 280 326
#
# _framework density 19.158564999999999
#
# number of rings (size 3 to 8) (size 9 to 14) (size 15 to 20)
#    0.000    2.000    4.000    4.200    0.000    2.000 
#    0.000    4.000    0.000    3.600    0.000    0.000 
#    0.000    0.000    0.000    0.000    0.000    0.000 
#
# Total GULP energy -495957.315873 kJ/mol
# GULP energy per Si atom -12398.932897 kJ/mol
# Density = 1.911496 g / cm^3
# Si number density = 19.158565 Si / 1000 Ang^3
#
#
#
# Elastic Constant Matrix: (Units=GPa)
#
#
# Indices 1 2 3 4 5 6 
#
# 1 108.9816 30.8136 44.2074 0.0000 0.0000 0.0000
# 2 30.8136 80.8329 35.2698 0.0000 0.0000 0.0000
# 3 44.2074 35.2698 109.3250 0.0000 0.0000 0.0000
# 4 0.0000 0.0000 0.0000 10.7184 0.0000 0.0000
# 5 0.0000 0.0000 0.0000 0.0000 40.1032 0.0000
# 6 0.0000 0.0000 0.0000 0.0000 0.0000 6.7958
#
#
#
# Elastic Compliance Matrix: (Units=1/GPa)
#
#
# Indices 1 2 3 4 5 6 
#
# 1 0.011473 -0.002734 -0.003757 0.000000 0.000000 0.000000
# 2 -0.002734 0.015050 -0.003750 0.000000 0.000000 0.000000
# 3 -0.003757 -0.003750 0.011876 0.000000 0.000000 0.000000
# 4 0.000000 0.000000 0.000000 0.093297 0.000000 0.000000
# 5 0.000000 0.000000 0.000000 0.000000 0.024936 0.000000
# 6 0.000000 0.000000 0.000000 0.000000 0.000000 0.147150
#
#
# Mechanical properties :
#
#
# Convention : Reuss Voigt Hill
#
# Bulk Modulus (GPa) = 55.81415 57.74682 56.78048
# Shear Modulus (GPa) = 15.14072 24.11341 19.62706
#
# Velocity S-wave (km/s) = 2.81425 3.55156 3.20418
# Velocity P-wave (km/s) = 6.30523 6.85748 6.58715
#
# Compressibility (1/GPa) = 0.01791660
#
# Stress axis : x y z
#
# Youngs Moduli (GPa) = 87.16117 66.44730 84.20335
#
# Poissons Ratio (x) = 0.18168 0.31637
# Poissons Ratio (y) = 0.23831 0.31573
# Poissons Ratio (z) = 0.32748 0.24915
#
# Static dielectric constant tensor:
#      x y z
#    x 3.621270 0.000000 0.000000 
#    y 0.000000 3.098630 0.000000 
#    z 0.000000 0.000000 3.783360 
# 
# 
# High freq. dielectric constant tensor:
#      x y z
#    x 1.748010 0.000000 0.000000 
#    y 0.000000 1.693870 0.000000 
#    z 0.000000 0.000000 1.752690 
# 
# From -- ./inp_files/10973.got.cif
#   From: 2010.03.12/outbox.cif.g09.slc.cpg/sg74_6_cif.got.tgz:10973.got - 2010.04.16 15:46:19.
