data_PCOD8298407
_publ_section_title
;
Structure prediction by ZEFSAII (Michael W. Deem and Ramdas Pophale) SiO2 
 PCOD8298407
Probable space group: I M M A
;
_chemical_formula_sum "Si O2"
_cell_formula_units_Z 80
_cell_length_a 8.728745
_cell_length_b 28.000069
_cell_length_c 18.022342
_cell_angle_alpha 90.000000
_cell_angle_beta 90.000000
_cell_angle_gamma 90.000000
_cell_volume 4404.758828
_symmetry_space_group_name_H-M "I M M A"
_symmetry_group_IT_number 74
_symmetry_cell_setting 'orthorhombic'
loop_
_space_group_symop_operation_xyz
x,y,z
-x,1/2-y,z
x,-y,-z
-x,1/2+y,-z
-x,-y,-z
x,1/2+y,-z
-x,y,z
x,1/2-y,z
1/2+x,1/2+y,1/2+z
1/2-x,-y,1/2+z
1/2+x,1/2-y,1/2-z
1/2-x,y,1/2-z
1/2-x,1/2-y,1/2-z
1/2+x,y,1/2-z
1/2-x,1/2+y,1/2+z
1/2+x,-y,1/2+z
loop_
_atom_site_type_symbol
_atom_site_label
_atom_site_fract_x
_atom_site_fract_y
_atom_site_fract_z
Si Si1 0.180837 0.940989 0.394598
Si Si2 0.178149 0.964583 0.829010
Si Si3 0.319547 0.349634 0.674329
Si Si4 0.822189 0.399630 0.036762
Si Si5 0.180785 0.698102 0.023845
O O1 0.253623 0.902212 0.339960
O O2 0.230520 0.932975 0.479637
O O3 0.000000 0.938158 0.388307
O O4 0.236345 0.992303 0.368324
O O5 0.250000 0.952327 0.750000
O O6 0.202666 0.917676 0.879817
O O7 0.000000 0.977295 0.820124
O O8 0.500000 0.353666 0.681747
O O9 0.250000 0.328566 0.750000
O O10 0.270016 0.314616 0.607796
O O11 0.000000 0.402260 0.012634
O O12 0.763021 0.344510 0.030773
O O13 0.253197 0.750000 0.002480
O O14 0.000000 0.702238 0.018751
#
# Coordination Sequence:
#
# PCOD8298407 Si02
#       5
#    16  16  16  16  16
#     4  11  21  33  51  74 101 134 169 202 238 286
#     4  11  22  35  51  73 102 133 165 202 244 290
#     4  10  19  31  47  70 102 136 168 203 242 285
#     4   9  19  35  54  75 100 130 163 202 245 289
#     4   8  15  30  52  74  94 122 163 206 247 292
#
# _framework density 18.162174
#
# number of rings (size 3 to 8) (size 9 to 14) (size 15 to 20)
#    0.000    2.200    0.000    5.400    0.000    4.400 
#    0.000    0.000    0.000   15.000    0.000    0.000 
#    0.000    0.000    0.000    0.000    0.000    0.200 
#
# Total GULP energy -495921.896147 kJ/mol
# GULP energy per Si atom -12398.047404 kJ/mol
# Density = 1.812084 g / cm^3
# Si number density = 18.162174 Si / 1000 Ang^3
#
#
#
# Elastic Constant Matrix: (Units=GPa)
#
#
# Indices 1 2 3 4 5 6 
#
# 1 71.9638 31.8015 25.9981 0.0000 0.0000 0.0000
# 2 31.8015 133.5587 63.9294 0.0001 0.0000 0.0000
# 3 25.9981 63.9294 96.0532 0.0003 0.0000 -0.0001
# 4 0.0000 0.0001 0.0003 17.5690 0.0000 0.0000
# 5 0.0000 0.0000 0.0000 0.0000 27.9195 0.0000
# 6 0.0000 0.0000 -0.0001 0.0000 0.0000 11.2706
#
#
#
# Elastic Compliance Matrix: (Units=1/GPa)
#
#
# Indices 1 2 3 4 5 6 
#
# 1 0.015970 -0.002544 -0.002629 0.000000 0.000000 0.000000
# 2 -0.002544 0.011393 -0.006894 0.000000 0.000000 0.000000
# 3 -0.002629 -0.006894 0.015711 0.000000 0.000000 0.000000
# 4 0.000000 0.000000 0.000000 0.056919 0.000000 0.000000
# 5 0.000000 0.000000 0.000000 0.000000 0.035817 0.000000
# 6 0.000000 0.000000 0.000000 0.000000 0.000000 0.088726
#
#
# Mechanical properties :
#
#
# Convention : Reuss Voigt Hill
#
# Bulk Modulus (GPa) = 52.80096 60.55931 56.68013
# Shear Modulus (GPa) = 19.60902 23.34158 21.47530
#
# Velocity S-wave (km/s) = 3.28939 3.58882 3.44236
# Velocity P-wave (km/s) = 6.60014 7.11259 6.86115
#
# Compressibility (1/GPa) = 0.01893905
#
# Stress axis : x y z
#
# Youngs Moduli (GPa) = 62.61744 87.77219 63.64923
#
# Poissons Ratio (x) = 0.22330 0.16735
# Poissons Ratio (y) = 0.15930 0.43881
# Poissons Ratio (z) = 0.16464 0.60512
#
# Static dielectric constant tensor:
#      x y z
#    x 3.279420 0.000000 0.000000 
#    y 0.000000 3.640270 0.000000 
#    z 0.000000 0.000000 3.352720 
# 
# 
# High freq. dielectric constant tensor:
#      x y z
#    x 1.694290 0.000000 0.000000 
#    y 0.000000 1.700090 0.000000 
#    z 0.000000 0.000000 1.690780 
# 
# From -- ./inp_files/39692.got.cif
#   From: 2010.03.12/outbox.cif.g09.slc.cpg/sg74_20_cif.got.tgz:39692.got - 2010.04.16 15:46:19.
