data_PCOD8298583
_publ_section_title
;
Structure prediction by ZEFSAII (Michael W. Deem and Ramdas Pophale) SiO2 
 PCOD8298583
Probable space group: I M M A
;
_chemical_formula_sum "Si O2"
_cell_formula_units_Z 80
_cell_length_a 28.104136
_cell_length_b 9.996031
_cell_length_c 15.611581
_cell_angle_alpha 90.000000
_cell_angle_beta 90.000000
_cell_angle_gamma 90.000000
_cell_volume 4385.758557
_symmetry_space_group_name_H-M "I M M A"
_symmetry_group_IT_number 74
_symmetry_cell_setting 'orthorhombic'
loop_
_space_group_symop_operation_xyz
x,y,z
-x,1/2-y,z
x,-y,-z
-x,1/2+y,-z
-x,-y,-z
x,1/2+y,-z
-x,y,z
x,1/2-y,z
1/2+x,1/2+y,1/2+z
1/2-x,-y,1/2+z
1/2+x,1/2-y,1/2-z
1/2-x,y,1/2-z
1/2-x,1/2-y,1/2-z
1/2+x,y,1/2-z
1/2-x,1/2+y,1/2+z
1/2+x,-y,1/2+z
loop_
_atom_site_type_symbol
_atom_site_label
_atom_site_fract_x
_atom_site_fract_y
_atom_site_fract_z
Si Si1 0.555307 0.530081 0.302467
Si Si2 0.297737 0.096632 0.924094
Si Si3 0.944782 0.750000 0.877281
Si Si4 0.814740 0.595625 0.077902
Si Si5 0.851017 0.596287 0.258867
Si Si6 0.444326 0.250000 0.563417
O O1 0.500000 0.553449 0.275863
O O2 0.568150 0.377867 0.321580
O O3 0.591750 0.574491 0.227538
O O4 0.570254 0.616714 0.385641
O O5 0.314102 0.250000 0.942479
O O6 0.241663 0.090780 0.912010
O O7 0.322576 0.035050 0.838940
O O8 0.314878 0.000000 0.000000
O O9 0.000000 0.750000 0.897938
O O10 0.919049 0.750000 0.970324
O O11 0.832044 0.750000 0.061898
O O12 0.835676 0.534993 0.166755
O O13 0.831548 0.500000 0.000000
O O14 0.836712 0.750000 0.256166
O O15 0.500000 0.250000 0.551762
#
# Coordination Sequence:
#
# PCOD8298583 Si02
#       6
#    16  16   8  16  16   8
#     4  10  19  32  47  68  97 133 171 205 245 291
#     4   9  18  35  57  76  98 127 166 211 256 302
#     4   9  18  30  44  64  94 131 169 209 248 282
#     4   9  18  33  52  76 105 136 164 199 245 296
#     4  10  19  33  52  76 100 134 172 205 245 297
#     4   9  16  28  46  64  88 127 173 205 232 284
#
# _framework density 18.240857999999999
#
# number of rings (size 3 to 8) (size 9 to 14) (size 15 to 20)
#    0.000    2.600    1.000    1.200    0.000    6.400 
#    3.600    0.000    0.000    5.400    0.000    0.000 
#    0.000    0.000    0.000    0.000    0.000    0.000 
#
# Total GULP energy -495719.682630 kJ/mol
# GULP energy per Si atom -12392.992066 kJ/mol
# Density = 1.819934 g / cm^3
# Si number density = 18.240858 Si / 1000 Ang^3
#
#
#
# Elastic Constant Matrix: (Units=GPa)
#
#
# Indices 1 2 3 4 5 6 
#
# 1 37.4302 15.6010 40.0628 0.0000 0.0000 0.0000
# 2 15.6010 76.2266 40.8466 0.0000 0.0000 0.0000
# 3 40.0628 40.8466 111.7513 0.0000 0.0000 0.0000
# 4 0.0000 0.0000 0.0000 26.6848 0.0000 0.0000
# 5 0.0000 0.0000 0.0000 0.0000 19.4381 0.0000
# 6 0.0000 0.0000 0.0000 0.0000 0.0000 20.1774
#
#
#
# Elastic Compliance Matrix: (Units=1/GPa)
#
#
# Indices 1 2 3 4 5 6 
#
# 1 0.043379 -0.000678 -0.015304 0.000000 0.000000 0.000000
# 2 -0.000678 0.016325 -0.005724 0.000000 0.000000 0.000000
# 3 -0.015304 -0.005724 0.016527 0.000000 0.000000 0.000000
# 4 0.000000 0.000000 0.000000 0.037475 0.000000 0.000000
# 5 0.000000 0.000000 0.000000 0.000000 0.051445 0.000000
# 6 0.000000 0.000000 0.000000 0.000000 0.000000 0.049560
#
#
# Mechanical properties :
#
#
# Convention : Reuss Voigt Hill
#
# Bulk Modulus (GPa) = 30.46914 46.49209 38.48062
# Shear Modulus (GPa) = 18.58312 21.85321 20.21817
#
# Velocity S-wave (km/s) = 3.19527 3.46502 3.33288
# Velocity P-wave (km/s) = 5.50936 6.44606 5.99603
#
# Compressibility (1/GPa) = 0.03282009
#
# Stress axis : x y z
#
# Youngs Moduli (GPa) = 23.05273 61.25679 60.50719
#
# Poissons Ratio (x) = 0.04151 0.92598
# Poissons Ratio (y) = 0.01562 0.34634
# Poissons Ratio (z) = 0.35279 0.35063
#
# Static dielectric constant tensor:
#      x y z
#    x 3.397370 0.000000 0.000000 
#    y 0.000000 3.135760 0.000000 
#    z 0.000000 0.000000 3.307850 
# 
# 
# High freq. dielectric constant tensor:
#      x y z
#    x 1.711570 0.000000 0.000000 
#    y 0.000000 1.698500 0.000000 
#    z 0.000000 0.000000 1.672070 
# 
# From -- ./inp_files/26921.got.cif
#   From: 2010.03.12/outbox.cif.g09.slc.cpg/sg74_14_cif.got.tgz:26921.got - 2010.04.16 15:46:19.
