data_PCOD8298736
_publ_section_title
;
Structure prediction by ZEFSAII (Michael W. Deem and Ramdas Pophale) SiO2 
 PCOD8298736
Probable space group: I M M A
;
_chemical_formula_sum "Si O2"
_cell_formula_units_Z 112
_cell_length_a 14.259459
_cell_length_b 14.379750
_cell_length_c 26.021245
_cell_angle_alpha 90.000000
_cell_angle_beta 90.000000
_cell_angle_gamma 90.000000
_cell_volume 5335.590078
_symmetry_space_group_name_H-M "I M M A"
_symmetry_group_IT_number 74
_symmetry_cell_setting 'orthorhombic'
loop_
_space_group_symop_operation_xyz
x,y,z
-x,1/2-y,z
x,-y,-z
-x,1/2+y,-z
-x,-y,-z
x,1/2+y,-z
-x,y,z
x,1/2-y,z
1/2+x,1/2+y,1/2+z
1/2-x,-y,1/2+z
1/2+x,1/2-y,1/2-z
1/2-x,y,1/2-z
1/2-x,1/2-y,1/2-z
1/2+x,y,1/2-z
1/2-x,1/2+y,1/2+z
1/2+x,-y,1/2+z
loop_
_atom_site_type_symbol
_atom_site_label
_atom_site_fract_x
_atom_site_fract_y
_atom_site_fract_z
Si Si1 0.891917 0.648568 0.349263
Si Si2 0.155178 0.143326 0.217365
Si Si3 0.785431 0.643927 0.086082
Si Si4 0.893894 0.357614 0.405602
Si Si5 0.101976 0.462342 0.309639
Si Si6 0.611766 0.466837 0.382882
Si Si7 0.784027 0.857973 0.967538
O O1 0.874492 0.750000 0.323848
O O2 0.824026 0.634997 0.398336
O O3 0.862787 0.569866 0.307025
O O4 0.000000 0.640893 0.368086
O O5 0.122920 0.250000 0.209805
O O6 0.250000 0.135307 0.250000
O O7 0.087490 0.085492 0.254506
O O8 0.159275 0.091732 0.163236
O O9 0.820737 0.750000 0.095417
O O10 0.850235 0.572896 0.118584
O O11 0.794592 0.615374 0.026812
O O12 0.893418 0.250000 0.391909
O O13 0.846224 0.403619 0.354294
O O14 0.823067 0.382065 0.451707
O O15 0.000000 0.388841 0.420756
O O16 0.000000 0.467843 0.334616
O O17 0.500000 0.466667 0.376904
O O18 0.640563 0.417572 0.435880
O O19 0.806150 0.750000 0.957672
#
# Coordination Sequence:
#
# PCOD8298736 Si02
#       7
#    16  16  16  16  16  16  16
#     4   9  18  34  58  88 120 153 191 238 293 352
#     4  11  23  39  62  89 115 144 180 228 288 350
#     4  10  22  40  61  84 113 153 201 250 297 346
#     4   9  17  30  52  85 123 157 188 230 290 359
#     4  10  19  32  52  79 113 150 183 218 268 337
#     4  12  26  42  60  84 117 156 199 247 293 338
#     4  10  21  37  58  85 116 152 197 247 298 351
#
# _framework density 20.991119000000001
#
# number of rings (size 3 to 8) (size 9 to 14) (size 15 to 20)
#    0.000    1.857    0.000    4.286    0.000    6.857 
#    0.000    5.000    0.000    8.571    0.000    0.000 
#    0.000    0.000    0.000    0.000    0.000    0.000 
#
# Total GULP energy -693761.823050 kJ/mol
# GULP energy per Si atom -12388.603983 kJ/mol
# Density = 2.094334 g / cm^3
# Si number density = 20.991119 Si / 1000 Ang^3
#
#
#
# Elastic Constant Matrix: (Units=GPa)
#
#
# Indices 1 2 3 4 5 6 
#
# 1 92.3739 45.5440 26.1244 0.0000 0.0000 0.0000
# 2 45.5440 157.0347 77.7005 0.0000 0.0000 0.0000
# 3 26.1244 77.7005 101.8924 0.0000 0.0000 0.0000
# 4 0.0000 0.0000 0.0000 36.6122 0.0000 0.0000
# 5 0.0000 0.0000 0.0000 0.0000 21.9904 0.0000
# 6 0.0000 0.0000 0.0000 0.0000 0.0000 23.8092
#
#
#
# Elastic Compliance Matrix: (Units=1/GPa)
#
#
# Indices 1 2 3 4 5 6 
#
# 1 0.012664 -0.003318 -0.000716 0.000000 0.000000 0.000000
# 2 -0.003318 0.011096 -0.007611 0.000000 0.000000 0.000000
# 3 -0.000716 -0.007611 0.015802 0.000000 0.000000 0.000000
# 4 0.000000 0.000000 0.000000 0.027313 0.000000 0.000000
# 5 0.000000 0.000000 0.000000 0.000000 0.045474 0.000000
# 6 0.000000 0.000000 0.000000 0.000000 0.000000 0.042000
#
#
# Mechanical properties :
#
#
# Convention : Reuss Voigt Hill
#
# Bulk Modulus (GPa) = 61.45981 72.22655 66.84318
# Shear Modulus (GPa) = 27.31254 29.94451 28.62852
#
# Velocity S-wave (km/s) = 3.61106 3.78104 3.69703
# Velocity P-wave (km/s) = 6.83585 7.31742 7.08073
#
# Compressibility (1/GPa) = 0.01627080
#
# Stress axis : x y z
#
# Youngs Moduli (GPa) = 78.96192 90.11967 63.28359
#
# Poissons Ratio (x) = 0.29906 0.04534
# Poissons Ratio (y) = 0.26203 0.48165
# Poissons Ratio (z) = 0.05657 0.68590
#
# Static dielectric constant tensor:
#      x y z
#    x 3.854470 0.000000 0.000000 
#    y 0.000000 4.246160 0.000000 
#    z 0.000000 0.000000 3.590450 
# 
# 
# High freq. dielectric constant tensor:
#      x y z
#    x 1.817880 0.000000 0.000000 
#    y 0.000000 1.840220 0.000000 
#    z 0.000000 0.000000 1.797740 
# 
# From -- ./inp_files/60178.got.cif
#   From: 2010.03.12/outbox.cif.g09.slc.cpg/sg74_31_cif.got.tgz:60178.got - 2010.04.16 15:46:19.
