data_PCOD8298293
_publ_section_title
;
Structure prediction by ZEFSAII (Michael W. Deem and Ramdas Pophale) SiO2 
 PCOD8298293
Probable space group: I M M A
;
_chemical_formula_sum "Si O2"
_cell_formula_units_Z 96
_cell_length_a 16.873392
_cell_length_b 25.492594
_cell_length_c 12.230992
_cell_angle_alpha 90.000000
_cell_angle_beta 90.000000
_cell_angle_gamma 90.000000
_cell_volume 5261.118788
_symmetry_space_group_name_H-M "I M M A"
_symmetry_group_IT_number 74
_symmetry_cell_setting 'orthorhombic'
loop_
_space_group_symop_operation_xyz
x,y,z
-x,1/2-y,z
x,-y,-z
-x,1/2+y,-z
-x,-y,-z
x,1/2+y,-z
-x,y,z
x,1/2-y,z
1/2+x,1/2+y,1/2+z
1/2-x,-y,1/2+z
1/2+x,1/2-y,1/2-z
1/2-x,y,1/2-z
1/2-x,1/2-y,1/2-z
1/2+x,y,1/2-z
1/2-x,1/2+y,1/2+z
1/2+x,-y,1/2+z
loop_
_atom_site_type_symbol
_atom_site_label
_atom_site_fract_x
_atom_site_fract_y
_atom_site_fract_z
Si Si1 0.267290 0.943826 0.958725
Si Si2 0.087500 0.061703 0.315071
Si Si3 0.912233 0.479669 0.878566
Si Si4 0.177266 0.863871 0.814976
Si Si5 0.201116 0.615205 0.144737
Si Si6 0.408074 0.188552 0.512473
O O1 0.354381 0.955708 0.912209
O O2 0.209484 0.918885 0.867118
O O3 0.267709 0.900193 0.054766
O O4 0.233408 0.000000 0.000000
O O5 0.111517 0.119788 0.274078
O O6 0.000000 0.063270 0.366211
O O7 0.091062 0.025190 0.209566
O O8 0.851350 0.436221 0.836092
O O9 0.000000 0.454573 0.882657
O O10 0.890780 0.500000 0.000000
O O11 0.250000 0.835659 0.750000
O O12 0.135607 0.824914 0.899138
O O13 0.250000 0.633628 0.250000
O O14 0.141603 0.661434 0.109151
O O15 0.500000 0.169300 0.510516
O O16 0.404375 0.250000 0.532677
#
# Coordination Sequence:
#
# PCOD8298293 Si02
#       6
#    16  16  16  16  16  16
#     4  10  19  31  47  70 100 133 168 200 236 284
#     4  10  19  30  46  70 103 137 164 195 235 284
#     4  10  19  30  48  75 104 135 170 206 244 290
#     4   9  18  32  52  77 101 127 159 197 245 301
#     4  11  21  34  52  71  96 131 170 213 255 298
#     4  10  21  37  56  76  97 123 160 210 264 313
#
# _framework density 18.247069
#
# number of rings (size 3 to 8) (size 9 to 14) (size 15 to 20)
#    0.000    2.000    0.000    5.500    0.000    3.667 
#    0.000    1.667    0.000    0.500    0.000    0.000 
#    0.000    9.333    0.000    0.000    0.000    0.000 
#
# Total GULP energy -594824.797513 kJ/mol
# GULP energy per Si atom -12392.183282 kJ/mol
# Density = 1.820554 g / cm^3
# Si number density = 18.247069 Si / 1000 Ang^3
#
#
#
# Elastic Constant Matrix: (Units=GPa)
#
#
# Indices 1 2 3 4 5 6 
#
# 1 150.6286 40.3932 63.2688 0.0000 0.0000 0.0000
# 2 40.3932 58.4941 21.5651 0.0001 0.0000 0.0000
# 3 63.2688 21.5651 85.1736 0.0009 0.0000 -0.0004
# 4 0.0000 0.0001 0.0009 15.6764 0.0000 -0.0001
# 5 0.0000 0.0000 0.0000 0.0000 29.6802 0.0000
# 6 0.0000 0.0000 -0.0004 -0.0001 0.0000 20.2259
#
#
#
# Elastic Compliance Matrix: (Units=1/GPa)
#
#
# Indices 1 2 3 4 5 6 
#
# 1 0.010819 -0.004972 -0.006778 0.000000 0.000000 0.000000
# 2 -0.004972 0.021141 -0.001659 0.000000 0.000000 0.000000
# 3 -0.006778 -0.001659 0.017195 -0.000001 0.000000 0.000000
# 4 0.000000 0.000000 -0.000001 0.063790 0.000000 0.000000
# 5 0.000000 0.000000 0.000000 0.000000 0.033693 0.000000
# 6 0.000000 0.000000 0.000000 0.000000 0.000000 0.049441
#
#
# Mechanical properties :
#
#
# Convention : Reuss Voigt Hill
#
# Bulk Modulus (GPa) = 44.76832 60.52781 52.64807
# Shear Modulus (GPa) = 21.70669 24.38780 23.04725
#
# Velocity S-wave (km/s) = 3.45280 3.65983 3.55782
# Velocity P-wave (km/s) = 6.36267 7.14859 6.76705
#
# Compressibility (1/GPa) = 0.02233722
#
# Stress axis : x y z
#
# Youngs Moduli (GPa) = 92.42899 47.30117 58.15504
#
# Poissons Ratio (x) = 0.23520 0.39416
# Poissons Ratio (y) = 0.45960 0.09648
# Poissons Ratio (z) = 0.62646 0.07848
#
# Static dielectric constant tensor:
#      x y z
#    x 3.665120 0.000000 0.000000 
#    y 0.000000 2.984470 0.000000 
#    z 0.000000 0.000000 3.341280 
# 
# 
# High freq. dielectric constant tensor:
#      x y z
#    x 1.727560 0.000000 0.000000 
#    y 0.000000 1.670760 0.000000 
#    z 0.000000 0.000000 1.697830 
# 
# From -- ./inp_files/22411.got.cif
#   From: 2010.03.12/outbox.cif.g09.slc.cpg/sg74_12_cif.got.tgz:22411.got - 2010.04.16 15:46:19.
