data_PCOD8298311
_publ_section_title
;
Structure prediction by ZEFSAII (Michael W. Deem and Ramdas Pophale) SiO2 
 PCOD8298311
Probable space group: I M M A
;
_chemical_formula_sum "Si O2"
_cell_formula_units_Z 96
_cell_length_a 24.889995
_cell_length_b 8.961933
_cell_length_c 25.223240
_cell_angle_alpha 90.000000
_cell_angle_beta 90.000000
_cell_angle_gamma 90.000000
_cell_volume 5626.358154
_symmetry_space_group_name_H-M "I M M A"
_symmetry_group_IT_number 74
_symmetry_cell_setting 'orthorhombic'
loop_
_space_group_symop_operation_xyz
x,y,z
-x,1/2-y,z
x,-y,-z
-x,1/2+y,-z
-x,-y,-z
x,1/2+y,-z
-x,y,z
x,1/2-y,z
1/2+x,1/2+y,1/2+z
1/2-x,-y,1/2+z
1/2+x,1/2-y,1/2-z
1/2-x,y,1/2-z
1/2-x,1/2-y,1/2-z
1/2+x,y,1/2-z
1/2-x,1/2+y,1/2+z
1/2+x,-y,1/2+z
loop_
_atom_site_type_symbol
_atom_site_label
_atom_site_fract_x
_atom_site_fract_y
_atom_site_fract_z
Si Si1 0.063664 0.079301 0.354797
Si Si2 0.438715 0.423959 0.355655
Si Si3 0.749959 0.923763 0.056551
Si Si4 0.631286 0.576181 0.056834
Si Si5 0.063886 0.917932 0.249777
Si Si6 0.353381 0.926133 0.557171
O O1 0.082304 0.250000 0.356790
O O2 0.000000 0.063511 0.358698
O O3 0.087982 0.992250 0.404098
O O4 0.085790 0.009164 0.300182
O O5 0.500000 0.471424 0.367773
O O6 0.434675 0.250000 0.342719
O O7 0.415102 0.508850 0.304498
O O8 0.404006 0.468631 0.406619
O O9 0.763796 0.750000 0.051022
O O10 0.691064 0.947665 0.082333
O O11 0.799593 0.006661 0.085929
O O12 0.747290 0.000000 0.000000
O O13 0.619144 0.750000 0.049084
O O14 0.625531 0.500000 0.000000
O O15 0.086020 0.750000 0.253582
O O16 0.000000 0.922047 0.249899
O O17 0.346970 0.750000 0.550586
O O18 0.363001 0.000000 0.500000
#
# Coordination Sequence:
#
# PCOD8298311 Si02
#       6
#    16  16  16  16  16  16
#     4  10  20  33  50  72  98 128 158 190 232 280
#     4   9  18  32  48  68  96 128 160 194 234 281
#     4   9  17  30  48  68  91 121 158 197 234 275
#     4  10  20  33  50  72  97 126 159 195 236 280
#     4   9  17  30  49  71  93 121 159 198 233 274
#     4  10  19  30  47  70  96 127 160 195 236 280
#
# _framework density 17.062546999999999
#
# number of rings (size 3 to 8) (size 9 to 14) (size 15 to 20)
#    0.000    2.500    0.000    3.500    0.000    7.000 
#    0.000    0.000    0.000    1.000    0.000    7.000 
#    0.000    0.000    0.000    0.000    0.000    0.000 
#
# Total GULP energy -594983.660867 kJ/mol
# GULP energy per Si atom -12395.492935 kJ/mol
# Density = 1.702371 g / cm^3
# Si number density = 17.062547 Si / 1000 Ang^3
#
#
#
# Elastic Constant Matrix: (Units=GPa)
#
#
# Indices 1 2 3 4 5 6 
#
# 1 53.3806 43.1164 40.6125 0.0000 0.0000 0.0000
# 2 43.1164 123.4020 59.7931 0.0000 0.0000 0.0000
# 3 40.6125 59.7931 101.5156 0.0000 0.0000 0.0000
# 4 0.0000 0.0000 0.0000 30.1384 0.0000 0.0000
# 5 0.0000 0.0000 0.0000 0.0000 2.3465 0.0000
# 6 0.0000 0.0000 0.0000 0.0000 0.0000 25.7898
#
#
#
# Elastic Compliance Matrix: (Units=1/GPa)
#
#
# Indices 1 2 3 4 5 6 
#
# 1 0.030345 -0.006605 -0.008249 0.000000 0.000000 0.000000
# 2 -0.006605 0.012778 -0.004884 0.000000 0.000000 0.000000
# 3 -0.008249 -0.004884 0.016027 0.000000 0.000000 0.000000
# 4 0.000000 0.000000 0.000000 0.033180 0.000000 0.000000
# 5 0.000000 0.000000 0.000000 0.000000 0.426165 0.000000
# 6 0.000000 0.000000 0.000000 0.000000 0.000000 0.038775
#
#
# Mechanical properties :
#
#
# Convention : Reuss Voigt Hill
#
# Bulk Modulus (GPa) = 50.82963 62.81579 56.82271
# Shear Modulus (GPa) = 8.28770 20.64004 14.46387
#
# Velocity S-wave (km/s) = 2.20631 3.48180 2.91468
# Velocity P-wave (km/s) = 6.02870 7.28415 6.68596
#
# Compressibility (1/GPa) = 0.01967356
#
# Stress axis : x y z
#
# Youngs Moduli (GPa) = 32.95474 78.26080 62.39331
#
# Poissons Ratio (x) = 0.51694 0.51469
# Poissons Ratio (y) = 0.21768 0.30471
# Poissons Ratio (z) = 0.27185 0.38220
#
# Static dielectric constant tensor:
#      x y z
#    x 3.544440 0.000000 0.000000 
#    y 0.000000 3.391380 0.000000 
#    z 0.000000 0.000000 3.059460 
# 
# 
# High freq. dielectric constant tensor:
#      x y z
#    x 1.643650 0.000000 0.000000 
#    y 0.000000 1.677370 0.000000 
#    z 0.000000 0.000000 1.637920 
# 
# From -- ./inp_files/49116.got.cif
#   From: 2010.03.12/outbox.cif.g09.slc.cpg/sg74_25_cif.got.tgz:49116.got - 2010.04.16 15:46:19.
