data_PCOD8298377
_publ_section_title
;
Structure prediction by ZEFSAII (Michael W. Deem and Ramdas Pophale) SiO2 
 PCOD8298377
Probable space group: I M M A
;
_chemical_formula_sum "Si O2"
_cell_formula_units_Z 88
_cell_length_a 9.978700
_cell_length_b 19.049340
_cell_length_c 30.541732
_cell_angle_alpha 90.000000
_cell_angle_beta 90.000000
_cell_angle_gamma 90.000000
_cell_volume 5805.606034
_symmetry_space_group_name_H-M "I M M A"
_symmetry_group_IT_number 74
_symmetry_cell_setting 'orthorhombic'
loop_
_space_group_symop_operation_xyz
x,y,z
-x,1/2-y,z
x,-y,-z
-x,1/2+y,-z
-x,-y,-z
x,1/2+y,-z
-x,y,z
x,1/2-y,z
1/2+x,1/2+y,1/2+z
1/2-x,-y,1/2+z
1/2+x,1/2-y,1/2-z
1/2-x,y,1/2-z
1/2-x,1/2-y,1/2-z
1/2+x,y,1/2-z
1/2-x,1/2+y,1/2+z
1/2+x,-y,1/2+z
loop_
_atom_site_type_symbol
_atom_site_label
_atom_site_fract_x
_atom_site_fract_y
_atom_site_fract_z
Si Si1 0.846628 0.559717 0.383515
Si Si2 0.351651 0.250000 0.788313
Si Si3 0.847463 0.829096 0.976207
Si Si4 0.350352 0.170932 0.579083
Si Si5 0.655688 0.452518 0.041648
Si Si6 0.848059 0.403977 0.709319
O O1 0.756097 0.623929 0.397100
O O2 0.814297 0.492277 0.412958
O O3 0.820086 0.543814 0.331732
O O4 0.000000 0.582903 0.390862
O O5 0.500000 0.250000 0.768033
O O6 0.250000 0.250000 0.750000
O O7 0.329456 0.174870 0.812299
O O8 0.817941 0.750000 0.959288
O O9 0.743664 0.882556 0.954340
O O10 0.000000 0.850453 0.964133
O O11 0.825577 0.832152 0.027692
O O12 0.500000 0.144222 0.590226
O O13 0.331603 0.250000 0.596305
O O14 0.500000 0.431600 0.036951
O O15 0.699529 0.500000 0.000000
O O16 0.750000 0.419714 0.750000
O O17 0.000000 0.413976 0.726708
#
# Coordination Sequence:
#
# PCOD8298377 Si02
#       6
#    16   8  16  16  16  16
#     4  10  20  31  45  65  89 118 151 188 226 267
#     4   8  14  26  42  58  76 104 142 180 222 258
#     4   9  18  32  48  65  88 120 156 190 223 261
#     4   9  18  30  42  61  88 117 153 192 225 260
#     4  10  19  31  45  67  95 121 151 184 220 267
#     4   9  18  31  45  61  83 112 147 188 227 264
#
# _framework density 15.157762999999999
#
# number of rings (size 3 to 8) (size 9 to 14) (size 15 to 20)
#    0.000    2.727    1.818    1.091    1.273    2.545 
#    0.000    1.818    0.000    0.000    0.000    0.000 
#    0.000    0.727    0.000    1.636    0.000    2.909 
#
# Total GULP energy -545135.280452 kJ/mol
# GULP energy per Si atom -12389.438192 kJ/mol
# Density = 1.512326 g / cm^3
# Si number density = 15.157763 Si / 1000 Ang^3
#
#
#
# Elastic Constant Matrix: (Units=GPa)
#
#
# Indices 1 2 3 4 5 6 
#
# 1 86.0336 55.8039 48.0091 0.0000 0.0000 0.0000
# 2 55.8039 68.8503 48.0305 0.0000 0.0000 0.0000
# 3 48.0091 48.0305 78.2362 0.0000 0.0000 0.0000
# 4 0.0000 0.0000 0.0000 19.1284 0.0000 0.0000
# 5 0.0000 0.0000 0.0000 0.0000 20.6401 0.0000
# 6 0.0000 0.0000 0.0000 0.0000 0.0000 32.5220
#
#
#
# Elastic Compliance Matrix: (Units=1/GPa)
#
#
# Indices 1 2 3 4 5 6 
#
# 1 0.025667 -0.017169 -0.005210 0.000000 0.000000 0.000000
# 2 -0.017169 0.036888 -0.012111 0.000000 0.000000 0.000000
# 3 -0.005210 -0.012111 0.023414 0.000000 0.000000 0.000000
# 4 0.000000 0.000000 0.000000 0.052278 0.000000 0.000000
# 5 0.000000 0.000000 0.000000 0.000000 0.048449 0.000000
# 6 0.000000 0.000000 0.000000 0.000000 0.000000 0.030748
#
#
# Mechanical properties :
#
#
# Convention : Reuss Voigt Hill
#
# Bulk Modulus (GPa) = 58.85886 59.64521 59.25204
# Shear Modulus (GPa) = 17.11813 19.87654 18.49733
#
# Velocity S-wave (km/s) = 3.36420 3.62513 3.49710
# Velocity P-wave (km/s) = 7.34885 7.54700 7.44858
#
# Compressibility (1/GPa) = 0.01698979
#
# Stress axis : x y z
#
# Youngs Moduli (GPa) = 38.96077 27.10889 42.70923
#
# Poissons Ratio (x) = 0.46542 0.22252
# Poissons Ratio (y) = 0.66890 0.51725
# Poissons Ratio (z) = 0.20299 0.32831
#
# Static dielectric constant tensor:
#      x y z
#    x 3.029310 0.000000 0.000000 
#    y 0.000000 -2.270920 0.000000 
#    z 0.000000 0.000000 3.666170 
# 
# 
# High freq. dielectric constant tensor:
#      x y z
#    x 1.593920 0.000000 0.000000 
#    y 0.000000 1.552400 0.000000 
#    z 0.000000 0.000000 1.555480 
# 
# From -- ./inp_files/65927.got.cif
#   From: 2010.03.12/outbox.cif.g09.slc.cpg/sg74_33_cif.got.tgz:65927.got - 2010.04.16 15:46:19.
