data_PCOD8298548
_publ_section_title
;
Structure prediction by ZEFSAII (Michael W. Deem and Ramdas Pophale) SiO2 
 PCOD8298548
Probable space group: I M M A
;
_chemical_formula_sum "Si O2"
_cell_formula_units_Z 128
_cell_length_a 28.501609
_cell_length_b 21.868964
_cell_length_c 11.625089
_cell_angle_alpha 90.000000
_cell_angle_beta 90.000000
_cell_angle_gamma 90.000000
_cell_volume 7245.925660
_symmetry_space_group_name_H-M "I M M A"
_symmetry_group_IT_number 74
_symmetry_cell_setting 'orthorhombic'
loop_
_space_group_symop_operation_xyz
x,y,z
-x,1/2-y,z
x,-y,-z
-x,1/2+y,-z
-x,-y,-z
x,1/2+y,-z
-x,y,z
x,1/2-y,z
1/2+x,1/2+y,1/2+z
1/2-x,-y,1/2+z
1/2+x,1/2-y,1/2-z
1/2-x,y,1/2-z
1/2-x,1/2-y,1/2-z
1/2+x,y,1/2-z
1/2-x,1/2+y,1/2+z
1/2+x,-y,1/2+z
loop_
_atom_site_type_symbol
_atom_site_label
_atom_site_fract_x
_atom_site_fract_y
_atom_site_fract_z
Si Si1 0.118845 0.971771 0.680963
Si Si2 0.802781 0.320553 0.603034
Si Si3 0.052413 0.990431 0.126834
Si Si4 0.145685 0.315824 0.838193
Si Si5 0.552782 0.865082 0.245476
Si Si6 0.711556 0.596150 0.434357
Si Si7 0.207662 0.531637 0.824296
Si Si8 0.885385 0.594021 0.450184
O O1 0.162899 0.947762 0.751586
O O2 0.102301 0.926749 0.579204
O O3 0.077408 0.971771 0.773362
O O4 0.133165 0.037494 0.627339
O O5 0.797558 0.250000 0.559368
O O6 0.815988 0.320879 0.736705
O O7 0.754954 0.357851 0.583409
O O8 0.845438 0.354411 0.537383
O O9 0.053071 0.920143 0.163867
O O10 0.000000 0.016772 0.119528
O O11 0.076218 0.000000 0.000000
O O12 0.150341 0.250000 0.898607
O O13 0.092288 0.319342 0.792763
O O14 0.161577 0.368385 0.925756
O O15 0.500000 0.836651 0.240852
O O16 0.567406 0.882941 0.114564
O O17 0.711550 0.567996 0.558968
O O18 0.710845 0.541461 0.341957
O O19 0.250000 0.555666 0.750000
#
# Coordination Sequence:
#
# PCOD8298548 Si02
#       8
#    16  16  16  16  16  16  16  16
#     4  10  19  31  52  72 106 139 166 208 256 302
#     4  10  19  33  53  72  98 133 170 214 258 300
#     4   9  18  30  48  75 104 134 167 201 249 308
#     4  10  20  33  51  76 102 132 172 208 255 309
#     4   9  18  32  51  76 106 131 160 209 257 299
#     4  11  21  32  51  73 102 133 169 214 258 307
#     4  11  22  32  48  76 102 134 171 209 257 316
#     4   9  18  33  51  76 101 134 171 209 251 309
#
# _framework density 17.665099999999999
#
# number of rings (size 3 to 8) (size 9 to 14) (size 15 to 20)
#    0.000    2.125    0.000    5.250    3.500    3.750 
#    0.000    2.500    0.000    6.750    0.000    0.000 
#    0.000    0.000    0.000    0.000    0.000    0.000 
#
# Total GULP energy -793122.684844 kJ/mol
# GULP energy per Si atom -12392.541951 kJ/mol
# Density = 1.762489 g / cm^3
# Si number density = 17.665100 Si / 1000 Ang^3
#
#
#
# Elastic Constant Matrix: (Units=GPa)
#
#
# Indices 1 2 3 4 5 6 
#
# 1 103.7069 38.5431 36.4728 0.0000 0.0000 0.0000
# 2 38.5431 85.0530 33.2784 0.0000 0.0000 0.0000
# 3 36.4728 33.2784 94.8121 0.0000 0.0000 0.0000
# 4 0.0000 0.0000 0.0000 16.9811 0.0000 0.0000
# 5 0.0000 0.0000 0.0000 0.0000 21.0252 0.0000
# 6 0.0000 0.0000 0.0000 0.0000 0.0000 15.9995
#
#
#
# Elastic Compliance Matrix: (Units=1/GPa)
#
#
# Indices 1 2 3 4 5 6 
#
# 1 0.012400 -0.004350 -0.003243 0.000000 0.000000 0.000000
# 2 -0.004350 0.015155 -0.003646 0.000000 0.000000 0.000000
# 3 -0.003243 -0.003646 0.013074 0.000000 0.000000 0.000000
# 4 0.000000 0.000000 0.000000 0.058889 0.000000 0.000000
# 5 0.000000 0.000000 0.000000 0.000000 0.047562 0.000000
# 6 0.000000 0.000000 0.000000 0.000000 0.000000 0.062502
#
#
# Mechanical properties :
#
#
# Convention : Reuss Voigt Hill
#
# Bulk Modulus (GPa) = 55.09341 55.57340 55.33341
# Shear Modulus (GPa) = 20.99852 22.48632 21.74242
#
# Velocity S-wave (km/s) = 3.45149 3.57168 3.51210
# Velocity P-wave (km/s) = 6.86580 6.96684 6.91650
#
# Compressibility (1/GPa) = 0.01815099
#
# Stress axis : x y z
#
# Youngs Moduli (GPa) = 80.64544 65.98354 76.48498
#
# Poissons Ratio (x) = 0.28705 0.24805
# Poissons Ratio (y) = 0.35083 0.27886
# Poissons Ratio (z) = 0.26155 0.24057
#
# Static dielectric constant tensor:
#      x y z
#    x 3.361650 0.000000 0.000000 
#    y 0.000000 3.238510 0.000000 
#    z 0.000000 0.000000 3.218650 
# 
# 
# High freq. dielectric constant tensor:
#      x y z
#    x 1.689950 0.000000 0.000000 
#    y 0.000000 1.662510 0.000000 
#    z 0.000000 0.000000 1.671820 
# 
# From -- ./inp_files/26590.got.cif
#   From: 2010.03.12/outbox.cif.g09.slc.cpg/sg74_14_cif.got.tgz:26590.got - 2010.04.16 15:46:19.
