data_PCOD8298182
_publ_section_title
;
Structure prediction by ZEFSAII (Michael W. Deem and Ramdas Pophale) SiO2 
 PCOD8298182
Probable space group: I M M A
;
_chemical_formula_sum "Si O2"
_cell_formula_units_Z 112
_cell_length_a 19.739292
_cell_length_b 13.937057
_cell_length_c 25.345523
_cell_angle_alpha 90.000000
_cell_angle_beta 90.000000
_cell_angle_gamma 90.000000
_cell_volume 6972.746960
_symmetry_space_group_name_H-M "I M M A"
_symmetry_group_IT_number 74
_symmetry_cell_setting 'orthorhombic'
loop_
_space_group_symop_operation_xyz
x,y,z
-x,1/2-y,z
x,-y,-z
-x,1/2+y,-z
-x,-y,-z
x,1/2+y,-z
-x,y,z
x,1/2-y,z
1/2+x,1/2+y,1/2+z
1/2-x,-y,1/2+z
1/2+x,1/2-y,1/2-z
1/2-x,y,1/2-z
1/2-x,1/2-y,1/2-z
1/2+x,y,1/2-z
1/2-x,1/2+y,1/2+z
1/2+x,-y,1/2+z
loop_
_atom_site_type_symbol
_atom_site_label
_atom_site_fract_x
_atom_site_fract_y
_atom_site_fract_z
Si Si1 0.077026 0.138741 0.964143
Si Si2 0.076261 0.138320 0.692657
Si Si3 0.715316 0.137407 0.963219
Si Si4 0.074167 0.864096 0.424755
Si Si5 0.184191 0.860208 0.946673
Si Si6 0.178616 0.859726 0.222058
Si Si7 0.821482 0.544793 0.111222
O O1 0.080813 0.250000 0.949465
O O2 0.109766 0.082432 0.915546
O O3 0.000000 0.104186 0.972572
O O4 0.118239 0.118650 0.017716
O O5 0.093421 0.250000 0.689631
O O6 0.087967 0.094520 0.634189
O O7 0.125370 0.093867 0.736706
O O8 0.000000 0.118926 0.711466
O O9 0.721627 0.250000 0.953237
O O10 0.636319 0.103559 0.962552
O O11 0.755182 0.089999 0.915173
O O12 0.748821 0.111297 0.019350
O O13 0.070957 0.750000 0.421406
O O14 0.000000 0.901263 0.445209
O O15 0.186724 0.750000 0.927666
O O16 0.181652 0.929072 0.895894
O O17 0.160349 0.750000 0.205230
O O18 0.250000 0.861993 0.250000
O O19 0.177890 0.929782 0.172296
#
# Coordination Sequence:
#
# PCOD8298182 Si02
#       7
#    16  16  16  16  16  16  16
#     4   9  17  29  45  67  94 119 143 172 209 256
#     4   8  14  24  36  53  83 118 141 157 187 237
#     4   9  15  25  42  64  88 111 139 172 205 249
#     4   8  13  22  39  63  90 119 141 157 191 247
#     4   9  19  32  44  59  81 114 151 184 216 248
#     4  10  19  29  42  63  88 110 135 170 211 256
#     4  11  19  28  44  62  84 115 149 178 214 255
#
# _framework density 16.062536000000001
#
# number of rings (size 3 to 8) (size 9 to 14) (size 15 to 20)
#    0.000    2.857    0.000    5.571    0.000    4.000 
#    0.000    1.429    0.000    2.143    0.000    0.000 
#    0.000    0.000    0.000    3.857    0.000    2.286 
#
# Total GULP energy -694042.754942 kJ/mol
# GULP energy per Si atom -12393.620624 kJ/mol
# Density = 1.602598 g / cm^3
# Si number density = 16.062536 Si / 1000 Ang^3
#
#
#
# Elastic Constant Matrix: (Units=GPa)
#
#
# Indices 1 2 3 4 5 6 
#
# 1 120.7851 28.3982 35.9763 0.0000 0.0000 0.0000
# 2 28.3982 44.9272 36.8034 0.0000 0.0000 0.0000
# 3 35.9763 36.8034 61.5959 0.0000 0.0000 0.0000
# 4 0.0000 0.0000 0.0000 21.7370 0.0000 0.0000
# 5 0.0000 0.0000 0.0000 0.0000 13.9856 0.0000
# 6 0.0000 0.0000 0.0000 0.0000 0.0000 95.7990
#
#
#
# Elastic Compliance Matrix: (Units=1/GPa)
#
#
# Indices 1 2 3 4 5 6 
#
# 1 0.010236 -0.003080 -0.004138 0.000000 0.000000 0.000000
# 2 -0.003080 0.044524 -0.024804 0.000000 0.000000 0.000000
# 3 -0.004138 -0.024804 0.033472 0.000000 0.000000 0.000000
# 4 0.000000 0.000000 0.000000 0.046004 0.000000 0.000000
# 5 0.000000 0.000000 0.000000 0.000000 0.071502 0.000000
# 6 0.000000 0.000000 0.000000 0.000000 0.000000 0.010439
#
#
# Mechanical properties :
#
#
# Convention : Reuss Voigt Hill
#
# Bulk Modulus (GPa) = 41.34356 47.74043 44.54200
# Shear Modulus (GPa) = 17.34404 34.71304 26.02854
#
# Velocity S-wave (km/s) = 3.28957 4.65383 4.02985
# Velocity P-wave (km/s) = 6.34219 7.65922 7.03160
#
# Compressibility (1/GPa) = 0.02418757
#
# Stress axis : x y z
#
# Youngs Moduli (GPa) = 97.69529 22.45980 29.87576
#
# Poissons Ratio (x) = 0.06918 0.12363
# Poissons Ratio (y) = 0.30093 0.74103
# Poissons Ratio (z) = 0.40427 0.55709
#
# Static dielectric constant tensor:
#      x y z
#    x 3.394980 0.000000 0.000000 
#    y 0.000000 2.761030 0.000000 
#    z 0.000000 0.000000 2.988270 
# 
# 
# High freq. dielectric constant tensor:
#      x y z
#    x 1.633600 0.000000 0.000000 
#    y 0.000000 1.576830 0.000000 
#    z 0.000000 0.000000 1.586160 
# 
# From -- ./inp_files/61616.got.cif
#   From: 2010.03.12/outbox.cif.g09.slc.cpg/sg74_31_cif.got.tgz:61616.got - 2010.04.16 15:46:19.
