data_PCOD8298091
_publ_section_title
;
Structure prediction by ZEFSAII (Michael W. Deem and Ramdas Pophale) SiO2 
 PCOD8298091
Probable space group: I M M A
;
_chemical_formula_sum "Si O2"
_cell_formula_units_Z 88
_cell_length_a 9.811027
_cell_length_b 21.385943
_cell_length_c 22.206963
_cell_angle_alpha 90.000000
_cell_angle_beta 90.000000
_cell_angle_gamma 90.000000
_cell_volume 4659.421988
_symmetry_space_group_name_H-M "I M M A"
_symmetry_group_IT_number 74
_symmetry_cell_setting 'orthorhombic'
loop_
_space_group_symop_operation_xyz
x,y,z
-x,1/2-y,z
x,-y,-z
-x,1/2+y,-z
-x,-y,-z
x,1/2+y,-z
-x,y,z
x,1/2-y,z
1/2+x,1/2+y,1/2+z
1/2-x,-y,1/2+z
1/2+x,1/2-y,1/2-z
1/2-x,y,1/2-z
1/2-x,1/2-y,1/2-z
1/2+x,y,1/2-z
1/2-x,1/2+y,1/2+z
1/2+x,-y,1/2+z
loop_
_atom_site_type_symbol
_atom_site_label
_atom_site_fract_x
_atom_site_fract_y
_atom_site_fract_z
Si Si1 0.835814 0.006808 0.311574
Si Si2 0.000000 0.322068 0.706912
Si Si3 0.342082 0.627993 0.881252
Si Si4 0.219534 0.381172 0.626100
Si Si5 0.655669 0.679847 0.002977
Si Si6 0.654761 0.250000 0.193957
Si Si7 0.500000 0.676065 0.345813
O O1 0.750000 0.997536 0.250000
O O2 0.781275 0.069744 0.343965
O O3 0.000000 0.005570 0.298230
O O4 0.794515 0.954415 0.360482
O O5 0.861892 0.347698 0.679204
O O6 0.000000 0.340358 0.775993
O O7 0.000000 0.250000 0.694174
O O8 0.500000 0.612541 0.888393
O O9 0.311110 0.689829 0.844569
O O10 0.275935 0.640777 0.947584
O O11 0.158333 0.363305 0.561747
O O12 0.372394 0.356693 0.623736
O O13 0.500000 0.691021 0.984385
O O14 0.720887 0.750000 0.012244
O O15 0.500000 0.250000 0.216656
O O16 0.750000 0.250000 0.250000
O O17 0.500000 0.750000 0.358072
#
# Coordination Sequence:
#
# PCOD8298091 Si02
#       7
#    16   8  16  16  16   8   8
#     4  11  23  39  60  88 122 158 200 245 299 359
#     4  11  20  36  56  83 110 147 203 250 285 345
#     4   9  19  35  59  90 117 156 199 246 298 348
#     4  12  23  36  58  87 116 158 197 238 299 357
#     4  10  18  34  61  88 119 153 201 252 293 344
#     4  10  18  34  60  90 120 150 195 249 302 348
#     4  11  24  38  56  81 120 157 197 254 305 345
#
# _framework density 18.886462000000002
#
# number of rings (size 3 to 8) (size 9 to 14) (size 15 to 20)
#    0.000    1.455    2.727    3.818    1.273    2.182 
#    0.000    2.727    4.000    1.091    0.000    0.000 
#    0.000    0.000    0.000    0.000    0.000    0.000 
#
# Total GULP energy -545383.585851 kJ/mol
# GULP energy per Si atom -12395.081497 kJ/mol
# Density = 1.884348 g / cm^3
# Si number density = 18.886462 Si / 1000 Ang^3
#
#
#
# Elastic Constant Matrix: (Units=GPa)
#
#
# Indices 1 2 3 4 5 6 
#
# 1 68.0346 28.6067 7.0619 0.0000 0.0000 0.0000
# 2 28.6067 172.5006 27.1524 0.0000 0.0000 0.0000
# 3 7.0619 27.1524 124.9929 0.0000 0.0000 0.0000
# 4 0.0000 0.0000 0.0000 45.6573 0.0000 0.0000
# 5 0.0000 0.0000 0.0000 0.0000 19.3489 0.0000
# 6 0.0000 0.0000 0.0000 0.0000 0.0000 31.1890
#
#
#
# Elastic Compliance Matrix: (Units=1/GPa)
#
#
# Indices 1 2 3 4 5 6 
#
# 1 0.015814 -0.002570 -0.000335 0.000000 0.000000 0.000000
# 2 -0.002570 0.006420 -0.001249 0.000000 0.000000 0.000000
# 3 -0.000335 -0.001249 0.008291 0.000000 0.000000 0.000000
# 4 0.000000 0.000000 0.000000 0.021902 0.000000 0.000000
# 5 0.000000 0.000000 0.000000 0.000000 0.051682 0.000000
# 6 0.000000 0.000000 0.000000 0.000000 0.000000 0.032063
#
#
# Mechanical properties :
#
#
# Convention : Reuss Voigt Hill
#
# Bulk Modulus (GPa) = 45.01321 54.57444 49.79382
# Shear Modulus (GPa) = 32.91950 39.41953 36.16952
#
# Velocity S-wave (km/s) = 4.17948 4.57353 4.38094
# Velocity P-wave (km/s) = 6.86848 7.53978 7.21195
#
# Compressibility (1/GPa) = 0.02221570
#
# Stress axis : x y z
#
# Youngs Moduli (GPa) = 63.23633 155.76578 120.61551
#
# Poissons Ratio (x) = 0.40027 0.04043
# Poissons Ratio (y) = 0.16250 0.15070
# Poissons Ratio (z) = 0.02120 0.19462
#
# Static dielectric constant tensor:
#      x y z
#    x 3.123810 0.000000 0.000000 
#    y 0.000000 4.077710 0.000000 
#    z 0.000000 0.000000 3.466760 
# 
# 
# High freq. dielectric constant tensor:
#      x y z
#    x 1.701110 0.000000 0.000000 
#    y 0.000000 1.747690 0.000000 
#    z 0.000000 0.000000 1.740940 
# 
# From -- ./inp_files/57063.got.cif
#   From: 2010.03.12/outbox.cif.g09.slc.cpg/sg74_29_cif.got.tgz:57063.got - 2010.04.16 15:46:19.
