data_PCOD8298098
_publ_section_title
;
Structure prediction by ZEFSAII (Michael W. Deem and Ramdas Pophale) SiO2 
 PCOD8298098
Probable space group: I M M A
;
_chemical_formula_sum "Si O2"
_cell_formula_units_Z 96
_cell_length_a 19.432411
_cell_length_b 18.384386
_cell_length_c 14.440286
_cell_angle_alpha 90.000000
_cell_angle_beta 90.000000
_cell_angle_gamma 90.000000
_cell_volume 5158.834696
_symmetry_space_group_name_H-M "I M M A"
_symmetry_group_IT_number 74
_symmetry_cell_setting 'orthorhombic'
loop_
_space_group_symop_operation_xyz
x,y,z
-x,1/2-y,z
x,-y,-z
-x,1/2+y,-z
-x,-y,-z
x,1/2+y,-z
-x,y,z
x,1/2-y,z
1/2+x,1/2+y,1/2+z
1/2-x,-y,1/2+z
1/2+x,1/2-y,1/2-z
1/2-x,y,1/2-z
1/2-x,1/2-y,1/2-z
1/2+x,y,1/2-z
1/2-x,1/2+y,1/2+z
1/2+x,-y,1/2+z
loop_
_atom_site_type_symbol
_atom_site_label
_atom_site_fract_x
_atom_site_fract_y
_atom_site_fract_z
Si Si1 0.677629 0.111495 0.957111
Si Si2 0.423031 0.669111 0.177742
Si Si3 0.826591 0.664935 0.998617
Si Si4 0.320812 0.962643 0.860949
Si Si5 0.081021 0.909937 0.137622
Si Si6 0.661978 0.051469 0.344008
O O1 0.628435 0.170945 0.910279
O O2 0.757589 0.134226 0.952162
O O3 0.655707 0.040231 0.898978
O O4 0.659621 0.100054 0.065289
O O5 0.500000 0.648913 0.143667
O O6 0.422205 0.750000 0.220722
O O7 0.399451 0.613452 0.257962
O O8 0.818403 0.750000 0.977548
O O9 0.888838 0.650424 0.068540
O O10 0.845926 0.625922 0.901448
O O11 0.356225 0.938023 0.764826
O O12 0.239687 0.974217 0.852045
O O13 0.000000 0.913630 0.122373
O O14 0.113232 0.988738 0.114357
#
# Coordination Sequence:
#
# PCOD8298098 Si02
#       6
#    16  16  16  16  16  16
#     4  10  18  35  57  84 110 142 182 226 269 324
#     4  10  21  36  54  81 117 147 174 222 283 333
#     4  11  23  36  55  84 114 145 184 226 272 328
#     4   9  18  33  59  83 108 139 183 232 268 311
#     4  11  22  37  56  80 109 145 189 231 275 326
#     4  10  19  37  56  81 110 146 182 226 274 318
#
# _framework density 18.608854000000001
#
# number of rings (size 3 to 8) (size 9 to 14) (size 15 to 20)
#    0.000    1.833    3.333    1.500    0.000    3.000 
#    0.000   11.667    0.000    0.000    0.000    0.000 
#    0.000    0.000    0.000    0.000    0.000    0.000 
#
# Total GULP energy -594989.968698 kJ/mol
# GULP energy per Si atom -12395.624348 kJ/mol
# Density = 1.856650 g / cm^3
# Si number density = 18.608854 Si / 1000 Ang^3
#
#
#
# Elastic Constant Matrix: (Units=GPa)
#
#
# Indices 1 2 3 4 5 6 
#
# 1 64.4787 26.8642 44.4612 0.0000 0.0000 0.0000
# 2 26.8642 93.4979 40.4674 0.0000 0.0000 0.0000
# 3 44.4612 40.4674 118.3420 0.0000 0.0000 0.0000
# 4 0.0000 0.0000 0.0000 26.7935 0.0000 0.0000
# 5 0.0000 0.0000 0.0000 0.0000 19.9051 0.0000
# 6 0.0000 0.0000 0.0000 0.0000 0.0000 19.6639
#
#
#
# Elastic Compliance Matrix: (Units=1/GPa)
#
#
# Indices 1 2 3 4 5 6 
#
# 1 0.021707 -0.003177 -0.007069 0.000000 0.000000 0.000000
# 2 -0.003177 0.013018 -0.003258 0.000000 0.000000 0.000000
# 3 -0.007069 -0.003258 0.012220 0.000000 0.000000 0.000000
# 4 0.000000 0.000000 0.000000 0.037323 0.000000 0.000000
# 5 0.000000 0.000000 0.000000 0.000000 0.050238 0.000000
# 6 0.000000 0.000000 0.000000 0.000000 0.000000 0.050854
#
#
# Mechanical properties :
#
#
# Convention : Reuss Voigt Hill
#
# Bulk Modulus (GPa) = 50.15788 55.54490 52.85139
# Shear Modulus (GPa) = 22.82947 24.24090 23.53518
#
# Velocity S-wave (km/s) = 3.50638 3.61315 3.56016
# Velocity P-wave (km/s) = 6.58826 6.87894 6.73517
#
# Compressibility (1/GPa) = 0.01993705
#
# Stress axis : x y z
#
# Youngs Moduli (GPa) = 46.06776 76.81395 81.83368
#
# Poissons Ratio (x) = 0.24407 0.57847
# Poissons Ratio (y) = 0.14638 0.26661
# Poissons Ratio (z) = 0.32565 0.25025
#
# Static dielectric constant tensor:
#      x y z
#    x 3.224890 0.000000 0.000000 
#    y 0.000000 3.237200 0.000000 
#    z 0.000000 0.000000 3.641200 
# 
# 
# High freq. dielectric constant tensor:
#      x y z
#    x 1.705330 0.000000 0.000000 
#    y 0.000000 1.711250 0.000000 
#    z 0.000000 0.000000 1.726190 
# 
# From -- ./inp_files/35297.got.cif
#   From: 2010.03.12/outbox.cif.g09.slc.cpg/sg74_18_cif.got.tgz:35297.got - 2010.04.16 15:46:19.
