data_PCOD8298298
_publ_section_title
;
Structure prediction by ZEFSAII (Michael W. Deem and Ramdas Pophale) SiO2 
 PCOD8298298
Probable space group: I M M A
;
_chemical_formula_sum "Si O2"
_cell_formula_units_Z 120
_cell_length_a 13.731049
_cell_length_b 17.053014
_cell_length_c 28.825084
_cell_angle_alpha 90.000000
_cell_angle_beta 90.000000
_cell_angle_gamma 90.000000
_cell_volume 6749.559763
_symmetry_space_group_name_H-M "I M M A"
_symmetry_group_IT_number 74
_symmetry_cell_setting 'orthorhombic'
loop_
_space_group_symop_operation_xyz
x,y,z
-x,1/2-y,z
x,-y,-z
-x,1/2+y,-z
-x,-y,-z
x,1/2+y,-z
-x,y,z
x,1/2-y,z
1/2+x,1/2+y,1/2+z
1/2-x,-y,1/2+z
1/2+x,1/2-y,1/2-z
1/2-x,y,1/2-z
1/2-x,1/2-y,1/2-z
1/2+x,y,1/2-z
1/2-x,1/2+y,1/2+z
1/2+x,-y,1/2+z
loop_
_atom_site_type_symbol
_atom_site_label
_atom_site_fract_x
_atom_site_fract_y
_atom_site_fract_z
Si Si1 0.250000 0.936884 0.750000
Si Si2 0.388207 0.431677 0.410203
Si Si3 0.612889 0.159903 0.502351
Si Si4 0.110856 0.658454 0.816896
Si Si5 0.386335 0.431807 0.773599
Si Si6 0.388578 0.341365 0.866246
Si Si7 0.388145 0.339317 0.683387
Si Si8 0.709351 0.595439 0.406487
O O1 0.186619 0.883683 0.783725
O O2 0.323468 0.989547 0.780881
O O3 0.500000 0.461055 0.412708
O O4 0.357046 0.390122 0.457687
O O5 0.373507 0.369879 0.369299
O O6 0.318113 0.504899 0.401551
O O7 0.500000 0.148320 0.514524
O O8 0.637223 0.250000 0.491957
O O9 0.674614 0.129770 0.545168
O O10 0.132930 0.750000 0.815477
O O11 0.000000 0.640188 0.800887
O O12 0.500000 0.453996 0.771791
O O13 0.365389 0.370136 0.814225
O O14 0.350482 0.394192 0.725012
O O15 0.500000 0.356605 0.879641
O O16 0.361775 0.250000 0.868770
O O17 0.325725 0.391784 0.903117
O O18 0.500000 0.358443 0.673321
O O19 0.373381 0.250000 0.699038
O O20 0.332349 0.354744 0.636040
#
# Coordination Sequence:
#
# PCOD8298298 Si02
#       8
#     8  16  16  16  16  16  16  16
#     4  12  21  32  51  78 104 126 162 212 259 292
#     4  10  20  35  55  78 105 135 163 195 242 303
#     4  10  20  34  53  78 107 136 163 193 239 303
#     4  10  21  37  55  75 101 134 170 204 242 294
#     4  10  20  33  49  70  99 136 173 208 249 299
#     4  10  21  36  51  68  95 135 180 217 248 289
#     4  10  19  30  46  71 104 138 168 201 247 304
#     4  12  21  31  50  77 104 129 164 211 258 294
#
# _framework density 17.778938
#
# number of rings (size 3 to 8) (size 9 to 14) (size 15 to 20)
#    0.000    1.600    0.000    6.600    0.000    7.467 
#    0.000    2.000    0.000    1.600    0.000    0.000 
#    0.000    7.467    0.000    0.000    0.000    0.000 
#
# Total GULP energy -744197.538323 kJ/mol
# GULP energy per Si atom -12403.292305 kJ/mol
# Density = 1.773847 g / cm^3
# Si number density = 17.778938 Si / 1000 Ang^3
#
#
#
# Elastic Constant Matrix: (Units=GPa)
#
#
# Indices 1 2 3 4 5 6 
#
# 1 77.3965 58.5056 53.6173 0.0000 0.0000 0.0000
# 2 58.5056 109.6959 42.3396 0.0000 0.0000 0.0000
# 3 53.6173 42.3396 96.9850 0.0000 0.0000 0.0000
# 4 0.0000 0.0000 0.0000 30.5094 0.0000 0.0000
# 5 0.0000 0.0000 0.0000 0.0000 18.6115 0.0000
# 6 0.0000 0.0000 0.0000 0.0000 0.0000 27.9051
#
#
#
# Elastic Compliance Matrix: (Units=1/GPa)
#
#
# Indices 1 2 3 4 5 6 
#
# 1 0.029198 -0.011235 -0.011237 0.000000 0.000000 0.000000
# 2 -0.011235 0.015287 -0.000462 0.000000 0.000000 0.000000
# 3 -0.011237 -0.000462 0.016725 0.000000 0.000000 0.000000
# 4 0.000000 0.000000 0.000000 0.032777 0.000000 0.000000
# 5 0.000000 0.000000 0.000000 0.000000 0.053730 0.000000
# 6 0.000000 0.000000 0.000000 0.000000 0.000000 0.035836
#
#
# Mechanical properties :
#
#
# Convention : Reuss Voigt Hill
#
# Bulk Modulus (GPa) = 65.18635 65.88915 65.53775
# Shear Modulus (GPa) = 21.31874 24.04620 22.68247
#
# Velocity S-wave (km/s) = 3.46656 3.68164 3.57572
# Velocity P-wave (km/s) = 7.26411 7.43057 7.34781
#
# Compressibility (1/GPa) = 0.01534064
#
# Stress axis : x y z
#
# Youngs Moduli (GPa) = 34.24881 65.41565 59.79112
#
# Poissons Ratio (x) = 0.73497 0.67187
# Poissons Ratio (y) = 0.38480 0.02763
# Poissons Ratio (z) = 0.38485 0.03023
#
# Static dielectric constant tensor:
#      x y z
#    x 3.476040 0.000000 0.000000 
#    y 0.000000 3.371470 0.000000 
#    z 0.000000 0.000000 3.272790 
# 
# 
# High freq. dielectric constant tensor:
#      x y z
#    x 1.683380 0.000000 0.000000 
#    y 0.000000 1.695020 0.000000 
#    z 0.000000 0.000000 1.680870 
# 
# From -- ./inp_files/72742.got.cif
#   From: 2010.03.12/outbox.cif.g09.slc.cpg/sg74_37_cif.got.tgz:72742.got - 2010.04.16 15:46:19.
