data_PCOD8298764
_publ_section_title
;
Structure prediction by ZEFSAII (Michael W. Deem and Ramdas Pophale) SiO2 
 PCOD8298764
Probable space group: I M M A
;
_chemical_formula_sum "Si O2"
_cell_formula_units_Z 88
_cell_length_a 9.538283
_cell_length_b 19.395659
_cell_length_c 24.165035
_cell_angle_alpha 90.000000
_cell_angle_beta 90.000000
_cell_angle_gamma 90.000000
_cell_volume 4470.562515
_symmetry_space_group_name_H-M "I M M A"
_symmetry_group_IT_number 74
_symmetry_cell_setting 'orthorhombic'
loop_
_space_group_symop_operation_xyz
x,y,z
-x,1/2-y,z
x,-y,-z
-x,1/2+y,-z
-x,-y,-z
x,1/2+y,-z
-x,y,z
x,1/2-y,z
1/2+x,1/2+y,1/2+z
1/2-x,-y,1/2+z
1/2+x,1/2-y,1/2-z
1/2-x,y,1/2-z
1/2-x,1/2-y,1/2-z
1/2+x,y,1/2-z
1/2-x,1/2+y,1/2+z
1/2+x,-y,1/2+z
loop_
_atom_site_type_symbol
_atom_site_label
_atom_site_fract_x
_atom_site_fract_y
_atom_site_fract_z
Si Si1 0.840052 0.974984 0.198665
Si Si2 0.339329 0.079259 0.999446
Si Si3 0.160410 0.113422 0.624979
Si Si4 0.342253 0.361817 0.300314
Si Si5 0.663104 0.250000 0.806988
Si Si6 0.337848 0.327295 0.420944
O O1 0.750000 0.945771 0.250000
O O2 0.767294 0.945676 0.143958
O O3 0.000000 0.948561 0.203927
O O4 0.832964 0.056354 0.195447
O O5 0.500000 0.082418 0.018779
O O6 0.248945 0.119495 0.043661
O O7 0.319552 0.117651 0.940869
O O8 0.288390 0.000000 0.000000
O O9 0.201522 0.184625 0.654891
O O10 0.000000 0.092488 0.638968
O O11 0.500000 0.337282 0.288818
O O12 0.250000 0.333072 0.250000
O O13 0.286025 0.330117 0.357439
O O14 0.500000 0.250000 0.790769
O O15 0.750000 0.250000 0.750000
O O16 0.500000 0.349530 0.423850
O O17 0.315127 0.250000 0.443598
#
# Coordination Sequence:
#
# PCOD8298764 Si02
#       6
#    16  16  16  16   8  16
#     4  10  19  32  53  80 109 143 183 229 283 336
#     4  10  22  39  61  88 115 148 194 244 293 350
#     4  10  21  36  55  78 109 145 185 233 285 340
#     4   9  19  35  55  81 113 147 184 230 281 334
#     4  10  22  38  54  76 108 148 185 228 283 338
#     4  10  22  39  58  83 117 153 190 235 286 342
#
# _framework density 19.684322999999999
#
# number of rings (size 3 to 8) (size 9 to 14) (size 15 to 20)
#    0.000    2.182    0.000    2.182    1.273    5.455 
#    0.000    0.000    0.000    0.000    0.000    0.000 
#    0.000    0.000    0.000    0.000    0.000    0.000 
#
# Total GULP energy -545664.663320 kJ/mol
# GULP energy per Si atom -12401.469621 kJ/mol
# Density = 1.963952 g / cm^3
# Si number density = 19.684323 Si / 1000 Ang^3
#
#
#
# Elastic Constant Matrix: (Units=GPa)
#
#
# Indices 1 2 3 4 5 6 
#
# 1 101.2231 47.5061 67.6723 0.0000 0.0000 0.0000
# 2 47.5061 77.1644 63.8929 0.0000 0.0000 0.0000
# 3 67.6723 63.8929 123.1727 0.0000 0.0000 0.0000
# 4 0.0000 0.0000 0.0000 33.4453 0.0000 0.0000
# 5 0.0000 0.0000 0.0000 0.0000 39.5782 0.0000
# 6 0.0000 0.0000 0.0000 0.0000 0.0000 18.5633
#
#
#
# Elastic Compliance Matrix: (Units=1/GPa)
#
#
# Indices 1 2 3 4 5 6 
#
# 1 0.016516 -0.004653 -0.006660 0.000000 0.000000 0.000000
# 2 -0.004653 0.024027 -0.009907 0.000000 0.000000 0.000000
# 3 -0.006660 -0.009907 0.016917 0.000000 0.000000 0.000000
# 4 0.000000 0.000000 0.000000 0.029900 0.000000 0.000000
# 5 0.000000 0.000000 0.000000 0.000000 0.025266 0.000000
# 6 0.000000 0.000000 0.000000 0.000000 0.000000 0.053870
#
#
# Mechanical properties :
#
#
# Convention : Reuss Voigt Hill
#
# Bulk Modulus (GPa) = 66.58226 73.30030 69.94128
# Shear Modulus (GPa) = 23.37081 26.48330 24.92705
#
# Velocity S-wave (km/s) = 3.44943 3.67195 3.56243
# Velocity P-wave (km/s) = 7.05430 7.43615 7.24774
#
# Compressibility (1/GPa) = 0.01501902
#
# Stress axis : x y z
#
# Youngs Moduli (GPa) = 60.54891 41.61958 59.11262
#
# Poissons Ratio (x) = 0.19366 0.39370
# Poissons Ratio (y) = 0.28174 0.58563
# Poissons Ratio (z) = 0.40326 0.41233
#
# Static dielectric constant tensor:
#      x y z
#    x 3.637670 0.000000 0.000000 
#    y 0.000000 3.590440 0.000000 
#    z 0.000000 0.000000 3.603530 
# 
# 
# High freq. dielectric constant tensor:
#      x y z
#    x 1.763500 0.000000 0.000000 
#    y 0.000000 1.769370 0.000000 
#    z 0.000000 0.000000 1.771270 
# 
# From -- ./inp_files/56949.got.cif
#   From: 2010.03.12/outbox.cif.g09.slc.cpg/sg74_29_cif.got.tgz:56949.got - 2010.04.16 15:46:19.
