data_PCOD8298888
_publ_section_title
;
Structure prediction by ZEFSAII (Michael W. Deem and Ramdas Pophale) SiO2 
 PCOD8298888
Probable space group: I M M A
;
_chemical_formula_sum "Si O2"
_cell_formula_units_Z 96
_cell_length_a 24.576449
_cell_length_b 9.385508
_cell_length_c 22.249152
_cell_angle_alpha 90.000000
_cell_angle_beta 90.000000
_cell_angle_gamma 90.000000
_cell_volume 5132.044104
_symmetry_space_group_name_H-M "I M M A"
_symmetry_group_IT_number 74
_symmetry_cell_setting 'orthorhombic'
loop_
_space_group_symop_operation_xyz
x,y,z
-x,1/2-y,z
x,-y,-z
-x,1/2+y,-z
-x,-y,-z
x,1/2+y,-z
-x,y,z
x,1/2-y,z
1/2+x,1/2+y,1/2+z
1/2-x,-y,1/2+z
1/2+x,1/2-y,1/2-z
1/2-x,y,1/2-z
1/2-x,1/2-y,1/2-z
1/2+x,y,1/2-z
1/2-x,1/2+y,1/2+z
1/2+x,-y,1/2+z
loop_
_atom_site_type_symbol
_atom_site_label
_atom_site_fract_x
_atom_site_fract_y
_atom_site_fract_z
Si Si1 0.605168 0.585955 0.340455
Si Si2 0.226248 0.414155 0.812133
Si Si3 0.000000 0.081115 0.769782
Si Si4 0.402341 0.414984 0.941736
Si Si5 0.560877 0.911757 0.559825
Si Si6 0.277297 0.082556 0.937780
Si Si7 0.500000 0.918990 0.139011
O O1 0.596806 0.750000 0.360197
O O2 0.661604 0.566181 0.305707
O O3 0.555314 0.529279 0.300758
O O4 0.605713 0.485313 0.398374
O O5 0.244364 0.250000 0.812899
O O6 0.250000 0.484527 0.750000
O O7 0.246488 0.476115 0.877264
O O8 0.000000 0.250000 0.766468
O O9 0.000000 0.010735 0.704395
O O10 0.411273 0.250000 0.955757
O O11 0.340429 0.445643 0.922577
O O12 0.444187 0.470664 0.891656
O O13 0.418963 0.500000 0.000000
O O14 0.500000 0.918722 0.588167
O O15 0.578542 0.750000 0.547066
O O16 0.561174 0.000000 0.500000
O O17 0.264837 0.250000 0.948576
O O18 0.260458 0.000000 0.000000
O O19 0.500000 0.750000 0.143266
#
# Coordination Sequence:
#
# PCOD8298888 Si02
#       7
#    16  16   8  16  16  16   8
#     4  10  19  33  53  77 105 135 170 214 262 312
#     4   9  19  33  53  80 107 137 177 222 263 307
#     4   9  18  29  47  75 102 128 164 211 256 299
#     4   9  17  29  48  71  99 128 161 203 249 298
#     4  10  20  34  54  78 106 137 170 211 261 318
#     4   9  18  33  52  74 100 133 170 210 255 302
#     4   9  17  27  44  73  99 126 163 205 250 297
#
# _framework density 18.705997
#
# number of rings (size 3 to 8) (size 9 to 14) (size 15 to 20)
#    0.000    2.667    0.833    0.750    2.333    1.333 
#    0.000    2.500    0.000    4.000    0.000    0.000 
#    0.000    0.000    0.000    0.000    0.000    0.000 
#
# Total GULP energy -594788.007043 kJ/mol
# GULP energy per Si atom -12391.416813 kJ/mol
# Density = 1.866342 g / cm^3
# Si number density = 18.705997 Si / 1000 Ang^3
#
#
#
# Elastic Constant Matrix: (Units=GPa)
#
#
# Indices 1 2 3 4 5 6 
#
# 1 104.7503 26.5306 66.0255 0.0000 0.0000 0.0000
# 2 26.5306 57.8619 41.1815 0.0000 0.0000 0.0000
# 3 66.0255 41.1815 139.4344 0.0000 0.0000 0.0000
# 4 0.0000 0.0000 0.0000 22.1559 0.0000 0.0000
# 5 0.0000 0.0000 0.0000 0.0000 20.6903 0.0000
# 6 0.0000 0.0000 0.0000 0.0000 0.0000 14.3763
#
#
#
# Elastic Compliance Matrix: (Units=1/GPa)
#
#
# Indices 1 2 3 4 5 6 
#
# 1 0.013811 -0.002125 -0.005912 0.000000 0.000000 0.000000
# 2 -0.002125 0.022209 -0.005553 0.000000 0.000000 0.000000
# 3 -0.005912 -0.005553 0.011612 0.000000 0.000000 0.000000
# 4 0.000000 0.000000 0.000000 0.045135 0.000000 0.000000
# 5 0.000000 0.000000 0.000000 0.000000 0.048332 0.000000
# 6 0.000000 0.000000 0.000000 0.000000 0.000000 0.069559
#
#
# Mechanical properties :
#
#
# Convention : Reuss Voigt Hill
#
# Bulk Modulus (GPa) = 48.89685 63.28021 56.08853
# Shear Modulus (GPa) = 20.43687 22.66508 21.55098
#
# Velocity S-wave (km/s) = 3.30893 3.48465 3.39793
# Velocity P-wave (km/s) = 6.38710 7.07762 6.74121
#
# Compressibility (1/GPa) = 0.02045121
#
# Stress axis : x y z
#
# Youngs Moduli (GPa) = 72.40411 45.02653 86.12007
#
# Poissons Ratio (x) = 0.09567 0.50918
# Poissons Ratio (y) = 0.15384 0.47825
# Poissons Ratio (z) = 0.42809 0.25005
#
# Static dielectric constant tensor:
#      x y z
#    x 3.530670 0.000000 0.000000 
#    y 0.000000 3.134110 0.000000 
#    z 0.000000 0.000000 3.731110 
# 
# 
# High freq. dielectric constant tensor:
#      x y z
#    x 1.730980 0.000000 0.000000 
#    y 0.000000 1.681620 0.000000 
#    z 0.000000 0.000000 1.730410 
# 
# From -- ./inp_files/61933.got.cif
#   From: 2010.03.12/outbox.cif.g09.slc.cpg/sg74_31_cif.got.tgz:61933.got - 2010.04.16 15:46:19.
