data_PCOD8298156
_publ_section_title
;
Structure prediction by ZEFSAII (Michael W. Deem and Ramdas Pophale) SiO2 
 PCOD8298156
Probable space group: I M M A
;
_chemical_formula_sum "Si O2"
_cell_formula_units_Z 96
_cell_length_a 15.272986
_cell_length_b 19.094131
_cell_length_c 18.609649
_cell_angle_alpha 90.000000
_cell_angle_beta 90.000000
_cell_angle_gamma 90.000000
_cell_volume 5427.027639
_symmetry_space_group_name_H-M "I M M A"
_symmetry_group_IT_number 74
_symmetry_cell_setting 'orthorhombic'
loop_
_space_group_symop_operation_xyz
x,y,z
-x,1/2-y,z
x,-y,-z
-x,1/2+y,-z
-x,-y,-z
x,1/2+y,-z
-x,y,z
x,1/2-y,z
1/2+x,1/2+y,1/2+z
1/2-x,-y,1/2+z
1/2+x,1/2-y,1/2-z
1/2-x,y,1/2-z
1/2-x,1/2-y,1/2-z
1/2+x,y,1/2-z
1/2-x,1/2+y,1/2+z
1/2+x,-y,1/2+z
loop_
_atom_site_type_symbol
_atom_site_label
_atom_site_fract_x
_atom_site_fract_y
_atom_site_fract_z
Si Si1 0.596104 0.592095 0.923611
Si Si2 0.100319 0.830323 0.926491
Si Si3 0.246656 0.893787 0.830294
Si Si4 0.398934 0.435365 0.550115
Si Si5 0.256626 0.559496 0.330620
Si Si6 0.096056 0.925569 0.416887
O O1 0.500000 0.616372 0.896611
O O2 0.668625 0.631667 0.875542
O O3 0.603014 0.508846 0.921554
O O4 0.609792 0.612490 0.006711
O O5 0.129010 0.750000 0.933295
O O6 0.157436 0.868804 0.866539
O O7 0.000000 0.838239 0.901300
O O8 0.113362 0.864926 0.004379
O O9 0.250000 0.862109 0.750000
O O10 0.251887 0.976680 0.827526
O O11 0.364805 0.500000 0.500000
O O12 0.500000 0.448720 0.571682
O O13 0.344810 0.425226 0.623860
O O14 0.250000 0.589889 0.250000
O O15 0.174801 0.599421 0.366774
O O16 0.000000 0.905033 0.385845
#
# Coordination Sequence:
#
# PCOD8298156 Si02
#       6
#    16  16  16  16  16  16
#     4   8  14  25  41  61  84 118 160 196 230 276
#     4  10  21  36  53  73  97 132 178 218 252 297
#     4  10  19  29  45  70 101 134 162 199 249 299
#     4  10  19  33  54  75  99 133 171 213 257 298
#     4  10  19  28  45  75 105 130 157 200 256 306
#     4   8  14  24  39  59  88 123 155 191 235 283
#
# _framework density 17.689240999999999
#
# number of rings (size 3 to 8) (size 9 to 14) (size 15 to 20)
#    0.000    2.667    1.667    2.000    2.333    1.667 
#    0.000    3.333    0.000    1.000    0.000    0.000 
#    0.000    0.000    0.000    0.000    0.000    0.000 
#
# Total GULP energy -594797.718561 kJ/mol
# GULP energy per Si atom -12391.619137 kJ/mol
# Density = 1.764898 g / cm^3
# Si number density = 17.689241 Si / 1000 Ang^3
#
#
#
# Elastic Constant Matrix: (Units=GPa)
#
#
# Indices 1 2 3 4 5 6 
#
# 1 133.0379 10.3906 83.5456 0.0000 0.0000 0.0000
# 2 10.3906 17.2315 11.3909 0.0000 0.0000 0.0000
# 3 83.5456 11.3909 131.0879 0.0000 0.0000 0.0000
# 4 0.0000 0.0000 0.0000 9.1025 0.0000 0.0000
# 5 0.0000 0.0000 0.0000 0.0000 18.3204 0.0000
# 6 0.0000 0.0000 0.0000 0.0000 0.0000 10.7129
#
#
#
# Elastic Compliance Matrix: (Units=1/GPa)
#
#
# Indices 1 2 3 4 5 6 
#
# 1 0.012628 -0.002434 -0.007837 0.000000 0.000000 0.000000
# 2 -0.002434 0.062039 -0.003839 0.000000 0.000000 0.000000
# 3 -0.007837 -0.003839 0.012957 0.000000 0.000000 0.000000
# 4 0.000000 0.000000 0.000000 0.109860 0.000000 0.000000
# 5 0.000000 0.000000 0.000000 0.000000 0.054584 0.000000
# 6 0.000000 0.000000 0.000000 0.000000 0.000000 0.093345
#
#
# Mechanical properties :
#
#
# Convention : Reuss Voigt Hill
#
# Bulk Modulus (GPa) = 16.83413 54.66792 35.75102
# Shear Modulus (GPa) = 12.70856 19.36250 16.03553
#
# Velocity S-wave (km/s) = 2.68327 3.31205 3.01410
# Velocity P-wave (km/s) = 4.37461 6.75263 5.68925
#
# Compressibility (1/GPa) = 0.05940314
#
# Stress axis : x y z
#
# Youngs Moduli (GPa) = 79.18863 16.11881 77.18075
#
# Poissons Ratio (x) = 0.03924 0.60484
# Poissons Ratio (y) = 0.19277 0.29633
# Poissons Ratio (z) = 0.62057 0.06189
#
# Static dielectric constant tensor:
#      x y z
#    x 3.596690 0.000000 0.000000 
#    y 0.000000 2.767590 0.000000 
#    z 0.000000 0.000000 3.535500 
# 
# 
# High freq. dielectric constant tensor:
#      x y z
#    x 1.701950 0.000000 0.000000 
#    y 0.000000 1.618710 0.000000 
#    z 0.000000 0.000000 1.678540 
# 
# From -- ./inp_files/52249.got.cif
#   From: 2010.03.12/outbox.cif.g09.slc.cpg/sg74_27_cif.got.tgz:52249.got - 2010.04.16 15:46:19.
