data_PCOD8299895
_publ_section_title
;
Structure prediction by ZEFSAII (Michael W. Deem and Ramdas Pophale) SiO2 
 PCOD8299895
Probable space group: I M M A
;
_chemical_formula_sum "Si O2"
_cell_formula_units_Z 104
_cell_length_a 9.029396
_cell_length_b 31.516433
_cell_length_c 20.336482
_cell_angle_alpha 90.000000
_cell_angle_beta 90.000000
_cell_angle_gamma 90.000000
_cell_volume 5787.241229
_symmetry_space_group_name_H-M "I M M A"
_symmetry_group_IT_number 74
_symmetry_cell_setting 'orthorhombic'
loop_
_space_group_symop_operation_xyz
x,y,z
-x,1/2-y,z
x,-y,-z
-x,1/2+y,-z
-x,-y,-z
x,1/2+y,-z
-x,y,z
x,1/2-y,z
1/2+x,1/2+y,1/2+z
1/2-x,-y,1/2+z
1/2+x,1/2-y,1/2-z
1/2-x,y,1/2-z
1/2-x,1/2-y,1/2-z
1/2+x,y,1/2-z
1/2-x,1/2+y,1/2+z
1/2+x,-y,1/2+z
loop_
_atom_site_type_symbol
_atom_site_label
_atom_site_fract_x
_atom_site_fract_y
_atom_site_fract_z
Si Si1 0.325403 0.963772 0.817715
Si Si2 0.330426 0.250000 0.182642
Si Si3 0.675365 0.617219 0.061062
Si Si4 0.830945 0.702604 0.049672
Si Si5 0.671081 0.091420 0.426952
Si Si6 0.162681 0.685902 0.897873
Si Si7 0.171533 0.062111 0.684778
O O1 0.500000 0.954346 0.813909
O O2 0.250000 0.947285 0.750000
O O3 0.256979 0.942026 0.882051
O O4 0.289452 0.013139 0.827484
O O5 0.500000 0.250000 0.197638
O O6 0.250000 0.250000 0.250000
O O7 0.289947 0.292428 0.143824
O O8 0.500000 0.616896 0.049306
O O9 0.726768 0.665375 0.077759
O O10 0.725641 0.588731 0.122294
O O11 0.753582 0.596311 0.998054
O O12 0.780945 0.750000 0.073393
O O13 0.000000 0.693864 0.071751
O O14 0.818418 0.701173 0.971775
O O15 0.500000 0.077583 0.436629
O O16 0.681451 0.135890 0.389417
O O17 0.000000 0.699827 0.872444
O O18 0.250000 0.079610 0.750000
O O19 0.000000 0.068905 0.696713
#
# Coordination Sequence:
#
# PCOD8299895 Si02
#       7
#    16   8  16  16  16  16  16
#     4  10  20  36  56  77 104 141 182 223 269 321
#     4  12  24  34  48  68  92 126 171 214 257 306
#     4  10  20  34  53  82 113 139 175 222 269 317
#     4   9  17  32  54  77 104 137 169 207 257 314
#     4  10  21  36  54  78 107 141 178 220 267 317
#     4   9  18  35  52  67  95 130 164 208 257 302
#     4   9  20  37  57  80 108 142 177 217 267 321
#
# _framework density 17.970566999999999
#
# number of rings (size 3 to 8) (size 9 to 14) (size 15 to 20)
#    0.000    2.308    0.769    3.000    0.000    6.462 
#    0.000    3.077    0.000    0.462    0.000    0.000 
#    0.000    0.000    0.000    0.000    0.000    0.000 
#
# Total GULP energy -644690.273848 kJ/mol
# GULP energy per Si atom -12397.889882 kJ/mol
# Density = 1.792966 g / cm^3
# Si number density = 17.970567 Si / 1000 Ang^3
#
#
#
# Elastic Constant Matrix: (Units=GPa)
#
#
# Indices 1 2 3 4 5 6 
#
# 1 112.2919 51.4335 59.5960 0.0001 0.0000 0.0000
# 2 51.4335 94.3181 63.7562 0.0000 0.0000 0.0000
# 3 59.5960 63.7562 102.8456 0.0002 0.0000 -0.0001
# 4 0.0001 0.0000 0.0002 133.7611 0.0000 0.0001
# 5 0.0000 0.0000 0.0000 0.0000 30.5895 0.0000
# 6 0.0000 0.0000 -0.0001 0.0001 0.0000 30.1612
#
#
#
# Elastic Compliance Matrix: (Units=1/GPa)
#
#
# Indices 1 2 3 4 5 6 
#
# 1 0.013527 -0.003577 -0.005621 0.000000 0.000000 0.000000
# 2 -0.003577 0.019196 -0.009827 0.000000 0.000000 0.000000
# 3 -0.005621 -0.009827 0.019073 0.000000 0.000000 0.000000
# 4 0.000000 0.000000 0.000000 0.007476 0.000000 0.000000
# 5 0.000000 0.000000 0.000000 0.000000 0.032691 0.000000
# 6 0.000000 0.000000 0.000000 0.000000 0.000000 0.033155
#
#
# Mechanical properties :
#
#
# Convention : Reuss Voigt Hill
#
# Bulk Modulus (GPa) = 72.75307 73.22523 72.98915
# Shear Modulus (GPa) = 29.80629 47.88035 38.84332
#
# Velocity S-wave (km/s) = 4.07703 5.16736 4.65423
# Velocity P-wave (km/s) = 7.92057 8.74288 8.34186
#
# Compressibility (1/GPa) = 0.01374512
#
# Stress axis : x y z
#
# Youngs Moduli (GPa) = 73.92664 52.09460 52.43082
#
# Poissons Ratio (x) = 0.18633 0.29472
# Poissons Ratio (y) = 0.26442 0.51525
# Poissons Ratio (z) = 0.41555 0.51195
#
# Static dielectric constant tensor:
#      x y z
#    x 3.845620 0.000000 -0.000010 
#    y 0.000000 3.537220 0.000000 
#    z -0.000010 0.000000 3.744550 
# 
# 
# High freq. dielectric constant tensor:
#      x y z
#    x 1.703280 0.000000 0.000000 
#    y 0.000000 1.699180 0.000000 
#    z 0.000000 0.000000 1.676900 
# 
# From -- ./inp_files/49593.got.cif
#   From: 2010.03.12/outbox.cif.g09.slc.cpg/sg74_25_cif.got.tgz:49593.got - 2010.04.16 15:46:19.
