data_PCOD8299116
_publ_section_title
;
Structure prediction by ZEFSAII (Michael W. Deem and Ramdas Pophale) SiO2 
 PCOD8299116
Probable space group: I M M A
;
_chemical_formula_sum "Si O2"
_cell_formula_units_Z 112
_cell_length_a 28.100333
_cell_length_b 17.364606
_cell_length_c 12.259188
_cell_angle_alpha 90.000000
_cell_angle_beta 90.000000
_cell_angle_gamma 90.000000
_cell_volume 5981.885631
_symmetry_space_group_name_H-M "I M M A"
_symmetry_group_IT_number 74
_symmetry_cell_setting 'orthorhombic'
loop_
_space_group_symop_operation_xyz
x,y,z
-x,1/2-y,z
x,-y,-z
-x,1/2+y,-z
-x,-y,-z
x,1/2+y,-z
-x,y,z
x,1/2-y,z
1/2+x,1/2+y,1/2+z
1/2-x,-y,1/2+z
1/2+x,1/2-y,1/2-z
1/2-x,y,1/2-z
1/2-x,1/2-y,1/2-z
1/2+x,y,1/2-z
1/2-x,1/2+y,1/2+z
1/2+x,-y,1/2+z
loop_
_atom_site_type_symbol
_atom_site_label
_atom_site_fract_x
_atom_site_fract_y
_atom_site_fract_z
Si Si1 0.645917 0.907920 0.311223
Si Si2 0.803098 0.663018 0.390828
Si Si3 0.054428 0.340150 0.723553
Si Si4 0.448463 0.341462 0.024470
Si Si5 0.699309 0.060847 0.297301
Si Si6 0.646550 0.161859 0.120898
Si Si7 0.205342 0.339292 0.988199
O O1 0.673303 0.888292 0.200568
O O2 0.589433 0.893955 0.295366
O O3 0.658743 0.856625 0.416783
O O4 0.662249 0.995129 0.334626
O O5 0.805125 0.750000 0.347629
O O6 0.830539 0.653992 0.503166
O O7 0.748995 0.636479 0.409774
O O8 0.068772 0.250000 0.735272
O O9 0.060691 0.368733 0.599246
O O10 0.000000 0.352560 0.762679
O O11 0.500000 0.372297 0.065301
O O12 0.448403 0.250000 0.021257
O O13 0.407652 0.369825 0.107572
O O14 0.750000 0.030498 0.250000
O O15 0.674162 0.111036 0.205846
O O16 0.708747 0.113000 0.401763
O O17 0.647596 0.250000 0.161725
O O18 0.208125 0.250000 0.021189
#
# Coordination Sequence:
#
# PCOD8299116 Si02
#       7
#    16  16  16  16  16  16  16
#     4  12  23  36  56  86 120 142 175 235 299 345
#     4  10  19  34  57  83 109 142 186 233 277 323
#     4   9  17  33  59  87 113 144 185 232 283 337
#     4   8  14  28  53  84 113 141 179 228 277 324
#     4  12  25  39  54  77 116 161 192 223 278 348
#     4  10  19  34  57  81 110 151 198 236 267 321
#     4  11  23  39  59  79 107 151 201 241 271 324
#
# _framework density 18.723192999999998
#
# number of rings (size 3 to 8) (size 9 to 14) (size 15 to 20)
#    0.000    1.714    2.857    4.286    0.000    2.286 
#    0.000    0.714    0.000    4.286    0.000    2.000 
#    0.000    0.000    0.000    0.000    0.000    0.000 
#
# Total GULP energy -694211.025297 kJ/mol
# GULP energy per Si atom -12396.625452 kJ/mol
# Density = 1.868058 g / cm^3
# Si number density = 18.723193 Si / 1000 Ang^3
#
#
#
# Elastic Constant Matrix: (Units=GPa)
#
#
# Indices 1 2 3 4 5 6 
#
# 1 128.6173 29.8035 24.1446 0.0000 0.0000 0.0000
# 2 29.8035 66.4287 17.2402 0.0000 0.0000 0.0000
# 3 24.1446 17.2402 45.4203 0.0000 0.0000 0.0000
# 4 0.0000 0.0000 0.0000 -4.8783 0.0000 0.0000
# 5 0.0000 0.0000 0.0000 0.0000 30.9671 0.0000
# 6 0.0000 0.0000 0.0000 0.0000 0.0000 28.2336
#
#
#
# Elastic Compliance Matrix: (Units=1/GPa)
#
#
# Indices 1 2 3 4 5 6 
#
# 1 0.009202 -0.003171 -0.003688 0.000000 0.000000 0.000000
# 2 -0.003171 0.017792 -0.005067 0.000000 0.000000 0.000000
# 3 -0.003688 -0.005067 0.025900 0.000000 0.000000 0.000000
# 4 0.000000 0.000000 0.000000 -0.204990 0.000000 0.000000
# 5 0.000000 0.000000 0.000000 0.000000 0.032292 0.000000
# 6 0.000000 0.000000 0.000000 0.000000 0.000000 0.035419
#
#
# Mechanical properties :
#
#
# Convention : Reuss Voigt Hill
#
# Bulk Modulus (GPa) = 34.43415 42.53810 38.48612
# Shear Modulus (GPa) = -98.32748 22.14968 -38.08890
#
# Velocity S-wave (km/s) = -7.25468 3.44322 -4.51523
# Velocity P-wave (km/s) = 7.19325 6.21100 2.56577
#
# Compressibility (1/GPa) = 0.02904094
#
# Stress axis : x y z
#
# Youngs Moduli (GPa) = 108.66941 56.20584 38.60945
#
# Poissons Ratio (x) = 0.17826 0.14239
# Poissons Ratio (y) = 0.34464 0.19565
# Poissons Ratio (z) = 0.40077 0.28481
#
# Static dielectric constant tensor:
#      x y z
#    x 4.024670 0.000000 0.000000 
#    y 0.000000 3.305190 0.000000 
#    z 0.000000 0.000000 3.330490 
# 
# 
# High freq. dielectric constant tensor:
#      x y z
#    x 1.734630 0.000000 0.000000 
#    y 0.000000 1.707580 0.000000 
#    z 0.000000 0.000000 1.709140 
# 
# From -- ./inp_files/21188.got.cif
#   From: 2010.03.12/outbox.cif.g09.slc.cpg/sg74_11_cif.got.tgz:21188.got - 2010.04.16 15:46:19.
