data_PCOD8299418
_publ_section_title
;
Structure prediction by ZEFSAII (Michael W. Deem and Ramdas Pophale) SiO2 
 PCOD8299418
Probable space group: I M M A
;
_chemical_formula_sum "Si O2"
_cell_formula_units_Z 96
_cell_length_a 18.516701
_cell_length_b 19.016095
_cell_length_c 14.836909
_cell_angle_alpha 90.000000
_cell_angle_beta 90.000000
_cell_angle_gamma 90.000000
_cell_volume 5224.303336
_symmetry_space_group_name_H-M "I M M A"
_symmetry_group_IT_number 74
_symmetry_cell_setting 'orthorhombic'
loop_
_space_group_symop_operation_xyz
x,y,z
-x,1/2-y,z
x,-y,-z
-x,1/2+y,-z
-x,-y,-z
x,1/2+y,-z
-x,y,z
x,1/2-y,z
1/2+x,1/2+y,1/2+z
1/2-x,-y,1/2+z
1/2+x,1/2-y,1/2-z
1/2-x,y,1/2-z
1/2-x,1/2-y,1/2-z
1/2+x,y,1/2-z
1/2-x,1/2+y,1/2+z
1/2+x,-y,1/2+z
loop_
_atom_site_type_symbol
_atom_site_label
_atom_site_fract_x
_atom_site_fract_y
_atom_site_fract_z
Si Si1 0.082254 0.452739 0.768311
Si Si2 0.821582 0.934216 0.392112
Si Si3 0.335231 0.401162 0.084172
Si Si4 0.184496 0.830957 0.903300
Si Si5 0.338586 0.070790 0.558698
Si Si6 0.582504 0.882680 0.748021
O O1 0.134675 0.412160 0.697653
O O2 0.097022 0.426178 0.869391
O O3 0.096869 0.535744 0.771058
O O4 0.000000 0.435875 0.741352
O O5 0.849767 0.887501 0.477710
O O6 0.735778 0.922030 0.384631
O O7 0.836707 0.015714 0.405591
O O8 0.258276 0.372072 0.117086
O O9 0.395946 0.366306 0.147901
O O10 0.201861 0.750000 0.921755
O O11 0.131281 0.837074 0.818604
O O12 0.147970 0.863792 0.992345
O O13 0.337761 0.000000 0.500000
O O14 0.500000 0.860596 0.733216
#
# Coordination Sequence:
#
# PCOD8299418 Si02
#       6
#    16  16  16  16  16  16
#     4  10  20  31  52  82 108 134 170 217 263 313
#     4   9  16  32  54  79 102 133 174 215 265 304
#     4   9  17  32  53  75 103 137 173 213 255 304
#     4  11  22  35  52  76 105 138 179 220 256 305
#     4  11  18  34  56  76 100 139 179 217 262 308
#     4  10  20  32  48  76 110 143 172 204 254 313
#
# _framework density 18.375655999999999
#
# number of rings (size 3 to 8) (size 9 to 14) (size 15 to 20)
#    0.000    2.000    5.000    1.000    0.000    6.000 
#    0.000    3.333    0.000    8.000    0.000    0.000 
#    0.000    0.000    0.000    0.000    0.000    0.000 
#
# Total GULP energy -594989.008843 kJ/mol
# GULP energy per Si atom -12395.604351 kJ/mol
# Density = 1.833383 g / cm^3
# Si number density = 18.375656 Si / 1000 Ang^3
#
#
#
# Elastic Constant Matrix: (Units=GPa)
#
#
# Indices 1 2 3 4 5 6 
#
# 1 69.9358 18.1603 53.8091 0.0000 0.0000 0.0000
# 2 18.1603 29.5552 27.0241 0.0000 0.0000 0.0000
# 3 53.8091 27.0241 114.5549 0.0000 0.0000 0.0000
# 4 0.0000 0.0000 0.0000 9.7581 0.0000 0.0000
# 5 0.0000 0.0000 0.0000 0.0000 29.0897 0.0000
# 6 0.0000 0.0000 0.0000 0.0000 0.0000 0.9059
#
#
#
# Elastic Compliance Matrix: (Units=1/GPa)
#
#
# Indices 1 2 3 4 5 6 
#
# 1 0.023057 -0.005437 -0.009548 0.000000 0.000000 0.000000
# 2 -0.005437 0.044423 -0.007925 0.000000 0.000000 0.000000
# 3 -0.009548 -0.007925 0.015084 0.000000 0.000000 0.000000
# 4 0.000000 0.000000 0.000000 0.102479 0.000000 0.000000
# 5 0.000000 0.000000 0.000000 0.000000 0.034376 0.000000
# 6 0.000000 0.000000 0.000000 0.000000 0.000000 1.103871
#
#
# Mechanical properties :
#
#
# Convention : Reuss Voigt Hill
#
# Bulk Modulus (GPa) = 27.21652 45.78142 36.49897
# Shear Modulus (GPa) = 3.61963 15.62090 9.62027
#
# Velocity S-wave (km/s) = 1.40502 2.91879 2.29057
# Velocity P-wave (km/s) = 4.18036 6.02722 5.18666
#
# Compressibility (1/GPa) = 0.03674239
#
# Stress axis : x y z
#
# Youngs Moduli (GPa) = 43.37130 22.51101 66.29619
#
# Poissons Ratio (x) = 0.12240 0.63297
# Poissons Ratio (y) = 0.23583 0.52543
# Poissons Ratio (z) = 0.41409 0.17841
#
# Static dielectric constant tensor:
#      x y z
#    x 3.321880 0.000000 0.000000 
#    y 0.000000 2.985440 0.000000 
#    z 0.000000 0.000000 3.885970 
# 
# 
# High freq. dielectric constant tensor:
#      x y z
#    x 1.705650 0.000000 0.000000 
#    y 0.000000 1.658850 0.000000 
#    z 0.000000 0.000000 1.725990 
# 
# From -- ./inp_files/35642.got.cif
#   From: 2010.03.12/outbox.cif.g09.slc.cpg/sg74_18_cif.got.tgz:35642.got - 2010.04.16 15:46:19.
