data_PCOD8299987
_publ_section_title
;
Structure prediction by ZEFSAII (Michael W. Deem and Ramdas Pophale) SiO2 
 PCOD8299987
Probable space group: I M M A
;
_chemical_formula_sum "Si O2"
_cell_formula_units_Z 96
_cell_length_a 8.685755
_cell_length_b 23.997496
_cell_length_c 21.286187
_cell_angle_alpha 90.000000
_cell_angle_beta 90.000000
_cell_angle_gamma 90.000000
_cell_volume 4436.815568
_symmetry_space_group_name_H-M "I M M A"
_symmetry_group_IT_number 74
_symmetry_cell_setting 'orthorhombic'
loop_
_space_group_symop_operation_xyz
x,y,z
-x,1/2-y,z
x,-y,-z
-x,1/2+y,-z
-x,-y,-z
x,1/2+y,-z
-x,y,z
x,1/2-y,z
1/2+x,1/2+y,1/2+z
1/2-x,-y,1/2+z
1/2+x,1/2-y,1/2-z
1/2-x,y,1/2-z
1/2-x,1/2-y,1/2-z
1/2+x,y,1/2-z
1/2-x,1/2+y,1/2+z
1/2+x,-y,1/2+z
loop_
_atom_site_type_symbol
_atom_site_label
_atom_site_fract_x
_atom_site_fract_y
_atom_site_fract_z
Si Si1 0.326313 0.879335 0.580759
Si Si2 0.826023 0.188021 0.523720
Si Si3 0.827828 0.688045 0.683578
Si Si4 0.321608 0.687312 0.345988
Si Si5 0.319614 0.074308 0.814644
Si Si6 0.323251 0.495285 0.571661
O O1 0.500000 0.866888 0.558645
O O2 0.211290 0.859578 0.526431
O O3 0.289260 0.847401 0.643542
O O4 0.304414 0.943386 0.599503
O O5 0.812002 0.250000 0.493558
O O6 0.706414 0.182526 0.579925
O O7 0.000000 0.177848 0.548289
O O8 0.838629 0.750000 0.655366
O O9 0.750000 0.689688 0.750000
O O10 0.000000 0.661866 0.685508
O O11 0.500000 0.675568 0.332084
O O12 0.274481 0.750000 0.323066
O O13 0.220258 0.640206 0.312202
O O14 0.500000 0.065220 0.812453
O O15 0.250000 0.047579 0.750000
O O16 0.259922 0.046852 0.879968
O O17 0.255776 0.500000 0.500000
O O18 0.500000 0.475147 0.567503
#
# Coordination Sequence:
#
# PCOD8299987 Si02
#       6
#    16  16  16  16  16  16
#     4  11  22  35  57  86 115 153 199 249 304 363
#     4  10  20  34  55  87 126 163 201 249 302 358
#     4  10  21  37  56  79 111 151 194 244 301 362
#     4  10  21  39  64  93 126 163 201 244 298 361
#     4  12  26  44  68  95 127 166 208 258 313 371
#     4  10  23  44  67  91 123 163 209 261 314 369
#
# _framework density 21.637141
#
# number of rings (size 3 to 8) (size 9 to 14) (size 15 to 20)
#    0.000    1.500    0.000    5.000    0.000    9.000 
#    0.000    0.000    0.000    0.000    0.000    0.000 
#    0.000    0.000    0.000    0.000    0.000    0.000 
#
# Total GULP energy -595022.995898 kJ/mol
# GULP energy per Si atom -12396.312415 kJ/mol
# Density = 2.158789 g / cm^3
# Si number density = 21.637141 Si / 1000 Ang^3
#
#
#
# Elastic Constant Matrix: (Units=GPa)
#
#
# Indices 1 2 3 4 5 6 
#
# 1 107.5890 41.1057 36.0564 0.0000 0.0000 0.0000
# 2 41.1057 80.1736 45.1138 0.0000 0.0000 0.0000
# 3 36.0564 45.1138 111.5084 -0.0001 0.0000 0.0000
# 4 0.0000 0.0000 -0.0001 41.0361 0.0000 0.0000
# 5 0.0000 0.0000 0.0000 0.0000 35.7450 0.0000
# 6 0.0000 0.0000 0.0000 0.0000 0.0000 29.3938
#
#
#
# Elastic Compliance Matrix: (Units=1/GPa)
#
#
# Indices 1 2 3 4 5 6 
#
# 1 0.011824 -0.005064 -0.001775 0.000000 0.000000 0.000000
# 2 -0.005064 0.018318 -0.005774 0.000000 0.000000 0.000000
# 3 -0.001775 -0.005774 0.011878 0.000000 0.000000 0.000000
# 4 0.000000 0.000000 0.000000 0.024369 0.000000 0.000000
# 5 0.000000 0.000000 0.000000 0.000000 0.027976 0.000000
# 6 0.000000 0.000000 0.000000 0.000000 0.000000 0.034021
#
#
# Mechanical properties :
#
#
# Convention : Reuss Voigt Hill
#
# Bulk Modulus (GPa) = 59.53934 60.42475 59.98205
# Shear Modulus (GPa) = 31.40549 33.03465 32.22007
#
# Velocity S-wave (km/s) = 3.81394 3.91161 3.86308
# Velocity P-wave (km/s) = 6.85360 6.95615 6.90506
#
# Compressibility (1/GPa) = 0.01679562
#
# Stress axis : x y z
#
# Youngs Moduli (GPa) = 84.57371 54.59113 84.19145
#
# Poissons Ratio (x) = 0.27643 0.14941
# Poissons Ratio (y) = 0.42825 0.48610
# Poissons Ratio (z) = 0.15009 0.31519
#
# Static dielectric constant tensor:
#      x y z
#    x 3.908680 0.000000 0.000000 
#    y 0.000000 4.049460 0.000000 
#    z 0.000000 0.000000 4.457400 
# 
# 
# High freq. dielectric constant tensor:
#      x y z
#    x 1.851090 0.000000 0.000000 
#    y 0.000000 1.848790 0.000000 
#    z 0.000000 0.000000 1.851630 
# 
# From -- ./inp_files/49122.got.cif
#   From: 2010.03.12/outbox.cif.g09.slc.cpg/sg74_25_cif.got.tgz:49122.got - 2010.04.16 15:46:19.
