data_PCOD8299147
_publ_section_title
;
Structure prediction by ZEFSAII (Michael W. Deem and Ramdas Pophale) SiO2 
 PCOD8299147
Probable space group: I M M A
;
_chemical_formula_sum "Si O2"
_cell_formula_units_Z 80
_cell_length_a 9.378298
_cell_length_b 15.824901
_cell_length_c 27.831824
_cell_angle_alpha 90.000000
_cell_angle_beta 90.000000
_cell_angle_gamma 90.000000
_cell_volume 4130.538740
_symmetry_space_group_name_H-M "I M M A"
_symmetry_group_IT_number 74
_symmetry_cell_setting 'orthorhombic'
loop_
_space_group_symop_operation_xyz
x,y,z
-x,1/2-y,z
x,-y,-z
-x,1/2+y,-z
-x,-y,-z
x,1/2+y,-z
-x,y,z
x,1/2-y,z
1/2+x,1/2+y,1/2+z
1/2-x,-y,1/2+z
1/2+x,1/2-y,1/2-z
1/2-x,y,1/2-z
1/2-x,1/2-y,1/2-z
1/2+x,y,1/2-z
1/2-x,1/2+y,1/2+z
1/2+x,-y,1/2+z
loop_
_atom_site_type_symbol
_atom_site_label
_atom_site_fract_x
_atom_site_fract_y
_atom_site_fract_z
Si Si1 0.660781 0.155150 0.947568
Si Si2 0.166278 0.912304 0.972762
Si Si3 0.666973 0.750000 0.298675
Si Si4 0.834736 0.092132 0.862251
Si Si5 0.328392 0.250000 0.300879
Si Si6 0.834993 0.093557 0.136441
O O1 0.500000 0.120861 0.953291
O O2 0.660789 0.250000 0.927115
O O3 0.744708 0.095812 0.910741
O O4 0.740661 0.156344 0.998734
O O5 0.224558 0.909767 0.918049
O O6 0.000000 0.888685 0.975008
O O7 0.196347 0.000000 0.000000
O O8 0.500000 0.750000 0.288220
O O9 0.750000 0.750000 0.250000
O O10 0.714089 0.834714 0.326208
O O11 0.000000 0.103415 0.876892
O O12 0.808406 0.998983 0.839362
O O13 0.500000 0.250000 0.293439
O O14 0.250000 0.250000 0.250000
O O15 0.270958 0.332268 0.330270
O O16 0.000000 0.113837 0.132375
#
# Coordination Sequence:
#
# PCOD8299147 Si02
#       6
#    16  16   8  16   8  16
#     4  11  23  35  50  80 123 161 186 224 281 342
#     4  10  19  34  58  85 112 149 195 237 279 340
#     4  10  22  36  57  82 109 141 178 233 289 338
#     4  10  19  37  60  82 108 149 196 233 275 339
#     4  10  22  42  63  84 113 149 194 249 303 344
#     4   9  19  36  60  87 113 143 190 245 286 331
#
# _framework density 19.367933000000001
#
# number of rings (size 3 to 8) (size 9 to 14) (size 15 to 20)
#    0.000    2.000    3.000    0.600    1.400    3.200 
#    0.000    2.000    0.000    0.000    0.000    0.000 
#    0.000    0.000    0.000    0.000    0.000    0.000 
#
# Total GULP energy -495810.834950 kJ/mol
# GULP energy per Si atom -12395.270874 kJ/mol
# Density = 1.932385 g / cm^3
# Si number density = 19.367933 Si / 1000 Ang^3
#
#
#
# Elastic Constant Matrix: (Units=GPa)
#
#
# Indices 1 2 3 4 5 6 
#
# 1 54.4672 34.7193 43.9756 0.0000 0.0000 0.0000
# 2 34.7193 141.0510 76.0747 0.0000 0.0000 0.0000
# 3 43.9756 76.0747 146.4076 0.0000 0.0000 0.0000
# 4 0.0000 0.0000 0.0000 28.7175 0.0000 0.0000
# 5 0.0000 0.0000 0.0000 0.0000 31.5810 0.0000
# 6 0.0000 0.0000 0.0000 0.0000 0.0000 16.1220
#
#
#
# Elastic Compliance Matrix: (Units=1/GPa)
#
#
# Indices 1 2 3 4 5 6 
#
# 1 0.025081 -0.002932 -0.006010 0.000000 0.000000 0.000000
# 2 -0.002932 0.010193 -0.004416 0.000000 0.000000 0.000000
# 3 -0.006010 -0.004416 0.010930 0.000000 0.000000 0.000000
# 4 0.000000 0.000000 0.000000 0.034822 0.000000 0.000000
# 5 0.000000 0.000000 0.000000 0.000000 0.031665 0.000000
# 6 0.000000 0.000000 0.000000 0.000000 0.000000 0.062027
#
#
# Mechanical properties :
#
#
# Convention : Reuss Voigt Hill
#
# Bulk Modulus (GPa) = 51.31268 72.38497 61.84883
# Shear Modulus (GPa) = 24.04671 27.76119 25.90395
#
# Velocity S-wave (km/s) = 3.52742 3.79008 3.66111
# Velocity P-wave (km/s) = 6.56821 7.52381 7.06219
#
# Compressibility (1/GPa) = 0.01948836
#
# Stress axis : x y z
#
# Youngs Moduli (GPa) = 39.87083 98.10737 91.49346
#
# Poissons Ratio (x) = 0.28768 0.54986
# Poissons Ratio (y) = 0.11691 0.40400
# Poissons Ratio (z) = 0.23962 0.43320
#
# Static dielectric constant tensor:
#      x y z
#    x 3.275210 0.000000 0.000000 
#    y 0.000000 3.956880 0.000000 
#    z 0.000000 0.000000 3.481990 
# 
# 
# High freq. dielectric constant tensor:
#      x y z
#    x 1.724320 0.000000 0.000000 
#    y 0.000000 1.766020 0.000000 
#    z 0.000000 0.000000 1.742300 
# 
# From -- ./inp_files/64039.got.cif
#   From: 2010.03.12/outbox.cif.g09.slc.cpg/sg74_33_cif.got.tgz:64039.got - 2010.04.16 15:46:19.
