data_PCOD8299969
_publ_section_title
;
Structure prediction by ZEFSAII (Michael W. Deem and Ramdas Pophale) SiO2 
 PCOD8299969
Probable space group: I M M A
;
_chemical_formula_sum "Si O2"
_cell_formula_units_Z 72
_cell_length_a 8.442587
_cell_length_b 29.177312
_cell_length_c 14.002933
_cell_angle_alpha 90.000000
_cell_angle_beta 90.000000
_cell_angle_gamma 90.000000
_cell_volume 3449.370422
_symmetry_space_group_name_H-M "I M M A"
_symmetry_group_IT_number 74
_symmetry_cell_setting 'orthorhombic'
loop_
_space_group_symop_operation_xyz
x,y,z
-x,1/2-y,z
x,-y,-z
-x,1/2+y,-z
-x,-y,-z
x,1/2+y,-z
-x,y,z
x,1/2-y,z
1/2+x,1/2+y,1/2+z
1/2-x,-y,1/2+z
1/2+x,1/2-y,1/2-z
1/2-x,y,1/2-z
1/2-x,1/2-y,1/2-z
1/2+x,y,1/2-z
1/2-x,1/2+y,1/2+z
1/2+x,-y,1/2+z
loop_
_atom_site_type_symbol
_atom_site_label
_atom_site_fract_x
_atom_site_fract_y
_atom_site_fract_z
Si Si1 0.184764 0.303352 0.148746
Si Si2 0.184371 0.936182 0.041761
Si Si3 0.687769 0.750000 0.144461
Si Si4 0.185881 0.978412 0.644502
Si Si5 0.815389 0.839818 0.462347
O O1 0.220863 0.250000 0.132120
O O2 0.250000 0.319577 0.250000
O O3 0.000000 0.314513 0.139699
O O4 0.283479 0.332790 0.073846
O O5 0.277622 0.969565 0.113370
O O6 0.223032 0.884558 0.073985
O O7 0.000000 0.946460 0.053611
O O8 0.234427 0.943999 0.931678
O O9 0.500000 0.750000 0.140268
O O10 0.750000 0.750000 0.250000
O O11 0.753472 0.795589 0.093120
O O12 0.250000 0.967981 0.750000
O O13 0.000000 0.969834 0.642912
O O14 0.000000 0.847020 0.443214
#
# Coordination Sequence:
#
# PCOD8299969 Si02
#       5
#    16  16   8  16  16
#     4  10  20  34  55  83 114 152 195 243 297 358
#     4  11  23  40  62  93 125 160 202 251 303 365
#     4  10  24  42  63  86 117 158 205 254 302 350
#     4  11  22  41  66  93 124 161 199 248 303 365
#     4  11  22  40  61  87 121 161 204 254 304 358
#
# _framework density 20.873373000000001
#
# number of rings (size 3 to 8) (size 9 to 14) (size 15 to 20)
#    0.000    1.333    1.111    6.667    0.000    4.444 
#    0.000    6.667    0.000    0.000    0.000    0.000 
#    0.000    0.000    0.000    0.000    0.000    0.000 
#
# Total GULP energy -446584.691631 kJ/mol
# GULP energy per Si atom -12405.130323 kJ/mol
# Density = 2.082586 g / cm^3
# Si number density = 20.873373 Si / 1000 Ang^3
#
#
#
# Elastic Constant Matrix: (Units=GPa)
#
#
# Indices 1 2 3 4 5 6 
#
# 1 68.0094 9.0839 5.4095 -0.0001 0.0000 0.0000
# 2 9.0839 114.6704 18.1900 -0.0001 0.0000 0.0000
# 3 5.4095 18.1900 78.0617 -0.0004 0.0002 0.0000
# 4 -0.0001 -0.0001 -0.0004 4.9597 0.0000 0.0000
# 5 0.0000 0.0000 0.0002 0.0000 38.0060 0.0000
# 6 0.0000 0.0000 0.0000 0.0000 0.0000 31.3122
#
#
#
# Elastic Compliance Matrix: (Units=1/GPa)
#
#
# Indices 1 2 3 4 5 6 
#
# 1 0.014908 -0.001056 -0.000787 0.000000 0.000000 0.000000
# 2 -0.001056 0.009130 -0.002054 0.000000 0.000000 0.000000
# 3 -0.000787 -0.002054 0.013344 0.000001 0.000000 0.000000
# 4 0.000000 0.000000 0.000001 0.201623 0.000000 0.000000
# 5 0.000000 0.000000 0.000000 0.000000 0.026312 0.000000
# 6 0.000000 0.000000 0.000000 0.000000 0.000000 0.031936
#
#
# Mechanical properties :
#
#
# Convention : Reuss Voigt Hill
#
# Bulk Modulus (GPa) = 33.79918 36.23425 35.01672
# Shear Modulus (GPa) = 15.87758 30.05947 22.96852
#
# Velocity S-wave (km/s) = 2.76100 3.79896 3.32079
# Velocity P-wave (km/s) = 5.13730 6.05307 5.61389
#
# Compressibility (1/GPa) = 0.02958651
#
# Stress axis : x y z
#
# Youngs Moduli (GPa) = 67.08031 109.52678 74.94220
#
# Poissons Ratio (x) = 0.11567 0.05898
# Poissons Ratio (y) = 0.07084 0.15396
# Poissons Ratio (z) = 0.05279 0.22501
#
# Static dielectric constant tensor:
#      x y z
#    x 3.879120 0.000000 0.000000 
#    y 0.000000 3.877420 0.000000 
#    z 0.000000 0.000000 3.800980 
# 
# 
# High freq. dielectric constant tensor:
#      x y z
#    x 1.825140 0.000000 0.000000 
#    y 0.000000 1.819980 0.000000 
#    z 0.000000 0.000000 1.813810 
# 
# From -- ./inp_files/29366.got.cif
#   From: 2010.03.12/outbox.cif.g09.slc.cpg/sg74_15_cif.got.tgz:29366.got - 2010.04.16 15:46:19.
