data_PCOD8299974
_publ_section_title
;
Structure prediction by ZEFSAII (Michael W. Deem and Ramdas Pophale) SiO2 
 PCOD8299974
Probable space group: I M M A
;
_chemical_formula_sum "Si O2"
_cell_formula_units_Z 112
_cell_length_a 19.509365
_cell_length_b 18.550695
_cell_length_c 15.427433
_cell_angle_alpha 90.000000
_cell_angle_beta 90.000000
_cell_angle_gamma 90.000000
_cell_volume 5583.377448
_symmetry_space_group_name_H-M "I M M A"
_symmetry_group_IT_number 74
_symmetry_cell_setting 'orthorhombic'
loop_
_space_group_symop_operation_xyz
x,y,z
-x,1/2-y,z
x,-y,-z
-x,1/2+y,-z
-x,-y,-z
x,1/2+y,-z
-x,y,z
x,1/2-y,z
1/2+x,1/2+y,1/2+z
1/2-x,-y,1/2+z
1/2+x,1/2-y,1/2-z
1/2-x,y,1/2-z
1/2-x,1/2-y,1/2-z
1/2+x,y,1/2-z
1/2-x,1/2+y,1/2+z
1/2+x,-y,1/2+z
loop_
_atom_site_type_symbol
_atom_site_label
_atom_site_fract_x
_atom_site_fract_y
_atom_site_fract_z
Si Si1 0.424093 0.404381 0.742656
Si Si2 0.922652 0.166449 0.121493
Si Si3 0.335056 0.924894 0.948824
Si Si4 0.423290 0.933438 0.779797
Si Si5 0.200128 0.167607 0.824409
Si Si6 0.211845 0.332344 0.022200
Si Si7 0.079905 0.332827 0.578210
O O1 0.500000 0.373737 0.723071
O O2 0.423178 0.489689 0.733431
O O3 0.372052 0.373256 0.672671
O O4 0.399948 0.377889 0.837156
O O5 0.921120 0.250000 0.145912
O O6 0.900958 0.124984 0.208712
O O7 0.867418 0.149263 0.045736
O O8 0.000000 0.143853 0.091202
O O9 0.369393 0.937122 0.856667
O O10 0.260648 0.889822 0.930093
O O11 0.379977 0.866108 0.998349
O O12 0.329023 0.000000 0.000000
O O13 0.500000 0.916600 0.815410
O O14 0.185340 0.250000 0.800990
O O15 0.250000 0.134496 0.750000
O O16 0.229941 0.158569 0.920460
O O17 0.227907 0.250000 0.050823
O O18 0.102396 0.250000 0.591357
O O19 0.000000 0.339605 0.557160
#
# Coordination Sequence:
#
# PCOD8299974 Si02
#       7
#    16  16  16  16  16  16  16
#     4  10  20  36  58  85 116 151 192 240 294 351
#     4   9  20  42  67  87 113 152 200 255 309 358
#     4  12  23  36  57  86 121 164 200 241 292 362
#     4  10  22  39  60  87 119 155 199 249 298 351
#     4  10  21  37  59  85 118 156 194 242 297 358
#     4  10  23  41  60  87 120 154 197 249 302 353
#     4  10  20  34  55  84 119 157 197 243 294 349
#
# _framework density 20.059542
#
# number of rings (size 3 to 8) (size 9 to 14) (size 15 to 20)
#    0.000    1.857    1.429    2.143    0.000    6.000 
#    0.000    4.286    0.000    3.000    0.000    0.000 
#    0.000    0.000    0.000    0.000    0.000    0.000 
#
# Total GULP energy -694414.662994 kJ/mol
# GULP energy per Si atom -12400.261839 kJ/mol
# Density = 2.001389 g / cm^3
# Si number density = 20.059542 Si / 1000 Ang^3
#
#
#
# Elastic Constant Matrix: (Units=GPa)
#
#
# Indices 1 2 3 4 5 6 
#
# 1 106.8862 44.4107 42.5093 0.0000 0.0000 0.0000
# 2 44.4107 79.8237 29.2046 0.0000 0.0000 0.0000
# 3 42.5093 29.2046 63.5233 0.0000 0.0000 0.0000
# 4 0.0000 0.0000 0.0000 28.8448 0.0000 0.0000
# 5 0.0000 0.0000 0.0000 0.0000 32.2631 0.0000
# 6 0.0000 0.0000 0.0000 0.0000 0.0000 33.4026
#
#
#
# Elastic Compliance Matrix: (Units=1/GPa)
#
#
# Indices 1 2 3 4 5 6 
#
# 1 0.014466 -0.005418 -0.007190 0.000000 0.000000 0.000000
# 2 -0.005418 0.017090 -0.004231 0.000000 0.000000 0.000000
# 3 -0.007190 -0.004231 0.022499 0.000000 0.000000 0.000000
# 4 0.000000 0.000000 0.000000 0.034668 0.000000 0.000000
# 5 0.000000 0.000000 0.000000 0.000000 0.030995 0.000000
# 6 0.000000 0.000000 0.000000 0.000000 0.000000 0.029938
#
#
# Mechanical properties :
#
#
# Convention : Reuss Voigt Hill
#
# Bulk Modulus (GPa) = 49.07514 53.60912 51.34213
# Shear Modulus (GPa) = 26.29815 27.84269 27.07042
#
# Velocity S-wave (km/s) = 3.62471 3.72963 3.67754
# Velocity P-wave (km/s) = 6.48351 6.73275 6.60930
#
# Compressibility (1/GPa) = 0.02037692
#
# Stress axis : x y z
#
# Youngs Moduli (GPa) = 69.12599 58.51352 44.44639
#
# Poissons Ratio (x) = 0.31702 0.31956
# Poissons Ratio (y) = 0.37452 0.18807
# Poissons Ratio (z) = 0.49701 0.24760
#
# Static dielectric constant tensor:
#      x y z
#    x 3.827180 0.000000 0.000000 
#    y 0.000000 3.682000 0.000000 
#    z 0.000000 0.000000 3.377990 
# 
# 
# High freq. dielectric constant tensor:
#      x y z
#    x 1.793910 0.000000 0.000000 
#    y 0.000000 1.785530 0.000000 
#    z 0.000000 0.000000 1.759730 
# 
# From -- ./inp_files/45428.got.cif
#   From: 2010.03.12/outbox.cif.g09.slc.cpg/sg74_23_cif.got.tgz:45428.got - 2010.04.16 15:46:19.
