data_PCOD8299126
_publ_section_title
;
Structure prediction by ZEFSAII (Michael W. Deem and Ramdas Pophale) SiO2 
 PCOD8299126
Probable space group: I M M A
;
_chemical_formula_sum "Si O2"
_cell_formula_units_Z 96
_cell_length_a 17.328673
_cell_length_b 28.622550
_cell_length_c 10.267132
_cell_angle_alpha 90.000000
_cell_angle_beta 90.000000
_cell_angle_gamma 90.000000
_cell_volume 5092.403111
_symmetry_space_group_name_H-M "I M M A"
_symmetry_group_IT_number 74
_symmetry_cell_setting 'orthorhombic'
loop_
_space_group_symop_operation_xyz
x,y,z
-x,1/2-y,z
x,-y,-z
-x,1/2+y,-z
-x,-y,-z
x,1/2+y,-z
-x,y,z
x,1/2-y,z
1/2+x,1/2+y,1/2+z
1/2-x,-y,1/2+z
1/2+x,1/2-y,1/2-z
1/2-x,y,1/2-z
1/2-x,1/2-y,1/2-z
1/2+x,y,1/2-z
1/2-x,1/2+y,1/2+z
1/2+x,-y,1/2+z
loop_
_atom_site_type_symbol
_atom_site_label
_atom_site_fract_x
_atom_site_fract_y
_atom_site_fract_z
Si Si1 0.338585 0.803307 0.286287
Si Si2 0.696243 0.629511 0.867744
Si Si3 0.088715 0.068866 0.207341
Si Si4 0.685935 0.015959 0.641430
Si Si5 0.661573 0.611792 0.465000
Si Si6 0.913096 0.695600 0.485014
O O1 0.353446 0.750000 0.333533
O O2 0.250000 0.810597 0.250000
O O3 0.361770 0.838872 0.400998
O O4 0.390567 0.816108 0.162824
O O5 0.750000 0.647564 0.750000
O O6 0.642031 0.586459 0.825771
O O7 0.750171 0.612309 0.984953
O O8 0.643123 0.672009 0.911827
O O9 0.000000 0.070743 0.249477
O O10 0.111685 0.015823 0.173938
O O11 0.102254 0.102323 0.082418
O O12 0.750000 0.007340 0.750000
O O13 0.658161 0.069818 0.640289
O O14 0.718609 0.000000 0.500000
O O15 0.905176 0.750000 0.511528
O O16 0.000000 0.677809 0.508292
#
# Coordination Sequence:
#
# PCOD8299126 Si02
#       6
#    16  16  16  16  16  16
#     4  10  19  34  57  85 112 142 184 231 277 332
#     4  10  20  36  58  82 109 146 194 232 277 330
#     4  10  21  37  55  79 113 149 183 230 286 337
#     4  10  20  35  57  82 110 146 188 234 281 343
#     4  10  20  34  59  85 108 145 190 231 278 334
#     4  10  21  36  56  83 116 151 184 228 286 337
#
# _framework density 18.851610999999998
#
# number of rings (size 3 to 8) (size 9 to 14) (size 15 to 20)
#    0.000    2.000    1.667    3.500    0.000    4.000 
#    0.000    2.500    0.000    2.500    0.000    0.000 
#    0.000    0.000    0.000    0.000    0.000    0.000 
#
# Total GULP energy -595238.973066 kJ/mol
# GULP energy per Si atom -12400.811939 kJ/mol
# Density = 1.880870 g / cm^3
# Si number density = 18.851611 Si / 1000 Ang^3
#
#
#
# Elastic Constant Matrix: (Units=GPa)
#
#
# Indices 1 2 3 4 5 6 
#
# 1 117.2365 40.9281 40.2290 0.0000 -0.0005 0.0001
# 2 40.9281 118.6228 53.8062 -0.0012 -0.0006 -0.0003
# 3 40.2290 53.8062 68.6849 0.0130 0.0004 0.0015
# 4 0.0000 -0.0012 0.0130 30.9204 0.0003 0.0001
# 5 -0.0005 -0.0006 0.0004 0.0003 22.0232 0.0004
# 6 0.0001 -0.0003 0.0015 0.0001 0.0004 19.4615
#
#
#
# Elastic Compliance Matrix: (Units=1/GPa)
#
#
# Indices 1 2 3 4 5 6 
#
# 1 0.010809 -0.001331 -0.005289 0.000002 0.000000 0.000000
# 2 -0.001331 0.013240 -0.009593 0.000005 0.000001 0.000001
# 3 -0.005289 -0.009593 0.025172 -0.000011 -0.000001 -0.000002
# 4 0.000002 0.000005 -0.000011 0.032341 0.000000 0.000000
# 5 0.000000 0.000001 -0.000001 0.000000 0.045407 -0.000001
# 6 0.000000 0.000001 -0.000002 0.000000 -0.000001 0.051384
#
#
# Mechanical properties :
#
#
# Convention : Reuss Voigt Hill
#
# Bulk Modulus (GPa) = 59.53441 63.83006 61.68224
# Shear Modulus (GPa) = 23.10797 25.78640 24.44718
#
# Velocity S-wave (km/s) = 3.50492 3.70247 3.60505
# Velocity P-wave (km/s) = 6.93025 7.22568 7.07951
#
# Compressibility (1/GPa) = 0.01679701
#
# Stress axis : x y z
#
# Youngs Moduli (GPa) = 92.51543 75.52621 39.72722
#
# Poissons Ratio (x) = 0.10049 0.21010
# Poissons Ratio (y) = 0.12310 0.38110
# Poissons Ratio (z) = 0.48927 0.72452
#
# Static dielectric constant tensor:
#      x y z
#    x 3.393530 0.000000 0.000000 
#    y 0.000000 3.559810 -0.000010 
#    z 0.000000 -0.000010 3.437850 
# 
# 
# High freq. dielectric constant tensor:
#      x y z
#    x 1.722910 0.000000 0.000000 
#    y 0.000000 1.735940 0.000000 
#    z 0.000000 0.000000 1.723980 
# 
# From -- ./inp_files/22670.got.cif
#   From: 2010.03.12/outbox.cif.g09.slc.cpg/sg74_12_cif.got.tgz:22670.got - 2010.04.16 15:46:19.
