data_PCOD8299622
_publ_section_title
;
Structure prediction by ZEFSAII (Michael W. Deem and Ramdas Pophale) SiO2 
 PCOD8299622
Probable space group: I M M A
;
_chemical_formula_sum "Si O2"
_cell_formula_units_Z 80
_cell_length_a 8.935757
_cell_length_b 28.094033
_cell_length_c 17.425060
_cell_angle_alpha 90.000000
_cell_angle_beta 90.000000
_cell_angle_gamma 90.000000
_cell_volume 4374.412364
_symmetry_space_group_name_H-M "I M M A"
_symmetry_group_IT_number 74
_symmetry_cell_setting 'orthorhombic'
loop_
_space_group_symop_operation_xyz
x,y,z
-x,1/2-y,z
x,-y,-z
-x,1/2+y,-z
-x,-y,-z
x,1/2+y,-z
-x,y,z
x,1/2-y,z
1/2+x,1/2+y,1/2+z
1/2-x,-y,1/2+z
1/2+x,1/2-y,1/2-z
1/2-x,y,1/2-z
1/2-x,1/2-y,1/2-z
1/2+x,y,1/2-z
1/2-x,1/2+y,1/2+z
1/2+x,-y,1/2+z
loop_
_atom_site_type_symbol
_atom_site_label
_atom_site_fract_x
_atom_site_fract_y
_atom_site_fract_z
Si Si1 0.675338 0.391969 0.464736
Si Si2 0.167069 0.806142 0.175968
Si Si3 0.831546 0.536895 0.431101
Si Si4 0.823629 0.695822 0.481711
Si Si5 0.175924 0.036017 0.170101
O O1 0.500000 0.387495 0.477413
O O2 0.744997 0.416339 0.540584
O O3 0.747985 0.339461 0.456244
O O4 0.713919 0.421376 0.388412
O O5 0.155425 0.750000 0.186540
O O6 0.250000 0.828580 0.250000
O O7 0.262576 0.818987 0.101401
O O8 0.000000 0.827868 0.168768
O O9 0.833492 0.500000 0.500000
O O10 0.745253 0.513670 0.359332
O O11 0.000000 0.550442 0.406055
O O12 0.778959 0.750000 0.502728
O O13 0.000000 0.688962 0.482404
O O14 0.250000 0.050664 0.250000
O O15 0.000000 0.028941 0.180052
#
# Coordination Sequence:
#
# PCOD8299622 Si02
#       5
#    16  16  16  16  16
#     4  10  20  34  53  77 105 137 173 213 257 306
#     4   9  16  27  44  65  90 121 158 201 248 296
#     4   9  17  31  52  76 102 132 164 200 246 301
#     4  10  20  33  50  73 101 136 179 222 262 307
#     4  10  20  34  54  80 108 137 170 209 255 309
#
# _framework density 18.288170999999998
#
# number of rings (size 3 to 8) (size 9 to 14) (size 15 to 20)
#    0.000    2.400    0.000    3.000    0.000    8.400 
#    0.000    1.000    0.000    0.600    0.000    0.000 
#    0.000    0.000    0.000    0.000    0.000    0.000 
#
# Total GULP energy -495996.580582 kJ/mol
# GULP energy per Si atom -12399.914515 kJ/mol
# Density = 1.824655 g / cm^3
# Si number density = 18.288171 Si / 1000 Ang^3
#
#
#
# Elastic Constant Matrix: (Units=GPa)
#
#
# Indices 1 2 3 4 5 6 
#
# 1 133.4920 59.1456 56.6341 -0.0001 0.0000 0.0000
# 2 59.1456 97.0550 46.4415 -0.0001 0.0000 0.0000
# 3 56.6341 46.4415 87.6890 -0.0006 0.0000 0.0000
# 4 -0.0001 -0.0001 -0.0006 17.4820 0.0000 0.0000
# 5 0.0000 0.0000 0.0000 0.0000 32.0910 0.0000
# 6 0.0000 0.0000 0.0000 0.0000 0.0000 31.1727
#
#
#
# Elastic Compliance Matrix: (Units=1/GPa)
#
#
# Indices 1 2 3 4 5 6 
#
# 1 0.011739 -0.004723 -0.005080 0.000000 0.000000 0.000000
# 2 -0.004723 0.015701 -0.005265 0.000000 0.000000 0.000000
# 3 -0.005080 -0.005265 0.017474 0.000001 0.000000 0.000000
# 4 0.000000 0.000000 0.000001 0.057202 0.000000 0.000000
# 5 0.000000 0.000000 0.000000 0.000000 0.031161 0.000000
# 6 0.000000 0.000000 0.000000 0.000000 0.000000 0.032079
#
#
# Mechanical properties :
#
#
# Convention : Reuss Voigt Hill
#
# Bulk Modulus (GPa) = 67.67379 71.40873 69.54126
# Shear Modulus (GPa) = 24.94780 26.55012 25.74896
#
# Velocity S-wave (km/s) = 3.69745 3.81434 3.75635
# Velocity P-wave (km/s) = 7.43724 7.65049 7.54462
#
# Compressibility (1/GPa) = 0.01477677
#
# Stress axis : x y z
#
# Youngs Moduli (GPa) = 85.18673 63.69037 57.22897
#
# Poissons Ratio (x) = 0.30079 0.29074
# Poissons Ratio (y) = 0.40232 0.30133
# Poissons Ratio (z) = 0.43278 0.33535
#
# Static dielectric constant tensor:
#      x y z
#    x 3.579370 0.000000 0.000000 
#    y 0.000000 3.314480 0.000000 
#    z 0.000000 0.000000 3.167260 
# 
# 
# High freq. dielectric constant tensor:
#      x y z
#    x 1.730250 0.000000 0.000000 
#    y 0.000000 1.692810 0.000000 
#    z 0.000000 0.000000 1.681570 
# 
# From -- ./inp_files/39703.got.cif
#   From: 2010.03.12/outbox.cif.g09.slc.cpg/sg74_20_cif.got.tgz:39703.got - 2010.04.16 15:46:19.
