data_PCOD8299638
_publ_section_title
;
Structure prediction by ZEFSAII (Michael W. Deem and Ramdas Pophale) SiO2 
 PCOD8299638
Probable space group: I M M A
;
_chemical_formula_sum "Si O2"
_cell_formula_units_Z 80
_cell_length_a 8.942901
_cell_length_b 17.664283
_cell_length_c 27.575271
_cell_angle_alpha 90.000000
_cell_angle_beta 90.000000
_cell_angle_gamma 90.000000
_cell_volume 4356.063743
_symmetry_space_group_name_H-M "I M M A"
_symmetry_group_IT_number 74
_symmetry_cell_setting 'orthorhombic'
loop_
_space_group_symop_operation_xyz
x,y,z
-x,1/2-y,z
x,-y,-z
-x,1/2+y,-z
-x,-y,-z
x,1/2+y,-z
-x,y,z
x,1/2-y,z
1/2+x,1/2+y,1/2+z
1/2-x,-y,1/2+z
1/2+x,1/2-y,1/2-z
1/2-x,y,1/2-z
1/2-x,1/2-y,1/2-z
1/2+x,y,1/2-z
1/2-x,1/2+y,1/2+z
1/2+x,-y,1/2+z
loop_
_atom_site_type_symbol
_atom_site_label
_atom_site_fract_x
_atom_site_fract_y
_atom_site_fract_z
Si Si1 0.324495 0.028359 0.798935
Si Si2 0.171247 0.448588 0.397039
Si Si3 0.327086 0.161896 0.462770
Si Si4 0.826755 0.390783 0.559082
Si Si5 0.828125 0.335929 0.848101
O O1 0.500000 0.036477 0.791537
O O2 0.250000 0.996840 0.750000
O O3 0.262227 0.111475 0.811144
O O4 0.285673 0.970222 0.842013
O O5 0.278499 0.380644 0.413589
O O6 0.198116 0.520377 0.431827
O O7 0.000000 0.421601 0.400097
O O8 0.500000 0.146113 0.474032
O O9 0.294951 0.250000 0.455319
O O10 0.227112 0.129070 0.505700
O O11 0.734275 0.341647 0.597422
O O12 0.000000 0.369350 0.564913
O O13 0.810838 0.250000 0.830014
O O14 0.000000 0.361757 0.848527
#
# Coordination Sequence:
#
# PCOD8299638 Si02
#       5
#    16  16  16  16  16
#     4  10  21  37  57  79 102 131 171 216 262 313
#     4   9  20  37  55  77 103 133 172 214 255 304
#     4  11  23  35  50  77 109 139 173 212 255 305
#     4  10  20  34  53  77 106 141 179 214 251 301
#     4  10  20  33  50  75 108 143 178 215 254 299
#
# _framework density 18.365203999999999
#
# number of rings (size 3 to 8) (size 9 to 14) (size 15 to 20)
#    0.000    2.000    0.000    4.800    0.000   13.200 
#    0.000    0.000    0.000    0.600    0.000    0.000 
#    0.000    0.000    0.000    0.000    0.000    0.000 
#
# Total GULP energy -496171.372748 kJ/mol
# GULP energy per Si atom -12404.284319 kJ/mol
# Density = 1.832340 g / cm^3
# Si number density = 18.365204 Si / 1000 Ang^3
#
#
#
# Elastic Constant Matrix: (Units=GPa)
#
#
# Indices 1 2 3 4 5 6 
#
# 1 100.7448 46.9496 50.0649 0.0000 0.0000 0.0000
# 2 46.9496 75.3625 50.7923 0.0000 0.0000 0.0000
# 3 50.0649 50.7923 111.0303 0.0000 0.0000 0.0000
# 4 0.0000 0.0000 0.0000 12.3840 0.0000 0.0000
# 5 0.0000 0.0000 0.0000 0.0000 36.7006 0.0000
# 6 0.0000 0.0000 0.0000 0.0000 0.0000 30.1921
#
#
#
# Elastic Compliance Matrix: (Units=1/GPa)
#
#
# Indices 1 2 3 4 5 6 
#
# 1 0.014908 -0.006877 -0.003576 0.000000 0.000000 0.000000
# 2 -0.006877 0.022357 -0.007126 0.000000 0.000000 0.000000
# 3 -0.003576 -0.007126 0.013879 0.000000 0.000000 0.000000
# 4 0.000000 0.000000 0.000000 0.080750 0.000000 0.000000
# 5 0.000000 0.000000 0.000000 0.000000 0.027248 0.000000
# 6 0.000000 0.000000 0.000000 0.000000 0.000000 0.033121
#
#
# Mechanical properties :
#
#
# Convention : Reuss Voigt Hill
#
# Bulk Modulus (GPa) = 62.56105 64.75014 63.65560
# Shear Modulus (GPa) = 21.48228 25.14405 23.31317
#
# Velocity S-wave (km/s) = 3.42384 3.70417 3.56676
# Velocity P-wave (km/s) = 7.05473 7.32311 7.19017
#
# Compressibility (1/GPa) = 0.01598439
#
# Stress axis : x y z
#
# Youngs Moduli (GPa) = 67.07690 44.72955 72.05090
#
# Poissons Ratio (x) = 0.30762 0.25767
# Poissons Ratio (y) = 0.46131 0.51345
# Poissons Ratio (z) = 0.23988 0.31875
#
# Static dielectric constant tensor:
#      x y z
#    x 3.501020 0.000000 0.000000 
#    y 0.000000 3.229510 0.000000 
#    z 0.000000 0.000000 3.360220 
# 
# 
# High freq. dielectric constant tensor:
#      x y z
#    x 1.727180 0.000000 0.000000 
#    y 0.000000 1.693850 0.000000 
#    z 0.000000 0.000000 1.706550 
# 
# From -- ./inp_files/63904.got.cif
#   From: 2010.03.12/outbox.cif.g09.slc.cpg/sg74_32_cif.got.tgz:63904.got - 2010.04.16 15:46:19.
