data_PCOD8299745
_publ_section_title
;
Structure prediction by ZEFSAII (Michael W. Deem and Ramdas Pophale) SiO2 
 PCOD8299745
Probable space group: I M M A
;
_chemical_formula_sum "Si O2"
_cell_formula_units_Z 112
_cell_length_a 14.344001
_cell_length_b 26.450031
_cell_length_c 13.929067
_cell_angle_alpha 90.000000
_cell_angle_beta 90.000000
_cell_angle_gamma 90.000000
_cell_volume 5284.677867
_symmetry_space_group_name_H-M "I M M A"
_symmetry_group_IT_number 74
_symmetry_cell_setting 'orthorhombic'
loop_
_space_group_symop_operation_xyz
x,y,z
-x,1/2-y,z
x,-y,-z
-x,1/2+y,-z
-x,-y,-z
x,1/2+y,-z
-x,y,z
x,1/2-y,z
1/2+x,1/2+y,1/2+z
1/2-x,-y,1/2+z
1/2+x,1/2-y,1/2-z
1/2-x,y,1/2-z
1/2-x,1/2-y,1/2-z
1/2+x,y,1/2-z
1/2-x,1/2+y,1/2+z
1/2+x,-y,1/2+z
loop_
_atom_site_type_symbol
_atom_site_label
_atom_site_fract_x
_atom_site_fract_y
_atom_site_fract_z
Si Si1 0.341552 0.692029 0.310493
Si Si2 0.100218 0.623210 0.335081
Si Si3 0.112367 0.016814 0.738695
Si Si4 0.253128 0.862124 0.636979
Si Si5 0.603362 0.308983 0.481884
Si Si6 0.754033 0.975782 0.896648
Si Si7 0.389107 0.691093 0.991691
O O1 0.369346 0.750000 0.296334
O O2 0.250000 0.676811 0.250000
O O3 0.418661 0.657874 0.258839
O O4 0.336030 0.678380 0.422811
O O5 0.149429 0.571587 0.299825
O O6 0.148571 0.657477 0.418140
O O7 0.000000 0.606726 0.376535
O O8 0.000000 0.012374 0.747593
O O9 0.160261 0.002929 0.840434
O O10 0.155147 0.978966 0.659791
O O11 0.250000 0.868158 0.750000
O O12 0.345114 0.830906 0.610145
O O13 0.268552 0.916383 0.588213
O O14 0.161112 0.832112 0.601558
O O15 0.500000 0.332670 0.491586
O O16 0.594608 0.250000 0.466604
O O17 0.744695 0.000000 0.000000
O O18 0.500000 0.687739 0.977814
O O19 0.359109 0.750000 0.007896
#
# Coordination Sequence:
#
# PCOD8299745 Si02
#       7
#    16  16  16  16  16  16  16
#     4  10  20  33  56  92 131 172 211 254 313 384
#     4  10  20  35  61  93 126 167 204 253 324 391
#     4  10  23  43  65  98 132 168 222 276 332 395
#     4  12  25  44  64  93 121 171 226 271 331 387
#     4  10  23  41  61  90 129 172 217 267 325 391
#     4  11  25  45  68  96 130 175 217 279 336 386
#     4  10  22  40  65  99 134 168 213 269 329 401
#
# _framework density 21.193345000000001
#
# number of rings (size 3 to 8) (size 9 to 14) (size 15 to 20)
#    0.000    1.571    1.429    3.000    4.000    6.000 
#    0.000    1.429    0.000    0.000    0.000    0.000 
#    0.000    0.000    0.000    0.000    0.000    0.000 
#
# Total GULP energy -693976.537342 kJ/mol
# GULP energy per Si atom -12392.438167 kJ/mol
# Density = 2.114511 g / cm^3
# Si number density = 21.193345 Si / 1000 Ang^3
#
#
#
# Elastic Constant Matrix: (Units=GPa)
#
#
# Indices 1 2 3 4 5 6 
#
# 1 103.9033 35.4085 25.2647 0.0000 0.0000 0.0000
# 2 35.4085 72.2946 28.3093 0.0001 0.0000 0.0000
# 3 25.2647 28.3093 89.4120 0.0001 0.0001 0.0000
# 4 0.0000 0.0001 0.0001 40.8389 0.0000 0.0000
# 5 0.0000 0.0000 0.0001 0.0000 25.7186 0.0000
# 6 0.0000 0.0000 0.0000 0.0000 0.0000 25.4658
#
#
#
# Elastic Compliance Matrix: (Units=1/GPa)
#
#
# Indices 1 2 3 4 5 6 
#
# 1 0.011778 -0.005098 -0.001714 0.000000 0.000000 0.000000
# 2 -0.005098 0.017996 -0.004257 0.000000 0.000000 0.000000
# 3 -0.001714 -0.004257 0.013017 0.000000 0.000000 0.000000
# 4 0.000000 0.000000 0.000000 0.024486 0.000000 0.000000
# 5 0.000000 0.000000 0.000000 0.000000 0.038882 0.000000
# 6 0.000000 0.000000 0.000000 0.000000 0.000000 0.039268
#
#
# Mechanical properties :
#
#
# Convention : Reuss Voigt Hill
#
# Bulk Modulus (GPa) = 48.42011 49.28609 48.85310
# Shear Modulus (GPa) = 28.66141 30.17984 29.42062
#
# Velocity S-wave (km/s) = 3.68146 3.77772 3.72990
# Velocity P-wave (km/s) = 6.40057 6.50647 6.45374
#
# Compressibility (1/GPa) = 0.02065257
#
# Stress axis : x y z
#
# Youngs Moduli (GPa) = 84.90191 55.56755 76.82533
#
# Poissons Ratio (x) = 0.28326 0.13169
# Poissons Ratio (y) = 0.43279 0.32708
# Poissons Ratio (z) = 0.14554 0.23658
#
# Static dielectric constant tensor:
#      x y z
#    x 3.845960 0.000000 0.000000 
#    y 0.000000 3.953210 0.000000 
#    z 0.000000 0.000000 3.749760 
# 
# 
# High freq. dielectric constant tensor:
#      x y z
#    x 1.834180 0.000000 0.000000 
#    y 0.000000 1.836710 0.000000 
#    z 0.000000 0.000000 1.823770 
# 
# From -- ./inp_files/32755.got.cif
#   From: 2010.03.12/outbox.cif.g09.slc.cpg/sg74_17_cif.got.tgz:32755.got - 2010.04.16 15:46:19.
