data_PCOD8299841
_publ_section_title
;
Structure prediction by ZEFSAII (Michael W. Deem and Ramdas Pophale) SiO2 
 PCOD8299841
Probable space group: I M M A
;
_chemical_formula_sum "Si O2"
_cell_formula_units_Z 48
_cell_length_a 7.985657
_cell_length_b 7.695376
_cell_length_c 38.023891
_cell_angle_alpha 90.000000
_cell_angle_beta 90.000000
_cell_angle_gamma 90.000000
_cell_volume 2336.668227
_symmetry_space_group_name_H-M "I M M A"
_symmetry_group_IT_number 74
_symmetry_cell_setting 'orthorhombic'
loop_
_space_group_symop_operation_xyz
x,y,z
-x,1/2-y,z
x,-y,-z
-x,1/2+y,-z
-x,-y,-z
x,1/2+y,-z
-x,y,z
x,1/2-y,z
1/2+x,1/2+y,1/2+z
1/2-x,-y,1/2+z
1/2+x,1/2-y,1/2-z
1/2-x,y,1/2-z
1/2-x,1/2-y,1/2-z
1/2+x,y,1/2-z
1/2-x,1/2+y,1/2+z
1/2+x,-y,1/2+z
loop_
_atom_site_type_symbol
_atom_site_label
_atom_site_fract_x
_atom_site_fract_y
_atom_site_fract_z
Si Si1 0.500000 0.454190 0.459506
Si Si2 0.695856 0.440412 0.162160
Si Si3 0.194466 0.250000 0.789874
Si Si4 0.187637 0.043687 0.415844
O O1 0.500000 0.250000 0.453275
O O2 0.500000 0.500000 0.500000
O O3 0.670603 0.532294 0.442223
O O4 0.500000 0.415096 0.161777
O O5 0.778114 0.250000 0.169975
O O6 0.741875 0.575842 0.191998
O O7 0.747875 0.509439 0.123453
O O8 0.250000 0.250000 0.750000
O O9 0.000000 0.250000 0.792646
O O10 0.177946 0.250000 0.418463
O O11 0.000000 0.968529 0.424497
#
# Coordination Sequence:
#
# PCOD8299841 Si02
#       4
#     8  16   8  16
#     4  10  20  34  52  78 114 150 186 244 296 354
#     4   9  19  39  65  88 113 152 202 253 302 359
#     4  12  26  40  58  88 126 162 194 248 306 364
#     4   8  16  33  57  80 106 147 195 241 293 351
#
# _framework density 20.542069000000001
#
# number of rings (size 3 to 8) (size 9 to 14) (size 15 to 20)
#    0.000    2.667    0.000    3.500    2.333    2.000 
#    3.000    0.000    0.000    0.000    0.000    0.000 
#    0.000    0.000    0.000    0.000    0.000    0.000 
#
# Total GULP energy -297400.280085 kJ/mol
# GULP energy per Si atom -12391.678337 kJ/mol
# Density = 2.049531 g / cm^3
# Si number density = 20.542069 Si / 1000 Ang^3
#
#
#
# Elastic Constant Matrix: (Units=GPa)
#
#
# Indices 1 2 3 4 5 6 
#
# 1 84.5131 25.1992 69.6418 0.0000 0.0000 0.0000
# 2 25.1992 74.0694 53.8995 0.0000 0.0000 0.0000
# 3 69.6418 53.8995 183.3015 0.0000 0.0000 0.0000
# 4 0.0000 0.0000 0.0000 31.7754 0.0000 0.0000
# 5 0.0000 0.0000 0.0000 0.0000 40.2962 0.0000
# 6 0.0000 0.0000 0.0000 0.0000 0.0000 16.4602
#
#
#
# Elastic Compliance Matrix: (Units=1/GPa)
#
#
# Indices 1 2 3 4 5 6 
#
# 1 0.017340 -0.001406 -0.006174 0.000000 0.000000 0.000000
# 2 -0.001406 0.017290 -0.004550 0.000000 0.000000 0.000000
# 3 -0.006174 -0.004550 0.009139 0.000000 0.000000 0.000000
# 4 0.000000 0.000000 0.000000 0.031471 0.000000 0.000000
# 5 0.000000 0.000000 0.000000 0.000000 0.024816 0.000000
# 6 0.000000 0.000000 0.000000 0.000000 0.000000 0.060753
#
#
# Mechanical properties :
#
#
# Convention : Reuss Voigt Hill
#
# Bulk Modulus (GPa) = 51.26046 71.04056 61.15051
# Shear Modulus (GPa) = 26.09978 30.58259 28.34118
#
# Velocity S-wave (km/s) = 3.56835 3.86265 3.71841
# Velocity P-wave (km/s) = 6.47963 7.38590 6.94756
#
# Compressibility (1/GPa) = 0.01950822
#
# Stress axis : x y z
#
# Youngs Moduli (GPa) = 57.67119 57.83642 109.41831
#
# Poissons Ratio (x) = 0.08132 0.67559
# Poissons Ratio (y) = 0.08109 0.49784
# Poissons Ratio (z) = 0.35609 0.26315
#
# Static dielectric constant tensor:
#      x y z
#    x 4.449360 0.000000 0.000000 
#    y 0.000000 3.385410 0.000000 
#    z 0.000000 0.000000 3.893120 
# 
# 
# High freq. dielectric constant tensor:
#      x y z
#    x 1.810110 0.000000 0.000000 
#    y 0.000000 1.784880 0.000000 
#    z 0.000000 0.000000 1.796050 
# 
# From -- ./inp_files/69531.got.cif
#   From: 2010.03.12/outbox.cif.g09.slc.cpg/sg74_35_cif.got.tgz:69531.got - 2010.04.16 15:46:19.
