data_PCOD8299158
_publ_section_title
;
Structure prediction by ZEFSAII (Michael W. Deem and Ramdas Pophale) SiO2 
 PCOD8299158
Probable space group: I M M A
;
_chemical_formula_sum "Si O2"
_cell_formula_units_Z 88
_cell_length_a 31.044234
_cell_length_b 19.567777
_cell_length_c 6.724638
_cell_angle_alpha 90.000000
_cell_angle_beta 90.000000
_cell_angle_gamma 90.000000
_cell_volume 4084.993305
_symmetry_space_group_name_H-M "I M M A"
_symmetry_group_IT_number 74
_symmetry_cell_setting 'orthorhombic'
loop_
_space_group_symop_operation_xyz
x,y,z
-x,1/2-y,z
x,-y,-z
-x,1/2+y,-z
-x,-y,-z
x,1/2+y,-z
-x,y,z
x,1/2-y,z
1/2+x,1/2+y,1/2+z
1/2-x,-y,1/2+z
1/2+x,1/2-y,1/2-z
1/2-x,y,1/2-z
1/2-x,1/2-y,1/2-z
1/2+x,y,1/2-z
1/2-x,1/2+y,1/2+z
1/2+x,-y,1/2+z
loop_
_atom_site_type_symbol
_atom_site_label
_atom_site_fract_x
_atom_site_fract_y
_atom_site_fract_z
Si Si1 0.709221 0.571395 0.886571
Si Si2 0.860219 0.888090 0.918079
Si Si3 0.000000 0.168898 0.554602
Si Si4 0.667883 0.168855 0.818843
Si Si5 0.073762 0.000000 0.000000
Si Si6 0.500000 0.529427 0.215921
Si Si7 0.408714 0.826811 0.921531
O O1 0.750000 0.587582 0.750000
O O2 0.668905 0.568720 0.735412
O O3 0.713669 0.500000 0.000000
O O4 0.705160 0.630864 0.053915
O O5 0.895611 0.935188 0.018030
O O6 0.887379 0.832080 0.795314
O O7 0.831020 0.852021 0.086676
O O8 0.042024 0.146907 0.425824
O O9 0.000000 0.250000 0.620819
O O10 0.000000 0.113378 0.734895
O O11 0.675129 0.250000 0.841888
O O12 0.622563 0.140935 0.910133
O O13 0.043281 0.001522 0.190958
O O14 0.500000 0.500000 0.000000
O O15 0.411761 0.750000 0.988430
#
# Coordination Sequence:
#
# PCOD8299158 Si02
#       7
#    16  16   8  16   8   8  16
#     4  11  27  44  69  95 129 164 209 267 328 394
#     4  11  22  40  63  91 124 165 212 262 320 391
#     4  10  19  34  59  87 123 171 220 269 326 373
#     4  10  22  42  68  98 130 171 215 266 328 393
#     4  11  24  36  60  92 120 166 222 256 322 387
#     4  11  23  40  58  85 129 168 212 278 323 380
#     4   9  19  36  58  88 125 166 212 261 315 375
#
# _framework density 21.542263999999999
#
# number of rings (size 3 to 8) (size 9 to 14) (size 15 to 20)
#    0.000    1.636    0.000    3.818    3.818    5.455 
#    0.000    2.727    0.000    5.455    0.000    0.000 
#    0.000    0.000    0.000    0.000    0.000    0.000 
#
# Total GULP energy -545219.877172 kJ/mol
# GULP energy per Si atom -12391.360845 kJ/mol
# Density = 2.149323 g / cm^3
# Si number density = 21.542264 Si / 1000 Ang^3
#
#
#
# Elastic Constant Matrix: (Units=GPa)
#
#
# Indices 1 2 3 4 5 6 
#
# 1 97.1751 29.4982 34.7211 0.0000 0.0000 0.0000
# 2 29.4982 102.9728 41.4503 0.0000 0.0000 0.0000
# 3 34.7211 41.4503 125.3371 0.0000 0.0000 0.0000
# 4 0.0000 0.0000 0.0000 36.6465 0.0000 0.0000
# 5 0.0000 0.0000 0.0000 0.0000 -10.6654 0.0000
# 6 0.0000 0.0000 0.0000 0.0000 0.0000 24.9779
#
#
#
# Elastic Compliance Matrix: (Units=1/GPa)
#
#
# Indices 1 2 3 4 5 6 
#
# 1 0.011916 -0.002405 -0.002506 0.000000 0.000000 0.000000
# 2 -0.002405 0.011688 -0.003199 0.000000 0.000000 0.000000
# 3 -0.002506 -0.003199 0.009731 0.000000 0.000000 0.000000
# 4 0.000000 0.000000 0.000000 0.027288 0.000000 0.000000
# 5 0.000000 0.000000 0.000000 0.000000 -0.093761 0.000000
# 6 0.000000 0.000000 0.000000 0.000000 0.000000 0.040035
#
#
# Mechanical properties :
#
#
# Convention : Reuss Voigt Hill
#
# Bulk Modulus (GPa) = 58.42762 59.64712 59.03737
# Shear Modulus (GPa) = 173.48327 24.84615 99.16471
#
# Velocity S-wave (km/s) = 8.98367 3.39981 6.79210
# Velocity P-wave (km/s) = 11.60990 6.56964 9.43265
#
# Compressibility (1/GPa) = 0.01711519
#
# Stress axis : x y z
#
# Youngs Moduli (GPa) = 83.92064 85.55783 102.76856
#
# Poissons Ratio (x) = 0.20576 0.25750
# Poissons Ratio (y) = 0.20182 0.32877
# Poissons Ratio (z) = 0.21028 0.27371
#
# Static dielectric constant tensor:
#      x y z
#    x 4.279700 0.000000 0.000000 
#    y 0.000000 3.913600 0.000000 
#    z 0.000000 0.000000 3.941150 
# 
# 
# High freq. dielectric constant tensor:
#      x y z
#    x 1.853090 0.000000 0.000000 
#    y 0.000000 1.842040 0.000000 
#    z 0.000000 0.000000 1.842900 
# 
# From -- ./inp_files/5160.got.cif
#   From: 2010.03.12/outbox.cif.g09.slc.cpg/sg74_3_cif.got.tgz:5160.got - 2010.04.16 15:46:19.
