data_PCOD8299299
_publ_section_title
;
Structure prediction by ZEFSAII (Michael W. Deem and Ramdas Pophale) SiO2 
 PCOD8299299
Probable space group: I M M A
;
_chemical_formula_sum "Si O2"
_cell_formula_units_Z 96
_cell_length_a 22.118536
_cell_length_b 14.847405
_cell_length_c 14.831253
_cell_angle_alpha 90.000000
_cell_angle_beta 90.000000
_cell_angle_gamma 90.000000
_cell_volume 4870.625932
_symmetry_space_group_name_H-M "I M M A"
_symmetry_group_IT_number 74
_symmetry_cell_setting 'orthorhombic'
loop_
_space_group_symop_operation_xyz
x,y,z
-x,1/2-y,z
x,-y,-z
-x,1/2+y,-z
-x,-y,-z
x,1/2+y,-z
-x,y,z
x,1/2-y,z
1/2+x,1/2+y,1/2+z
1/2-x,-y,1/2+z
1/2+x,1/2-y,1/2-z
1/2-x,y,1/2-z
1/2-x,1/2-y,1/2-z
1/2+x,y,1/2-z
1/2-x,1/2+y,1/2+z
1/2+x,-y,1/2+z
loop_
_atom_site_type_symbol
_atom_site_label
_atom_site_fract_x
_atom_site_fract_y
_atom_site_fract_z
Si Si1 0.261097 0.646978 0.149135
Si Si2 0.372642 0.852183 0.397194
Si Si3 0.118353 0.645437 0.901406
Si Si4 0.649797 0.503782 0.901035
Si Si5 0.930203 0.500379 0.772757
Si Si6 0.248030 0.852652 0.643654
O O1 0.283049 0.750000 0.149280
O O2 0.250000 0.611737 0.250000
O O3 0.199427 0.634125 0.093116
O O4 0.314357 0.589309 0.107302
O O5 0.386450 0.750000 0.366944
O O6 0.401865 0.871984 0.495201
O O7 0.400419 0.915559 0.321779
O O8 0.111738 0.750000 0.874606
O O9 0.076456 0.589003 0.834314
O O10 0.187452 0.613232 0.892184
O O11 0.599478 0.515584 0.824606
O O12 0.695768 0.587210 0.898321
O O13 0.618725 0.500000 0.000000
O O14 0.000000 0.479948 0.756837
O O15 0.235587 0.750000 0.613560
O O16 0.250000 0.863118 0.750000
#
# Coordination Sequence:
#
# PCOD8299299 Si02
#       6
#    16  16  16  16  16  16
#     4  10  19  36  63  92 121 150 181 228 297 361
#     4  10  21  38  62  92 121 147 181 233 297 360
#     4  10  21  38  62  92 121 147 181 233 297 360
#     4  12  24  38  60  87 117 156 198 240 287 339
#     4  12  26  42  58  79 113 159 207 247 280 325
#     4  10  19  36  63  92 121 150 181 228 297 361
#
# _framework density 19.709992
#
# number of rings (size 3 to 8) (size 9 to 14) (size 15 to 20)
#    0.000    1.333    3.333    3.000    0.000    4.333 
#    0.000    1.667    0.000    0.000    0.000    4.667 
#    0.000    0.000    0.000    0.000    0.000    0.000 
#
# Total GULP energy -595341.159044 kJ/mol
# GULP energy per Si atom -12402.940813 kJ/mol
# Density = 1.966513 g / cm^3
# Si number density = 19.709992 Si / 1000 Ang^3
#
#
#
# Elastic Constant Matrix: (Units=GPa)
#
#
# Indices 1 2 3 4 5 6 
#
# 1 52.4943 15.8057 11.8298 0.0000 0.0000 0.0000
# 2 15.8057 74.1325 20.2149 0.0000 0.0000 0.0000
# 3 11.8298 20.2149 105.8307 0.0000 0.0000 0.0000
# 4 0.0000 0.0000 0.0000 15.5585 0.0000 0.0000
# 5 0.0000 0.0000 0.0000 0.0000 7.6698 0.0000
# 6 0.0000 0.0000 0.0000 0.0000 0.0000 10.1382
#
#
#
# Elastic Compliance Matrix: (Units=1/GPa)
#
#
# Indices 1 2 3 4 5 6 
#
# 1 0.020593 -0.003970 -0.001544 0.000000 0.000000 0.000000
# 2 -0.003970 0.014996 -0.002421 0.000000 0.000000 0.000000
# 3 -0.001544 -0.002421 0.010084 0.000000 0.000000 0.000000
# 4 0.000000 0.000000 0.000000 0.064274 0.000000 0.000000
# 5 0.000000 0.000000 0.000000 0.000000 0.130382 0.000000
# 6 0.000000 0.000000 0.000000 0.000000 0.000000 0.098637
#
#
# Mechanical properties :
#
#
# Convention : Reuss Voigt Hill
#
# Bulk Modulus (GPa) = 33.55171 36.46203 35.00687
# Shear Modulus (GPa) = 13.70735 18.98043 16.34389
#
# Velocity S-wave (km/s) = 2.64000 3.10657 2.88274
# Velocity P-wave (km/s) = 5.13347 5.60420 5.37399
#
# Compressibility (1/GPa) = 0.02980474
#
# Stress axis : x y z
#
# Youngs Moduli (GPa) = 48.56074 66.68530 99.16727
#
# Poissons Ratio (x) = 0.26472 0.15308
# Poissons Ratio (y) = 0.19277 0.24005
# Poissons Ratio (z) = 0.07496 0.16142
#
# Static dielectric constant tensor:
#      x y z
#    x 3.265400 0.000000 0.000000 
#    y 0.000000 3.701570 0.000000 
#    z 0.000000 0.000000 3.805450 
# 
# 
# High freq. dielectric constant tensor:
#      x y z
#    x 1.729140 0.000000 0.000000 
#    y 0.000000 1.780820 0.000000 
#    z 0.000000 0.000000 1.779770 
# 
# From -- ./inp_files/32381.got.cif
#   From: 2010.03.12/outbox.cif.g09.slc.cpg/sg74_17_cif.got.tgz:32381.got - 2010.04.16 15:46:19.
