data_PCOD8299850
_publ_section_title
;
Structure prediction by ZEFSAII (Michael W. Deem and Ramdas Pophale) SiO2 
 PCOD8299850
Probable space group: I M M A
;
_chemical_formula_sum "Si O2"
_cell_formula_units_Z 96
_cell_length_a 17.920273
_cell_length_b 23.195392
_cell_length_c 12.637662
_cell_angle_alpha 90.000000
_cell_angle_beta 90.000000
_cell_angle_gamma 90.000000
_cell_volume 5253.068617
_symmetry_space_group_name_H-M "I M M A"
_symmetry_group_IT_number 74
_symmetry_cell_setting 'orthorhombic'
loop_
_space_group_symop_operation_xyz
x,y,z
-x,1/2-y,z
x,-y,-z
-x,1/2+y,-z
-x,-y,-z
x,1/2+y,-z
-x,y,z
x,1/2-y,z
1/2+x,1/2+y,1/2+z
1/2-x,-y,1/2+z
1/2+x,1/2-y,1/2-z
1/2-x,y,1/2-z
1/2-x,1/2-y,1/2-z
1/2+x,y,1/2-z
1/2-x,1/2+y,1/2+z
1/2+x,-y,1/2+z
loop_
_atom_site_type_symbol
_atom_site_label
_atom_site_fract_x
_atom_site_fract_y
_atom_site_fract_z
Si Si1 0.341408 0.129637 0.435974
Si Si2 0.086009 0.683921 0.353490
Si Si3 0.082109 0.981998 0.879930
Si Si4 0.588001 0.106616 0.658696
Si Si5 0.818274 0.817832 0.560259
Si Si6 0.918215 0.683689 0.750587
O O1 0.357755 0.069478 0.373020
O O2 0.372658 0.130681 0.554182
O O3 0.254382 0.142523 0.442469
O O4 0.382301 0.178140 0.366659
O O5 0.095924 0.750000 0.318028
O O6 0.115206 0.644341 0.257717
O O7 0.134695 0.669702 0.455462
O O8 0.000000 0.670504 0.381166
O O9 0.000000 0.961788 0.838283
O O10 0.109406 0.039562 0.817858
O O11 0.072662 0.000000 0.000000
O O12 0.500000 0.112652 0.640099
O O13 0.797739 0.750000 0.570735
O O14 0.864864 0.842012 0.659853
O O15 0.928029 0.750000 0.723437
O O16 0.000000 0.653905 0.746834
#
# Coordination Sequence:
#
# PCOD8299850 Si02
#       6
#    16  16  16  16  16  16
#     4  11  19  30  52  78 106 133 169 218 273 317
#     4   9  18  34  56  79 105 143 183 214 254 316
#     4   8  15  30  52  74  98 134 173 208 256 315
#     4   9  18  33  55  80 105 135 175 221 261 307
#     4  10  21  35  51  73 108 146 176 209 259 323
#     4  10  20  34  53  75 100 134 177 219 258 310
#
# _framework density 18.275033000000001
#
# number of rings (size 3 to 8) (size 9 to 14) (size 15 to 20)
#    0.000    2.500    0.000    4.000    0.000    5.333 
#    0.000    3.333   22.000    0.000    0.000    4.667 
#    0.000    0.000    0.000    0.000    0.000    0.000 
#
# Total GULP energy -594976.298905 kJ/mol
# GULP energy per Si atom -12395.339561 kJ/mol
# Density = 1.823344 g / cm^3
# Si number density = 18.275033 Si / 1000 Ang^3
#
#
#
# Elastic Constant Matrix: (Units=GPa)
#
#
# Indices 1 2 3 4 5 6 
#
# 1 117.9606 50.2295 61.7101 0.0000 0.0000 0.0000
# 2 50.2295 80.3045 46.6907 0.0000 0.0000 0.0000
# 3 61.7101 46.6907 100.6957 0.0000 0.0000 0.0000
# 4 0.0000 0.0000 0.0000 10.2055 0.0000 0.0000
# 5 0.0000 0.0000 0.0000 0.0000 21.1170 0.0000
# 6 0.0000 0.0000 0.0000 0.0000 0.0000 21.6941
#
#
#
# Elastic Compliance Matrix: (Units=1/GPa)
#
#
# Indices 1 2 3 4 5 6 
#
# 1 0.013855 -0.005106 -0.006123 0.000000 0.000000 0.000000
# 2 -0.005106 0.018930 -0.005649 0.000000 0.000000 0.000000
# 3 -0.006123 -0.005649 0.016303 0.000000 0.000000 0.000000
# 4 0.000000 0.000000 0.000000 0.097986 0.000000 0.000000
# 5 0.000000 0.000000 0.000000 0.000000 0.047355 0.000000
# 6 0.000000 0.000000 0.000000 0.000000 0.000000 0.046095
#
#
# Mechanical properties :
#
#
# Convention : Reuss Voigt Hill
#
# Bulk Modulus (GPa) = 65.22124 68.46905 66.84515
# Shear Modulus (GPa) = 17.89605 19.95869 18.92737
#
# Velocity S-wave (km/s) = 3.13271 3.30832 3.22171
# Velocity P-wave (km/s) = 6.98938 7.22084 7.10605
#
# Compressibility (1/GPa) = 0.01533243
#
# Stress axis : x y z
#
# Youngs Moduli (GPa) = 72.17645 52.82483 61.33952
#
# Poissons Ratio (x) = 0.26972 0.37560
# Poissons Ratio (y) = 0.36852 0.34649
# Poissons Ratio (z) = 0.44196 0.29839
#
# Static dielectric constant tensor:
#      x y z
#    x 3.368870 0.000000 0.000000 
#    y 0.000000 3.680600 0.000000 
#    z 0.000000 0.000000 3.296290 
# 
# 
# High freq. dielectric constant tensor:
#      x y z
#    x 1.703980 0.000000 0.000000 
#    y 0.000000 1.698340 0.000000 
#    z 0.000000 0.000000 1.699700 
# 
# From -- ./inp_files/22480.got.cif
#   From: 2010.03.12/outbox.cif.g09.slc.cpg/sg74_12_cif.got.tgz:22480.got - 2010.04.16 15:46:19.
