data_PCOD8299984
_publ_section_title
;
Structure prediction by ZEFSAII (Michael W. Deem and Ramdas Pophale) SiO2 
 PCOD8299984
Probable space group: I M M A
;
_chemical_formula_sum "Si O2"
_cell_formula_units_Z 80
_cell_length_a 29.455879
_cell_length_b 14.870854
_cell_length_c 8.680081
_cell_angle_alpha 90.000000
_cell_angle_beta 90.000000
_cell_angle_gamma 90.000000
_cell_volume 3802.171261
_symmetry_space_group_name_H-M "I M M A"
_symmetry_group_IT_number 74
_symmetry_cell_setting 'orthorhombic'
loop_
_space_group_symop_operation_xyz
x,y,z
-x,1/2-y,z
x,-y,-z
-x,1/2+y,-z
-x,-y,-z
x,1/2+y,-z
-x,y,z
x,1/2-y,z
1/2+x,1/2+y,1/2+z
1/2-x,-y,1/2+z
1/2+x,1/2-y,1/2-z
1/2-x,y,1/2-z
1/2-x,1/2-y,1/2-z
1/2+x,y,1/2-z
1/2-x,1/2+y,1/2+z
1/2+x,-y,1/2+z
loop_
_atom_site_type_symbol
_atom_site_label
_atom_site_fract_x
_atom_site_fract_y
_atom_site_fract_z
Si Si1 0.140791 0.643880 0.342070
Si Si2 0.550768 0.088681 0.399574
Si Si3 0.299273 0.496505 0.318544
Si Si4 0.632869 0.645254 0.798033
Si Si5 0.951191 0.848216 0.213752
O O1 0.146794 0.750000 0.300556
O O2 0.179468 0.586874 0.256301
O O3 0.141261 0.627012 0.522878
O O4 0.092377 0.602505 0.285669
O O5 0.500000 0.083230 0.329559
O O6 0.584238 0.107161 0.257487
O O7 0.554686 0.165624 0.529506
O O8 0.563270 0.000000 0.500000
O O9 0.295257 0.500000 0.500000
O O10 0.250000 0.482635 0.250000
O O11 0.327848 0.407107 0.288689
O O12 0.636513 0.750000 0.757715
O O13 0.953252 0.750000 0.290299
O O14 0.000000 0.898275 0.247222
#
# Coordination Sequence:
#
# PCOD8299984 Si02
#       5
#    16  16  16  16  16
#     4  10  22  40  63  93 127 162 204 255 312 373
#     4  10  20  34  55  86 124 166 210 252 297 353
#     4  12  26  45  68  90 118 156 200 256 317 376
#     4  11  23  39  62  92 126 164 207 255 307 368
#     4   9  17  31  52  79 115 158 199 239 287 346
#
# _framework density 21.040610000000001
#
# number of rings (size 3 to 8) (size 9 to 14) (size 15 to 20)
#    0.000    1.600    0.000    5.400    0.000    5.200 
#    0.000    2.000    0.000    6.000    0.000    0.000 
#    0.000    0.000    0.000    0.000    0.000    0.000 
#
# Total GULP energy -495616.734665 kJ/mol
# GULP energy per Si atom -12390.418367 kJ/mol
# Density = 2.099272 g / cm^3
# Si number density = 21.040610 Si / 1000 Ang^3
#
#
#
# Elastic Constant Matrix: (Units=GPa)
#
#
# Indices 1 2 3 4 5 6 
#
# 1 157.6664 53.2704 65.0896 0.0000 0.0000 0.0000
# 2 53.2704 109.1902 46.8574 0.0000 0.0000 0.0000
# 3 65.0896 46.8574 133.0178 0.0000 0.0000 0.0000
# 4 0.0000 0.0000 0.0000 96.1992 0.0000 0.0000
# 5 0.0000 0.0000 0.0000 0.0000 41.0266 0.0000
# 6 0.0000 0.0000 0.0000 0.0000 0.0000 13.0941
#
#
#
# Elastic Compliance Matrix: (Units=1/GPa)
#
#
# Indices 1 2 3 4 5 6 
#
# 1 0.008629 -0.002825 -0.003227 0.000000 0.000000 0.000000
# 2 -0.002825 0.011714 -0.002744 0.000000 0.000000 0.000000
# 3 -0.003227 -0.002744 0.010064 0.000000 0.000000 0.000000
# 4 0.000000 0.000000 0.000000 0.010395 0.000000 0.000000
# 5 0.000000 0.000000 0.000000 0.000000 0.024374 0.000000
# 6 0.000000 0.000000 0.000000 0.000000 0.000000 0.076370
#
#
# Mechanical properties :
#
#
# Convention : Reuss Voigt Hill
#
# Bulk Modulus (GPa) = 78.03894 81.14548 79.59221
# Shear Modulus (GPa) = 30.59763 45.70778 38.15270
#
# Velocity S-wave (km/s) = 3.81756 4.66591 4.26289
# Velocity P-wave (km/s) = 7.52342 8.22664 7.88287
#
# Compressibility (1/GPa) = 0.01281411
#
# Stress axis : x y z
#
# Youngs Moduli (GPa) = 115.88322 85.36681 99.36656
#
# Poissons Ratio (x) = 0.24116 0.32070
# Poissons Ratio (y) = 0.32737 0.27267
# Poissons Ratio (z) = 0.37401 0.23426
#
# Static dielectric constant tensor:
#      x y z
#    x 3.946410 0.000000 0.000000 
#    y 0.000000 3.968840 0.000000 
#    z 0.000000 0.000000 3.815860 
# 
# 
# High freq. dielectric constant tensor:
#      x y z
#    x 1.829320 0.000000 0.000000 
#    y 0.000000 1.833720 0.000000 
#    z 0.000000 0.000000 1.818020 
# 
# From -- ./inp_files/14925.got.cif
#   From: 2010.03.12/outbox.cif.g09.slc.cpg/sg74_8_cif.got.tgz:14925.got - 2010.04.16 15:46:19.
