data_PCOD8299760
_publ_section_title
;
Structure prediction by ZEFSAII (Michael W. Deem and Ramdas Pophale) SiO2 
 PCOD8299760
Probable space group: I M M A
;
_chemical_formula_sum "Si O2"
_cell_formula_units_Z 96
_cell_length_a 16.056596
_cell_length_b 8.016357
_cell_length_c 34.806590
_cell_angle_alpha 90.000000
_cell_angle_beta 90.000000
_cell_angle_gamma 90.000000
_cell_volume 4480.144354
_symmetry_space_group_name_H-M "I M M A"
_symmetry_group_IT_number 74
_symmetry_cell_setting 'orthorhombic'
loop_
_space_group_symop_operation_xyz
x,y,z
-x,1/2-y,z
x,-y,-z
-x,1/2+y,-z
-x,-y,-z
x,1/2+y,-z
-x,y,z
x,1/2-y,z
1/2+x,1/2+y,1/2+z
1/2-x,-y,1/2+z
1/2+x,1/2-y,1/2-z
1/2-x,y,1/2-z
1/2-x,1/2-y,1/2-z
1/2+x,y,1/2-z
1/2-x,1/2+y,1/2+z
1/2+x,-y,1/2+z
loop_
_atom_site_type_symbol
_atom_site_label
_atom_site_fract_x
_atom_site_fract_y
_atom_site_fract_z
Si Si1 0.907728 0.448807 0.408351
Si Si2 0.151685 0.443617 0.169639
Si Si3 0.902363 0.060656 0.249819
Si Si4 0.843080 0.556288 0.670952
Si Si5 0.751190 0.052789 0.456314
Si Si6 0.408027 0.948736 0.589575
O O1 0.901451 0.250000 0.407849
O O2 0.894740 0.518279 0.364933
O O3 0.834599 0.520325 0.435847
O O4 0.000000 0.506034 0.422639
O O5 0.128274 0.250000 0.173081
O O6 0.126440 0.530169 0.210237
O O7 0.247705 0.473226 0.160811
O O8 0.102574 0.518826 0.133094
O O9 0.868045 0.250000 0.248632
O O10 0.865486 0.970430 0.288031
O O11 0.000000 0.053722 0.253031
O O12 0.865884 0.750000 0.674957
O O13 0.750854 0.250000 0.452309
O O14 0.666138 0.979392 0.437282
O O15 0.753463 0.000000 0.500000
O O16 0.500000 0.004633 0.574498
O O17 0.401130 0.750000 0.590271
#
# Coordination Sequence:
#
# PCOD8299760 Si02
#       6
#    16  16  16  16  16  16
#     4   9  16  27  43  61  83 113 147 181 219 266
#     4   9  14  21  32  48  73 107 145 180 213 253
#     4   9  15  19  25  43  71 105 145 181 211 248
#     4   9  14  21  32  48  73 107 145 180 213 253
#     4  10  20  34  50  69  91 115 147 186 228 272
#     4   9  16  27  43  61  83 113 147 181 219 266
#
# _framework density 21.427880999999999
#
# number of rings (size 3 to 8) (size 9 to 14) (size 15 to 20)
#    0.000    2.833    1.667    1.500    0.000    6.667 
#    0.000    0.000    0.000    0.000    0.000    0.000 
#    0.000    0.000    0.000    3.000    0.000   11.000 
#
# Total GULP energy -594705.493643 kJ/mol
# GULP energy per Si atom -12389.697784 kJ/mol
# Density = 2.137911 g / cm^3
# Si number density = 21.427881 Si / 1000 Ang^3
#
#
#
# Elastic Constant Matrix: (Units=GPa)
#
#
# Indices 1 2 3 4 5 6 
#
# 1 141.4270 4.1770 93.2370 0.0000 0.0000 0.0000
# 2 4.1770 4.4372 -2.1516 0.0000 0.0000 0.0000
# 3 93.2370 -2.1516 167.1110 0.0000 0.0000 0.0000
# 4 0.0000 0.0000 0.0000 10.1851 0.0000 0.0000
# 5 0.0000 0.0000 0.0000 0.0000 32.7797 0.0000
# 6 0.0000 0.0000 0.0000 0.0000 0.0000 1.0514
#
#
#
# Elastic Compliance Matrix: (Units=1/GPa)
#
#
# Indices 1 2 3 4 5 6 
#
# 1 0.012070 -0.014720 -0.006924 0.000000 0.000000 0.000000
# 2 -0.014720 0.244736 0.011364 0.000000 0.000000 0.000000
# 3 -0.006924 0.011364 0.009993 0.000000 0.000000 0.000000
# 4 0.000000 0.000000 0.000000 0.098183 0.000000 0.000000
# 5 0.000000 0.000000 0.000000 0.000000 0.030507 0.000000
# 6 0.000000 0.000000 0.000000 0.000000 0.000000 0.951154
#
#
# Mechanical properties :
#
#
# Convention : Reuss Voigt Hill
#
# Bulk Modulus (GPa) = 4.06108 55.94445 30.00276
# Shear Modulus (GPa) = 3.44998 23.31741 13.38370
#
# Velocity S-wave (km/s) = 1.27025 3.30234 2.50190
# Velocity P-wave (km/s) = 2.01264 6.38009 4.73055
#
# Compressibility (1/GPa) = 0.24624001
#
# Stress axis : x y z
#
# Youngs Moduli (GPa) = 82.84888 4.08603 100.06569
#
# Poissons Ratio (x) = 0.06015 0.69284
# Poissons Ratio (y) = 1.21953 -1.13713
# Poissons Ratio (z) = 0.57364 -0.04643
#
# Static dielectric constant tensor:
#      x y z
#    x 4.048070 0.000000 0.000000 
#    y 0.000000 2.926060 0.000000 
#    z 0.000000 0.000000 3.373960 
# 
# 
# High freq. dielectric constant tensor:
#      x y z
#    x 1.854900 0.000000 0.000000 
#    y 0.000000 1.739390 0.000000 
#    z 0.000000 0.000000 1.853520 
# 
# From -- ./inp_files/67687.got.cif
#   From: 2010.03.12/outbox.cif.g09.slc.cpg/sg74_34_cif.got.tgz:67687.got - 2010.04.16 15:46:19.
