data_PCOD8299730
_publ_section_title
;
Structure prediction by ZEFSAII (Michael W. Deem and Ramdas Pophale) SiO2 
 PCOD8299730
Probable space group: I M M A
;
_chemical_formula_sum "Si O2"
_cell_formula_units_Z 96
_cell_length_a 14.591858
_cell_length_b 14.000223
_cell_length_c 23.656695
_cell_angle_alpha 90.000000
_cell_angle_beta 90.000000
_cell_angle_gamma 90.000000
_cell_volume 4832.808857
_symmetry_space_group_name_H-M "I M M A"
_symmetry_group_IT_number 74
_symmetry_cell_setting 'orthorhombic'
loop_
_space_group_symop_operation_xyz
x,y,z
-x,1/2-y,z
x,-y,-z
-x,1/2+y,-z
-x,-y,-z
x,1/2+y,-z
-x,y,z
x,1/2-y,z
1/2+x,1/2+y,1/2+z
1/2-x,-y,1/2+z
1/2+x,1/2-y,1/2-z
1/2-x,y,1/2-z
1/2-x,1/2-y,1/2-z
1/2+x,y,1/2-z
1/2-x,1/2+y,1/2+z
1/2+x,-y,1/2+z
loop_
_atom_site_type_symbol
_atom_site_label
_atom_site_fract_x
_atom_site_fract_y
_atom_site_fract_z
Si Si1 0.397899 0.645800 0.636921
Si Si2 0.856179 0.357223 0.261463
Si Si3 0.895751 0.012039 0.366425
Si Si4 0.720249 0.138866 0.918349
Si Si5 0.894943 0.640114 0.527972
Si Si6 0.104747 0.473381 0.935093
O O1 0.500000 0.655747 0.612589
O O2 0.347716 0.750000 0.629834
O O3 0.404393 0.616822 0.702482
O O4 0.351304 0.562569 0.600033
O O5 0.884047 0.250000 0.281095
O O6 0.750000 0.364612 0.250000
O O7 0.887123 0.433109 0.307488
O O8 0.865753 0.082166 0.416803
O O9 0.000000 0.977089 0.373515
O O10 0.828749 0.920148 0.367871
O O11 0.708713 0.250000 0.904671
O O12 0.828518 0.115768 0.923094
O O13 0.669254 0.108776 0.976194
O O14 0.879959 0.750000 0.543226
O O15 0.000000 0.619360 0.510366
O O16 0.000000 0.448349 0.915970
O O17 0.106006 0.500000 0.000000
#
# Coordination Sequence:
#
# PCOD8299730 Si02
#       6
#    16  16  16  16  16  16
#     4   9  18  34  56  81 109 137 166 210 270 331
#     4  10  20  33  53  83 116 146 175 213 269 338
#     4  11  21  34  56  83 112 147 187 230 276 331
#     4  11  23  37  53  75 108 149 192 238 282 324
#     4   9  18  33  54  81 112 144 179 224 280 337
#     4  10  21  37  58  83 110 144 187 230 276 335
#
# _framework density 19.864224
#
# number of rings (size 3 to 8) (size 9 to 14) (size 15 to 20)
#    0.000    2.000    0.000    4.000    0.000    5.000 
#    0.000    5.833    0.000    4.500    0.000    4.667 
#    0.000    0.000    0.000    0.000    0.000    0.000 
#
# Total GULP energy -595127.560591 kJ/mol
# GULP energy per Si atom -12398.490846 kJ/mol
# Density = 1.981901 g / cm^3
# Si number density = 19.864224 Si / 1000 Ang^3
#
#
#
# Elastic Constant Matrix: (Units=GPa)
#
#
# Indices 1 2 3 4 5 6 
#
# 1 92.2090 38.4280 20.0122 0.0000 0.0000 0.0000
# 2 38.4280 105.8695 60.3715 0.0000 0.0000 0.0000
# 3 20.0122 60.3715 87.7507 0.0000 0.0000 0.0000
# 4 0.0000 0.0000 0.0000 32.0396 0.0000 0.0000
# 5 0.0000 0.0000 0.0000 0.0000 40.1335 0.0000
# 6 0.0000 0.0000 0.0000 0.0000 0.0000 27.8079
#
#
#
# Elastic Compliance Matrix: (Units=1/GPa)
#
#
# Indices 1 2 3 4 5 6 
#
# 1 0.012789 -0.004902 0.000456 0.000000 0.000000 0.000000
# 2 -0.004902 0.017423 -0.010869 0.000000 0.000000 0.000000
# 3 0.000456 -0.010869 0.018769 0.000000 0.000000 0.000000
# 4 0.000000 0.000000 0.000000 0.031211 0.000000 0.000000
# 5 0.000000 0.000000 0.000000 0.000000 0.024917 0.000000
# 6 0.000000 0.000000 0.000000 0.000000 0.000000 0.035961
#
#
# Mechanical properties :
#
#
# Convention : Reuss Voigt Hill
#
# Bulk Modulus (GPa) = 54.49143 58.16140 56.32642
# Shear Modulus (GPa) = 28.11880 31.13070 29.62475
#
# Velocity S-wave (km/s) = 3.76646 3.96305 3.86601
# Velocity P-wave (km/s) = 6.81223 7.09113 6.95308
#
# Compressibility (1/GPa) = 0.01835151
#
# Stress axis : x y z
#
# Youngs Moduli (GPa) = 78.19289 57.39643 53.27809
#
# Poissons Ratio (x) = 0.28136 -0.02429
# Poissons Ratio (y) = 0.38330 0.57906
# Poissons Ratio (z) = -0.03565 0.62382
#
# Static dielectric constant tensor:
#      x y z
#    x 3.747080 0.000000 0.000000 
#    y 0.000000 3.662240 0.000000 
#    z 0.000000 0.000000 5.759350 
# 
# 
# High freq. dielectric constant tensor:
#      x y z
#    x 1.784960 0.000000 0.000000 
#    y 0.000000 1.763030 0.000000 
#    z 0.000000 0.000000 1.756900 
# 
# From -- ./inp_files/51825.got.cif
#   From: 2010.03.12/outbox.cif.g09.slc.cpg/sg74_26_cif.got.tgz:51825.got - 2010.04.16 15:46:19.
