data_PCOD8299975
_publ_section_title
;
Structure prediction by ZEFSAII (Michael W. Deem and Ramdas Pophale) SiO2 
 PCOD8299975
Probable space group: I M M A
;
_chemical_formula_sum "Si O2"
_cell_formula_units_Z 88
_cell_length_a 22.870378
_cell_length_b 17.011355
_cell_length_c 11.361505
_cell_angle_alpha 90.000000
_cell_angle_beta 90.000000
_cell_angle_gamma 90.000000
_cell_volume 4420.263043
_symmetry_space_group_name_H-M "I M M A"
_symmetry_group_IT_number 74
_symmetry_cell_setting 'orthorhombic'
loop_
_space_group_symop_operation_xyz
x,y,z
-x,1/2-y,z
x,-y,-z
-x,1/2+y,-z
-x,-y,-z
x,1/2+y,-z
-x,y,z
x,1/2-y,z
1/2+x,1/2+y,1/2+z
1/2-x,-y,1/2+z
1/2+x,1/2-y,1/2-z
1/2-x,y,1/2-z
1/2-x,1/2-y,1/2-z
1/2+x,y,1/2-z
1/2-x,1/2+y,1/2+z
1/2+x,-y,1/2+z
loop_
_atom_site_type_symbol
_atom_site_label
_atom_site_fract_x
_atom_site_fract_y
_atom_site_fract_z
Si Si1 0.750000 0.052773 0.750000
Si Si2 0.434648 0.590646 0.008273
Si Si3 0.254021 0.162515 0.382794
Si Si4 0.175598 0.161521 0.588979
Si Si5 0.845105 0.047546 0.110587
Si Si6 0.566738 0.159048 0.250118
O O1 0.777282 0.107740 0.651147
O O2 0.804859 0.004300 0.802029
O O3 0.500000 0.597573 0.060673
O O4 0.430259 0.635913 0.885896
O O5 0.416160 0.500000 0.000000
O O6 0.390652 0.630844 0.101380
O O7 0.279015 0.250000 0.379371
O O8 0.250000 0.129345 0.250000
O O9 0.191982 0.158196 0.449386
O O10 0.301768 0.110415 0.450392
O O11 0.179773 0.250000 0.638689
O O12 0.895472 0.095449 0.178173
O O13 0.872668 0.000000 0.000000
O O14 0.500000 0.152497 0.295015
O O15 0.588799 0.250000 0.264910
#
# Coordination Sequence:
#
# PCOD8299975 Si02
#       6
#     8  16  16  16  16  16
#     4  12  25  40  57  86 126 162 200 246 309 358
#     4  10  21  37  63  95 124 155 196 250 308 364
#     4  10  20  34  55  85 116 150 193 243 301 362
#     4  11  23  38  57  82 122 164 199 238 293 366
#     4  12  23  37  59  86 116 158 202 258 302 366
#     4  10  22  41  63  89 122 157 200 257 315 367
#
# _framework density 19.908318999999999
#
# number of rings (size 3 to 8) (size 9 to 14) (size 15 to 20)
#    0.000    1.273    2.727    3.545    2.545    2.909 
#    0.000    0.000    0.000    0.000    0.000    0.000 
#    0.000    0.000    0.000    0.000    0.000    0.000 
#
# Total GULP energy -545250.588363 kJ/mol
# GULP energy per Si atom -12392.058826 kJ/mol
# Density = 1.986301 g / cm^3
# Si number density = 19.908319 Si / 1000 Ang^3
#
#
#
# Elastic Constant Matrix: (Units=GPa)
#
#
# Indices 1 2 3 4 5 6 
#
# 1 109.9328 63.0458 28.6271 0.0000 0.0000 0.0000
# 2 63.0458 137.1368 42.8668 0.0000 0.0000 0.0000
# 3 28.6271 42.8668 60.9634 0.0000 0.0000 0.0000
# 4 0.0000 0.0000 0.0000 27.6321 0.0000 0.0000
# 5 0.0000 0.0000 0.0000 0.0000 26.7042 0.0000
# 6 0.0000 0.0000 0.0000 0.0000 0.0000 21.9477
#
#
#
# Elastic Compliance Matrix: (Units=1/GPa)
#
#
# Indices 1 2 3 4 5 6 
#
# 1 0.012614 -0.005060 -0.002366 0.000000 0.000000 0.000000
# 2 -0.005060 0.011376 -0.005623 0.000000 0.000000 0.000000
# 3 -0.002366 -0.005623 0.021468 0.000000 0.000000 0.000000
# 4 0.000000 0.000000 0.000000 0.036190 0.000000 0.000000
# 5 0.000000 0.000000 0.000000 0.000000 0.037447 0.000000
# 6 0.000000 0.000000 0.000000 0.000000 0.000000 0.045563
#
#
# Mechanical properties :
#
#
# Convention : Reuss Voigt Hill
#
# Bulk Modulus (GPa) = 51.64933 64.12358 57.88645
# Shear Modulus (GPa) = 25.35392 26.82302 26.08847
#
# Velocity S-wave (km/s) = 3.57253 3.67458 3.62391
# Velocity P-wave (km/s) = 6.55875 7.09103 6.83008
#
# Compressibility (1/GPa) = 0.01936133
#
# Stress axis : x y z
#
# Youngs Moduli (GPa) = 79.27602 87.90656 46.58098
#
# Poissons Ratio (x) = 0.44478 0.11019
# Poissons Ratio (y) = 0.40111 0.26193
# Poissons Ratio (z) = 0.18754 0.49430
#
# Static dielectric constant tensor:
#      x y z
#    x 3.727900 0.000000 0.000000 
#    y 0.000000 3.950340 0.000000 
#    z 0.000000 0.000000 3.393520 
# 
# 
# High freq. dielectric constant tensor:
#      x y z
#    x 1.778290 0.000000 0.000000 
#    y 0.000000 1.802690 0.000000 
#    z 0.000000 0.000000 1.742650 
# 
# From -- ./inp_files/24968.got.cif
#   From: 2010.03.12/outbox.cif.g09.slc.cpg/sg74_13_cif.got.tgz:24968.got - 2010.04.16 15:46:19.
