data_PCOD8299125
_publ_section_title
;
Structure prediction by ZEFSAII (Michael W. Deem and Ramdas Pophale) SiO2 
 PCOD8299125
Probable space group: I M M A
;
_chemical_formula_sum "Si O2"
_cell_formula_units_Z 80
_cell_length_a 17.604467
_cell_length_b 23.973676
_cell_length_c 9.871081
_cell_angle_alpha 90.000000
_cell_angle_beta 90.000000
_cell_angle_gamma 90.000000
_cell_volume 4166.028417
_symmetry_space_group_name_H-M "I M M A"
_symmetry_group_IT_number 74
_symmetry_cell_setting 'orthorhombic'
loop_
_space_group_symop_operation_xyz
x,y,z
-x,1/2-y,z
x,-y,-z
-x,1/2+y,-z
-x,-y,-z
x,1/2+y,-z
-x,y,z
x,1/2-y,z
1/2+x,1/2+y,1/2+z
1/2-x,-y,1/2+z
1/2+x,1/2-y,1/2-z
1/2-x,y,1/2-z
1/2-x,1/2-y,1/2-z
1/2+x,y,1/2-z
1/2-x,1/2+y,1/2+z
1/2+x,-y,1/2+z
loop_
_atom_site_type_symbol
_atom_site_label
_atom_site_fract_x
_atom_site_fract_y
_atom_site_fract_z
Si Si1 0.916181 0.590909 0.267881
Si Si2 0.321140 0.011877 0.158136
Si Si3 0.776175 0.684446 0.607582
Si Si4 0.416826 0.614192 0.919896
Si Si5 0.182282 0.186287 0.855382
O O1 0.857828 0.539577 0.258922
O O2 0.927602 0.601350 0.424528
O O3 0.884745 0.645309 0.190055
O O4 0.000000 0.577206 0.206306
O O5 0.250000 0.030021 0.250000
O O6 0.381190 0.062088 0.159774
O O7 0.298503 0.000000 0.000000
O O8 0.772975 0.750000 0.602375
O O9 0.750000 0.659464 0.750000
O O10 0.863198 0.667800 0.586889
O O11 0.718103 0.661719 0.494147
O O12 0.500000 0.627237 0.856302
O O13 0.150920 0.250000 0.870552
O O14 0.250000 0.185533 0.750000
#
# Coordination Sequence:
#
# PCOD8299125 Si02
#       5
#    16  16  16  16  16
#     4  10  20  34  56  84 114 144 182 235 288 332
#     4  10  21  36  59  82 107 148 191 233 280 340
#     4  10  21  37  58  83 113 151 190 228 276 340
#     4  10  20  35  56  83 112 143 187 236 280 332
#     4  10  19  34  57  84 112 144 188 232 274 334
#
# _framework density 19.202942
#
# number of rings (size 3 to 8) (size 9 to 14) (size 15 to 20)
#    0.000    2.000    2.000    1.800    2.800    3.200 
#    0.000    3.000    0.000    4.800    0.000    0.000 
#    0.000    0.000    0.000    0.000    0.000    0.000 
#
# Total GULP energy -495748.480172 kJ/mol
# GULP energy per Si atom -12393.712004 kJ/mol
# Density = 1.915923 g / cm^3
# Si number density = 19.202942 Si / 1000 Ang^3
#
#
#
# Elastic Constant Matrix: (Units=GPa)
#
#
# Indices 1 2 3 4 5 6 
#
# 1 136.7776 47.3606 39.0646 0.0000 0.0000 0.0000
# 2 47.3606 59.0733 37.5371 0.0000 0.0000 0.0000
# 3 39.0646 37.5371 64.7943 0.0000 0.0000 0.0000
# 4 0.0000 0.0000 0.0000 12.0953 0.0000 0.0000
# 5 0.0000 0.0000 0.0000 0.0000 37.0468 0.0000
# 6 0.0000 0.0000 0.0000 0.0000 0.0000 39.5283
#
#
#
# Elastic Compliance Matrix: (Units=1/GPa)
#
#
# Indices 1 2 3 4 5 6 
#
# 1 0.010326 -0.006841 -0.002262 0.000000 0.000000 0.000000
# 2 -0.006841 0.031323 -0.014021 0.000000 0.000000 0.000000
# 3 -0.002262 -0.014021 0.024920 0.000000 0.000000 0.000000
# 4 0.000000 0.000000 0.000000 0.082677 0.000000 0.000000
# 5 0.000000 0.000000 0.000000 0.000000 0.026993 0.000000
# 6 0.000000 0.000000 0.000000 0.000000 0.000000 0.025298
#
#
# Mechanical properties :
#
#
# Convention : Reuss Voigt Hill
#
# Bulk Modulus (GPa) = 49.21462 56.50776 52.86119
# Shear Modulus (GPa) = 19.64174 26.84627 23.24400
#
# Velocity S-wave (km/s) = 3.20167 3.74308 3.48291
# Velocity P-wave (km/s) = 6.27311 6.94056 6.61526
#
# Compressibility (1/GPa) = 0.02031917
#
# Stress axis : x y z
#
# Youngs Moduli (GPa) = 96.84204 31.92592 40.12768
#
# Poissons Ratio (x) = 0.21841 0.09078
# Poissons Ratio (y) = 0.66251 0.56265
# Poissons Ratio (z) = 0.21909 0.44765
#
# Static dielectric constant tensor:
#      x y z
#    x 4.950110 0.000000 0.000000 
#    y 0.000000 3.527880 0.000000 
#    z 0.000000 0.000000 3.612420 
# 
# 
# High freq. dielectric constant tensor:
#      x y z
#    x 1.745420 0.000000 0.000000 
#    y 0.000000 1.748550 0.000000 
#    z 0.000000 0.000000 1.732360 
# 
# From -- ./inp_files/20466.got.cif
#   From: 2010.03.12/outbox.cif.g09.slc.cpg/sg74_11_cif.got.tgz:20466.got - 2010.04.16 15:46:19.
