data_PCOD8299572
_publ_section_title
;
Structure prediction by ZEFSAII (Michael W. Deem and Ramdas Pophale) SiO2 
 PCOD8299572
Probable space group: I M M A
;
_chemical_formula_sum "Si O2"
_cell_formula_units_Z 112
_cell_length_a 14.713882
_cell_length_b 26.830529
_cell_length_c 15.904104
_cell_angle_alpha 90.000000
_cell_angle_beta 90.000000
_cell_angle_gamma 90.000000
_cell_volume 6278.641862
_symmetry_space_group_name_H-M "I M M A"
_symmetry_group_IT_number 74
_symmetry_cell_setting 'orthorhombic'
loop_
_space_group_symop_operation_xyz
x,y,z
-x,1/2-y,z
x,-y,-z
-x,1/2+y,-z
-x,-y,-z
x,1/2+y,-z
-x,y,z
x,1/2-y,z
1/2+x,1/2+y,1/2+z
1/2-x,-y,1/2+z
1/2+x,1/2-y,1/2-z
1/2-x,y,1/2-z
1/2-x,1/2-y,1/2-z
1/2+x,y,1/2-z
1/2-x,1/2+y,1/2+z
1/2+x,-y,1/2+z
loop_
_atom_site_type_symbol
_atom_site_label
_atom_site_fract_x
_atom_site_fract_y
_atom_site_fract_z
Si Si1 0.892641 0.898144 0.977639
Si Si2 0.598962 0.464514 0.635111
Si Si3 0.270776 0.945077 0.658492
Si Si4 0.898988 0.000224 0.401117
Si Si5 0.652677 0.589422 0.212584
Si Si6 0.392424 0.195681 0.766827
Si Si7 0.607105 0.195485 0.578417
O O1 0.829959 0.906833 0.896429
O O2 0.000000 0.896204 0.954606
O O3 0.871932 0.941294 0.045664
O O4 0.855494 0.846330 0.015606
O O5 0.500000 0.490027 0.623123
O O6 0.671548 0.504326 0.666773
O O7 0.587388 0.422343 0.707493
O O8 0.250000 0.921941 0.750000
O O9 0.171692 0.956424 0.621223
O O10 0.000000 0.012491 0.364637
O O11 0.903943 0.000000 0.500000
O O12 0.867769 0.946211 0.366345
O O13 0.750000 0.577659 0.250000
O O14 0.642177 0.647137 0.181842
O O15 0.500000 0.196087 0.767089
O O16 0.358700 0.250000 0.802851
O O17 0.352665 0.189516 0.672306
O O18 0.500000 0.188907 0.585635
O O19 0.632844 0.250000 0.542158
#
# Coordination Sequence:
#
# PCOD8299572 Si02
#       7
#    16  16  16  16  16  16  16
#     4  10  20  32  54  82 107 133 165 210 266 319
#     4  11  19  33  53  76 103 135 166 211 266 315
#     4  12  23  35  49  72 102 137 170 218 254 308
#     4  11  23  37  51  67  94 140 186 218 246 292
#     4  12  21  33  51  75 105 141 175 217 261 308
#     4   9  17  30  50  75 104 137 171 209 256 314
#     4   8  14  27  49  78 107 133 160 197 258 328
#
# _framework density 17.838253000000002
#
# number of rings (size 3 to 8) (size 9 to 14) (size 15 to 20)
#    0.000    1.571    4.286    3.857    0.000    2.000 
#    0.000    0.000    0.000    0.429    0.000    0.000 
#    0.000    0.571    0.000    0.286    0.000    0.143 
#
# Total GULP energy -693910.678683 kJ/mol
# GULP energy per Si atom -12391.262119 kJ/mol
# Density = 1.779765 g / cm^3
# Si number density = 17.838253 Si / 1000 Ang^3
#
#
#
# Elastic Constant Matrix: (Units=GPa)
#
#
# Indices 1 2 3 4 5 6 
#
# 1 75.2122 20.8906 19.6300 0.0001 0.0000 0.0000
# 2 20.8906 79.3658 25.1608 -0.0003 0.0001 0.0000
# 3 19.6300 25.1608 76.0932 -0.0006 0.0001 0.0001
# 4 0.0001 -0.0003 -0.0006 26.5335 0.0001 0.0000
# 5 0.0000 0.0001 0.0001 0.0001 20.0032 0.0000
# 6 0.0000 0.0000 0.0001 0.0000 0.0000 14.9137
#
#
#
# Elastic Compliance Matrix: (Units=1/GPa)
#
#
# Indices 1 2 3 4 5 6 
#
# 1 0.014874 -0.003015 -0.002840 0.000000 0.000000 0.000000
# 2 -0.003015 0.014686 -0.004078 0.000000 0.000000 0.000000
# 3 -0.002840 -0.004078 0.015223 0.000000 0.000000 0.000000
# 4 0.000000 0.000000 0.000000 0.037688 0.000000 0.000000
# 5 0.000000 0.000000 0.000000 0.000000 0.049992 0.000000
# 6 0.000000 0.000000 0.000000 0.000000 0.000000 0.067052
#
#
# Mechanical properties :
#
#
# Convention : Reuss Voigt Hill
#
# Bulk Modulus (GPa) = 40.13362 40.22601 40.17982
# Shear Modulus (GPa) = 21.95977 23.28940 22.62458
#
# Velocity S-wave (km/s) = 3.51244 3.61721 3.56521
# Velocity P-wave (km/s) = 6.24477 6.32811 6.28658
#
# Compressibility (1/GPa) = 0.02491676
#
# Stress axis : x y z
#
# Youngs Moduli (GPa) = 67.22961 68.09026 65.68978
#
# Poissons Ratio (x) = 0.20528 0.18658
# Poissons Ratio (y) = 0.20268 0.26791
# Poissons Ratio (z) = 0.19095 0.27770
#
# Static dielectric constant tensor:
#      x y z
#    x 3.465230 0.000000 0.000000 
#    y 0.000000 3.526530 0.000000 
#    z 0.000000 0.000000 3.183290 
# 
# 
# High freq. dielectric constant tensor:
#      x y z
#    x 1.696280 0.000000 0.000000 
#    y 0.000000 1.672140 0.000000 
#    z 0.000000 0.000000 1.659280 
# 
# From -- ./inp_files/32969.got.cif
#   From: 2010.03.12/outbox.cif.g09.slc.cpg/sg74_17_cif.got.tgz:32969.got - 2010.04.16 15:46:19.
