data_PCOD8299333
_publ_section_title
;
Structure prediction by ZEFSAII (Michael W. Deem and Ramdas Pophale) SiO2 
 PCOD8299333
Probable space group: I M M A
;
_chemical_formula_sum "Si O2"
_cell_formula_units_Z 88
_cell_length_a 9.762440
_cell_length_b 20.963464
_cell_length_c 22.307897
_cell_angle_alpha 90.000000
_cell_angle_beta 90.000000
_cell_angle_gamma 90.000000
_cell_volume 4565.412834
_symmetry_space_group_name_H-M "I M M A"
_symmetry_group_IT_number 74
_symmetry_cell_setting 'orthorhombic'
loop_
_space_group_symop_operation_xyz
x,y,z
-x,1/2-y,z
x,-y,-z
-x,1/2+y,-z
-x,-y,-z
x,1/2+y,-z
-x,y,z
x,1/2-y,z
1/2+x,1/2+y,1/2+z
1/2-x,-y,1/2+z
1/2+x,1/2-y,1/2-z
1/2-x,y,1/2-z
1/2-x,1/2-y,1/2-z
1/2+x,y,1/2-z
1/2-x,1/2+y,1/2+z
1/2+x,-y,1/2+z
loop_
_atom_site_type_symbol
_atom_site_label
_atom_site_fract_x
_atom_site_fract_y
_atom_site_fract_z
Si Si1 0.840475 0.008418 0.310160
Si Si2 0.000000 0.323269 0.694657
Si Si3 0.343763 0.645159 0.869634
Si Si4 0.232888 0.387294 0.622029
Si Si5 0.657369 0.678231 0.003528
Si Si6 0.832773 0.250000 0.188962
Si Si7 0.500000 0.675013 0.333591
O O1 0.750000 0.001819 0.250000
O O2 0.824925 0.077701 0.338369
O O3 0.000000 0.993202 0.294978
O O4 0.784456 0.961875 0.362419
O O5 0.865159 0.350347 0.666286
O O6 0.000000 0.339595 0.763918
O O7 0.000000 0.250000 0.680683
O O8 0.500000 0.671006 0.856880
O O9 0.318983 0.642748 0.940602
O O10 0.220321 0.688039 0.845378
O O11 0.210528 0.371933 0.552387
O O12 0.379068 0.360874 0.635303
O O13 0.500000 0.689072 0.016977
O O14 0.725639 0.750000 0.005278
O O15 0.750000 0.250000 0.250000
O O16 0.000000 0.250000 0.195709
O O17 0.500000 0.750000 0.347635
#
# Coordination Sequence:
#
# PCOD8299333 Si02
#       7
#    16   8  16  16  16   8   8
#     4  11  24  41  65  93 128 168 214 265 323 390
#     4  11  20  36  60  83 118 159 219 270 315 375
#     4  10  22  42  67  97 127 171 216 265 323 382
#     4  12  23  38  59  92 125 168 216 258 324 382
#     4  10  19  37  66  92 126 167 215 265 316 382
#     4  12  24  42  68 102 134 166 213 274 327 383
#     4  11  24  38  56  87 124 169 213 280 327 371
#
# _framework density 19.275364
#
# number of rings (size 3 to 8) (size 9 to 14) (size 15 to 20)
#    0.000    1.091    2.727    4.636    1.273    4.364 
#    1.636    2.727    0.000    1.091    0.000    0.000 
#    0.000    0.000    0.000    0.000    0.000    0.000 
#
# Total GULP energy -545327.190960 kJ/mol
# GULP energy per Si atom -12393.799795 kJ/mol
# Density = 1.923149 g / cm^3
# Si number density = 19.275364 Si / 1000 Ang^3
#
#
#
# Elastic Constant Matrix: (Units=GPa)
#
#
# Indices 1 2 3 4 5 6 
#
# 1 134.7374 59.9337 63.3993 0.0000 0.0000 0.0000
# 2 59.9337 111.2130 31.1599 0.0000 0.0000 0.0000
# 3 63.3993 31.1599 140.7495 0.0000 0.0000 0.0000
# 4 0.0000 0.0000 0.0000 38.2641 0.0000 0.0000
# 5 0.0000 0.0000 0.0000 0.0000 34.3313 0.0000
# 6 0.0000 0.0000 0.0000 0.0000 0.0000 30.4154
#
#
#
# Elastic Compliance Matrix: (Units=1/GPa)
#
#
# Indices 1 2 3 4 5 6 
#
# 1 0.011630 -0.005117 -0.004106 0.000000 0.000000 0.000000
# 2 -0.005117 0.011838 -0.000316 0.000000 0.000000 0.000000
# 3 -0.004106 -0.000316 0.009024 0.000000 0.000000 0.000000
# 4 0.000000 0.000000 0.000000 0.026134 0.000000 0.000000
# 5 0.000000 0.000000 0.000000 0.000000 0.029128 0.000000
# 6 0.000000 0.000000 0.000000 0.000000 0.000000 0.032878
#
#
# Mechanical properties :
#
#
# Convention : Reuss Voigt Hill
#
# Bulk Modulus (GPa) = 74.54524 77.29842 75.92183
# Shear Modulus (GPa) = 34.67863 36.08264 35.38064
#
# Velocity S-wave (km/s) = 4.24620 4.33130 4.28896
# Velocity P-wave (km/s) = 7.92453 8.07483 8.00003
#
# Compressibility (1/GPa) = 0.01341467
#
# Stress axis : x y z
#
# Youngs Moduli (GPa) = 85.98477 84.47443 110.81405
#
# Poissons Ratio (x) = 0.43227 0.45498
# Poissons Ratio (y) = 0.44000 0.03499
# Poissons Ratio (z) = 0.35303 0.02667
#
# Static dielectric constant tensor:
#      x y z
#    x 3.617440 0.000000 0.000000 
#    y 0.000000 3.720860 0.000000 
#    z 0.000000 0.000000 3.688980 
# 
# 
# High freq. dielectric constant tensor:
#      x y z
#    x 1.746290 0.000000 0.000000 
#    y 0.000000 1.757590 0.000000 
#    z 0.000000 0.000000 1.758970 
# 
# From -- ./inp_files/57065.got.cif
#   From: 2010.03.12/outbox.cif.g09.slc.cpg/sg74_29_cif.got.tgz:57065.got - 2010.04.16 15:46:19.
