data_PCOD8299816
_publ_section_title
;
Structure prediction by ZEFSAII (Michael W. Deem and Ramdas Pophale) SiO2 
 PCOD8299816
Probable space group: I M M A
;
_chemical_formula_sum "Si O2"
_cell_formula_units_Z 80
_cell_length_a 26.783648
_cell_length_b 8.499508
_cell_length_c 18.474744
_cell_angle_alpha 90.000000
_cell_angle_beta 90.000000
_cell_angle_gamma 90.000000
_cell_volume 4205.735390
_symmetry_space_group_name_H-M "I M M A"
_symmetry_group_IT_number 74
_symmetry_cell_setting 'orthorhombic'
loop_
_space_group_symop_operation_xyz
x,y,z
-x,1/2-y,z
x,-y,-z
-x,1/2+y,-z
-x,-y,-z
x,1/2+y,-z
-x,y,z
x,1/2-y,z
1/2+x,1/2+y,1/2+z
1/2-x,-y,1/2+z
1/2+x,1/2-y,1/2-z
1/2-x,y,1/2-z
1/2-x,1/2-y,1/2-z
1/2+x,y,1/2-z
1/2-x,1/2+y,1/2+z
1/2+x,-y,1/2+z
loop_
_atom_site_type_symbol
_atom_site_label
_atom_site_fract_x
_atom_site_fract_y
_atom_site_fract_z
Si Si1 0.443654 0.566894 0.642024
Si Si2 0.058690 0.431027 0.423960
Si Si3 0.653669 0.434507 0.577901
Si Si4 0.696211 0.065403 0.279832
Si Si5 0.099143 0.568183 0.280996
O O1 0.500000 0.519068 0.620153
O O2 0.434059 0.750000 0.627622
O O3 0.404676 0.468922 0.593970
O O4 0.435494 0.532677 0.726993
O O5 0.077125 0.500000 0.500000
O O6 0.074496 0.250000 0.418292
O O7 0.086089 0.530418 0.363006
O O8 0.000000 0.454183 0.414717
O O9 0.668921 0.500000 0.500000
O O10 0.662938 0.250000 0.580773
O O11 0.689576 0.517619 0.636333
O O12 0.686510 0.250000 0.271573
O O13 0.750000 0.016138 0.250000
O O14 0.656935 0.971768 0.231011
O O15 0.089492 0.750000 0.264273
#
# Coordination Sequence:
#
# PCOD8299816 Si02
#       5
#    16  16  16  16  16
#     4  10  20  34  53  78 109 145 184 223 262 309
#     4  10  20  34  52  75 106 143 181 222 268 318
#     4  11  22  37  58  82 112 145 178 219 265 317
#     4  10  21  39  62  84 107 137 176 222 270 319
#     4  11  21  33  53  79 108 141 178 221 266 319
#
# _framework density 19.021643000000001
#
# number of rings (size 3 to 8) (size 9 to 14) (size 15 to 20)
#    0.000    1.600    0.000    8.400    0.000    7.200 
#    0.000    1.000    0.000    4.800    0.000    0.000 
#    0.000    0.000    0.000    0.000    0.000    0.000 
#
# Total GULP energy -496170.079698 kJ/mol
# GULP energy per Si atom -12404.251992 kJ/mol
# Density = 1.897835 g / cm^3
# Si number density = 19.021643 Si / 1000 Ang^3
#
#
#
# Elastic Constant Matrix: (Units=GPa)
#
#
# Indices 1 2 3 4 5 6 
#
# 1 77.3634 19.2904 28.0075 0.0000 0.0000 0.0000
# 2 19.2904 72.7082 13.5203 0.0000 0.0000 0.0000
# 3 28.0075 13.5203 104.3042 0.0000 0.0000 0.0000
# 4 0.0000 0.0000 0.0000 35.8201 0.0000 0.0000
# 5 0.0000 0.0000 0.0000 0.0000 16.5643 0.0000
# 6 0.0000 0.0000 0.0000 0.0000 0.0000 24.9568
#
#
#
# Elastic Compliance Matrix: (Units=1/GPa)
#
#
# Indices 1 2 3 4 5 6 
#
# 1 0.015063 -0.003324 -0.003614 0.000000 0.000000 0.000000
# 2 -0.003324 0.014827 -0.001029 0.000000 0.000000 0.000000
# 3 -0.003614 -0.001029 0.010691 0.000000 0.000000 0.000000
# 4 0.000000 0.000000 0.000000 0.027917 0.000000 0.000000
# 5 0.000000 0.000000 0.000000 0.000000 0.060371 0.000000
# 6 0.000000 0.000000 0.000000 0.000000 0.000000 0.040069
#
#
# Mechanical properties :
#
#
# Convention : Reuss Voigt Hill
#
# Bulk Modulus (GPa) = 40.57401 41.77914 41.17657
# Shear Modulus (GPa) = 25.89475 28.37207 27.13341
#
# Velocity S-wave (km/s) = 3.69362 3.86627 3.78093
# Velocity P-wave (km/s) = 6.29025 6.47630 6.38395
#
# Compressibility (1/GPa) = 0.02464632
#
# Stress axis : x y z
#
# Youngs Moduli (GPa) = 66.38678 67.44444 93.53544
#
# Poissons Ratio (x) = 0.22422 0.33802
# Poissons Ratio (y) = 0.22070 0.09627
# Poissons Ratio (z) = 0.23991 0.06942
#
# Static dielectric constant tensor:
#      x y z
#    x 3.357990 0.000000 0.000000 
#    y 0.000000 3.577530 0.000000 
#    z 0.000000 0.000000 3.523070 
# 
# 
# High freq. dielectric constant tensor:
#      x y z
#    x 1.720980 0.000000 0.000000 
#    y 0.000000 1.756790 0.000000 
#    z 0.000000 0.000000 1.742750 
# 
# From -- ./inp_files/46487.got.cif
#   From: 2010.03.12/outbox.cif.g09.slc.cpg/sg74_24_cif.got.tgz:46487.got - 2010.04.16 15:46:19.
