data_PCOD8300781
_publ_section_title
;
Structure prediction by ZEFSAII (Michael W. Deem and Ramdas Pophale) SiO2 
 PCOD8300781
Probable space group: I M M A
;
_chemical_formula_sum "Si O2"
_cell_formula_units_Z 128
_cell_length_a 27.451696
_cell_length_b 26.103413
_cell_length_c 10.416465
_cell_angle_alpha 90.000000
_cell_angle_beta 90.000000
_cell_angle_gamma 90.000000
_cell_volume 7464.261304
_symmetry_space_group_name_H-M "I M M A"
_symmetry_group_IT_number 74
_symmetry_cell_setting 'orthorhombic'
loop_
_space_group_symop_operation_xyz
x,y,z
-x,1/2-y,z
x,-y,-z
-x,1/2+y,-z
-x,-y,-z
x,1/2+y,-z
-x,y,z
x,1/2-y,z
1/2+x,1/2+y,1/2+z
1/2-x,-y,1/2+z
1/2+x,1/2-y,1/2-z
1/2-x,y,1/2-z
1/2-x,1/2-y,1/2-z
1/2+x,y,1/2-z
1/2-x,1/2+y,1/2+z
1/2+x,-y,1/2+z
loop_
_atom_site_type_symbol
_atom_site_label
_atom_site_fract_x
_atom_site_fract_y
_atom_site_fract_z
Si Si1 0.944959 0.307222 0.651434
Si Si2 0.206743 0.440309 0.349367
Si Si3 0.793257 0.940309 0.349367
Si Si4 0.555041 0.807222 0.848565
Si Si5 0.948791 0.500001 0.358343
Si Si6 0.394222 0.594402 0.756880
Si Si7 0.394222 0.594402 0.243118
Si Si8 0.443404 0.060955 0.500001
O O1 0.929808 0.250000 0.695897
O O2 0.941145 0.311744 0.500000
O O3 0.909220 0.347713 0.714507
O O4 0.000000 0.319043 0.696147
O O5 0.250000 0.427973 0.250000
O O6 0.193367 0.500000 0.344798
O O7 0.217603 0.424803 0.500000
O O8 0.162861 0.408192 0.287285
O O9 0.750000 0.927974 0.250000
O O10 0.837139 0.908191 0.287285
O O11 0.500000 0.819042 0.803852
O O12 0.570193 0.750000 0.804103
O O13 0.590780 0.847714 0.785493
O O14 0.967664 0.500000 0.500000
O O15 0.919153 0.448187 0.344070
O O16 0.919152 0.551814 0.344077
O O17 0.000000 0.500002 0.273863
O O18 0.411030 0.582091 0.614589
O O19 0.411031 0.582090 0.385407
O O20 0.500000 0.080307 0.500000
O O21 0.441915 0.000000 0.500000
#
# Coordination Sequence:
#
# PCOD8300781 Si02
#       8
#    16  16  16  16  16  16  16  16
#     4   9  18  33  54  80 109 141 180 226 276 332
#     4  10  21  36  55  78 109 142 186 236 289 343
#     4  10  21  36  55  78 109 142 186 236 289 343
#     4   9  18  33  54  80 109 141 180 226 276 332
#     4  11  20  29  48  77 107 135 170 219 274 333
#     4  12  21  34  54  75 110 146 186 226 276 332
#     4  12  21  34  54  75 110 146 186 226 276 332
#     4  11  22  34  49  77 117 155 186 219 273 344
#
# _framework density 17.148382000000002
#
# number of rings (size 3 to 8) (size 9 to 14) (size 15 to 20)
#    0.000    1.500    2.500    5.250    1.750    2.000 
#    0.000    0.625    0.000    3.000    0.000    0.000 
#    0.000    0.000    0.000    0.000    0.000    0.000 
#
# Total GULP energy -792922.800818 kJ/mol
# GULP energy per Si atom -12389.418763 kJ/mol
# Density = 1.710935 g / cm^3
# Si number density = 17.148382 Si / 1000 Ang^3
#
#
#
# Elastic Constant Matrix: (Units=GPa)
#
#
# Indices 1 2 3 4 5 6 
#
# 1 127.1991 63.0992 66.0305 0.0000 0.0000 0.0000
# 2 63.0992 113.5384 38.6730 0.0000 0.0000 0.0000
# 3 66.0305 38.6730 112.4706 0.0000 0.0000 0.0000
# 4 0.0000 0.0000 0.0000 15.5465 0.0000 0.0000
# 5 0.0000 0.0000 0.0000 0.0000 27.0002 0.0000
# 6 0.0000 0.0000 0.0000 0.0000 0.0000 38.6418
#
#
#
# Elastic Compliance Matrix: (Units=1/GPa)
#
#
# Indices 1 2 3 4 5 6 
#
# 1 0.013859 -0.005585 -0.006216 0.000000 0.000000 0.000000
# 2 -0.005585 0.012227 -0.000925 0.000000 0.000000 0.000000
# 3 -0.006216 -0.000925 0.012859 0.000000 0.000000 0.000000
# 4 0.000000 0.000000 0.000000 0.064323 0.000000 0.000000
# 5 0.000000 0.000000 0.000000 0.000000 0.037037 0.000000
# 6 0.000000 0.000000 0.000000 0.000000 0.000000 0.025879
#
#
# Mechanical properties :
#
#
# Convention : Reuss Voigt Hill
#
# Bulk Modulus (GPa) = 74.11902 76.53481 75.32692
# Shear Modulus (GPa) = 25.49292 28.59807 27.04550
#
# Velocity S-wave (km/s) = 3.85984 4.08816 3.97564
# Velocity P-wave (km/s) = 7.94861 8.18608 8.06822
#
# Compressibility (1/GPa) = 0.01349181
#
# Stress axis : x y z
#
# Youngs Moduli (GPa) = 72.15512 81.78925 77.76765
#
# Poissons Ratio (x) = 0.45678 0.48342
# Poissons Ratio (y) = 0.40298 0.07196
# Poissons Ratio (z) = 0.44853 0.07568
#
# Static dielectric constant tensor:
#      x y z
#    x 3.243790 0.000000 0.000000 
#    y 0.000000 2.763200 0.000000 
#    z 0.000000 0.000000 3.355980 
# 
# 
# High freq. dielectric constant tensor:
#      x y z
#    x 1.658130 0.000000 0.000000 
#    y 0.000000 1.640180 0.000000 
#    z 0.000000 0.000000 1.666620 
# 
# From -- ./inp_files/25603.got.cif
#   From: 2010.03.12/outbox.cif.g09.slc.cpg/sg74_13_cif.got.tgz:25603.got - 2010.04.16 15:46:19.
