data_PCOD8300767
_publ_section_title
;
Structure prediction by ZEFSAII (Michael W. Deem and Ramdas Pophale) SiO2 
 PCOD8300767
Probable space group: I M M A
;
_chemical_formula_sum "Si O2"
_cell_formula_units_Z 96
_cell_length_a 9.153772
_cell_length_b 28.667476
_cell_length_c 19.200276
_cell_angle_alpha 90.000000
_cell_angle_beta 90.000000
_cell_angle_gamma 90.000000
_cell_volume 5038.450778
_symmetry_space_group_name_H-M "I M M A"
_symmetry_group_IT_number 74
_symmetry_cell_setting 'orthorhombic'
loop_
_space_group_symop_operation_xyz
x,y,z
-x,1/2-y,z
x,-y,-z
-x,1/2+y,-z
-x,-y,-z
x,1/2+y,-z
-x,y,z
x,1/2-y,z
1/2+x,1/2+y,1/2+z
1/2-x,-y,1/2+z
1/2+x,1/2-y,1/2-z
1/2-x,y,1/2-z
1/2-x,1/2-y,1/2-z
1/2+x,y,1/2-z
1/2-x,1/2+y,1/2+z
1/2+x,-y,1/2+z
loop_
_atom_site_type_symbol
_atom_site_label
_atom_site_fract_x
_atom_site_fract_y
_atom_site_fract_z
Si Si1 0.334789 0.638595 0.087759
Si Si2 0.329081 0.302810 0.179235
Si Si3 0.673195 0.952027 0.176013
Si Si4 0.331112 0.617702 0.928788
Si Si5 0.826807 0.978557 0.924957
Si Si6 0.660689 0.304986 0.685485
O O1 0.500000 0.652054 0.105133
O O2 0.289283 0.591830 0.127637
O O3 0.234816 0.680967 0.113290
O O4 0.307906 0.634582 0.006719
O O5 0.500000 0.305663 0.193463
O O6 0.284489 0.250000 0.156598
O O7 0.250000 0.317605 0.250000
O O8 0.282235 0.339394 0.119951
O O9 0.500000 0.959570 0.185365
O O10 0.750000 0.945269 0.250000
O O11 0.743006 0.995898 0.137119
O O12 0.500000 0.603080 0.915786
O O13 0.223787 0.574613 0.917296
O O14 0.000000 0.982103 0.913762
O O15 0.781351 0.000000 0.000000
O O16 0.500000 0.326956 0.689370
O O17 0.654348 0.250000 0.690359
O O18 0.750000 0.326589 0.750000
#
# Coordination Sequence:
#
# PCOD8300767 Si02
#       6
#    16  16  16  16  16  16
#     4  10  21  36  57  84 112 148 189 235 290 346
#     4   9  19  37  61  88 119 155 195 241 294 353
#     4  11  23  39  60  86 116 151 195 241 291 350
#     4  10  21  38  61  88 117 154 195 238 293 351
#     4  11  23  39  60  86 117 156 197 242 296 352
#     4  10  21  36  54  77 108 147 189 234 284 337
#
# _framework density 19.053476
#
# number of rings (size 3 to 8) (size 9 to 14) (size 15 to 20)
#    0.000    1.833    1.667    2.000    0.000    7.000 
#    0.000    3.333    0.000    2.000    0.000    0.000 
#    0.000    0.000    0.000    0.000    0.000    0.000 
#
# Total GULP energy -595283.227969 kJ/mol
# GULP energy per Si atom -12401.733916 kJ/mol
# Density = 1.901011 g / cm^3
# Si number density = 19.053476 Si / 1000 Ang^3
#
#
#
# Elastic Constant Matrix: (Units=GPa)
#
#
# Indices 1 2 3 4 5 6 
#
# 1 94.0975 45.4798 59.9479 0.0001 0.0000 0.0000
# 2 45.4798 80.0385 67.6720 0.0000 0.0000 0.0000
# 3 59.9479 67.6720 113.5960 -0.0001 0.0000 0.0000
# 4 0.0001 0.0000 -0.0001 10.4714 -0.0001 0.0000
# 5 0.0000 0.0000 0.0000 -0.0001 30.6288 0.0000
# 6 0.0000 0.0000 0.0000 0.0000 0.0000 32.1744
#
#
#
# Elastic Compliance Matrix: (Units=1/GPa)
#
#
# Indices 1 2 3 4 5 6 
#
# 1 0.016650 -0.004094 -0.006348 0.000000 0.000000 0.000000
# 2 -0.004094 0.026180 -0.013436 0.000000 0.000000 0.000000
# 3 -0.006348 -0.013436 0.020157 0.000000 0.000000 0.000000
# 4 0.000000 0.000000 0.000000 0.095499 0.000000 0.000000
# 5 0.000000 0.000000 0.000000 0.000000 0.032649 0.000000
# 6 0.000000 0.000000 0.000000 0.000000 0.000000 0.031081
#
#
# Mechanical properties :
#
#
# Convention : Reuss Voigt Hill
#
# Bulk Modulus (GPa) = 65.64998 70.43684 68.04341
# Shear Modulus (GPa) = 18.17868 22.29705 20.23787
#
# Velocity S-wave (km/s) = 3.09218 3.42458 3.26262
# Velocity P-wave (km/s) = 6.87599 7.25846 7.06981
#
# Compressibility (1/GPa) = 0.01523230
#
# Stress axis : x y z
#
# Youngs Moduli (GPa) = 60.05962 38.19720 49.61050
#
# Poissons Ratio (x) = 0.15637 0.31492
# Poissons Ratio (y) = 0.24588 0.66655
# Poissons Ratio (z) = 0.38125 0.51320
#
# Static dielectric constant tensor:
#      x y z
#    x 3.635990 0.000000 0.000000 
#    y 0.000000 2.968650 0.000000 
#    z 0.000000 0.000000 3.584630 
# 
# 
# High freq. dielectric constant tensor:
#      x y z
#    x 1.746510 0.000000 0.000000 
#    y 0.000000 1.741320 0.000000 
#    z 0.000000 0.000000 1.744590 
# 
# From -- ./inp_files/49167.got.cif
#   From: 2010.03.12/outbox.cif.g09.slc.cpg/sg74_25_cif.got.tgz:49167.got - 2010.04.16 15:46:19.
