data_PCOD8300788
_publ_section_title
;
Structure prediction by ZEFSAII (Michael W. Deem and Ramdas Pophale) SiO2 
 PCOD8300788
Probable space group: I M M A
;
_chemical_formula_sum "Si O2"
_cell_formula_units_Z 112
_cell_length_a 14.248721
_cell_length_b 14.059514
_cell_length_c 26.725952
_cell_angle_alpha 90.000000
_cell_angle_beta 90.000000
_cell_angle_gamma 90.000000
_cell_volume 5354.012433
_symmetry_space_group_name_H-M "I M M A"
_symmetry_group_IT_number 74
_symmetry_cell_setting 'orthorhombic'
loop_
_space_group_symop_operation_xyz
x,y,z
-x,1/2-y,z
x,-y,-z
-x,1/2+y,-z
-x,-y,-z
x,1/2+y,-z
-x,y,z
x,1/2-y,z
1/2+x,1/2+y,1/2+z
1/2-x,-y,1/2+z
1/2+x,1/2-y,1/2-z
1/2-x,y,1/2-z
1/2-x,1/2-y,1/2-z
1/2+x,y,1/2-z
1/2-x,1/2+y,1/2+z
1/2+x,-y,1/2+z
loop_
_atom_site_type_symbol
_atom_site_label
_atom_site_fract_x
_atom_site_fract_y
_atom_site_fract_z
Si Si1 0.391663 0.505638 0.780522
Si Si2 0.207556 0.861778 0.463237
Si Si3 0.722359 0.637916 0.842821
Si Si4 0.895727 0.359677 0.917517
Si Si5 0.606676 0.990383 0.666658
Si Si6 0.893977 0.863106 0.560702
Si Si7 0.110113 0.857937 0.363857
O O1 0.500000 0.531756 0.789579
O O2 0.329163 0.597890 0.793468
O O3 0.372525 0.476815 0.723362
O O4 0.359014 0.418557 0.815636
O O5 0.188051 0.750000 0.464867
O O6 0.319273 0.884373 0.460416
O O7 0.163006 0.907049 0.513387
O O8 0.157871 0.902834 0.413428
O O9 0.731529 0.750000 0.837947
O O10 0.826500 0.596042 0.849517
O O11 0.659132 0.604578 0.889491
O O12 0.886478 0.250000 0.901573
O O13 0.874281 0.418184 0.867463
O O14 0.000000 0.382047 0.938843
O O15 0.500000 0.953544 0.660837
O O16 0.896214 0.750000 0.557548
O O17 0.000000 0.903837 0.561275
O O18 0.144332 0.750000 0.354576
O O19 0.000000 0.861804 0.372805
#
# Coordination Sequence:
#
# PCOD8300788 Si02
#       7
#    16  16  16  16  16  16  16
#     4  10  21  36  55  81 111 142 180 226 273 323
#     4   9  16  29  52  81 112 145 178 214 260 315
#     4  11  23  39  58  78 104 141 184 232 283 328
#     4   9  18  34  57  83 111 145 182 217 258 314
#     4  10  22  39  57  79 109 143 181 227 273 319
#     4   9  18  34  57  83 109 139 177 221 270 323
#     4   9  17  30  51  81 116 149 177 210 260 324
#
# _framework density 20.918890000000001
#
# number of rings (size 3 to 8) (size 9 to 14) (size 15 to 20)
#    0.000    2.429    0.000    2.143    0.000    4.571 
#    0.000    7.857    0.000   13.714    0.000    0.000 
#    0.000    0.000    0.000    0.000    0.000    0.000 
#
# Total GULP energy -694429.134886 kJ/mol
# GULP energy per Si atom -12400.520266 kJ/mol
# Density = 2.087128 g / cm^3
# Si number density = 20.918890 Si / 1000 Ang^3
#
#
#
# Elastic Constant Matrix: (Units=GPa)
#
#
# Indices 1 2 3 4 5 6 
#
# 1 111.6053 21.7180 50.5782 0.0000 0.0000 0.0000
# 2 21.7180 47.0439 8.3067 0.0000 0.0000 0.0000
# 3 50.5782 8.3067 85.5944 0.0000 0.0000 0.0000
# 4 0.0000 0.0000 0.0000 11.0421 0.0000 0.0000
# 5 0.0000 0.0000 0.0000 0.0000 35.8639 0.0000
# 6 0.0000 0.0000 0.0000 0.0000 0.0000 30.1969
#
#
#
# Elastic Compliance Matrix: (Units=1/GPa)
#
#
# Indices 1 2 3 4 5 6 
#
# 1 0.013226 -0.004808 -0.007349 0.000000 0.000000 0.000000
# 2 -0.004808 0.023375 0.000573 0.000000 0.000000 0.000000
# 3 -0.007349 0.000573 0.015970 0.000000 0.000000 0.000000
# 4 0.000000 0.000000 0.000000 0.090562 0.000000 0.000000
# 5 0.000000 0.000000 0.000000 0.000000 0.027883 0.000000
# 6 0.000000 0.000000 0.000000 0.000000 0.000000 0.033116
#
#
# Mechanical properties :
#
#
# Convention : Reuss Voigt Hill
#
# Bulk Modulus (GPa) = 34.01048 45.04993 39.53021
# Shear Modulus (GPa) = 21.08791 26.32996 23.70893
#
# Velocity S-wave (km/s) = 3.17847 3.55162 3.37021
# Velocity P-wave (km/s) = 5.45562 6.19685 5.83801
#
# Compressibility (1/GPa) = 0.02940270
#
# Stress axis : x y z
#
# Youngs Moduli (GPa) = 75.60729 42.78004 62.61791
#
# Poissons Ratio (x) = 0.20570 0.46017
# Poissons Ratio (y) = 0.36355 -0.03587
# Poissons Ratio (z) = 0.55562 -0.02450
#
# Static dielectric constant tensor:
#      x y z
#    x 4.052490 0.000000 0.000000 
#    y 0.000000 3.574430 0.000000 
#    z 0.000000 0.000000 3.814170 
# 
# 
# High freq. dielectric constant tensor:
#      x y z
#    x 1.833410 0.000000 0.000000 
#    y 0.000000 1.805910 0.000000 
#    z 0.000000 0.000000 1.811250 
# 
# From -- ./inp_files/60195.got.cif
#   From: 2010.03.12/outbox.cif.g09.slc.cpg/sg74_31_cif.got.tgz:60195.got - 2010.04.16 15:46:19.
