data_PCOD8300925
_publ_section_title
;
Structure prediction by ZEFSAII (Michael W. Deem and Ramdas Pophale) SiO2 
 PCOD8300925
Probable space group: I M M A
;
_chemical_formula_sum "Si O2"
_cell_formula_units_Z 88
_cell_length_a 14.970268
_cell_length_b 10.585519
_cell_length_c 29.684338
_cell_angle_alpha 90.000000
_cell_angle_beta 90.000000
_cell_angle_gamma 90.000000
_cell_volume 4704.019347
_symmetry_space_group_name_H-M "I M M A"
_symmetry_group_IT_number 74
_symmetry_cell_setting 'orthorhombic'
loop_
_space_group_symop_operation_xyz
x,y,z
-x,1/2-y,z
x,-y,-z
-x,1/2+y,-z
-x,-y,-z
x,1/2+y,-z
-x,y,z
x,1/2-y,z
1/2+x,1/2+y,1/2+z
1/2-x,-y,1/2+z
1/2+x,1/2-y,1/2-z
1/2-x,y,1/2-z
1/2-x,1/2-y,1/2-z
1/2+x,y,1/2-z
1/2-x,1/2+y,1/2+z
1/2+x,-y,1/2+z
loop_
_atom_site_type_symbol
_atom_site_label
_atom_site_fract_x
_atom_site_fract_y
_atom_site_fract_z
Si Si1 0.099046 0.750000 0.028587
Si Si2 0.686136 0.999937 0.293906
Si Si3 0.897689 0.250000 0.173408
Si Si4 0.500000 0.598608 0.168327
Si Si5 0.774540 0.018460 0.950531
Si Si6 0.816658 0.395830 0.633169
Si Si7 0.500000 0.895319 0.266971
Si Si8 0.351259 0.750000 0.571351
O O1 0.144318 0.620018 0.045967
O O2 0.000000 0.750000 0.049168
O O3 0.089570 0.750000 0.974081
O O4 0.750000 0.984502 0.250000
O O5 0.658985 0.140916 0.303967
O O6 0.737539 0.952335 0.337481
O O7 0.592040 0.926200 0.292219
O O8 0.903039 0.250000 0.118859
O O9 0.000000 0.250000 0.190781
O O10 0.500000 0.750000 0.166727
O O11 0.587733 0.542501 0.144321
O O12 0.500000 0.538661 0.218208
O O13 0.699629 0.080406 0.919432
O O14 0.796728 0.881302 0.929686
O O15 0.732899 0.000000 0.000000
O O16 0.819844 0.250000 0.644937
O O17 0.500000 0.750000 0.257233
#
# Coordination Sequence:
#
# PCOD8300925 Si02
#       8
#     8  16   8   8  16  16   8   8
#     4  10  21  38  59  86 117 155 203 249 296 354
#     4  12  24  40  61  83 122 158 198 244 296 351
#     4  12  24  39  56  83 119 162 203 237 283 349
#     4   9  20  36  64  88 118 147 198 243 303 361
#     4  10  21  38  60  86 120 157 196 247 301 352
#     4  11  21  39  63  93 117 154 195 250 303 352
#     4  11  22  39  59  92 115 152 192 244 301 354
#     4  10  21  37  59  84 117 163 194 239 294 357
#
# _framework density 18.707405999999999
#
# number of rings (size 3 to 8) (size 9 to 14) (size 15 to 20)
#    0.000    1.273    5.455    1.091    0.000    4.727 
#    1.636    0.455    0.000    1.636    0.000    0.000 
#    0.000    0.000    0.000    0.000    0.000    0.000 
#
# Total GULP energy -545192.336883 kJ/mol
# GULP energy per Si atom -12390.734929 kJ/mol
# Density = 1.866483 g / cm^3
# Si number density = 18.707406 Si / 1000 Ang^3
#
#
#
# Elastic Constant Matrix: (Units=GPa)
#
#
# Indices 1 2 3 4 5 6 
#
# 1 141.4795 20.5721 47.9583 0.0000 0.0000 0.0000
# 2 20.5721 74.2137 3.3764 0.0000 0.0000 0.0000
# 3 47.9583 3.3764 81.0187 0.0000 0.0000 0.0000
# 4 0.0000 0.0000 0.0000 25.3795 0.0000 0.0000
# 5 0.0000 0.0000 0.0000 0.0000 30.6540 0.0000
# 6 0.0000 0.0000 0.0000 0.0000 0.0000 21.0575
#
#
#
# Elastic Compliance Matrix: (Units=1/GPa)
#
#
# Indices 1 2 3 4 5 6 
#
# 1 0.009222 -0.002312 -0.005363 0.000000 0.000000 0.000000
# 2 -0.002312 0.014080 0.000782 0.000000 0.000000 0.000000
# 3 -0.005363 0.000782 0.015485 0.000000 0.000000 0.000000
# 4 0.000000 0.000000 0.000000 0.039402 0.000000 0.000000
# 5 0.000000 0.000000 0.000000 0.000000 0.032622 0.000000
# 6 0.000000 0.000000 0.000000 0.000000 0.000000 0.047489
#
#
# Mechanical properties :
#
#
# Convention : Reuss Voigt Hill
#
# Bulk Modulus (GPa) = 39.99869 48.94726 44.47298
# Shear Modulus (GPa) = 27.71318 30.40521 29.05920
#
# Velocity S-wave (km/s) = 3.85307 4.03588 3.94554
# Velocity P-wave (km/s) = 6.42048 6.92381 6.67689
#
# Compressibility (1/GPa) = 0.02500082
#
# Stress axis : x y z
#
# Youngs Moduli (GPa) = 108.43381 71.02257 64.58025
#
# Poissons Ratio (x) = 0.16423 0.34632
# Poissons Ratio (y) = 0.25075 -0.05051
# Poissons Ratio (z) = 0.58149 -0.05554
#
# Static dielectric constant tensor:
#      x y z
#    x 2.468730 0.000000 0.000000 
#    y 0.000000 3.500100 0.000000 
#    z 0.000000 0.000000 3.557920 
# 
# 
# High freq. dielectric constant tensor:
#      x y z
#    x 1.715790 0.000000 0.000000 
#    y 0.000000 1.729500 0.000000 
#    z 0.000000 0.000000 1.734010 
# 
# From -- ./inp_files/67047.got.cif
#   From: 2010.03.12/outbox.cif.g09.slc.cpg/sg74_34_cif.got.tgz:67047.got - 2010.04.16 15:46:19.
