data_PCOD8300908
_publ_section_title
;
Structure prediction by ZEFSAII (Michael W. Deem and Ramdas Pophale) SiO2 
 PCOD8300908
Probable space group: I M M A
;
_chemical_formula_sum "Si O2"
_cell_formula_units_Z 96
_cell_length_a 24.217690
_cell_length_b 9.572900
_cell_length_c 20.986952
_cell_angle_alpha 90.000000
_cell_angle_beta 90.000000
_cell_angle_gamma 90.000000
_cell_volume 4865.479053
_symmetry_space_group_name_H-M "I M M A"
_symmetry_group_IT_number 74
_symmetry_cell_setting 'orthorhombic'
loop_
_space_group_symop_operation_xyz
x,y,z
-x,1/2-y,z
x,-y,-z
-x,1/2+y,-z
-x,-y,-z
x,1/2+y,-z
-x,y,z
x,1/2-y,z
1/2+x,1/2+y,1/2+z
1/2-x,-y,1/2+z
1/2+x,1/2-y,1/2-z
1/2-x,y,1/2-z
1/2-x,1/2-y,1/2-z
1/2+x,y,1/2-z
1/2-x,1/2+y,1/2+z
1/2+x,-y,1/2+z
loop_
_atom_site_type_symbol
_atom_site_label
_atom_site_fract_x
_atom_site_fract_y
_atom_site_fract_z
Si Si1 0.240226 0.411227 0.824676
Si Si2 0.363353 0.910186 0.675817
Si Si3 0.937775 0.093036 0.054630
Si Si4 0.061472 0.407119 0.742751
Si Si5 0.940864 0.908453 0.407495
Si Si6 0.178352 0.415446 0.560014
O O1 0.222784 0.250000 0.832321
O O2 0.250000 0.444834 0.750000
O O3 0.191548 0.512266 0.846946
O O4 0.291156 0.445678 0.872326
O O5 0.350231 0.750000 0.693757
O O6 0.406102 0.923642 0.619451
O O7 0.391608 0.986023 0.735330
O O8 0.936315 0.250000 0.029188
O O9 0.000000 0.041187 0.067457
O O10 0.909430 0.000000 0.000000
O O11 0.076191 0.250000 0.766173
O O12 0.062769 0.412667 0.667710
O O13 0.000000 0.448653 0.767340
O O14 0.942341 0.750000 0.431287
O O15 0.884658 0.975730 0.434893
O O16 0.000000 0.980106 0.428850
O O17 0.205193 0.500000 0.500000
O O18 0.180611 0.250000 0.545844
#
# Coordination Sequence:
#
# PCOD8300908 Si02
#       6
#    16  16  16  16  16  16
#     4  10  22  41  62  80 103 143 195 240 274 322
#     4  11  22  34  52  79 110 140 173 223 284 337
#     4   9  19  35  52  72 102 139 176 216 265 321
#     4   9  17  31  54  82 110 143 185 227 264 313
#     4   8  15  31  56  83 109 140 180 221 260 311
#     4  10  21  37  58  83 112 145 180 226 280 330
#
# _framework density 19.730843
#
# number of rings (size 3 to 8) (size 9 to 14) (size 15 to 20)
#    0.000    2.500    0.000    3.000    0.000    7.000 
#    0.000    7.500    0.000    1.000    0.000    0.000 
#    0.000    0.000    0.000    0.000    0.000    0.000 
#
# Total GULP energy -594752.801333 kJ/mol
# GULP energy per Si atom -12390.683361 kJ/mol
# Density = 1.968594 g / cm^3
# Si number density = 19.730843 Si / 1000 Ang^3
#
#
#
# Elastic Constant Matrix: (Units=GPa)
#
#
# Indices 1 2 3 4 5 6 
#
# 1 103.4064 48.3184 36.6769 0.0000 0.0000 0.0000
# 2 48.3184 72.5703 36.3493 0.0000 0.0000 0.0000
# 3 36.6769 36.3493 87.0626 0.0000 0.0000 0.0000
# 4 0.0000 0.0000 0.0000 28.4273 0.0000 0.0000
# 5 0.0000 0.0000 0.0000 0.0000 26.4022 0.0000
# 6 0.0000 0.0000 0.0000 0.0000 0.0000 59.3919
#
#
#
# Elastic Compliance Matrix: (Units=1/GPa)
#
#
# Indices 1 2 3 4 5 6 
#
# 1 0.014498 -0.008337 -0.002627 0.000000 0.000000 0.000000
# 2 -0.008337 0.022218 -0.005764 0.000000 0.000000 0.000000
# 3 -0.002627 -0.005764 0.014999 0.000000 0.000000 0.000000
# 4 0.000000 0.000000 0.000000 0.035177 0.000000 0.000000
# 5 0.000000 0.000000 0.000000 0.000000 0.037876 0.000000
# 6 0.000000 0.000000 0.000000 0.000000 0.000000 0.016837
#
#
# Mechanical properties :
#
#
# Convention : Reuss Voigt Hill
#
# Bulk Modulus (GPa) = 54.76713 56.19206 55.47960
# Shear Modulus (GPa) = 27.60185 32.29061 29.94623
#
# Velocity S-wave (km/s) = 3.74427 4.04982 3.90004
# Velocity P-wave (km/s) = 6.81983 7.09995 6.96130
#
# Compressibility (1/GPa) = 0.01825913
#
# Stress axis : x y z
#
# Youngs Moduli (GPa) = 68.97509 45.00883 66.67118
#
# Poissons Ratio (x) = 0.37525 0.17512
# Poissons Ratio (y) = 0.57507 0.38428
# Poissons Ratio (z) = 0.18118 0.25942
#
# Static dielectric constant tensor:
#      x y z
#    x 3.861820 0.000000 0.000000 
#    y 0.000000 3.547500 0.000000 
#    z 0.000000 0.000000 3.454770 
# 
# 
# High freq. dielectric constant tensor:
#      x y z
#    x 1.775210 0.000000 0.000000 
#    y 0.000000 1.747480 0.000000 
#    z 0.000000 0.000000 1.765350 
# 
# From -- ./inp_files/61906.got.cif
#   From: 2010.03.12/outbox.cif.g09.slc.cpg/sg74_31_cif.got.tgz:61906.got - 2010.04.16 15:46:19.
