data_PCOD8300485
_publ_section_title
;
Structure prediction by ZEFSAII (Michael W. Deem and Ramdas Pophale) SiO2 
 PCOD8300485
Probable space group: I M M A
;
_chemical_formula_sum "Si O2"
_cell_formula_units_Z 112
_cell_length_a 26.951530
_cell_length_b 13.955336
_cell_length_c 14.424269
_cell_angle_alpha 90.000000
_cell_angle_beta 90.000000
_cell_angle_gamma 90.000000
_cell_volume 5425.222258
_symmetry_space_group_name_H-M "I M M A"
_symmetry_group_IT_number 74
_symmetry_cell_setting 'orthorhombic'
loop_
_space_group_symop_operation_xyz
x,y,z
-x,1/2-y,z
x,-y,-z
-x,1/2+y,-z
-x,-y,-z
x,1/2+y,-z
-x,y,z
x,1/2-y,z
1/2+x,1/2+y,1/2+z
1/2-x,-y,1/2+z
1/2+x,1/2-y,1/2-z
1/2-x,y,1/2-z
1/2-x,1/2-y,1/2-z
1/2+x,y,1/2-z
1/2-x,1/2+y,1/2+z
1/2+x,-y,1/2+z
loop_
_atom_site_type_symbol
_atom_site_label
_atom_site_fract_x
_atom_site_fract_y
_atom_site_fract_z
Si Si1 0.660125 0.138572 0.464136
Si Si2 0.868402 0.043614 0.853963
Si Si3 0.648451 0.146086 0.097528
Si Si4 0.945087 0.610126 0.482111
Si Si5 0.557665 0.141205 0.773844
Si Si6 0.234247 0.858838 0.455081
Si Si7 0.297188 0.505234 0.206707
O O1 0.651867 0.250000 0.436036
O O2 0.631569 0.115714 0.559506
O O3 0.718244 0.114143 0.481251
O O4 0.637548 0.068316 0.385218
O O5 0.918386 0.064317 0.796247
O O6 0.822833 0.070348 0.785809
O O7 0.660020 0.250000 0.141488
O O8 0.658954 0.065830 0.174251
O O9 0.592418 0.149667 0.059387
O O10 0.685333 0.123456 0.014184
O O11 0.950790 0.500000 0.500000
O O12 0.922804 0.629339 0.379601
O O13 0.000000 0.658394 0.492170
O O14 0.500000 0.117079 0.772647
O O15 0.568928 0.250000 0.741349
O O16 0.239343 0.750000 0.420160
O O17 0.227978 0.927406 0.368649
O O18 0.250000 0.447496 0.250000
#
# Coordination Sequence:
#
# PCOD8300485 Si02
#       7
#    16  16  16  16  16  16  16
#     4  10  22  40  59  82 114 156 199 244 304 365
#     4  11  22  37  61  87 113 155 197 248 299 355
#     4  11  23  36  55  83 118 163 202 236 286 351
#     4  10  20  37  61  89 121 159 200 244 294 348
#     4  10  21  38  62  92 124 156 195 246 301 356
#     4  10  21  37  57  82 116 155 196 240 294 357
#     4  12  23  36  57  84 120 155 197 247 294 344
#
# _framework density 20.644316
#
# number of rings (size 3 to 8) (size 9 to 14) (size 15 to 20)
#    0.000    1.429    1.429    4.714    2.000    4.286 
#    0.000    1.429    0.000    1.286    0.000    0.000 
#    0.000    0.000    0.000    0.000    0.000    0.000 
#
# Total GULP energy -694075.719766 kJ/mol
# GULP energy per Si atom -12394.209282 kJ/mol
# Density = 2.059733 g / cm^3
# Si number density = 20.644316 Si / 1000 Ang^3
#
#
#
# Elastic Constant Matrix: (Units=GPa)
#
#
# Indices 1 2 3 4 5 6 
#
# 1 89.8502 28.0315 41.8788 0.0000 0.0000 0.0000
# 2 28.0315 118.1943 45.6475 0.0000 0.0000 0.0000
# 3 41.8788 45.6475 79.0306 0.0000 0.0000 0.0000
# 4 0.0000 0.0000 0.0000 14.9870 0.0000 0.0000
# 5 0.0000 0.0000 0.0000 0.0000 39.6307 0.0000
# 6 0.0000 0.0000 0.0000 0.0000 0.0000 30.6770
#
#
#
# Elastic Compliance Matrix: (Units=1/GPa)
#
#
# Indices 1 2 3 4 5 6 
#
# 1 0.014815 -0.000620 -0.007493 0.000000 0.000000 0.000000
# 2 -0.000620 0.010916 -0.005976 0.000000 0.000000 0.000000
# 3 -0.007493 -0.005976 0.020076 0.000000 0.000000 0.000000
# 4 0.000000 0.000000 0.000000 0.066724 0.000000 0.000000
# 5 0.000000 0.000000 0.000000 0.000000 0.025233 0.000000
# 6 0.000000 0.000000 0.000000 0.000000 0.000000 0.032598
#
#
# Mechanical properties :
#
#
# Convention : Reuss Voigt Hill
#
# Bulk Modulus (GPa) = 56.72531 57.57675 57.15103
# Shear Modulus (GPa) = 24.45992 28.49344 26.47668
#
# Velocity S-wave (km/s) = 3.44586 3.71914 3.58511
# Velocity P-wave (km/s) = 6.58552 6.81125 6.69934
#
# Compressibility (1/GPa) = 0.01762881
#
# Stress axis : x y z
#
# Youngs Moduli (GPa) = 67.49760 91.61040 49.81166
#
# Poissons Ratio (x) = 0.05679 0.37322
# Poissons Ratio (y) = 0.04185 0.29769
# Poissons Ratio (z) = 0.50574 0.54750
#
# Static dielectric constant tensor:
#      x y z
#    x 3.910150 0.000000 0.000000 
#    y 0.000000 3.787770 0.000000 
#    z 0.000000 0.000000 3.735180 
# 
# 
# High freq. dielectric constant tensor:
#      x y z
#    x 1.800830 0.000000 0.000000 
#    y 0.000000 1.809350 0.000000 
#    z 0.000000 0.000000 1.800410 
# 
# From -- ./inp_files/32879.got.cif
#   From: 2010.03.12/outbox.cif.g09.slc.cpg/sg74_17_cif.got.tgz:32879.got - 2010.04.16 15:46:19.
