data_PCOD8300335
_publ_section_title
;
Structure prediction by ZEFSAII (Michael W. Deem and Ramdas Pophale) SiO2 
 PCOD8300335
Probable space group: I M M A
;
_chemical_formula_sum "Si O2"
_cell_formula_units_Z 64
_cell_length_a 8.988367
_cell_length_b 13.141894
_cell_length_c 27.445112
_cell_angle_alpha 90.000000
_cell_angle_beta 90.000000
_cell_angle_gamma 90.000000
_cell_volume 3241.930975
_symmetry_space_group_name_H-M "I M M A"
_symmetry_group_IT_number 74
_symmetry_cell_setting 'orthorhombic'
loop_
_space_group_symop_operation_xyz
x,y,z
-x,1/2-y,z
x,-y,-z
-x,1/2+y,-z
-x,-y,-z
x,1/2+y,-z
-x,y,z
x,1/2-y,z
1/2+x,1/2+y,1/2+z
1/2-x,-y,1/2+z
1/2+x,1/2-y,1/2-z
1/2-x,y,1/2-z
1/2-x,1/2-y,1/2-z
1/2+x,y,1/2-z
1/2-x,1/2+y,1/2+z
1/2+x,-y,1/2+z
loop_
_atom_site_type_symbol
_atom_site_label
_atom_site_fract_x
_atom_site_fract_y
_atom_site_fract_z
Si Si1 0.825841 0.367312 0.869068
Si Si2 0.839028 0.108635 0.979295
Si Si3 0.322679 0.034368 0.198507
Si Si4 0.326672 0.250000 0.047171
Si Si5 0.176644 0.750000 0.655527
O O1 0.791723 0.250000 0.854125
O O2 0.774757 0.385839 0.924752
O O3 0.729928 0.445561 0.837585
O O4 0.000000 0.392152 0.862221
O O5 0.721524 0.153049 0.016752
O O6 0.000000 0.165696 0.979377
O O7 0.868153 0.000000 0.000000
O O8 0.500000 0.030431 0.202282
O O9 0.250000 0.009917 0.250000
O O10 0.267105 0.146806 0.181823
O O11 0.500000 0.250000 0.054138
O O12 0.254644 0.250000 0.101052
O O13 0.000000 0.750000 0.654291
#
# Coordination Sequence:
#
# PCOD8300335 Si02
#       5
#    16  16  16   8   8
#     4  10  21  39  60  85 122 160 198 247 296 349
#     4  10  20  36  58  84 117 157 199 242 288 342
#     4  11  23  41  64  88 117 153 200 250 306 362
#     4  11  21  34  56  86 121 155 190 232 289 350
#     4   9  21  40  60  88 124 157 191 246 303 360
#
# _framework density 19.741320000000002
#
# number of rings (size 3 to 8) (size 9 to 14) (size 15 to 20)
#    0.000    1.750    1.250    3.000    0.000    2.500 
#    0.000    5.625    0.000    0.000    0.000    0.000 
#    0.000    0.000    0.000    0.000    0.000    0.000 
#
# Total GULP energy -396612.500964 kJ/mol
# GULP energy per Si atom -12394.140655 kJ/mol
# Density = 1.969639 g / cm^3
# Si number density = 19.741320 Si / 1000 Ang^3
#
#
#
# Elastic Constant Matrix: (Units=GPa)
#
#
# Indices 1 2 3 4 5 6 
#
# 1 61.9122 33.2385 34.2199 0.0000 0.0000 0.0000
# 2 33.2385 138.4900 49.5004 0.0000 0.0000 0.0000
# 3 34.2199 49.5004 124.8396 0.0000 0.0000 0.0000
# 4 0.0000 0.0000 0.0000 28.5510 0.0000 0.0000
# 5 0.0000 0.0000 0.0000 0.0000 30.9597 0.0000
# 6 0.0000 0.0000 0.0000 0.0000 0.0000 25.4144
#
#
#
# Elastic Compliance Matrix: (Units=1/GPa)
#
#
# Indices 1 2 3 4 5 6 
#
# 1 0.020293 -0.003358 -0.004231 0.000000 0.000000 0.000000
# 2 -0.003358 0.008969 -0.002636 0.000000 0.000000 0.000000
# 3 -0.004231 -0.002636 0.010215 0.000000 0.000000 0.000000
# 4 0.000000 0.000000 0.000000 0.035025 0.000000 0.000000
# 5 0.000000 0.000000 0.000000 0.000000 0.032300 0.000000
# 6 0.000000 0.000000 0.000000 0.000000 0.000000 0.039348
#
#
# Mechanical properties :
#
#
# Convention : Reuss Voigt Hill
#
# Bulk Modulus (GPa) = 52.55592 62.12881 57.34237
# Shear Modulus (GPa) = 28.91131 30.87056 29.89094
#
# Velocity S-wave (km/s) = 3.83104 3.95872 3.89540
# Velocity P-wave (km/s) = 6.80068 7.24121 7.02440
#
# Compressibility (1/GPa) = 0.01902735
#
# Stress axis : x y z
#
# Youngs Moduli (GPa) = 49.27704 111.49740 97.89381
#
# Poissons Ratio (x) = 0.37444 0.41419
# Poissons Ratio (y) = 0.16548 0.25802
# Poissons Ratio (z) = 0.20849 0.29387
#
# Static dielectric constant tensor:
#      x y z
#    x 3.395990 0.000000 0.000000 
#    y 0.000000 3.714620 0.000000 
#    z 0.000000 0.000000 3.678160 
# 
# 
# High freq. dielectric constant tensor:
#      x y z
#    x 1.753330 0.000000 0.000000 
#    y 0.000000 1.786190 0.000000 
#    z 0.000000 0.000000 1.778970 
# 
# From -- ./inp_files/56433.got.cif
#   From: 2010.03.12/outbox.cif.g09.slc.cpg/sg74_29_cif.got.tgz:56433.got - 2010.04.16 15:46:19.
