data_PCOD8300012
_publ_section_title
;
Structure prediction by ZEFSAII (Michael W. Deem and Ramdas Pophale) SiO2 
 PCOD8300012
Probable space group: I M M A
;
_chemical_formula_sum "Si O2"
_cell_formula_units_Z 96
_cell_length_a 16.859483
_cell_length_b 23.319992
_cell_length_c 12.482722
_cell_angle_alpha 90.000000
_cell_angle_beta 90.000000
_cell_angle_gamma 90.000000
_cell_volume 4907.744538
_symmetry_space_group_name_H-M "I M M A"
_symmetry_group_IT_number 74
_symmetry_cell_setting 'orthorhombic'
loop_
_space_group_symop_operation_xyz
x,y,z
-x,1/2-y,z
x,-y,-z
-x,1/2+y,-z
-x,-y,-z
x,1/2+y,-z
-x,y,z
x,1/2-y,z
1/2+x,1/2+y,1/2+z
1/2-x,-y,1/2+z
1/2+x,1/2-y,1/2-z
1/2-x,y,1/2-z
1/2-x,1/2-y,1/2-z
1/2+x,y,1/2-z
1/2-x,1/2+y,1/2+z
1/2+x,-y,1/2+z
loop_
_atom_site_type_symbol
_atom_site_label
_atom_site_fract_x
_atom_site_fract_y
_atom_site_fract_z
Si Si1 0.325469 0.125614 0.877111
Si Si2 0.905586 0.048776 0.201617
Si Si3 0.348700 0.926241 0.336713
Si Si4 0.907840 0.059770 0.448483
Si Si5 0.411005 0.864812 0.527344
Si Si6 0.834999 0.250000 0.702748
Si Si7 0.406422 0.250000 0.567851
O O1 0.375178 0.096298 0.780386
O O2 0.235625 0.102331 0.867440
O O3 0.340351 0.193634 0.870510
O O4 0.359359 0.109391 0.992522
O O5 0.886260 0.062747 0.324052
O O6 0.874272 0.102480 0.130263
O O7 0.000000 0.036444 0.184847
O O8 0.851518 0.995138 0.165179
O O9 0.411509 0.906785 0.425223
O O10 0.000000 0.070444 0.468678
O O11 0.880427 0.000000 0.500000
O O12 0.500000 0.849545 0.559105
O O13 0.367592 0.805478 0.491844
O O14 0.750000 0.250000 0.750000
O O15 0.893962 0.250000 0.804143
O O16 0.500000 0.250000 0.552170
#
# Coordination Sequence:
#
# PCOD8300012 Si02
#       7
#    16  16  16  16  16   8   8
#     4  11  23  36  57  85 114 149 190 235 283 340
#     4  10  21  38  59  84 119 156 186 231 290 341
#     4  11  20  35  55  86 115 148 184 238 286 342
#     4  10  21  38  58  79 112 153 192 231 280 343
#     4  10  20  35  56  85 115 147 190 235 285 337
#     4  12  20  40  59  78 116 152 187 233 294 333
#     4  10  20  34  57  86 113 146 189 236 281 338
#
# _framework density 19.560919999999999
#
# number of rings (size 3 to 8) (size 9 to 14) (size 15 to 20)
#    0.000    1.500    5.000    1.000    0.000    4.000 
#    0.000    0.833    0.000    2.000    0.000    3.500 
#    0.000    0.000    0.000    0.000    0.000    0.000 
#
# Total GULP energy -594879.954135 kJ/mol
# GULP energy per Si atom -12393.332378 kJ/mol
# Density = 1.951640 g / cm^3
# Si number density = 19.560920 Si / 1000 Ang^3
#
#
#
# Elastic Constant Matrix: (Units=GPa)
#
#
# Indices 1 2 3 4 5 6 
#
# 1 27.2083 37.7575 26.9282 0.0000 0.0000 0.0000
# 2 37.7575 182.5847 86.0638 0.0000 0.0000 0.0000
# 3 26.9282 86.0638 124.6108 0.0000 0.0000 0.0000
# 4 0.0000 0.0000 0.0000 42.6776 0.0000 0.0000
# 5 0.0000 0.0000 0.0000 0.0000 21.3841 0.0000
# 6 0.0000 0.0000 0.0000 0.0000 0.0000 22.8828
#
#
#
# Elastic Compliance Matrix: (Units=1/GPa)
#
#
# Indices 1 2 3 4 5 6 
#
# 1 0.054323 -0.008452 -0.005902 0.000000 0.000000 0.000000
# 2 -0.008452 0.009436 -0.004690 0.000000 0.000000 0.000000
# 3 -0.005902 -0.004690 0.012540 0.000000 0.000000 0.000000
# 4 0.000000 0.000000 0.000000 0.023431 0.000000 0.000000
# 5 0.000000 0.000000 0.000000 0.000000 0.046764 0.000000
# 6 0.000000 0.000000 0.000000 0.000000 0.000000 0.043701
#
#
# Mechanical properties :
#
#
# Convention : Reuss Voigt Hill
#
# Bulk Modulus (GPa) = 26.17066 70.65587 48.41326
# Shear Modulus (GPa) = 20.74517 29.63253 25.18885
#
# Velocity S-wave (km/s) = 3.26013 3.89637 3.59236
# Velocity P-wave (km/s) = 5.25160 7.51277 6.48155
#
# Compressibility (1/GPa) = 0.03821073
#
# Stress axis : x y z
#
# Youngs Moduli (GPa) = 18.40825 105.98191 79.74612
#
# Poissons Ratio (x) = 0.89575 0.47065
# Poissons Ratio (y) = 0.15558 0.37404
# Poissons Ratio (z) = 0.10864 0.49709
#
# Static dielectric constant tensor:
#      x y z
#    x 3.299350 0.000000 0.000000 
#    y 0.000000 3.658320 0.000000 
#    z 0.000000 0.000000 3.670770 
# 
# 
# High freq. dielectric constant tensor:
#      x y z
#    x 1.737290 0.000000 0.000000 
#    y 0.000000 1.764480 0.000000 
#    z 0.000000 0.000000 1.760320 
# 
# From -- ./inp_files/22541.got.cif
#   From: 2010.03.12/outbox.cif.g09.slc.cpg/sg74_12_cif.got.tgz:22541.got - 2010.04.16 15:46:19.
