data_PCOD8300345
_publ_section_title
;
Structure prediction by ZEFSAII (Michael W. Deem and Ramdas Pophale) SiO2 
 PCOD8300345
Probable space group: I M M A
;
_chemical_formula_sum "Si O2"
_cell_formula_units_Z 88
_cell_length_a 15.368760
_cell_length_b 18.539745
_cell_length_c 16.336312
_cell_angle_alpha 90.000000
_cell_angle_beta 90.000000
_cell_angle_gamma 90.000000
_cell_volume 4654.752612
_symmetry_space_group_name_H-M "I M M A"
_symmetry_group_IT_number 74
_symmetry_cell_setting 'orthorhombic'
loop_
_space_group_symop_operation_xyz
x,y,z
-x,1/2-y,z
x,-y,-z
-x,1/2+y,-z
-x,-y,-z
x,1/2+y,-z
-x,y,z
x,1/2-y,z
1/2+x,1/2+y,1/2+z
1/2-x,-y,1/2+z
1/2+x,1/2-y,1/2-z
1/2-x,y,1/2-z
1/2-x,1/2-y,1/2-z
1/2+x,y,1/2-z
1/2-x,1/2+y,1/2+z
1/2+x,-y,1/2+z
loop_
_atom_site_type_symbol
_atom_site_label
_atom_site_fract_x
_atom_site_fract_y
_atom_site_fract_z
Si Si1 0.179162 0.919168 0.969346
Si Si2 0.000000 0.164453 0.631956
Si Si3 0.000000 0.943932 0.217656
Si Si4 0.500000 0.081957 0.531700
Si Si5 0.151734 0.333553 0.508578
Si Si6 0.098880 0.830696 0.671680
Si Si7 0.335959 0.452643 0.282859
O O1 0.179574 0.919613 0.871948
O O2 0.257913 0.876551 0.011451
O O3 0.088314 0.881619 0.997684
O O4 0.185523 0.000000 0.000000
O O5 0.913545 0.142667 0.581143
O O6 0.000000 0.250000 0.651143
O O7 0.000000 0.119292 0.715618
O O8 0.000000 0.908422 0.128926
O O9 0.084269 0.993596 0.225796
O O10 0.500000 0.000000 0.500000
O O11 0.174964 0.250000 0.517688
O O12 0.103208 0.350416 0.423959
O O13 0.134539 0.750000 0.686138
O O14 0.156151 0.884319 0.723899
O O15 0.000000 0.837301 0.701218
O O16 0.250000 0.494375 0.250000
#
# Coordination Sequence:
#
# PCOD8300345 Si02
#       7
#    16   8   8   8  16  16  16
#     4  11  22  39  62  85 121 160 202 244 303 360
#     4  10  24  43  66  90 121 162 207 256 318 372
#     4  12  24  41  63  88 121 157 203 256 308 355
#     4  10  20  42  62  78 113 164 199 239 297 352
#     4  10  21  40  61  88 122 160 198 245 303 368
#     4  10  20  36  58  85 125 164 195 238 297 361
#     4  12  23  36  59  94 125 156 201 249 303 365
#
# _framework density 18.905408000000001
#
# number of rings (size 3 to 8) (size 9 to 14) (size 15 to 20)
#    0.000    1.273    7.273    0.000    2.545    1.091 
#    0.000    2.727    0.000    2.727    0.000    0.000 
#    0.000    0.000    0.000    0.000    0.000    0.000 
#
# Total GULP energy -545497.836305 kJ/mol
# GULP energy per Si atom -12397.678098 kJ/mol
# Density = 1.886238 g / cm^3
# Si number density = 18.905408 Si / 1000 Ang^3
#
#
#
# Elastic Constant Matrix: (Units=GPa)
#
#
# Indices 1 2 3 4 5 6 
#
# 1 172.9541 42.6296 56.4960 0.0000 0.0000 0.0000
# 2 42.6296 44.0916 40.8920 0.0000 0.0000 0.0000
# 3 56.4960 40.8920 140.2668 0.0000 0.0000 0.0000
# 4 0.0000 0.0000 0.0000 32.9451 0.0000 0.0000
# 5 0.0000 0.0000 0.0000 0.0000 26.5608 0.0000
# 6 0.0000 0.0000 0.0000 0.0000 0.0000 39.9544
#
#
#
# Elastic Compliance Matrix: (Units=1/GPa)
#
#
# Indices 1 2 3 4 5 6 
#
# 1 0.007756 -0.006307 -0.001285 0.000000 0.000000 0.000000
# 2 -0.006307 0.036213 -0.008017 0.000000 0.000000 0.000000
# 3 -0.001285 -0.008017 0.009984 0.000000 0.000000 0.000000
# 4 0.000000 0.000000 0.000000 0.030354 0.000000 0.000000
# 5 0.000000 0.000000 0.000000 0.000000 0.037649 0.000000
# 6 0.000000 0.000000 0.000000 0.000000 0.000000 0.025029
#
#
# Mechanical properties :
#
#
# Convention : Reuss Voigt Hill
#
# Bulk Modulus (GPa) = 43.98506 70.81640 57.40073
# Shear Modulus (GPa) = 26.91328 34.37840 30.64584
#
# Velocity S-wave (km/s) = 3.77712 4.26895 4.03054
# Velocity P-wave (km/s) = 6.50681 7.86372 7.21723
#
# Compressibility (1/GPa) = 0.02273499
#
# Stress axis : x y z
#
# Youngs Moduli (GPa) = 128.92745 27.61431 100.15884
#
# Poissons Ratio (x) = 0.17416 0.12874
# Poissons Ratio (y) = 0.81315 0.80296
# Poissons Ratio (z) = 0.16572 0.22138
#
# Static dielectric constant tensor:
#      x y z
#    x 3.951400 0.000000 0.000000 
#    y 0.000000 3.208360 0.000000 
#    z 0.000000 0.000000 3.119120 
# 
# 
# High freq. dielectric constant tensor:
#      x y z
#    x 1.758040 0.000000 0.000000 
#    y 0.000000 1.705460 0.000000 
#    z 0.000000 0.000000 1.740120 
# 
# From -- ./inp_files/32241.got.cif
#   From: 2010.03.12/outbox.cif.g09.slc.cpg/sg74_17_cif.got.tgz:32241.got - 2010.04.16 15:46:19.
