data_PCOD8300595
_publ_section_title
;
Structure prediction by ZEFSAII (Michael W. Deem and Ramdas Pophale) SiO2 
 PCOD8300595
Probable space group: I M M A
;
_chemical_formula_sum "Si O2"
_cell_formula_units_Z 72
_cell_length_a 14.413787
_cell_length_b 16.598583
_cell_length_c 15.873990
_cell_angle_alpha 90.000000
_cell_angle_beta 90.000000
_cell_angle_gamma 90.000000
_cell_volume 3797.827342
_symmetry_space_group_name_H-M "I M M A"
_symmetry_group_IT_number 74
_symmetry_cell_setting 'orthorhombic'
loop_
_space_group_symop_operation_xyz
x,y,z
-x,1/2-y,z
x,-y,-z
-x,1/2+y,-z
-x,-y,-z
x,1/2+y,-z
-x,y,z
x,1/2-y,z
1/2+x,1/2+y,1/2+z
1/2-x,-y,1/2+z
1/2+x,1/2-y,1/2-z
1/2-x,y,1/2-z
1/2-x,1/2-y,1/2-z
1/2+x,y,1/2-z
1/2-x,1/2+y,1/2+z
1/2+x,-y,1/2+z
loop_
_atom_site_type_symbol
_atom_site_label
_atom_site_fract_x
_atom_site_fract_y
_atom_site_fract_z
Si Si1 0.390690 0.250000 0.696877
Si Si2 0.607721 0.096185 0.796567
Si Si3 0.241966 0.162386 0.104791
Si Si4 0.609256 0.750000 0.497564
Si Si5 0.750000 0.461985 0.250000
Si Si6 0.106599 0.408461 0.510458
O O1 0.500000 0.250000 0.710179
O O2 0.351211 0.330289 0.741402
O O3 0.362253 0.250000 0.599911
O O4 0.500000 0.079101 0.777087
O O5 0.622108 0.119655 0.893786
O O6 0.661300 0.015003 0.773086
O O7 0.256947 0.250000 0.149135
O O8 0.153762 0.169977 0.040849
O O9 0.220586 0.093583 0.171880
O O10 0.334089 0.146228 0.051271
O O11 0.500000 0.750000 0.511375
O O12 0.139940 0.500000 0.500000
O O13 0.000000 0.399093 0.482818
#
# Coordination Sequence:
#
# PCOD8300595 Si02
#       6
#     8  16  16   8   8  16
#     4   9  20  40  61  87 119 152 196 243 302 367
#     4  10  23  39  62  92 124 158 195 249 310 367
#     4  10  24  39  61  86 120 163 208 251 301 356
#     4   9  22  42  61  82 118 162 205 252 294 354
#     4  12  23  39  62  86 124 156 210 253 297 360
#     4  10  20  39  61  89 126 156 193 248 309 368
#
# _framework density 18.958207999999999
#
# number of rings (size 3 to 8) (size 9 to 14) (size 15 to 20)
#    0.667    1.333    2.222    0.333    4.667    1.778 
#    0.000    0.000    0.000    4.667    0.000    0.000 
#    0.000    0.000    0.000    0.000    0.000    0.000 
#
# Total GULP energy -446332.484395 kJ/mol
# GULP energy per Si atom -12398.124567 kJ/mol
# Density = 1.891506 g / cm^3
# Si number density = 18.958208 Si / 1000 Ang^3
#
#
#
# Elastic Constant Matrix: (Units=GPa)
#
#
# Indices 1 2 3 4 5 6 
#
# 1 62.3946 21.0203 23.7214 0.0000 0.0000 0.0000
# 2 21.0203 99.3519 37.0813 0.0000 0.0000 0.0000
# 3 23.7214 37.0813 97.4331 0.0000 0.0000 0.0000
# 4 0.0000 0.0000 0.0000 35.6565 0.0000 0.0000
# 5 0.0000 0.0000 0.0000 0.0000 25.1391 0.0000
# 6 0.0000 0.0000 0.0000 0.0000 0.0000 19.7478
#
#
#
# Elastic Compliance Matrix: (Units=1/GPa)
#
#
# Indices 1 2 3 4 5 6 
#
# 1 0.018204 -0.002561 -0.003457 0.000000 0.000000 0.000000
# 2 -0.002561 0.012092 -0.003978 0.000000 0.000000 0.000000
# 3 -0.003457 -0.003978 0.012619 0.000000 0.000000 0.000000
# 4 0.000000 0.000000 0.000000 0.028045 0.000000 0.000000
# 5 0.000000 0.000000 0.000000 0.000000 0.039779 0.000000
# 6 0.000000 0.000000 0.000000 0.000000 0.000000 0.050638
#
#
# Mechanical properties :
#
#
# Convention : Reuss Voigt Hill
#
# Bulk Modulus (GPa) = 43.62682 46.98064 45.30373
# Shear Modulus (GPa) = 26.45325 27.93245 27.19285
#
# Velocity S-wave (km/s) = 3.73948 3.84261 3.79140
# Velocity P-wave (km/s) = 6.45810 6.67252 6.56619
#
# Compressibility (1/GPa) = 0.02292168
#
# Stress axis : x y z
#
# Youngs Moduli (GPa) = 54.93204 82.69937 79.24360
#
# Poissons Ratio (x) = 0.21181 0.27397
# Poissons Ratio (y) = 0.14069 0.31527
# Poissons Ratio (z) = 0.18992 0.32901
#
# Static dielectric constant tensor:
#      x y z
#    x 3.319750 0.000000 0.000000 
#    y 0.000000 3.534840 0.000000 
#    z 0.000000 0.000000 3.490190 
# 
# 
# High freq. dielectric constant tensor:
#      x y z
#    x 1.733350 0.000000 0.000000 
#    y 0.000000 1.736460 0.000000 
#    z 0.000000 0.000000 1.740220 
# 
# From -- ./inp_files/31980.got.cif
#   From: 2010.03.12/outbox.cif.g09.slc.cpg/sg74_16_cif.got.tgz:31980.got - 2010.04.16 15:46:19.
