data_PCOD8300816
_publ_section_title
;
Structure prediction by ZEFSAII (Michael W. Deem and Ramdas Pophale) SiO2 
 PCOD8300816
Probable space group: I M M A
;
_chemical_formula_sum "Si O2"
_cell_formula_units_Z 96
_cell_length_a 25.934872
_cell_length_b 18.998675
_cell_length_c 9.681703
_cell_angle_alpha 90.000000
_cell_angle_beta 90.000000
_cell_angle_gamma 90.000000
_cell_volume 4770.448134
_symmetry_space_group_name_H-M "I M M A"
_symmetry_group_IT_number 74
_symmetry_cell_setting 'orthorhombic'
loop_
_space_group_symop_operation_xyz
x,y,z
-x,1/2-y,z
x,-y,-z
-x,1/2+y,-z
-x,-y,-z
x,1/2+y,-z
-x,y,z
x,1/2-y,z
1/2+x,1/2+y,1/2+z
1/2-x,-y,1/2+z
1/2+x,1/2-y,1/2-z
1/2-x,y,1/2-z
1/2-x,1/2-y,1/2-z
1/2+x,y,1/2-z
1/2-x,1/2+y,1/2+z
1/2+x,-y,1/2+z
loop_
_atom_site_type_symbol
_atom_site_label
_atom_site_fract_x
_atom_site_fract_y
_atom_site_fract_z
Si Si1 0.796991 0.332811 0.334050
Si Si2 0.600374 0.168570 0.315362
Si Si3 0.598521 0.583816 0.162152
Si Si4 0.442142 0.433791 0.127212
Si Si5 0.942274 0.671571 0.101441
Si Si6 0.799376 0.667441 0.346225
O O1 0.797108 0.250000 0.313375
O O2 0.750000 0.367372 0.250000
O O3 0.848440 0.361546 0.259897
O O4 0.789117 0.352216 0.494188
O O5 0.590954 0.250000 0.282877
O O6 0.554710 0.123378 0.248008
O O7 0.599095 0.154871 0.479888
O O8 0.594948 0.499052 0.169791
O O9 0.560422 0.616112 0.275362
O O10 0.654508 0.616033 0.200287
O O11 0.580554 0.605505 0.008538
O O12 0.500000 0.461841 0.099378
O O13 0.930952 0.750000 0.159250
O O14 0.000000 0.667938 0.038898
O O15 0.814827 0.750000 0.331138
O O16 0.750000 0.650922 0.250000
#
# Coordination Sequence:
#
# PCOD8300816 Si02
#       6
#    16  16  16  16  16  16
#     4   9  18  34  57  85 116 151 193 243 303 366
#     4  10  21  38  60  88 120 156 202 258 313 366
#     4  11  22  39  59  84 124 160 202 247 307 369
#     4  11  23  40  63  86 118 165 211 256 305 368
#     4  10  21  36  57  87 120 155 200 254 307 363
#     4  10  21  37  62  93 121 155 200 253 309 365
#
# _framework density 20.123895000000001
#
# number of rings (size 3 to 8) (size 9 to 14) (size 15 to 20)
#    0.000    1.833    1.667    3.000    2.333    2.333 
#    0.000    2.500    0.000    0.000    0.000    0.000 
#    0.000    0.000    0.000    0.000    0.000    0.000 
#
# Total GULP energy -594878.402120 kJ/mol
# GULP energy per Si atom -12393.300044 kJ/mol
# Density = 2.007809 g / cm^3
# Si number density = 20.123895 Si / 1000 Ang^3
#
#
#
# Elastic Constant Matrix: (Units=GPa)
#
#
# Indices 1 2 3 4 5 6 
#
# 1 113.6146 42.3991 47.4854 0.0000 0.0000 0.0000
# 2 42.3991 77.9511 60.6773 0.0000 0.0000 0.0000
# 3 47.4854 60.6773 131.0927 0.0000 0.0000 0.0000
# 4 0.0000 0.0000 0.0000 35.1153 0.0000 0.0000
# 5 0.0000 0.0000 0.0000 0.0000 33.6177 0.0000
# 6 0.0000 0.0000 0.0000 0.0000 0.0000 24.4593
#
#
#
# Elastic Compliance Matrix: (Units=1/GPa)
#
#
# Indices 1 2 3 4 5 6 
#
# 1 0.011357 -0.004651 -0.001961 0.000000 0.000000 0.000000
# 2 -0.004651 0.021958 -0.008479 0.000000 0.000000 0.000000
# 3 -0.001961 -0.008479 0.012263 0.000000 0.000000 0.000000
# 4 0.000000 0.000000 0.000000 0.028478 0.000000 0.000000
# 5 0.000000 0.000000 0.000000 0.000000 0.029746 0.000000
# 6 0.000000 0.000000 0.000000 0.000000 0.000000 0.040884
#
#
# Mechanical properties :
#
#
# Convention : Reuss Voigt Hill
#
# Bulk Modulus (GPa) = 64.94915 69.30914 67.12914
# Shear Modulus (GPa) = 27.77778 30.11157 28.94467
#
# Velocity S-wave (km/s) = 3.71932 3.87241 3.79664
# Velocity P-wave (km/s) = 7.12665 7.38309 7.25601
#
# Compressibility (1/GPa) = 0.01539666
#
# Stress axis : x y z
#
# Youngs Moduli (GPa) = 88.05207 45.54120 81.54527
#
# Poissons Ratio (x) = 0.21180 0.15993
# Poissons Ratio (y) = 0.40950 0.69142
# Poissons Ratio (z) = 0.17269 0.38614
#
# Static dielectric constant tensor:
#      x y z
#    x 3.724670 0.000000 0.000000 
#    y 0.000000 3.355670 0.000000 
#    z 0.000000 0.000000 3.688360 
# 
# 
# High freq. dielectric constant tensor:
#      x y z
#    x 1.784460 0.000000 0.000000 
#    y 0.000000 1.761610 0.000000 
#    z 0.000000 0.000000 1.793420 
# 
# From -- ./inp_files/15321.got.cif
#   From: 2010.03.12/outbox.cif.g09.slc.cpg/sg74_8_cif.got.tgz:15321.got - 2010.04.16 15:46:19.
