data_PCOD8300493
_publ_section_title
;
Structure prediction by ZEFSAII (Michael W. Deem and Ramdas Pophale) SiO2 
 PCOD8300493
Probable space group: I M M A
;
_chemical_formula_sum "Si O2"
_cell_formula_units_Z 112
_cell_length_a 22.381109
_cell_length_b 14.002699
_cell_length_c 15.331405
_cell_angle_alpha 90.000000
_cell_angle_beta 90.000000
_cell_angle_gamma 90.000000
_cell_volume 4804.799968
_symmetry_space_group_name_H-M "I M M A"
_symmetry_group_IT_number 74
_symmetry_cell_setting 'orthorhombic'
loop_
_space_group_symop_operation_xyz
x,y,z
-x,1/2-y,z
x,-y,-z
-x,1/2+y,-z
-x,-y,-z
x,1/2+y,-z
-x,y,z
x,1/2-y,z
1/2+x,1/2+y,1/2+z
1/2-x,-y,1/2+z
1/2+x,1/2-y,1/2-z
1/2-x,y,1/2-z
1/2-x,1/2-y,1/2-z
1/2+x,y,1/2-z
1/2-x,1/2+y,1/2+z
1/2+x,-y,1/2+z
loop_
_atom_site_type_symbol
_atom_site_label
_atom_site_fract_x
_atom_site_fract_y
_atom_site_fract_z
Si Si1 0.339320 0.855398 0.024626
Si Si2 0.638448 0.137983 0.621682
Si Si3 0.069659 0.638438 0.619691
Si Si4 0.739805 0.647407 0.614526
Si Si5 0.102518 0.144065 0.066663
Si Si6 0.740068 0.443280 0.844164
Si Si7 0.066854 0.988189 0.784567
O O1 0.358478 0.750000 0.055602
O O2 0.323644 0.917303 0.110795
O O3 0.392565 0.898213 0.964354
O O4 0.277314 0.854050 0.973793
O O5 0.642339 0.250000 0.644713
O O6 0.597331 0.119801 0.536295
O O7 0.703809 0.095060 0.599650
O O8 0.609556 0.080205 0.703340
O O9 0.084822 0.750000 0.638271
O O10 0.089659 0.577720 0.704379
O O11 0.000000 0.624404 0.598536
O O12 0.752037 0.750000 0.662166
O O13 0.671152 0.637583 0.592202
O O14 0.759784 0.557375 0.671683
O O15 0.077055 0.250000 0.083375
O O16 0.065162 0.072273 0.126009
O O17 0.750000 0.393995 0.750000
O O18 0.000000 0.024299 0.764801
#
# Coordination Sequence:
#
# PCOD8300493 Si02
#       7
#    16  16  16  16  16  16  16
#     4  10  21  39  67  99 135 178 219 267 335 406
#     4  11  24  41  59  87 131 180 227 278 332 396
#     4   9  20  41  70 104 139 173 221 287 345 397
#     4  10  21  38  62  96 133 168 210 267 335 407
#     4  10  20  37  62  90 129 170 214 277 340 401
#     4  12  25  40  66  98 134 173 219 273 333 397
#     4  11  23  39  63  95 131 174 224 276 338 406
#
# _framework density 23.310023000000001
#
# number of rings (size 3 to 8) (size 9 to 14) (size 15 to 20)
#    0.000    1.571    2.857    1.714    2.000    3.714 
#    0.000    1.429    0.000    2.571    0.000    2.000 
#    0.000    0.000    0.000    0.000    0.000    0.000 
#
# Total GULP energy -694016.846609 kJ/mol
# GULP energy per Si atom -12393.157975 kJ/mol
# Density = 2.325697 g / cm^3
# Si number density = 23.310023 Si / 1000 Ang^3
#
#
#
# Elastic Constant Matrix: (Units=GPa)
#
#
# Indices 1 2 3 4 5 6 
#
# 1 80.1406 35.7390 38.8110 0.0000 0.0000 0.0000
# 2 35.7390 147.2992 61.4826 0.0000 0.0000 0.0000
# 3 38.8110 61.4826 119.7711 0.0000 0.0000 0.0000
# 4 0.0000 0.0000 0.0000 3.8523 0.0000 0.0000
# 5 0.0000 0.0000 0.0000 0.0000 34.2178 0.0000
# 6 0.0000 0.0000 0.0000 0.0000 0.0000 23.4041
#
#
#
# Elastic Compliance Matrix: (Units=1/GPa)
#
#
# Indices 1 2 3 4 5 6 
#
# 1 0.015290 -0.002089 -0.003882 0.000000 0.000000 0.000000
# 2 -0.002089 0.008926 -0.003905 0.000000 0.000000 0.000000
# 3 -0.003882 -0.003905 0.011612 0.000000 0.000000 0.000000
# 4 0.000000 0.000000 0.000000 0.259584 0.000000 0.000000
# 5 0.000000 0.000000 0.000000 0.000000 0.029225 0.000000
# 6 0.000000 0.000000 0.000000 0.000000 0.000000 0.042728
#
#
# Mechanical properties :
#
#
# Convention : Reuss Voigt Hill
#
# Bulk Modulus (GPa) = 62.20926 68.80847 65.50887
# Shear Modulus (GPa) = 12.73971 26.37339 19.55655
#
# Velocity S-wave (km/s) = 2.34034 3.36731 2.89965
# Velocity P-wave (km/s) = 5.83512 6.68590 6.27495
#
# Compressibility (1/GPa) = 0.01607478
#
# Stress axis : x y z
#
# Youngs Moduli (GPa) = 65.40287 112.03576 86.12014
#
# Poissons Ratio (x) = 0.23409 0.33432
# Poissons Ratio (y) = 0.13665 0.33628
# Poissons Ratio (z) = 0.25390 0.43748
#
# Static dielectric constant tensor:
#      x y z
#    x 3.957490 0.000000 0.000000 
#    y 0.000000 4.437570 0.000000 
#    z 0.000000 0.000000 3.977700 
# 
# 
# High freq. dielectric constant tensor:
#      x y z
#    x 1.905960 0.000000 0.000000 
#    y 0.000000 1.926100 0.000000 
#    z 0.000000 0.000000 1.906430 
# 
# From -- ./inp_files/36509.got.cif
#   From: 2010.03.12/outbox.cif.g09.slc.cpg/sg74_19_cif.got.tgz:36509.got - 2010.04.16 15:46:19.
