data_PCOD8300939
_publ_section_title
;
Structure prediction by ZEFSAII (Michael W. Deem and Ramdas Pophale) SiO2 
 PCOD8300939
Probable space group: I M M A
;
_chemical_formula_sum "Si O2"
_cell_formula_units_Z 88
_cell_length_a 8.580864
_cell_length_b 22.354494
_cell_length_c 24.387457
_cell_angle_alpha 90.000000
_cell_angle_beta 90.000000
_cell_angle_gamma 90.000000
_cell_volume 4678.023287
_symmetry_space_group_name_H-M "I M M A"
_symmetry_group_IT_number 74
_symmetry_cell_setting 'orthorhombic'
loop_
_space_group_symop_operation_xyz
x,y,z
-x,1/2-y,z
x,-y,-z
-x,1/2+y,-z
-x,-y,-z
x,1/2+y,-z
-x,y,z
x,1/2-y,z
1/2+x,1/2+y,1/2+z
1/2-x,-y,1/2+z
1/2+x,1/2-y,1/2-z
1/2-x,y,1/2-z
1/2-x,1/2-y,1/2-z
1/2+x,y,1/2-z
1/2-x,1/2+y,1/2+z
1/2+x,-y,1/2+z
loop_
_atom_site_type_symbol
_atom_site_label
_atom_site_fract_x
_atom_site_fract_y
_atom_site_fract_z
Si Si1 0.182991 0.361042 0.374823
Si Si2 0.320859 0.180318 0.605232
Si Si3 0.821137 0.181069 0.492327
Si Si4 0.182683 0.250000 0.189702
Si Si5 0.817605 0.095522 0.692573
Si Si6 0.315680 0.967283 0.690804
O O1 0.225401 0.357262 0.439149
O O2 0.266357 0.309107 0.341683
O O3 0.241548 0.425178 0.355058
O O4 0.000000 0.353649 0.365563
O O5 0.500000 0.166422 0.618616
O O6 0.280903 0.250000 0.612042
O O7 0.284490 0.159903 0.543153
O O8 0.210944 0.145088 0.646757
O O9 0.789877 0.250000 0.477430
O O10 0.000000 0.170777 0.509055
O O11 0.250000 0.250000 0.250000
O O12 0.000000 0.250000 0.194683
O O13 0.750000 0.119745 0.750000
O O14 0.000000 0.082515 0.699004
O O15 0.731185 0.034659 0.675606
O O16 0.500000 0.960217 0.691105
O O17 0.250000 0.948540 0.750000
#
# Coordination Sequence:
#
# PCOD8300939 Si02
#       6
#    16  16  16   8  16  16
#     4  11  21  37  57  81 112 149 192 237 285 338
#     4  10  21  37  59  88 119 149 183 228 278 334
#     4   9  18  35  57  81 111 150 189 230 281 336
#     4  12  24  36  52  78 112 148 191 242 293 336
#     4  11  22  39  62  86 114 149 186 229 279 337
#     4  11  22  38  58  82 112 149 190 234 283 341
#
# _framework density 18.811364000000001
#
# number of rings (size 3 to 8) (size 9 to 14) (size 15 to 20)
#    0.000    1.455    0.909    6.818    0.000    2.909 
#    0.000    0.909    0.000    5.455    0.000    0.000 
#    0.000    0.000    0.000    0.000    0.000    0.000 
#
# Total GULP energy -545827.441790 kJ/mol
# GULP energy per Si atom -12405.169132 kJ/mol
# Density = 1.876855 g / cm^3
# Si number density = 18.811364 Si / 1000 Ang^3
#
#
#
# Elastic Constant Matrix: (Units=GPa)
#
#
# Indices 1 2 3 4 5 6 
#
# 1 92.4817 22.0459 43.2410 0.0000 0.0000 0.0000
# 2 22.0459 71.4842 62.7058 0.0000 0.0000 0.0000
# 3 43.2410 62.7058 122.7641 0.0000 0.0000 0.0000
# 4 0.0000 0.0000 0.0000 18.8322 0.0000 0.0000
# 5 0.0000 0.0000 0.0000 0.0000 34.3720 0.0000
# 6 0.0000 0.0000 0.0000 0.0000 0.0000 31.6622
#
#
#
# Elastic Compliance Matrix: (Units=1/GPa)
#
#
# Indices 1 2 3 4 5 6 
#
# 1 0.012945 0.000013 -0.004566 0.000000 0.000000 0.000000
# 2 0.000013 0.025345 -0.012951 0.000000 0.000000 0.000000
# 3 -0.004566 -0.012951 0.016369 0.000000 0.000000 0.000000
# 4 0.000000 0.000000 0.000000 0.053100 0.000000 0.000000
# 5 0.000000 0.000000 0.000000 0.000000 0.029093 0.000000
# 6 0.000000 0.000000 0.000000 0.000000 0.000000 0.031583
#
#
# Mechanical properties :
#
#
# Convention : Reuss Voigt Hill
#
# Bulk Modulus (GPa) = 50.88561 60.30171 55.59366
# Shear Modulus (GPa) = 23.81016 27.55575 25.68295
#
# Velocity S-wave (km/s) = 3.56157 3.83148 3.69899
# Velocity P-wave (km/s) = 6.63493 7.19022 6.91815
#
# Compressibility (1/GPa) = 0.01965192
#
# Stress axis : x y z
#
# Youngs Moduli (GPa) = 77.25090 39.45511 61.09078
#
# Poissons Ratio (x) = -0.00053 0.27896
# Poissons Ratio (y) = -0.00104 0.79116
# Poissons Ratio (z) = 0.35276 0.51097
#
# Static dielectric constant tensor:
#      x y z
#    x 3.553740 0.000000 0.000000 
#    y 0.000000 3.369420 0.000000 
#    z 0.000000 0.000000 3.513020 
# 
# 
# High freq. dielectric constant tensor:
#      x y z
#    x 1.746450 0.000000 0.000000 
#    y 0.000000 1.719430 0.000000 
#    z 0.000000 0.000000 1.735660 
# 
# From -- ./inp_files/56991.got.cif
#   From: 2010.03.12/outbox.cif.g09.slc.cpg/sg74_29_cif.got.tgz:56991.got - 2010.04.16 15:46:19.
