data_PCOD8300489
_publ_section_title
;
Structure prediction by ZEFSAII (Michael W. Deem and Ramdas Pophale) SiO2 
 PCOD8300489
Probable space group: I M M A
;
_chemical_formula_sum "Si O2"
_cell_formula_units_Z 72
_cell_length_a 22.455732
_cell_length_b 9.224432
_cell_length_c 18.938736
_cell_angle_alpha 90.000000
_cell_angle_beta 90.000000
_cell_angle_gamma 90.000000
_cell_volume 3922.995775
_symmetry_space_group_name_H-M "I M M A"
_symmetry_group_IT_number 74
_symmetry_cell_setting 'orthorhombic'
loop_
_space_group_symop_operation_xyz
x,y,z
-x,1/2-y,z
x,-y,-z
-x,1/2+y,-z
-x,-y,-z
x,1/2+y,-z
-x,y,z
x,1/2-y,z
1/2+x,1/2+y,1/2+z
1/2-x,-y,1/2+z
1/2+x,1/2-y,1/2-z
1/2-x,y,1/2-z
1/2-x,1/2-y,1/2-z
1/2+x,y,1/2-z
1/2-x,1/2+y,1/2+z
1/2+x,-y,1/2+z
loop_
_atom_site_type_symbol
_atom_site_label
_atom_site_fract_x
_atom_site_fract_y
_atom_site_fract_z
Si Si1 0.894034 0.078677 0.676209
Si Si2 0.165245 0.418664 0.073101
Si Si3 0.000000 0.080813 0.573427
Si Si4 0.273536 0.419361 0.173085
Si Si5 0.068420 0.083757 0.184630
O O1 0.887372 0.250000 0.683536
O O2 0.941694 0.034893 0.616978
O O3 0.831626 0.010260 0.653181
O O4 0.916037 0.017634 0.750364
O O5 0.164269 0.250000 0.056353
O O6 0.224021 0.461861 0.116207
O O7 0.107454 0.465037 0.117876
O O8 0.164479 0.500000 0.000000
O O9 0.000000 0.250000 0.557631
O O10 0.000000 0.000000 0.500000
O O11 0.289511 0.250000 0.171433
O O12 0.250000 0.464564 0.250000
O O13 0.083607 0.250000 0.205505
O O14 0.000000 0.065136 0.162832
#
# Coordination Sequence:
#
# PCOD8300489 Si02
#       5
#    16  16   8  16  16
#     4  11  22  37  59  89 120 147 190 245 293 339
#     4  10  22  39  58  85 120 153 191 240 290 342
#     4  10  24  42  58  84 121 154 189 240 293 344
#     4  10  20  38  61  84 114 153 198 238 280 344
#     4  10  20  37  62  87 113 154 201 235 279 348
#
# _framework density 18.35332
#
# number of rings (size 3 to 8) (size 9 to 14) (size 15 to 20)
#    0.000    1.778    3.333    0.667    0.000    5.333 
#    0.000    4.444    0.000    0.000    0.000    0.000 
#    0.000    0.000    0.000    0.000    0.000    0.000 
#
# Total GULP energy -446557.409469 kJ/mol
# GULP energy per Si atom -12404.372485 kJ/mol
# Density = 1.831155 g / cm^3
# Si number density = 18.353320 Si / 1000 Ang^3
#
#
#
# Elastic Constant Matrix: (Units=GPa)
#
#
# Indices 1 2 3 4 5 6 
#
# 1 174.6656 70.6488 94.7084 0.0000 0.0000 0.0000
# 2 70.6488 69.4435 68.1262 0.0000 0.0000 0.0000
# 3 94.7084 68.1262 170.6916 0.0000 0.0000 0.0000
# 4 0.0000 0.0000 0.0000 38.5726 0.0000 0.0000
# 5 0.0000 0.0000 0.0000 0.0000 27.0963 0.0000
# 6 0.0000 0.0000 0.0000 0.0000 0.0000 27.3060
#
#
#
# Elastic Compliance Matrix: (Units=1/GPa)
#
#
# Indices 1 2 3 4 5 6 
#
# 1 0.010354 -0.008050 -0.002532 0.000000 0.000000 0.000000
# 2 -0.008050 0.029925 -0.007477 0.000000 0.000000 0.000000
# 3 -0.002532 -0.007477 0.010248 0.000000 0.000000 0.000000
# 4 0.000000 0.000000 0.000000 0.025925 0.000000 0.000000
# 5 0.000000 0.000000 0.000000 0.000000 0.036905 0.000000
# 6 0.000000 0.000000 0.000000 0.000000 0.000000 0.036622
#
#
# Mechanical properties :
#
#
# Convention : Reuss Voigt Hill
#
# Bulk Modulus (GPa) = 69.40271 97.97418 83.68845
# Shear Modulus (GPa) = 26.19159 30.68281 28.43720
#
# Velocity S-wave (km/s) = 3.78176 4.09318 3.94055
# Velocity P-wave (km/s) = 7.54757 8.70844 8.14871
#
# Compressibility (1/GPa) = 0.01440866
#
# Stress axis : x y z
#
# Youngs Moduli (GPa) = 96.57876 33.41686 97.58145
#
# Poissons Ratio (x) = 0.26900 0.24710
# Poissons Ratio (y) = 0.77743 0.72964
# Poissons Ratio (z) = 0.24456 0.24987
#
# Static dielectric constant tensor:
#      x y z
#    x 3.338290 0.000000 0.000000 
#    y 0.000000 3.408280 0.000000 
#    z 0.000000 0.000000 3.288510 
# 
# 
# High freq. dielectric constant tensor:
#      x y z
#    x 1.731820 0.000000 0.000000 
#    y 0.000000 1.707820 0.000000 
#    z 0.000000 0.000000 1.709010 
# 
# From -- ./inp_files/39432.got.cif
#   From: 2010.03.12/outbox.cif.g09.slc.cpg/sg74_20_cif.got.tgz:39432.got - 2010.04.16 15:46:19.
