data_PCOD8300975
_publ_section_title
;
Structure prediction by ZEFSAII (Michael W. Deem and Ramdas Pophale) SiO2 
 PCOD8300975
Probable space group: I M M A
;
_chemical_formula_sum "Si O2"
_cell_formula_units_Z 104
_cell_length_a 25.245518
_cell_length_b 16.714294
_cell_length_c 13.476340
_cell_angle_alpha 90.000000
_cell_angle_beta 90.000000
_cell_angle_gamma 90.000000
_cell_volume 5686.490038
_symmetry_space_group_name_H-M "I M M A"
_symmetry_group_IT_number 74
_symmetry_cell_setting 'orthorhombic'
loop_
_space_group_symop_operation_xyz
x,y,z
-x,1/2-y,z
x,-y,-z
-x,1/2+y,-z
-x,-y,-z
x,1/2+y,-z
-x,y,z
x,1/2-y,z
1/2+x,1/2+y,1/2+z
1/2-x,-y,1/2+z
1/2+x,1/2-y,1/2-z
1/2-x,y,1/2-z
1/2-x,1/2-y,1/2-z
1/2+x,y,1/2-z
1/2-x,1/2+y,1/2+z
1/2+x,-y,1/2+z
loop_
_atom_site_type_symbol
_atom_site_label
_atom_site_fract_x
_atom_site_fract_y
_atom_site_fract_z
Si Si1 0.942219 0.987718 0.612698
Si Si2 0.607041 0.424864 0.432173
Si Si3 0.286069 0.341420 0.442332
Si Si4 0.000000 0.157701 0.323295
Si Si5 0.750000 0.434467 0.250000
Si Si6 0.791785 0.341887 0.837395
Si Si7 0.357095 0.023235 0.740630
Si Si8 0.000000 0.659344 0.912686
O O1 0.947767 0.891734 0.638415
O O2 0.000000 0.027500 0.636384
O O3 0.926976 0.000000 0.500000
O O4 0.895561 0.036436 0.666641
O O5 0.620806 0.500000 0.500000
O O6 0.651135 0.356572 0.442824
O O7 0.609159 0.459329 0.321661
O O8 0.550563 0.386633 0.456587
O O9 0.274169 0.250000 0.420587
O O10 0.256916 0.386589 0.352837
O O11 0.266420 0.365309 0.554459
O O12 0.000000 0.250000 0.362802
O O13 0.000000 0.158386 0.205163
O O14 0.699371 0.488212 0.227554
O O15 0.810201 0.250000 0.840219
O O16 0.750000 0.357380 0.750000
O O17 0.844863 0.393867 0.816881
O O18 0.000000 0.750000 0.952482
#
# Coordination Sequence:
#
# PCOD8300975 Si02
#       8
#    16  16  16   8   8  16  16   8
#     4   9  19  37  59  84 111 150 189 237 292 337
#     4  11  20  34  56  81 109 148 187 227 279 336
#     4  10  21  38  56  81 118 149 186 240 294 340
#     4   9  17  34  56  81 112 144 184 228 281 343
#     4  10  23  34  59  88 112 150 194 238 299 346
#     4  10  21  38  59  80 112 158 195 232 281 342
#     4  11  20  37  56  84 113 145 191 239 278 343
#     4  11  21  34  54  83 114 148 186 232 285 339
#
# _framework density 18.288962000000001
#
# number of rings (size 3 to 8) (size 9 to 14) (size 15 to 20)
#    0.462    1.385    3.846    0.923    0.000    1.231 
#    0.000    1.538    0.000    0.000    0.000    0.000 
#    0.000    0.000    0.000    0.000    0.000    0.000 
#
# Total GULP energy -644266.969652 kJ/mol
# GULP energy per Si atom -12389.749416 kJ/mol
# Density = 1.824734 g / cm^3
# Si number density = 18.288962 Si / 1000 Ang^3
#
#
#
# Elastic Constant Matrix: (Units=GPa)
#
#
# Indices 1 2 3 4 5 6 
#
# 1 84.0837 19.9049 39.7694 0.0000 0.0000 0.0000
# 2 19.9049 80.0287 35.8617 0.0000 0.0000 0.0000
# 3 39.7694 35.8617 115.4123 0.0000 0.0000 0.0000
# 4 0.0000 0.0000 0.0000 17.8268 0.0000 0.0000
# 5 0.0000 0.0000 0.0000 0.0000 29.6244 0.0000
# 6 0.0000 0.0000 0.0000 0.0000 0.0000 1.1867
#
#
#
# Elastic Compliance Matrix: (Units=1/GPa)
#
#
# Indices 1 2 3 4 5 6 
#
# 1 0.014378 -0.001575 -0.004465 0.000000 0.000000 0.000000
# 2 -0.001575 0.014689 -0.004022 0.000000 0.000000 0.000000
# 3 -0.004465 -0.004022 0.011453 0.000000 0.000000 0.000000
# 4 0.000000 0.000000 0.000000 0.056095 0.000000 0.000000
# 5 0.000000 0.000000 0.000000 0.000000 0.033756 0.000000
# 6 0.000000 0.000000 0.000000 0.000000 0.000000 0.842654
#
#
# Mechanical properties :
#
#
# Convention : Reuss Voigt Hill
#
# Bulk Modulus (GPa) = 49.02838 52.28852 50.65845
# Shear Modulus (GPa) = 5.00026 21.99350 13.49688
#
# Velocity S-wave (km/s) = 1.65529 3.47155 2.71953
# Velocity P-wave (km/s) = 5.52441 6.68739 6.13353
#
# Compressibility (1/GPa) = 0.02039635
#
# Stress axis : x y z
#
# Youngs Moduli (GPa) = 69.55281 68.07611 87.31556
#
# Poissons Ratio (x) = 0.10724 0.38985
# Poissons Ratio (y) = 0.10957 0.35115
# Poissons Ratio (z) = 0.31054 0.27377
#
# Static dielectric constant tensor:
#      x y z
#    x 3.189290 0.000000 0.000000 
#    y 0.000000 3.447820 0.000000 
#    z 0.000000 0.000000 3.453340 
# 
# 
# High freq. dielectric constant tensor:
#      x y z
#    x 1.691800 0.000000 0.000000 
#    y 0.000000 1.705230 0.000000 
#    z 0.000000 0.000000 1.716640 
# 
# From -- ./inp_files/26383.got.cif
#   From: 2010.03.12/outbox.cif.g09.slc.cpg/sg74_14_cif.got.tgz:26383.got - 2010.04.16 15:46:19.
