data_PCOD8300226
_publ_section_title
;
Structure prediction by ZEFSAII (Michael W. Deem and Ramdas Pophale) SiO2 
 PCOD8300226
Probable space group: I M M A
;
_chemical_formula_sum "Si O2"
_cell_formula_units_Z 112
_cell_length_a 18.840227
_cell_length_b 20.097667
_cell_length_c 14.955155
_cell_angle_alpha 90.000000
_cell_angle_beta 90.000000
_cell_angle_gamma 90.000000
_cell_volume 5662.688809
_symmetry_space_group_name_H-M "I M M A"
_symmetry_group_IT_number 74
_symmetry_cell_setting 'orthorhombic'
loop_
_space_group_symop_operation_xyz
x,y,z
-x,1/2-y,z
x,-y,-z
-x,1/2+y,-z
-x,-y,-z
x,1/2+y,-z
-x,y,z
x,1/2-y,z
1/2+x,1/2+y,1/2+z
1/2-x,-y,1/2+z
1/2+x,1/2-y,1/2-z
1/2-x,y,1/2-z
1/2-x,1/2-y,1/2-z
1/2+x,y,1/2-z
1/2-x,1/2+y,1/2+z
1/2+x,-y,1/2+z
loop_
_atom_site_type_symbol
_atom_site_label
_atom_site_fract_x
_atom_site_fract_y
_atom_site_fract_z
Si Si1 0.674284 0.454153 0.587011
Si Si2 0.081689 0.900004 0.642198
Si Si3 0.666430 0.174056 0.481725
Si Si4 0.582519 0.967123 0.247865
Si Si5 0.421161 0.671752 0.686307
Si Si6 0.325340 0.323512 0.011981
Si Si7 0.297539 0.384205 0.828892
O O1 0.680207 0.500000 0.500000
O O2 0.652029 0.377880 0.561910
O O3 0.616639 0.485734 0.655345
O O4 0.752082 0.447798 0.633310
O O5 0.112631 0.853973 0.721607
O O6 0.125973 0.881770 0.553363
O O7 0.000000 0.884033 0.620074
O O8 0.091181 0.975431 0.673851
O O9 0.645755 0.250000 0.510708
O O10 0.621590 0.146845 0.398735
O O11 0.747038 0.171442 0.446200
O O12 0.500000 0.948570 0.261184
O O13 0.626326 0.905284 0.209914
O O14 0.500000 0.640644 0.678499
O O15 0.423112 0.750000 0.689454
O O16 0.358032 0.250000 0.029930
O O17 0.315472 0.331586 0.905624
O O18 0.250000 0.350749 0.750000
#
# Coordination Sequence:
#
# PCOD8300226 Si02
#       7
#    16  16  16  16  16  16  16
#     4  10  20  35  59  85 110 148 192 240 282 340
#     4  10  21  35  52  78 113 148 183 226 277 336
#     4   9  19  34  53  82 113 145 189 240 293 340
#     4  10  22  38  55  80 113 148 185 232 290 339
#     4   9  17  31  50  74 111 152 183 219 276 339
#     4  10  21  36  57  81 107 142 185 231 276 335
#     4   9  21  39  57  80 109 141 181 229 284 336
#
# _framework density 19.778590000000001
#
# number of rings (size 3 to 8) (size 9 to 14) (size 15 to 20)
#    0.000    2.429    0.000    1.286    4.000    3.143 
#    2.571    5.714    0.000    0.857    0.000    0.000 
#    0.000    0.000    0.000    0.000    0.000    0.000 
#
# Total GULP energy -694097.482572 kJ/mol
# GULP energy per Si atom -12394.597903 kJ/mol
# Density = 1.973357 g / cm^3
# Si number density = 19.778590 Si / 1000 Ang^3
#
#
#
# Elastic Constant Matrix: (Units=GPa)
#
#
# Indices 1 2 3 4 5 6 
#
# 1 82.5668 21.5480 30.3617 0.0000 0.0000 0.0000
# 2 21.5480 53.0089 23.1453 0.0000 0.0000 0.0000
# 3 30.3617 23.1453 88.6213 0.0000 0.0000 0.0000
# 4 0.0000 0.0000 0.0000 33.0785 0.0000 0.0000
# 5 0.0000 0.0000 0.0000 0.0000 28.1897 0.0000
# 6 0.0000 0.0000 0.0000 0.0000 0.0000 19.8201
#
#
#
# Elastic Compliance Matrix: (Units=1/GPa)
#
#
# Indices 1 2 3 4 5 6 
#
# 1 0.014659 -0.004251 -0.003912 0.000000 0.000000 0.000000
# 2 -0.004251 0.022526 -0.004427 0.000000 0.000000 0.000000
# 3 -0.003912 -0.004427 0.013780 0.000000 0.000000 0.000000
# 4 0.000000 0.000000 0.000000 0.030231 0.000000 0.000000
# 5 0.000000 0.000000 0.000000 0.000000 0.035474 0.000000
# 6 0.000000 0.000000 0.000000 0.000000 0.000000 0.050454
#
#
# Mechanical properties :
#
#
# Convention : Reuss Voigt Hill
#
# Bulk Modulus (GPa) = 38.78071 41.58966 40.18519
# Shear Modulus (GPa) = 24.88816 26.16046 25.52431
#
# Velocity S-wave (km/s) = 3.55116 3.64079 3.59625
# Velocity P-wave (km/s) = 6.03856 6.22472 6.13235
#
# Compressibility (1/GPa) = 0.02578602
#
# Stress axis : x y z
#
# Youngs Moduli (GPa) = 68.21587 44.39406 72.56695
#
# Poissons Ratio (x) = 0.18871 0.28389
# Poissons Ratio (y) = 0.28998 0.32123
# Poissons Ratio (z) = 0.26687 0.19652
#
# Static dielectric constant tensor:
#      x y z
#    x 3.717450 0.000000 0.000000 
#    y 0.000000 3.401240 0.000000 
#    z 0.000000 0.000000 3.661570 
# 
# 
# High freq. dielectric constant tensor:
#      x y z
#    x 1.764650 0.000000 0.000000 
#    y 0.000000 1.756060 0.000000 
#    z 0.000000 0.000000 1.773640 
# 
# From -- ./inp_files/44375.got.cif
#   From: 2010.03.12/outbox.cif.g09.slc.cpg/sg74_23_cif.got.tgz:44375.got - 2010.04.16 15:46:19.
