data_PCOD8300370
_publ_section_title
;
Structure prediction by ZEFSAII (Michael W. Deem and Ramdas Pophale) SiO2 
 PCOD8300370
Probable space group: I M M A
;
_chemical_formula_sum "Si O2"
_cell_formula_units_Z 104
_cell_length_a 20.159950
_cell_length_b 9.079064
_cell_length_c 29.590544
_cell_angle_alpha 90.000000
_cell_angle_beta 90.000000
_cell_angle_gamma 90.000000
_cell_volume 5416.060134
_symmetry_space_group_name_H-M "I M M A"
_symmetry_group_IT_number 74
_symmetry_cell_setting 'orthorhombic'
loop_
_space_group_symop_operation_xyz
x,y,z
-x,1/2-y,z
x,-y,-z
-x,1/2+y,-z
-x,-y,-z
x,1/2+y,-z
-x,y,z
x,1/2-y,z
1/2+x,1/2+y,1/2+z
1/2-x,-y,1/2+z
1/2+x,1/2-y,1/2-z
1/2-x,y,1/2-z
1/2-x,1/2-y,1/2-z
1/2+x,y,1/2-z
1/2-x,1/2+y,1/2+z
1/2+x,-y,1/2+z
loop_
_atom_site_type_symbol
_atom_site_label
_atom_site_fract_x
_atom_site_fract_y
_atom_site_fract_z
Si Si1 0.783979 0.916045 0.127398
Si Si2 0.076508 0.419029 0.453923
Si Si3 0.644647 0.423174 0.451252
Si Si4 0.000000 0.581151 0.953814
Si Si5 0.318698 0.922305 0.272981
Si Si6 0.076087 0.580250 0.713818
Si Si7 0.869359 0.918564 0.370787
O O1 0.800447 0.750000 0.112036
O O2 0.821699 0.956328 0.173594
O O3 0.707519 0.930967 0.141305
O O4 0.803311 0.020830 0.085884
O O5 0.092615 0.500000 0.500000
O O6 0.097469 0.250000 0.458902
O O7 0.121369 0.495878 0.417069
O O8 0.000000 0.435363 0.440073
O O9 0.655486 0.500000 0.500000
O O10 0.656007 0.250000 0.458381
O O11 0.570547 0.457435 0.430020
O O12 0.000000 0.750000 0.966638
O O13 0.000000 0.500000 0.000000
O O14 0.329467 0.750000 0.262544
O O15 0.250000 0.974704 0.250000
O O16 0.379204 0.014535 0.253296
O O17 0.094870 0.750000 0.705565
O O18 0.086802 0.492908 0.667611
O O19 0.000000 0.563171 0.728880
O O20 0.892390 0.750000 0.376141
#
# Coordination Sequence:
#
# PCOD8300370 Si02
#       7
#    16  16  16   8  16  16  16
#     4  10  22  39  59  85 116 149 190 237 284 340
#     4  10  21  37  56  81 114 150 191 239 288 341
#     4  10  20  36  59  85 116 152 191 236 287 343
#     4   8  16  32  54  80 108 144 186 230 278 334
#     4  10  20  41  66  87 116 155 198 244 292 347
#     4  11  24  40  60  90 123 153 192 243 294 350
#     4  11  22  38  60  84 113 152 195 240 289 344
#
# _framework density 19.202151000000001
#
# number of rings (size 3 to 8) (size 9 to 14) (size 15 to 20)
#    0.000    1.846    1.538    2.308    0.000    7.385 
#    1.385    0.000    0.000    0.000    0.000    0.000 
#    0.000    0.000    0.000    0.000    0.000    0.000 
#
# Total GULP energy -644735.095022 kJ/mol
# GULP energy per Si atom -12398.751827 kJ/mol
# Density = 1.915845 g / cm^3
# Si number density = 19.202151 Si / 1000 Ang^3
#
#
#
# Elastic Constant Matrix: (Units=GPa)
#
#
# Indices 1 2 3 4 5 6 
#
# 1 71.9931 44.8017 43.1148 0.0000 0.0000 0.0000
# 2 44.8017 122.7349 63.4177 0.0000 0.0000 0.0000
# 3 43.1148 63.4177 99.0708 0.0000 0.0000 0.0000
# 4 0.0000 0.0000 0.0000 35.9520 0.0000 0.0000
# 5 0.0000 0.0000 0.0000 0.0000 34.3991 0.0000
# 6 0.0000 0.0000 0.0000 0.0000 0.0000 29.9228
#
#
#
# Elastic Compliance Matrix: (Units=1/GPa)
#
#
# Indices 1 2 3 4 5 6 
#
# 1 0.020150 -0.004220 -0.006068 0.000000 0.000000 0.000000
# 2 -0.004220 0.013058 -0.006522 0.000000 0.000000 0.000000
# 3 -0.006068 -0.006522 0.016910 0.000000 0.000000 0.000000
# 4 0.000000 0.000000 0.000000 0.027815 0.000000 0.000000
# 5 0.000000 0.000000 0.000000 0.000000 0.029071 0.000000
# 6 0.000000 0.000000 0.000000 0.000000 0.000000 0.033419
#
#
# Mechanical properties :
#
#
# Convention : Reuss Voigt Hill
#
# Bulk Modulus (GPa) = 60.61526 66.27413 63.44470
# Shear Modulus (GPa) = 27.84853 29.55240 28.70046
#
# Velocity S-wave (km/s) = 3.81239 3.92728 3.87026
# Velocity P-wave (km/s) = 7.14244 7.42655 7.28588
#
# Compressibility (1/GPa) = 0.01649750
#
# Stress axis : x y z
#
# Youngs Moduli (GPa) = 49.62695 76.58008 59.13816
#
# Poissons Ratio (x) = 0.32318 0.35884
# Poissons Ratio (y) = 0.20943 0.38572
# Poissons Ratio (z) = 0.30113 0.49948
#
# Static dielectric constant tensor:
#      x y z
#    x 4.181030 0.000000 0.000000 
#    y 0.000000 3.593660 0.000000 
#    z 0.000000 0.000000 3.181770 
# 
# 
# High freq. dielectric constant tensor:
#      x y z
#    x 1.747760 0.000000 0.000000 
#    y 0.000000 1.756460 0.000000 
#    z 0.000000 0.000000 1.742370 
# 
# From -- ./inp_files/68236.got.cif
#   From: 2010.03.12/outbox.cif.g09.slc.cpg/sg74_35_cif.got.tgz:68236.got - 2010.04.16 15:46:19.
