data_PCOD8300045
_publ_section_title
;
Structure prediction by ZEFSAII (Michael W. Deem and Ramdas Pophale) SiO2 
 PCOD8300045
Probable space group: I M M A
;
_chemical_formula_sum "Si O2"
_cell_formula_units_Z 128
_cell_length_a 19.183295
_cell_length_b 20.108348
_cell_length_c 19.394810
_cell_angle_alpha 90.000000
_cell_angle_beta 90.000000
_cell_angle_gamma 90.000000
_cell_volume 7481.438797
_symmetry_space_group_name_H-M "I M M A"
_symmetry_group_IT_number 74
_symmetry_cell_setting 'orthorhombic'
loop_
_space_group_symop_operation_xyz
x,y,z
-x,1/2-y,z
x,-y,-z
-x,1/2+y,-z
-x,-y,-z
x,1/2+y,-z
-x,y,z
x,1/2-y,z
1/2+x,1/2+y,1/2+z
1/2-x,-y,1/2+z
1/2+x,1/2-y,1/2-z
1/2-x,y,1/2-z
1/2-x,1/2-y,1/2-z
1/2+x,y,1/2-z
1/2-x,1/2+y,1/2+z
1/2+x,-y,1/2+z
loop_
_atom_site_type_symbol
_atom_site_label
_atom_site_fract_x
_atom_site_fract_y
_atom_site_fract_z
Si Si1 0.789341 0.177528 0.038937
Si Si2 0.281655 0.934994 0.047593
Si Si3 0.220748 0.990949 0.179151
Si Si4 0.077660 0.393840 0.009187
Si Si5 0.426231 0.077642 0.984697
Si Si6 0.079105 0.327482 0.384624
Si Si7 0.222697 0.861784 0.676297
Si Si8 0.078845 0.986286 0.114508
O O1 0.773032 0.250000 0.008709
O O2 0.765142 0.177030 0.118135
O O3 0.748562 0.124510 0.995429
O O4 0.871595 0.165177 0.031332
O O5 0.361301 0.915265 0.066872
O O6 0.240422 0.941891 0.117757
O O7 0.277071 0.000000 0.000000
O O8 0.250000 0.959611 0.250000
O O9 0.260186 0.060417 0.168297
O O10 0.135841 0.994646 0.176232
O O11 0.092902 0.420589 0.931725
O O12 0.000000 0.364917 0.012928
O O13 0.088154 0.452443 0.063534
O O14 0.500000 0.101648 0.951694
O O15 0.410305 0.122750 0.051544
O O16 0.433113 0.000000 0.000000
O O17 0.089555 0.250000 0.406684
O O18 0.139102 0.348111 0.329526
O O19 0.000000 0.336822 0.354365
O O20 0.250000 0.835610 0.750000
O O21 0.000000 0.984589 0.145654
#
# Coordination Sequence:
#
# PCOD8300045 Si02
#       8
#    16  16  16  16  16  16  16  16
#     4  12  22  32  53  82 108 138 178 224 269 316
#     4  11  18  34  56  74 106 140 175 226 263 312
#     4  11  21  34  55  84 107 138 181 218 265 314
#     4   9  17  31  53  79 105 137 175 221 265 309
#     4   9  17  29  49  75  98 127 170 223 276 307
#     4  10  20  35  53  73 101 141 184 218 257 317
#     4  11  22  36  52  77 108 144 183 220 261 311
#     4   9  16  31  56  79 103 139 179 214 260 317
#
# _framework density 17.109007999999999
#
# number of rings (size 3 to 8) (size 9 to 14) (size 15 to 20)
#    0.000    1.750    5.000    1.875    0.000    1.250 
#    0.000    3.750    0.000    0.375    0.000    0.000 
#    0.000    0.000    0.000    0.000    0.000    0.000 
#
# Total GULP energy -792902.439536 kJ/mol
# GULP energy per Si atom -12389.100618 kJ/mol
# Density = 1.707007 g / cm^3
# Si number density = 17.109008 Si / 1000 Ang^3
#
#
#
# Elastic Constant Matrix: (Units=GPa)
#
#
# Indices 1 2 3 4 5 6 
#
# 1 155.8808 40.2828 45.5027 0.0000 0.0000 0.0000
# 2 40.2828 87.6591 35.4412 0.0000 0.0000 0.0000
# 3 45.5027 35.4412 64.9155 0.0000 0.0000 0.0000
# 4 0.0000 0.0000 0.0000 12.3861 0.0000 0.0000
# 5 0.0000 0.0000 0.0000 0.0000 26.4466 0.0000
# 6 0.0000 0.0000 0.0000 0.0000 0.0000 30.0613
#
#
#
# Elastic Compliance Matrix: (Units=1/GPa)
#
#
# Indices 1 2 3 4 5 6 
#
# 1 0.008299 -0.001876 -0.004793 0.000000 0.000000 0.000000
# 2 -0.001876 0.015063 -0.006909 0.000000 0.000000 0.000000
# 3 -0.004793 -0.006909 0.022536 0.000000 0.000000 0.000000
# 4 0.000000 0.000000 0.000000 0.080736 0.000000 0.000000
# 5 0.000000 0.000000 0.000000 0.000000 0.037812 0.000000
# 6 0.000000 0.000000 0.000000 0.000000 0.000000 0.033265
#
#
# Mechanical properties :
#
#
# Convention : Reuss Voigt Hill
#
# Bulk Modulus (GPa) = 53.35397 61.21208 57.28303
# Shear Modulus (GPa) = 21.63424 26.26073 23.94748
#
# Velocity S-wave (km/s) = 3.55983 3.92204 3.74532
# Velocity P-wave (km/s) = 6.93894 7.50768 7.22891
#
# Compressibility (1/GPa) = 0.01874275
#
# Stress axis : x y z
#
# Youngs Moduli (GPa) = 120.49560 66.38681 44.37258
#
# Poissons Ratio (x) = 0.12453 0.21268
# Poissons Ratio (y) = 0.22603 0.30657
# Poissons Ratio (z) = 0.57755 0.45867
#
# Static dielectric constant tensor:
#      x y z
#    x 4.002910 0.000000 0.000000 
#    y 0.000000 3.111380 0.000000 
#    z 0.000000 0.000000 3.231960 
# 
# 
# High freq. dielectric constant tensor:
#      x y z
#    x 1.692060 0.000000 0.000000 
#    y 0.000000 1.641930 0.000000 
#    z 0.000000 0.000000 1.614810 
# 
# From -- ./inp_files/45640.got.cif
#   From: 2010.03.12/outbox.cif.g09.slc.cpg/sg74_23_cif.got.tgz:45640.got - 2010.04.16 15:46:19.
