data_PCOD8300759
_publ_section_title
;
Structure prediction by ZEFSAII (Michael W. Deem and Ramdas Pophale) SiO2 
 PCOD8300759
Probable space group: I M M A
;
_chemical_formula_sum "Si O2"
_cell_formula_units_Z 104
_cell_length_a 8.971510
_cell_length_b 20.395921
_cell_length_c 29.224501
_cell_angle_alpha 90.000000
_cell_angle_beta 90.000000
_cell_angle_gamma 90.000000
_cell_volume 5347.563756
_symmetry_space_group_name_H-M "I M M A"
_symmetry_group_IT_number 74
_symmetry_cell_setting 'orthorhombic'
loop_
_space_group_symop_operation_xyz
x,y,z
-x,1/2-y,z
x,-y,-z
-x,1/2+y,-z
-x,-y,-z
x,1/2+y,-z
-x,y,z
x,1/2-y,z
1/2+x,1/2+y,1/2+z
1/2-x,-y,1/2+z
1/2+x,1/2-y,1/2-z
1/2-x,y,1/2-z
1/2-x,1/2-y,1/2-z
1/2+x,y,1/2-z
1/2-x,1/2+y,1/2+z
1/2+x,-y,1/2+z
loop_
_atom_site_type_symbol
_atom_site_label
_atom_site_fract_x
_atom_site_fract_y
_atom_site_fract_z
Si Si1 0.820009 0.750000 0.198815
Si Si2 0.829275 0.323799 0.391498
Si Si3 0.328374 0.481552 0.794329
Si Si4 0.823304 0.426017 0.943443
Si Si5 0.825884 0.871109 0.704911
Si Si6 0.174926 0.865500 0.359539
Si Si7 0.675272 0.072186 0.453336
O O1 0.750000 0.750000 0.250000
O O2 0.764827 0.687331 0.170148
O O3 0.000000 0.750000 0.202635
O O4 0.806333 0.250000 0.408974
O O5 0.780620 0.327510 0.338513
O O6 0.727866 0.370864 0.420640
O O7 0.000000 0.346741 0.396655
O O8 0.500000 0.483485 0.781978
O O9 0.250000 0.450549 0.750000
O O10 0.268170 0.554669 0.804469
O O11 0.296033 0.436438 0.837634
O O12 0.739003 0.373796 0.910800
O O13 0.768482 0.501223 0.935335
O O14 0.000000 0.418010 0.935796
O O15 0.773173 0.409974 0.995297
O O16 0.750000 0.841116 0.750000
O O17 0.000000 0.869527 0.713734
O O18 0.000000 0.846395 0.360845
O O19 0.500000 0.068473 0.453574
#
# Coordination Sequence:
#
# PCOD8300759 Si02
#       7
#     8  16  16  16  16  16  16
#     4  12  26  44  62  82 116 160 202 246 295 352
#     4  10  21  36  53  76 109 148 186 226 277 330
#     4   9  18  31  50  76 105 136 174 222 273 324
#     4   9  19  37  60  86 114 144 182 233 291 343
#     4   9  18  33  51  75 107 141 179 224 272 322
#     4  11  22  37  58  86 114 148 193 237 285 347
#     4   9  19  37  60  85 113 146 187 232 282 345
#
# _framework density 19.448108000000001
#
# number of rings (size 3 to 8) (size 9 to 14) (size 15 to 20)
#    0.000    2.308    0.000    3.462    0.000    6.154 
#    1.385    4.615    0.000    0.000    0.000    0.000 
#    0.000    0.000    0.000    0.000    0.000    0.000 
#
# Total GULP energy -644650.130358 kJ/mol
# GULP energy per Si atom -12397.117892 kJ/mol
# Density = 1.940384 g / cm^3
# Si number density = 19.448108 Si / 1000 Ang^3
#
#
#
# Elastic Constant Matrix: (Units=GPa)
#
#
# Indices 1 2 3 4 5 6 
#
# 1 51.5837 22.5841 33.9197 0.0000 0.0000 0.0000
# 2 22.5841 60.2205 37.1423 0.0000 0.0000 0.0000
# 3 33.9197 37.1423 108.2808 0.0000 0.0000 0.0000
# 4 0.0000 0.0000 0.0000 24.8869 0.0000 0.0000
# 5 0.0000 0.0000 0.0000 0.0000 37.1889 0.0000
# 6 0.0000 0.0000 0.0000 0.0000 0.0000 24.8066
#
#
#
# Elastic Compliance Matrix: (Units=1/GPa)
#
#
# Indices 1 2 3 4 5 6 
#
# 1 0.026019 -0.006000 -0.006093 0.000000 0.000000 0.000000
# 2 -0.006000 0.022445 -0.005820 0.000000 0.000000 0.000000
# 3 -0.006093 -0.005820 0.013140 0.000000 0.000000 0.000000
# 4 0.000000 0.000000 0.000000 0.040182 0.000000 0.000000
# 5 0.000000 0.000000 0.000000 0.000000 0.026890 0.000000
# 6 0.000000 0.000000 0.000000 0.000000 0.000000 0.040312
#
#
# Mechanical properties :
#
#
# Convention : Reuss Voigt Hill
#
# Bulk Modulus (GPa) = 38.78980 45.26413 42.02697
# Shear Modulus (GPa) = 23.42959 25.80573 24.61766
#
# Velocity S-wave (km/s) = 3.47468 3.64662 3.56169
# Velocity P-wave (km/s) = 6.00720 6.40744 6.21054
#
# Compressibility (1/GPa) = 0.02577997
#
# Stress axis : x y z
#
# Youngs Moduli (GPa) = 38.43320 44.55308 76.10368
#
# Poissons Ratio (x) = 0.26732 0.46366
# Poissons Ratio (y) = 0.23060 0.44289
# Poissons Ratio (z) = 0.23416 0.25928
#
# Static dielectric constant tensor:
#      x y z
#    x 3.427680 0.000000 0.000000 
#    y 0.000000 3.560060 0.000000 
#    z 0.000000 0.000000 3.663380 
# 
# 
# High freq. dielectric constant tensor:
#      x y z
#    x 1.747710 0.000000 0.000000 
#    y 0.000000 1.751030 0.000000 
#    z 0.000000 0.000000 1.764070 
# 
# From -- ./inp_files/64467.got.cif
#   From: 2010.03.12/outbox.cif.g09.slc.cpg/sg74_33_cif.got.tgz:64467.got - 2010.04.16 15:46:19.
