data_PCOD8300569
_publ_section_title
;
Structure prediction by ZEFSAII (Michael W. Deem and Ramdas Pophale) SiO2 
 PCOD8300569
Probable space group: I M M A
;
_chemical_formula_sum "Si O2"
_cell_formula_units_Z 112
_cell_length_a 27.894330
_cell_length_b 17.059410
_cell_length_c 10.839416
_cell_angle_alpha 90.000000
_cell_angle_beta 90.000000
_cell_angle_gamma 90.000000
_cell_volume 5158.053301
_symmetry_space_group_name_H-M "I M M A"
_symmetry_group_IT_number 74
_symmetry_cell_setting 'orthorhombic'
loop_
_space_group_symop_operation_xyz
x,y,z
-x,1/2-y,z
x,-y,-z
-x,1/2+y,-z
-x,-y,-z
x,1/2+y,-z
-x,y,z
x,1/2-y,z
1/2+x,1/2+y,1/2+z
1/2-x,-y,1/2+z
1/2+x,1/2-y,1/2-z
1/2-x,y,1/2-z
1/2-x,1/2-y,1/2-z
1/2+x,y,1/2-z
1/2-x,1/2+y,1/2+z
1/2+x,-y,1/2+z
loop_
_atom_site_type_symbol
_atom_site_label
_atom_site_fract_x
_atom_site_fract_y
_atom_site_fract_z
Si Si1 0.145339 0.338565 0.734529
Si Si2 0.231043 0.660598 0.614079
Si Si3 0.588001 0.659371 0.561982
Si Si4 0.316858 0.090640 0.526133
Si Si5 0.640989 0.412782 0.028042
Si Si6 0.444303 0.575502 0.793098
Si Si7 0.053710 0.408160 0.823407
O O1 0.163214 0.250000 0.751635
O O2 0.176409 0.393149 0.827130
O O3 0.149318 0.362359 0.593734
O O4 0.089054 0.343962 0.766575
O O5 0.228769 0.750000 0.570447
O O6 0.250000 0.651193 0.750000
O O7 0.263725 0.614322 0.515683
O O8 0.178149 0.623677 0.624548
O O9 0.578380 0.750000 0.528418
O O10 0.644696 0.642100 0.550597
O O11 0.568812 0.645010 0.699537
O O12 0.558692 0.600256 0.471638
O O13 0.326455 0.000000 0.500000
O O14 0.587017 0.412264 0.082958
O O15 0.657043 0.500000 0.000000
O O16 0.500000 0.579108 0.831833
O O17 0.430958 0.493896 0.725696
O O18 0.000000 0.389095 0.781175
#
# Coordination Sequence:
#
# PCOD8300569 Si02
#       7
#    16  16  16  16  16  16  16
#     4  11  24  42  66  97 134 178 223 275 337 392
#     4  11  25  44  70 102 135 170 214 271 338 401
#     4  11  22  37  63  99 139 175 216 277 342 402
#     4  11  23  42  70 100 136 174 220 269 327 406
#     4  12  26  45  67  94 131 177 228 281 330 400
#     4  11  24  42  66  94 130 179 230 279 336 399
#     4  10  20  38  63  93 130 173 223 275 330 399
#
# _framework density 21.713618
#
# number of rings (size 3 to 8) (size 9 to 14) (size 15 to 20)
#    0.000    1.000    1.429    6.857    2.000    6.857 
#    0.000    1.429    0.000    0.000    0.000    0.000 
#    0.000    0.000    0.000    0.000    0.000    0.000 
#
# Total GULP energy -694493.223675 kJ/mol
# GULP energy per Si atom -12401.664708 kJ/mol
# Density = 2.166420 g / cm^3
# Si number density = 21.713618 Si / 1000 Ang^3
#
#
#
# Elastic Constant Matrix: (Units=GPa)
#
#
# Indices 1 2 3 4 5 6 
#
# 1 116.8857 38.1556 44.3014 0.0000 0.0000 0.0000
# 2 38.1556 126.3872 57.2158 0.0000 0.0000 0.0000
# 3 44.3014 57.2158 84.7236 0.0000 0.0000 0.0000
# 4 0.0000 0.0000 0.0000 33.4372 0.0000 0.0000
# 5 0.0000 0.0000 0.0000 0.0000 24.3811 0.0000
# 6 0.0000 0.0000 0.0000 0.0000 0.0000 70.4601
#
#
#
# Elastic Compliance Matrix: (Units=1/GPa)
#
#
# Indices 1 2 3 4 5 6 
#
# 1 0.010759 -0.001010 -0.004944 0.000000 0.000000 0.000000
# 2 -0.001010 0.011491 -0.007232 0.000000 0.000000 0.000000
# 3 -0.004944 -0.007232 0.019272 0.000000 0.000000 0.000000
# 4 0.000000 0.000000 0.000000 0.029907 0.000000 0.000000
# 5 0.000000 0.000000 0.000000 0.000000 0.041015 0.000000
# 6 0.000000 0.000000 0.000000 0.000000 0.000000 0.014192
#
#
# Mechanical properties :
#
#
# Convention : Reuss Voigt Hill
#
# Bulk Modulus (GPa) = 66.00430 67.48246 66.74338
# Shear Modulus (GPa) = 31.63398 38.21061 34.92230
#
# Velocity S-wave (km/s) = 3.82104 4.19949 4.01473
# Velocity P-wave (km/s) = 7.06617 7.39325 7.23156
#
# Compressibility (1/GPa) = 0.01515053
#
# Stress axis : x y z
#
# Youngs Moduli (GPa) = 92.94747 87.02397 51.88873
#
# Poissons Ratio (x) = 0.08790 0.25652
# Poissons Ratio (y) = 0.09388 0.37526
# Poissons Ratio (z) = 0.45949 0.62936
#
# Static dielectric constant tensor:
#      x y z
#    x 3.936050 0.000000 0.000000 
#    y 0.000000 4.015900 0.000000 
#    z 0.000000 0.000000 3.958820 
# 
# 
# High freq. dielectric constant tensor:
#      x y z
#    x 1.854180 0.000000 0.000000 
#    y 0.000000 1.856090 0.000000 
#    z 0.000000 0.000000 1.851330 
# 
# From -- ./inp_files/27235.got.cif
#   From: 2010.03.12/outbox.cif.g09.slc.cpg/sg74_14_cif.got.tgz:27235.got - 2010.04.16 15:46:19.
