data_PCOD8300562
_publ_section_title
;
Structure prediction by ZEFSAII (Michael W. Deem and Ramdas Pophale) SiO2 
 PCOD8300562
Probable space group: I M M A
;
_chemical_formula_sum "Si O2"
_cell_formula_units_Z 112
_cell_length_a 13.973464
_cell_length_b 30.309594
_cell_length_c 11.933612
_cell_angle_alpha 90.000000
_cell_angle_beta 90.000000
_cell_angle_gamma 90.000000
_cell_volume 5054.242936
_symmetry_space_group_name_H-M "I M M A"
_symmetry_group_IT_number 74
_symmetry_cell_setting 'orthorhombic'
loop_
_space_group_symop_operation_xyz
x,y,z
-x,1/2-y,z
x,-y,-z
-x,1/2+y,-z
-x,-y,-z
x,1/2+y,-z
-x,y,z
x,1/2-y,z
1/2+x,1/2+y,1/2+z
1/2-x,-y,1/2+z
1/2+x,1/2-y,1/2-z
1/2-x,y,1/2-z
1/2-x,1/2-y,1/2-z
1/2+x,y,1/2-z
1/2-x,1/2+y,1/2+z
1/2+x,-y,1/2+z
loop_
_atom_site_type_symbol
_atom_site_label
_atom_site_fract_x
_atom_site_fract_y
_atom_site_fract_z
Si Si1 0.895214 0.886069 0.802120
Si Si2 0.613834 0.957344 0.868392
Si Si3 0.701613 0.451014 0.899659
Si Si4 0.108862 0.625298 0.275471
Si Si5 0.150689 0.798681 0.688073
Si Si6 0.112324 0.700677 0.439451
Si Si7 0.889690 0.908701 0.044011
O O1 0.844332 0.920038 0.716502
O O2 0.905595 0.837043 0.751851
O O3 0.000000 0.905774 0.815631
O O4 0.852438 0.886531 0.927814
O O5 0.500000 0.966145 0.856418
O O6 0.675712 0.001503 0.847693
O O7 0.635407 0.940522 0.993254
O O8 0.676135 0.415228 0.807074
O O9 0.815328 0.448574 0.929379
O O10 0.146898 0.668971 0.338752
O O11 0.116963 0.629313 0.140265
O O12 0.000000 0.615735 0.311778
O O13 0.100434 0.750000 0.696550
O O14 0.250000 0.796433 0.750000
O O15 0.163679 0.811298 0.557137
O O16 0.139185 0.750000 0.401024
O O17 0.000000 0.695846 0.462288
O O18 0.000000 0.926621 0.039849
#
# Coordination Sequence:
#
# PCOD8300562 Si02
#       7
#    16  16  16  16  16  16  16
#     4  10  22  41  63  88 126 170 205 254 319 384
#     4  10  22  41  66  98 124 150 205 269 319 375
#     4  11  21  39  64  91 119 161 209 259 321 369
#     4  10  20  38  63  89 120 159 206 262 312 367
#     4  10  21  35  57  94 131 160 202 260 316 376
#     4   9  18  34  60  92 121 155 204 261 321 376
#     4  10  24  43  58  86 128 170 216 253 303 385
#
# _framework density 22.159599
#
# number of rings (size 3 to 8) (size 9 to 14) (size 15 to 20)
#    0.000    2.000    0.000    3.429    4.000    3.143 
#   10.286    2.143    0.000    4.286    0.000    0.000 
#    0.000    0.000    0.000    0.000    0.000    0.000 
#
# Total GULP energy -693830.948395 kJ/mol
# GULP energy per Si atom -12389.838364 kJ/mol
# Density = 2.210916 g / cm^3
# Si number density = 22.159599 Si / 1000 Ang^3
#
#
#
# Elastic Constant Matrix: (Units=GPa)
#
#
# Indices 1 2 3 4 5 6 
#
# 1 84.6348 35.2968 27.2683 -0.0017 0.0001 -0.0001
# 2 35.2968 139.7414 92.6812 0.0004 -0.0004 -0.0004
# 3 27.2683 92.6812 169.4045 0.0224 -0.0024 0.0024
# 4 -0.0017 0.0004 0.0224 -9.0105 -0.0010 0.0013
# 5 0.0001 -0.0004 -0.0024 -0.0010 20.7847 0.0003
# 6 -0.0001 -0.0004 0.0024 0.0013 0.0003 14.7541
#
#
#
# Elastic Compliance Matrix: (Units=1/GPa)
#
#
# Indices 1 2 3 4 5 6 
#
# 1 0.013231 -0.003028 -0.000473 -0.000004 0.000000 0.000000
# 2 -0.003028 0.011925 -0.006036 -0.000014 0.000000 0.000001
# 3 -0.000473 -0.006036 0.009282 0.000023 0.000001 -0.000002
# 4 -0.000004 -0.000014 0.000023 -0.110982 -0.000006 0.000010
# 5 0.000000 0.000000 0.000001 -0.000006 0.048112 -0.000001
# 6 0.000000 0.000001 -0.000002 0.000010 -0.000001 0.067778
#
#
# Mechanical properties :
#
#
# Convention : Reuss Voigt Hill
#
# Bulk Modulus (GPa) = 65.09695 78.25260 71.67477
# Shear Modulus (GPa) = 78.68909 21.20796 49.94853
#
# Velocity S-wave (km/s) = 5.96551 3.09699 4.75282
# Velocity P-wave (km/s) = 8.76869 6.94106 7.90785
#
# Compressibility (1/GPa) = 0.01536170
#
# Stress axis : x y z
#
# Youngs Moduli (GPa) = 75.58142 83.86046 107.73867
#
# Poissons Ratio (x) = 0.25395 0.05096
# Poissons Ratio (y) = 0.22888 0.65036
# Poissons Ratio (z) = 0.03575 0.50622
#
# Static dielectric constant tensor:
#      x y z
#    x 4.060700 -0.000010 -0.000010 
#    y -0.000010 4.156240 0.000000 
#    z -0.000010 0.000000 4.287840 
# 
# 
# High freq. dielectric constant tensor:
#      x y z
#    x 1.870870 0.000000 0.000000 
#    y 0.000000 1.851860 0.000000 
#    z 0.000000 0.000000 1.885920 
# 
# From -- ./inp_files/21140.got.cif
#   From: 2010.03.12/outbox.cif.g09.slc.cpg/sg74_11_cif.got.tgz:21140.got - 2010.04.16 15:46:19.
