data_PCOD8300638
_publ_section_title
;
Structure prediction by ZEFSAII (Michael W. Deem and Ramdas Pophale) SiO2 
 PCOD8300638
Probable space group: I M M A
;
_chemical_formula_sum "Si O2"
_cell_formula_units_Z 104
_cell_length_a 21.235521
_cell_length_b 17.015772
_cell_length_c 14.981369
_cell_angle_alpha 90.000000
_cell_angle_beta 90.000000
_cell_angle_gamma 90.000000
_cell_volume 5413.349652
_symmetry_space_group_name_H-M "I M M A"
_symmetry_group_IT_number 74
_symmetry_cell_setting 'orthorhombic'
loop_
_space_group_symop_operation_xyz
x,y,z
-x,1/2-y,z
x,-y,-z
-x,1/2+y,-z
-x,-y,-z
x,1/2+y,-z
-x,y,z
x,1/2-y,z
1/2+x,1/2+y,1/2+z
1/2-x,-y,1/2+z
1/2+x,1/2-y,1/2-z
1/2-x,y,1/2-z
1/2-x,1/2-y,1/2-z
1/2+x,y,1/2-z
1/2-x,1/2+y,1/2+z
1/2+x,-y,1/2+z
loop_
_atom_site_type_symbol
_atom_site_label
_atom_site_fract_x
_atom_site_fract_y
_atom_site_fract_z
Si Si1 0.623704 0.837799 0.988865
Si Si2 0.893018 0.662971 0.304600
Si Si3 0.000000 0.541505 0.272737
Si Si4 0.302116 0.921915 0.317510
Si Si5 0.000000 0.042701 0.093433
Si Si6 0.000000 0.930460 0.568633
Si Si7 0.762235 0.843410 0.999019
Si Si8 0.863914 0.055919 0.084824
O O1 0.611138 0.750000 0.955353
O O2 0.632007 0.840647 0.095170
O O3 0.564974 0.884577 0.948656
O O4 0.693458 0.866414 0.957345
O O5 0.921637 0.750000 0.285795
O O6 0.839208 0.648389 0.231441
O O7 0.941303 0.593317 0.298011
O O8 0.000000 0.524547 0.168366
O O9 0.000000 0.460911 0.329805
O O10 0.250000 0.953322 0.250000
O O11 0.272222 0.887538 0.407525
O O12 0.344779 0.999267 0.333588
O O13 0.934507 0.091970 0.102425
O O14 0.000000 0.000000 0.000000
O O15 0.000000 0.000000 0.500000
O O16 0.768069 0.750000 0.012322
O O17 0.815036 0.872813 0.928754
O O18 0.866043 0.000000 0.000000
#
# Coordination Sequence:
#
# PCOD8300638 Si02
#       8
#    16  16   8  16   8   8  16  16
#     4  10  21  38  58  83 125 166 196 241 298 355
#     4  11  21  34  55  88 126 156 186 234 304 373
#     4  12  23  38  59  87 119 159 200 246 295 355
#     4  11  20  33  55  89 119 151 193 242 300 366
#     4  10  20  41  62  79 112 150 202 252 308 351
#     4  12  23  35  57  90 122 162 210 242 280 359
#     4  10  21  37  58  85 117 156 199 246 303 363
#     4   9  20  36  58  81 111 151 195 243 293 360
#
# _framework density 19.211763999999999
#
# number of rings (size 3 to 8) (size 9 to 14) (size 15 to 20)
#    0.000    1.538    4.615    0.923    0.000    4.923 
#    0.000    0.385    0.000    2.308    0.000    0.000 
#    0.000    0.000    0.000    0.000    0.000    0.000 
#
# Total GULP energy -644329.942825 kJ/mol
# GULP energy per Si atom -12390.960439 kJ/mol
# Density = 1.916804 g / cm^3
# Si number density = 19.211764 Si / 1000 Ang^3
#
#
#
# Elastic Constant Matrix: (Units=GPa)
#
#
# Indices 1 2 3 4 5 6 
#
# 1 185.2516 68.8009 35.4890 0.0000 0.0000 0.0000
# 2 68.8009 78.6934 39.4412 0.0000 0.0000 0.0000
# 3 35.4890 39.4412 64.1917 0.0000 0.0000 0.0000
# 4 0.0000 0.0000 0.0000 27.3969 0.0000 0.0000
# 5 0.0000 0.0000 0.0000 0.0000 27.9018 0.0000
# 6 0.0000 0.0000 0.0000 0.0000 0.0000 156.3518
#
#
#
# Elastic Compliance Matrix: (Units=1/GPa)
#
#
# Indices 1 2 3 4 5 6 
#
# 1 0.007995 -0.006899 -0.000181 0.000000 0.000000 0.000000
# 2 -0.006899 0.024316 -0.011126 0.000000 0.000000 0.000000
# 3 -0.000181 -0.011126 0.022515 0.000000 0.000000 0.000000
# 4 0.000000 0.000000 0.000000 0.036500 0.000000 0.000000
# 5 0.000000 0.000000 0.000000 0.000000 0.035840 0.000000
# 6 0.000000 0.000000 0.000000 0.000000 0.000000 0.006396
#
#
# Mechanical properties :
#
#
# Convention : Reuss Voigt Hill
#
# Bulk Modulus (GPa) = 54.30993 68.39987 61.35490
# Shear Modulus (GPa) = 28.39100 54.62382 41.50741
#
# Velocity S-wave (km/s) = 3.84838 5.33800 4.65318
# Velocity P-wave (km/s) = 6.93377 8.58328 7.80224
#
# Compressibility (1/GPa) = 0.01841284
#
# Stress axis : x y z
#
# Youngs Moduli (GPa) = 125.07694 41.12540 44.41565
#
# Poissons Ratio (x) = 0.28374 0.00804
# Poissons Ratio (y) = 0.86294 0.49417
# Poissons Ratio (z) = 0.02265 0.45756
#
# Static dielectric constant tensor:
#      x y z
#    x 4.006830 0.000000 0.000000 
#    y 0.000000 3.798910 0.000000 
#    z 0.000000 0.000000 3.478590 
# 
# 
# High freq. dielectric constant tensor:
#      x y z
#    x 1.772310 0.000000 0.000000 
#    y 0.000000 1.724620 0.000000 
#    z 0.000000 0.000000 1.728980 
# 
# From -- ./inp_files/35523.got.cif
#   From: 2010.03.12/outbox.cif.g09.slc.cpg/sg74_18_cif.got.tgz:35523.got - 2010.04.16 15:46:19.
