data_PCOD8300659
_publ_section_title
;
Structure prediction by ZEFSAII (Michael W. Deem and Ramdas Pophale) SiO2 
 PCOD8300659
Probable space group: I M M A
;
_chemical_formula_sum "Si O2"
_cell_formula_units_Z 88
_cell_length_a 13.639461
_cell_length_b 17.185547
_cell_length_c 20.762674
_cell_angle_alpha 90.000000
_cell_angle_beta 90.000000
_cell_angle_gamma 90.000000
_cell_volume 4866.803966
_symmetry_space_group_name_H-M "I M M A"
_symmetry_group_IT_number 74
_symmetry_cell_setting 'orthorhombic'
loop_
_space_group_symop_operation_xyz
x,y,z
-x,1/2-y,z
x,-y,-z
-x,1/2+y,-z
-x,-y,-z
x,1/2+y,-z
-x,y,z
x,1/2-y,z
1/2+x,1/2+y,1/2+z
1/2-x,-y,1/2+z
1/2+x,1/2-y,1/2-z
1/2-x,y,1/2-z
1/2-x,1/2-y,1/2-z
1/2+x,y,1/2-z
1/2-x,1/2+y,1/2+z
1/2+x,-y,1/2+z
loop_
_atom_site_type_symbol
_atom_site_label
_atom_site_fract_x
_atom_site_fract_y
_atom_site_fract_z
Si Si1 0.612388 0.840849 0.144669
Si Si2 0.197440 0.922633 0.957159
Si Si3 0.616692 0.478655 0.649347
Si Si4 0.250000 0.916548 0.250000
Si Si5 0.612921 0.665629 0.434795
Si Si6 0.105679 0.090831 0.506685
O O1 0.500000 0.860625 0.165327
O O2 0.623541 0.750000 0.130606
O O3 0.687585 0.863786 0.201023
O O4 0.639906 0.886712 0.079025
O O5 0.307858 0.885801 0.956463
O O6 0.155035 0.943982 0.887301
O O7 0.127150 0.859794 0.990955
O O8 0.199198 0.000000 0.000000
O O9 0.500000 0.483544 0.657219
O O10 0.671381 0.474481 0.717175
O O11 0.653130 0.400154 0.613115
O O12 0.500000 0.675397 0.420999
O O13 0.664027 0.750000 0.421794
O O14 0.000000 0.131683 0.490898
O O15 0.089194 0.000000 0.500000
#
# Coordination Sequence:
#
# PCOD8300659 Si02
#       6
#    16  16  16   8  16  16
#     4  10  21  34  47  67  97 131 165 200 235 273
#     4   9  16  29  48  68  91 120 150 187 239 286
#     4  10  21  34  47  67  96 127 159 195 231 272
#     4  12  21  32  48  64  89 130 174 202 225 268
#     4   9  17  29  47  71  96 121 151 191 240 289
#     4   9  17  30  47  66  88 116 154 196 236 280
#
# _framework density 18.081682000000001
#
# number of rings (size 3 to 8) (size 9 to 14) (size 15 to 20)
#    0.000    2.364    0.000    4.636    0.000    5.818 
#    0.000    2.727    0.000    0.000    0.000    0.636 
#    0.000    1.455    0.000   13.091    0.000    4.364 
#
# Total GULP energy -545095.273073 kJ/mol
# GULP energy per Si atom -12388.528933 kJ/mol
# Density = 1.804053 g / cm^3
# Si number density = 18.081682 Si / 1000 Ang^3
#
#
#
# Elastic Constant Matrix: (Units=GPa)
#
#
# Indices 1 2 3 4 5 6 
#
# 1 113.4155 28.0519 57.3437 0.0000 0.0000 0.0000
# 2 28.0519 32.3511 41.6320 0.0000 0.0000 0.0000
# 3 57.3437 41.6320 88.5495 0.0000 0.0000 0.0000
# 4 0.0000 0.0000 0.0000 19.9206 0.0000 0.0000
# 5 0.0000 0.0000 0.0000 0.0000 37.2509 0.0000
# 6 0.0000 0.0000 0.0000 0.0000 0.0000 -24.8051
#
#
#
# Elastic Compliance Matrix: (Units=1/GPa)
#
#
# Indices 1 2 3 4 5 6 
#
# 1 0.013126 -0.001121 -0.007973 0.000000 0.000000 0.000000
# 2 -0.001121 0.078358 -0.036114 0.000000 0.000000 0.000000
# 3 -0.007973 -0.036114 0.033435 0.000000 0.000000 0.000000
# 4 0.000000 0.000000 0.000000 0.050199 0.000000 0.000000
# 5 0.000000 0.000000 0.000000 0.000000 0.026845 0.000000
# 6 0.000000 0.000000 0.000000 0.000000 0.000000 -0.040314
#
#
# Mechanical properties :
#
#
# Convention : Reuss Voigt Hill
#
# Bulk Modulus (GPa) = 28.98357 54.26346 41.62351
# Shear Modulus (GPa) = 18.97059 13.62585 16.29822
#
# Velocity S-wave (km/s) = 3.24259 2.74810 3.00553
# Velocity P-wave (km/s) = 5.48482 6.33599 5.92571
#
# Compressibility (1/GPa) = 0.03450230
#
# Stress axis : x y z
#
# Youngs Moduli (GPa) = 76.18709 12.76201 29.90833
#
# Poissons Ratio (x) = 0.01431 0.23845
# Poissons Ratio (y) = 0.08542 1.08011
# Poissons Ratio (z) = 0.60743 0.46089
#
# Static dielectric constant tensor:
#      x y z
#    x 3.859430 0.000000 0.000000 
#    y 0.000000 3.454360 0.000000 
#    z 0.000000 0.000000 3.183450 
# 
# 
# High freq. dielectric constant tensor:
#      x y z
#    x 1.734250 0.000000 0.000000 
#    y 0.000000 1.665760 0.000000 
#    z 0.000000 0.000000 1.662590 
# 
# From -- ./inp_files/42775.got.cif
#   From: 2010.03.12/outbox.cif.g09.slc.cpg/sg74_22_cif.got.tgz:42775.got - 2010.04.16 15:46:19.
