data_PCOD8300352
_publ_section_title
;
Structure prediction by ZEFSAII (Michael W. Deem and Ramdas Pophale) SiO2 
 PCOD8300352
Probable space group: I M M A
;
_chemical_formula_sum "Si O2"
_cell_formula_units_Z 80
_cell_length_a 15.330499
_cell_length_b 17.712615
_cell_length_c 14.890782
_cell_angle_alpha 90.000000
_cell_angle_beta 90.000000
_cell_angle_gamma 90.000000
_cell_volume 4043.490990
_symmetry_space_group_name_H-M "I M M A"
_symmetry_group_IT_number 74
_symmetry_cell_setting 'orthorhombic'
loop_
_space_group_symop_operation_xyz
x,y,z
-x,1/2-y,z
x,-y,-z
-x,1/2+y,-z
-x,-y,-z
x,1/2+y,-z
-x,y,z
x,1/2-y,z
1/2+x,1/2+y,1/2+z
1/2-x,-y,1/2+z
1/2+x,1/2-y,1/2-z
1/2-x,y,1/2-z
1/2-x,1/2-y,1/2-z
1/2+x,y,1/2-z
1/2-x,1/2+y,1/2+z
1/2+x,-y,1/2+z
loop_
_atom_site_type_symbol
_atom_site_label
_atom_site_fract_x
_atom_site_fract_y
_atom_site_fract_z
Si Si1 0.901976 0.067992 0.935707
Si Si2 0.903449 0.529829 0.769062
Si Si3 0.801218 0.831546 0.840210
Si Si4 0.761422 0.663638 0.470433
Si Si5 0.898778 0.045993 0.590768
O O1 0.835540 0.137073 0.942906
O O2 0.000000 0.093704 0.963957
O O3 0.901422 0.042849 0.832436
O O4 0.870399 0.000000 0.000000
O O5 0.865044 0.598849 0.825835
O O6 0.860259 0.504603 0.673875
O O7 0.000000 0.556261 0.744546
O O8 0.848784 0.750000 0.859367
O O9 0.750000 0.822219 0.750000
O O10 0.733517 0.847416 0.921611
O O11 0.772918 0.750000 0.441215
O O12 0.838290 0.619326 0.419527
O O13 0.000000 0.069561 0.608866
O O14 0.890471 0.000000 0.500000
#
# Coordination Sequence:
#
# PCOD8300352 Si02
#       5
#    16  16  16  16  16
#     4  10  20  36  58  87 118 151 196 243 294 357
#     4  10  21  37  60  86 112 153 200 246 298 349
#     4  10  21  35  54  86 121 150 188 241 302 365
#     4  11  23  38  59  87 120 161 198 240 306 358
#     4  10  22  40  61  87 117 155 207 252 289 348
#
# _framework density 19.784883000000001
#
# number of rings (size 3 to 8) (size 9 to 14) (size 15 to 20)
#    0.000    1.800    2.000    1.800    2.800    1.200 
#    0.000    4.000    0.000   10.800    0.000    0.000 
#    0.000    0.000    0.000    0.000    0.000    0.000 
#
# Total GULP energy -495681.072138 kJ/mol
# GULP energy per Si atom -12392.026803 kJ/mol
# Density = 1.973985 g / cm^3
# Si number density = 19.784883 Si / 1000 Ang^3
#
#
#
# Elastic Constant Matrix: (Units=GPa)
#
#
# Indices 1 2 3 4 5 6 
#
# 1 75.8341 48.6785 3.4155 0.0000 0.0000 0.0000
# 2 48.6785 107.5413 16.5991 0.0000 0.0000 0.0000
# 3 3.4155 16.5991 78.0600 0.0000 0.0000 0.0000
# 4 0.0000 0.0000 0.0000 -0.0807 0.0000 0.0000
# 5 0.0000 0.0000 0.0000 0.0000 27.1398 0.0000
# 6 0.0000 0.0000 0.0000 0.0000 0.0000 6.9178
#
#
#
# Elastic Compliance Matrix: (Units=1/GPa)
#
#
# Indices 1 2 3 4 5 6 
#
# 1 0.018665 -0.008605 0.001013 0.000000 0.000000 0.000000
# 2 -0.008605 0.013581 -0.002512 0.000001 0.000000 0.000000
# 3 0.001013 -0.002512 0.013300 0.000000 0.000000 0.000000
# 4 0.000000 0.000001 0.000000-12.384748 0.000003 0.000004
# 5 0.000000 0.000000 0.000000 0.000003 0.036846 0.000000
# 6 0.000000 0.000000 0.000000 0.000004 0.000000 0.144555
#
#
# Mechanical properties :
#
#
# Convention : Reuss Voigt Hill
#
# Bulk Modulus (GPa) = 39.46359 44.31352 41.88855
# Shear Modulus (GPa) = -0.41223 19.64485 9.61631
#
# Velocity S-wave (km/s) = -0.45696 3.15449 2.20703
# Velocity P-wave (km/s) = 4.43973 5.97612 5.26428
#
# Compressibility (1/GPa) = 0.02533982
#
# Stress axis : x y z
#
# Youngs Moduli (GPa) = 53.57741 73.63008 75.18573
#
# Poissons Ratio (x) = 0.63358 -0.07617
# Poissons Ratio (y) = 0.46103 0.18883
# Poissons Ratio (z) = -0.05428 0.18492
#
# Static dielectric constant tensor:
#      x y z
#    x 3.698600 0.000000 0.000000 
#    y 0.000000 4.384340 0.000000 
#    z 0.000000 0.000000 3.849730 
# 
# 
# High freq. dielectric constant tensor:
#      x y z
#    x 1.757060 0.000000 0.000000 
#    y 0.000000 1.759030 0.000000 
#    z 0.000000 0.000000 1.788260 
# 
# From -- ./inp_files/33961.got.cif
#   From: 2010.03.12/outbox.cif.g09.slc.cpg/sg74_17_cif.got.tgz:33961.got - 2010.04.16 15:46:19.
