data_PCOD8300694
_publ_section_title
;
Structure prediction by ZEFSAII (Michael W. Deem and Ramdas Pophale) SiO2 
 PCOD8300694
Probable space group: I M M A
;
_chemical_formula_sum "Si O2"
_cell_formula_units_Z 56
_cell_length_a 9.589760
_cell_length_b 35.709030
_cell_length_c 9.185370
_cell_angle_alpha 90.000000
_cell_angle_beta 90.000000
_cell_angle_gamma 90.000000
_cell_volume 3145.447541
_symmetry_space_group_name_H-M "I M M A"
_symmetry_group_IT_number 74
_symmetry_cell_setting 'orthorhombic'
loop_
_space_group_symop_operation_xyz
x,y,z
-x,1/2-y,z
x,-y,-z
-x,1/2+y,-z
-x,-y,-z
x,1/2+y,-z
-x,y,z
x,1/2-y,z
1/2+x,1/2+y,1/2+z
1/2-x,-y,1/2+z
1/2+x,1/2-y,1/2-z
1/2-x,y,1/2-z
1/2-x,1/2-y,1/2-z
1/2+x,y,1/2-z
1/2-x,1/2+y,1/2+z
1/2+x,-y,1/2+z
loop_
_atom_site_type_symbol
_atom_site_label
_atom_site_fract_x
_atom_site_fract_y
_atom_site_fract_z
Si Si1 0.662387 0.250000 0.602672
Si Si2 0.662629 0.318833 0.396261
Si Si3 0.839807 0.468762 0.888585
Si Si4 0.839157 0.884292 0.107389
O O1 0.500000 0.250000 0.645305
O O2 0.750000 0.250000 0.750000
O O3 0.702124 0.286108 0.508006
O O4 0.500000 0.317380 0.354487
O O5 0.750000 0.314097 0.250000
O O6 0.703836 0.357805 0.473650
O O7 0.750000 0.477038 0.750000
O O8 0.812424 0.426725 0.947283
O O9 0.000000 0.474316 0.846399
O O10 0.789235 0.500000 0.000000
O O11 0.750000 0.874580 0.250000
O O12 0.000000 0.877690 0.150539
#
# Coordination Sequence:
#
# PCOD8300694 Si02
#       4
#     8  16  16  16
#     4  10  21  36  54  76 100 128 163 200 238 284
#     4  10  21  35  51  74 102 129 160 199 241 285
#     4   9  18  32  49  70  97 127 160 200 242 285
#     4   9  18  33  51  71  96 127 163 200 239 286
#
# _framework density 17.803508000000001
#
# number of rings (size 3 to 8) (size 9 to 14) (size 15 to 20)
#    0.000    2.571    0.000    1.286    0.000    4.000 
#    0.000    0.000    0.000    0.000    0.000    0.000 
#    0.000    0.000    0.000    0.000    0.000    0.000 
#
# Total GULP energy -347204.701016 kJ/mol
# GULP energy per Si atom -12400.167893 kJ/mol
# Density = 1.776299 g / cm^3
# Si number density = 17.803508 Si / 1000 Ang^3
#
#
#
# Elastic Constant Matrix: (Units=GPa)
#
#
# Indices 1 2 3 4 5 6 
#
# 1 63.3996 59.5481 73.8330 -0.0101 -0.0041 -0.0044
# 2 59.5481 141.2792 98.9608 0.0081 0.0026 0.0077
# 3 73.8330 98.9608 148.1540 -0.0079 -0.0051 0.0033
# 4 -0.0101 0.0081 -0.0079 34.0240 -0.0009 0.0057
# 5 -0.0041 0.0026 -0.0051 -0.0009 39.7352 0.0033
# 6 -0.0044 0.0077 0.0033 0.0057 0.0033 20.9457
#
#
#
# Elastic Compliance Matrix: (Units=1/GPa)
#
#
# Indices 1 2 3 4 5 6 
#
# 1 0.039663 -0.005398 -0.016161 0.000009 0.000002 0.000013
# 2 -0.005398 0.014036 -0.006686 -0.000006 -0.000002 -0.000005
# 3 -0.016161 -0.006686 0.019269 0.000001 0.000001 -0.000004
# 4 0.000009 -0.000006 0.000001 0.029391 0.000001 -0.000008
# 5 0.000002 -0.000002 0.000001 0.000001 0.025167 -0.000004
# 6 0.000013 -0.000005 -0.000004 -0.000008 -0.000004 0.047742
#
#
# Mechanical properties :
#
#
# Convention : Reuss Voigt Hill
#
# Bulk Modulus (GPa) = 60.67855 90.83518 75.75686
# Shear Modulus (GPa) = 21.07477 26.97372 24.02425
#
# Velocity S-wave (km/s) = 3.44429 3.89662 3.67742
# Velocity P-wave (km/s) = 7.06922 8.44847 7.78943
#
# Compressibility (1/GPa) = 0.01648029
#
# Stress axis : x y z
#
# Youngs Moduli (GPa) = 25.21249 71.24328 51.89592
#
# Poissons Ratio (x) = 0.38454 0.83868
# Poissons Ratio (y) = 0.13609 0.34697
# Poissons Ratio (z) = 0.40745 0.47632
#
# Static dielectric constant tensor:
#      x y z
#    x 3.284780 0.000000 0.000000 
#    y 0.000000 3.647630 0.000000 
#    z 0.000000 0.000000 3.134590 
# 
# 
# High freq. dielectric constant tensor:
#      x y z
#    x 1.687200 0.000000 0.000000 
#    y 0.000000 1.709600 0.000000 
#    z 0.000000 0.000000 1.677540 
# 
# From -- ./inp_files/7232.got.cif
#   From: 2010.03.12/outbox.cif.g09.slc.cpg/sg74_4_cif.got.tgz:7232.got - 2010.04.16 15:46:19.
