data_PCOD8300740
_publ_section_title
;
Structure prediction by ZEFSAII (Michael W. Deem and Ramdas Pophale) SiO2 
 PCOD8300740
Probable space group: I M M A
;
_chemical_formula_sum "Si O2"
_cell_formula_units_Z 112
_cell_length_a 14.039112
_cell_length_b 25.460863
_cell_length_c 15.916873
_cell_angle_alpha 90.000000
_cell_angle_beta 90.000000
_cell_angle_gamma 90.000000
_cell_volume 5689.452944
_symmetry_space_group_name_H-M "I M M A"
_symmetry_group_IT_number 74
_symmetry_cell_setting 'orthorhombic'
loop_
_space_group_symop_operation_xyz
x,y,z
-x,1/2-y,z
x,-y,-z
-x,1/2+y,-z
-x,-y,-z
x,1/2+y,-z
-x,y,z
x,1/2-y,z
1/2+x,1/2+y,1/2+z
1/2-x,-y,1/2+z
1/2+x,1/2-y,1/2-z
1/2-x,y,1/2-z
1/2-x,1/2-y,1/2-z
1/2+x,y,1/2-z
1/2-x,1/2+y,1/2+z
1/2+x,-y,1/2+z
loop_
_atom_site_type_symbol
_atom_site_label
_atom_site_fract_x
_atom_site_fract_y
_atom_site_fract_z
Si Si1 0.217412 0.555827 0.492712
Si Si2 0.391756 0.142649 0.899420
Si Si3 0.607791 0.479333 0.618401
Si Si4 0.800524 0.912400 0.839044
Si Si5 0.387615 0.309854 0.401604
Si Si6 0.708204 0.692052 0.423665
Si Si7 0.604742 0.377083 0.705566
O O1 0.164410 0.500000 0.500000
O O2 0.148179 0.588075 0.433556
O O3 0.322610 0.543520 0.453862
O O4 0.226766 0.584749 0.582908
O O5 0.500000 0.152620 0.929597
O O6 0.323125 0.188854 0.934390
O O7 0.384011 0.141238 0.799872
O O8 0.500000 0.477686 0.582726
O O9 0.628803 0.538196 0.650044
O O10 0.618515 0.439994 0.698135
O O11 0.750000 0.918192 0.750000
O O12 0.852994 0.855327 0.837818
O O13 0.500000 0.312512 0.410158
O O14 0.356879 0.250000 0.374193
O O15 0.342299 0.324853 0.490873
O O16 0.676543 0.750000 0.397038
O O17 0.682356 0.651761 0.350851
O O18 0.500000 0.360934 0.672218
#
# Coordination Sequence:
#
# PCOD8300740 Si02
#       7
#    16  16  16  16  16  16  16
#     4  10  22  38  60  88 118 162 199 239 297 359
#     4  11  23  39  57  81 120 167 209 241 284 357
#     4  10  21  37  63  95 127 155 190 244 304 363
#     4  11  23  37  61  93 125 155 194 246 297 361
#     4  10  21  40  66  92 119 153 198 254 315 368
#     4  11  22  38  62  89 119 155 198 253 308 362
#     4  10  21  35  58  90 123 157 192 239 296 360
#
# _framework density 19.685548000000001
#
# number of rings (size 3 to 8) (size 9 to 14) (size 15 to 20)
#    0.000    1.571    2.857    1.286    4.000    7.143 
#    0.000    2.857    0.000    0.000    0.000    0.000 
#    0.000    0.000    0.000    0.000    0.000    0.000 
#
# Total GULP energy -694015.198465 kJ/mol
# GULP energy per Si atom -12393.128544 kJ/mol
# Density = 1.964074 g / cm^3
# Si number density = 19.685548 Si / 1000 Ang^3
#
#
#
# Elastic Constant Matrix: (Units=GPa)
#
#
# Indices 1 2 3 4 5 6 
#
# 1 92.4805 24.2737 38.8363 -0.0002 0.0000 0.0000
# 2 24.2737 108.3815 33.6016 0.0000 0.0000 0.0001
# 3 38.8363 33.6016 69.3983 -0.0004 0.0000 0.0002
# 4 -0.0002 0.0000 -0.0004 2.4120 0.0000 0.0002
# 5 0.0000 0.0000 0.0000 0.0000 19.9542 0.0000
# 6 0.0000 0.0001 0.0002 0.0002 0.0000 26.9828
#
#
#
# Elastic Compliance Matrix: (Units=1/GPa)
#
#
# Indices 1 2 3 4 5 6 
#
# 1 0.014200 -0.000843 -0.007538 0.000000 0.000000 0.000000
# 2 -0.000843 0.010906 -0.004809 -0.000001 0.000000 0.000000
# 3 -0.007538 -0.004809 0.020956 0.000003 0.000000 0.000000
# 4 0.000000 -0.000001 0.000003 0.414602 0.000000 -0.000002
# 5 0.000000 0.000000 0.000000 0.000000 0.050115 0.000000
# 6 0.000000 0.000000 0.000000 -0.000002 0.000000 0.037061
#
#
# Mechanical properties :
#
#
# Convention : Reuss Voigt Hill
#
# Bulk Modulus (GPa) = 50.80720 51.52039 51.16379
# Shear Modulus (GPa) = 8.60908 21.43969 15.02439
#
# Velocity S-wave (km/s) = 2.09351 3.30374 2.76564
# Velocity P-wave (km/s) = 5.63109 6.38604 6.02041
#
# Compressibility (1/GPa) = 0.01968225
#
# Stress axis : x y z
#
# Youngs Moduli (GPa) = 70.42229 91.68922 47.71794
#
# Poissons Ratio (x) = 0.07731 0.35971
# Poissons Ratio (y) = 0.05938 0.22947
# Poissons Ratio (z) = 0.53086 0.44092
#
# Static dielectric constant tensor:
#      x y z
#    x 3.669410 0.000000 0.000000 
#    y 0.000000 3.961770 0.000000 
#    z 0.000000 0.000000 3.398610 
# 
# 
# High freq. dielectric constant tensor:
#      x y z
#    x 1.761210 0.000000 0.000000 
#    y 0.000000 1.781720 0.000000 
#    z 0.000000 0.000000 1.746740 
# 
# From -- ./inp_files/32910.got.cif
#   From: 2010.03.12/outbox.cif.g09.slc.cpg/sg74_17_cif.got.tgz:32910.got - 2010.04.16 15:46:19.
