data_PCOD8301304
_publ_section_title
;
Structure prediction by ZEFSAII (Michael W. Deem and Ramdas Pophale) SiO2 
 PCOD8301304
Probable space group: I M M A
;
_chemical_formula_sum "Si O2"
_cell_formula_units_Z 96
_cell_length_a 14.191716
_cell_length_b 20.517658
_cell_length_c 15.992203
_cell_angle_alpha 90.000000
_cell_angle_beta 90.000000
_cell_angle_gamma 90.000000
_cell_volume 4656.622069
_symmetry_space_group_name_H-M "I M M A"
_symmetry_group_IT_number 74
_symmetry_cell_setting 'orthorhombic'
loop_
_space_group_symop_operation_xyz
x,y,z
-x,1/2-y,z
x,-y,-z
-x,1/2+y,-z
-x,-y,-z
x,1/2+y,-z
-x,y,z
x,1/2-y,z
1/2+x,1/2+y,1/2+z
1/2-x,-y,1/2+z
1/2+x,1/2-y,1/2-z
1/2-x,y,1/2-z
1/2-x,1/2-y,1/2-z
1/2+x,y,1/2-z
1/2-x,1/2+y,1/2+z
1/2+x,-y,1/2+z
loop_
_atom_site_type_symbol
_atom_site_label
_atom_site_fract_x
_atom_site_fract_y
_atom_site_fract_z
Si Si1 0.216659 0.503691 0.595807
Si Si2 0.389474 0.117040 0.191151
Si Si3 0.892073 0.082386 0.121743
Si Si4 0.111792 0.750000 0.612149
Si Si5 0.607980 0.675016 0.468603
Si Si6 0.611608 0.250000 0.920803
Si Si7 0.731478 0.862782 0.154063
O O1 0.184144 0.500000 0.500000
O O2 0.158084 0.559342 0.640578
O O3 0.328084 0.519710 0.601701
O O4 0.194574 0.436147 0.642126
O O5 0.500000 0.111681 0.174935
O O6 0.364606 0.112052 0.288669
O O7 0.348732 0.185633 0.157892
O O8 0.000000 0.058441 0.119051
O O9 0.871361 0.138742 0.055140
O O10 0.145696 0.750000 0.516545
O O11 0.000000 0.750000 0.617752
O O12 0.500000 0.666399 0.440526
O O13 0.634175 0.750000 0.483400
O O14 0.671296 0.645650 0.395541
O O15 0.500000 0.250000 0.911617
O O16 0.650821 0.185362 0.877622
O O17 0.750000 0.847079 0.250000
#
# Coordination Sequence:
#
# PCOD8301304 Si02
#       7
#    16  16  16   8  16   8  16
#     4  12  24  42  65  91 128 170 212 260 315 376
#     4  10  22  40  64  96 130 164 210 258 312 378
#     4  10  22  41  64  96 133 165 203 254 315 383
#     4   9  20  39  63  91 125 164 204 254 305 366
#     4  10  22  40  66  97 130 166 205 257 320 378
#     4  11  25  45  65  90 125 167 215 261 318 374
#     4  12  25  43  65  91 126 162 213 270 314 371
#
# _framework density 20.615801999999999
#
# number of rings (size 3 to 8) (size 9 to 14) (size 15 to 20)
#    0.000    1.333    2.500    2.750    1.167    2.667 
#    0.000    0.833    0.000    0.000    0.000    0.000 
#    0.000    0.000    0.000    0.000    0.000    0.000 
#
# Total GULP energy -595489.421102 kJ/mol
# GULP energy per Si atom -12406.029606 kJ/mol
# Density = 2.056888 g / cm^3
# Si number density = 20.615802 Si / 1000 Ang^3
#
#
#
# Elastic Constant Matrix: (Units=GPa)
#
#
# Indices 1 2 3 4 5 6 
#
# 1 60.5940 46.3303 54.5438 0.0000 0.0000 0.0002
# 2 46.3303 164.1471 60.0768 0.0001 0.0001 -0.0006
# 3 54.5438 60.0768 172.5180 0.0001 0.0001 -0.0009
# 4 0.0000 0.0001 0.0001 28.6969 0.0001 -0.0006
# 5 0.0000 0.0001 0.0001 0.0001 29.1177 -0.0001
# 6 0.0002 -0.0006 -0.0009 -0.0006 -0.0001 82.3087
#
#
#
# Elastic Compliance Matrix: (Units=1/GPa)
#
#
# Indices 1 2 3 4 5 6 
#
# 1 0.026225 -0.005005 -0.006548 0.000000 0.000000 0.000000
# 2 -0.005005 0.007937 -0.001182 0.000000 0.000000 0.000000
# 3 -0.006548 -0.001182 0.008278 0.000000 0.000000 0.000000
# 4 0.000000 0.000000 0.000000 0.034847 0.000000 0.000000
# 5 0.000000 0.000000 0.000000 0.000000 0.034343 0.000000
# 6 0.000000 0.000000 0.000000 0.000000 0.000000 0.012149
#
#
# Mechanical properties :
#
#
# Convention : Reuss Voigt Hill
#
# Bulk Modulus (GPa) = 58.92716 79.90677 69.41696
# Shear Modulus (GPa) = 32.27741 43.77854 38.02797
#
# Velocity S-wave (km/s) = 3.96114 4.61319 4.29954
# Velocity P-wave (km/s) = 7.04034 8.19875 7.64153
#
# Compressibility (1/GPa) = 0.01697010
#
# Stress axis : x y z
#
# Youngs Moduli (GPa) = 38.13183 125.98797 120.79795
#
# Poissons Ratio (x) = 0.63060 0.79102
# Poissons Ratio (y) = 0.19086 0.14273
# Poissons Ratio (z) = 0.24970 0.14886
#
# Static dielectric constant tensor:
#      x y z
#    x 3.770550 0.000000 0.000000 
#    y 0.000000 3.844860 0.000000 
#    z 0.000000 0.000000 3.886420 
# 
# 
# High freq. dielectric constant tensor:
#      x y z
#    x 1.808140 0.000000 0.000000 
#    y 0.000000 1.816230 0.000000 
#    z 0.000000 0.000000 1.818690 
# 
# From -- ./inp_files/32438.got.cif
#   From: 2010.03.12/outbox.cif.g09.slc.cpg/sg74_17_cif.got.tgz:32438.got - 2010.04.16 15:46:19.
