data_PCOD8301728
_publ_section_title
;
Structure prediction by ZEFSAII (Michael W. Deem and Ramdas Pophale) SiO2 
 PCOD8301728
Probable space group: I M M A
;
_chemical_formula_sum "Si O2"
_cell_formula_units_Z 64
_cell_length_a 9.995473
_cell_length_b 22.263746
_cell_length_c 13.448901
_cell_angle_alpha 90.000000
_cell_angle_beta 90.000000
_cell_angle_gamma 90.000000
_cell_volume 2992.873671
_symmetry_space_group_name_H-M "I M M A"
_symmetry_group_IT_number 74
_symmetry_cell_setting 'orthorhombic'
loop_
_space_group_symop_operation_xyz
x,y,z
-x,1/2-y,z
x,-y,-z
-x,1/2+y,-z
-x,-y,-z
x,1/2+y,-z
-x,y,z
x,1/2-y,z
1/2+x,1/2+y,1/2+z
1/2-x,-y,1/2+z
1/2+x,1/2-y,1/2-z
1/2-x,y,1/2-z
1/2-x,1/2-y,1/2-z
1/2+x,y,1/2-z
1/2-x,1/2+y,1/2+z
1/2+x,-y,1/2+z
loop_
_atom_site_type_symbol
_atom_site_label
_atom_site_fract_x
_atom_site_fract_y
_atom_site_fract_z
Si Si1 0.500000 0.250000 0.067691
Si Si2 0.724773 0.931337 0.968381
Si Si3 0.500000 0.750000 0.500558
Si Si4 0.716987 0.750000 0.099732
Si Si5 0.648930 0.125072 0.828064
Si Si6 0.500000 0.380033 0.163461
Si Si7 0.500000 0.877513 0.601008
O O1 0.500000 0.309785 0.134811
O O2 0.633353 0.250000 0.002288
O O3 0.630604 0.915677 0.874986
O O4 0.873776 0.910939 0.945508
O O5 0.666022 0.895581 0.060268
O O6 0.720831 0.000000 0.000000
O O7 0.372599 0.750000 0.428534
O O8 0.500000 0.807780 0.571701
O O9 0.677819 0.804594 0.170450
O O10 0.500000 0.111006 0.789886
O O11 0.750000 0.093210 0.750000
O O12 0.500000 0.384158 0.281385
#
# Coordination Sequence:
#
# PCOD8301728 Si02
#       7
#     4  16   4   8  16   8   8
#     4  12  19  44  73  98 138 182 223 290 363 424
#     4  12  26  49  69  98 145 187 230 289 347 415
#     4  12  23  40  73 104 142 178 225 296 371 416
#     4  12  21  42  68  94 143 181 220 285 360 408
#     4  12  26  44  71 102 136 183 235 288 352 416
#     4  12  24  45  77 102 139 182 234 286 358 420
#     4  12  26  45  73 110 137 180 234 294 352 426
#
# _framework density 21.384129000000001
#
# number of rings (size 3 to 8) (size 9 to 14) (size 15 to 20)
#    0.000    0.000    7.500    2.250    3.500    2.000 
#    0.000    3.750    0.000    0.000    0.000    0.000 
#    0.000    0.000    0.000    0.000    0.000    0.000 
#
# Total GULP energy -396907.737052 kJ/mol
# GULP energy per Si atom -12403.366783 kJ/mol
# Density = 2.133546 g / cm^3
# Si number density = 21.384129 Si / 1000 Ang^3
#
#
#
# Elastic Constant Matrix: (Units=GPa)
#
#
# Indices 1 2 3 4 5 6 
#
# 1 205.3004 36.9192 51.7331 0.0000 -0.0002 0.0000
# 2 36.9192 91.0753 26.3727 -0.0002 -0.0010 0.0001
# 3 51.7331 26.3727 91.0730 -0.0012 -0.0006 0.0002
# 4 0.0000 -0.0002 -0.0012 6.4611 0.0001 0.0001
# 5 -0.0002 -0.0010 -0.0006 0.0001 -39.9745 -0.0006
# 6 0.0000 0.0001 0.0002 0.0001 -0.0006 35.6143
#
#
#
# Elastic Compliance Matrix: (Units=1/GPa)
#
#
# Indices 1 2 3 4 5 6 
#
# 1 0.005877 -0.001545 -0.002891 -0.000001 0.000000 0.000000
# 2 -0.001545 0.012391 -0.002710 0.000000 0.000000 0.000000
# 3 -0.002891 -0.002710 0.013407 0.000002 0.000000 0.000000
# 4 -0.000001 0.000000 0.000002 0.154772 0.000001 0.000000
# 5 0.000000 0.000000 0.000000 0.000001 -0.025016 0.000000
# 6 0.000000 0.000000 0.000000 0.000000 0.000000 0.028079
#
#
# Mechanical properties :
#
#
# Convention : Reuss Voigt Hill
#
# Bulk Modulus (GPa) = 57.52994 68.61095 63.07045
# Shear Modulus (GPa) = 23.85517 18.58176 21.21846
#
# Velocity S-wave (km/s) = 3.34362 2.95100 3.15342
# Velocity P-wave (km/s) = 6.47054 6.61557 6.54346
#
# Compressibility (1/GPa) = 0.01738225
#
# Stress axis : x y z
#
# Youngs Moduli (GPa) = 170.14570 80.70235 74.58614
#
# Poissons Ratio (x) = 0.12471 0.21563
# Poissons Ratio (y) = 0.26293 0.20216
# Poissons Ratio (z) = 0.49190 0.21874
#
# Static dielectric constant tensor:
#      x y z
#    x 4.450380 0.000000 0.000000 
#    y 0.000000 3.921010 0.000000 
#    z 0.000000 0.000000 3.879810 
# 
# 
# High freq. dielectric constant tensor:
#      x y z
#    x 1.860640 0.000000 0.000000 
#    y 0.000000 1.842530 0.000000 
#    z 0.000000 0.000000 1.845060 
# 
# From -- ./inp_files/18707.got.cif
#   From: 2010.03.12/outbox.cif.g09.slc.cpg/sg74_10_cif.got.tgz:18707.got - 2010.04.16 15:46:19.
