data_PCOD8301558
_publ_section_title
;
Structure prediction by ZEFSAII (Michael W. Deem and Ramdas Pophale) SiO2 
 PCOD8301558
Probable space group: I M M A
;
_chemical_formula_sum "Si O2"
_cell_formula_units_Z 96
_cell_length_a 19.707794
_cell_length_b 8.687087
_cell_length_c 30.312469
_cell_angle_alpha 90.000000
_cell_angle_beta 90.000000
_cell_angle_gamma 90.000000
_cell_volume 5189.595362
_symmetry_space_group_name_H-M "I M M A"
_symmetry_group_IT_number 74
_symmetry_cell_setting 'orthorhombic'
loop_
_space_group_symop_operation_xyz
x,y,z
-x,1/2-y,z
x,-y,-z
-x,1/2+y,-z
-x,-y,-z
x,1/2+y,-z
-x,y,z
x,1/2-y,z
1/2+x,1/2+y,1/2+z
1/2-x,-y,1/2+z
1/2+x,1/2-y,1/2-z
1/2-x,y,1/2-z
1/2-x,1/2-y,1/2-z
1/2+x,y,1/2-z
1/2-x,1/2+y,1/2+z
1/2+x,-y,1/2+z
loop_
_atom_site_type_symbol
_atom_site_label
_atom_site_fract_x
_atom_site_fract_y
_atom_site_fract_z
Si Si1 0.707794 0.569073 0.548547
Si Si2 0.789017 0.931860 0.375437
Si Si3 0.926768 0.070099 0.951808
Si Si4 0.576714 0.569716 0.264081
Si Si5 0.926641 0.067432 0.664220
Si Si6 0.710434 0.430085 0.294547
O O1 0.717183 0.500000 0.500000
O O2 0.707739 0.750000 0.544764
O O3 0.768628 0.514055 0.579362
O O4 0.636996 0.512335 0.571650
O O5 0.785925 0.750000 0.382169
O O6 0.865518 0.992362 0.366168
O O7 0.741276 0.976371 0.334981
O O8 0.910849 0.250000 0.955172
O O9 0.000000 0.041915 0.927740
O O10 0.931729 0.000000 0.000000
O O11 0.500000 0.538237 0.281456
O O12 0.593898 0.750000 0.267617
O O13 0.583490 0.508734 0.214058
O O14 0.631065 0.474421 0.292347
O O15 0.926308 0.250000 0.665753
O O16 0.000000 0.008818 0.646053
O O17 0.717970 0.250000 0.304091
O O18 0.750000 0.478424 0.250000
#
# Coordination Sequence:
#
# PCOD8301558 Si02
#       6
#    16  16  16  16  16  16
#     4  11  22  37  56  79 110 142 181 226 273 325
#     4  11  21  35  58  82 108 142 182 224 272 323
#     4   9  16  28  49  76 103 132 171 215 260 312
#     4   9  17  32  54  78 105 142 187 227 266 317
#     4   8  15  29  52  81 107 134 174 221 266 318
#     4  11  22  34  50  77 114 147 178 218 265 318
#
# _framework density 18.498550999999999
#
# number of rings (size 3 to 8) (size 9 to 14) (size 15 to 20)
#    0.000    2.167    1.667    5.000    0.000    2.000 
#    0.000    0.833    0.000    7.500    0.000    0.000 
#    0.000    0.000    0.000    0.000    0.000    0.000 
#
# Total GULP energy -594935.191659 kJ/mol
# GULP energy per Si atom -12394.483160 kJ/mol
# Density = 1.845645 g / cm^3
# Si number density = 18.498551 Si / 1000 Ang^3
#
#
#
# Elastic Constant Matrix: (Units=GPa)
#
#
# Indices 1 2 3 4 5 6 
#
# 1 157.8349 40.0610 51.6616 0.0000 0.0000 0.0000
# 2 40.0610 88.1208 27.8449 0.0000 0.0000 0.0000
# 3 51.6616 27.8449 67.7007 0.0000 0.0000 0.0000
# 4 0.0000 0.0000 0.0000 24.4606 0.0000 0.0000
# 5 0.0000 0.0000 0.0000 0.0000 25.6728 0.0000
# 6 0.0000 0.0000 0.0000 0.0000 0.0000 21.6044
#
#
#
# Elastic Compliance Matrix: (Units=1/GPa)
#
#
# Indices 1 2 3 4 5 6 
#
# 1 0.008788 -0.002156 -0.005819 0.000000 0.000000 0.000000
# 2 -0.002156 0.013572 -0.003937 0.000000 0.000000 0.000000
# 3 -0.005819 -0.003937 0.020830 0.000000 0.000000 0.000000
# 4 0.000000 0.000000 0.000000 0.040882 0.000000 0.000000
# 5 0.000000 0.000000 0.000000 0.000000 0.038952 0.000000
# 6 0.000000 0.000000 0.000000 0.000000 0.000000 0.046287
#
#
# Mechanical properties :
#
#
# Convention : Reuss Voigt Hill
#
# Bulk Modulus (GPa) = 51.63570 61.42126 56.52848
# Shear Modulus (GPa) = 25.05131 27.28681 26.16906
#
# Velocity S-wave (km/s) = 3.68398 3.84484 3.76527
# Velocity P-wave (km/s) = 6.78746 7.27913 7.03759
#
# Compressibility (1/GPa) = 0.01936644
#
# Stress axis : x y z
#
# Youngs Moduli (GPa) = 113.79634 73.67940 48.00686
#
# Poissons Ratio (x) = 0.15888 0.27934
# Poissons Ratio (y) = 0.24538 0.18899
# Poissons Ratio (z) = 0.66216 0.29006
#
# Static dielectric constant tensor:
#      x y z
#    x 4.197740 0.000000 0.000000 
#    y 0.000000 3.282760 0.000000 
#    z 0.000000 0.000000 3.087870 
# 
# 
# High freq. dielectric constant tensor:
#      x y z
#    x 1.734080 0.000000 0.000000 
#    y 0.000000 1.711620 0.000000 
#    z 0.000000 0.000000 1.676700 
# 
# From -- ./inp_files/68148.got.cif
#   From: 2010.03.12/outbox.cif.g09.slc.cpg/sg74_35_cif.got.tgz:68148.got - 2010.04.16 15:46:19.
