data_PCOD8301931
_publ_section_title
;
Structure prediction by ZEFSAII (Michael W. Deem and Ramdas Pophale) SiO2 
 PCOD8301931
Probable space group: P 41
;
_chemical_formula_sum "Si O2"
_cell_formula_units_Z 28
_cell_length_a 7.993167
_cell_length_b 7.993167
_cell_length_c 20.949450
_cell_angle_alpha 90.000000
_cell_angle_beta 90.000000
_cell_angle_gamma 90.000000
_cell_volume 1338.475417
_symmetry_space_group_name_H-M "P 41"
_symmetry_group_IT_number 76
_symmetry_cell_setting 'tetragonal'
loop_
_space_group_symop_operation_xyz
x,y,z
-y,x,1/4+z
-x,-y,1/2+z
y,-x,3/4+z
loop_
_atom_site_type_symbol
_atom_site_label
_atom_site_fract_x
_atom_site_fract_y
_atom_site_fract_z
Si Si1 0.586522 0.643877 0.716930
Si Si2 0.951598 0.101802 0.771560
Si Si3 0.234579 0.196580 0.326523
Si Si4 0.921118 0.084774 0.158279
Si Si5 0.215505 0.616414 0.730596
Si Si6 0.107553 0.594347 0.198358
Si Si7 0.708338 0.885749 0.619232
O O1 0.632104 0.690081 0.789817
O O2 0.405728 0.551286 0.718052
O O3 0.734322 0.526304 0.691712
O O4 0.579032 0.808691 0.670985
O O5 0.844870 0.262555 0.749834
O O6 0.027135 0.151034 0.840039
O O7 0.843304 0.932893 0.775856
O O8 0.081936 0.060281 0.713359
O O9 0.324116 0.083484 0.379197
O O10 0.086898 0.310939 0.358106
O O11 0.806265 0.235170 0.180566
O O12 0.107421 0.152696 0.145706
O O13 0.207061 0.684972 0.802158
O O14 0.070975 0.480735 0.719120
#
# Coordination Sequence:
#
# PCOD8301931 Si02
#       7
#     4   4   4   4   4   4   4
#     4  12  25  42  69 101 139 187 227 293 358 427
#     4  11  21  40  72  97 124 182 234 287 350 419
#     4  11  21  44  76  92 128 188 234 287 357 416
#     4  11  20  42  70  94 123 174 243 276 339 422
#     4  12  26  42  64 102 138 182 230 286 355 419
#     4  12  24  45  66 100 149 176 228 300 349 425
#     4  11  19  45  71  94 125 185 238 279 354 412
#
# _framework density 20.919325000000001
#
# number of rings (size 3 to 8) (size 9 to 14) (size 15 to 20)
#    0.000    0.571   10.000    0.857    2.000    0.000 
#    5.143    2.857    0.000    0.000    0.000    0.000 
#    0.000    0.000    0.000    0.000    0.000    0.000 
#
# Total GULP energy -346995.204419 kJ/mol
# GULP energy per Si atom -12392.685872 kJ/mol
# Density = 2.087171 g / cm^3
# Si number density = 20.919325 Si / 1000 Ang^3
#
#
#
# Elastic Constant Matrix: (Units=GPa)
#
#
# Indices 1 2 3 4 5 6 
#
# 1 89.0757 23.7721 33.1176 0.0000 0.0000 4.0669
# 2 23.7721 89.0757 33.1176 0.0000 0.0000 -4.0669
# 3 33.1176 33.1176 141.6042 0.0000 0.0000 0.0000
# 4 0.0000 0.0000 0.0000 21.7861 0.0000 0.0000
# 5 0.0000 0.0000 0.0000 0.0000 21.7861 0.0000
# 6 4.0669 -4.0669 0.0000 0.0000 0.0000 11.9760
#
#
#
# Elastic Compliance Matrix: (Units=1/GPa)
#
#
# Indices 1 2 3 4 5 6 
#
# 1 0.013130 -0.002859 -0.002402 0.000000 0.000000 -0.005430
# 2 -0.002859 0.013130 -0.002402 0.000000 0.000000 0.005430
# 3 -0.002402 -0.002402 0.008186 0.000000 0.000000 0.000000
# 4 0.000000 0.000000 0.000000 0.045901 0.000000 0.000000
# 5 0.000000 0.000000 0.000000 0.000000 0.045901 0.000000
# 6 -0.005430 0.005430 0.000000 0.000000 0.000000 0.087188
#
#
# Mechanical properties :
#
#
# Convention : Reuss Voigt Hill
#
# Bulk Modulus (GPa) = 52.30241 55.53002 53.91622
# Shear Modulus (GPa) = 21.26428 26.42621 23.84525
#
# Velocity S-wave (km/s) = 3.19170 3.55807 3.37985
# Velocity P-wave (km/s) = 6.21602 6.59411 6.40785
#
# Compressibility (1/GPa) = 0.01911958
#
# Stress axis : x y z
#
# Youngs Moduli (GPa) = 76.15905 76.15905 122.16606
#
# Poissons Ratio (x) = 0.21773 0.29347
# Poissons Ratio (y) = 0.21773 0.29347
# Poissons Ratio (z) = 0.18295 0.18295
#
# Static dielectric constant tensor:
#      x y z
#    x 3.661380 0.000000 0.000000 
#    y 0.000000 3.661380 0.000000 
#    z 0.000000 0.000000 4.081620 
# 
# 
# High freq. dielectric constant tensor:
#      x y z
#    x 1.796970 0.000000 0.000000 
#    y 0.000000 1.796970 0.000000 
#    z 0.000000 0.000000 1.847570 
# 
# From -- ./inp_files/1364.got.cif
#   From: 2010.03.12/outbox.cif.g09.slc.cpg/sg76_cif.got.tgz:1364.got - 2010.04.16 16:34:25.
