data_PCOD8301564
_publ_section_title
;
Structure prediction by ZEFSAII (Michael W. Deem and Ramdas Pophale) SiO2 
 PCOD8301564
Probable space group: I M M A
;
_chemical_formula_sum "Si O2"
_cell_formula_units_Z 72
_cell_length_a 8.584661
_cell_length_b 26.693243
_cell_length_c 14.632304
_cell_angle_alpha 90.000000
_cell_angle_beta 90.000000
_cell_angle_gamma 90.000000
_cell_volume 3353.028196
_symmetry_space_group_name_H-M "I M M A"
_symmetry_group_IT_number 74
_symmetry_cell_setting 'orthorhombic'
loop_
_space_group_symop_operation_xyz
x,y,z
-x,1/2-y,z
x,-y,-z
-x,1/2+y,-z
-x,-y,-z
x,1/2+y,-z
-x,y,z
x,1/2-y,z
1/2+x,1/2+y,1/2+z
1/2-x,-y,1/2+z
1/2+x,1/2-y,1/2-z
1/2-x,y,1/2-z
1/2-x,1/2-y,1/2-z
1/2+x,y,1/2-z
1/2-x,1/2+y,1/2+z
1/2+x,-y,1/2+z
loop_
_atom_site_type_symbol
_atom_site_label
_atom_site_fract_x
_atom_site_fract_y
_atom_site_fract_z
Si Si1 0.678289 0.519205 0.906377
Si Si2 0.683159 0.160817 0.528070
Si Si3 0.815899 0.250000 0.647876
Si Si4 0.322082 0.586732 0.157926
Si Si5 0.814961 0.873771 0.653210
O O1 0.500000 0.533023 0.929810
O O2 0.691152 0.473490 0.835244
O O3 0.752964 0.569836 0.865098
O O4 0.759937 0.500000 0.000000
O O5 0.500000 0.169354 0.524497
O O6 0.760436 0.201657 0.592917
O O7 0.726885 0.106734 0.570578
O O8 0.751390 0.163270 0.425488
O O9 0.750000 0.250000 0.750000
O O10 0.000000 0.250000 0.654559
O O11 0.500000 0.604450 0.148765
O O12 0.250000 0.609952 0.250000
O O13 0.750000 0.854761 0.750000
O O14 0.000000 0.871800 0.655499
#
# Coordination Sequence:
#
# PCOD8301564 Si02
#       5
#    16  16   8  16  16
#     4   9  17  33  57  85 122 168 215 262 311 364
#     4  12  25  43  65  94 127 163 208 259 314 378
#     4  12  26  48  75 102 129 162 200 252 318 382
#     4  11  21  36  58  87 124 166 210 259 312 371
#     4  11  22  40  64  92 128 172 218 265 317 371
#
# _framework density 21.473126000000001
#
# number of rings (size 3 to 8) (size 9 to 14) (size 15 to 20)
#    0.000    1.111    2.222    5.667    0.000    0.000 
#    0.000    5.000    0.000    0.000    0.000    0.000 
#    0.000    0.000    0.000    0.000    0.000    0.000 
#
# Total GULP energy -446407.523543 kJ/mol
# GULP energy per Si atom -12400.208987 kJ/mol
# Density = 2.142425 g / cm^3
# Si number density = 21.473126 Si / 1000 Ang^3
#
#
#
# Elastic Constant Matrix: (Units=GPa)
#
#
# Indices 1 2 3 4 5 6 
#
# 1 139.5799 38.6305 67.3210 0.0002 0.0000 0.0000
# 2 38.6305 78.2318 42.4252 0.0004 0.0000 0.0000
# 3 67.3210 42.4252 188.3410 0.0014 -0.0001 0.0001
# 4 0.0002 0.0004 0.0014 31.8597 0.0000 0.0000
# 5 0.0000 0.0000 -0.0001 0.0000 37.2747 0.0001
# 6 0.0000 0.0000 0.0001 0.0000 0.0001 22.7500
#
#
#
# Elastic Compliance Matrix: (Units=1/GPa)
#
#
# Indices 1 2 3 4 5 6 
#
# 1 0.009302 -0.003179 -0.002609 0.000000 0.000000 0.000000
# 2 -0.003179 0.015647 -0.002389 0.000000 0.000000 0.000000
# 3 -0.002609 -0.002389 0.006780 0.000000 0.000000 0.000000
# 4 0.000000 0.000000 0.000000 0.031388 0.000000 0.000000
# 5 0.000000 0.000000 0.000000 0.000000 0.026828 0.000000
# 6 0.000000 0.000000 0.000000 0.000000 0.000000 0.043956
#
#
# Mechanical properties :
#
#
# Convention : Reuss Voigt Hill
#
# Bulk Modulus (GPa) = 65.02972 78.10069 71.56520
# Shear Modulus (GPa) = 32.17921 35.56195 33.87058
#
# Velocity S-wave (km/s) = 3.87535 4.07395 3.97589
# Velocity P-wave (km/s) = 7.09749 7.65374 7.38086
#
# Compressibility (1/GPa) = 0.01537758
#
# Stress axis : x y z
#
# Youngs Moduli (GPa) = 107.49839 63.90834 147.48937
#
# Poissons Ratio (x) = 0.20314 0.38481
# Poissons Ratio (y) = 0.34169 0.35228
# Poissons Ratio (z) = 0.28047 0.15265
#
# Static dielectric constant tensor:
#      x y z
#    x 3.679910 0.000000 0.000000 
#    y 0.000000 3.844370 0.000000 
#    z 0.000000 0.000000 3.889730 
# 
# 
# High freq. dielectric constant tensor:
#      x y z
#    x 1.828250 0.000000 0.000000 
#    y 0.000000 1.827430 0.000000 
#    z 0.000000 0.000000 1.856730 
# 
# From -- ./inp_files/29181.got.cif
#   From: 2010.03.12/outbox.cif.g09.slc.cpg/sg74_15_cif.got.tgz:29181.got - 2010.04.16 15:46:19.
