data_PCOD8301950
_publ_section_title
;
Structure prediction by ZEFSAII (Michael W. Deem and Ramdas Pophale) SiO2 
 PCOD8301950
Probable space group: P 41
;
_chemical_formula_sum "Si O2"
_cell_formula_units_Z 28
_cell_length_a 11.640800
_cell_length_b 11.640800
_cell_length_c 9.192748
_cell_angle_alpha 90.000000
_cell_angle_beta 90.000000
_cell_angle_gamma 90.000000
_cell_volume 1245.692961
_symmetry_space_group_name_H-M "P 41"
_symmetry_group_IT_number 76
_symmetry_cell_setting 'tetragonal'
loop_
_space_group_symop_operation_xyz
x,y,z
-y,x,1/4+z
-x,-y,1/2+z
y,-x,3/4+z
loop_
_atom_site_type_symbol
_atom_site_label
_atom_site_fract_x
_atom_site_fract_y
_atom_site_fract_z
Si Si1 0.130167 0.985224 0.804260
Si Si2 0.324079 0.592449 0.475879
Si Si3 0.663268 0.358025 0.662937
Si Si4 0.423416 0.721655 0.720301
Si Si5 0.062376 0.539775 0.859417
Si Si6 0.790905 0.248103 0.423703
Si Si7 0.923606 0.384982 0.049560
O O1 0.151652 0.874904 0.905127
O O2 0.070036 0.949621 0.651460
O O3 0.253583 0.041432 0.765643
O O4 0.304339 0.667982 0.330722
O O5 0.353843 0.472667 0.402570
O O6 0.425921 0.628891 0.587154
O O7 0.211831 0.605206 0.573743
O O8 0.700145 0.478945 0.590051
O O9 0.722894 0.253666 0.576018
O O10 0.443108 0.840509 0.634958
O O11 0.298730 0.724514 0.794669
O O12 0.105723 0.659639 0.927592
O O13 0.020115 0.567208 0.696930
O O14 0.951018 0.480095 0.927917
#
# Coordination Sequence:
#
# PCOD8301950 Si02
#       7
#     4   4   4   4   4   4   4
#     4  12  27  53  80 104 147 200 259 324 377 439
#     4  12  26  42  66 106 144 186 245 290 352 467
#     4  11  27  37  69 105 145 193 230 289 364 457
#     4  11  23  46  64 101 152 187 230 296 375 439
#     4  11  25  45  75 100 144 193 236 311 379 447
#     4  11  23  48  70 103 146 191 239 308 376 443
#     4  12  27  47  74 107 142 192 253 310 385 444
#
# _framework density 22.477447999999999
#
# number of rings (size 3 to 8) (size 9 to 14) (size 15 to 20)
#    0.000    0.571    5.714    0.857   10.000    1.143 
#    0.000    0.000    0.000    0.000    0.000    0.000 
#    0.000    0.000    0.000    0.000    0.000    0.000 
#
# Total GULP energy -347032.288745 kJ/mol
# GULP energy per Si atom -12394.010312 kJ/mol
# Density = 2.242629 g / cm^3
# Si number density = 22.477448 Si / 1000 Ang^3
#
#
#
# Elastic Constant Matrix: (Units=GPa)
#
#
# Indices 1 2 3 4 5 6 
#
# 1 54.3522 29.7591 13.2869 0.0000 0.0000 4.4521
# 2 29.7591 54.3522 13.2869 0.0000 0.0000 -4.4521
# 3 13.2869 13.2869 103.0794 0.0000 0.0000 0.0000
# 4 0.0000 0.0000 0.0000 38.7032 0.0000 0.0000
# 5 0.0000 0.0000 0.0000 0.0000 38.7032 0.0000
# 6 4.4521 -4.4521 0.0000 0.0000 0.0000 28.5755
#
#
#
# Elastic Compliance Matrix: (Units=1/GPa)
#
#
# Indices 1 2 3 4 5 6 
#
# 1 0.027743 -0.015350 -0.001598 0.000000 0.000000 -0.006714
# 2 -0.015350 0.027743 -0.001598 0.000000 0.000000 0.006714
# 3 -0.001598 -0.001598 0.010113 0.000000 0.000000 0.000000
# 4 0.000000 0.000000 0.000000 0.025838 0.000000 0.000000
# 5 0.000000 0.000000 0.000000 0.000000 0.025838 0.000000
# 6 -0.006714 0.006714 0.000000 0.000000 0.000000 0.037087
#
#
# Mechanical properties :
#
#
# Convention : Reuss Voigt Hill
#
# Bulk Modulus (GPa) = 35.07494 36.04994 35.56244
# Shear Modulus (GPa) = 24.88124 31.55977 28.22050
#
# Velocity S-wave (km/s) = 3.33068 3.75115 3.54715
# Velocity P-wave (km/s) = 5.51631 5.90208 5.71245
#
# Compressibility (1/GPa) = 0.02851039
#
# Stress axis : x y z
#
# Youngs Moduli (GPa) = 36.04482 36.04482 98.88164
#
# Poissons Ratio (x) = 0.55327 0.15797
# Poissons Ratio (y) = 0.55327 0.15797
# Poissons Ratio (z) = 0.05758 0.05758
#
# Static dielectric constant tensor:
#      x y z
#    x 4.023990 0.000000 0.000000 
#    y 0.000000 4.023990 0.000000 
#    z 0.000000 0.000000 4.230340 
# 
# 
# High freq. dielectric constant tensor:
#      x y z
#    x 1.882790 0.000000 0.000000 
#    y 0.000000 1.882790 0.000000 
#    z 0.000000 0.000000 1.895090 
# 
# From -- ./inp_files/594.got.cif
#   From: 2010.03.12/outbox.cif.g09.slc.cpg/sg76_cif.got.tgz:594.got - 2010.04.16 16:34:25.
