data_PCOD8301326
_publ_section_title
;
Structure prediction by ZEFSAII (Michael W. Deem and Ramdas Pophale) SiO2 
 PCOD8301326
Probable space group: I M M A
;
_chemical_formula_sum "Si O2"
_cell_formula_units_Z 96
_cell_length_a 18.605969
_cell_length_b 24.406304
_cell_length_c 10.205502
_cell_angle_alpha 90.000000
_cell_angle_beta 90.000000
_cell_angle_gamma 90.000000
_cell_volume 4634.348418
_symmetry_space_group_name_H-M "I M M A"
_symmetry_group_IT_number 74
_symmetry_cell_setting 'orthorhombic'
loop_
_space_group_symop_operation_xyz
x,y,z
-x,1/2-y,z
x,-y,-z
-x,1/2+y,-z
-x,-y,-z
x,1/2+y,-z
-x,y,z
x,1/2-y,z
1/2+x,1/2+y,1/2+z
1/2-x,-y,1/2+z
1/2+x,1/2-y,1/2-z
1/2-x,y,1/2-z
1/2-x,1/2-y,1/2-z
1/2+x,y,1/2-z
1/2-x,1/2+y,1/2+z
1/2+x,-y,1/2+z
loop_
_atom_site_type_symbol
_atom_site_label
_atom_site_fract_x
_atom_site_fract_y
_atom_site_fract_z
Si Si1 0.081136 0.310952 0.237587
Si Si2 0.250964 0.190706 0.899332
Si Si3 0.625354 0.624399 0.976734
Si Si4 0.237880 0.957926 0.606112
Si Si5 0.137062 0.386524 0.014593
Si Si6 0.500000 0.553142 0.094111
Si Si7 0.000000 0.053319 0.905388
O O1 0.116303 0.250000 0.232412
O O2 0.082192 0.333799 0.385190
O O3 0.120807 0.353697 0.146080
O O4 0.000000 0.306729 0.188836
O O5 0.248463 0.250000 0.974308
O O6 0.250000 0.204747 0.750000
O O7 0.324168 0.158665 0.927794
O O8 0.180388 0.155098 0.924504
O O9 0.677515 0.588796 0.882540
O O10 0.571032 0.588238 0.062970
O O11 0.250000 0.984448 0.750000
O O12 0.314340 0.937961 0.553076
O O13 0.206633 0.000000 0.500000
O O14 0.068667 0.409156 0.936570
O O15 0.500000 0.536847 0.249873
O O16 0.500000 0.500000 0.000000
O O17 0.000000 0.000000 0.000000
#
# Coordination Sequence:
#
# PCOD8301326 Si02
#       7
#    16  16  16  16  16   8   8
#     4  11  22  39  69 101 131 169 217 277 339 396
#     4  10  22  41  65  93 130 172 214 266 333 396
#     4  11  23  42  66  93 134 166 224 270 331 390
#     4  11  24  40  63  93 128 176 219 273 320 384
#     4  11  23  42  66  93 134 166 224 270 331 390
#     4  12  28  44  68  97 133 179 225 274 330 391
#     4  12  28  44  68  97 133 179 225 274 330 391
#
# _framework density 20.714887000000001
#
# number of rings (size 3 to 8) (size 9 to 14) (size 15 to 20)
#    0.000    1.000    3.333    3.000    2.333    6.667 
#    0.000    2.500    0.000    4.000    0.000    0.000 
#    0.000    0.000    0.000    0.000    0.000    0.000 
#
# Total GULP energy -595059.766172 kJ/mol
# GULP energy per Si atom -12397.078462 kJ/mol
# Density = 2.066774 g / cm^3
# Si number density = 20.714887 Si / 1000 Ang^3
#
#
#
# Elastic Constant Matrix: (Units=GPa)
#
#
# Indices 1 2 3 4 5 6 
#
# 1 122.3838 47.3960 30.4655 0.0000 0.0000 0.0000
# 2 47.3960 126.8025 50.4806 0.0000 0.0000 0.0000
# 3 30.4655 50.4806 122.6165 0.0000 0.0000 0.0000
# 4 0.0000 0.0000 0.0000 24.7203 0.0000 0.0000
# 5 0.0000 0.0000 0.0000 0.0000 17.5557 0.0000
# 6 0.0000 0.0000 0.0000 0.0000 0.0000 167.3757
#
#
#
# Elastic Compliance Matrix: (Units=1/GPa)
#
#
# Indices 1 2 3 4 5 6 
#
# 1 0.009675 -0.003181 -0.001094 0.000000 0.000000 0.000000
# 2 -0.003181 0.010478 -0.003523 0.000000 0.000000 0.000000
# 3 -0.001094 -0.003523 0.009878 0.000000 0.000000 0.000000
# 4 0.000000 0.000000 0.000000 0.040453 0.000000 0.000000
# 5 0.000000 0.000000 0.000000 0.000000 0.056962 0.000000
# 6 0.000000 0.000000 0.000000 0.000000 0.000000 0.005975
#
#
# Mechanical properties :
#
#
# Convention : Reuss Voigt Hill
#
# Bulk Modulus (GPa) = 69.28080 69.83189 69.55635
# Shear Modulus (GPa) = 32.50378 58.16105 45.33242
#
# Velocity S-wave (km/s) = 3.96549 5.30452 4.68311
# Velocity P-wave (km/s) = 7.38135 8.44401 7.93050
#
# Compressibility (1/GPa) = 0.01443401
#
# Stress axis : x y z
#
# Youngs Moduli (GPa) = 103.35637 95.43957 101.23508
#
# Poissons Ratio (x) = 0.30356 0.11080
# Poissons Ratio (y) = 0.32875 0.35669
# Poissons Ratio (z) = 0.11312 0.33627
#
# Static dielectric constant tensor:
#      x y z
#    x 3.797550 0.000000 0.000000 
#    y 0.000000 4.060770 0.000000 
#    z 0.000000 0.000000 3.605100 
# 
# 
# High freq. dielectric constant tensor:
#      x y z
#    x 1.819750 0.000000 0.000000 
#    y 0.000000 1.822800 0.000000 
#    z 0.000000 0.000000 1.807790 
# 
# From -- ./inp_files/22539.got.cif
#   From: 2010.03.12/outbox.cif.g09.slc.cpg/sg74_12_cif.got.tgz:22539.got - 2010.04.16 15:46:19.
