data_PCOD8301246
_publ_section_title
;
Structure prediction by ZEFSAII (Michael W. Deem and Ramdas Pophale) SiO2 
 PCOD8301246
Probable space group: I M M A
;
_chemical_formula_sum "Si O2"
_cell_formula_units_Z 48
_cell_length_a 24.590138
_cell_length_b 10.369070
_cell_length_c 8.833215
_cell_angle_alpha 90.000000
_cell_angle_beta 90.000000
_cell_angle_gamma 90.000000
_cell_volume 2252.265444
_symmetry_space_group_name_H-M "I M M A"
_symmetry_group_IT_number 74
_symmetry_cell_setting 'orthorhombic'
loop_
_space_group_symop_operation_xyz
x,y,z
-x,1/2-y,z
x,-y,-z
-x,1/2+y,-z
-x,-y,-z
x,1/2+y,-z
-x,y,z
x,1/2-y,z
1/2+x,1/2+y,1/2+z
1/2-x,-y,1/2+z
1/2+x,1/2-y,1/2-z
1/2-x,y,1/2-z
1/2-x,1/2-y,1/2-z
1/2+x,y,1/2-z
1/2-x,1/2+y,1/2+z
1/2+x,-y,1/2+z
loop_
_atom_site_type_symbol
_atom_site_label
_atom_site_fract_x
_atom_site_fract_y
_atom_site_fract_z
Si Si1 0.272795 0.250000 0.582188
Si Si2 0.938107 0.750000 0.818910
Si Si3 0.109419 0.999685 0.331955
Si Si4 0.398012 0.750000 0.357379
Si Si5 0.214282 0.500000 0.500000
O O1 0.250000 0.250000 0.750000
O O2 0.337352 0.250000 0.578297
O O3 0.251796 0.374663 0.492229
O O4 0.907123 0.625378 0.758926
O O5 0.000000 0.750000 0.761489
O O6 0.938272 0.750000 0.000566
O O7 0.082471 0.000000 0.500000
O O8 0.089112 0.874598 0.243273
O O9 0.175383 0.995928 0.350376
#
# Coordination Sequence:
#
# PCOD8301246 Si02
#       5
#     8   8  16   8   8
#     4  12  21  39  63 102 136 177 219 265 336 403
#     4  12  28  46  68 100 135 176 227 286 345 384
#     4  10  22  46  70  95 132 177 226 277 323 406
#     4  12  25  41  68 100 141 175 223 279 336 403
#     4  10  22  38  71  96 133 176 224 274 318 400
#
# _framework density 21.311874
#
# number of rings (size 3 to 8) (size 9 to 14) (size 15 to 20)
#    1.000    0.000    3.333    3.000    4.667    3.333 
#    0.000    4.167    0.000    0.000    0.000    0.000 
#    0.000    0.000    0.000    0.000    0.000    0.000 
#
# Total GULP energy -297643.180733 kJ/mol
# GULP energy per Si atom -12401.799197 kJ/mol
# Density = 2.126337 g / cm^3
# Si number density = 21.311874 Si / 1000 Ang^3
#
#
#
# Elastic Constant Matrix: (Units=GPa)
#
#
# Indices 1 2 3 4 5 6 
#
# 1 66.4465 28.6767 3.6140 0.0000 0.0000 0.0000
# 2 28.6767 221.3363 65.9229 0.0000 0.0000 0.0000
# 3 3.6140 65.9229 116.0571 0.0000 0.0000 0.0000
# 4 0.0000 0.0000 0.0000 54.0147 0.0000 0.0000
# 5 0.0000 0.0000 0.0000 0.0000 24.3913 0.0000
# 6 0.0000 0.0000 0.0000 0.0000 0.0000 1.5626
#
#
#
# Elastic Compliance Matrix: (Units=1/GPa)
#
#
# Indices 1 2 3 4 5 6 
#
# 1 0.016005 -0.002317 0.000818 0.000000 0.000000 0.000000
# 2 -0.002317 0.005774 -0.003207 0.000000 0.000000 0.000000
# 3 0.000818 -0.003207 0.010413 0.000000 0.000000 0.000000
# 4 0.000000 0.000000 0.000000 0.018513 0.000000 0.000000
# 5 0.000000 0.000000 0.000000 0.000000 0.040998 0.000000
# 6 0.000000 0.000000 0.000000 0.000000 0.000000 0.639976
#
#
# Mechanical properties :
#
#
# Convention : Reuss Voigt Hill
#
# Bulk Modulus (GPa) = 43.90168 66.69633 55.29901
# Shear Modulus (GPa) = 6.67837 36.36879 21.52358
#
# Velocity S-wave (km/s) = 1.77213 4.13547 3.18139
# Velocity P-wave (km/s) = 4.98313 7.35976 6.28481
#
# Compressibility (1/GPa) = 0.02277817
#
# Stress axis : x y z
#
# Youngs Moduli (GPa) = 62.47928 173.20491 96.03561
#
# Poissons Ratio (x) = 0.40136 -0.07854
# Poissons Ratio (y) = 0.14478 0.30802
# Poissons Ratio (z) = -0.05110 0.55552
#
# Static dielectric constant tensor:
#      x y z
#    x 3.643810 0.000000 0.000000 
#    y 0.000000 3.473390 0.000000 
#    z 0.000000 0.000000 3.804420 
# 
# 
# High freq. dielectric constant tensor:
#      x y z
#    x 1.817740 0.000000 0.000000 
#    y 0.000000 1.854170 0.000000 
#    z 0.000000 0.000000 1.835870 
# 
# From -- ./inp_files/15704.got.cif
#   From: 2010.03.12/outbox.cif.g09.slc.cpg/sg74_8_cif.got.tgz:15704.got - 2010.04.16 15:46:19.
