data_PCOD8301644
_publ_section_title
;
Structure prediction by ZEFSAII (Michael W. Deem and Ramdas Pophale) SiO2 
 PCOD8301644
Probable space group: I M M A
;
_chemical_formula_sum "Si O2"
_cell_formula_units_Z 64
_cell_length_a 16.396836
_cell_length_b 19.182598
_cell_length_c 8.782831
_cell_angle_alpha 90.000000
_cell_angle_beta 90.000000
_cell_angle_gamma 90.000000
_cell_volume 2762.498206
_symmetry_space_group_name_H-M "I M M A"
_symmetry_group_IT_number 74
_symmetry_cell_setting 'orthorhombic'
loop_
_space_group_symop_operation_xyz
x,y,z
-x,1/2-y,z
x,-y,-z
-x,1/2+y,-z
-x,-y,-z
x,1/2+y,-z
-x,y,z
x,1/2-y,z
1/2+x,1/2+y,1/2+z
1/2-x,-y,1/2+z
1/2+x,1/2-y,1/2-z
1/2-x,y,1/2-z
1/2-x,1/2-y,1/2-z
1/2+x,y,1/2-z
1/2-x,1/2+y,1/2+z
1/2+x,-y,1/2+z
loop_
_atom_site_type_symbol
_atom_site_label
_atom_site_fract_x
_atom_site_fract_y
_atom_site_fract_z
Si Si1 0.409875 0.250000 0.374805
Si Si2 0.813156 0.383089 0.132467
Si Si3 0.908469 0.250000 0.485696
Si Si4 0.593708 0.003814 0.817143
Si Si5 0.303955 0.128373 0.876882
O O1 0.500000 0.250000 0.444916
O O2 0.367131 0.179821 0.434634
O O3 0.412833 0.250000 0.193932
O O4 0.750000 0.348408 0.250000
O O5 0.866412 0.441139 0.220327
O O6 0.756800 0.412075 0.994722
O O7 0.863088 0.319277 0.537184
O O8 0.000000 0.250000 0.553873
O O9 0.500000 0.008576 0.763944
O O10 0.643021 0.073474 0.778386
O O11 0.599013 0.000000 0.000000
O O12 0.250000 0.168496 0.750000
#
# Coordination Sequence:
#
# PCOD8301644 Si02
#       5
#     8  16   8  16  16
#     4  11  22  40  69 101 130 167 221 282 337 400
#     4  12  22  41  67  98 131 170 222 278 332 394
#     4  11  22  43  69  98 130 173 223 276 339 403
#     4  11  23  41  66  98 132 174 224 278 336 398
#     4  12  26  42  66  98 136 176 224 276 336 402
#
# _framework density 23.167437
#
# number of rings (size 3 to 8) (size 9 to 14) (size 15 to 20)
#    0.000    0.500    5.000    3.750    0.000    4.000 
#    0.000    7.500    0.000    0.000    0.000    0.000 
#    0.000    0.000    0.000    0.000    0.000    0.000 
#
# Total GULP energy -396575.235335 kJ/mol
# GULP energy per Si atom -12392.976104 kJ/mol
# Density = 2.311471 g / cm^3
# Si number density = 23.167437 Si / 1000 Ang^3
#
#
#
# Elastic Constant Matrix: (Units=GPa)
#
#
# Indices 1 2 3 4 5 6 
#
# 1 188.8977 70.8321 45.0150 0.0000 0.0000 0.0000
# 2 70.8321 138.2430 12.2256 0.0000 0.0000 0.0000
# 3 45.0150 12.2256 59.2437 0.0000 0.0000 0.0000
# 4 0.0000 0.0000 0.0000 -93.9478 0.0000 0.0000
# 5 0.0000 0.0000 0.0000 0.0000 30.2222 0.0000
# 6 0.0000 0.0000 0.0000 0.0000 0.0000 36.9715
#
#
#
# Elastic Compliance Matrix: (Units=1/GPa)
#
#
# Indices 1 2 3 4 5 6 
#
# 1 0.007887 -0.003576 -0.005255 0.000000 0.000000 0.000000
# 2 -0.003576 0.008990 0.000862 0.000000 0.000000 0.000000
# 3 -0.005255 0.000862 0.020694 0.000000 0.000000 0.000000
# 4 0.000000 0.000000 0.000000 -0.010644 0.000000 0.000000
# 5 0.000000 0.000000 0.000000 0.000000 0.033088 0.000000
# 6 0.000000 0.000000 0.000000 0.000000 0.000000 0.027048
#
#
# Mechanical properties :
#
#
# Convention : Reuss Voigt Hill
#
# Bulk Modulus (GPa) = 46.22492 71.39219 58.80855
# Shear Modulus (GPa) = 45.36691 11.86997 28.61844
#
# Velocity S-wave (km/s) = 4.42998 2.26598 3.51848
# Velocity P-wave (km/s) = 6.79427 6.14238 6.47653
#
# Compressibility (1/GPa) = 0.02163335
#
# Stress axis : x y z
#
# Youngs Moduli (GPa) = 126.78721 111.23620 48.32250
#
# Poissons Ratio (x) = 0.39784 0.25393
# Poissons Ratio (y) = 0.45345 -0.04167
# Poissons Ratio (z) = 0.66625 -0.09593
#
# Static dielectric constant tensor:
#      x y z
#    x 4.705290 0.000000 0.000000 
#    y 0.000000 3.993480 0.000000 
#    z 0.000000 0.000000 4.063400 
# 
# 
# High freq. dielectric constant tensor:
#      x y z
#    x 1.941700 0.000000 0.000000 
#    y 0.000000 1.903270 0.000000 
#    z 0.000000 0.000000 1.904970 
# 
# From -- ./inp_files/10283.got.cif
#   From: 2010.03.12/outbox.cif.g09.slc.cpg/sg74_6_cif.got.tgz:10283.got - 2010.04.16 15:46:19.
