data_PCOD8301441
_publ_section_title
;
Structure prediction by ZEFSAII (Michael W. Deem and Ramdas Pophale) SiO2 
 PCOD8301441
Probable space group: I M M A
;
_chemical_formula_sum "Si O2"
_cell_formula_units_Z 112
_cell_length_a 19.902785
_cell_length_b 27.920628
_cell_length_c 12.454768
_cell_angle_alpha 90.000000
_cell_angle_beta 90.000000
_cell_angle_gamma 90.000000
_cell_volume 6921.092858
_symmetry_space_group_name_H-M "I M M A"
_symmetry_group_IT_number 74
_symmetry_cell_setting 'orthorhombic'
loop_
_space_group_symop_operation_xyz
x,y,z
-x,1/2-y,z
x,-y,-z
-x,1/2+y,-z
-x,-y,-z
x,1/2+y,-z
-x,y,z
x,1/2-y,z
1/2+x,1/2+y,1/2+z
1/2-x,-y,1/2+z
1/2+x,1/2-y,1/2-z
1/2-x,y,1/2-z
1/2-x,1/2-y,1/2-z
1/2+x,y,1/2-z
1/2-x,1/2+y,1/2+z
1/2+x,-y,1/2+z
loop_
_atom_site_type_symbol
_atom_site_label
_atom_site_fract_x
_atom_site_fract_y
_atom_site_fract_z
Si Si1 0.577544 0.602555 0.362518
Si Si2 0.200392 0.399201 0.480225
Si Si3 0.675945 0.552153 0.777848
Si Si4 0.715067 0.303612 0.917811
Si Si5 0.644459 0.303601 0.698632
Si Si6 0.653481 0.945637 0.542313
Si Si7 0.678719 0.557628 0.199983
O O1 0.500000 0.590664 0.345682
O O2 0.589441 0.658924 0.342968
O O3 0.599288 0.587329 0.482303
O O4 0.619838 0.570494 0.281059
O O5 0.153913 0.413641 0.377410
O O6 0.205744 0.341438 0.485482
O O7 0.272369 0.425095 0.476455
O O8 0.164056 0.416053 0.588653
O O9 0.750000 0.570125 0.750000
O O10 0.632342 0.556288 0.668736
O O11 0.678043 0.498549 0.822441
O O12 0.704972 0.250000 0.964016
O O13 0.661683 0.313597 0.823027
O O14 0.789161 0.309870 0.871454
O O15 0.615202 0.250000 0.685144
O O16 0.651860 0.000000 0.500000
O O17 0.750000 0.574478 0.250000
#
# Coordination Sequence:
#
# PCOD8301441 Si02
#       7
#    16  16  16  16  16  16  16
#     4  12  23  32  51  79 107 138 170 213 260 306
#     4  11  17  28  55  78 101 130 167 222 252 300
#     4   9  19  29  47  77  99 129 179 211 242 297
#     4   9  16  27  51  80 103 130 163 208 269 309
#     4   9  17  32  50  74 105 135 167 205 255 318
#     4  11  19  34  49  71 104 138 174 212 254 302
#     4  11  17  32  52  73 104 137 169 207 262 306
#
# _framework density 16.182417000000001
#
# number of rings (size 3 to 8) (size 9 to 14) (size 15 to 20)
#    0.000    1.714    5.714    3.000    0.000    0.571 
#    0.000    0.000    0.000    7.286    0.000    0.000 
#    0.000    0.000    0.000    0.000    0.000    0.000 
#
# Total GULP energy -694156.085210 kJ/mol
# GULP energy per Si atom -12395.644379 kJ/mol
# Density = 1.614558 g / cm^3
# Si number density = 16.182417 Si / 1000 Ang^3
#
#
#
# Elastic Constant Matrix: (Units=GPa)
#
#
# Indices 1 2 3 4 5 6 
#
# 1 62.6898 17.8710 25.8602 0.0000 0.0000 0.0000
# 2 17.8710 99.1771 55.9614 0.0000 0.0000 0.0000
# 3 25.8602 55.9614 112.5535 0.0000 0.0000 0.0000
# 4 0.0000 0.0000 0.0000 29.1693 0.0000 0.0000
# 5 0.0000 0.0000 0.0000 0.0000 10.2287 0.0000
# 6 0.0000 0.0000 0.0000 0.0000 0.0000 8.3179
#
#
#
# Elastic Compliance Matrix: (Units=1/GPa)
#
#
# Indices 1 2 3 4 5 6 
#
# 1 0.017732 -0.001246 -0.003455 0.000000 0.000000 0.000000
# 2 -0.001246 0.014102 -0.006725 0.000000 0.000000 0.000000
# 3 -0.003455 -0.006725 0.013022 0.000000 0.000000 0.000000
# 4 0.000000 0.000000 0.000000 0.034283 0.000000 0.000000
# 5 0.000000 0.000000 0.000000 0.000000 0.097764 0.000000
# 6 0.000000 0.000000 0.000000 0.000000 0.000000 0.120222
#
#
# Mechanical properties :
#
#
# Convention : Reuss Voigt Hill
#
# Bulk Modulus (GPa) = 45.44498 52.64507 49.04503
# Shear Modulus (GPa) = 15.27593 21.19170 18.23381
#
# Velocity S-wave (km/s) = 3.07576 3.62270 3.36038
# Velocity P-wave (km/s) = 6.38417 7.07824 6.74015
#
# Compressibility (1/GPa) = 0.02200463
#
# Stress axis : x y z
#
# Youngs Moduli (GPa) = 56.39594 70.91031 76.79167
#
# Poissons Ratio (x) = 0.08834 0.26529
# Poissons Ratio (y) = 0.07026 0.51645
# Poissons Ratio (z) = 0.19483 0.47690
#
# Static dielectric constant tensor:
#      x y z
#    x 2.597010 0.000000 0.000000 
#    y 0.000000 3.287910 0.000000 
#    z 0.000000 0.000000 3.416530 
# 
# 
# High freq. dielectric constant tensor:
#      x y z
#    x 1.565670 0.000000 0.000000 
#    y 0.000000 1.632420 0.000000 
#    z 0.000000 0.000000 1.616760 
# 
# From -- ./inp_files/24322.got.cif
#   From: 2010.03.12/outbox.cif.g09.slc.cpg/sg74_13_cif.got.tgz:24322.got - 2010.04.16 15:46:19.
