data_PCOD8301587
_publ_section_title
;
Structure prediction by ZEFSAII (Michael W. Deem and Ramdas Pophale) SiO2 
 PCOD8301587
Probable space group: I M M A
;
_chemical_formula_sum "Si O2"
_cell_formula_units_Z 64
_cell_length_a 14.087507
_cell_length_b 27.219965
_cell_length_c 8.770205
_cell_angle_alpha 90.000000
_cell_angle_beta 90.000000
_cell_angle_gamma 90.000000
_cell_volume 3363.035504
_symmetry_space_group_name_H-M "I M M A"
_symmetry_group_IT_number 74
_symmetry_cell_setting 'orthorhombic'
loop_
_space_group_symop_operation_xyz
x,y,z
-x,1/2-y,z
x,-y,-z
-x,1/2+y,-z
-x,-y,-z
x,1/2+y,-z
-x,y,z
x,1/2-y,z
1/2+x,1/2+y,1/2+z
1/2-x,-y,1/2+z
1/2+x,1/2-y,1/2-z
1/2-x,y,1/2-z
1/2-x,1/2-y,1/2-z
1/2+x,y,1/2-z
1/2-x,1/2+y,1/2+z
1/2+x,-y,1/2+z
loop_
_atom_site_type_symbol
_atom_site_label
_atom_site_fract_x
_atom_site_fract_y
_atom_site_fract_z
Si Si1 0.500000 0.604658 0.310993
Si Si2 0.500000 0.028188 0.158224
Si Si3 0.844817 0.974874 0.159234
Si Si4 0.353736 0.306668 0.214593
Si Si5 0.000000 0.366685 0.460384
Si Si6 0.500000 0.304745 0.476042
O O1 0.406601 0.574623 0.361855
O O2 0.500000 0.657655 0.386272
O O3 0.500000 0.613992 0.131378
O O4 0.500000 0.086391 0.148294
O O5 0.594645 0.014438 0.248223
O O6 0.500000 0.000000 0.000000
O O7 0.750000 0.960841 0.250000
O O8 0.816946 0.000000 0.000000
O O9 0.348636 0.250000 0.162590
O O10 0.250000 0.328442 0.250000
O O11 0.405185 0.335533 0.076922
O O12 0.408526 0.312883 0.372312
O O13 0.500000 0.250000 0.546918
#
# Coordination Sequence:
#
# PCOD8301587 Si02
#       6
#     8   8  16  16   8   8
#     4  11  24  41  58  91 126 149 205 253 293 357
#     4  11  21  42  58  87 126 152 203 247 304 356
#     4  11  25  41  63  86 120 163 201 254 302 361
#     4   9  20  39  62  90 119 154 203 245 292 363
#     4  11  22  35  64  86 118 160 193 249 299 360
#     4   9  20  39  61  87 122 160 195 243 303 356
#
# _framework density 19.030425000000001
#
# number of rings (size 3 to 8) (size 9 to 14) (size 15 to 20)
#    0.000    1.750    2.500    3.375    7.000    4.000 
#    0.000    0.000    0.000    5.250    0.000    0.000 
#    0.000    0.000    0.000    0.000    0.000    0.000 
#
# Total GULP energy -396837.875927 kJ/mol
# GULP energy per Si atom -12401.183623 kJ/mol
# Density = 1.898711 g / cm^3
# Si number density = 19.030425 Si / 1000 Ang^3
#
#
#
# Elastic Constant Matrix: (Units=GPa)
#
#
# Indices 1 2 3 4 5 6 
#
# 1 147.9283 37.2305 28.3391 -0.0033 0.0020 0.0017
# 2 37.2305 110.1152 36.3737 -0.0008 0.0011 0.0013
# 3 28.3391 36.3737 80.5966 -0.0195 0.0188 0.0141
# 4 -0.0033 -0.0008 -0.0195 37.9120 0.0067 0.0052
# 5 0.0020 0.0011 0.0188 0.0067 14.2199 -0.0031
# 6 0.0017 0.0013 0.0141 0.0052 -0.0031 1.6224
#
#
#
# Elastic Compliance Matrix: (Units=1/GPa)
#
#
# Indices 1 2 3 4 5 6 
#
# 1 0.007599 -0.001982 -0.001777 0.000000 0.000001 0.000009
# 2 -0.001982 0.011189 -0.004353 -0.000002 0.000005 0.000031
# 3 -0.001777 -0.004353 0.014997 0.000007 -0.000019 -0.000125
# 4 0.000000 -0.000002 0.000007 0.026377 -0.000012 -0.000084
# 5 0.000001 0.000005 -0.000019 -0.000012 0.070324 0.000133
# 6 0.000009 0.000031 -0.000125 -0.000084 0.000133 0.616381
#
#
# Mechanical properties :
#
#
# Convention : Reuss Voigt Hill
#
# Bulk Modulus (GPa) = 56.94559 60.28075 58.61317
# Shear Modulus (GPa) = 6.50240 26.53064 16.51652
#
# Velocity S-wave (km/s) = 1.85048 3.73784 2.94921
# Velocity P-wave (km/s) = 5.87827 7.09742 6.51642
#
# Compressibility (1/GPa) = 0.01756062
#
# Stress axis : x y z
#
# Youngs Moduli (GPa) = 131.58855 89.36973 66.68016
#
# Poissons Ratio (x) = 0.17715 0.11852
# Poissons Ratio (y) = 0.26084 0.29025
# Poissons Ratio (z) = 0.23390 0.38902
#
# Static dielectric constant tensor:
#      x y z
#    x 3.782300 0.000010 0.000020 
#    y 0.000010 3.664650 0.000010 
#    z 0.000020 0.000010 3.846490 
# 
# 
# High freq. dielectric constant tensor:
#      x y z
#    x 1.746760 0.000000 0.000000 
#    y 0.000000 1.747470 0.000000 
#    z 0.000000 0.000000 1.732260 
# 
# From -- ./inp_files/9302.got.cif
#   From: 2010.03.12/outbox.cif.g09.slc.cpg/sg74_5_cif.got.tgz:9302.got - 2010.04.16 15:46:19.
