data_PCOD8301376
_publ_section_title
;
Structure prediction by ZEFSAII (Michael W. Deem and Ramdas Pophale) SiO2 
 PCOD8301376
Probable space group: I M M A
;
_chemical_formula_sum "Si O2"
_cell_formula_units_Z 80
_cell_length_a 25.159094
_cell_length_b 8.797801
_cell_length_c 18.245096
_cell_angle_alpha 90.000000
_cell_angle_beta 90.000000
_cell_angle_gamma 90.000000
_cell_volume 4038.455344
_symmetry_space_group_name_H-M "I M M A"
_symmetry_group_IT_number 74
_symmetry_cell_setting 'orthorhombic'
loop_
_space_group_symop_operation_xyz
x,y,z
-x,1/2-y,z
x,-y,-z
-x,1/2+y,-z
-x,-y,-z
x,1/2+y,-z
-x,y,z
x,1/2-y,z
1/2+x,1/2+y,1/2+z
1/2-x,-y,1/2+z
1/2+x,1/2-y,1/2-z
1/2-x,y,1/2-z
1/2-x,1/2-y,1/2-z
1/2+x,y,1/2-z
1/2-x,1/2+y,1/2+z
1/2+x,-y,1/2+z
loop_
_atom_site_type_symbol
_atom_site_label
_atom_site_fract_x
_atom_site_fract_y
_atom_site_fract_z
Si Si1 0.810811 0.925522 0.333749
Si Si2 0.188208 0.573772 0.166273
Si Si3 0.500000 0.571730 0.821941
Si Si4 0.403330 0.429490 0.420485
Si Si5 0.500000 0.429488 0.665995
Si Si6 0.598567 0.573062 0.922240
O O1 0.824829 0.750000 0.345428
O O2 0.823448 0.972644 0.250183
O O3 0.749503 0.956579 0.352437
O O4 0.845152 0.023821 0.389254
O O5 0.173655 0.750000 0.153527
O O6 0.154109 0.469060 0.112561
O O7 0.500000 0.750000 0.800746
O O8 0.500000 0.466410 0.751317
O O9 0.551808 0.525576 0.867569
O O10 0.409885 0.500000 0.500000
O O11 0.410349 0.250000 0.425628
O O12 0.447767 0.498591 0.368493
O O13 0.500000 0.250000 0.653182
O O14 0.599867 0.750000 0.935415
O O15 0.587215 0.500000 0.000000
#
# Coordination Sequence:
#
# PCOD8301376 Si02
#       6
#    16  16   8  16   8  16
#     4   9  19  37  61  87 118 153 194 241 289 344
#     4   9  19  38  62  88 117 153 195 240 289 344
#     4  10  23  42  62  88 117 150 194 242 289 344
#     4  12  25  41  61  87 120 155 193 240 289 343
#     4  12  25  42  65  90 117 152 191 234 287 348
#     4  11  23  38  58  84 118 155 195 241 291 345
#
# _framework density 19.809553000000001
#
# number of rings (size 3 to 8) (size 9 to 14) (size 15 to 20)
#    0.000    1.600    0.000    6.300    0.000    7.200 
#    0.000    2.000    0.000    0.000    0.000    0.000 
#    0.000    0.000    0.000    0.000    0.000    0.000 
#
# Total GULP energy -496214.737518 kJ/mol
# GULP energy per Si atom -12405.368438 kJ/mol
# Density = 1.976447 g / cm^3
# Si number density = 19.809553 Si / 1000 Ang^3
#
#
#
# Elastic Constant Matrix: (Units=GPa)
#
#
# Indices 1 2 3 4 5 6 
#
# 1 107.4088 57.2855 60.1866 0.0000 0.0000 0.0000
# 2 57.2855 124.8185 71.8095 0.0000 0.0000 0.0000
# 3 60.1866 71.8095 129.7403 0.0000 0.0000 0.0000
# 4 0.0000 0.0000 0.0000-7565.7976 0.0000 0.0000
# 5 0.0000 0.0000 0.0000 0.0000 -63.6744 0.0000
# 6 0.0000 0.0000 0.0000 0.0000 0.0000 93.8750
#
#
#
# Elastic Compliance Matrix: (Units=1/GPa)
#
#
# Indices 1 2 3 4 5 6 
#
# 1 0.013749 -0.003874 -0.004234 0.000000 0.000000 0.000000
# 2 -0.003874 0.012846 -0.005313 0.000000 0.000000 0.000000
# 3 -0.004234 -0.005313 0.012612 0.000000 0.000000 0.000000
# 4 0.000000 0.000000 0.000000 -0.000132 0.000000 0.000000
# 5 0.000000 0.000000 0.000000 0.000000 -0.015705 0.000000
# 6 0.000000 0.000000 0.000000 0.000000 0.000000 0.010652
#
#
# Mechanical properties :
#
#
# Convention : Reuss Voigt Hill
#
# Bulk Modulus (GPa) = 80.86967 82.28119 81.57543
# Shear Modulus (GPa) = 76.93826 -1495.60698 -709.33436
#
# Velocity S-wave (km/s) = 6.23885 -27.50694 -18.94345
# Velocity P-wave (km/s) = 9.63379 31.10010 20.90940
#
# Compressibility (1/GPa) = 0.01236558
#
# Stress axis : x y z
#
# Youngs Moduli (GPa) = 72.73274 77.84284 79.28711
#
# Poissons Ratio (x) = 0.30159 0.33568
# Poissons Ratio (y) = 0.28179 0.42125
# Poissons Ratio (z) = 0.30793 0.41358
#
# Static dielectric constant tensor:
#      x y z
#    x 3.788310 0.000000 0.000000 
#    y 0.000000 3.572990 0.000000 
#    z 0.000000 0.000000 3.636890 
# 
# 
# High freq. dielectric constant tensor:
#      x y z
#    x 1.787200 0.000000 0.000000 
#    y 0.000000 1.773480 0.000000 
#    z 0.000000 0.000000 1.780260 
# 
# From -- ./inp_files/46533.got.cif
#   From: 2010.03.12/outbox.cif.g09.slc.cpg/sg74_24_cif.got.tgz:46533.got - 2010.04.16 15:46:19.
