data_PCOD8301477
_publ_section_title
;
Structure prediction by ZEFSAII (Michael W. Deem and Ramdas Pophale) SiO2 
 PCOD8301477
Probable space group: I M M A
;
_chemical_formula_sum "Si O2"
_cell_formula_units_Z 112
_cell_length_a 20.648423
_cell_length_b 22.144030
_cell_length_c 12.282694
_cell_angle_alpha 90.000000
_cell_angle_beta 90.000000
_cell_angle_gamma 90.000000
_cell_volume 5616.130387
_symmetry_space_group_name_H-M "I M M A"
_symmetry_group_IT_number 74
_symmetry_cell_setting 'orthorhombic'
loop_
_space_group_symop_operation_xyz
x,y,z
-x,1/2-y,z
x,-y,-z
-x,1/2+y,-z
-x,-y,-z
x,1/2+y,-z
-x,y,z
x,1/2-y,z
1/2+x,1/2+y,1/2+z
1/2-x,-y,1/2+z
1/2+x,1/2-y,1/2-z
1/2-x,y,1/2-z
1/2-x,1/2-y,1/2-z
1/2+x,y,1/2-z
1/2-x,1/2+y,1/2+z
1/2+x,-y,1/2+z
loop_
_atom_site_type_symbol
_atom_site_label
_atom_site_fract_x
_atom_site_fract_y
_atom_site_fract_z
Si Si1 0.395217 0.071119 0.383301
Si Si2 0.178161 0.615954 0.278074
Si Si3 0.176510 0.489614 0.380181
Si Si4 0.656299 0.820403 0.002060
Si Si5 0.426009 0.432132 0.623484
Si Si6 0.756663 0.375622 0.136540
Si Si7 0.927809 0.096082 0.351640
O O1 0.432315 0.084580 0.495691
O O2 0.324142 0.097651 0.401703
O O3 0.426516 0.105401 0.279932
O O4 0.396048 0.999107 0.360633
O O5 0.250000 0.643085 0.250000
O O6 0.191082 0.547273 0.309602
O O7 0.146746 0.653011 0.377251
O O8 0.123514 0.615080 0.182482
O O9 0.204468 0.500000 0.500000
O O10 0.210037 0.431273 0.329436
O O11 0.100814 0.470215 0.382139
O O12 0.642451 0.750000 0.006160
O O13 0.729577 0.835377 0.962906
O O14 0.608353 0.850216 0.914896
O O15 0.500000 0.428776 0.670612
O O16 0.750000 0.337386 0.250000
O O17 0.000000 0.097569 0.395256
#
# Coordination Sequence:
#
# PCOD8301477 Si02
#       7
#    16  16  16  16  16  16  16
#     4  11  20  35  57  92 132 160 196 242 303 379
#     4  12  23  40  62  91 126 168 206 254 311 375
#     4  11  20  34  57  93 127 152 194 243 312 385
#     4  11  26  45  63  88 116 156 220 272 315 358
#     4  11  23  35  57  93 134 175 202 235 303 392
#     4  11  19  36  60  91 119 153 189 248 319 377
#     4  11  22  39  61  87 124 162 201 254 314 371
#
# _framework density 19.942557000000001
#
# number of rings (size 3 to 8) (size 9 to 14) (size 15 to 20)
#    0.000    0.857    7.143    3.857    2.000    1.714 
#    0.000    0.000    0.000    0.857    0.000    0.000 
#    0.000    0.000    0.000    0.000    0.000    0.000 
#
# Total GULP energy -693924.739100 kJ/mol
# GULP energy per Si atom -12391.513198 kJ/mol
# Density = 1.989717 g / cm^3
# Si number density = 19.942557 Si / 1000 Ang^3
#
#
#
# Elastic Constant Matrix: (Units=GPa)
#
#
# Indices 1 2 3 4 5 6 
#
# 1 118.2383 14.2508 23.5794 0.0000 0.0000 0.0000
# 2 14.2508 63.0568 30.4777 0.0000 0.0000 0.0000
# 3 23.5794 30.4777 120.4890 0.0000 0.0000 0.0000
# 4 0.0000 0.0000 0.0000 9.9492 0.0000 0.0000
# 5 0.0000 0.0000 0.0000 0.0000 24.1486 0.0000
# 6 0.0000 0.0000 0.0000 0.0000 0.0000 14.9231
#
#
#
# Elastic Compliance Matrix: (Units=1/GPa)
#
#
# Indices 1 2 3 4 5 6 
#
# 1 0.008898 -0.001332 -0.001404 0.000000 0.000000 0.000000
# 2 -0.001332 0.018267 -0.004360 0.000000 0.000000 0.000000
# 3 -0.001404 -0.004360 0.009677 0.000000 0.000000 0.000000
# 4 0.000000 0.000000 0.000000 0.100511 0.000000 0.000000
# 5 0.000000 0.000000 0.000000 0.000000 0.041410 0.000000
# 6 0.000000 0.000000 0.000000 0.000000 0.000000 0.067010
#
#
# Mechanical properties :
#
#
# Convention : Reuss Voigt Hill
#
# Bulk Modulus (GPa) = 44.15130 48.71113 46.43121
# Shear Modulus (GPa) = 18.69043 25.36924 22.02984
#
# Velocity S-wave (km/s) = 3.06472 3.57054 3.32726
# Velocity P-wave (km/s) = 5.89157 6.44027 6.17202
#
# Compressibility (1/GPa) = 0.02264939
#
# Stress axis : x y z
#
# Youngs Moduli (GPa) = 112.38322 54.74316 103.33567
#
# Poissons Ratio (x) = 0.07293 0.14512
# Poissons Ratio (y) = 0.14972 0.45054
# Poissons Ratio (z) = 0.15783 0.23868
#
# Static dielectric constant tensor:
#      x y z
#    x 3.905200 0.000000 0.000000 
#    y 0.000000 3.162860 0.000000 
#    z 0.000000 0.000000 3.911140 
# 
# 
# High freq. dielectric constant tensor:
#      x y z
#    x 1.781340 0.000000 0.000000 
#    y 0.000000 1.716690 0.000000 
#    z 0.000000 0.000000 1.799530 
# 
# From -- ./inp_files/24207.got.cif
#   From: 2010.03.12/outbox.cif.g09.slc.cpg/sg74_13_cif.got.tgz:24207.got - 2010.04.16 15:46:19.
