data_PCOD8301783
_publ_section_title
;
Structure prediction by ZEFSAII (Michael W. Deem and Ramdas Pophale) SiO2 
 PCOD8301783
Probable space group: I M M A
;
_chemical_formula_sum "Si O2"
_cell_formula_units_Z 128
_cell_length_a 19.718043
_cell_length_b 24.098450
_cell_length_c 16.645134
_cell_angle_alpha 90.000000
_cell_angle_beta 90.000000
_cell_angle_gamma 90.000000
_cell_volume 7909.339453
_symmetry_space_group_name_H-M "I M M A"
_symmetry_group_IT_number 74
_symmetry_cell_setting 'orthorhombic'
loop_
_space_group_symop_operation_xyz
x,y,z
-x,1/2-y,z
x,-y,-z
-x,1/2+y,-z
-x,-y,-z
x,1/2+y,-z
-x,y,z
x,1/2-y,z
1/2+x,1/2+y,1/2+z
1/2-x,-y,1/2+z
1/2+x,1/2-y,1/2-z
1/2-x,y,1/2-z
1/2-x,1/2-y,1/2-z
1/2+x,y,1/2-z
1/2-x,1/2+y,1/2+z
1/2+x,-y,1/2+z
loop_
_atom_site_type_symbol
_atom_site_label
_atom_site_fract_x
_atom_site_fract_y
_atom_site_fract_z
Si Si1 0.424619 0.315569 0.557126
Si Si2 0.921076 0.534259 0.681245
Si Si3 0.827382 0.186991 0.402442
Si Si4 0.826273 0.878487 0.755893
Si Si5 0.080698 0.312310 0.763293
Si Si6 0.826817 0.814599 0.916877
Si Si7 0.419925 0.587800 0.155601
Si Si8 0.421215 0.599737 0.975880
O O1 0.500000 0.340794 0.541039
O O2 0.429568 0.250000 0.551268
O O3 0.398470 0.331086 0.646544
O O4 0.371292 0.337723 0.491240
O O5 0.877951 0.571372 0.741854
O O6 0.899038 0.470525 0.696427
O O7 0.906150 0.550999 0.588325
O O8 0.000000 0.543605 0.700819
O O9 0.849330 0.250000 0.408160
O O10 0.832642 0.169644 0.309844
O O11 0.752167 0.177088 0.437593
O O12 0.881002 0.154879 0.455451
O O13 0.750000 0.902665 0.750000
O O14 0.846100 0.851414 0.840302
O O15 0.108844 0.250000 0.742994
O O16 0.111362 0.358632 0.702111
O O17 0.000000 0.310311 0.758041
O O18 0.842246 0.750000 0.898454
O O19 0.500000 0.593887 0.157763
O O20 0.395198 0.582808 0.063861
O O21 0.500000 0.615109 0.976378
#
# Coordination Sequence:
#
# PCOD8301783 Si02
#       8
#    16  16  16  16  16  16  16  16
#     4   8  14  25  42  64  87 111 142 179 215 253
#     4   9  17  29  45  65  88 114 146 183 219 255
#     4   9  17  28  42  63  91 119 145 175 216 265
#     4   9  17  29  45  63  87 117 149 181 215 258
#     4   8  14  25  42  65  89 111 139 176 216 257
#     4   9  16  27  45  65  86 116 149 178 215 265
#     4   9  16  27  46  67  86 113 146 178 216 264
#     4   9  17  28  43  64  88 115 147 182 217 255
#
# _framework density 16.183399999999999
#
# number of rings (size 3 to 8) (size 9 to 14) (size 15 to 20)
#    0.000    3.250    0.000    1.500    0.000    4.250 
#    0.000    1.250    2.750    3.000    0.000    7.000 
#    0.000    0.000    0.000    0.000    0.000    0.000 
#
# Total GULP energy -793189.580097 kJ/mol
# GULP energy per Si atom -12393.587189 kJ/mol
# Density = 1.614657 g / cm^3
# Si number density = 16.183400 Si / 1000 Ang^3
#
#
#
# Elastic Constant Matrix: (Units=GPa)
#
#
# Indices 1 2 3 4 5 6 
#
# 1 42.5895 37.9172 31.4198 0.0000 0.0000 0.0000
# 2 37.9172 106.5952 51.0274 0.0000 0.0000 0.0000
# 3 31.4198 51.0274 85.5960 0.0000 0.0000 0.0000
# 4 0.0000 0.0000 0.0000 17.1061 0.0000 0.0000
# 5 0.0000 0.0000 0.0000 0.0000 16.0550 0.0000
# 6 0.0000 0.0000 0.0000 0.0000 0.0000 14.2881
#
#
#
# Elastic Compliance Matrix: (Units=1/GPa)
#
#
# Indices 1 2 3 4 5 6 
#
# 1 0.038133 -0.009605 -0.008272 0.000000 0.000000 0.000000
# 2 -0.009605 0.015547 -0.005742 0.000000 0.000000 0.000000
# 3 -0.008272 -0.005742 0.018142 0.000000 0.000000 0.000000
# 4 0.000000 0.000000 0.000000 0.058459 0.000000 0.000000
# 5 0.000000 0.000000 0.000000 0.000000 0.062286 0.000000
# 6 0.000000 0.000000 0.000000 0.000000 0.000000 0.069988
#
#
# Mechanical properties :
#
#
# Convention : Reuss Voigt Hill
#
# Bulk Modulus (GPa) = 40.67601 52.83439 46.75520
# Shear Modulus (GPa) = 15.72383 17.11759 16.42071
#
# Velocity S-wave (km/s) = 3.12044 3.25580 3.18883
# Velocity P-wave (km/s) = 6.17833 6.84484 6.52011
#
# Compressibility (1/GPa) = 0.02458452
#
# Stress axis : x y z
#
# Youngs Moduli (GPa) = 26.22367 64.32208 55.11932
#
# Poissons Ratio (x) = 0.61780 0.45594
# Poissons Ratio (y) = 0.25187 0.31652
# Poissons Ratio (z) = 0.21692 0.36937
#
# Static dielectric constant tensor:
#      x y z
#    x 2.952230 0.000000 0.000000 
#    y 0.000000 3.046940 0.000000 
#    z 0.000000 0.000000 3.227550 
# 
# 
# High freq. dielectric constant tensor:
#      x y z
#    x 1.595450 0.000000 0.000000 
#    y 0.000000 1.608920 0.000000 
#    z 0.000000 0.000000 1.619200 
# 
# From -- ./inp_files/45624.got.cif
#   From: 2010.03.12/outbox.cif.g09.slc.cpg/sg74_23_cif.got.tgz:45624.got - 2010.04.16 15:46:19.
