data_PCOD8301476
_publ_section_title
;
Structure prediction by ZEFSAII (Michael W. Deem and Ramdas Pophale) SiO2 
 PCOD8301476
Probable space group: I M M A
;
_chemical_formula_sum "Si O2"
_cell_formula_units_Z 80
_cell_length_a 10.047248
_cell_length_b 20.984466
_cell_length_c 21.274077
_cell_angle_alpha 90.000000
_cell_angle_beta 90.000000
_cell_angle_gamma 90.000000
_cell_volume 4485.344150
_symmetry_space_group_name_H-M "I M M A"
_symmetry_group_IT_number 74
_symmetry_cell_setting 'orthorhombic'
loop_
_space_group_symop_operation_xyz
x,y,z
-x,1/2-y,z
x,-y,-z
-x,1/2+y,-z
-x,-y,-z
x,1/2+y,-z
-x,y,z
x,1/2-y,z
1/2+x,1/2+y,1/2+z
1/2-x,-y,1/2+z
1/2+x,1/2-y,1/2-z
1/2-x,y,1/2-z
1/2-x,1/2-y,1/2-z
1/2+x,y,1/2-z
1/2-x,1/2+y,1/2+z
1/2+x,-y,1/2+z
loop_
_atom_site_type_symbol
_atom_site_label
_atom_site_fract_x
_atom_site_fract_y
_atom_site_fract_z
Si Si1 0.000000 0.531047 0.097710
Si Si2 0.500000 0.020888 0.899053
Si Si3 0.755677 0.986267 0.320762
Si Si4 0.000000 0.101912 0.027428
Si Si5 0.000000 0.599576 0.523520
Si Si6 0.238083 0.677122 0.562642
Si Si7 0.841136 0.630620 0.694008
O O1 0.124707 0.534669 0.143310
O O2 0.000000 0.465697 0.060494
O O3 0.000000 0.589853 0.048014
O O4 0.624838 0.044978 0.859345
O O5 0.500000 0.943595 0.912063
O O6 0.500000 0.053001 0.965722
O O7 0.750000 0.959085 0.250000
O O8 0.780471 0.061482 0.320029
O O9 0.125407 0.141099 0.051051
O O10 0.870941 0.643527 0.519023
O O11 0.254855 0.750000 0.542011
O O12 0.185869 0.674873 0.634130
O O13 0.750000 0.659742 0.750000
O O14 0.000000 0.628852 0.711285
#
# Coordination Sequence:
#
# PCOD8301476 Si02
#       7
#     8   8  16   8   8  16  16
#     4  11  21  36  58  79 116 145 187 230 281 350
#     4  11  19  36  56  81 108 143 183 232 277 346
#     4  11  20  32  54  83 116 145 180 226 278 334
#     4  11  23  38  54  84 109 152 190 228 289 334
#     4  11  21  36  58  78 107 144 192 228 287 324
#     4  12  23  39  56  78 113 148 196 237 273 324
#     4  11  23  37  55  79 114 153 199 237 271 319
#
# _framework density 17.835867
#
# number of rings (size 3 to 8) (size 9 to 14) (size 15 to 20)
#    0.000    0.800    6.000    2.400    5.600    3.600 
#    0.000    0.000    0.000    0.000    0.000    0.000 
#    0.000   56.000    0.000    0.000    0.000    0.000 
#
# Total GULP energy -495951.242184 kJ/mol
# GULP energy per Si atom -12398.781055 kJ/mol
# Density = 1.779527 g / cm^3
# Si number density = 17.835867 Si / 1000 Ang^3
#
#
#
# Elastic Constant Matrix: (Units=GPa)
#
#
# Indices 1 2 3 4 5 6 
#
# 1 161.5245 26.0959 50.7812 0.0000 0.0000 0.0000
# 2 26.0959 52.9494 20.4998 0.0000 0.0000 0.0000
# 3 50.7812 20.4998 105.0613 0.0000 0.0000 0.0000
# 4 0.0000 0.0000 0.0000 16.8447 0.0000 0.0000
# 5 0.0000 0.0000 0.0000 0.0000 38.4230 0.0000
# 6 0.0000 0.0000 0.0000 0.0000 0.0000 141.7393
#
#
#
# Elastic Compliance Matrix: (Units=1/GPa)
#
#
# Indices 1 2 3 4 5 6 
#
# 1 0.007597 -0.002512 -0.003182 0.000000 0.000000 0.000000
# 2 -0.002512 0.021260 -0.002934 0.000000 0.000000 0.000000
# 3 -0.003182 -0.002934 0.011629 0.000000 0.000000 0.000000
# 4 0.000000 0.000000 0.000000 0.059366 0.000000 0.000000
# 5 0.000000 0.000000 0.000000 0.000000 0.026026 0.000000
# 6 0.000000 0.000000 0.000000 0.000000 0.000000 0.007055
#
#
# Mechanical properties :
#
#
# Convention : Reuss Voigt Hill
#
# Bulk Modulus (GPa) = 43.04862 57.14324 50.09593
# Shear Modulus (GPa) = 31.65902 54.21196 42.93549
#
# Velocity S-wave (km/s) = 4.21767 5.51914 4.91170
# Velocity P-wave (km/s) = 6.92147 8.52775 7.76625
#
# Compressibility (1/GPa) = 0.02322955
#
# Stress axis : x y z
#
# Youngs Moduli (GPa) = 131.62634 47.03651 85.99409
#
# Poissons Ratio (x) = 0.11817 0.27363
# Poissons Ratio (y) = 0.33070 0.25230
# Poissons Ratio (z) = 0.41882 0.13800
#
# Static dielectric constant tensor:
#      x y z
#    x 3.809150 0.000000 0.000000 
#    y 0.000000 2.981120 0.000000 
#    z 0.000000 0.000000 3.546990 
# 
# 
# High freq. dielectric constant tensor:
#      x y z
#    x 1.715040 0.000000 0.000000 
#    y 0.000000 1.645370 0.000000 
#    z 0.000000 0.000000 1.694850 
# 
# From -- ./inp_files/48667.got.cif
#   From: 2010.03.12/outbox.cif.g09.slc.cpg/sg74_25_cif.got.tgz:48667.got - 2010.04.16 15:46:19.
