data_PCOD8301987
_publ_section_title
;
Structure prediction by ZEFSAII (Michael W. Deem and Ramdas Pophale) SiO2 
 PCOD8301987
Probable space group: P 42
;
_chemical_formula_sum "Si O2"
_cell_formula_units_Z 26
_cell_length_a 9.070048
_cell_length_b 9.070048
_cell_length_c 16.425372
_cell_angle_alpha 90.000000
_cell_angle_beta 90.000000
_cell_angle_gamma 90.000000
_cell_volume 1351.245887
_symmetry_space_group_name_H-M "P 42"
_symmetry_group_IT_number 77
_symmetry_cell_setting 'tetragonal'
loop_
_space_group_symop_operation_xyz
x,y,z
-y,x,1/2+z
-x,-y,z
y,-x,1/2+z
loop_
_atom_site_type_symbol
_atom_site_label
_atom_site_fract_x
_atom_site_fract_y
_atom_site_fract_z
Si Si1 0.650043 0.418479 0.707240
Si Si2 0.468018 0.161054 0.052818
Si Si3 0.737699 0.799287 0.902436
Si Si4 0.847761 0.539598 0.301194
Si Si5 0.168366 0.505146 0.860909
Si Si6 0.000000 0.000000 0.927936
Si Si7 0.741161 0.200361 0.948816
O O1 0.500000 0.500000 0.687428
O O2 0.740744 0.406121 0.624849
O O3 0.616833 0.252829 0.734973
O O4 0.737292 0.501261 0.778378
O O5 0.500000 0.000000 0.088195
O O6 0.340223 0.143441 0.984840
O O7 0.623290 0.228073 0.020507
O O8 0.615107 0.782220 0.832381
O O9 0.795372 0.634512 0.917182
O O10 0.882421 0.898634 0.877474
O O11 0.884170 0.652461 0.376117
O O12 0.000000 0.500000 0.256762
O O13 0.205822 0.643771 0.916210
O O14 0.000000 0.500000 0.833443
O O15 0.887313 0.108030 0.977923
#
# Coordination Sequence:
#
# PCOD8301987 Si02
#       7
#     4   4   4   4   4   2   4
#     4  11  24  39  60  86 123 161 203 238 294 365
#     4  11  23  42  59  84 119 170 195 241 300 363
#     4  11  21  37  65  89 120 152 207 249 298 355
#     4  10  19  39  61  89 115 158 198 250 295 355
#     4  11  22  37  59  95 122 150 197 259 299 342
#     4  12  18  36  62  98 114 150 198 260 300 356
#     4  10  21  34  64  90 117 151 206 246 297 353
#
# _framework density 19.241502000000001
#
# number of rings (size 3 to 8) (size 9 to 14) (size 15 to 20)
#    0.000    1.231    6.154    1.385    2.154    0.000 
#    0.000    2.308    0.000    1.846    0.000    0.000 
#    0.000    0.000    0.000    0.000    0.000    0.000 
#
# Total GULP energy -322194.591699 kJ/mol
# GULP energy per Si atom -12392.099681 kJ/mol
# Density = 1.919771 g / cm^3
# Si number density = 19.241502 Si / 1000 Ang^3
#
#
#
# Elastic Constant Matrix: (Units=GPa)
#
#
# Indices 1 2 3 4 5 6 
#
# 1 133.2520 50.9746 44.2950 0.0000 0.0000 -0.4112
# 2 50.9746 133.2520 44.2950 0.0000 0.0000 0.4112
# 3 44.2950 44.2950 82.8412 0.0000 0.0000 0.0000
# 4 0.0000 0.0000 0.0000 18.2213 0.0000 0.0000
# 5 0.0000 0.0000 0.0000 0.0000 18.2213 0.0000
# 6 -0.4112 0.4112 0.0000 0.0000 0.0000 41.1311
#
#
#
# Elastic Compliance Matrix: (Units=1/GPa)
#
#
# Indices 1 2 3 4 5 6 
#
# 1 0.009731 -0.002424 -0.003907 0.000000 0.000000 0.000122
# 2 -0.002424 0.009731 -0.003907 0.000000 0.000000 -0.000122
# 3 -0.003907 -0.003907 0.016249 0.000000 0.000000 0.000000
# 4 0.000000 0.000000 0.000000 0.054881 0.000000 0.000000
# 5 0.000000 0.000000 0.000000 0.000000 0.054881 0.000000
# 6 0.000122 -0.000122 0.000000 0.000000 0.000000 0.024315
#
#
# Mechanical properties :
#
#
# Convention : Reuss Voigt Hill
#
# Bulk Modulus (GPa) = 65.63724 69.83047 67.73385
# Shear Modulus (GPa) = 25.59607 29.50013 27.54810
#
# Velocity S-wave (km/s) = 3.65122 3.91980 3.78789
# Velocity P-wave (km/s) = 7.20844 7.54034 7.37626
#
# Compressibility (1/GPa) = 0.01523525
#
# Stress axis : x y z
#
# Youngs Moduli (GPa) = 102.76398 102.76398 61.54083
#
# Poissons Ratio (x) = 0.24912 0.24044
# Poissons Ratio (y) = 0.24912 0.24044
# Poissons Ratio (z) = 0.40149 0.40149
#
# Static dielectric constant tensor:
#      x y z
#    x 3.858370 0.000000 0.000000 
#    y 0.000000 3.858370 0.000000 
#    z 0.000000 0.000000 3.013340 
# 
# 
# High freq. dielectric constant tensor:
#      x y z
#    x 1.771540 0.000000 0.000000 
#    y 0.000000 1.771540 0.000000 
#    z 0.000000 0.000000 1.690260 
# 
# From -- ./inp_files/1326.got.cif
#   From: 2010.03.12/outbox.cif.g09.slc.cpg/sg77_cif.got.tgz:1326.got - 2010.04.16 16:36:19.
