data_PCOD8301378
_publ_section_title
;
Structure prediction by ZEFSAII (Michael W. Deem and Ramdas Pophale) SiO2 
 PCOD8301378
Probable space group: I M M A
;
_chemical_formula_sum "Si O2"
_cell_formula_units_Z 52
_cell_length_a 13.424228
_cell_length_b 17.420885
_cell_length_c 10.995084
_cell_angle_alpha 90.000000
_cell_angle_beta 90.000000
_cell_angle_gamma 90.000000
_cell_volume 2571.331589
_symmetry_space_group_name_H-M "I M M A"
_symmetry_group_IT_number 74
_symmetry_cell_setting 'orthorhombic'
loop_
_space_group_symop_operation_xyz
x,y,z
-x,1/2-y,z
x,-y,-z
-x,1/2+y,-z
-x,-y,-z
x,1/2+y,-z
-x,y,z
x,1/2-y,z
1/2+x,1/2+y,1/2+z
1/2-x,-y,1/2+z
1/2+x,1/2-y,1/2-z
1/2-x,y,1/2-z
1/2-x,1/2-y,1/2-z
1/2+x,y,1/2-z
1/2-x,1/2+y,1/2+z
1/2+x,-y,1/2+z
loop_
_atom_site_type_symbol
_atom_site_label
_atom_site_fract_x
_atom_site_fract_y
_atom_site_fract_z
Si Si1 0.500000 0.086159 0.148642
Si Si2 0.500000 0.474866 0.639238
Si Si3 0.303828 0.885464 0.366420
Si Si4 0.888491 0.750000 0.986764
Si Si5 0.337171 0.000000 0.000000
Si Si6 0.500000 0.250000 0.251567
O O1 0.500000 0.177792 0.161440
O O2 0.500000 0.052961 0.284604
O O3 0.597349 0.059548 0.076597
O O4 0.500000 0.500000 0.500000
O O5 0.594109 0.424219 0.676360
O O6 0.250000 0.845948 0.250000
O O7 0.326334 0.824079 0.471635
O O8 0.231858 0.951937 0.411437
O O9 0.000000 0.750000 0.047034
O O10 0.901620 0.750000 0.839704
#
# Coordination Sequence:
#
# PCOD8301378 Si02
#       6
#     8   8  16   8   8   4
#     4  11  24  47  63 102 139 174 228 283 348 411
#     4  12  21  38  68  94 131 175 231 283 332 413
#     4  12  23  40  66  97 133 181 228 289 347 410
#     4  10  23  42  63 100 133 171 234 283 349 403
#     4  11  26  41  70 100 136 181 232 275 350 418
#     4  10  24  46  74  92 140 182 216 288 348 398
#
# _framework density 20.222985999999999
#
# number of rings (size 3 to 8) (size 9 to 14) (size 15 to 20)
#    0.462    0.308    6.154    2.308    0.000    1.231 
#    0.000    1.538    0.000    0.000    0.000    0.000 
#    0.000    0.000    0.000    0.000    0.000    0.000 
#
# Total GULP energy -322442.979318 kJ/mol
# GULP energy per Si atom -12401.653051 kJ/mol
# Density = 2.017696 g / cm^3
# Si number density = 20.222986 Si / 1000 Ang^3
#
#
#
# Elastic Constant Matrix: (Units=GPa)
#
#
# Indices 1 2 3 4 5 6 
#
# 1 133.0658 52.3441 42.2654 0.0000 0.0000 0.0000
# 2 52.3441 140.7801 40.7081 0.0000 0.0000 0.0000
# 3 42.2654 40.7081 94.5727 0.0000 0.0000 0.0000
# 4 0.0000 0.0000 0.0000 44.8390 0.0000 0.0000
# 5 0.0000 0.0000 0.0000 0.0000 21.9659 0.0000
# 6 0.0000 0.0000 0.0000 0.0000 0.0000 22.4373
#
#
#
# Elastic Compliance Matrix: (Units=1/GPa)
#
#
# Indices 1 2 3 4 5 6 
#
# 1 0.009550 -0.002646 -0.003129 0.000000 0.000000 0.000000
# 2 -0.002646 0.008846 -0.002625 0.000000 0.000000 0.000000
# 3 -0.003129 -0.002625 0.013102 0.000000 0.000000 0.000000
# 4 0.000000 0.000000 0.000000 0.022302 0.000000 0.000000
# 5 0.000000 0.000000 0.000000 0.000000 0.045525 0.000000
# 6 0.000000 0.000000 0.000000 0.000000 0.000000 0.044569
#
#
# Mechanical properties :
#
#
# Convention : Reuss Voigt Hill
#
# Bulk Modulus (GPa) = 68.03712 71.00598 69.52155
# Shear Modulus (GPa) = 30.19439 33.38851 31.79145
#
# Velocity S-wave (km/s) = 3.86822 4.06768 3.96920
# Velocity P-wave (km/s) = 7.32580 7.56631 7.44703
#
# Compressibility (1/GPa) = 0.01469786
#
# Stress axis : x y z
#
# Youngs Moduli (GPa) = 104.71467 113.04265 76.32276
#
# Poissons Ratio (x) = 0.29911 0.23881
# Poissons Ratio (y) = 0.27707 0.20037
# Poissons Ratio (z) = 0.32765 0.29677
#
# Static dielectric constant tensor:
#      x y z
#    x 3.860660 0.000000 0.000000 
#    y 0.000000 3.555400 0.000000 
#    z 0.000000 0.000000 3.108080 
# 
# 
# High freq. dielectric constant tensor:
#      x y z
#    x 1.798970 0.000000 0.000000 
#    y 0.000000 1.788410 0.000000 
#    z 0.000000 0.000000 1.786760 
# 
# From -- ./inp_files/19662.got.cif
#   From: 2010.03.12/outbox.cif.g09.slc.cpg/sg74_10_cif.got.tgz:19662.got - 2010.04.16 15:46:19.
