data_PCOD8301858
_publ_section_title
;
Structure prediction by ZEFSAII (Michael W. Deem and Ramdas Pophale) SiO2 
 PCOD8301858
Probable space group: P 41
;
_chemical_formula_sum "Si O2"
_cell_formula_units_Z 24
_cell_length_a 11.405566
_cell_length_b 11.405566
_cell_length_c 6.897077
_cell_angle_alpha 90.000000
_cell_angle_beta 90.000000
_cell_angle_gamma 90.000000
_cell_volume 897.219613
_symmetry_space_group_name_H-M "P 41"
_symmetry_group_IT_number 76
_symmetry_cell_setting 'tetragonal'
loop_
_space_group_symop_operation_xyz
x,y,z
-y,x,1/4+z
-x,-y,1/2+z
y,-x,3/4+z
loop_
_atom_site_type_symbol
_atom_site_label
_atom_site_fract_x
_atom_site_fract_y
_atom_site_fract_z
Si Si1 0.039282 0.856439 0.416470
Si Si2 0.396072 0.613978 0.744287
Si Si3 0.935678 0.751649 0.915974
Si Si4 0.388788 0.971184 0.551455
Si Si5 0.175027 0.510549 0.113828
Si Si6 0.800782 0.261945 0.399335
O O1 0.122121 0.888117 0.235252
O O2 0.910249 0.910385 0.365814
O O3 0.024383 0.716673 0.430289
O O4 0.478959 0.617978 0.557075
O O5 0.454492 0.697545 0.915064
O O6 0.268605 0.676723 0.716849
O O7 0.926385 0.657355 0.090735
O O8 0.067129 0.765965 0.835217
O O9 0.853381 0.726960 0.725945
O O10 0.450154 0.864754 0.661057
O O11 0.491529 0.071644 0.525052
O O12 0.197116 0.648262 0.078695
#
# Coordination Sequence:
#
# PCOD8301858 Si02
#       6
#     4   4   4   4   4   4
#     4  10  19  37  60  94 138 173 217 263 342 411
#     4  10  24  49  70  94 135 179 241 290 337 410
#     4  10  18  38  67 101 144 170 214 276 345 419
#     4  10  22  39  62 100 138 178 228 278 339 416
#     4  10  22  43  63  97 136 178 236 281 340 409
#     4  10  21  40  70 100 133 176 220 282 351 409
#
# _framework density 26.749303999999999
#
# number of rings (size 3 to 8) (size 9 to 14) (size 15 to 20)
#    0.000    2.000    5.000    0.000    4.667    1.333 
#   12.000    6.667    0.000    0.000    0.000    0.000 
#    0.000    0.000    0.000    0.000    0.000    0.000 
#
# Total GULP energy -297347.690363 kJ/mol
# GULP energy per Si atom -12389.487098 kJ/mol
# Density = 2.668842 g / cm^3
# Si number density = 26.749304 Si / 1000 Ang^3
#
#
#
# Elastic Constant Matrix: (Units=GPa)
#
#
# Indices 1 2 3 4 5 6 
#
# 1 108.7306 29.5699 23.0294 0.0000 0.0000 -15.7492
# 2 29.5699 108.7306 23.0294 0.0000 0.0000 15.7492
# 3 23.0294 23.0294 51.5219 0.0000 0.0000 0.0000
# 4 0.0000 0.0000 0.0000 19.9513 0.0000 0.0000
# 5 0.0000 0.0000 0.0000 0.0000 19.9513 0.0000
# 6 -15.7492 15.7492 0.0000 0.0000 0.0000 51.6420
#
#
#
# Elastic Compliance Matrix: (Units=1/GPa)
#
#
# Indices 1 2 3 4 5 6 
#
# 1 0.011436 -0.002941 -0.003797 0.000000 0.000000 0.004385
# 2 -0.002941 0.011436 -0.003797 0.000000 0.000000 -0.004385
# 3 -0.003797 -0.003797 0.022804 0.000000 0.000000 0.000000
# 4 0.000000 0.000000 0.000000 0.050122 0.000000 0.000000
# 5 0.000000 0.000000 0.000000 0.000000 0.050122 0.000000
# 6 0.004385 -0.004385 0.000000 0.000000 0.000000 0.022038
#
#
# Mechanical properties :
#
#
# Convention : Reuss Voigt Hill
#
# Bulk Modulus (GPa) = 40.64151 46.69339 43.66745
# Shear Modulus (GPa) = 25.35097 31.19923 28.27510
#
# Velocity S-wave (km/s) = 3.08185 3.41890 3.25474
# Velocity P-wave (km/s) = 5.28112 5.75144 5.52129
#
# Compressibility (1/GPa) = 0.02460538
#
# Stress axis : x y z
#
# Youngs Moduli (GPa) = 87.44158 87.44158 43.85237
#
# Poissons Ratio (x) = 0.25716 0.16652
# Poissons Ratio (y) = 0.25716 0.16652
# Poissons Ratio (z) = 0.33203 0.33203
#
# Static dielectric constant tensor:
#      x y z
#    x 5.192030 0.000000 0.000000 
#    y 0.000000 5.192030 0.000000 
#    z 0.000000 0.000000 4.039950 
# 
# 
# High freq. dielectric constant tensor:
#      x y z
#    x 2.094160 0.000000 0.000000 
#    y 0.000000 2.094160 0.000000 
#    z 0.000000 0.000000 2.019950 
# 
# From -- ./inp_files/564.got.cif
#   From: 2010.03.12/outbox.cif.g09.slc.cpg/sg76_cif.got.tgz:564.got - 2010.04.16 16:34:25.
