data_PCOD8301568
_publ_section_title
;
Structure prediction by ZEFSAII (Michael W. Deem and Ramdas Pophale) SiO2 
 PCOD8301568
Probable space group: I M M A
;
_chemical_formula_sum "Si O2"
_cell_formula_units_Z 96
_cell_length_a 20.542491
_cell_length_b 14.928111
_cell_length_c 17.194714
_cell_angle_alpha 90.000000
_cell_angle_beta 90.000000
_cell_angle_gamma 90.000000
_cell_volume 5272.941069
_symmetry_space_group_name_H-M "I M M A"
_symmetry_group_IT_number 74
_symmetry_cell_setting 'orthorhombic'
loop_
_space_group_symop_operation_xyz
x,y,z
-x,1/2-y,z
x,-y,-z
-x,1/2+y,-z
-x,-y,-z
x,1/2+y,-z
-x,y,z
x,1/2-y,z
1/2+x,1/2+y,1/2+z
1/2-x,-y,1/2+z
1/2+x,1/2-y,1/2-z
1/2-x,y,1/2-z
1/2-x,1/2-y,1/2-z
1/2+x,y,1/2-z
1/2-x,1/2+y,1/2+z
1/2+x,-y,1/2+z
loop_
_atom_site_type_symbol
_atom_site_label
_atom_site_fract_x
_atom_site_fract_y
_atom_site_fract_z
Si Si1 0.693240 0.147423 0.812538
Si Si2 0.922743 0.750000 0.920981
Si Si3 0.751383 0.506307 0.591152
Si Si4 0.423684 0.250000 0.593843
Si Si5 0.622871 0.076806 0.329360
Si Si6 0.190098 0.150273 0.309496
Si Si7 0.073062 0.600443 0.210669
O O1 0.685387 0.250000 0.840019
O O2 0.750000 0.137496 0.750000
O O3 0.624042 0.110889 0.780943
O O4 0.714637 0.086772 0.884932
O O5 0.896284 0.839990 0.882435
O O6 0.000000 0.750000 0.916715
O O7 0.892941 0.750000 0.007875
O O8 0.738782 0.500000 0.500000
O O9 0.684574 0.523758 0.636524
O O10 0.798555 0.588790 0.614849
O O11 0.500000 0.250000 0.581655
O O12 0.400685 0.336971 0.640910
O O13 0.630934 0.112278 0.241364
O O14 0.567873 0.000629 0.322470
O O15 0.175160 0.250000 0.340166
O O16 0.250000 0.150802 0.250000
O O17 0.000000 0.629571 0.237101
#
# Coordination Sequence:
#
# PCOD8301568 Si02
#       7
#    16   8  16   8  16  16  16
#     4  11  21  38  61  84 117 153 196 245 288 348
#     4  11  24  38  53  84 123 159 197 238 281 341
#     4  11  23  36  55  88 121 150 194 244 297 348
#     4   9  22  38  53  82 123 155 195 240 283 343
#     4  11  21  37  57  83 114 156 198 234 281 344
#     4   9  17  34  56  76 106 146 190 237 282 335
#     4  11  21  37  62  88 116 157 198 239 290 346
#
# _framework density 18.206159
#
# number of rings (size 3 to 8) (size 9 to 14) (size 15 to 20)
#    0.000    1.500    5.000    1.000    3.500    0.667 
#    0.000    2.500    0.000    0.500    0.000    0.000 
#    0.000    0.000    0.000    0.000    0.000    0.000 
#
# Total GULP energy -594981.130701 kJ/mol
# GULP energy per Si atom -12395.440223 kJ/mol
# Density = 1.816472 g / cm^3
# Si number density = 18.206159 Si / 1000 Ang^3
#
#
#
# Elastic Constant Matrix: (Units=GPa)
#
#
# Indices 1 2 3 4 5 6 
#
# 1 72.8282 27.0720 18.0513 0.0000 0.0000 0.0000
# 2 27.0720 149.8052 25.8769 0.0000 0.0000 0.0000
# 3 18.0513 25.8769 48.8700 0.0000 0.0000 0.0000
# 4 0.0000 0.0000 0.0000 31.6731 0.0000 0.0000
# 5 0.0000 0.0000 0.0000 0.0000 17.8568 0.0000
# 6 0.0000 0.0000 0.0000 0.0000 0.0000 21.2807
#
#
#
# Elastic Compliance Matrix: (Units=1/GPa)
#
#
# Indices 1 2 3 4 5 6 
#
# 1 0.015648 -0.002014 -0.004714 0.000000 0.000000 0.000000
# 2 -0.002014 0.007606 -0.003284 0.000000 0.000000 0.000000
# 3 -0.004714 -0.003284 0.023942 0.000000 0.000000 0.000000
# 4 0.000000 0.000000 0.000000 0.031573 0.000000 0.000000
# 5 0.000000 0.000000 0.000000 0.000000 0.056001 0.000000
# 6 0.000000 0.000000 0.000000 0.000000 0.000000 0.046991
#
#
# Mechanical properties :
#
#
# Convention : Reuss Voigt Hill
#
# Bulk Modulus (GPa) = 36.79941 45.94487 41.37214
# Shear Modulus (GPa) = 23.71446 27.52898 25.62172
#
# Velocity S-wave (km/s) = 3.61300 3.89275 3.75548
# Velocity P-wave (km/s) = 6.13690 6.74503 6.44814
#
# Compressibility (1/GPa) = 0.02717435
#
# Stress axis : x y z
#
# Youngs Moduli (GPa) = 63.90688 131.46700 41.76684
#
# Poissons Ratio (x) = 0.26472 0.19688
# Poissons Ratio (y) = 0.12868 0.13716
# Poissons Ratio (z) = 0.30124 0.43173
#
# Static dielectric constant tensor:
#      x y z
#    x 3.269350 0.000000 0.000000 
#    y 0.000000 3.831150 0.000000 
#    z 0.000000 0.000000 3.170010 
# 
# 
# High freq. dielectric constant tensor:
#      x y z
#    x 1.685290 0.000000 0.000000 
#    y 0.000000 1.734430 0.000000 
#    z 0.000000 0.000000 1.672950 
# 
# From -- ./inp_files/32467.got.cif
#   From: 2010.03.12/outbox.cif.g09.slc.cpg/sg74_17_cif.got.tgz:32467.got - 2010.04.16 15:46:19.
