data_PCOD8301101
_publ_section_title
;
Structure prediction by ZEFSAII (Michael W. Deem and Ramdas Pophale) SiO2 
 PCOD8301101
Probable space group: I M M A
;
_chemical_formula_sum "Si O2"
_cell_formula_units_Z 96
_cell_length_a 23.138202
_cell_length_b 13.656443
_cell_length_c 14.665064
_cell_angle_alpha 90.000000
_cell_angle_beta 90.000000
_cell_angle_gamma 90.000000
_cell_volume 4633.948119
_symmetry_space_group_name_H-M "I M M A"
_symmetry_group_IT_number 74
_symmetry_cell_setting 'orthorhombic'
loop_
_space_group_symop_operation_xyz
x,y,z
-x,1/2-y,z
x,-y,-z
-x,1/2+y,-z
-x,-y,-z
x,1/2+y,-z
-x,y,z
x,1/2-y,z
1/2+x,1/2+y,1/2+z
1/2-x,-y,1/2+z
1/2+x,1/2-y,1/2-z
1/2-x,y,1/2-z
1/2-x,1/2-y,1/2-z
1/2+x,y,1/2-z
1/2-x,1/2+y,1/2+z
1/2+x,-y,1/2+z
loop_
_atom_site_type_symbol
_atom_site_label
_atom_site_fract_x
_atom_site_fract_y
_atom_site_fract_z
Si Si1 0.811192 0.966790 0.795017
Si Si2 0.500000 0.487349 0.107762
Si Si3 0.879361 0.359996 0.849517
Si Si4 0.803898 0.859737 0.983660
Si Si5 0.873495 0.941030 0.627508
Si Si6 0.000000 0.135458 0.768741
Si Si7 0.178673 0.137509 0.548980
O O1 0.750000 0.965650 0.750000
O O2 0.834770 0.076930 0.791346
O O3 0.811833 0.929761 0.897970
O O4 0.851916 0.904688 0.726685
O O5 0.442304 0.427570 0.130319
O O6 0.500000 0.585860 0.168943
O O7 0.500000 0.500000 0.000000
O O8 0.871116 0.250000 0.814724
O O9 0.944787 0.395833 0.830166
O O10 0.862204 0.369015 0.956385
O O11 0.795443 0.750000 0.946614
O O12 0.747372 0.888124 0.044178
O O13 0.846530 0.869204 0.553013
O O14 0.854045 0.055450 0.609619
O O15 0.000000 0.250000 0.748580
O O16 0.168757 0.250000 0.584311
#
# Coordination Sequence:
#
# PCOD8301101 Si02
#       7
#    16   8  16  16  16   8  16
#     4  12  22  35  62  88 125 159 196 249 309 366
#     4  12  22  42  59  83 130 159 195 251 293 359
#     4  10  22  40  62  91 122 157 206 255 304 365
#     4  10  22  39  61  89 122 160 203 252 304 364
#     4  11  23  38  57  91 120 157 203 250 297 360
#     4  10  22  42  66  90 119 161 207 250 306 366
#     4  10  21  39  61  87 121 159 203 248 305 365
#
# _framework density 20.716676
#
# number of rings (size 3 to 8) (size 9 to 14) (size 15 to 20)
#    0.000    1.333    5.000    1.500    2.333    2.667 
#    0.000    2.917    0.000    0.000    0.000    0.000 
#    0.000    0.000    0.000    0.000    0.000    0.000 
#
# Total GULP energy -594874.105715 kJ/mol
# GULP energy per Si atom -12393.210536 kJ/mol
# Density = 2.066952 g / cm^3
# Si number density = 20.716676 Si / 1000 Ang^3
#
#
#
# Elastic Constant Matrix: (Units=GPa)
#
#
# Indices 1 2 3 4 5 6 
#
# 1 145.1526 19.8499 50.8786 0.0000 0.0000 0.0000
# 2 19.8499 60.3940 6.1077 0.0000 0.0000 0.0000
# 3 50.8786 6.1077 86.6347 0.0000 0.0000 0.0000
# 4 0.0000 0.0000 0.0000 19.9742 0.0000 0.0000
# 5 0.0000 0.0000 0.0000 0.0000 70.6551 0.0000
# 6 0.0000 0.0000 0.0000 0.0000 0.0000 14.1256
#
#
#
# Elastic Compliance Matrix: (Units=1/GPa)
#
#
# Indices 1 2 3 4 5 6 
#
# 1 0.009020 -0.002446 -0.005125 0.000000 0.000000 0.000000
# 2 -0.002446 0.017340 0.000214 0.000000 0.000000 0.000000
# 3 -0.005125 0.000214 0.014537 0.000000 0.000000 0.000000
# 4 0.000000 0.000000 0.000000 0.050065 0.000000 0.000000
# 5 0.000000 0.000000 0.000000 0.000000 0.014153 0.000000
# 6 0.000000 0.000000 0.000000 0.000000 0.000000 0.070793
#
#
# Mechanical properties :
#
#
# Convention : Reuss Voigt Hill
#
# Bulk Modulus (GPa) = 38.19161 49.53930 43.86546
# Shear Modulus (GPa) = 25.08135 35.30731 30.19433
#
# Velocity S-wave (km/s) = 3.48326 4.13279 3.82185
# Velocity P-wave (km/s) = 5.88666 6.83651 6.37929
#
# Compressibility (1/GPa) = 0.02618376
#
# Stress axis : x y z
#
# Youngs Moduli (GPa) = 110.86195 57.66902 68.78831
#
# Poissons Ratio (x) = 0.14108 0.35253
# Poissons Ratio (y) = 0.27122 -0.01474
# Poissons Ratio (z) = 0.56816 -0.01236
#
# Static dielectric constant tensor:
#      x y z
#    x 4.044520 0.000000 0.000000 
#    y 0.000000 3.690110 0.000000 
#    z 0.000000 0.000000 3.622180 
# 
# 
# High freq. dielectric constant tensor:
#      x y z
#    x 1.815950 0.000000 0.000000 
#    y 0.000000 1.792970 0.000000 
#    z 0.000000 0.000000 1.812080 
# 
# From -- ./inp_files/36427.got.cif
#   From: 2010.03.12/outbox.cif.g09.slc.cpg/sg74_19_cif.got.tgz:36427.got - 2010.04.16 15:46:19.
