data_PCOD8301261
_publ_section_title
;
Structure prediction by ZEFSAII (Michael W. Deem and Ramdas Pophale) SiO2 
 PCOD8301261
Probable space group: I M M A
;
_chemical_formula_sum "Si O2"
_cell_formula_units_Z 72
_cell_length_a 16.968463
_cell_length_b 8.283033
_cell_length_c 26.983641
_cell_angle_alpha 90.000000
_cell_angle_beta 90.000000
_cell_angle_gamma 90.000000
_cell_volume 3792.559890
_symmetry_space_group_name_H-M "I M M A"
_symmetry_group_IT_number 74
_symmetry_cell_setting 'orthorhombic'
loop_
_space_group_symop_operation_xyz
x,y,z
-x,1/2-y,z
x,-y,-z
-x,1/2+y,-z
-x,-y,-z
x,1/2+y,-z
-x,y,z
x,1/2-y,z
1/2+x,1/2+y,1/2+z
1/2-x,-y,1/2+z
1/2+x,1/2-y,1/2-z
1/2-x,y,1/2-z
1/2-x,1/2-y,1/2-z
1/2+x,y,1/2-z
1/2-x,1/2+y,1/2+z
1/2+x,-y,1/2+z
loop_
_atom_site_type_symbol
_atom_site_label
_atom_site_fract_x
_atom_site_fract_y
_atom_site_fract_z
Si Si1 0.592648 0.250000 0.719282
Si Si2 0.000000 0.569951 0.446276
Si Si3 0.406983 0.565328 0.779421
Si Si4 0.092953 0.250000 0.894595
Si Si5 0.857900 0.067823 0.388200
Si Si6 0.281948 0.072180 0.554140
O O1 0.500000 0.250000 0.723832
O O2 0.622765 0.419967 0.743415
O O3 0.619024 0.250000 0.662543
O O4 0.000000 0.500000 0.500000
O O5 0.922118 0.537819 0.415283
O O6 0.000000 0.750000 0.460823
O O7 0.500000 0.550196 0.790156
O O8 0.389235 0.750000 0.759362
O O9 0.358622 0.533259 0.829652
O O10 0.131410 0.090667 0.920342
O O11 0.000000 0.250000 0.902629
O O12 0.882447 0.250000 0.398693
O O13 0.771483 0.036293 0.410244
O O14 0.242541 0.250000 0.549284
O O15 0.292381 0.000000 0.500000
#
# Coordination Sequence:
#
# PCOD8301261 Si02
#       6
#     8   8  16   8  16  16
#     4   9  18  35  63  89 122 157 203 260 322 365
#     4  12  24  34  52  80 122 170 222 258 284 341
#     4   9  18  32  55  88 125 168 212 250 291 354
#     4   9  22  43  67  92 114 149 202 263 324 399
#     4  11  21  36  56  84 126 166 212 248 294 353
#     4  10  22  39  61  85 117 155 196 249 320 369
#
# _framework density 18.984538000000001
#
# number of rings (size 3 to 8) (size 9 to 14) (size 15 to 20)
#    0.667    1.333    1.111    3.000    3.111    0.444 
#    0.000    4.444    0.000    5.333    0.000    0.000 
#    0.000    0.000    0.000    0.000    0.000    0.000 
#
# Total GULP energy -446046.088681 kJ/mol
# GULP energy per Si atom -12390.169130 kJ/mol
# Density = 1.894133 g / cm^3
# Si number density = 18.984538 Si / 1000 Ang^3
#
#
#
# Elastic Constant Matrix: (Units=GPa)
#
#
# Indices 1 2 3 4 5 6 
#
# 1 85.4076 15.5464 43.3766 0.0000 0.0000 0.0000
# 2 15.5464 113.2571 55.1274 0.0000 0.0000 0.0000
# 3 43.3766 55.1274 119.6559 0.0000 0.0000 0.0000
# 4 0.0000 0.0000 0.0000 32.4915 0.0000 0.0000
# 5 0.0000 0.0000 0.0000 0.0000 -3.1454 0.0000
# 6 0.0000 0.0000 0.0000 0.0000 0.0000 9.2384
#
#
#
# Elastic Compliance Matrix: (Units=1/GPa)
#
#
# Indices 1 2 3 4 5 6 
#
# 1 0.014397 0.000727 -0.005554 0.000000 0.000000 0.000000
# 2 0.000727 0.011419 -0.005524 0.000000 0.000000 0.000000
# 3 -0.005554 -0.005524 0.012916 0.000000 0.000000 0.000000
# 4 0.000000 0.000000 0.000000 0.030777 0.000000 0.000000
# 5 0.000000 0.000000 0.000000 0.000000 -0.317924 0.000000
# 6 0.000000 0.000000 0.000000 0.000000 0.000000 0.108244
#
#
# Mechanical properties :
#
#
# Convention : Reuss Voigt Hill
#
# Bulk Modulus (GPa) = 55.46627 60.71349 58.08988
# Shear Modulus (GPa) = -44.06847 21.33492 -11.36677
#
# Velocity S-wave (km/s) = -4.82320 3.35596 -2.44957
# Velocity P-wave (km/s) = 1.31820 6.86050 4.76072
#
# Compressibility (1/GPa) = 0.01802898
#
# Stress axis : x y z
#
# Youngs Moduli (GPa) = 69.45891 87.57641 77.42408
#
# Poissons Ratio (x) = -0.06369 0.43002
# Poissons Ratio (y) = -0.05051 0.42772
# Poissons Ratio (z) = 0.38578 0.48380
#
# Static dielectric constant tensor:
#      x y z
#    x 3.144340 0.000000 0.000000 
#    y 0.000000 3.699430 0.000000 
#    z 0.000000 0.000000 3.182220 
# 
# 
# High freq. dielectric constant tensor:
#      x y z
#    x 1.710880 0.000000 0.000000 
#    y 0.000000 1.747050 0.000000 
#    z 0.000000 0.000000 1.741050 
# 
# From -- ./inp_files/61308.got.cif
#   From: 2010.03.12/outbox.cif.g09.slc.cpg/sg74_31_cif.got.tgz:61308.got - 2010.04.16 15:46:19.
