data_PCOD8301546
_publ_section_title
;
Structure prediction by ZEFSAII (Michael W. Deem and Ramdas Pophale) SiO2 
 PCOD8301546
Probable space group: I M M A
;
_chemical_formula_sum "Si O2"
_cell_formula_units_Z 72
_cell_length_a 28.787925
_cell_length_b 8.667462
_cell_length_c 14.028499
_cell_angle_alpha 90.000000
_cell_angle_beta 90.000000
_cell_angle_gamma 90.000000
_cell_volume 3500.366464
_symmetry_space_group_name_H-M "I M M A"
_symmetry_group_IT_number 74
_symmetry_cell_setting 'orthorhombic'
loop_
_space_group_symop_operation_xyz
x,y,z
-x,1/2-y,z
x,-y,-z
-x,1/2+y,-z
-x,-y,-z
x,1/2+y,-z
-x,y,z
x,1/2-y,z
1/2+x,1/2+y,1/2+z
1/2-x,-y,1/2+z
1/2+x,1/2-y,1/2-z
1/2-x,y,1/2-z
1/2-x,1/2-y,1/2-z
1/2+x,y,1/2-z
1/2-x,1/2+y,1/2+z
1/2+x,-y,1/2+z
loop_
_atom_site_type_symbol
_atom_site_label
_atom_site_fract_x
_atom_site_fract_y
_atom_site_fract_z
Si Si1 0.770161 0.067134 0.895659
Si Si2 0.821688 0.567173 0.605378
Si Si3 0.500000 0.067738 0.105194
Si Si4 0.127723 0.572305 0.099250
Si Si5 0.410757 0.430404 0.795886
O O1 0.764460 0.250000 0.891452
O O2 0.821618 0.011629 0.863228
O O3 0.725629 0.993473 0.840607
O O4 0.762987 0.000000 0.000000
O O5 0.827158 0.500000 0.500000
O O6 0.821653 0.750000 0.601340
O O7 0.864995 0.507915 0.664530
O O8 0.500000 0.250000 0.097361
O O9 0.544663 0.012858 0.162318
O O10 0.500000 0.000000 0.000000
O O11 0.134427 0.750000 0.075946
O O12 0.089622 0.543689 0.181226
O O13 0.110738 0.500000 0.000000
O O14 0.411777 0.250000 0.821990
#
# Coordination Sequence:
#
# PCOD8301546 Si02
#       5
#    16  16   8  16  16
#     4   9  16  30  51  79 114 155 195 236 284 338
#     4  11  21  34  53  82 117 156 197 243 290 343
#     4  12  26  46  69  94 119 148 183 232 290 348
#     4   9  20  37  60  86 118 156 196 239 286 335
#     4  11  23  41  62  87 116 152 193 238 290 348
#
# _framework density 20.569272999999999
#
# number of rings (size 3 to 8) (size 9 to 14) (size 15 to 20)
#    0.000    1.778    0.000    6.333    0.000    3.556 
#    0.000    5.000    0.000    0.000    0.000    0.000 
#    0.000    0.000    0.000    0.000    0.000    0.000 
#
# Total GULP energy -446153.133603 kJ/mol
# GULP energy per Si atom -12393.142600 kJ/mol
# Density = 2.052246 g / cm^3
# Si number density = 20.569273 Si / 1000 Ang^3
#
#
#
# Elastic Constant Matrix: (Units=GPa)
#
#
# Indices 1 2 3 4 5 6 
#
# 1 116.6200 52.8809 62.0494 0.0000 0.0000 0.0000
# 2 52.8809 145.1727 52.5577 0.0000 0.0000 0.0000
# 3 62.0494 52.5577 90.8442 0.0000 0.0000 0.0000
# 4 0.0000 0.0000 0.0000 28.3737 0.0000 0.0000
# 5 0.0000 0.0000 0.0000 0.0000 32.7879 0.0000
# 6 0.0000 0.0000 0.0000 0.0000 0.0000 34.2292
#
#
#
# Elastic Compliance Matrix: (Units=1/GPa)
#
#
# Indices 1 2 3 4 5 6 
#
# 1 0.013942 -0.002063 -0.008329 0.000000 0.000000 0.000000
# 2 -0.002063 0.009019 -0.003809 0.000000 0.000000 0.000000
# 3 -0.008329 -0.003809 0.018900 0.000000 0.000000 0.000000
# 4 0.000000 0.000000 0.000000 0.035244 0.000000 0.000000
# 5 0.000000 0.000000 0.000000 0.000000 0.030499 0.000000
# 6 0.000000 0.000000 0.000000 0.000000 0.000000 0.029215
#
#
# Mechanical properties :
#
#
# Convention : Reuss Voigt Hill
#
# Bulk Modulus (GPa) = 74.29790 76.40141 75.34965
# Shear Modulus (GPa) = 29.46251 31.42144 30.44197
#
# Velocity S-wave (km/s) = 3.78875 3.91268 3.85122
# Velocity P-wave (km/s) = 7.43900 7.59185 7.51582
#
# Compressibility (1/GPa) = 0.01345933
#
# Stress axis : x y z
#
# Youngs Moduli (GPa) = 71.72548 110.88076 52.90881
#
# Poissons Ratio (x) = 0.22875 0.44069
# Poissons Ratio (y) = 0.14797 0.20151
# Poissons Ratio (z) = 0.59742 0.42230
#
# Static dielectric constant tensor:
#      x y z
#    x 3.991260 0.000000 0.000000 
#    y 0.000000 3.833870 0.000000 
#    z 0.000000 0.000000 3.706290 
# 
# 
# High freq. dielectric constant tensor:
#      x y z
#    x 1.804240 0.000000 0.000000 
#    y 0.000000 1.811780 0.000000 
#    z 0.000000 0.000000 1.800380 
# 
# From -- ./inp_files/37036.got.cif
#   From: 2010.03.12/outbox.cif.g09.slc.cpg/sg74_19_cif.got.tgz:37036.got - 2010.04.16 15:46:19.
