data_PCOD8302160
_publ_section_title
;
Structure prediction by ZEFSAII (Michael W. Deem and Ramdas Pophale) SiO2 
 PCOD8302160
Probable space group: I 41
;
_chemical_formula_sum "Si O2"
_cell_formula_units_Z 44
_cell_length_a 14.339104
_cell_length_b 14.339104
_cell_length_c 11.440216
_cell_angle_alpha 90.000000
_cell_angle_beta 90.000000
_cell_angle_gamma 90.000000
_cell_volume 2352.221708
_symmetry_space_group_name_H-M "I 41"
_symmetry_group_IT_number 80
_symmetry_cell_setting 'tetragonal'
loop_
_space_group_symop_operation_xyz
x,y,z
-y,1/2+x,1/4+z
-x,-y,z
y,1/2-x,1/4+z
1/2+x,1/2+y,1/2+z
1/2-y,x,3/4+z
1/2-x,1/2-y,1/2+z
1/2+y,-x,3/4+z
loop_
_atom_site_type_symbol
_atom_site_label
_atom_site_fract_x
_atom_site_fract_y
_atom_site_fract_z
Si Si1 0.865699 0.110721 0.625000
Si Si2 0.645957 0.173788 0.121829
Si Si3 0.590094 0.154177 0.870940
Si Si4 0.566046 0.860876 0.692118
Si Si5 0.000000 0.500000 0.007746
Si Si6 0.007956 0.219462 0.021814
O O1 0.873091 0.099153 0.484689
O O2 0.840231 0.217283 0.652671
O O3 0.789908 0.039783 0.679602
O O4 0.968979 0.086628 0.675100
O O5 0.747128 0.134778 0.085487
O O6 0.579227 0.152787 0.011560
O O7 0.487583 0.141441 0.815836
O O8 0.652274 0.071427 0.820692
O O9 0.509905 0.912763 0.591299
O O10 0.565466 0.758910 0.633669
O O11 0.665265 0.910584 0.702865
#
# Coordination Sequence:
#
# PCOD8302160 Si02
#       6
#     8   8   8   8   4   8
#     4  10  21  35  58  87 121 147 193 237 293 351
#     4  10  21  34  57  89 124 148 184 242 306 335
#     4  11  19  35  56  90 117 149 187 244 296 341
#     4  11  22  36  62  84 113 152 198 242 289 343
#     4  10  20  36  56  88 114 152 190 236 288 346
#     4  11  21  37  61  84 115 153 198 240 284 347
#
# _framework density 18.705719999999999
#
# number of rings (size 3 to 8) (size 9 to 14) (size 15 to 20)
#    0.000    1.455    3.636    3.273    2.545    0.000 
#    3.273    0.000   20.000    0.000    0.000    0.000 
#    0.000    0.000    0.000    0.000    0.000    0.000 
#
# Total GULP energy -272578.011691 kJ/mol
# GULP energy per Si atom -12389.909622 kJ/mol
# Density = 1.866315 g / cm^3
# Si number density = 18.705720 Si / 1000 Ang^3
#
#
#
# Elastic Constant Matrix: (Units=GPa)
#
#
# Indices 1 2 3 4 5 6 
#
# 1 44.8073 39.7624 26.7343 0.0000 0.0000 4.0587
# 2 39.7624 44.8073 26.7343 0.0000 0.0000 -4.0587
# 3 26.7343 26.7343 120.3132 0.0000 0.0000 0.0000
# 4 0.0000 0.0000 0.0000 33.3429 0.0000 0.0000
# 5 0.0000 0.0000 0.0000 0.0000 33.3429 0.0000
# 6 4.0587 -4.0587 0.0000 0.0000 0.0000 34.7628
#
#
#
# Elastic Compliance Matrix: (Units=1/GPa)
#
#
# Indices 1 2 3 4 5 6 
#
# 1 0.128915 -0.115158 -0.003057 0.000000 0.000000 -0.028496
# 2 -0.115158 0.128915 -0.003057 0.000000 0.000000 0.028496
# 3 -0.003057 -0.003057 0.009670 0.000000 0.000000 0.000000
# 4 0.000000 0.000000 0.000000 0.029991 0.000000 0.000000
# 5 0.000000 0.000000 0.000000 0.000000 0.029991 0.000000
# 6 -0.028496 0.028496 0.000000 0.000000 0.000000 0.035420
#
#
# Mechanical properties :
#
#
# Convention : Reuss Voigt Hill
#
# Bulk Modulus (GPa) = 40.06896 44.04331 42.05613
# Shear Modulus (GPa) = 8.14643 28.06952 18.10797
#
# Velocity S-wave (km/s) = 2.08914 3.87794 3.11472
# Velocity P-wave (km/s) = 5.22365 6.60664 5.95543
#
# Compressibility (1/GPa) = 0.02495698
#
# Stress axis : x y z
#
# Youngs Moduli (GPa) = 7.75705 7.75705 103.41056
#
# Poissons Ratio (x) = 0.89328 0.31612
# Poissons Ratio (y) = 0.89328 0.31612
# Poissons Ratio (z) = 0.02371 0.02371
#
# Static dielectric constant tensor:
#      x y z
#    x 3.801630 0.000000 0.000000 
#    y 0.000000 3.801630 0.000000 
#    z 0.000000 0.000000 3.689290 
# 
# 
# High freq. dielectric constant tensor:
#      x y z
#    x 1.708120 0.000000 0.000000 
#    y 0.000000 1.708120 0.000000 
#    z 0.000000 0.000000 1.745220 
# 
# From -- ./inp_files/994.got.cif
#   From: 2010.03.12/outbox.cif.g09.slc.cpg/sg80_cif.got.tgz:994.got - 2010.04.08 20:00:04.
