data_PCOD8302739
_publ_section_title
;
Structure prediction by ZEFSAII (Michael W. Deem and Ramdas Pophale) SiO2 
 PCOD8302739
Probable space group: P 4/M
;
_chemical_formula_sum "Si O2"
_cell_formula_units_Z 40
_cell_length_a 15.431882
_cell_length_b 15.431882
_cell_length_c 8.271658
_cell_angle_alpha 90.000000
_cell_angle_beta 90.000000
_cell_angle_gamma 90.000000
_cell_volume 1969.837303
_symmetry_space_group_name_H-M "P 4/M"
_symmetry_group_IT_number 83
_symmetry_cell_setting 'tetragonal'
loop_
_space_group_symop_operation_xyz
x,y,z
-y,x,z
-x,-y,z
y,-x,z
-x,-y,-z
y,-x,-z
x,y,-z
-y,x,-z
loop_
_atom_site_type_symbol
_atom_site_label
_atom_site_fract_x
_atom_site_fract_y
_atom_site_fract_z
Si Si1 0.832330 0.187841 0.186308
Si Si2 0.335668 0.297874 0.692121
Si Si3 0.985569 0.758977 0.688094
Si Si4 0.934889 0.570807 0.307390
Si Si5 0.252755 0.474159 0.307957
O O1 0.771739 0.267458 0.240910
O O2 0.815322 0.100634 0.287147
O O3 0.933258 0.207725 0.210604
O O4 0.813989 0.168789 0.000000
O O5 0.331606 0.289438 0.500000
O O6 0.315265 0.396130 0.748251
O O7 0.432149 0.280513 0.760989
O O8 0.010957 0.758779 0.500000
O O9 0.965229 0.663573 0.755032
O O10 0.932294 0.569589 0.500000
O O11 0.840998 0.548859 0.236643
O O12 0.000000 0.500000 0.236964
O O13 0.250949 0.479590 0.500000
#
# Coordination Sequence:
#
# PCOD8302739 Si02
#       5
#     8   8   8   8   8
#     4  12  25  41  60  89 128 161 198 250 309 364
#     4  10  19  36  60  87 121 162 208 255 306 362
#     4  11  22  40  66  89 117 159 207 249 300 363
#     4   9  16  29  54  88 117 145 192 253 305 348
#     4   9  17  30  55  89 120 154 203 260 307 352
#
# _framework density 20.306248
#
# number of rings (size 3 to 8) (size 9 to 14) (size 15 to 20)
#    0.000    1.800    2.000    3.600    0.000    4.000 
#    0.000    5.000    0.000    2.400    0.000    1.400 
#    0.000    0.000    0.000    0.000    0.000    0.000 
#
# Total GULP energy -495973.607320 kJ/mol
# GULP energy per Si atom -12399.340183 kJ/mol
# Density = 2.026003 g / cm^3
# Si number density = 20.306248 Si / 1000 Ang^3
#
#
#
# Elastic Constant Matrix: (Units=GPa)
#
#
# Indices 1 2 3 4 5 6 
#
# 1 160.8172 66.3306 5.7317 0.0000 0.0000 0.5253
# 2 66.3306 160.8172 5.7317 0.0000 0.0000 -0.5253
# 3 5.7317 5.7317 35.4838 0.0000 0.0000 0.0000
# 4 0.0000 0.0000 0.0000 9.4550 0.0000 0.0000
# 5 0.0000 0.0000 0.0000 0.0000 9.4550 0.0000
# 6 0.5253 -0.5253 0.0000 0.0000 0.0000 44.5318
#
#
#
# Elastic Compliance Matrix: (Units=1/GPa)
#
#
# Indices 1 2 3 4 5 6 
#
# 1 0.007512 -0.003073 -0.000717 0.000000 0.000000 -0.000125
# 2 -0.003073 0.007512 -0.000717 0.000000 0.000000 0.000125
# 3 -0.000717 -0.000717 0.028414 0.000000 0.000000 0.000000
# 4 0.000000 0.000000 0.000000 0.105765 0.000000 0.000000
# 5 0.000000 0.000000 0.000000 0.000000 0.105765 0.000000
# 6 -0.000125 0.000125 0.000000 0.000000 0.000000 0.022459
#
#
# Mechanical properties :
#
#
# Convention : Reuss Voigt Hill
#
# Bulk Modulus (GPa) = 29.05046 56.96734 43.00890
# Shear Modulus (GPa) = 16.78340 31.30996 24.04668
#
# Velocity S-wave (km/s) = 2.87803 3.93095 3.44496
# Velocity P-wave (km/s) = 5.03799 6.97984 6.08685
#
# Compressibility (1/GPa) = 0.03442287
#
# Stress axis : x y z
#
# Youngs Moduli (GPa) = 133.12475 133.12475 35.19452
#
# Poissons Ratio (x) = 0.40911 0.02523
# Poissons Ratio (y) = 0.40911 0.02523
# Poissons Ratio (z) = 0.09545 0.09545
#
# Static dielectric constant tensor:
#      x y z
#    x 3.894390 0.000000 0.000000 
#    y 0.000000 3.894390 0.000000 
#    z 0.000000 0.000000 3.200540 
# 
# 
# High freq. dielectric constant tensor:
#      x y z
#    x 1.806770 0.000000 0.000000 
#    y 0.000000 1.806770 0.000000 
#    z 0.000000 0.000000 1.751390 
# 
# From -- ./inp_files/644.got.cif
#   From: 2010.03.12/outbox.cif.g09.slc.cpg/sg83_1_cif.got.tgz:644.got - 2010.04.08 20:05:18.
