data_PCOD8302282
_publ_section_title
;
Structure prediction by ZEFSAII (Michael W. Deem and Ramdas Pophale) SiO2 
 PCOD8302282
Probable space group: P -4
;
_chemical_formula_sum "Si O2"
_cell_formula_units_Z 26
_cell_length_a 11.020083
_cell_length_b 11.020083
_cell_length_c 9.471696
_cell_angle_alpha 90.000000
_cell_angle_beta 90.000000
_cell_angle_gamma 90.000000
_cell_volume 1150.263878
_symmetry_space_group_name_H-M "P -4"
_symmetry_group_IT_number 81
_symmetry_cell_setting 'tetragonal'
loop_
_space_group_symop_operation_xyz
x,y,z
y,-x,-z
-x,-y,z
-y,x,-z
loop_
_atom_site_type_symbol
_atom_site_label
_atom_site_fract_x
_atom_site_fract_y
_atom_site_fract_z
Si Si1 0.722660 0.481762 0.825540
Si Si2 0.807267 0.066169 0.791083
Si Si3 0.949154 0.627491 0.446855
Si Si4 0.927827 0.307302 0.739945
Si Si5 0.084545 0.395908 0.999960
Si Si6 0.681910 0.573262 0.536307
Si Si7 0.500000 0.500000 0.000000
Si Si8 0.000000 0.000000 0.000000
O O1 0.798618 0.372472 0.757563
O O2 0.698227 0.581842 0.704551
O O3 0.598116 0.436515 0.896652
O O4 0.791064 0.546952 0.951562
O O5 0.738841 0.007554 0.655476
O O6 0.903805 0.164180 0.735690
O O7 0.700817 0.124202 0.884010
O O8 0.883012 0.976935 0.896651
O O9 0.802295 0.621870 0.456633
O O10 0.000000 0.500000 0.387510
O O11 0.007660 0.649093 0.598737
O O12 0.015283 0.336814 0.868518
O O13 0.000000 0.500000 0.068960
O O14 0.657624 0.431277 0.503186
#
# Coordination Sequence:
#
# PCOD8302282 Si02
#       8
#     4   4   4   4   4   4   1   1
#     4  11  22  42  66 101 143 185 227 285 362 435
#     4  12  26  46  74 104 138 189 246 300 364 431
#     4  12  25  47  75 109 141 189 248 297 365 451
#     4  11  22  46  74  97 145 190 231 295 368 426
#     4  10  21  43  73 100 136 188 233 291 362 433
#     4  11  23  42  70 105 147 182 225 299 370 424
#     4  12  24  36  66 112 144 180 240 290 356 456
#     4  12  28  52  66 104 156 188 250 324 360 416
#
# _framework density 22.603508000000001
#
# number of rings (size 3 to 8) (size 9 to 14) (size 15 to 20)
#    0.000    0.769    4.615    3.692    0.000    2.462 
#    2.769    0.000    0.000    0.000    0.000    0.000 
#    0.000    0.000    0.000    0.000    0.000    0.000 
#
# Total GULP energy -322320.061368 kJ/mol
# GULP energy per Si atom -12396.925437 kJ/mol
# Density = 2.255206 g / cm^3
# Si number density = 22.603508 Si / 1000 Ang^3
#
#
#
# Elastic Constant Matrix: (Units=GPa)
#
#
# Indices 1 2 3 4 5 6 
#
# 1 93.4959 23.0732 31.4754 0.0000 0.0000 2.9184
# 2 23.0732 93.4959 31.4754 0.0000 0.0000 -2.9184
# 3 31.4754 31.4754 92.2021 0.0000 0.0000 0.0000
# 4 0.0000 0.0000 0.0000 -2.7145 0.0000 0.0000
# 5 0.0000 0.0000 0.0000 0.0000 -2.7145 0.0000
# 6 2.9184 -2.9184 0.0000 0.0000 0.0000 15.3954
#
#
#
# Elastic Compliance Matrix: (Units=1/GPa)
#
#
# Indices 1 2 3 4 5 6 
#
# 1 0.012472 -0.001955 -0.003590 0.000000 0.000000 -0.002735
# 2 -0.001955 0.012472 -0.003590 0.000000 0.000000 0.002735
# 3 -0.003590 -0.003590 0.013297 0.000000 0.000000 0.000000
# 4 0.000000 0.000000 0.000000 -0.368390 0.000000 0.000000
# 5 0.000000 0.000000 0.000000 0.000000 -0.368390 0.000000
# 6 -0.002735 0.002735 0.000000 0.000000 0.000000 0.065991
#
#
# Mechanical properties :
#
#
# Convention : Reuss Voigt Hill
#
# Bulk Modulus (GPa) = 50.07384 50.13798 50.10591
# Shear Modulus (GPa) = -8.22884 14.87127 3.32122
#
# Velocity S-wave (km/s) = -1.91008 2.56778 1.21348
# Velocity P-wave (km/s) = 4.16373 5.56965 4.91719
#
# Compressibility (1/GPa) = 0.01997051
#
# Stress axis : x y z
#
# Youngs Moduli (GPa) = 80.17911 80.17911 75.20451
#
# Poissons Ratio (x) = 0.15671 0.27001
# Poissons Ratio (y) = 0.15671 0.27001
# Poissons Ratio (z) = 0.28788 0.28788
#
# Static dielectric constant tensor:
#      x y z
#    x 4.069200 0.000000 0.000000 
#    y 0.000000 4.069200 0.000000 
#    z 0.000000 0.000000 4.152060 
# 
# 
# High freq. dielectric constant tensor:
#      x y z
#    x 1.885720 0.000000 0.000000 
#    y 0.000000 1.885720 0.000000 
#    z 0.000000 0.000000 1.901480 
# 
# From -- ./inp_files/908.got.cif
#   From: 2010.03.12/outbox.cif.g09.slc.cpg/sg81_cif.got.tgz:908.got - 2010.04.08 20:01:38.
