data_PCOD8302782
_publ_section_title
;
Structure prediction by ZEFSAII (Michael W. Deem and Ramdas Pophale) SiO2 
 PCOD8302782
Probable space group: P 4/M
;
_chemical_formula_sum "Si O2"
_cell_formula_units_Z 52
_cell_length_a 17.805036
_cell_length_b 17.805036
_cell_length_c 8.137646
_cell_angle_alpha 90.000000
_cell_angle_beta 90.000000
_cell_angle_gamma 90.000000
_cell_volume 2579.790895
_symmetry_space_group_name_H-M "P 4/M"
_symmetry_group_IT_number 83
_symmetry_cell_setting 'tetragonal'
loop_
_space_group_symop_operation_xyz
x,y,z
-y,x,z
-x,-y,z
y,-x,z
-x,-y,-z
y,-x,-z
x,y,-z
-y,x,-z
loop_
_atom_site_type_symbol
_atom_site_label
_atom_site_fract_x
_atom_site_fract_y
_atom_site_fract_z
Si Si1 0.726140 0.920528 0.690902
Si Si2 0.700262 0.755864 0.311802
Si Si3 0.979598 0.117229 0.805883
Si Si4 0.544013 0.780797 0.185790
Si Si5 0.305794 0.395487 0.188798
Si Si6 0.432642 0.047188 0.812789
Si Si7 0.403702 0.423743 0.500000
O O1 0.728221 0.907847 0.500000
O O2 0.726097 0.835866 0.768277
O O3 0.798522 0.967693 0.743704
O O4 0.649752 0.965079 0.733979
O O5 0.725800 0.748203 0.500000
O O6 0.609334 0.749575 0.302553
O O7 0.735344 0.686094 0.208075
O O8 0.060459 0.086011 0.742940
O O9 0.978841 0.118240 0.000000
O O10 0.462378 0.750253 0.235243
O O11 0.538702 0.869067 0.205534
O O12 0.564763 0.757095 0.000000
O O13 0.369737 0.393381 0.328650
O O14 0.336118 0.404305 0.000000
O O15 0.500000 0.000000 0.726986
O O16 0.423567 0.021092 0.000000
O O17 0.487727 0.395342 0.500000
#
# Coordination Sequence:
#
# PCOD8302782 Si02
#       7
#     8   8   8   8   8   8   4
#     4  10  21  36  57  87 120 154 191 236 290 351
#     4  10  20  35  55  78 109 147 189 234 289 347
#     4   9  19  38  63  89 117 155 201 244 291 350
#     4   9  19  34  54  80 106 141 187 233 287 347
#     4  11  22  36  56  81 108 143 191 240 290 349
#     4   9  18  36  60  83 113 152 195 239 287 345
#     4  11  24  38  54  78 109 144 186 235 291 348
#
# _framework density 20.156673000000001
#
# number of rings (size 3 to 8) (size 9 to 14) (size 15 to 20)
#    0.000    2.231    0.769    2.308    1.077    4.615 
#    2.769    1.538    0.000    0.000    0.000    0.000 
#    0.000    0.000    0.000    0.000    0.000    0.000 
#
# Total GULP energy -644346.337602 kJ/mol
# GULP energy per Si atom -12391.275723 kJ/mol
# Density = 2.011080 g / cm^3
# Si number density = 20.156673 Si / 1000 Ang^3
#
#
#
# Elastic Constant Matrix: (Units=GPa)
#
#
# Indices 1 2 3 4 5 6 
#
# 1 79.7498 68.9737 14.7948 0.0000 0.0000 27.7030
# 2 68.9737 79.7498 14.7948 0.0000 0.0000 -27.7030
# 3 14.7948 14.7948 68.0832 0.0000 0.0000 0.0000
# 4 0.0000 0.0000 0.0000 19.6743 0.0000 0.0000
# 5 0.0000 0.0000 0.0000 0.0000 19.6743 0.0000
# 6 27.7030 -27.7030 0.0000 0.0000 0.0000 12.4099
#
#
#
# Elastic Compliance Matrix: (Units=1/GPa)
#
#
# Indices 1 2 3 4 5 6 
#
# 1 -0.000915 0.007942 -0.001527 0.000000 0.000000 0.019771
# 2 0.007942 -0.000915 -0.001527 0.000000 0.000000 -0.019771
# 3 -0.001527 -0.001527 0.015352 0.000000 0.000000 0.000000
# 4 0.000000 0.000000 0.000000 0.050828 0.000000 0.000000
# 5 0.000000 0.000000 0.000000 0.000000 0.050828 0.000000
# 6 0.019771 -0.019771 0.000000 0.000000 0.000000 -0.007691
#
#
# Mechanical properties :
#
#
# Convention : Reuss Voigt Hill
#
# Bulk Modulus (GPa) = 42.92133 47.18994 45.05563
# Shear Modulus (GPa) = 47.40344 18.95301 33.17822
#
# Velocity S-wave (km/s) = 4.85474 3.06973 4.06151
# Velocity P-wave (km/s) = 7.26394 6.00223 6.66302
#
# Compressibility (1/GPa) = 0.02329844
#
# Stress axis : x y z
#
# Youngs Moduli (GPa) = -1093.46557 -1093.46557 65.13970
#
# Poissons Ratio (x) = 8.68458 0.09948
# Poissons Ratio (y) = 8.68458 0.09948
# Poissons Ratio (z) = -1.66990 -1.66990
#
# Static dielectric constant tensor:
#      x y z
#    x 1.844340 0.000000 0.000000 
#    y 0.000000 1.844340 0.000000 
#    z 0.000000 0.000000 3.580790 
# 
# 
# High freq. dielectric constant tensor:
#      x y z
#    x 1.780830 0.000000 0.000000 
#    y 0.000000 1.780830 0.000000 
#    z 0.000000 0.000000 1.780230 
# 
# From -- ./inp_files/1025.got.cif
#   From: 2010.03.12/outbox.cif.g09.slc.cpg/sg83_1_cif.got.tgz:1025.got - 2010.04.08 20:05:18.
