data_PCOD8302468
_publ_section_title
;
Structure prediction by ZEFSAII (Michael W. Deem and Ramdas Pophale) SiO2 
 PCOD8302468
Probable space group: I -4 
;
_chemical_formula_sum "Si O2"
_cell_formula_units_Z 40
_cell_length_a 8.383635
_cell_length_b 8.383635
_cell_length_c 23.974737
_cell_angle_alpha 90.000000
_cell_angle_beta 90.000000
_cell_angle_gamma 90.000000
_cell_volume 1685.072441
_symmetry_space_group_name_H-M "I -4 "
_symmetry_group_IT_number 82
_symmetry_cell_setting 'tetragonal'
loop_
_space_group_symop_operation_xyz
x,y,z
y,-x,-z
-x,-y,z
-y,x,-z
1/2+x,1/2+y,1/2+z
1/2+y,1/2-x,1/2-z
1/2-x,1/2-y,1/2+z
1/2-y,1/2+x,1/2-z
loop_
_atom_site_type_symbol
_atom_site_label
_atom_site_fract_x
_atom_site_fract_y
_atom_site_fract_z
Si Si1 0.839991 0.421616 0.882339
Si Si2 0.829481 0.059549 0.073177
Si Si3 0.379074 0.779042 0.679274
Si Si4 0.765746 0.616585 0.192416
Si Si5 0.128789 0.812064 0.525610
O O1 0.723423 0.369185 0.834273
O O2 0.731092 0.542899 0.916807
O O3 0.000000 0.500000 0.856450
O O4 0.902382 0.281438 0.923165
O O5 0.832273 0.145280 0.134264
O O6 0.770309 0.180433 0.023717
O O7 0.000000 0.000000 0.053905
O O8 0.362605 0.722633 0.742842
O O9 0.563734 0.820643 0.672186
O O10 0.262715 0.932357 0.672380
O O11 0.994004 0.800418 0.475893
#
# Coordination Sequence:
#
# PCOD8302468 Si02
#       5
#     8   8   8   8   8
#     4  10  22  44  65 100 146 187 244 307 362 430
#     4  11  22  45  70 105 143 185 240 312 373 430
#     4   9  19  36  68 103 146 192 244 291 355 442
#     4   9  18  38  65 105 144 197 246 286 353 443
#     4  10  25  48  72  97 139 182 244 299 364 442
#
# _framework density 23.737849000000001
#
# number of rings (size 3 to 8) (size 9 to 14) (size 15 to 20)
#    0.000    2.200    2.000    1.200    5.600    0.000 
#   18.000    0.000    0.000    0.000    0.000    0.000 
#    0.000    0.000    0.000    0.000    0.000    0.000 
#
# Total GULP energy -247767.057523 kJ/mol
# GULP energy per Si atom -12388.352876 kJ/mol
# Density = 2.368382 g / cm^3
# Si number density = 23.737849 Si / 1000 Ang^3
#
#
#
# Elastic Constant Matrix: (Units=GPa)
#
#
# Indices 1 2 3 4 5 6 
#
# 1 118.5757 64.0601 44.1894 0.0000 0.0000 -10.3828
# 2 64.0601 118.5757 44.1894 0.0000 0.0000 10.3828
# 3 44.1894 44.1894 77.8679 0.0000 0.0000 0.0000
# 4 0.0000 0.0000 0.0000 32.7227 0.0000 0.0000
# 5 0.0000 0.0000 0.0000 0.0000 32.7227 0.0000
# 6 -10.3828 10.3828 0.0000 0.0000 0.0000 48.9368
#
#
#
# Elastic Compliance Matrix: (Units=1/GPa)
#
#
# Indices 1 2 3 4 5 6 
#
# 1 0.013752 -0.006204 -0.004284 0.000000 0.000000 0.004234
# 2 -0.006204 0.013752 -0.004284 0.000000 0.000000 -0.004234
# 3 -0.004284 -0.004284 0.017704 0.000000 0.000000 0.000000
# 4 0.000000 0.000000 0.000000 0.030560 0.000000 0.000000
# 5 0.000000 0.000000 0.000000 0.000000 0.030560 0.000000
# 6 0.004234 -0.004234 0.000000 0.000000 0.000000 0.022231
#
#
# Mechanical properties :
#
#
# Convention : Reuss Voigt Hill
#
# Bulk Modulus (GPa) = 63.83148 68.87746 66.35447
# Shear Modulus (GPa) = 30.61408 33.71512 32.16460
#
# Velocity S-wave (km/s) = 3.59510 3.77279 3.68502
# Velocity P-wave (km/s) = 6.64692 6.93235 6.79113
#
# Compressibility (1/GPa) = 0.01566625
#
# Stress axis : x y z
#
# Youngs Moduli (GPa) = 72.71561 72.71561 56.48429
#
# Poissons Ratio (x) = 0.45113 0.24195
# Poissons Ratio (y) = 0.45113 0.24195
# Poissons Ratio (z) = 0.31148 0.31148
#
# Static dielectric constant tensor:
#      x y z
#    x 4.615560 0.000000 0.000000 
#    y 0.000000 4.615560 0.000000 
#    z 0.000000 0.000000 3.977200 
# 
# 
# High freq. dielectric constant tensor:
#      x y z
#    x 1.948460 0.000000 0.000000 
#    y 0.000000 1.948460 0.000000 
#    z 0.000000 0.000000 1.922130 
# 
# From -- ./inp_files/3690.got.cif
#   From: 2010.03.12/outbox.cif.g09.slc.cpg/sg82_2_cif.got.tgz:3690.got - 2010.04.08 20:02:50.
