data_PCOD8302737
_publ_section_title
;
Structure prediction by ZEFSAII (Michael W. Deem and Ramdas Pophale) SiO2 
 PCOD8302737
Probable space group: P 4/M
;
_chemical_formula_sum "Si O2"
_cell_formula_units_Z 52
_cell_length_a 17.625051
_cell_length_b 17.625051
_cell_length_c 8.035989
_cell_angle_alpha 90.000000
_cell_angle_beta 90.000000
_cell_angle_gamma 90.000000
_cell_volume 2496.319092
_symmetry_space_group_name_H-M "P 4/M"
_symmetry_group_IT_number 83
_symmetry_cell_setting 'tetragonal'
loop_
_space_group_symop_operation_xyz
x,y,z
-y,x,z
-x,-y,z
y,-x,z
-x,-y,-z
y,-x,-z
x,y,-z
-y,x,-z
loop_
_atom_site_type_symbol
_atom_site_label
_atom_site_fract_x
_atom_site_fract_y
_atom_site_fract_z
Si Si1 0.706011 0.971074 0.302859
Si Si2 0.545098 0.928998 0.693665
Si Si3 0.381102 0.480714 0.197912
Si Si4 0.143214 0.304489 0.687813
Si Si5 0.787105 0.546835 0.190700
Si Si6 0.899313 0.070668 0.000000
Si Si7 0.861847 0.161529 0.690634
O O1 0.710658 0.970160 0.500000
O O2 0.630075 0.930895 0.232535
O O3 0.775249 0.919295 0.239064
O O4 0.708688 0.058099 0.239336
O O5 0.551403 0.945042 0.500000
O O6 0.506300 0.848365 0.721177
O O7 0.500000 0.000000 0.775906
O O8 0.437936 0.413765 0.259611
O O9 0.296444 0.466920 0.270846
O O10 0.378426 0.478325 0.000000
O O11 0.136548 0.336609 0.500000
O O12 0.189448 0.365271 0.794825
O O13 0.190097 0.225586 0.690579
O O14 0.785370 0.522969 0.000000
O O15 0.861209 0.094157 0.174891
O O16 0.981915 0.105113 0.000000
O O17 0.882021 0.134260 0.500000
#
# Coordination Sequence:
#
# PCOD8302737 Si02
#       7
#     8   8   8   8   8   4   8
#     4   9  18  36  59  80 106 151 199 236 289 360
#     4  10  19  36  57  76 108 155 197 230 280 356
#     4   8  16  34  57  79 111 157 196 228 281 350
#     4  10  20  37  59  79 111 156 195 236 296 358
#     4  11  22  33  54  90 121 144 190 251 297 347
#     4  11  24  40  60  88 117 151 197 248 308 366
#     4  10  22  40  61  87 117 155 204 253 301 362
#
# _framework density 20.830670999999999
#
# number of rings (size 3 to 8) (size 9 to 14) (size 15 to 20)
#    0.000    2.231    1.538    1.846    1.077    3.385 
#    2.769    0.769    0.000    2.769    0.000    4.308 
#    0.000    0.000    0.000    0.000    0.000    0.000 
#
# Total GULP energy -644413.408027 kJ/mol
# GULP energy per Si atom -12392.565539 kJ/mol
# Density = 2.078326 g / cm^3
# Si number density = 20.830671 Si / 1000 Ang^3
#
#
#
# Elastic Constant Matrix: (Units=GPa)
#
#
# Indices 1 2 3 4 5 6 
#
# 1 140.7981 38.4925 4.0310 0.0000 0.0000 4.3284
# 2 38.4925 140.7981 4.0310 0.0000 0.0000 -4.3284
# 3 4.0310 4.0310 46.1355 0.0000 0.0000 0.0000
# 4 0.0000 0.0000 0.0000 19.1961 0.0000 0.0000
# 5 0.0000 0.0000 0.0000 0.0000 19.1961 0.0000
# 6 4.3284 -4.3284 0.0000 0.0000 0.0000 37.5687
#
#
#
# Elastic Compliance Matrix: (Units=1/GPa)
#
#
# Indices 1 2 3 4 5 6 
#
# 1 0.007735 -0.002136 -0.000489 0.000000 0.000000 -0.001137
# 2 -0.002136 0.007735 -0.000489 0.000000 0.000000 0.001137
# 3 -0.000489 -0.000489 0.021761 0.000000 0.000000 0.000000
# 4 0.000000 0.000000 0.000000 0.052094 0.000000 0.000000
# 5 0.000000 0.000000 0.000000 0.000000 0.052094 0.000000
# 6 -0.001137 0.001137 0.000000 0.000000 0.000000 0.026880
#
#
# Mechanical properties :
#
#
# Convention : Reuss Voigt Hill
#
# Bulk Modulus (GPa) = 32.25508 46.76008 39.50758
# Shear Modulus (GPa) = 27.04727 33.93733 30.49230
#
# Velocity S-wave (km/s) = 3.60729 4.04071 3.83014
# Velocity P-wave (km/s) = 5.73307 6.65329 6.21025
#
# Compressibility (1/GPa) = 0.03100287
#
# Stress axis : x y z
#
# Youngs Moduli (GPa) = 129.27907 129.27907 45.95421
#
# Poissons Ratio (x) = 0.27610 0.02248
# Poissons Ratio (y) = 0.27610 0.02248
# Poissons Ratio (z) = 0.06325 0.06325
#
# Static dielectric constant tensor:
#      x y z
#    x 3.935600 0.000000 0.000000 
#    y 0.000000 3.935600 0.000000 
#    z 0.000000 0.000000 3.492830 
# 
# 
# High freq. dielectric constant tensor:
#      x y z
#    x 1.816400 0.000000 0.000000 
#    y 0.000000 1.816400 0.000000 
#    z 0.000000 0.000000 1.786140 
# 
# From -- ./inp_files/988.got.cif
#   From: 2010.03.12/outbox.cif.g09.slc.cpg/sg83_1_cif.got.tgz:988.got - 2010.04.08 20:05:18.
