data_PCOD8302544
_publ_section_title
;
Structure prediction by ZEFSAII (Michael W. Deem and Ramdas Pophale) SiO2 
 PCOD8302544
Probable space group: I -4 
;
_chemical_formula_sum "Si O2"
_cell_formula_units_Z 58
_cell_length_a 16.302459
_cell_length_b 16.302459
_cell_length_c 9.735558
_cell_angle_alpha 90.000000
_cell_angle_beta 90.000000
_cell_angle_gamma 90.000000
_cell_volume 2587.420899
_symmetry_space_group_name_H-M "I -4 "
_symmetry_group_IT_number 82
_symmetry_cell_setting 'tetragonal'
loop_
_space_group_symop_operation_xyz
x,y,z
y,-x,-z
-x,-y,z
-y,x,-z
1/2+x,1/2+y,1/2+z
1/2+y,1/2-x,1/2-z
1/2-x,1/2-y,1/2+z
1/2-y,1/2+x,1/2-z
loop_
_atom_site_type_symbol
_atom_site_label
_atom_site_fract_x
_atom_site_fract_y
_atom_site_fract_z
Si Si1 0.715860 0.551257 0.603403
Si Si2 0.405727 0.469255 0.161473
Si Si3 0.580078 0.673568 0.601560
Si Si4 0.000000 0.500000 0.750000
Si Si5 0.188404 0.982379 0.386893
Si Si6 0.065595 0.639881 0.087573
Si Si7 0.877089 0.654882 0.150011
Si Si8 0.863002 0.510969 0.958479
O O1 0.638160 0.601733 0.551492
O O2 0.704055 0.462821 0.536469
O O3 0.709984 0.549964 0.769051
O O4 0.803084 0.584169 0.545910
O O5 0.500000 0.500000 0.165462
O O6 0.353102 0.514608 0.279706
O O7 0.410482 0.369147 0.179326
O O8 0.363725 0.481639 0.013433
O O9 0.640711 0.747996 0.645244
O O10 0.918318 0.530774 0.826835
O O11 0.279848 0.957237 0.434205
O O12 0.126196 0.665349 0.209606
O O13 0.975255 0.647282 0.148756
O O14 0.078951 0.545026 0.052260
O O15 0.840118 0.598349 0.028015
#
# Coordination Sequence:
#
# PCOD8302544 Si02
#       8
#     8   8   8   2   8   8   8   8
#     4  11  25  44  66 103 142 175 236 288 362 423
#     4  12  22  46  73 100 143 193 242 281 362 447
#     4  11  25  45  70 103 141 190 238 298 358 437
#     4  12  24  44  70 100 136 188 232 302 384 436
#     4  12  24  42  71 106 141 192 234 293 357 449
#     4  11  22  44  71  99 128 184 237 297 354 433
#     4  11  23  44  69  98 134 183 248 292 363 440
#     4  12  25  42  71  99 139 184 239 298 365 445
#
# _framework density 22.416143999999999
#
# number of rings (size 3 to 8) (size 9 to 14) (size 15 to 20)
#    0.000    0.552    5.517    2.483    3.862    0.000 
#    4.966    0.000    0.000    0.000    0.000    0.000 
#    0.000    0.000    0.000    0.000    0.000    0.000 
#
# Total GULP energy -359276.054847 kJ/mol
# GULP energy per Si atom -12388.829477 kJ/mol
# Density = 2.236512 g / cm^3
# Si number density = 22.416144 Si / 1000 Ang^3
#
#
#
# Elastic Constant Matrix: (Units=GPa)
#
#
# Indices 1 2 3 4 5 6 
#
# 1 77.0253 12.0508 23.6157 0.0000 0.0000 -6.6861
# 2 12.0508 77.0253 23.6157 0.0000 0.0000 6.6861
# 3 23.6157 23.6157 108.6075 0.0000 0.0000 0.0000
# 4 0.0000 0.0000 0.0000 32.5451 0.0000 0.0000
# 5 0.0000 0.0000 0.0000 0.0000 32.5451 0.0000
# 6 -6.6861 6.6861 0.0000 0.0000 0.0000 22.1944
#
#
#
# Elastic Compliance Matrix: (Units=1/GPa)
#
#
# Indices 1 2 3 4 5 6 
#
# 1 0.014549 -0.001859 -0.002759 0.000000 0.000000 0.004943
# 2 -0.001859 0.014549 -0.002759 0.000000 0.000000 -0.004943
# 3 -0.002759 -0.002759 0.010407 0.000000 0.000000 0.000000
# 4 0.000000 0.000000 0.000000 0.030727 0.000000 0.000000
# 5 0.000000 0.000000 0.000000 0.000000 0.030727 0.000000
# 6 0.004943 -0.004943 0.000000 0.000000 0.000000 0.048035
#
#
# Mechanical properties :
#
#
# Convention : Reuss Voigt Hill
#
# Bulk Modulus (GPa) = 40.40505 42.35807 41.38156
# Shear Modulus (GPa) = 29.07020 31.01532 30.04276
#
# Velocity S-wave (km/s) = 3.60508 3.72373 3.66489
# Velocity P-wave (km/s) = 5.94919 6.11764 6.03400
#
# Compressibility (1/GPa) = 0.02474938
#
# Stress axis : x y z
#
# Youngs Moduli (GPa) = 68.73492 68.73492 96.08554
#
# Poissons Ratio (x) = 0.12780 0.26512
# Poissons Ratio (y) = 0.12780 0.26512
# Poissons Ratio (z) = 0.18965 0.18965
#
# Static dielectric constant tensor:
#      x y z
#    x 4.191400 0.000000 0.000000 
#    y 0.000000 4.191400 0.000000 
#    z 0.000000 0.000000 4.211110 
# 
# 
# High freq. dielectric constant tensor:
#      x y z
#    x 1.872280 0.000000 0.000000 
#    y 0.000000 1.872280 0.000000 
#    z 0.000000 0.000000 1.893380 
# 
# From -- ./inp_files/1190.got.cif
#   From: 2010.03.12/outbox.cif.g09.slc.cpg/sg82_1_cif.got.tgz:1190.got - 2010.04.08 20:02:50.
