data_PCOD8302704
_publ_section_title
;
Structure prediction by ZEFSAII (Michael W. Deem and Ramdas Pophale) SiO2 
 PCOD8302704
Probable space group: P 4/M
;
_chemical_formula_sum "Si O2"
_cell_formula_units_Z 56
_cell_length_a 15.418213
_cell_length_b 15.418213
_cell_length_c 13.611929
_cell_angle_alpha 90.000000
_cell_angle_beta 90.000000
_cell_angle_gamma 90.000000
_cell_volume 3235.845350
_symmetry_space_group_name_H-M "P 4/M"
_symmetry_group_IT_number 83
_symmetry_cell_setting 'tetragonal'
loop_
_space_group_symop_operation_xyz
x,y,z
-y,x,z
-x,-y,z
y,-x,z
-x,-y,-z
y,-x,-z
x,y,-z
-y,x,-z
loop_
_atom_site_type_symbol
_atom_site_label
_atom_site_fract_x
_atom_site_fract_y
_atom_site_fract_z
Si Si1 0.333680 0.909486 0.387974
Si Si2 0.330548 0.302807 0.110313
Si Si3 0.758588 0.519859 0.110505
Si Si4 0.264323 0.740584 0.304608
Si Si5 0.595383 0.396457 0.615922
Si Si6 0.102696 0.662037 0.388252
Si Si7 0.503154 0.095128 0.734642
O O1 0.324229 0.878759 0.500000
O O2 0.287253 0.841090 0.317662
O O3 0.434419 0.910665 0.359500
O O4 0.296352 0.007000 0.371697
O O5 0.311002 0.404263 0.124429
O O6 0.431600 0.291660 0.133414
O O7 0.274686 0.246870 0.188436
O O8 0.306797 0.271075 0.000000
O O9 0.838139 0.535498 0.183800
O O10 0.796551 0.519511 0.000000
O O11 0.341649 0.674352 0.334833
O O12 0.177478 0.731809 0.368974
O O13 0.621916 0.495005 0.646539
O O14 0.605351 0.386130 0.500000
O O15 0.108716 0.627166 0.500000
O O16 0.124296 0.588221 0.309231
O O17 0.500000 0.000000 0.784786
#
# Coordination Sequence:
#
# PCOD8302704 Si02
#       7
#     8   8   8   8   8   8   8
#     4  10  21  35  52  78 109 139 174 215 262 320
#     4  10  22  36  52  73 101 136 179 225 264 305
#     4  10  20  37  53  72 100 137 182 226 266 307
#     4  12  21  34  58  76 100 141 181 215 262 316
#     4   9  20  34  46  70 105 135 170 214 253 298
#     4  10  21  35  52  78 109 139 174 215 262 320
#     4  10  19  33  51  76 106 139 169 209 266 318
#
# _framework density 17.306142999999999
#
# number of rings (size 3 to 8) (size 9 to 14) (size 15 to 20)
#    0.000    1.857    2.857    2.143    4.000    2.286 
#    0.000    1.429    0.000    1.286    0.000    2.000 
#    0.000    0.000    0.000    1.286    0.000    0.143 
#
# Total GULP energy -694221.177860 kJ/mol
# GULP energy per Si atom -12396.806748 kJ/mol
# Density = 1.726675 g / cm^3
# Si number density = 17.306143 Si / 1000 Ang^3
#
#
#
# Elastic Constant Matrix: (Units=GPa)
#
#
# Indices 1 2 3 4 5 6 
#
# 1 82.9780 29.2853 28.5790 0.0000 0.0000 -2.1062
# 2 29.2853 82.9780 28.5790 0.0000 0.0000 2.1062
# 3 28.5790 28.5790 85.5342 0.0000 0.0000 0.0000
# 4 0.0000 0.0000 0.0000 20.3648 0.0000 0.0000
# 5 0.0000 0.0000 0.0000 0.0000 20.3648 0.0000
# 6 -2.1062 2.1062 0.0000 0.0000 0.0000 16.2220
#
#
#
# Elastic Compliance Matrix: (Units=1/GPa)
#
#
# Indices 1 2 3 4 5 6 
#
# 1 0.014775 -0.004041 -0.003586 0.000000 0.000000 0.002443
# 2 -0.004041 0.014775 -0.003586 0.000000 0.000000 -0.002443
# 3 -0.003586 -0.003586 0.014088 0.000000 0.000000 0.000000
# 4 0.000000 0.000000 0.000000 0.049104 0.000000 0.000000
# 5 0.000000 0.000000 0.000000 0.000000 0.049104 0.000000
# 6 0.002443 -0.002443 0.000000 0.000000 0.000000 0.062279
#
#
# Mechanical properties :
#
#
# Convention : Reuss Voigt Hill
#
# Bulk Modulus (GPa) = 47.14847 47.15297 47.15072
# Shear Modulus (GPa) = 21.40200 22.39346 21.89773
#
# Velocity S-wave (km/s) = 3.52045 3.60107 3.56099
# Velocity P-wave (km/s) = 6.62025 6.67801 6.64919
#
# Compressibility (1/GPa) = 0.02120960
#
# Stress axis : x y z
#
# Youngs Moduli (GPa) = 67.68251 67.68251 70.98342
#
# Poissons Ratio (x) = 0.27352 0.25457
# Poissons Ratio (y) = 0.27352 0.25457
# Poissons Ratio (z) = 0.24273 0.24273
#
# Static dielectric constant tensor:
#      x y z
#    x 3.141870 0.000000 0.000000 
#    y 0.000000 3.141870 0.000000 
#    z 0.000000 0.000000 3.395450 
# 
# 
# High freq. dielectric constant tensor:
#      x y z
#    x 1.650140 0.000000 0.000000 
#    y 0.000000 1.650140 0.000000 
#    z 0.000000 0.000000 1.677090 
# 
# From -- ./inp_files/2421.got.cif
#   From: 2010.03.12/outbox.cif.g09.slc.cpg/sg83_2_cif.got.tgz:2421.got - 2010.04.08 20:05:18.
