data_PCOD8302596
_publ_section_title
;
Structure prediction by ZEFSAII (Michael W. Deem and Ramdas Pophale) SiO2 
 PCOD8302596
Probable space group: I -4 
;
_chemical_formula_sum "Si O2"
_cell_formula_units_Z 34
_cell_length_a 11.329566
_cell_length_b 11.329566
_cell_length_c 11.448274
_cell_angle_alpha 90.000000
_cell_angle_beta 90.000000
_cell_angle_gamma 90.000000
_cell_volume 1469.489755
_symmetry_space_group_name_H-M "I -4 "
_symmetry_group_IT_number 82
_symmetry_cell_setting 'tetragonal'
loop_
_space_group_symop_operation_xyz
x,y,z
y,-x,-z
-x,-y,z
-y,x,-z
1/2+x,1/2+y,1/2+z
1/2+y,1/2-x,1/2-z
1/2-x,1/2-y,1/2+z
1/2-y,1/2+x,1/2-z
loop_
_atom_site_type_symbol
_atom_site_label
_atom_site_fract_x
_atom_site_fract_y
_atom_site_fract_z
Si Si1 0.656545 0.751112 0.144371
Si Si2 0.057101 0.840822 0.795870
Si Si3 0.096810 0.404138 0.427287
Si Si4 0.500000 0.500000 0.500000
Si Si5 0.743677 0.523909 0.241096
O O1 0.732061 0.854380 0.200232
O O2 0.546182 0.715750 0.221966
O O3 0.736625 0.633540 0.149387
O O4 0.615100 0.796782 0.017892
O O5 0.008277 0.880671 0.922080
O O6 0.117804 0.956537 0.738576
O O7 0.223047 0.454602 0.379518
O O8 0.000000 0.500000 0.474638
O O9 0.054937 0.348891 0.305973
#
# Coordination Sequence:
#
# PCOD8302596 Si02
#       5
#     8   8   8   2   8
#     4  12  29  44  76 112 155 191 258 323 382 458
#     4  12  27  48  76 112 153 202 259 315 394 463
#     4  12  25  47  80 109 153 203 257 320 385 465
#     4  12  24  52  84 106 156 212 264 312 386 480
#     4  12  23  52  75 110 147 204 261 311 386 471
#
# _framework density 23.137283
#
# number of rings (size 3 to 8) (size 9 to 14) (size 15 to 20)
#    0.000    0.000    7.059    1.412    6.588    0.000 
#    0.000    0.000    0.000    0.000    0.000    0.000 
#    0.000    0.000    0.000    0.000    0.000    0.000 
#
# Total GULP energy -210645.850128 kJ/mol
# GULP energy per Si atom -12390.932360 kJ/mol
# Density = 2.308462 g / cm^3
# Si number density = 23.137283 Si / 1000 Ang^3
#
#
#
# Elastic Constant Matrix: (Units=GPa)
#
#
# Indices 1 2 3 4 5 6 
#
# 1 121.3347 45.0913 58.8745 0.0000 0.0000 8.0218
# 2 45.0913 121.3347 58.8745 0.0000 0.0000 -8.0218
# 3 58.8745 58.8745 126.5521 0.0000 0.0000 0.0000
# 4 0.0000 0.0000 0.0000 38.9555 0.0000 0.0000
# 5 0.0000 0.0000 0.0000 0.0000 38.9555 0.0000
# 6 8.0218 -8.0218 0.0000 0.0000 0.0000 38.2397
#
#
#
# Elastic Compliance Matrix: (Units=1/GPa)
#
#
# Indices 1 2 3 4 5 6 
#
# 1 0.011339 -0.002382 -0.004167 0.000000 0.000000 -0.002878
# 2 -0.002382 0.011339 -0.004167 0.000000 0.000000 0.002878
# 3 -0.004167 -0.004167 0.011779 0.000000 0.000000 0.000000
# 4 0.000000 0.000000 0.000000 0.025670 0.000000 0.000000
# 5 0.000000 0.000000 0.000000 0.000000 0.025670 0.000000
# 6 -0.002878 0.002878 0.000000 0.000000 0.000000 0.027359
#
#
# Mechanical properties :
#
#
# Convention : Reuss Voigt Hill
#
# Bulk Modulus (GPa) = 76.77542 77.21136 76.99339
# Shear Modulus (GPa) = 35.98923 36.98888 36.48905
#
# Velocity S-wave (km/s) = 3.94822 4.00267 3.97554
# Velocity P-wave (km/s) = 7.35113 7.40306 7.37714
#
# Compressibility (1/GPa) = 0.01302500
#
# Stress axis : x y z
#
# Youngs Moduli (GPa) = 88.18963 88.18963 84.89745
#
# Poissons Ratio (x) = 0.21010 0.35376
# Poissons Ratio (y) = 0.21010 0.35376
# Poissons Ratio (z) = 0.36748 0.36748
#
# Static dielectric constant tensor:
#      x y z
#    x 4.854240 0.000000 0.000000 
#    y 0.000000 4.854240 0.000000 
#    z 0.000000 0.000000 4.061590 
# 
# 
# High freq. dielectric constant tensor:
#      x y z
#    x 1.936590 0.000000 0.000000 
#    y 0.000000 1.936590 0.000000 
#    z 0.000000 0.000000 1.890620 
# 
# From -- ./inp_files/1548.got.cif
#   From: 2010.03.12/outbox.cif.g09.slc.cpg/sg82_1_cif.got.tgz:1548.got - 2010.04.08 20:02:50.
