data_PCOD8302138
_publ_section_title
;
Structure prediction by ZEFSAII (Michael W. Deem and Ramdas Pophale) SiO2 
 PCOD8302138
Probable space group: I 4
;
_chemical_formula_sum "Si O2"
_cell_formula_units_Z 64
_cell_length_a 10.934336
_cell_length_b 10.934336
_cell_length_c 28.150999
_cell_angle_alpha 90.000000
_cell_angle_beta 90.000000
_cell_angle_gamma 90.000000
_cell_volume 3365.725101
_symmetry_space_group_name_H-M "I 4"
_symmetry_group_IT_number 79
_symmetry_cell_setting 'tetragonal'
loop_
_space_group_symop_operation_xyz
x,y,z
-y,x,z
-x,-y,z
y,-x,z
1/2+x,1/2+y,1/2+z
1/2-y,1/2+x,1/2+z
1/2-x,1/2-y,1/2+z
1/2+y,1/2-x,1/2+z
loop_
_atom_site_type_symbol
_atom_site_label
_atom_site_fract_x
_atom_site_fract_y
_atom_site_fract_z
Si Si1 0.430778 0.687161 0.155540
Si Si2 0.698805 0.480046 0.899412
Si Si3 0.615604 0.928278 0.731962
Si Si4 0.803737 0.036903 0.911412
Si Si5 0.019954 0.198805 0.802635
Si Si6 0.196262 0.963097 0.290635
Si Si7 0.569222 0.312839 0.046506
Si Si8 0.071722 0.615604 0.470085
O O1 0.345877 0.571128 0.166787
O O2 0.388827 0.798316 0.188507
O O3 0.415518 0.727026 0.101023
O O4 0.631454 0.608217 0.910778
O O5 0.740825 0.464189 0.845205
O O6 0.816811 0.480073 0.933092
O O7 0.683189 0.019928 0.768954
O O8 0.566060 0.808309 0.757278
O O9 0.500000 0.000000 0.710751
O O10 0.691691 0.066059 0.944769
O O11 0.904158 0.140528 0.921714
O O12 0.759173 0.035813 0.856842
O O13 0.131454 0.108217 0.791268
O O14 0.095842 0.859472 0.280332
O O15 0.654124 0.428872 0.035260
O O16 0.611173 0.201684 0.013540
O O17 0.000000 0.500000 0.491295
#
# Coordination Sequence:
#
# PCOD8302138 Si02
#       8
#     8   8   8   8   8   8   8   8
#     4   9  20  42  68  89 112 143 184 243 307 347
#     4   9  20  38  57  77 110 155 199 246 287 321
#     4  12  25  31  58  91 117 147 193 238 284 343
#     4   9  22  40  54  74 118 167 197 227 277 338
#     4   9  20  38  57  77 110 155 199 246 287 321
#     4   9  22  40  54  74 118 167 197 227 277 338
#     4   9  20  42  68  89 112 143 184 243 307 347
#     4  12  25  31  58  91 117 147 193 238 284 343
#
# _framework density 19.015219999999999
#
# number of rings (size 3 to 8) (size 9 to 14) (size 15 to 20)
#    0.000    2.250    0.000    3.750   10.500    4.500 
#    0.000    0.000    0.000    0.000    0.000    1.750 
#    0.000    0.000    0.000    0.000    0.000    0.000 
#
# Total GULP energy -396816.920292 kJ/mol
# GULP energy per Si atom -12400.528759 kJ/mol
# Density = 1.897194 g / cm^3
# Si number density = 19.015220 Si / 1000 Ang^3
#
#
#
# Elastic Constant Matrix: (Units=GPa)
#
#
# Indices 1 2 3 4 5 6 
#
# 1 68.6540 13.2008 34.0874 0.0000 0.0000 -7.0444
# 2 13.2008 68.6540 34.0874 0.0000 0.0000 7.0444
# 3 34.0874 34.0874 76.8921 0.0000 0.0000 0.0000
# 4 0.0000 0.0000 0.0000 19.6067 0.0000 0.0000
# 5 0.0000 0.0000 0.0000 0.0000 19.6067 0.0000
# 6 -7.0444 7.0444 0.0000 0.0000 0.0000 12.1187
#
#
#
# Elastic Compliance Matrix: (Units=1/GPa)
#
#
# Indices 1 2 3 4 5 6 
#
# 1 0.020263 -0.000895 -0.008586 0.000000 0.000000 0.012299
# 2 -0.000895 0.020263 -0.008586 0.000000 0.000000 -0.012299
# 3 -0.008586 -0.008586 0.020618 0.000000 0.000000 0.000000
# 4 0.000000 0.000000 0.000000 0.051003 0.000000 0.000000
# 5 0.000000 0.000000 0.000000 0.000000 0.051003 0.000000
# 6 0.012299 -0.012299 0.000000 0.000000 0.000000 0.096816
#
#
# Mechanical properties :
#
#
# Convention : Reuss Voigt Hill
#
# Bulk Modulus (GPa) = 39.98499 41.88347 40.93423
# Shear Modulus (GPa) = 16.42383 19.12141 17.77262
#
# Velocity S-wave (km/s) = 2.94210 3.17454 3.06052
# Velocity P-wave (km/s) = 5.71094 5.95911 5.83634
#
# Compressibility (1/GPa) = 0.02500938
#
# Stress axis : x y z
#
# Youngs Moduli (GPa) = 49.35129 49.35128 48.50166
#
# Poissons Ratio (x) = 0.04417 0.41644
# Poissons Ratio (y) = 0.04417 0.41644
# Poissons Ratio (z) = 0.42373 0.42373
#
# Static dielectric constant tensor:
#      x y z
#    x 3.432800 0.000000 0.000000 
#    y 0.000000 3.432800 0.000000 
#    z 0.000000 0.000000 3.359890 
# 
# 
# High freq. dielectric constant tensor:
#      x y z
#    x 1.735480 0.000000 0.000000 
#    y 0.000000 1.735480 0.000000 
#    z 0.000000 0.000000 1.726550 
# 
# From -- ./inp_files/2062.got.cif
#   From: 2010.03.12/outbox.cif.g09.slc.cpg/sg79_cif.got.tgz:2062.got - 2010.04.16 16:38:49.
