data_PCOD8302429
_publ_section_title
;
Structure prediction by ZEFSAII (Michael W. Deem and Ramdas Pophale) SiO2 
 PCOD8302429
Probable space group: I -4 
;
_chemical_formula_sum "Si O2"
_cell_formula_units_Z 40
_cell_length_a 14.546258
_cell_length_b 14.546258
_cell_length_c 9.005959
_cell_angle_alpha 90.000000
_cell_angle_beta 90.000000
_cell_angle_gamma 90.000000
_cell_volume 1905.603483
_symmetry_space_group_name_H-M "I -4 "
_symmetry_group_IT_number 82
_symmetry_cell_setting 'tetragonal'
loop_
_space_group_symop_operation_xyz
x,y,z
y,-x,-z
-x,-y,z
-y,x,-z
1/2+x,1/2+y,1/2+z
1/2+y,1/2-x,1/2-z
1/2-x,1/2-y,1/2+z
1/2-y,1/2+x,1/2-z
loop_
_atom_site_type_symbol
_atom_site_label
_atom_site_fract_x
_atom_site_fract_y
_atom_site_fract_z
Si Si1 0.276280 0.100461 0.782761
Si Si2 0.768631 0.346098 0.786810
Si Si3 0.574061 0.764826 0.892151
Si Si4 0.869752 0.157574 0.812358
Si Si5 0.725166 0.466477 0.544757
O O1 0.189261 0.165489 0.749998
O O2 0.366594 0.163109 0.794961
O O3 0.285945 0.032539 0.641475
O O4 0.268712 0.041214 0.933836
O O5 0.839432 0.263646 0.802003
O O6 0.798600 0.412609 0.649684
O O7 0.770204 0.407048 0.934887
O O8 0.601293 0.662201 0.833117
O O9 0.979595 0.157719 0.838676
O O10 0.827734 0.112337 0.958572
#
# Coordination Sequence:
#
# PCOD8302429 Si02
#       5
#     8   8   8   8   8
#     4  10  22  42  62  93 125 174 208 269 326 374
#     4  11  21  40  64  90 124 168 214 253 322 387
#     4  10  22  39  64  89 128 164 216 262 321 382
#     4  10  21  39  64  91 123 165 204 265 318 382
#     4  11  20  40  65  93 127 166 215 257 331 381
#
# _framework density 20.990725000000001
#
# number of rings (size 3 to 8) (size 9 to 14) (size 15 to 20)
#    0.000    1.600    4.000    1.200    2.800    0.800 
#    0.000    0.000    0.000    0.600    0.000    0.000 
#    0.000    0.000    0.000    0.000    0.000    0.000 
#
# Total GULP energy -247855.115397 kJ/mol
# GULP energy per Si atom -12392.755770 kJ/mol
# Density = 2.094295 g / cm^3
# Si number density = 20.990725 Si / 1000 Ang^3
#
#
#
# Elastic Constant Matrix: (Units=GPa)
#
#
# Indices 1 2 3 4 5 6 
#
# 1 73.8834 -3.2737 22.0250 0.0000 0.0000 3.5862
# 2 -3.2737 73.8834 22.0250 0.0000 0.0000 -3.5862
# 3 22.0250 22.0250 87.9626 0.0000 0.0000 0.0000
# 4 0.0000 0.0000 0.0000 34.7034 0.0000 0.0000
# 5 0.0000 0.0000 0.0000 0.0000 34.7034 0.0000
# 6 3.5862 -3.5862 0.0000 0.0000 0.0000 8.2049
#
#
#
# Elastic Compliance Matrix: (Units=1/GPa)
#
#
# Indices 1 2 3 4 5 6 
#
# 1 0.015147 0.001637 -0.004203 0.000000 0.000000 -0.005905
# 2 0.001637 0.015147 -0.004203 0.000000 0.000000 0.005905
# 3 -0.004203 -0.004203 0.013473 0.000000 0.000000 0.000000
# 4 0.000000 0.000000 0.000000 0.028816 0.000000 0.000000
# 5 0.000000 0.000000 0.000000 0.000000 0.028816 0.000000
# 6 -0.005905 0.005905 0.000000 0.000000 0.000000 0.127039
#
#
# Mechanical properties :
#
#
# Convention : Reuss Voigt Hill
#
# Bulk Modulus (GPa) = 33.07863 35.25353 34.16608
# Shear Modulus (GPa) = 19.83734 28.51923 24.17829
#
# Velocity S-wave (km/s) = 3.07751 3.69000 3.39758
# Velocity P-wave (km/s) = 5.33113 5.91490 5.63059
#
# Compressibility (1/GPa) = 0.03023100
#
# Stress axis : x y z
#
# Youngs Moduli (GPa) = 66.02050 66.02050 74.22230
#
# Poissons Ratio (x) = -0.10810 0.31193
# Poissons Ratio (y) = -0.10810 0.31193
# Poissons Ratio (z) = 0.27746 0.27746
#
# Static dielectric constant tensor:
#      x y z
#    x 3.797440 0.000000 0.000000 
#    y 0.000000 3.797440 0.000000 
#    z 0.000000 0.000000 3.935260 
# 
# 
# High freq. dielectric constant tensor:
#      x y z
#    x 1.807470 0.000000 0.000000 
#    y 0.000000 1.807470 0.000000 
#    z 0.000000 0.000000 1.835530 
# 
# From -- ./inp_files/961.got.cif
#   From: 2010.03.12/outbox.cif.g09.slc.cpg/sg82_1_cif.got.tgz:961.got - 2010.04.08 20:02:50.
