data_PCOD8302804
_publ_section_title
;
Structure prediction by ZEFSAII (Michael W. Deem and Ramdas Pophale) SiO2 
 PCOD8302804
Probable space group: P 4/M
;
_chemical_formula_sum "Si O2"
_cell_formula_units_Z 36
_cell_length_a 15.202476
_cell_length_b 15.202476
_cell_length_c 7.723278
_cell_angle_alpha 90.000000
_cell_angle_beta 90.000000
_cell_angle_gamma 90.000000
_cell_volume 1784.967531
_symmetry_space_group_name_H-M "P 4/M"
_symmetry_group_IT_number 83
_symmetry_cell_setting 'tetragonal'
loop_
_space_group_symop_operation_xyz
x,y,z
-y,x,z
-x,-y,z
y,-x,z
-x,-y,-z
y,-x,-z
x,y,-z
-y,x,-z
loop_
_atom_site_type_symbol
_atom_site_label
_atom_site_fract_x
_atom_site_fract_y
_atom_site_fract_z
Si Si1 0.685750 0.088105 0.300901
Si Si2 0.644681 0.517895 0.000000
Si Si3 0.057903 0.125489 0.293490
Si Si4 0.420786 0.067578 0.192772
Si Si5 0.216417 0.464288 0.699050
O O1 0.687998 0.111783 0.500000
O O2 0.783431 0.098408 0.218637
O O3 0.617011 0.158522 0.221535
O O4 0.659502 0.985414 0.278659
O O5 0.575857 0.597187 0.000000
O O6 0.700895 0.524263 0.175884
O O7 0.055959 0.129440 0.500000
O O8 0.956994 0.114903 0.227523
O O9 0.448283 0.154897 0.298333
O O10 0.500000 0.000000 0.190993
O O11 0.394708 0.097296 0.000000
O O12 0.247843 0.449884 0.500000
#
# Coordination Sequence:
#
# PCOD8302804 Si02
#       5
#     8   4   8   8   8
#     4   9  17  29  51  86 120 151 194 244 290 337
#     4  11  26  48  67  84 114 151 190 239 303 381
#     4   8  14  27  46  70 109 157 195 228 271 324
#     4   9  16  29  53  82 116 155 187 228 289 344
#     4  10  20  38  63  91 119 146 188 245 299 355
#
# _framework density 20.168436
#
# number of rings (size 3 to 8) (size 9 to 14) (size 15 to 20)
#    0.000    2.778    1.111    1.333    1.556    3.556 
#    4.000    1.111    0.000    1.333    0.000    1.556 
#    0.000    0.000    0.000    0.000    0.000    0.000 
#
# Total GULP energy -446017.072702 kJ/mol
# GULP energy per Si atom -12389.363131 kJ/mol
# Density = 2.012253 g / cm^3
# Si number density = 20.168436 Si / 1000 Ang^3
#
#
#
# Elastic Constant Matrix: (Units=GPa)
#
#
# Indices 1 2 3 4 5 6 
#
# 1 101.8425 35.4254 32.0175 0.0000 0.0000 -2.1055
# 2 35.4254 101.8425 32.0175 0.0000 0.0000 2.1055
# 3 32.0175 32.0175 77.4020 0.0000 0.0000 0.0000
# 4 0.0000 0.0000 0.0000 18.7545 0.0000 0.0000
# 5 0.0000 0.0000 0.0000 0.0000 18.7545 0.0000
# 6 -2.1055 2.1055 0.0000 0.0000 0.0000 18.5543
#
#
#
# Elastic Compliance Matrix: (Units=1/GPa)
#
#
# Indices 1 2 3 4 5 6 
#
# 1 0.012096 -0.003069 -0.003734 0.000000 0.000000 0.001721
# 2 -0.003069 0.012096 -0.003734 0.000000 0.000000 -0.001721
# 3 -0.003734 -0.003734 0.016009 0.000000 0.000000 0.000000
# 4 0.000000 0.000000 0.000000 0.053321 0.000000 0.000000
# 5 0.000000 0.000000 0.000000 0.000000 0.053321 0.000000
# 6 0.001721 -0.001721 0.000000 0.000000 0.000000 0.054286
#
#
# Mechanical properties :
#
#
# Convention : Reuss Voigt Hill
#
# Bulk Modulus (GPa) = 52.28335 53.33420 52.80877
# Shear Modulus (GPa) = 21.87427 23.32107 22.59767
#
# Velocity S-wave (km/s) = 3.29687 3.40415 3.35094
# Velocity P-wave (km/s) = 6.36177 6.47710 6.41969
#
# Compressibility (1/GPa) = 0.01912655
#
# Stress axis : x y z
#
# Youngs Moduli (GPa) = 82.67054 82.67054 62.46595
#
# Poissons Ratio (x) = 0.25374 0.23325
# Poissons Ratio (y) = 0.25374 0.23325
# Poissons Ratio (z) = 0.30869 0.30869
#
# Static dielectric constant tensor:
#      x y z
#    x 3.838120 0.000000 0.000000 
#    y 0.000000 3.838120 0.000000 
#    z 0.000000 0.000000 3.432620 
# 
# 
# High freq. dielectric constant tensor:
#      x y z
#    x 1.771800 0.000000 0.000000 
#    y 0.000000 1.771800 0.000000 
#    z 0.000000 0.000000 1.771520 
# 
# From -- ./inp_files/551.got.cif
#   From: 2010.03.12/outbox.cif.g09.slc.cpg/sg83_1_cif.got.tgz:551.got - 2010.04.08 20:05:18.
