data_PCOD8302058
_publ_section_title
;
Structure prediction by ZEFSAII (Michael W. Deem and Ramdas Pophale) SiO2 
 PCOD8302058
Probable space group: P 43
;
_chemical_formula_sum "Si O2"
_cell_formula_units_Z 28
_cell_length_a 11.438958
_cell_length_b 11.438958
_cell_length_c 9.651620
_cell_angle_alpha 90.000000
_cell_angle_beta 90.000000
_cell_angle_gamma 90.000000
_cell_volume 1262.912162
_symmetry_space_group_name_H-M "P 43"
_symmetry_group_IT_number 78
_symmetry_cell_setting 'tetragonal'
loop_
_space_group_symop_operation_xyz
x,y,z
-y,x,3/4+z
-x,-y,1/2+z
y,-x,1/4+z
loop_
_atom_site_type_symbol
_atom_site_label
_atom_site_fract_x
_atom_site_fract_y
_atom_site_fract_z
Si Si1 0.907781 0.565298 0.021090
Si Si2 0.057783 0.767258 0.926819
Si Si3 0.195557 0.141478 0.385604
Si Si4 0.446926 0.396149 0.860814
Si Si5 0.958714 0.662584 0.524707
Si Si6 0.220641 0.379263 0.258477
Si Si7 0.307204 0.801665 0.023796
O O1 0.816895 0.622518 0.130197
O O2 0.845405 0.543012 0.873149
O O3 0.020077 0.649315 0.004307
O O4 0.956067 0.442278 0.070392
O O5 0.102921 0.736385 0.774146
O O6 0.943259 0.850160 0.916351
O O7 0.167649 0.823387 0.008220
O O8 0.259307 0.261279 0.338584
O O9 0.219847 0.038101 0.274737
O O10 0.490393 0.429061 0.707014
O O11 0.326277 0.326821 0.839580
O O12 0.545169 0.322333 0.941218
O O13 0.859824 0.672671 0.639078
O O14 0.901344 0.643883 0.375337
#
# Coordination Sequence:
#
# PCOD8302058 Si02
#       7
#     4   4   4   4   4   4   4
#     4  11  25  46  79 103 146 208 246 309 381 458
#     4  11  23  48  70 108 148 195 259 297 382 463
#     4  11  24  45  76 104 149 200 242 311 373 461
#     4  12  30  50  76 112 152 195 256 321 378 461
#     4  12  25  45  76 111 147 191 258 308 375 456
#     4  11  24  50  69 107 148 195 247 301 378 452
#     4  12  27  48  76 115 148 204 246 329 379 447
#
# _framework density 22.17098
#
# number of rings (size 3 to 8) (size 9 to 14) (size 15 to 20)
#    0.000    0.571    7.143    1.714    4.000    2.286 
#    0.000    0.000    0.000    0.000    0.000    0.000 
#    0.000    0.000    0.000    0.000    0.000    0.000 
#
# Total GULP energy -347108.941958 kJ/mol
# GULP energy per Si atom -12396.747927 kJ/mol
# Density = 2.212052 g / cm^3
# Si number density = 22.170980 Si / 1000 Ang^3
#
#
#
# Elastic Constant Matrix: (Units=GPa)
#
#
# Indices 1 2 3 4 5 6 
#
# 1 110.0543 48.6436 32.0165 0.0000 0.0000 6.4211
# 2 48.6436 110.0543 32.0165 0.0000 0.0000 -6.4211
# 3 32.0165 32.0165 102.6711 0.0000 0.0000 0.0000
# 4 0.0000 0.0000 0.0000 40.4842 0.0000 0.0000
# 5 0.0000 0.0000 0.0000 0.0000 40.4842 0.0000
# 6 6.4211 -6.4211 0.0000 0.0000 0.0000 21.4674
#
#
#
# Elastic Compliance Matrix: (Units=1/GPa)
#
#
# Indices 1 2 3 4 5 6 
#
# 1 0.012289 -0.005081 -0.002248 0.000000 0.000000 -0.005196
# 2 -0.005081 0.012289 -0.002248 0.000000 0.000000 0.005196
# 3 -0.002248 -0.002248 0.011142 0.000000 0.000000 0.000000
# 4 0.000000 0.000000 0.000000 0.024701 0.000000 0.000000
# 5 0.000000 0.000000 0.000000 0.000000 0.024701 0.000000
# 6 -0.005196 0.005196 0.000000 0.000000 0.000000 0.049690
#
#
# Mechanical properties :
#
#
# Convention : Reuss Voigt Hill
#
# Bulk Modulus (GPa) = 60.36077 60.90367 60.63222
# Shear Modulus (GPa) = 31.35027 34.49402 32.92215
#
# Velocity S-wave (km/s) = 3.76443 3.94867 3.85765
# Velocity P-wave (km/s) = 6.79550 6.95118 6.87378
#
# Compressibility (1/GPa) = 0.01656705
#
# Stress axis : x y z
#
# Youngs Moduli (GPa) = 81.37178 81.37178 89.75276
#
# Poissons Ratio (x) = 0.41345 0.20175
# Poissons Ratio (y) = 0.41345 0.20175
# Poissons Ratio (z) = 0.18291 0.18291
#
# Static dielectric constant tensor:
#      x y z
#    x 4.020960 0.000000 0.000000 
#    y 0.000000 4.020960 0.000000 
#    z 0.000000 0.000000 4.183870 
# 
# 
# High freq. dielectric constant tensor:
#      x y z
#    x 1.869240 0.000000 0.000000 
#    y 0.000000 1.869240 0.000000 
#    z 0.000000 0.000000 1.886360 
# 
# From -- ./inp_files/636.got.cif
#   From: 2010.03.12/outbox.cif.g09.slc.cpg/sg78_cif.got.tgz:636.got - 2010.04.16 16:37:20.
