data_PCOD8302874
_publ_section_title
;
Structure prediction by ZEFSAII (Michael W. Deem and Ramdas Pophale) SiO2 
 PCOD8302874
Probable space group: P 4/M
;
_chemical_formula_sum "Si O2"
_cell_formula_units_Z 40
_cell_length_a 11.291688
_cell_length_b 11.291688
_cell_length_c 14.857794
_cell_angle_alpha 90.000000
_cell_angle_beta 90.000000
_cell_angle_gamma 90.000000
_cell_volume 1894.401688
_symmetry_space_group_name_H-M "P 4/M"
_symmetry_group_IT_number 83
_symmetry_cell_setting 'tetragonal'
loop_
_space_group_symop_operation_xyz
x,y,z
-y,x,z
-x,-y,z
y,-x,z
-x,-y,-z
y,-x,-z
x,y,-z
-y,x,-z
loop_
_atom_site_type_symbol
_atom_site_label
_atom_site_fract_x
_atom_site_fract_y
_atom_site_fract_z
Si Si1 0.622971 0.933858 0.104148
Si Si2 0.675501 0.437428 0.106869
Si Si3 0.562572 0.675501 0.393131
Si Si4 0.933858 0.377029 0.604148
Si Si5 0.003838 0.804210 0.750000
O O1 0.607988 0.800940 0.143414
O O2 0.724384 0.998660 0.160483
O O3 0.500000 0.000000 0.118018
O O4 0.662022 0.935351 0.000000
O O5 0.649401 0.571264 0.141336
O O6 0.679727 0.440988 0.000000
O O7 0.428736 0.649401 0.358664
O O8 0.559012 0.679727 0.500000
O O9 0.607988 0.800940 0.356586
O O10 0.935351 0.337978 0.500000
O O11 0.998659 0.275616 0.660483
O O12 0.000000 0.500000 0.618018
O O13 0.885353 0.880335 0.750000
#
# Coordination Sequence:
#
# PCOD8302874 Si02
#       5
#     8   8   8   8   8
#     4  10  22  40  67  95 122 162 210 262 321 374
#     4   8  15  30  55  89 124 153 189 246 313 377
#     4   8  15  30  55  89 124 153 189 246 313 377
#     4  10  22  40  67  95 122 162 210 262 321 374
#     4  11  27  46  62  87 128 174 218 263 305 364
#
# _framework density 21.114847000000001
#
# number of rings (size 3 to 8) (size 9 to 14) (size 15 to 20)
#    0.000    2.600    0.000    1.800    5.600    1.600 
#    0.000    2.000    0.000    2.400    0.000    0.000 
#    0.000    0.000    0.000    0.000    0.000    0.000 
#
# Total GULP energy -495959.697011 kJ/mol
# GULP energy per Si atom -12398.992425 kJ/mol
# Density = 2.106679 g / cm^3
# Si number density = 21.114847 Si / 1000 Ang^3
#
#
#
# Elastic Constant Matrix: (Units=GPa)
#
#
# Indices 1 2 3 4 5 6 
#
# 1 89.4193 14.9953 44.8511 0.0000 0.0000 -1.3438
# 2 14.9953 89.4193 44.8511 0.0000 0.0000 1.3438
# 3 44.8511 44.8511 95.7547 0.0000 0.0000 0.0000
# 4 0.0000 0.0000 0.0000 -19.0798 0.0000 0.0000
# 5 0.0000 0.0000 0.0000 0.0000 -19.0798 0.0000
# 6 -1.3438 1.3438 0.0000 0.0000 0.0000 28.7447
#
#
#
# Elastic Compliance Matrix: (Units=1/GPa)
#
#
# Indices 1 2 3 4 5 6 
#
# 1 0.014743 0.001283 -0.007507 0.000000 0.000000 0.000629
# 2 0.001283 0.014743 -0.007507 0.000000 0.000000 -0.000629
# 3 -0.007507 -0.007507 0.017475 0.000000 0.000000 0.000000
# 4 0.000000 0.000000 0.000000 -0.052411 0.000000 0.000000
# 5 0.000000 0.000000 0.000000 0.000000 -0.052411 0.000000
# 6 0.000629 -0.000629 0.000000 0.000000 0.000000 0.034848
#
#
# Mechanical properties :
#
#
# Convention : Reuss Voigt Hill
#
# Bulk Modulus (GPa) = 51.27846 53.77649 52.52748
# Shear Modulus (GPa) = 456.80737 9.44340 233.12538
#
# Velocity S-wave (km/s) = 14.72460 2.11710 10.51893
# Velocity P-wave (km/s) = 17.70377 5.61249 13.13247
#
# Compressibility (1/GPa) = 0.01950136
#
# Stress axis : x y z
#
# Youngs Moduli (GPa) = 67.83038 67.83038 57.22324
#
# Poissons Ratio (x) = -0.08705 0.42955
# Poissons Ratio (y) = -0.08705 0.42955
# Poissons Ratio (z) = 0.50917 0.50917
#
# Static dielectric constant tensor:
#      x y z
#    x 3.995250 0.000000 0.000000 
#    y 0.000000 3.995250 0.000000 
#    z 0.000000 0.000000 3.538000 
# 
# 
# High freq. dielectric constant tensor:
#      x y z
#    x 1.829250 0.000000 0.000000 
#    y 0.000000 1.829250 0.000000 
#    z 0.000000 0.000000 1.815120 
# 
# From -- ./inp_files/2258.got.cif
#   From: 2010.03.12/outbox.cif.g09.slc.cpg/sg83_2_cif.got.tgz:2258.got - 2010.04.08 20:05:18.
