data_PCOD8302726
_publ_section_title
;
Structure prediction by ZEFSAII (Michael W. Deem and Ramdas Pophale) SiO2 
 PCOD8302726
Probable space group: P 4/M
;
_chemical_formula_sum "Si O2"
_cell_formula_units_Z 36
_cell_length_a 14.903656
_cell_length_b 14.903656
_cell_length_c 7.936801
_cell_angle_alpha 90.000000
_cell_angle_beta 90.000000
_cell_angle_gamma 90.000000
_cell_volume 1762.914001
_symmetry_space_group_name_H-M "P 4/M"
_symmetry_group_IT_number 83
_symmetry_cell_setting 'tetragonal'
loop_
_space_group_symop_operation_xyz
x,y,z
-y,x,z
-x,-y,z
y,-x,z
-x,-y,-z
y,-x,-z
x,y,-z
-y,x,-z
loop_
_atom_site_type_symbol
_atom_site_label
_atom_site_fract_x
_atom_site_fract_y
_atom_site_fract_z
Si Si1 0.468729 0.779286 0.312731
Si Si2 0.904328 0.683340 0.805197
Si Si3 0.352723 0.483040 0.000000
Si Si4 0.581252 0.931532 0.814633
Si Si5 0.874268 0.066665 0.301002
O O1 0.471824 0.735853 0.500000
O O2 0.374675 0.832036 0.296476
O O3 0.553572 0.847592 0.300970
O O4 0.475648 0.704435 0.170216
O O5 0.885318 0.788537 0.781663
O O6 0.007157 0.662915 0.742072
O O7 0.895317 0.655184 0.000000
O O8 0.421790 0.401348 0.000000
O O9 0.500000 0.000000 0.829067
O O10 0.604871 0.892951 0.000000
O O11 0.864843 0.070394 0.500000
O O12 0.963062 0.119134 0.241092
#
# Coordination Sequence:
#
# PCOD8302726 Si02
#       5
#     8   8   4   8   8
#     4  11  21  39  67  95 123 154 198 251 307 371
#     4  10  19  34  58  89 125 162 203 256 305 352
#     4  11  26  50  71  88 122 159 194 251 315 383
#     4   8  15  31  55  84 122 160 191 238 303 356
#     4   9  19  36  53  74 116 169 214 253 294 347
#
# _framework density 20.420735000000001
#
# number of rings (size 3 to 8) (size 9 to 14) (size 15 to 20)
#    0.000    2.333    2.222    2.667    0.000    6.667 
#    4.000    2.222    0.000    0.000    0.000    0.000 
#    0.000    0.000    0.000    0.000    0.000    0.000 
#
# Total GULP energy -446161.148399 kJ/mol
# GULP energy per Si atom -12393.365233 kJ/mol
# Density = 2.037426 g / cm^3
# Si number density = 20.420735 Si / 1000 Ang^3
#
#
#
# Elastic Constant Matrix: (Units=GPa)
#
#
# Indices 1 2 3 4 5 6 
#
# 1 83.6443 20.2179 41.8707 0.0000 0.0000 -0.4569
# 2 20.2179 83.6443 41.8707 0.0000 0.0000 0.4569
# 3 41.8707 41.8707 127.1206 0.0000 0.0000 0.0000
# 4 0.0000 0.0000 0.0000 19.0601 0.0000 0.0000
# 5 0.0000 0.0000 0.0000 0.0000 19.0601 0.0000
# 6 -0.4569 0.4569 0.0000 0.0000 0.0000 17.3403
#
#
#
# Elastic Compliance Matrix: (Units=1/GPa)
#
#
# Indices 1 2 3 4 5 6 
#
# 1 0.014441 -0.001331 -0.004318 0.000000 0.000000 0.000416
# 2 -0.001331 0.014441 -0.004318 0.000000 0.000000 -0.000416
# 3 -0.004318 -0.004318 0.010711 0.000000 0.000000 0.000000
# 4 0.000000 0.000000 0.000000 0.052466 0.000000 0.000000
# 5 0.000000 0.000000 0.000000 0.000000 0.052466 0.000000
# 6 0.000416 -0.000416 0.000000 0.000000 0.000000 0.057691
#
#
# Mechanical properties :
#
#
# Convention : Reuss Voigt Hill
#
# Bulk Modulus (GPa) = 50.86918 55.81419 53.34169
# Shear Modulus (GPa) = 21.86244 23.78877 22.82561
#
# Velocity S-wave (km/s) = 3.27555 3.41681 3.34693
# Velocity P-wave (km/s) = 6.26660 6.55420 6.41202
#
# Compressibility (1/GPa) = 0.01965827
#
# Stress axis : x y z
#
# Youngs Moduli (GPa) = 69.24748 69.24748 93.36144
#
# Poissons Ratio (x) = 0.09219 0.40314
# Poissons Ratio (y) = 0.09219 0.40314
# Poissons Ratio (z) = 0.29901 0.29901
#
# Static dielectric constant tensor:
#      x y z
#    x 3.829740 0.000000 0.000000 
#    y 0.000000 3.829740 0.000000 
#    z 0.000000 0.000000 3.541390 
# 
# 
# High freq. dielectric constant tensor:
#      x y z
#    x 1.781290 0.000000 0.000000 
#    y 0.000000 1.781290 0.000000 
#    z 0.000000 0.000000 1.792240 
# 
# From -- ./inp_files/565.got.cif
#   From: 2010.03.12/outbox.cif.g09.slc.cpg/sg83_1_cif.got.tgz:565.got - 2010.04.08 20:05:18.
