data_PCOD8302234
_publ_section_title
;
Structure prediction by ZEFSAII (Michael W. Deem and Ramdas Pophale) SiO2 
 PCOD8302234
Probable space group: I 41
;
_chemical_formula_sum "Si O2"
_cell_formula_units_Z 40
_cell_length_a 13.259962
_cell_length_b 13.259962
_cell_length_c 9.750309
_cell_angle_alpha 90.000000
_cell_angle_beta 90.000000
_cell_angle_gamma 90.000000
_cell_volume 1714.363605
_symmetry_space_group_name_H-M "I 41"
_symmetry_group_IT_number 80
_symmetry_cell_setting 'tetragonal'
loop_
_space_group_symop_operation_xyz
x,y,z
-y,1/2+x,1/4+z
-x,-y,z
y,1/2-x,1/4+z
1/2+x,1/2+y,1/2+z
1/2-y,x,3/4+z
1/2-x,1/2-y,1/2+z
1/2+y,-x,3/4+z
loop_
_atom_site_type_symbol
_atom_site_label
_atom_site_fract_x
_atom_site_fract_y
_atom_site_fract_z
Si Si1 0.006947 0.774647 0.076890
Si Si2 0.393656 0.046237 0.087800
Si Si3 0.093670 0.423862 0.083795
Si Si4 0.791630 0.325453 0.961293
Si Si5 0.459084 0.274330 0.103162
O O1 0.007662 0.858815 0.196727
O O2 0.940222 0.684807 0.139569
O O3 0.967326 0.827649 0.941465
O O4 0.110951 0.720072 0.037080
O O5 0.404825 0.167170 0.084283
O O6 0.313464 0.014766 0.202466
O O7 0.500000 0.000000 0.129772
O O8 0.000000 0.500000 0.060184
O O9 0.145696 0.391494 0.937740
O O10 0.780415 0.297808 0.802364
O O11 0.778811 0.445487 0.958000
#
# Coordination Sequence:
#
# PCOD8302234 Si02
#       5
#     8   8   8   8   8
#     4  12  26  47  73 109 151 200 249 320 387 465
#     4  12  29  47  77 112 160 193 258 323 389 465
#     4  12  24  47  74 104 152 196 261 310 386 468
#     4  12  27  47  76 109 145 203 260 314 381 462
#     4  12  26  49  76 109 150 206 249 320 389 459
#
# _framework density 23.332274000000002
#
# number of rings (size 3 to 8) (size 9 to 14) (size 15 to 20)
#    0.000    0.000    4.000    4.800    5.600    4.800 
#    0.000    0.000    0.000    0.000    0.000    0.000 
#    0.000    0.000    0.000    0.000    0.000    0.000 
#
# Total GULP energy -247864.573435 kJ/mol
# GULP energy per Si atom -12393.228672 kJ/mol
# Density = 2.327917 g / cm^3
# Si number density = 23.332274 Si / 1000 Ang^3
#
#
#
# Elastic Constant Matrix: (Units=GPa)
#
#
# Indices 1 2 3 4 5 6 
#
# 1 76.4502 24.6883 17.0543 0.0000 0.0000 2.5030
# 2 24.6883 76.4502 17.0543 0.0000 0.0000 -2.5030
# 3 17.0543 17.0543 125.1242 0.0000 0.0000 0.0000
# 4 0.0000 0.0000 0.0000 41.7919 0.0000 0.0000
# 5 0.0000 0.0000 0.0000 0.0000 41.7919 0.0000
# 6 2.5030 -2.5030 0.0000 0.0000 0.0000 31.2105
#
#
#
# Elastic Compliance Matrix: (Units=1/GPa)
#
#
# Indices 1 2 3 4 5 6 
#
# 1 0.014917 -0.004553 -0.001413 0.000000 0.000000 -0.001561
# 2 -0.004553 0.014917 -0.001413 0.000000 0.000000 0.001561
# 3 -0.001413 -0.001413 0.008377 0.000000 0.000000 0.000000
# 4 0.000000 0.000000 0.000000 0.023928 0.000000 0.000000
# 5 0.000000 0.000000 0.000000 0.000000 0.023928 0.000000
# 6 -0.001561 0.001561 0.000000 0.000000 0.000000 0.032291
#
#
# Mechanical properties :
#
#
# Convention : Reuss Voigt Hill
#
# Bulk Modulus (GPa) = 42.63584 43.95760 43.29672
# Shear Modulus (GPa) = 35.47780 37.57403 36.52592
#
# Velocity S-wave (km/s) = 3.90365 4.01732 3.96089
# Velocity P-wave (km/s) = 6.21538 6.35604 6.28610
#
# Compressibility (1/GPa) = 0.02345445
#
# Stress axis : x y z
#
# Youngs Moduli (GPa) = 67.03750 67.03750 119.37274
#
# Poissons Ratio (x) = 0.30524 0.16862
# Poissons Ratio (y) = 0.30524 0.16862
# Poissons Ratio (z) = 0.09470 0.09470
#
# Static dielectric constant tensor:
#      x y z
#    x 4.351900 0.000000 0.000000 
#    y 0.000000 4.351900 0.000000 
#    z 0.000000 0.000000 4.188600 
# 
# 
# High freq. dielectric constant tensor:
#      x y z
#    x 1.928100 0.000000 0.000000 
#    y 0.000000 1.928100 0.000000 
#    z 0.000000 0.000000 1.939280 
# 
# From -- ./inp_files/616.got.cif
#   From: 2010.03.12/outbox.cif.g09.slc.cpg/sg80_cif.got.tgz:616.got - 2010.04.08 20:00:04.
