data_PCOD8302551
_publ_section_title
;
Structure prediction by ZEFSAII (Michael W. Deem and Ramdas Pophale) SiO2 
 PCOD8302551
Probable space group: I -4 
;
_chemical_formula_sum "Si O2"
_cell_formula_units_Z 48
_cell_length_a 19.257264
_cell_length_b 19.257264
_cell_length_c 5.360097
_cell_angle_alpha 90.000000
_cell_angle_beta 90.000000
_cell_angle_gamma 90.000000
_cell_volume 1987.750254
_symmetry_space_group_name_H-M "I -4 "
_symmetry_group_IT_number 82
_symmetry_cell_setting 'tetragonal'
loop_
_space_group_symop_operation_xyz
x,y,z
y,-x,-z
-x,-y,z
-y,x,-z
1/2+x,1/2+y,1/2+z
1/2+y,1/2-x,1/2-z
1/2-x,1/2-y,1/2+z
1/2-y,1/2+x,1/2-z
loop_
_atom_site_type_symbol
_atom_site_label
_atom_site_fract_x
_atom_site_fract_y
_atom_site_fract_z
Si Si1 0.162492 0.391036 0.646338
Si Si2 0.147125 0.271673 0.271183
Si Si3 0.045455 0.307186 0.887411
Si Si4 0.935808 0.148371 0.214507
Si Si5 0.334781 0.733725 0.990577
Si Si6 0.336257 0.520976 0.789693
O O1 0.154804 0.345428 0.402446
O O2 0.156740 0.471465 0.570694
O O3 0.098808 0.368951 0.825879
O O4 0.236218 0.380494 0.782894
O O5 0.071934 0.268407 0.140403
O O6 0.210919 0.274028 0.071138
O O7 0.160611 0.202722 0.434060
O O8 0.045592 0.244989 0.681464
O O9 0.886542 0.215319 0.264390
O O10 0.889147 0.080132 0.208905
O O11 0.989601 0.140789 0.444861
O O12 0.967215 0.160412 0.941898
#
# Coordination Sequence:
#
# PCOD8302551 Si02
#       6
#     8   8   8   8   8   8
#     4  11  24  48  71 108 154 196 260 317 397 465
#     4  11  24  41  74 107 147 196 265 321 396 455
#     4  11  27  44  74 109 151 202 256 325 393 477
#     4  12  28  47  76 107 160 202 263 316 394 468
#     4  11  23  42  73 108 145 201 256 338 383 457
#     4  12  28  48  76 112 152 212 258 322 392 469
#
# _framework density 24.147904
#
# number of rings (size 3 to 8) (size 9 to 14) (size 15 to 20)
#    0.000    0.667    3.333    3.000    9.333    5.000 
#    0.000    0.000    0.000    0.000    0.000    0.000 
#    0.000    0.000    0.000    0.000    0.000    0.000 
#
# Total GULP energy -297607.327877 kJ/mol
# GULP energy per Si atom -12400.305328 kJ/mol
# Density = 2.409294 g / cm^3
# Si number density = 24.147904 Si / 1000 Ang^3
#
#
#
# Elastic Constant Matrix: (Units=GPa)
#
#
# Indices 1 2 3 4 5 6 
#
# 1 102.6168 25.4501 11.5424 0.0000 0.0000 -9.3991
# 2 25.4501 102.6168 11.5424 0.0000 0.0000 9.3991
# 3 11.5424 11.5424 77.0389 0.0000 0.0000 0.0000
# 4 0.0000 0.0000 0.0000 36.0124 0.0000 0.0000
# 5 0.0000 0.0000 0.0000 0.0000 36.0124 0.0000
# 6 -9.3991 9.3991 0.0000 0.0000 0.0000 37.9257
#
#
#
# Elastic Compliance Matrix: (Units=1/GPa)
#
#
# Indices 1 2 3 4 5 6 
#
# 1 0.010908 -0.002883 -0.001202 0.000000 0.000000 0.003418
# 2 -0.002883 0.010908 -0.001202 0.000000 0.000000 -0.003418
# 3 -0.001202 -0.001202 0.013341 0.000000 0.000000 0.000000
# 4 0.000000 0.000000 0.000000 0.027768 0.000000 0.000000
# 5 0.000000 0.000000 0.000000 0.000000 0.027768 0.000000
# 6 0.003418 -0.003418 0.000000 0.000000 0.000000 0.028062
#
#
# Mechanical properties :
#
#
# Convention : Reuss Voigt Hill
#
# Bulk Modulus (GPa) = 40.68092 42.14917 41.41505
# Shear Modulus (GPa) = 36.35698 37.57261 36.96479
#
# Velocity S-wave (km/s) = 3.88441 3.94882 3.91675
# Velocity P-wave (km/s) = 6.08287 6.18735 6.13533
#
# Compressibility (1/GPa) = 0.02458155
#
# Stress axis : x y z
#
# Youngs Moduli (GPa) = 91.67273 91.67273 74.95832
#
# Poissons Ratio (x) = 0.26431 0.09013
# Poissons Ratio (y) = 0.26431 0.09013
# Poissons Ratio (z) = 0.11023 0.11023
#
# Static dielectric constant tensor:
#      x y z
#    x 4.410690 0.000000 0.000000 
#    y 0.000000 4.410690 0.000000 
#    z 0.000000 0.000000 4.337550 
# 
# 
# High freq. dielectric constant tensor:
#      x y z
#    x 1.961010 0.000000 0.000000 
#    y 0.000000 1.961010 0.000000 
#    z 0.000000 0.000000 1.965530 
# 
# From -- ./inp_files/339.got.cif
#   From: 2010.03.12/outbox.cif.g09.slc.cpg/sg82_1_cif.got.tgz:339.got - 2010.04.08 20:02:50.
