data_PCOD8302877
_publ_section_title
;
Structure prediction by ZEFSAII (Michael W. Deem and Ramdas Pophale) SiO2 
 PCOD8302877
Probable space group: P 4/M
;
_chemical_formula_sum "Si O2"
_cell_formula_units_Z 36
_cell_length_a 14.190895
_cell_length_b 14.190895
_cell_length_c 8.922175
_cell_angle_alpha 90.000000
_cell_angle_beta 90.000000
_cell_angle_gamma 90.000000
_cell_volume 1796.760993
_symmetry_space_group_name_H-M "P 4/M"
_symmetry_group_IT_number 83
_symmetry_cell_setting 'tetragonal'
loop_
_space_group_symop_operation_xyz
x,y,z
-y,x,z
-x,-y,z
y,-x,z
-x,-y,-z
y,-x,-z
x,y,-z
-y,x,-z
loop_
_atom_site_type_symbol
_atom_site_label
_atom_site_fract_x
_atom_site_fract_y
_atom_site_fract_z
Si Si1 0.405968 0.620446 0.500000
Si Si2 0.108999 0.506878 0.323292
Si Si3 0.298070 0.151260 0.823818
Si Si4 0.327681 0.777747 0.332688
Si Si5 0.962223 0.147718 0.325645
O O1 0.368413 0.516814 0.500000
O O2 0.369639 0.672394 0.350470
O O3 0.126592 0.516522 0.500000
O O4 0.155755 0.598160 0.247459
O O5 0.156201 0.409831 0.263719
O O6 0.000000 0.500000 0.280475
O O7 0.231403 0.238736 0.775990
O O8 0.242506 0.058176 0.767975
O O9 0.309702 0.149312 0.000000
O O10 0.296996 0.815708 0.500000
O O11 0.955206 0.172942 0.500000
O O12 0.066520 0.112878 0.284159
#
# Coordination Sequence:
#
# PCOD8302877 Si02
#       5
#     4   8   8   8   8
#     4   9  16  30  59  88 110 139 191 260 308 342
#     4  10  22  41  65  93 121 159 215 268 308 353
#     4  12  25  38  59  90 132 169 196 243 315 390
#     4   9  20  37  61  83 116 155 207 258 292 355
#     4   9  20  40  65  88 113 153 211 265 302 351
#
# _framework density 20.036052999999999
#
# number of rings (size 3 to 8) (size 9 to 14) (size 15 to 20)
#    0.667    1.444    0.000    4.000    3.111    2.222 
#    0.000    1.111    0.000    0.000    0.000    4.667 
#    0.000    0.000    0.000    0.000    0.000    0.000 
#
# Total GULP energy -446247.879143 kJ/mol
# GULP energy per Si atom -12395.774421 kJ/mol
# Density = 1.999045 g / cm^3
# Si number density = 20.036053 Si / 1000 Ang^3
#
#
#
# Elastic Constant Matrix: (Units=GPa)
#
#
# Indices 1 2 3 4 5 6 
#
# 1 87.8826 13.7504 29.4380 0.0000 0.0000 0.3663
# 2 13.7504 87.8826 29.4380 0.0000 0.0000 -0.3663
# 3 29.4380 29.4380 70.4188 0.0000 0.0000 0.0000
# 4 0.0000 0.0000 0.0000 9.9295 0.0000 0.0000
# 5 0.0000 0.0000 0.0000 0.0000 9.9295 0.0000
# 6 0.3663 -0.3663 0.0000 0.0000 0.0000 43.8905
#
#
#
# Elastic Compliance Matrix: (Units=1/GPa)
#
#
# Indices 1 2 3 4 5 6 
#
# 1 0.013237 -0.000253 -0.005428 0.000000 0.000000 -0.000113
# 2 -0.000253 0.013237 -0.005428 0.000000 0.000000 0.000113
# 3 -0.005428 -0.005428 0.018739 0.000000 0.000000 0.000000
# 4 0.000000 0.000000 0.000000 0.100710 0.000000 0.000000
# 5 0.000000 0.000000 0.000000 0.000000 0.100710 0.000000
# 6 -0.000113 0.000113 0.000000 0.000000 0.000000 0.022786
#
#
# Mechanical properties :
#
#
# Convention : Reuss Voigt Hill
#
# Bulk Modulus (GPa) = 43.48737 43.49299 43.49018
# Shear Modulus (GPa) = 16.70552 24.32038 20.51295
#
# Velocity S-wave (km/s) = 2.89065 3.48779 3.20316
# Velocity P-wave (km/s) = 5.73522 6.16231 5.95260
#
# Compressibility (1/GPa) = 0.02299518
#
# Stress axis : x y z
#
# Youngs Moduli (GPa) = 75.54546 75.54546 53.36529
#
# Poissons Ratio (x) = 0.01915 0.28965
# Poissons Ratio (y) = 0.01915 0.28965
# Poissons Ratio (z) = 0.41004 0.41004
#
# Static dielectric constant tensor:
#      x y z
#    x 3.687620 0.000000 0.000000 
#    y 0.000000 3.687620 0.000000 
#    z 0.000000 0.000000 3.167930 
# 
# 
# High freq. dielectric constant tensor:
#      x y z
#    x 1.793590 0.000000 0.000000 
#    y 0.000000 1.793590 0.000000 
#    z 0.000000 0.000000 1.732350 
# 
# From -- ./inp_files/530.got.cif
#   From: 2010.03.12/outbox.cif.g09.slc.cpg/sg83_1_cif.got.tgz:530.got - 2010.04.08 20:05:18.
