data_PCOD8302141
_publ_section_title
;
Structure prediction by ZEFSAII (Michael W. Deem and Ramdas Pophale) SiO2 
 PCOD8302141
Probable space group: I 41
;
_chemical_formula_sum "Si O2"
_cell_formula_units_Z 48
_cell_length_a 9.753639
_cell_length_b 9.753639
_cell_length_c 28.758699
_cell_angle_alpha 90.000000
_cell_angle_beta 90.000000
_cell_angle_gamma 90.000000
_cell_volume 2735.914936
_symmetry_space_group_name_H-M "I 41"
_symmetry_group_IT_number 80
_symmetry_cell_setting 'tetragonal'
loop_
_space_group_symop_operation_xyz
x,y,z
-y,1/2+x,1/4+z
-x,-y,z
y,1/2-x,1/4+z
1/2+x,1/2+y,1/2+z
1/2-y,x,3/4+z
1/2-x,1/2-y,1/2+z
1/2+y,-x,3/4+z
loop_
_atom_site_type_symbol
_atom_site_label
_atom_site_fract_x
_atom_site_fract_y
_atom_site_fract_z
Si Si1 0.160057 0.487032 0.000000
Si Si2 0.655076 0.034016 0.840867
Si Si3 0.152498 0.784405 0.997478
Si Si4 0.224463 0.371116 0.195240
Si Si5 0.363598 0.089463 0.596868
Si Si6 0.657811 0.018253 0.945431
O O1 0.188845 0.370921 0.961759
O O2 0.000000 0.500000 0.011213
O O3 0.206841 0.634699 0.981229
O O4 0.223014 0.456046 0.051250
O O5 0.709672 0.145346 0.803761
O O6 0.663605 0.087309 0.894090
O O7 0.500000 0.000000 0.827021
O O8 0.751386 0.900624 0.837337
O O9 0.271717 0.883534 0.982022
O O10 0.001897 0.821216 0.976519
O O11 0.234261 0.422654 0.141941
O O12 0.122249 0.242979 0.198089
O O13 0.500000 0.000000 0.607545
O O14 0.500000 0.000000 0.960466
#
# Coordination Sequence:
#
# PCOD8302141 Si02
#       6
#     8   8   8   8   8   8
#     4   9  18  31  49  83 114 134 174 229 269 313
#     4  10  18  30  52  82 104 133 178 230 269 303
#     4  11  19  33  57  79 107 141 181 224 268 323
#     4  10  18  31  57  80 103 141 178 219 270 320
#     4  10  16  30  48  81 114 133 174 228 270 308
#     4  10  22  35  53  81 111 139 182 224 267 322
#
# _framework density 17.544407
#
# number of rings (size 3 to 8) (size 9 to 14) (size 15 to 20)
#    0.000    2.000    5.000    3.500    0.000    0.000 
#    0.000    0.833    3.667    0.000    0.000    0.000 
#    0.000    0.000    0.000    0.000    0.000    0.000 
#
# Total GULP energy -297393.595665 kJ/mol
# GULP energy per Si atom -12391.399819 kJ/mol
# Density = 1.750448 g / cm^3
# Si number density = 17.544407 Si / 1000 Ang^3
#
#
#
# Elastic Constant Matrix: (Units=GPa)
#
#
# Indices 1 2 3 4 5 6 
#
# 1 92.8646 33.3919 38.9707 0.0000 0.0000 1.3806
# 2 33.3919 92.8646 38.9707 0.0000 0.0000 -1.3806
# 3 38.9707 38.9707 113.3619 0.0000 0.0000 0.0000
# 4 0.0000 0.0000 0.0000 20.9972 0.0000 0.0000
# 5 0.0000 0.0000 0.0000 0.0000 20.9972 0.0000
# 6 1.3806 -1.3806 0.0000 0.0000 0.0000 10.3464
#
#
#
# Elastic Compliance Matrix: (Units=1/GPa)
#
#
# Indices 1 2 3 4 5 6 
#
# 1 0.013487 -0.003433 -0.003456 0.000000 0.000000 -0.002258
# 2 -0.003433 0.013487 -0.003456 0.000000 0.000000 0.002258
# 3 -0.003456 -0.003456 0.011198 0.000000 0.000000 0.000000
# 4 0.000000 0.000000 0.000000 0.047625 0.000000 0.000000
# 5 0.000000 0.000000 0.000000 0.000000 0.047625 0.000000
# 6 -0.002258 0.002258 0.000000 0.000000 0.000000 0.097255
#
#
# Mechanical properties :
#
#
# Convention : Reuss Voigt Hill
#
# Bulk Modulus (GPa) = 57.20644 57.97307 57.58975
# Shear Modulus (GPa) = 19.44059 22.98535 21.21297
#
# Velocity S-wave (km/s) = 3.33239 3.62349 3.48099
# Velocity P-wave (km/s) = 6.89086 7.11489 7.00377
#
# Compressibility (1/GPa) = 0.01748055
#
# Stress axis : x y z
#
# Youngs Moduli (GPa) = 74.14741 74.14742 89.30428
#
# Poissons Ratio (x) = 0.25452 0.30866
# Poissons Ratio (y) = 0.25452 0.30866
# Poissons Ratio (z) = 0.25628 0.25628
#
# Static dielectric constant tensor:
#      x y z
#    x 3.223420 0.000000 0.000000 
#    y 0.000000 3.223420 0.000000 
#    z 0.000000 0.000000 3.503040 
# 
# 
# High freq. dielectric constant tensor:
#      x y z
#    x 1.650000 0.000000 0.000000 
#    y 0.000000 1.650000 0.000000 
#    z 0.000000 0.000000 1.693800 
# 
# From -- ./inp_files/2604.got.cif
#   From: 2010.03.12/outbox.cif.g09.slc.cpg/sg80_cif.got.tgz:2604.got - 2010.04.08 20:00:04.
