data_PCOD8302633
_publ_section_title
;
Structure prediction by ZEFSAII (Michael W. Deem and Ramdas Pophale) SiO2 
 PCOD8302633
Probable space group: P 4/M
;
_chemical_formula_sum "Si O2"
_cell_formula_units_Z 64
_cell_length_a 19.717457
_cell_length_b 19.717457
_cell_length_c 9.242354
_cell_angle_alpha 90.000000
_cell_angle_beta 90.000000
_cell_angle_gamma 90.000000
_cell_volume 3593.224925
_symmetry_space_group_name_H-M "P 4/M"
_symmetry_group_IT_number 83
_symmetry_cell_setting 'tetragonal'
loop_
_space_group_symop_operation_xyz
x,y,z
-y,x,z
-x,-y,z
y,-x,z
-x,-y,-z
y,-x,-z
x,y,-z
-y,x,-z
loop_
_atom_site_type_symbol
_atom_site_label
_atom_site_fract_x
_atom_site_fract_y
_atom_site_fract_z
Si Si1 0.406207 0.299322 0.162747
Si Si2 0.102092 0.495434 0.330511
Si Si3 0.688821 0.203881 0.165260
Si Si4 0.649717 0.929684 0.332838
Si Si5 0.424217 0.419721 0.339073
Si Si6 0.458860 0.770412 0.161795
Si Si7 0.215586 0.699174 0.330301
Si Si8 0.056980 0.367769 0.170487
O O1 0.385827 0.373224 0.223153
O O2 0.488265 0.291626 0.170097
O O3 0.369420 0.242823 0.257620
O O4 0.378562 0.293845 0.000000
O O5 0.091691 0.482135 0.500000
O O6 0.086535 0.572500 0.288466
O O7 0.179035 0.481555 0.286682
O O8 0.054865 0.442381 0.244086
O O9 0.620192 0.249364 0.187715
O O10 0.749087 0.233951 0.263485
O O11 0.672024 0.126355 0.209798
O O12 0.713720 0.207289 0.000000
O O13 0.654520 0.950358 0.500000
O O14 0.698775 0.865363 0.301503
O O15 0.674328 0.993412 0.235724
O O16 0.503317 0.406086 0.314651
O O17 0.403224 0.396562 0.500000
O O18 0.462982 0.804283 0.000000
O O19 0.231354 0.696603 0.500000
O O20 0.048639 0.376020 0.000000
#
# Coordination Sequence:
#
# PCOD8302633 Si02
#       8
#     8   8   8   8   8   8   8   8
#     4  11  22  34  51  73  98 129 167 214 265 316
#     4  10  18  31  50  73 104 137 169 211 255 299
#     4   9  20  38  54  75 105 136 173 218 259 307
#     4  10  21  35  51  76 108 137 173 216 258 311
#     4   9  20  38  54  68  88 116 158 215 274 328
#     4   9  19  34  50  70  99 131 170 214 256 307
#     4  11  23  38  54  77 106 139 177 216 262 315
#     4  10  21  35  54  78 105 137 177 216 256 313
#
# _framework density 17.811298000000001
#
# number of rings (size 3 to 8) (size 9 to 14) (size 15 to 20)
#    0.000    2.125    1.250    3.000    1.750    7.000 
#    0.000    0.625    0.000    0.000    0.000    0.000 
#    0.000    0.500    0.000    5.500    0.000    4.000 
#
# Total GULP energy -793209.542037 kJ/mol
# GULP energy per Si atom -12393.899094 kJ/mol
# Density = 1.777076 g / cm^3
# Si number density = 17.811298 Si / 1000 Ang^3
#
#
#
# Elastic Constant Matrix: (Units=GPa)
#
#
# Indices 1 2 3 4 5 6 
#
# 1 104.4664 4.9299 46.9980 0.0000 0.0000 13.7386
# 2 4.9299 104.4664 46.9980 0.0000 0.0000 -13.7386
# 3 46.9980 46.9980 98.2487 0.0000 0.0000 0.0000
# 4 0.0000 0.0000 0.0000 25.3972 0.0000 0.0000
# 5 0.0000 0.0000 0.0000 0.0000 25.3972 0.0000
# 6 13.7386 -13.7386 0.0000 0.0000 0.0000 19.6637
#
#
#
# Elastic Compliance Matrix: (Units=1/GPa)
#
#
# Indices 1 2 3 4 5 6 
#
# 1 0.013984 0.001536 -0.007424 0.000000 0.000000 -0.008697
# 2 0.001536 0.013984 -0.007424 0.000000 0.000000 0.008697
# 3 -0.007424 -0.007424 0.017281 0.000000 0.000000 0.000000
# 4 0.000000 0.000000 0.000000 0.039374 0.000000 0.000000
# 5 0.000000 0.000000 0.000000 0.000000 0.039374 0.000000
# 6 -0.008697 0.008697 0.000000 0.000000 0.000000 0.063007
#
#
# Mechanical properties :
#
#
# Convention : Reuss Voigt Hill
#
# Bulk Modulus (GPa) = 53.69235 56.11480 54.90358
# Shear Modulus (GPa) = 22.74416 27.97534 25.35975
#
# Velocity S-wave (km/s) = 3.57732 3.96744 3.77742
# Velocity P-wave (km/s) = 6.87558 7.24990 7.06522
#
# Compressibility (1/GPa) = 0.01862463
#
# Stress axis : x y z
#
# Youngs Moduli (GPa) = 71.51187 71.51187 57.86686
#
# Poissons Ratio (x) = -0.10987 0.42961
# Poissons Ratio (y) = -0.10987 0.42961
# Poissons Ratio (z) = 0.53091 0.53091
#
# Static dielectric constant tensor:
#      x y z
#    x 3.163340 0.000000 0.000000 
#    y 0.000000 3.163340 0.000000 
#    z 0.000000 0.000000 3.352220 
# 
# 
# High freq. dielectric constant tensor:
#      x y z
#    x 1.664810 0.000000 0.000000 
#    y 0.000000 1.664810 0.000000 
#    z 0.000000 0.000000 1.700270 
# 
# From -- ./inp_files/1262.got.cif
#   From: 2010.03.12/outbox.cif.g09.slc.cpg/sg83_1_cif.got.tgz:1262.got - 2010.04.08 20:05:18.
