data_PCOD8302336
_publ_section_title
;
Structure prediction by ZEFSAII (Michael W. Deem and Ramdas Pophale) SiO2 
 PCOD8302336
Probable space group: P -4
;
_chemical_formula_sum "Si O2"
_cell_formula_units_Z 17
_cell_length_a 12.991001
_cell_length_b 12.991001
_cell_length_c 4.988288
_cell_angle_alpha 90.000000
_cell_angle_beta 90.000000
_cell_angle_gamma 90.000000
_cell_volume 841.853946
_symmetry_space_group_name_H-M "P -4"
_symmetry_group_IT_number 81
_symmetry_cell_setting 'tetragonal'
loop_
_space_group_symop_operation_xyz
x,y,z
y,-x,-z
-x,-y,z
-y,x,-z
loop_
_atom_site_type_symbol
_atom_site_label
_atom_site_fract_x
_atom_site_fract_y
_atom_site_fract_z
Si Si1 0.618421 0.981073 0.235123
Si Si2 0.284630 0.448043 0.212594
Si Si3 0.352293 0.152061 0.725065
Si Si4 0.500000 0.500000 0.000000
Si Si5 0.208910 0.330088 0.714978
O O1 0.664689 0.896898 0.434527
O O2 0.500000 0.000000 0.307897
O O3 0.680614 0.086143 0.280612
O O4 0.630543 0.940276 0.933721
O O5 0.230674 0.553430 0.292768
O O6 0.255179 0.360244 0.425488
O O7 0.407766 0.462515 0.194330
O O8 0.242870 0.417615 0.921780
O O9 0.251801 0.218365 0.798821
#
# Coordination Sequence:
#
# PCOD8302336 Si02
#       5
#     4   4   4   1   4
#     4  12  23  43  68  94 125 172 226 269 314 384
#     4  12  24  39  61  93 133 179 209 246 311 404
#     4  12  24  41  65  95 128 169 218 270 323 374
#     4  12  28  38  60  98 152 182 200 246 332 422
#     4  12  26  41  65  94 130 169 218 269 321 381
#
# _framework density 20.193525999999999
#
# number of rings (size 3 to 8) (size 9 to 14) (size 15 to 20)
#    0.000    0.000    7.059    3.529    3.294    0.941 
#    0.000    0.000    0.000    4.235    0.000    0.000 
#    0.000    0.000    0.000    0.000    0.000    0.000 
#
# Total GULP energy -210949.260215 kJ/mol
# GULP energy per Si atom -12408.780013 kJ/mol
# Density = 2.014757 g / cm^3
# Si number density = 20.193526 Si / 1000 Ang^3
#
#
#
# Elastic Constant Matrix: (Units=GPa)
#
#
# Indices 1 2 3 4 5 6 
#
# 1 106.7186 32.8107 13.6942 0.0000 0.0000 -4.8727
# 2 32.8107 106.7186 13.6942 0.0000 0.0000 4.8727
# 3 13.6942 13.6942 83.1059 0.0000 0.0000 0.0000
# 4 0.0000 0.0000 0.0000 25.6620 0.0000 0.0000
# 5 0.0000 0.0000 0.0000 0.0000 25.6620 0.0000
# 6 -4.8727 4.8727 0.0000 0.0000 0.0000 19.6878
#
#
#
# Elastic Compliance Matrix: (Units=1/GPa)
#
#
# Indices 1 2 3 4 5 6 
#
# 1 0.010697 -0.003290 -0.001220 0.000000 0.000000 0.003462
# 2 -0.003290 0.010697 -0.001220 0.000000 0.000000 -0.003462
# 3 -0.001220 -0.001220 0.012435 0.000000 0.000000 0.000000
# 4 0.000000 0.000000 0.000000 0.038968 0.000000 0.000000
# 5 0.000000 0.000000 0.000000 0.000000 0.038968 0.000000
# 6 0.003462 -0.003462 0.000000 0.000000 0.000000 0.052506
#
#
# Mechanical properties :
#
#
# Convention : Reuss Voigt Hill
#
# Bulk Modulus (GPa) = 44.71011 46.32679 45.51845
# Shear Modulus (GPa) = 27.29426 29.95862 28.62644
#
# Velocity S-wave (km/s) = 3.68045 3.85590 3.76919
# Velocity P-wave (km/s) = 6.34427 6.54333 6.44457
#
# Compressibility (1/GPa) = 0.02236631
#
# Stress axis : x y z
#
# Youngs Moduli (GPa) = 93.48714 93.48714 80.41788
#
# Poissons Ratio (x) = 0.30759 0.09815
# Poissons Ratio (y) = 0.30759 0.09815
# Poissons Ratio (z) = 0.11410 0.11410
#
# Static dielectric constant tensor:
#      x y z
#    x 3.675330 0.000000 0.000000 
#    y 0.000000 3.675330 0.000000 
#    z 0.000000 0.000000 3.666380 
# 
# 
# High freq. dielectric constant tensor:
#      x y z
#    x 1.779760 0.000000 0.000000 
#    y 0.000000 1.779760 0.000000 
#    z 0.000000 0.000000 1.804090 
# 
# From -- ./inp_files/182.got.cif
#   From: 2010.03.12/outbox.cif.g09.slc.cpg/sg81_cif.got.tgz:182.got - 2010.04.08 20:01:38.
