data_PCOD8302812
_publ_section_title
;
Structure prediction by ZEFSAII (Michael W. Deem and Ramdas Pophale) SiO2 
 PCOD8302812
Probable space group: P 4/M
;
_chemical_formula_sum "Si O2"
_cell_formula_units_Z 44
_cell_length_a 15.576651
_cell_length_b 15.576651
_cell_length_c 10.082667
_cell_angle_alpha 90.000000
_cell_angle_beta 90.000000
_cell_angle_gamma 90.000000
_cell_volume 2446.378228
_symmetry_space_group_name_H-M "P 4/M"
_symmetry_group_IT_number 83
_symmetry_cell_setting 'tetragonal'
loop_
_space_group_symop_operation_xyz
x,y,z
-y,x,z
-x,-y,z
y,-x,z
-x,-y,-z
y,-x,-z
x,y,-z
-y,x,-z
loop_
_atom_site_type_symbol
_atom_site_label
_atom_site_fract_x
_atom_site_fract_y
_atom_site_fract_z
Si Si1 0.732470 0.510635 0.747184
Si Si2 0.657596 0.680747 0.854268
Si Si3 0.532568 0.636719 0.500000
Si Si4 0.052050 0.875991 0.842702
Si Si5 0.091570 0.543501 0.656337
Si Si6 0.698725 0.869261 0.842779
O O1 0.687868 0.603144 0.759525
O O2 0.704087 0.444571 0.862976
O O3 0.695530 0.454604 0.626447
O O4 0.834586 0.518765 0.719717
O O5 0.707352 0.767578 0.814937
O O6 0.685718 0.650274 0.000000
O O7 0.436500 0.602069 0.500000
O O8 0.088828 0.786528 0.791314
O O9 0.954629 0.888853 0.790691
O O10 0.053543 0.876710 0.000000
O O11 0.108862 0.562597 0.500000
O O12 0.089613 0.628236 0.746432
O O13 0.000000 0.500000 0.675055
O O14 0.679205 0.886692 0.000000
#
# Coordination Sequence:
#
# PCOD8302812 Si02
#       6
#     8   8   4   8   8   8
#     4  11  20  35  54  73 103 137 173 214 259 309
#     4  10  21  34  50  76 107 138 170 213 262 311
#     4  11  20  32  51  78 102 128 173 214 252 307
#     4   8  14  27  51  81 108 133 166 213 264 313
#     4  10  22  38  55  75 103 141 181 220 258 307
#     4   9  19  35  54  78 107 137 174 215 262 315
#
# _framework density 17.985769999999999
#
# number of rings (size 3 to 8) (size 9 to 14) (size 15 to 20)
#    0.000    2.273    2.727    1.091    0.000    2.909 
#    0.000    2.727    0.000    1.091    0.000    1.273 
#    0.000    0.000    0.000    0.000    0.000    0.000 
#
# Total GULP energy -545131.030661 kJ/mol
# GULP energy per Si atom -12389.341606 kJ/mol
# Density = 1.794483 g / cm^3
# Si number density = 17.985770 Si / 1000 Ang^3
#
#
#
# Elastic Constant Matrix: (Units=GPa)
#
#
# Indices 1 2 3 4 5 6 
#
# 1 117.6685 59.3856 31.4508 0.0000 0.0000 12.0931
# 2 59.3856 117.6685 31.4508 0.0000 0.0000 -12.0931
# 3 31.4508 31.4508 53.5470 0.0000 0.0000 0.0000
# 4 0.0000 0.0000 0.0000 18.7005 0.0000 0.0000
# 5 0.0000 0.0000 0.0000 0.0000 18.7005 0.0000
# 6 12.0931 -12.0931 0.0000 0.0000 0.0000 33.7243
#
#
#
# Elastic Compliance Matrix: (Units=1/GPa)
#
#
# Indices 1 2 3 4 5 6 
#
# 1 0.013647 -0.006510 -0.004192 0.000000 0.000000 -0.007228
# 2 -0.006510 0.013647 -0.004192 0.000000 0.000000 0.007228
# 3 -0.004192 -0.004192 0.023600 0.000000 0.000000 0.000000
# 4 0.000000 0.000000 0.000000 0.053474 0.000000 0.000000
# 5 0.000000 0.000000 0.000000 0.000000 0.053474 0.000000
# 6 -0.007228 0.007228 0.000000 0.000000 0.000000 0.034836
#
#
# Mechanical properties :
#
#
# Convention : Reuss Voigt Hill
#
# Bulk Modulus (GPa) = 47.38018 59.27317 53.32668
# Shear Modulus (GPa) = 21.78625 25.33152 23.55889
#
# Velocity S-wave (km/s) = 3.48416 3.75696 3.62313
# Velocity P-wave (km/s) = 6.52580 7.20048 6.87143
#
# Compressibility (1/GPa) = 0.02110587
#
# Stress axis : x y z
#
# Youngs Moduli (GPa) = 73.27481 73.27481 42.37348
#
# Poissons Ratio (x) = 0.47701 0.17763
# Poissons Ratio (y) = 0.47701 0.17763
# Poissons Ratio (z) = 0.30718 0.30718
#
# Static dielectric constant tensor:
#      x y z
#    x 3.341890 0.000000 0.000000 
#    y 0.000000 3.341890 0.000000 
#    z 0.000000 0.000000 3.229560 
# 
# 
# High freq. dielectric constant tensor:
#      x y z
#    x 1.694100 0.000000 0.000000 
#    y 0.000000 1.694100 0.000000 
#    z 0.000000 0.000000 1.682320 
# 
# From -- ./inp_files/1697.got.cif
#   From: 2010.03.12/outbox.cif.g09.slc.cpg/sg83_1_cif.got.tgz:1697.got - 2010.04.08 20:05:18.
