data_PCOD8302715
_publ_section_title
;
Structure prediction by ZEFSAII (Michael W. Deem and Ramdas Pophale) SiO2 
 PCOD8302715
Probable space group: P 4/M
;
_chemical_formula_sum "Si O2"
_cell_formula_units_Z 52
_cell_length_a 17.921493
_cell_length_b 17.921493
_cell_length_c 8.062174
_cell_angle_alpha 90.000000
_cell_angle_beta 90.000000
_cell_angle_gamma 90.000000
_cell_volume 2589.408331
_symmetry_space_group_name_H-M "P 4/M"
_symmetry_group_IT_number 83
_symmetry_cell_setting 'tetragonal'
loop_
_space_group_symop_operation_xyz
x,y,z
-y,x,z
-x,-y,z
y,-x,z
-x,-y,-z
y,-x,-z
x,y,-z
-y,x,-z
loop_
_atom_site_type_symbol
_atom_site_label
_atom_site_fract_x
_atom_site_fract_y
_atom_site_fract_z
Si Si1 0.726427 0.922376 0.691521
Si Si2 0.690409 0.767285 0.186659
Si Si3 0.884028 0.975132 0.697522
Si Si4 0.530112 0.781219 0.687661
Si Si5 0.303532 0.394792 0.187080
Si Si6 0.434977 0.048060 0.688090
Si Si7 0.569662 0.400136 0.500000
O O1 0.726081 0.943492 0.500000
O O2 0.727411 0.832066 0.702992
O O3 0.801659 0.957225 0.773411
O O4 0.648618 0.954704 0.771361
O O5 0.605362 0.747625 0.236108
O O6 0.733481 0.688144 0.206918
O O7 0.693104 0.797681 0.000000
O O8 0.880904 0.972266 0.500000
O O9 0.943464 0.912164 0.758252
O O10 0.520153 0.751314 0.500000
O O11 0.457893 0.759172 0.793976
O O12 0.534771 0.869219 0.691901
O O13 0.364781 0.402464 0.329104
O O14 0.338093 0.400686 0.000000
O O15 0.426600 0.018775 0.500000
O O16 0.500000 0.000000 0.780382
O O17 0.603264 0.481525 0.500000
#
# Coordination Sequence:
#
# PCOD8302715 Si02
#       7
#     8   8   8   8   8   8   4
#     4   9  17  30  52  78 103 140 185 226 275 341
#     4  10  21  35  53  75 106 143 180 227 280 334
#     4   8  14  27  48  78 113 143 177 230 290 341
#     4  10  19  33  56  79 104 142 183 229 280 339
#     4  11  23  37  55  80 109 144 186 235 286 339
#     4   8  15  29  48  75 109 140 177 225 278 335
#     4  11  24  38  56  80 107 142 186 235 283 340
#
# _framework density 20.081807999999999
#
# number of rings (size 3 to 8) (size 9 to 14) (size 15 to 20)
#    0.000    2.538    0.769    3.231    2.154    1.846 
#    2.769    0.769    0.000   12.462    0.000    1.077 
#    0.000    0.000    0.000    0.000    0.000    0.000 
#
# Total GULP energy -644214.603753 kJ/mol
# GULP energy per Si atom -12388.742380 kJ/mol
# Density = 2.003610 g / cm^3
# Si number density = 20.081808 Si / 1000 Ang^3
#
#
#
# Elastic Constant Matrix: (Units=GPa)
#
#
# Indices 1 2 3 4 5 6 
#
# 1 119.8519 66.8991 10.8309 0.0000 0.0000 11.5107
# 2 66.8991 119.8519 10.8309 0.0000 0.0000 -11.5107
# 3 10.8309 10.8309 59.6379 0.0000 0.0000 0.0000
# 4 0.0000 0.0000 0.0000 9.5524 0.0000 0.0000
# 5 0.0000 0.0000 0.0000 0.0000 9.5524 0.0000
# 6 11.5107 -11.5107 0.0000 0.0000 0.0000 34.5978
#
#
#
# Elastic Compliance Matrix: (Units=1/GPa)
#
#
# Indices 1 2 3 4 5 6 
#
# 1 0.013774 -0.008304 -0.000993 0.000000 0.000000 -0.007345
# 2 -0.008304 0.013774 -0.000993 0.000000 0.000000 0.007345
# 3 -0.000993 -0.000993 0.017129 0.000000 0.000000 0.000000
# 4 0.000000 0.000000 0.000000 0.104685 0.000000 0.000000
# 5 0.000000 0.000000 0.000000 0.000000 0.104685 0.000000
# 6 -0.007345 0.007345 0.000000 0.000000 0.000000 0.033791
#
#
# Mechanical properties :
#
#
# Convention : Reuss Voigt Hill
#
# Bulk Modulus (GPa) = 41.50244 52.94040 47.22142
# Shear Modulus (GPa) = 15.80017 24.79258 20.29638
#
# Velocity S-wave (km/s) = 2.80802 3.51747 3.18258
# Velocity P-wave (km/s) = 5.58792 6.55106 6.08857
#
# Compressibility (1/GPa) = 0.02409497
#
# Stress axis : x y z
#
# Youngs Moduli (GPa) = 72.60029 72.60029 58.38157
#
# Poissons Ratio (x) = 0.60288 0.05800
# Poissons Ratio (y) = 0.60288 0.05800
# Poissons Ratio (z) = 0.07212 0.07212
#
# Static dielectric constant tensor:
#      x y z
#    x 3.822300 0.000000 0.000000 
#    y 0.000000 3.822300 0.000000 
#    z 0.000000 0.000000 3.431490 
# 
# 
# High freq. dielectric constant tensor:
#      x y z
#    x 1.778880 0.000000 0.000000 
#    y 0.000000 1.778880 0.000000 
#    z 0.000000 0.000000 1.757060 
# 
# From -- ./inp_files/1026.got.cif
#   From: 2010.03.12/outbox.cif.g09.slc.cpg/sg83_1_cif.got.tgz:1026.got - 2010.04.08 20:05:18.
