data_PCOD8302846
_publ_section_title
;
Structure prediction by ZEFSAII (Michael W. Deem and Ramdas Pophale) SiO2 
 PCOD8302846
Probable space group: P 4/M
;
_chemical_formula_sum "Si O2"
_cell_formula_units_Z 40
_cell_length_a 8.861434
_cell_length_b 8.861434
_cell_length_c 28.092743
_cell_angle_alpha 90.000000
_cell_angle_beta 90.000000
_cell_angle_gamma 90.000000
_cell_volume 2205.982996
_symmetry_space_group_name_H-M "P 4/M"
_symmetry_group_IT_number 83
_symmetry_cell_setting 'tetragonal'
loop_
_space_group_symop_operation_xyz
x,y,z
-y,x,z
-x,-y,z
y,-x,z
-x,-y,-z
y,-x,-z
x,y,-z
-y,x,-z
loop_
_atom_site_type_symbol
_atom_site_label
_atom_site_fract_x
_atom_site_fract_y
_atom_site_fract_z
Si Si1 0.242713 0.950381 0.000000
Si Si2 0.500000 0.000000 0.576335
Si Si3 0.257123 0.543385 0.352072
Si Si4 0.452863 0.257161 0.755136
Si Si5 0.250100 0.962122 0.500000
Si Si6 0.049451 0.246046 0.102853
Si Si7 0.000000 0.500000 0.825321
O O1 0.329079 0.932698 0.050646
O O2 0.114715 0.826300 0.000000
O O3 0.569292 0.871139 0.609438
O O4 0.358539 0.942234 0.545485
O O5 0.327898 0.379817 0.360234
O O6 0.192394 0.557434 0.298510
O O7 0.617816 0.326003 0.763608
O O8 0.421738 0.124722 0.792281
O O9 0.126189 0.829523 0.500000
O O10 0.883242 0.174884 0.108639
O O11 0.077374 0.372142 0.142437
#
# Coordination Sequence:
#
# PCOD8302846 Si02
#       7
#     4   4   8   8   4   8   4
#     4   7  12  27  46  60  82 116 148 182 228 272
#     4  11  19  32  55  76  93 122 165 199 224 262
#     4   9  18  33  52  72  93 120 158 199 231 263
#     4   9  19  34  48  66  96 127 151 183 232 281
#     4  10  22  36  48  70 106 136 152 180 234 288
#     4   9  18  31  46  65  89 117 150 189 229 270
#     4  12  19  27  47  72  93 117 153 188 224 274
#
# _framework density 18.132505999999999
#
# number of rings (size 3 to 8) (size 9 to 14) (size 15 to 20)
#    0.000    2.600    0.000    5.400    0.000    0.400 
#    0.000    0.000    0.000    4.800    0.000   16.800 
#    0.000   12.800    0.000    0.000    0.000    0.000 
#
# Total GULP energy -495735.506118 kJ/mol
# GULP energy per Si atom -12393.387653 kJ/mol
# Density = 1.809124 g / cm^3
# Si number density = 18.132506 Si / 1000 Ang^3
#
#
#
# Elastic Constant Matrix: (Units=GPa)
#
#
# Indices 1 2 3 4 5 6 
#
# 1 39.7848 -13.4797 20.1268 0.0000 0.0000 0.5600
# 2 -13.4797 39.7848 20.1268 0.0000 0.0000 -0.5600
# 3 20.1268 20.1268 114.5073 0.0000 0.0000 0.0000
# 4 0.0000 0.0000 0.0000 12.6219 0.0000 0.0000
# 5 0.0000 0.0000 0.0000 0.0000 12.6219 0.0000
# 6 0.5600 -0.5600 0.0000 0.0000 0.0000 16.2799
#
#
#
# Elastic Compliance Matrix: (Units=1/GPa)
#
#
# Indices 1 2 3 4 5 6 
#
# 1 0.035395 0.016607 -0.009140 0.000000 0.000000 -0.000646
# 2 0.016607 0.035395 -0.009140 0.000000 0.000000 0.000646
# 3 -0.009140 -0.009140 0.011946 0.000000 0.000000 0.000000
# 4 0.000000 0.000000 0.000000 0.079227 0.000000 0.000000
# 5 0.000000 0.000000 0.000000 0.000000 0.079227 0.000000
# 6 -0.000646 0.000646 0.000000 0.000000 0.000000 0.061470
#
#
# Mechanical properties :
#
#
# Convention : Reuss Voigt Hill
#
# Bulk Modulus (GPa) = 12.59606 27.51384 20.05495
# Shear Modulus (GPa) = 15.03890 19.45829 17.24859
#
# Velocity S-wave (km/s) = 2.88304 3.27940 3.08758
# Velocity P-wave (km/s) = 4.24786 5.43562 4.87803
#
# Compressibility (1/GPa) = 0.07938991
#
# Stress axis : x y z
#
# Youngs Moduli (GPa) = 28.25236 28.25236 83.70809
#
# Poissons Ratio (x) = -0.46920 0.76513
# Poissons Ratio (y) = -0.46920 0.76513
# Poissons Ratio (z) = 0.25824 0.25824
#
# Static dielectric constant tensor:
#      x y z
#    x 3.078920 0.000000 0.000000 
#    y 0.000000 3.078920 0.000000 
#    z 0.000000 0.000000 3.624120 
# 
# 
# High freq. dielectric constant tensor:
#      x y z
#    x 1.682490 0.000000 0.000000 
#    y 0.000000 1.682490 0.000000 
#    z 0.000000 0.000000 1.724330 
# 
# From -- ./inp_files/3297.got.cif
#   From: 2010.03.12/outbox.cif.g09.slc.cpg/sg83_2_cif.got.tgz:3297.got - 2010.04.08 20:05:18.
