data_PCOD8302966
_publ_section_title
;
Structure prediction by ZEFSAII (Michael W. Deem and Ramdas Pophale) SiO2 
 PCOD8302966
Probable space group: P 4/M
;
_chemical_formula_sum "Si O2"
_cell_formula_units_Z 48
_cell_length_a 8.237725
_cell_length_b 8.237725
_cell_length_c 32.532852
_cell_angle_alpha 90.000000
_cell_angle_beta 90.000000
_cell_angle_gamma 90.000000
_cell_volume 2207.683019
_symmetry_space_group_name_H-M "P 4/M"
_symmetry_group_IT_number 83
_symmetry_cell_setting 'tetragonal'
loop_
_space_group_symop_operation_xyz
x,y,z
-y,x,z
-x,-y,z
y,-x,z
-x,-y,-z
y,-x,-z
x,y,-z
-y,x,-z
loop_
_atom_site_type_symbol
_atom_site_label
_atom_site_fract_x
_atom_site_fract_y
_atom_site_fract_z
Si Si1 0.580055 0.243633 0.292577
Si Si2 0.899504 0.751579 0.456724
Si Si3 0.748558 0.099236 0.367728
Si Si4 0.242986 0.575682 0.000000
Si Si5 0.080402 0.746729 0.164035
Si Si6 0.084344 0.746625 0.928257
Si Si7 0.500000 0.000000 0.772836
O O1 0.701886 0.393783 0.289828
O O2 0.612673 0.149284 0.334990
O O3 0.610564 0.118229 0.255292
O O4 0.860537 0.653925 0.500000
O O5 0.866068 0.664831 0.412830
O O6 0.087527 0.793833 0.457136
O O7 0.910687 0.206374 0.362151
O O8 0.300472 0.392345 0.000000
O O9 0.133727 0.605179 0.959626
O O10 0.105141 0.677835 0.117972
O O11 0.895002 0.799450 0.170760
O O12 0.115139 0.609884 0.197969
O O13 0.900051 0.799282 0.935829
#
# Coordination Sequence:
#
# PCOD8302966 Si02
#       7
#     8   8   8   4   8   8   4
#     4  11  24  39  54  77 110 145 180 223 277 330
#     4   7  10  19  40  73 108 136 167 213 263 308
#     4   9  17  31  54  82 109 141 182 222 262 316
#     4  11  24  37  52  82 120 153 188 225 260 306
#     4   9  20  38  60  87 114 139 176 226 273 320
#     4   9  19  37  60  85 112 143 181 222 265 315
#     4  12  22  38  62  83 105 140 182 224 274 334
#
# _framework density 21.742253000000002
#
# number of rings (size 3 to 8) (size 9 to 14) (size 15 to 20)
#    0.000    2.583    0.000    5.000    0.000    4.667 
#    0.000    1.667    0.000    3.000    0.000    6.417 
#    0.000    0.000    0.000    0.000    0.000    0.000 
#
# Total GULP energy -594780.625606 kJ/mol
# GULP energy per Si atom -12391.263033 kJ/mol
# Density = 2.169277 g / cm^3
# Si number density = 21.742253 Si / 1000 Ang^3
#
#
#
# Elastic Constant Matrix: (Units=GPa)
#
#
# Indices 1 2 3 4 5 6 
#
# 1 56.7737 18.4398 48.3563 0.0000 0.0000 -4.1060
# 2 18.4398 56.7737 48.3563 0.0000 0.0000 4.1060
# 3 48.3563 48.3563 206.0591 0.0000 0.0000 0.0000
# 4 0.0000 0.0000 0.0000 25.2092 0.0000 0.0000
# 5 0.0000 0.0000 0.0000 0.0000 25.2092 0.0000
# 6 -4.1060 4.1060 0.0000 0.0000 0.0000 27.8116
#
#
#
# Elastic Compliance Matrix: (Units=1/GPa)
#
#
# Indices 1 2 3 4 5 6 
#
# 1 0.022990 -0.003949 -0.004468 0.000000 0.000000 0.003977
# 2 -0.003949 0.022990 -0.004468 0.000000 0.000000 -0.003977
# 3 -0.004468 -0.004468 0.006950 0.000000 0.000000 0.000000
# 4 0.000000 0.000000 0.000000 0.039668 0.000000 0.000000
# 5 0.000000 0.000000 0.000000 0.000000 0.039668 0.000000
# 6 0.003977 -0.003977 0.000000 0.000000 0.000000 0.037131
#
#
# Mechanical properties :
#
#
# Convention : Reuss Voigt Hill
#
# Bulk Modulus (GPa) = 36.82041 61.10126 48.96083
# Shear Modulus (GPa) = 24.48333 29.27629 26.87981
#
# Velocity S-wave (km/s) = 3.35934 3.67347 3.51991
# Velocity P-wave (km/s) = 5.65850 6.79383 6.25199
#
# Compressibility (1/GPa) = 0.02715885
#
# Stress axis : x y z
#
# Youngs Moduli (GPa) = 43.49739 43.49739 143.88055
#
# Poissons Ratio (x) = 0.17176 0.64292
# Poissons Ratio (y) = 0.17176 0.64292
# Poissons Ratio (z) = 0.19437 0.19437
#
# Static dielectric constant tensor:
#      x y z
#    x 3.560290 0.000000 0.000000 
#    y 0.000000 3.560290 0.000000 
#    z 0.000000 0.000000 4.395140 
# 
# 
# High freq. dielectric constant tensor:
#      x y z
#    x 1.826630 0.000000 0.000000 
#    y 0.000000 1.826630 0.000000 
#    z 0.000000 0.000000 1.880580 
# 
# From -- ./inp_files/3504.got.cif
#   From: 2010.03.12/outbox.cif.g09.slc.cpg/sg83_2_cif.got.tgz:3504.got - 2010.04.08 20:05:18.
