data_PCOD8302998
_publ_section_title
;
Structure prediction by ZEFSAII (Michael W. Deem and Ramdas Pophale) SiO2 
 PCOD8302998
Probable space group: P 4/M
;
_chemical_formula_sum "Si O2"
_cell_formula_units_Z 48
_cell_length_a 8.221324
_cell_length_b 8.221324
_cell_length_c 32.180141
_cell_angle_alpha 90.000000
_cell_angle_beta 90.000000
_cell_angle_gamma 90.000000
_cell_volume 2175.061147
_symmetry_space_group_name_H-M "P 4/M"
_symmetry_group_IT_number 83
_symmetry_cell_setting 'tetragonal'
loop_
_space_group_symop_operation_xyz
x,y,z
-y,x,z
-x,-y,z
y,-x,z
-x,-y,-z
y,-x,-z
x,y,-z
-y,x,-z
loop_
_atom_site_type_symbol
_atom_site_label
_atom_site_fract_x
_atom_site_fract_y
_atom_site_fract_z
Si Si1 0.876775 0.763199 0.046842
Si Si2 0.419637 0.756970 0.278225
Si Si3 0.257781 0.078830 0.589354
Si Si4 0.500000 0.000000 0.655224
Si Si5 0.919158 0.255090 0.500000
Si Si6 0.250123 0.903515 0.797744
Si Si7 0.391291 0.742847 0.125079
O O1 0.807648 0.629132 0.078210
O O2 0.067625 0.785307 0.054694
O O3 0.845486 0.700729 0.000000
O O4 0.297876 0.606222 0.280498
O O5 0.390361 0.880200 0.316467
O O6 0.386018 0.852590 0.235628
O O7 0.385402 0.111737 0.626037
O O8 0.107295 0.199851 0.593666
O O9 0.347502 0.108633 0.544121
O O10 0.801345 0.103201 0.500000
O O11 0.326232 0.878948 0.843321
O O12 0.091245 0.792657 0.791809
O O13 0.288563 0.580032 0.132879
#
# Coordination Sequence:
#
# PCOD8302998 Si02
#       7
#     8   8   8   4   4   8   8
#     4   9  19  37  60  86 117 154 198 246 293 344
#     4  11  24  41  59  81 113 151 189 233 290 352
#     4   9  18  33  54  80 112 150 192 238 287 339
#     4  12  22  35  56  84 114 148 191 238 288 344
#     4   7  12  27  50  76 108 146 188 236 286 333
#     4  11  24  42  65  90 113 142 188 243 293 346
#     4  11  24  39  57  86 122 157 193 236 289 349
#
# _framework density 22.068346999999999
#
# number of rings (size 3 to 8) (size 9 to 14) (size 15 to 20)
#    0.000    1.917    0.000    5.500    0.000    7.667 
#    0.000    4.167    0.000    0.000    0.000    0.000 
#    0.000   10.667    0.000    0.000    0.000    0.000 
#
# Total GULP energy -595111.796518 kJ/mol
# GULP energy per Si atom -12398.162427 kJ/mol
# Density = 2.201812 g / cm^3
# Si number density = 22.068347 Si / 1000 Ang^3
#
#
#
# Elastic Constant Matrix: (Units=GPa)
#
#
# Indices 1 2 3 4 5 6 
#
# 1 49.0880 8.3867 37.2189 0.0000 0.0000 -2.8259
# 2 8.3867 49.0880 37.2189 0.0000 0.0000 2.8259
# 3 37.2189 37.2189 168.8587 0.0000 0.0000 0.0000
# 4 0.0000 0.0000 0.0000 24.9309 0.0000 0.0000
# 5 0.0000 0.0000 0.0000 0.0000 24.9309 0.0000
# 6 -2.8259 2.8259 0.0000 0.0000 0.0000 29.0317
#
#
#
# Elastic Compliance Matrix: (Units=1/GPa)
#
#
# Indices 1 2 3 4 5 6 
#
# 1 0.024628 -0.000278 -0.005367 0.000000 0.000000 0.002424
# 2 -0.000278 0.024628 -0.005367 0.000000 0.000000 -0.002424
# 3 -0.005367 -0.005367 0.008288 0.000000 0.000000 0.000000
# 4 0.000000 0.000000 0.000000 0.040111 0.000000 0.000000
# 5 0.000000 0.000000 0.000000 0.000000 0.040111 0.000000
# 6 0.002424 -0.002424 0.000000 0.000000 0.000000 0.034917
#
#
# Mechanical properties :
#
#
# Convention : Reuss Voigt Hill
#
# Bulk Modulus (GPa) = 28.15323 48.07596 38.11460
# Shear Modulus (GPa) = 24.20756 28.05939 26.13347
#
# Velocity S-wave (km/s) = 3.31560 3.56965 3.44496
# Velocity P-wave (km/s) = 5.23856 6.23074 5.75607
#
# Compressibility (1/GPa) = 0.03551990
#
# Stress axis : x y z
#
# Youngs Moduli (GPa) = 40.60419 40.60419 120.65501
#
# Poissons Ratio (x) = 0.01128 0.64757
# Poissons Ratio (y) = 0.01128 0.64757
# Poissons Ratio (z) = 0.21793 0.21793
#
# Static dielectric constant tensor:
#      x y z
#    x 3.761070 0.000000 0.000000 
#    y 0.000000 3.761070 0.000000 
#    z 0.000000 0.000000 4.230060 
# 
# 
# High freq. dielectric constant tensor:
#      x y z
#    x 1.854030 0.000000 0.000000 
#    y 0.000000 1.854030 0.000000 
#    z 0.000000 0.000000 1.886810 
# 
# From -- ./inp_files/3457.got.cif
#   From: 2010.03.12/outbox.cif.g09.slc.cpg/sg83_2_cif.got.tgz:3457.got - 2010.04.08 20:05:18.
