data_PCOD8302541
_publ_section_title
;
Structure prediction by ZEFSAII (Michael W. Deem and Ramdas Pophale) SiO2 
 PCOD8302541
Probable space group: I -4 
;
_chemical_formula_sum "Si O2"
_cell_formula_units_Z 52
_cell_length_a 16.271600
_cell_length_b 16.271600
_cell_length_c 9.790694
_cell_angle_alpha 90.000000
_cell_angle_beta 90.000000
_cell_angle_gamma 90.000000
_cell_volume 2592.232770
_symmetry_space_group_name_H-M "I -4 "
_symmetry_group_IT_number 82
_symmetry_cell_setting 'tetragonal'
loop_
_space_group_symop_operation_xyz
x,y,z
y,-x,-z
-x,-y,z
-y,x,-z
1/2+x,1/2+y,1/2+z
1/2+y,1/2-x,1/2-z
1/2-x,1/2-y,1/2+z
1/2-y,1/2+x,1/2-z
loop_
_atom_site_type_symbol
_atom_site_label
_atom_site_fract_x
_atom_site_fract_y
_atom_site_fract_z
Si Si1 0.239163 0.405713 0.680878
Si Si2 0.754844 0.157880 0.375420
Si Si3 0.416312 0.223802 0.399755
Si Si4 0.144906 0.914822 0.873631
Si Si5 0.124730 0.725957 0.511327
Si Si6 0.500000 0.500000 0.500000
Si Si7 0.500000 0.500000 0.000000
Si Si8 0.526371 0.681720 0.913056
O O1 0.171798 0.343683 0.616007
O O2 0.199438 0.496004 0.665804
O O3 0.325395 0.395046 0.603842
O O4 0.264245 0.387925 0.838530
O O5 0.770250 0.139050 0.215126
O O6 0.795798 0.241562 0.429030
O O7 0.791678 0.084030 0.462694
O O8 0.433817 0.286172 0.518137
O O9 0.371201 0.142197 0.461749
O O10 0.189765 0.925652 0.728246
O O11 0.074223 0.981745 0.896692
O O12 0.048007 0.752243 0.417077
O O13 0.586835 0.504959 0.080323
#
# Coordination Sequence:
#
# PCOD8302541 Si02
#       8
#     8   8   8   8   8   2   2   8
#     4  11  22  43  65  96 133 175 225 282 338 409
#     4  11  23  40  69  91 131 175 222 278 339 411
#     4  11  25  43  63  97 132 177 223 284 337 407
#     4  12  24  37  61  96 135 169 213 270 349 411
#     4  11  23  42  68  97 130 177 236 269 343 418
#     4  12  26  36  56 106 142 172 200 282 366 424
#     4  12  22  36  68  94 138 168 212 282 338 420
#     4  12  24  41  64 100 129 176 223 281 337 423
#
# _framework density 20.059926000000001
#
# number of rings (size 3 to 8) (size 9 to 14) (size 15 to 20)
#    0.000    0.615    7.692    0.462    2.154    0.000 
#    2.769    0.769    0.000    0.000    0.000    0.000 
#    0.000    0.000    0.000    0.000    0.000    0.000 
#
# Total GULP energy -322200.840010 kJ/mol
# GULP energy per Si atom -12392.340000 kJ/mol
# Density = 2.001427 g / cm^3
# Si number density = 20.059926 Si / 1000 Ang^3
#
#
#
# Elastic Constant Matrix: (Units=GPa)
#
#
# Indices 1 2 3 4 5 6 
#
# 1 99.6570 41.4273 39.7382 0.0000 0.0000 0.4209
# 2 41.4273 99.6570 39.7382 0.0000 0.0000 -0.4209
# 3 39.7382 39.7382 77.8410 0.0000 0.0000 0.0000
# 4 0.0000 0.0000 0.0000 24.7535 0.0000 0.0000
# 5 0.0000 0.0000 0.0000 0.0000 24.7535 0.0000
# 6 0.4209 -0.4209 0.0000 0.0000 0.0000 40.3171
#
#
#
# Elastic Compliance Matrix: (Units=1/GPa)
#
#
# Indices 1 2 3 4 5 6 
#
# 1 0.013563 -0.003613 -0.005079 0.000000 0.000000 -0.000179
# 2 -0.003613 0.013563 -0.005079 0.000000 0.000000 0.000179
# 3 -0.005079 -0.005079 0.018032 0.000000 0.000000 0.000000
# 4 0.000000 0.000000 0.000000 0.040398 0.000000 0.000000
# 5 0.000000 0.000000 0.000000 0.000000 0.040398 0.000000
# 6 -0.000179 0.000179 0.000000 0.000000 0.000000 0.024807
#
#
# Mechanical properties :
#
#
# Convention : Reuss Voigt Hill
#
# Bulk Modulus (GPa) = 56.77161 57.66249 57.21705
# Shear Modulus (GPa) = 27.14795 28.38158 27.76477
#
# Velocity S-wave (km/s) = 3.68277 3.76552 3.72437
# Velocity P-wave (km/s) = 6.81514 6.90746 6.86146
#
# Compressibility (1/GPa) = 0.01761444
#
# Stress axis : x y z
#
# Youngs Moduli (GPa) = 73.73244 73.73244 55.45545
#
# Poissons Ratio (x) = 0.26643 0.28166
# Poissons Ratio (y) = 0.26643 0.28166
# Poissons Ratio (z) = 0.37449 0.37449
#
# Static dielectric constant tensor:
#      x y z
#    x 3.702320 0.000000 0.000000 
#    y 0.000000 3.702320 0.000000 
#    z 0.000000 0.000000 3.656210 
# 
# 
# High freq. dielectric constant tensor:
#      x y z
#    x 1.774660 0.000000 0.000000 
#    y 0.000000 1.774660 0.000000 
#    z 0.000000 0.000000 1.784530 
# 
# From -- ./inp_files/1168.got.cif
#   From: 2010.03.12/outbox.cif.g09.slc.cpg/sg82_1_cif.got.tgz:1168.got - 2010.04.08 20:02:50.
