data_PCOD8302566
_publ_section_title
;
Structure prediction by ZEFSAII (Michael W. Deem and Ramdas Pophale) SiO2 
 PCOD8302566
Probable space group: I -4 
;
_chemical_formula_sum "Si O2"
_cell_formula_units_Z 36
_cell_length_a 10.703719
_cell_length_b 10.703719
_cell_length_c 12.985377
_cell_angle_alpha 90.000000
_cell_angle_beta 90.000000
_cell_angle_gamma 90.000000
_cell_volume 1487.729454
_symmetry_space_group_name_H-M "I -4 "
_symmetry_group_IT_number 82
_symmetry_cell_setting 'tetragonal'
loop_
_space_group_symop_operation_xyz
x,y,z
y,-x,-z
-x,-y,z
-y,x,-z
1/2+x,1/2+y,1/2+z
1/2+y,1/2-x,1/2-z
1/2-x,1/2-y,1/2+z
1/2-y,1/2+x,1/2-z
loop_
_atom_site_type_symbol
_atom_site_label
_atom_site_fract_x
_atom_site_fract_y
_atom_site_fract_z
Si Si1 0.834171 0.213111 0.364918
Si Si2 0.000000 0.000000 0.000000
Si Si3 0.500000 0.000000 0.250000
Si Si4 0.705265 0.149802 0.158757
Si Si5 0.976224 0.737785 0.051190
Si Si6 0.731739 0.107402 0.560017
O O1 0.807207 0.163136 0.250299
O O2 0.782356 0.353833 0.379953
O O3 0.764940 0.113657 0.438978
O O4 0.981098 0.223719 0.386714
O O5 0.878115 0.972628 0.927687
O O6 0.434797 0.887226 0.189880
O O7 0.684811 0.285038 0.110010
O O8 0.741423 0.049730 0.071453
O O9 0.083228 0.635364 0.076866
#
# Coordination Sequence:
#
# PCOD8302566 Si02
#       6
#     8   2   2   8   8   8
#     4  11  26  47  73 109 152 196 253 314 401 466
#     4  12  20  44  76 100 144 182 272 304 356 448
#     4  12  28  48  72 108 148 190 268 320 384 492
#     4  11  27  45  78 105 142 205 253 313 398 464
#     4  11  24  46  75 107 153 198 255 327 378 465
#     4  11  26  48  73 111 149 199 250 324 397 471
#
# _framework density 24.197949000000001
#
# number of rings (size 3 to 8) (size 9 to 14) (size 15 to 20)
#    0.000    0.889    4.444    2.000   15.556    0.444 
#    0.000    0.000    0.000    0.000    0.000    0.000 
#    0.000    0.000    0.000    0.000    0.000    0.000 
#
# Total GULP energy -223080.814637 kJ/mol
# GULP energy per Si atom -12393.378591 kJ/mol
# Density = 2.414287 g / cm^3
# Si number density = 24.197949 Si / 1000 Ang^3
#
#
#
# Elastic Constant Matrix: (Units=GPa)
#
#
# Indices 1 2 3 4 5 6 
#
# 1 109.7076 26.9170 19.1132 0.0000 0.0000 6.4059
# 2 26.9170 109.7076 19.1132 0.0000 0.0000 -6.4059
# 3 19.1132 19.1132 103.3153 0.0000 0.0000 0.0000
# 4 0.0000 0.0000 0.0000 25.2094 0.0000 0.0000
# 5 0.0000 0.0000 0.0000 0.0000 25.2094 0.0000
# 6 6.4059 -6.4059 0.0000 0.0000 0.0000 44.0323
#
#
#
# Elastic Compliance Matrix: (Units=1/GPa)
#
#
# Indices 1 2 3 4 5 6 
#
# 1 0.010038 -0.002319 -0.001428 0.000000 0.000000 -0.001798
# 2 -0.002319 0.010038 -0.001428 0.000000 0.000000 0.001798
# 3 -0.001428 -0.001428 0.010207 0.000000 0.000000 0.000000
# 4 0.000000 0.000000 0.000000 0.039668 0.000000 0.000000
# 5 0.000000 0.000000 0.000000 0.000000 0.039668 0.000000
# 6 -0.001798 0.001798 0.000000 0.000000 0.000000 0.023234
#
#
# Mechanical properties :
#
#
# Convention : Reuss Voigt Hill
#
# Bulk Modulus (GPa) = 50.16743 50.33528 50.25136
# Shear Modulus (GPa) = 33.36740 36.06267 34.71503
#
# Velocity S-wave (km/s) = 3.71743 3.86465 3.79176
# Velocity P-wave (km/s) = 6.26122 6.38441 6.32311
#
# Compressibility (1/GPa) = 0.01993325
#
# Stress axis : x y z
#
# Youngs Moduli (GPa) = 99.62274 99.62275 97.96762
#
# Poissons Ratio (x) = 0.23103 0.13990
# Poissons Ratio (y) = 0.23103 0.13990
# Poissons Ratio (z) = 0.14226 0.14226
#
# Static dielectric constant tensor:
#      x y z
#    x 4.405310 0.000000 0.000000 
#    y 0.000000 4.405310 0.000000 
#    z 0.000000 0.000000 4.435810 
# 
# 
# High freq. dielectric constant tensor:
#      x y z
#    x 1.969270 0.000000 0.000000 
#    y 0.000000 1.969270 0.000000 
#    z 0.000000 0.000000 1.947240 
# 
# From -- ./inp_files/1625.got.cif
#   From: 2010.03.12/outbox.cif.g09.slc.cpg/sg82_1_cif.got.tgz:1625.got - 2010.04.08 20:02:50.
