data_PCOD8303754
_publ_section_title
;
Structure prediction by ZEFSAII (Michael W. Deem and Ramdas Pophale) SiO2 
 PCOD8303754
Probable space group: I 4/M
;
_chemical_formula_sum "Si O2"
_cell_formula_units_Z 56
_cell_length_a 12.170757
_cell_length_b 12.170757
_cell_length_c 21.306353
_cell_angle_alpha 90.000000
_cell_angle_beta 90.000000
_cell_angle_gamma 90.000000
_cell_volume 3156.053096
_symmetry_space_group_name_H-M "I 4/M"
_symmetry_group_IT_number 87
_symmetry_cell_setting 'tetragonal'
loop_
_space_group_symop_operation_xyz
x,y,z
-y,x,z
-x,-y,z
y,-x,z
-x,-y,-z
y,-x,-z
x,y,-z
-y,x,-z
1/2+x,1/2+y,1/2+z
1/2-y,1/2+x,1/2+z
1/2-x,1/2-y,1/2+z
1/2+y,1/2-x,1/2+z
1/2-x,1/2-y,1/2-z
1/2+y,1/2-x,1/2-z
1/2+x,1/2+y,1/2-z
1/2-y,1/2+x,1/2-z
loop_
_atom_site_type_symbol
_atom_site_label
_atom_site_fract_x
_atom_site_fract_y
_atom_site_fract_z
Si Si1 0.349053 0.601576 0.000000
Si Si2 0.737837 0.116845 0.628268
Si Si3 0.889592 0.282195 0.687353
Si Si4 0.370955 0.017076 0.816185
O O1 0.349424 0.470329 0.000000
O O2 0.285093 0.647137 0.939520
O O3 0.798678 0.186916 0.683043
O O4 0.607309 0.143766 0.629108
O O5 0.756200 0.988801 0.642520
O O6 0.937453 0.302577 0.756744
O O7 0.830129 0.395775 0.663578
O O8 0.500000 0.000000 0.800299
#
# Coordination Sequence:
#
# PCOD8303754 Si02
#       4
#     8  16  16  16
#     4  11  22  38  51  77 117 144 181 228 271 319
#     4  11  21  34  58  78 108 149 180 216 274 326
#     4  11  19  34  55  83 110 144 174 227 276 322
#     4  10  18  34  53  81 111 138 174 225 272 319
#
# _framework density 17.743682
#
# number of rings (size 3 to 8) (size 9 to 14) (size 15 to 20)
#    0.000    1.286    8.571    0.857    0.000    0.571 
#    0.000    7.857    0.000    0.857    0.000    0.000 
#    0.000    2.286    0.000    0.000    0.000    0.000 
#
# Total GULP energy -346891.296413 kJ/mol
# GULP energy per Si atom -12388.974872 kJ/mol
# Density = 1.770330 g / cm^3
# Si number density = 17.743682 Si / 1000 Ang^3
#
#
#
# Elastic Constant Matrix: (Units=GPa)
#
#
# Indices 1 2 3 4 5 6 
#
# 1 78.7921 48.4786 25.0424 0.0000 0.0000 1.0540
# 2 48.4786 78.7921 25.0424 0.0000 0.0000 -1.0540
# 3 25.0424 25.0424 73.0274 0.0000 0.0000 0.0000
# 4 0.0000 0.0000 0.0000 23.5663 0.0000 0.0000
# 5 0.0000 0.0000 0.0000 0.0000 23.5663 0.0000
# 6 1.0540 -1.0540 0.0000 0.0000 0.0000 25.1632
#
#
#
# Elastic Compliance Matrix: (Units=1/GPa)
#
#
# Indices 1 2 3 4 5 6 
#
# 1 0.021084 -0.012001 -0.003115 0.000000 0.000000 -0.001386
# 2 -0.012001 0.021084 -0.003115 0.000000 0.000000 0.001386
# 3 -0.003115 -0.003115 0.015830 0.000000 0.000000 0.000000
# 4 0.000000 0.000000 0.000000 0.042433 0.000000 0.000000
# 5 0.000000 0.000000 0.000000 0.000000 0.042433 0.000000
# 6 -0.001386 0.001386 0.000000 0.000000 0.000000 0.039857
#
#
# Mechanical properties :
#
#
# Convention : Reuss Voigt Hill
#
# Bulk Modulus (GPa) = 46.43218 47.52649 46.97933
# Shear Modulus (GPa) = 22.08859 23.26237 22.67548
#
# Velocity S-wave (km/s) = 3.53210 3.62473 3.57872
# Velocity P-wave (km/s) = 6.54671 6.66044 6.60382
#
# Compressibility (1/GPa) = 0.02153679
#
# Stress axis : x y z
#
# Youngs Moduli (GPa) = 47.42928 47.42928 63.17250
#
# Poissons Ratio (x) = 0.56920 0.19676
# Poissons Ratio (y) = 0.56920 0.19676
# Poissons Ratio (z) = 0.14773 0.14773
#
# Static dielectric constant tensor:
#      x y z
#    x 3.540810 0.000000 0.000000 
#    y 0.000000 3.540810 0.000000 
#    z 0.000000 0.000000 2.996390 
# 
# 
# High freq. dielectric constant tensor:
#      x y z
#    x 1.681870 0.000000 0.000000 
#    y 0.000000 1.681870 0.000000 
#    z 0.000000 0.000000 1.658940 
# 
# From -- ./inp_files/4897.got.cif
#   From: 2010.03.12/outbox.cif.g09.slc.cpg/sg87_3_cif.got.tgz:4897.got - 2010.04.08 20:16:13.
