data_PCOD8303486
_publ_section_title
;
Structure prediction by ZEFSAII (Michael W. Deem and Ramdas Pophale) SiO2 
 PCOD8303486
Probable space group: P 42/N
;
_chemical_formula_sum "Si O2"
_cell_formula_units_Z 54
_cell_length_a 15.973388
_cell_length_b 15.973388
_cell_length_c 11.048048
_cell_angle_alpha 90.000000
_cell_angle_beta 90.000000
_cell_angle_gamma 90.000000
_cell_volume 2818.899771
_symmetry_space_group_name_H-M "P 42/N"
_symmetry_group_IT_number 86
_space_group.IT_coordinate_system_code '2'
_symmetry_cell_setting 'tetragonal'
loop_
_space_group_symop_operation_xyz
x,y,z
-y,1/2+x,1/2+z
1/2-x,1/2-y,z
1/2+y,-x,1/2+z
-x,-y,-z
y,1/2-x,1/2-z
1/2+x,1/2+y,-z
1/2-y,x,1/2-z
loop_
_atom_site_type_symbol
_atom_site_label
_atom_site_fract_x
_atom_site_fract_y
_atom_site_fract_z
Si Si1 0.750000 0.750000 0.250000
Si Si2 0.222871 0.577350 0.321983
Si Si3 0.750000 0.250000 0.310854
Si Si4 0.119116 0.676951 0.041617
Si Si5 0.654873 0.528391 0.285232
Si Si6 0.454859 0.920882 0.442411
Si Si7 0.410555 0.294626 0.641575
Si Si8 0.031543 0.751579 0.562267
O O1 0.761857 0.827447 0.158523
O O2 0.231830 0.671539 0.273736
O O3 0.295495 0.568532 0.422125
O O4 0.134789 0.556358 0.384375
O O5 0.237455 0.516185 0.206922
O O6 0.756546 0.332450 0.397406
O O7 0.189118 0.606652 0.014470
O O8 0.051154 0.637748 0.131245
O O9 0.606325 0.518625 0.160770
O O10 0.755009 0.532315 0.250911
O O11 0.613614 0.608620 0.348921
O O12 0.444804 0.845058 0.537990
O O13 0.500000 0.000000 0.500000
O O14 0.448409 0.279364 0.508900
#
# Coordination Sequence:
#
# PCOD8303486 Si02
#       8
#     2   8   4   8   8   8   8   8
#     4   8  16  40  64  88 102 164 220 264 310 368
#     4  11  21  37  57  91 125 164 200 244 316 377
#     4  10  18  36  58  84 128 160 204 238 296 374
#     4  11  22  35  61  91 127 164 199 244 317 387
#     4  10  21  40  60  93 114 161 215 259 311 375
#     4  11  23  40  60  87 126 165 211 258 308 375
#     4   9  20  37  65  83 119 152 213 270 307 357
#     4  10  22  40  58  92 125 160 203 262 314 373
#
# _framework density 19.156410000000001
#
# number of rings (size 3 to 8) (size 9 to 14) (size 15 to 20)
#    0.000    1.778    2.963    3.111    4.148    1.778 
#    2.667    0.000    0.000    0.000    0.000    0.000 
#    0.000    0.000    0.000    0.000    0.000    0.000 
#
# Total GULP energy -669051.071465 kJ/mol
# GULP energy per Si atom -12389.834657 kJ/mol
# Density = 1.911281 g / cm^3
# Si number density = 19.156410 Si / 1000 Ang^3
#
#
#
# Elastic Constant Matrix: (Units=GPa)
#
#
# Indices 1 2 3 4 5 6 
#
# 1 102.8383 50.0703 55.2695 0.0000 0.0000 -0.9581
# 2 50.0703 102.8383 55.2695 0.0000 0.0000 0.9581
# 3 55.2695 55.2695 125.0453 0.0000 0.0000 0.0000
# 4 0.0000 0.0000 0.0000 31.6067 0.0000 0.0000
# 5 0.0000 0.0000 0.0000 0.0000 31.6067 0.0000
# 6 -0.9581 0.9581 0.0000 0.0000 0.0000 30.9196
#
#
#
# Elastic Compliance Matrix: (Units=1/GPa)
#
#
# Indices 1 2 3 4 5 6 
#
# 1 0.014291 -0.004681 -0.004248 0.000000 0.000000 0.000588
# 2 -0.004681 0.014291 -0.004248 0.000000 0.000000 -0.000588
# 3 -0.004248 -0.004248 0.011752 0.000000 0.000000 0.000000
# 4 0.000000 0.000000 0.000000 0.031639 0.000000 0.000000
# 5 0.000000 0.000000 0.000000 0.000000 0.031639 0.000000
# 6 0.000588 -0.000588 0.000000 0.000000 0.000000 0.032378
#
#
# Mechanical properties :
#
#
# Convention : Reuss Voigt Hill
#
# Bulk Modulus (GPa) = 71.52036 72.43785 71.97910
# Shear Modulus (GPa) = 29.93923 30.16744 30.05334
#
# Velocity S-wave (km/s) = 3.95762 3.97268 3.96516
# Velocity P-wave (km/s) = 7.63542 7.67716 7.65632
#
# Compressibility (1/GPa) = 0.01398203
#
# Stress axis : x y z
#
# Youngs Moduli (GPa) = 69.97185 69.97185 85.09040
#
# Poissons Ratio (x) = 0.32752 0.36145
# Poissons Ratio (y) = 0.32752 0.36145
# Poissons Ratio (z) = 0.29723 0.29723
#
# Static dielectric constant tensor:
#      x y z
#    x 3.500700 0.000000 0.000000 
#    y 0.000000 3.500700 0.000000 
#    z 0.000000 0.000000 3.708740 
# 
# 
# High freq. dielectric constant tensor:
#      x y z
#    x 1.736140 0.000000 0.000000 
#    y 0.000000 1.736140 0.000000 
#    z 0.000000 0.000000 1.745800 
# 
# From -- ./inp_files/2402.got.cif
#   From: 2010.03.12/outbox.cif.g09.slc.cpg/sg86_2_cif.got.tgz:2402.got - 2010.04.08 20:12:58.
