data_PCOD8303675
_publ_section_title
;
Structure prediction by ZEFSAII (Michael W. Deem and Ramdas Pophale) SiO2 
 PCOD8303675
Probable space group: P 42/N
;
_chemical_formula_sum "Si O2"
_cell_formula_units_Z 60
_cell_length_a 10.851228
_cell_length_b 10.851228
_cell_length_c 21.603948
_cell_angle_alpha 90.000000
_cell_angle_beta 90.000000
_cell_angle_gamma 90.000000
_cell_volume 2543.846494
_symmetry_space_group_name_H-M "P 42/N"
_symmetry_group_IT_number 86
_space_group.IT_coordinate_system_code '2'
_symmetry_cell_setting 'tetragonal'
loop_
_space_group_symop_operation_xyz
x,y,z
-y,1/2+x,1/2+z
1/2-x,1/2-y,z
1/2+y,-x,1/2+z
-x,-y,-z
y,1/2-x,1/2-z
1/2+x,1/2+y,-z
1/2-y,x,1/2-z
loop_
_atom_site_type_symbol
_atom_site_label
_atom_site_fract_x
_atom_site_fract_y
_atom_site_fract_z
Si Si1 0.171258 0.129499 0.014828
Si Si2 0.549390 0.149804 0.380565
Si Si3 0.006341 0.632092 0.393360
Si Si4 0.250000 0.750000 0.530634
Si Si5 0.946018 0.243320 0.057919
Si Si6 0.107658 0.296519 0.166230
Si Si7 0.940280 0.698218 0.266230
Si Si8 0.035606 0.835459 0.728787
O O1 0.250000 0.250000 0.004103
O O2 0.192440 0.039763 0.957259
O O3 0.025030 0.156111 0.011840
O O4 0.200774 0.073383 0.083709
O O5 0.658597 0.177341 0.426697
O O6 0.569798 0.217386 0.314445
O O7 0.541780 0.003375 0.372823
O O8 0.964504 0.722794 0.338779
O O9 0.154357 0.633845 0.397638
O O10 0.319394 0.648407 0.485904
O O11 0.049453 0.315569 0.097568
O O12 0.250000 0.250000 0.168494
O O13 0.089621 0.429279 0.195013
O O14 0.020220 0.202731 0.204561
O O15 0.829682 0.598366 0.261326
O O16 0.068788 0.649385 0.235755
#
# Coordination Sequence:
#
# PCOD8303675 Si02
#       8
#     8   8   8   4   8   8   8   8
#     4  11  22  40  70  99 130 181 229 272 338 407
#     4  11  24  43  70 102 136 175 230 287 340 405
#     4  11  21  46  70  94 132 186 233 267 340 415
#     4  12  24  44  64 100 144 174 226 292 340 406
#     4  11  22  42  68  99 136 179 223 278 340 402
#     4  12  22  42  74 108 139 171 230 293 341 400
#     4  11  28  48  67  97 139 182 230 282 339 418
#     4  12  23  43  72 103 135 177 224 288 345 400
#
# _framework density 23.586327000000001
#
# number of rings (size 3 to 8) (size 9 to 14) (size 15 to 20)
#    0.000    0.667    5.333    4.400    3.733    1.600 
#    0.000    1.333    0.000    0.000    0.000    0.000 
#    0.000    0.000    0.000    0.000    0.000    0.000 
#
# Total GULP energy -743355.059423 kJ/mol
# GULP energy per Si atom -12389.250990 kJ/mol
# Density = 2.353264 g / cm^3
# Si number density = 23.586327 Si / 1000 Ang^3
#
#
#
# Elastic Constant Matrix: (Units=GPa)
#
#
# Indices 1 2 3 4 5 6 
#
# 1 42.8906 5.6217 7.2294 0.0000 0.0000 -2.1074
# 2 5.6217 42.8906 7.2294 0.0000 0.0000 2.1074
# 3 7.2294 7.2294 99.5216 0.0000 0.0000 0.0000
# 4 0.0000 0.0000 0.0000 38.1965 0.0000 0.0000
# 5 0.0000 0.0000 0.0000 0.0000 38.1965 0.0000
# 6 -2.1074 2.1074 0.0000 0.0000 0.0000 35.7943
#
#
#
# Elastic Compliance Matrix: (Units=1/GPa)
#
#
# Indices 1 2 3 4 5 6 
#
# 1 0.024041 -0.002971 -0.001531 0.000000 0.000000 0.001590
# 2 -0.002971 0.024041 -0.001531 0.000000 0.000000 -0.001590
# 3 -0.001531 -0.001531 0.010270 0.000000 0.000000 0.000000
# 4 0.000000 0.000000 0.000000 0.026180 0.000000 0.000000
# 5 0.000000 0.000000 0.000000 0.000000 0.026180 0.000000
# 6 0.001590 -0.001590 0.000000 0.000000 0.000000 0.028125
#
#
# Mechanical properties :
#
#
# Convention : Reuss Voigt Hill
#
# Bulk Modulus (GPa) = 21.60420 25.05156 23.32788
# Shear Modulus (GPa) = 30.06059 33.45230 31.75645
#
# Velocity S-wave (km/s) = 3.57388 3.77011 3.67330
# Velocity P-wave (km/s) = 5.11953 5.44021 5.28231
#
# Compressibility (1/GPa) = 0.04628729
#
# Stress axis : x y z
#
# Youngs Moduli (GPa) = 41.59620 41.59620 97.36687
#
# Poissons Ratio (x) = 0.12359 0.14902
# Poissons Ratio (y) = 0.12359 0.14902
# Poissons Ratio (z) = 0.06366 0.06366
#
# Static dielectric constant tensor:
#      x y z
#    x 5.108990 0.000000 0.000000 
#    y 0.000000 5.108990 0.000000 
#    z 0.000000 0.000000 4.503360 
# 
# 
# High freq. dielectric constant tensor:
#      x y z
#    x 1.919890 0.000000 0.000000 
#    y 0.000000 1.919890 0.000000 
#    z 0.000000 0.000000 1.950890 
# 
# From -- ./inp_files/4260.got.cif
#   From: 2010.03.12/outbox.cif.g09.slc.cpg/sg86_3_cif.got.tgz:4260.got - 2010.04.08 20:12:58.
