data_PCOD8303713
_publ_section_title
;
Structure prediction by ZEFSAII (Michael W. Deem and Ramdas Pophale) SiO2 
 PCOD8303713
Probable space group: P 42/N
;
_chemical_formula_sum "Si O2"
_cell_formula_units_Z 26
_cell_length_a 13.394117
_cell_length_b 13.394117
_cell_length_c 6.490904
_cell_angle_alpha 90.000000
_cell_angle_beta 90.000000
_cell_angle_gamma 90.000000
_cell_volume 1164.483562
_symmetry_space_group_name_H-M "P 42/N"
_symmetry_group_IT_number 86
_space_group.IT_coordinate_system_code '2'
_symmetry_cell_setting 'tetragonal'
loop_
_space_group_symop_operation_xyz
x,y,z
-y,1/2+x,1/2+z
1/2-x,1/2-y,z
1/2+y,-x,1/2+z
-x,-y,-z
y,1/2-x,1/2-z
1/2+x,1/2+y,-z
1/2-y,x,1/2-z
loop_
_atom_site_type_symbol
_atom_site_label
_atom_site_fract_x
_atom_site_fract_y
_atom_site_fract_z
Si Si1 0.593187 0.649194 0.978971
Si Si2 0.250000 0.250000 0.250000
Si Si3 0.054646 0.911336 0.624718
Si Si4 0.259173 0.503828 0.840426
O O1 0.648337 0.745683 0.882464
O O2 0.506378 0.607415 0.834245
O O3 0.554700 0.679589 0.201788
O O4 0.677831 0.566241 0.009365
O O5 0.068915 0.811058 0.490309
O O6 0.167881 0.935258 0.690340
O O7 0.000000 0.000000 0.500000
#
# Coordination Sequence:
#
# PCOD8303713 Si02
#       4
#     8   2   8   8
#     4  12  24  45  74 108 145 186 253 307 376 437
#     4  12  20  38  72 112 134 180 248 310 352 452
#     4  12  27  48  75 108 151 194 250 314 379 452
#     4  12  26  45  76 106 148 197 245 309 380 446
#
# _framework density 22.327496
#
# number of rings (size 3 to 8) (size 9 to 14) (size 15 to 20)
#    0.000    0.000    6.154    4.615    0.000    0.000 
#    0.000    4.615    0.000    0.000    0.000    0.000 
#    0.000    0.000    0.000    0.000    0.000    0.000 
#
# Total GULP energy -322424.265166 kJ/mol
# GULP energy per Si atom -12400.933276 kJ/mol
# Density = 2.227668 g / cm^3
# Si number density = 22.327496 Si / 1000 Ang^3
#
#
#
# Elastic Constant Matrix: (Units=GPa)
#
#
# Indices 1 2 3 4 5 6 
#
# 1 98.5398 43.0584 39.5028 0.0000 0.0000 -2.4116
# 2 43.0584 98.5398 39.5028 0.0000 0.0000 2.4116
# 3 39.5028 39.5028 102.1328 0.0000 0.0000 0.0000
# 4 0.0000 0.0000 0.0000 42.5046 0.0000 0.0000
# 5 0.0000 0.0000 0.0000 0.0000 42.5046 0.0000
# 6 -2.4116 2.4116 0.0000 0.0000 0.0000 35.9860
#
#
#
# Elastic Compliance Matrix: (Units=1/GPa)
#
#
# Indices 1 2 3 4 5 6 
#
# 1 0.013568 -0.004562 -0.003483 0.000000 0.000000 0.001215
# 2 -0.004562 0.013568 -0.003483 0.000000 0.000000 -0.001215
# 3 -0.003483 -0.003483 0.012486 0.000000 0.000000 0.000000
# 4 0.000000 0.000000 0.000000 0.023527 0.000000 0.000000
# 5 0.000000 0.000000 0.000000 0.000000 0.023527 0.000000
# 6 0.001215 -0.001215 0.000000 0.000000 0.000000 0.027951
#
#
# Mechanical properties :
#
#
# Convention : Reuss Voigt Hill
#
# Bulk Modulus (GPa) = 60.37112 60.37112 60.37112
# Shear Modulus (GPa) = 34.91512 36.00893 35.46202
#
# Velocity S-wave (km/s) = 3.95875 4.02028 3.98963
# Velocity P-wave (km/s) = 6.92771 6.97480 6.95129
#
# Compressibility (1/GPa) = 0.01656421
#
# Stress axis : x y z
#
# Youngs Moduli (GPa) = 73.70443 73.70443 80.09197
#
# Poissons Ratio (x) = 0.33624 0.27898
# Poissons Ratio (y) = 0.33624 0.27898
# Poissons Ratio (z) = 0.25673 0.25673
#
# Static dielectric constant tensor:
#      x y z
#    x 4.020760 0.000000 0.000000 
#    y 0.000000 4.020760 0.000000 
#    z 0.000000 0.000000 4.200580 
# 
# 
# High freq. dielectric constant tensor:
#      x y z
#    x 1.875410 0.000000 0.000000 
#    y 0.000000 1.875410 0.000000 
#    z 0.000000 0.000000 1.904840 
# 
# From -- ./inp_files/144.got.cif
#   From: 2010.03.12/outbox.cif.g09.slc.cpg/sg86_1_cif.got.tgz:144.got - 2010.04.08 20:12:58.
