data_PCOD8303425
_publ_section_title
;
Structure prediction by ZEFSAII (Michael W. Deem and Ramdas Pophale) SiO2 
 PCOD8303425
Probable space group: P 4/N
;
_chemical_formula_sum "Si O2"
_cell_formula_units_Z 48
_cell_length_a 16.242713
_cell_length_b 16.242713
_cell_length_c 9.072284
_cell_angle_alpha 90.000000
_cell_angle_beta 90.000000
_cell_angle_gamma 90.000000
_cell_volume 2393.501909
_symmetry_space_group_name_H-M "P 4/N"
_symmetry_group_IT_number 85
_symmetry_cell_setting 'tetragonal'
loop_
_space_group_symop_operation_xyz
x,y,z
1/2-y,x,z
1/2-x,1/2-y,z
y,1/2-x,z
-x,-y,-z
1/2+y,-x,-z
1/2+x,1/2+y,-z
-y,1/2+x,-z
loop_
_atom_site_type_symbol
_atom_site_label
_atom_site_fract_x
_atom_site_fract_y
_atom_site_fract_z
Si Si1 0.206255 0.991207 0.264248
Si Si2 0.941740 0.123420 0.769026
Si Si3 0.376983 0.714551 0.507775
Si Si4 0.120916 0.103370 0.795531
Si Si5 0.467202 0.261253 0.955977
Si Si6 0.868776 0.689609 0.521427
O O1 0.133521 0.936229 0.193995
O O2 0.270455 0.934074 0.351225
O O3 0.257468 0.033850 0.133070
O O4 0.161806 0.057138 0.371849
O O5 0.931173 0.170540 0.615256
O O6 0.028133 0.072484 0.756767
O O7 0.950057 0.192145 0.898858
O O8 0.301242 0.656556 0.556013
O O9 0.175946 0.111121 0.649252
O O10 0.112220 0.188815 0.890274
O O11 0.167646 0.036666 0.895974
O O12 0.859671 0.786269 0.557273
#
# Coordination Sequence:
#
# PCOD8303425 Si02
#       6
#     8   8   8   8   8   8
#     4  11  23  39  62  97 129 154 221 274 310 371
#     4   9  22  41  62  92 124 173 206 254 335 382
#     4   9  18  37  63  89 121 165 215 263 312 376
#     4  10  20  42  61  85 124 167 208 240 323 386
#     4  10  23  38  60  88 124 171 200 254 317 381
#     4  11  22  38  63  91 121 168 215 262 312 383
#
# _framework density 20.054296999999998
#
# number of rings (size 3 to 8) (size 9 to 14) (size 15 to 20)
#    1.000    1.000    1.667    2.000    2.333    3.000 
#    0.000    1.667    0.000    0.000    0.000    0.000 
#    0.000    0.000    0.000    0.000    0.000    0.000 
#
# Total GULP energy -594896.571631 kJ/mol
# GULP energy per Si atom -12393.678576 kJ/mol
# Density = 2.000865 g / cm^3
# Si number density = 20.054297 Si / 1000 Ang^3
#
#
#
# Elastic Constant Matrix: (Units=GPa)
#
#
# Indices 1 2 3 4 5 6 
#
# 1 65.2743 25.2609 49.5394 0.0000 0.0000 -2.6632
# 2 25.2609 65.2743 49.5394 0.0000 0.0000 2.6632
# 3 49.5394 49.5394 136.1022 0.0000 0.0000 0.0000
# 4 0.0000 0.0000 0.0000 29.5255 0.0000 0.0000
# 5 0.0000 0.0000 0.0000 0.0000 29.5255 0.0000
# 6 -2.6632 2.6632 0.0000 0.0000 0.0000 28.3417
#
#
#
# Elastic Compliance Matrix: (Units=1/GPa)
#
#
# Indices 1 2 3 4 5 6 
#
# 1 0.021833 -0.003475 -0.006682 0.000000 0.000000 0.002378
# 2 -0.003475 0.021833 -0.006682 0.000000 0.000000 -0.002378
# 3 -0.006682 -0.006682 0.012212 0.000000 0.000000 0.000000
# 4 0.000000 0.000000 0.000000 0.033869 0.000000 0.000000
# 5 0.000000 0.000000 0.000000 0.000000 0.033869 0.000000
# 6 0.002378 -0.002378 0.000000 0.000000 0.000000 0.035731
#
#
# Mechanical properties :
#
#
# Convention : Reuss Voigt Hill
#
# Bulk Modulus (GPa) = 45.04587 57.25893 51.15240
# Shear Modulus (GPa) = 24.94698 26.96596 25.95647
#
# Velocity S-wave (km/s) = 3.53082 3.67092 3.60155
# Velocity P-wave (km/s) = 6.25564 6.82506 6.54654
#
# Compressibility (1/GPa) = 0.02219959
#
# Stress axis : x y z
#
# Youngs Moduli (GPa) = 45.80193 45.80193 81.88792
#
# Poissons Ratio (x) = 0.15916 0.54718
# Poissons Ratio (y) = 0.15916 0.54718
# Poissons Ratio (z) = 0.30605 0.30605
#
# Static dielectric constant tensor:
#      x y z
#    x 3.550570 0.000000 0.000000 
#    y 0.000000 3.550570 0.000000 
#    z 0.000000 0.000000 3.434380 
# 
# 
# High freq. dielectric constant tensor:
#      x y z
#    x 1.773570 0.000000 0.000000 
#    y 0.000000 1.773570 0.000000 
#    z 0.000000 0.000000 1.776710 
# 
# From -- ./inp_files/1093.got.cif
#   From: 2010.03.12/outbox.cif.g09.slc.cpg/sg85_cif.got.tgz:1093.got - 2010.04.08 20:10:46.
