data_PCOD8303461
_publ_section_title
;
Structure prediction by ZEFSAII (Michael W. Deem and Ramdas Pophale) SiO2 
 PCOD8303461
Probable space group: P 4/N
;
_chemical_formula_sum "Si O2"
_cell_formula_units_Z 26
_cell_length_a 8.262054
_cell_length_b 8.262054
_cell_length_c 16.880220
_cell_angle_alpha 90.000000
_cell_angle_beta 90.000000
_cell_angle_gamma 90.000000
_cell_volume 1152.269750
_symmetry_space_group_name_H-M "P 4/N"
_symmetry_group_IT_number 85
_symmetry_cell_setting 'tetragonal'
loop_
_space_group_symop_operation_xyz
x,y,z
1/2-y,x,z
1/2-x,1/2-y,z
y,1/2-x,z
-x,-y,-z
1/2+y,-x,-z
1/2+x,1/2+y,-z
-y,1/2+x,-z
loop_
_atom_site_type_symbol
_atom_site_label
_atom_site_fract_x
_atom_site_fract_y
_atom_site_fract_z
Si Si1 0.452301 0.076224 0.917092
Si Si2 0.497730 0.159172 0.616518
Si Si3 0.750000 0.250000 0.500000
Si Si4 0.615677 0.975642 0.760778
O O1 0.474653 0.267201 0.907147
O O2 0.574545 0.005277 0.852280
O O3 0.500000 0.000000 0.000000
O O4 0.455583 0.345869 0.601647
O O5 0.643396 0.127614 0.554730
O O6 0.549951 0.122065 0.706708
O O7 0.531988 0.805148 0.741227
#
# Coordination Sequence:
#
# PCOD8303461 Si02
#       4
#     8   8   2   8
#     4  11  24  41  63  94 130 169 216 268 325 394
#     4  11  24  42  66  96 129 169 218 272 332 398
#     4  12  24  44  68  96 132 174 220 280 340 400
#     4  11  24  42  65  94 129 170 217 270 331 397
#
# _framework density 22.564160000000001
#
# number of rings (size 3 to 8) (size 9 to 14) (size 15 to 20)
#    0.000    0.923    0.000    6.462    0.000   11.692 
#    0.000    3.077    0.000    0.000    0.000    0.000 
#    0.000    0.000    0.000    0.000    0.000    0.000 
#
# Total GULP energy -322334.303230 kJ/mol
# GULP energy per Si atom -12397.473201 kJ/mol
# Density = 2.251280 g / cm^3
# Si number density = 22.564160 Si / 1000 Ang^3
#
#
#
# Elastic Constant Matrix: (Units=GPa)
#
#
# Indices 1 2 3 4 5 6 
#
# 1 86.5266 53.7941 44.9468 0.0000 0.0000 7.0477
# 2 53.7941 86.5266 44.9468 0.0000 0.0000 -7.0477
# 3 44.9468 44.9468 160.0224 0.0000 0.0000 0.0000
# 4 0.0000 0.0000 0.0000 45.1363 0.0000 0.0000
# 5 0.0000 0.0000 0.0000 0.0000 45.1363 0.0000
# 6 7.0477 -7.0477 0.0000 0.0000 0.0000 35.0668
#
#
#
# Elastic Compliance Matrix: (Units=1/GPa)
#
#
# Indices 1 2 3 4 5 6 
#
# 1 0.021068 -0.012377 -0.002441 0.000000 0.000000 -0.006722
# 2 -0.012377 0.021068 -0.002441 0.000000 0.000000 0.006722
# 3 -0.002441 -0.002441 0.007620 0.000000 0.000000 0.000000
# 4 0.000000 0.000000 0.000000 0.022155 0.000000 0.000000
# 5 0.000000 0.000000 0.000000 0.000000 0.022155 0.000000
# 6 -0.006722 0.006722 0.000000 0.000000 0.000000 0.031219
#
#
# Mechanical properties :
#
#
# Convention : Reuss Voigt Hill
#
# Bulk Modulus (GPa) = 65.62882 68.93900 67.28391
# Shear Modulus (GPa) = 30.32460 37.69371 34.00916
#
# Velocity S-wave (km/s) = 3.66994 4.09162 3.88651
# Velocity P-wave (km/s) = 6.86342 7.27603 7.07273
#
# Compressibility (1/GPa) = 0.01523721
#
# Stress axis : x y z
#
# Youngs Moduli (GPa) = 47.46594 47.46594 131.22815
#
# Poissons Ratio (x) = 0.58751 0.32031
# Poissons Ratio (y) = 0.58751 0.32031
# Poissons Ratio (z) = 0.11586 0.11586
#
# Static dielectric constant tensor:
#      x y z
#    x 3.869470 0.000000 0.000000 
#    y 0.000000 3.869470 0.000000 
#    z 0.000000 0.000000 3.970960 
# 
# 
# High freq. dielectric constant tensor:
#      x y z
#    x 1.897890 0.000000 0.000000 
#    y 0.000000 1.897890 0.000000 
#    z 0.000000 0.000000 1.897070 
# 
# From -- ./inp_files/2047.got.cif
#   From: 2010.03.12/outbox.cif.g09.slc.cpg/sg85_cif.got.tgz:2047.got - 2010.04.08 20:10:46.
