data_PCOD8303806
_publ_section_title
;
Structure prediction by ZEFSAII (Michael W. Deem and Ramdas Pophale) SiO2 
 PCOD8303806
Probable space group: I 4/M
;
_chemical_formula_sum "Si O2"
_cell_formula_units_Z 96
_cell_length_a 22.892082
_cell_length_b 22.892082
_cell_length_c 8.965344
_cell_angle_alpha 90.000000
_cell_angle_beta 90.000000
_cell_angle_gamma 90.000000
_cell_volume 4698.265377
_symmetry_space_group_name_H-M "I 4/M"
_symmetry_group_IT_number 87
_symmetry_cell_setting 'tetragonal'
loop_
_space_group_symop_operation_xyz
x,y,z
-y,x,z
-x,-y,z
y,-x,z
-x,-y,-z
y,-x,-z
x,y,-z
-y,x,-z
1/2+x,1/2+y,1/2+z
1/2-y,1/2+x,1/2+z
1/2-x,1/2-y,1/2+z
1/2+y,1/2-x,1/2+z
1/2-x,1/2-y,1/2-z
1/2+y,1/2-x,1/2-z
1/2+x,1/2+y,1/2-z
1/2-y,1/2+x,1/2-z
loop_
_atom_site_type_symbol
_atom_site_label
_atom_site_fract_x
_atom_site_fract_y
_atom_site_fract_z
Si Si1 0.976812 0.839580 0.323568
Si Si2 0.671419 0.273274 0.668835
Si Si3 0.710113 0.166747 0.174144
Si Si4 0.585636 0.999935 0.324446
Si Si5 0.709021 0.045958 0.672476
Si Si6 0.123224 0.090411 0.828348
O O1 0.982011 0.848023 0.500000
O O2 0.981244 0.771192 0.276874
O O3 0.916174 0.865300 0.265371
O O4 0.026662 0.877673 0.243940
O O5 0.683500 0.253185 0.500000
O O6 0.664405 0.215700 0.769432
O O7 0.725214 0.313484 0.724464
O O8 0.612573 0.310323 0.682413
O O9 0.694497 0.104989 0.242320
O O10 0.703495 0.160029 0.000000
O O11 0.571953 0.995517 0.500000
O O12 0.555928 0.059049 0.260361
O O13 0.655515 0.001541 0.295103
O O14 0.712530 0.062397 0.500000
O O15 0.101825 0.088001 0.000000
#
# Coordination Sequence:
#
# PCOD8303806 Si02
#       6
#    16  16  16  16  16  16
#     4  11  24  42  64  90 119 155 197 247 302 359
#     4   9  19  35  55  83 118 154 192 235 291 352
#     4  10  19  32  56  87 118 153 195 237 288 351
#     4  10  21  39  61  88 121 161 203 246 292 345
#     4  10  22  39  60  87 123 158 198 247 298 353
#     4  11  23  42  64  88 120 156 199 248 298 357
#
# _framework density 20.433074000000001
#
# number of rings (size 3 to 8) (size 9 to 14) (size 15 to 20)
#    0.000    1.833    1.667    2.500    0.000    5.667 
#    0.000    5.000    0.000    0.000    0.000    0.000 
#    0.000    0.000    0.000    0.000    0.000    0.000 
#
# Total GULP energy -595265.210329 kJ/mol
# GULP energy per Si atom -12401.358549 kJ/mol
# Density = 2.038657 g / cm^3
# Si number density = 20.433074 Si / 1000 Ang^3
#
#
#
# Elastic Constant Matrix: (Units=GPa)
#
#
# Indices 1 2 3 4 5 6 
#
# 1 85.5163 20.8658 33.0945 0.0000 0.0000 7.1199
# 2 20.8658 85.5163 33.0945 0.0000 0.0000 -7.1199
# 3 33.0945 33.0945 62.5102 0.0000 0.0000 0.0000
# 4 0.0000 0.0000 0.0000 30.4068 0.0000 0.0000
# 5 0.0000 0.0000 0.0000 0.0000 30.4068 0.0000
# 6 7.1199 -7.1199 0.0000 0.0000 0.0000 18.5272
#
#
#
# Elastic Compliance Matrix: (Units=1/GPa)
#
#
# Indices 1 2 3 4 5 6 
#
# 1 0.015458 -0.001440 -0.007421 0.000000 0.000000 -0.006494
# 2 -0.001440 0.015458 -0.007421 0.000000 0.000000 0.006494
# 3 -0.007421 -0.007421 0.023855 0.000000 0.000000 0.000000
# 4 0.000000 0.000000 0.000000 0.032887 0.000000 0.000000
# 5 0.000000 0.000000 0.000000 0.000000 0.032887 0.000000
# 6 -0.006494 0.006494 0.000000 0.000000 0.000000 0.058966
#
#
# Mechanical properties :
#
#
# Convention : Reuss Voigt Hill
#
# Bulk Modulus (GPa) = 45.03407 45.29473 45.16440
# Shear Modulus (GPa) = 22.78128 25.63402 24.20765
#
# Velocity S-wave (km/s) = 3.34267 3.54579 3.44572
# Velocity P-wave (km/s) = 6.08157 6.24331 6.16297
#
# Compressibility (1/GPa) = 0.02220541
#
# Stress axis : x y z
#
# Youngs Moduli (GPa) = 64.69242 64.69242 41.91940
#
# Poissons Ratio (x) = 0.09318 0.31109
# Poissons Ratio (y) = 0.09318 0.31109
# Poissons Ratio (z) = 0.48009 0.48009
#
# Static dielectric constant tensor:
#      x y z
#    x 3.620610 0.000000 0.000000 
#    y 0.000000 3.620610 0.000000 
#    z 0.000000 0.000000 3.724100 
# 
# 
# High freq. dielectric constant tensor:
#      x y z
#    x 1.792260 0.000000 0.000000 
#    y 0.000000 1.792260 0.000000 
#    z 0.000000 0.000000 1.805160 
# 
# From -- ./inp_files/1360.got.cif
#   From: 2010.03.12/outbox.cif.g09.slc.cpg/sg87_1_cif.got.tgz:1360.got - 2010.04.08 20:16:13.
