data_PCOD8303345
_publ_section_title
;
Structure prediction by ZEFSAII (Michael W. Deem and Ramdas Pophale) SiO2 
 PCOD8303345
Probable space group: P 42/M
;
_chemical_formula_sum "Si O2"
_cell_formula_units_Z 34
_cell_length_a 8.820434
_cell_length_b 8.820434
_cell_length_c 23.093417
_cell_angle_alpha 90.000000
_cell_angle_beta 90.000000
_cell_angle_gamma 90.000000
_cell_volume 1796.669135
_symmetry_space_group_name_H-M "P 42/M"
_symmetry_group_IT_number 84
_symmetry_cell_setting 'tetragonal'
loop_
_space_group_symop_operation_xyz
x,y,z
-y,x,1/2+z
-x,-y,z
y,-x,1/2+z
-x,-y,-z
y,-x,1/2-z
x,y,-z
-y,x,1/2-z
loop_
_atom_site_type_symbol
_atom_site_label
_atom_site_fract_x
_atom_site_fract_y
_atom_site_fract_z
Si Si1 0.161406 0.919127 0.564298
Si Si2 0.115011 0.780818 0.835554
Si Si3 0.000000 0.000000 0.250000
Si Si4 0.659677 0.945760 0.860190
Si Si5 0.266502 0.588422 0.251239
O O1 0.233017 0.907659 0.500000
O O2 0.148460 0.750518 0.590942
O O3 0.263297 0.028334 0.605110
O O4 0.000000 0.000000 0.561689
O O5 0.182013 0.627907 0.808871
O O6 0.244871 0.907514 0.841984
O O7 0.991542 0.851369 0.790792
O O8 0.622464 0.840726 0.805332
O O9 0.500000 0.000000 0.887573
O O10 0.413759 0.693512 0.255058
#
# Coordination Sequence:
#
# PCOD8303345 Si02
#       5
#     8   8   2   8   8
#     4   9  19  34  53  80 110 141 182 232 271 308
#     4  11  18  32  54  77 107 140 179 222 271 323
#     4  12  16  28  54  80 100 132 172 226 264 316
#     4  11  20  32  54  80 106 140 185 222 268 329
#     4  11  23  35  51  81 117 144 171 221 284 337
#
# _framework density 18.923907
#
# number of rings (size 3 to 8) (size 9 to 14) (size 15 to 20)
#    0.000    1.412    8.235    0.000    0.000    0.471 
#    0.000    0.000    0.000    2.824    0.000    3.294 
#    0.000    0.000    0.000    0.000    0.000    0.000 
#
# Total GULP energy -421439.360371 kJ/mol
# GULP energy per Si atom -12395.275305 kJ/mol
# Density = 1.888083 g / cm^3
# Si number density = 18.923907 Si / 1000 Ang^3
#
#
#
# Elastic Constant Matrix: (Units=GPa)
#
#
# Indices 1 2 3 4 5 6 
#
# 1 75.1234 32.4751 48.8938 0.0000 0.0000 1.2414
# 2 32.4751 75.1234 48.8938 0.0000 0.0000 -1.2414
# 3 48.8938 48.8938 142.8418 0.0000 0.0000 0.0000
# 4 0.0000 0.0000 0.0000 13.3524 0.0000 0.0000
# 5 0.0000 0.0000 0.0000 0.0000 13.3524 0.0000
# 6 1.2414 -1.2414 0.0000 0.0000 0.0000 20.0625
#
#
#
# Elastic Compliance Matrix: (Units=1/GPa)
#
#
# Indices 1 2 3 4 5 6 
#
# 1 0.018511 -0.005021 -0.004618 0.000000 0.000000 -0.001456
# 2 -0.005021 0.018511 -0.004618 0.000000 0.000000 0.001456
# 3 -0.004618 -0.004618 0.010162 0.000000 0.000000 0.000000
# 4 0.000000 0.000000 0.000000 0.074893 0.000000 0.000000
# 5 0.000000 0.000000 0.000000 0.000000 0.074893 0.000000
# 6 -0.001456 0.001456 0.000000 0.000000 0.000000 0.050024
#
#
# Mechanical properties :
#
#
# Convention : Reuss Voigt Hill
#
# Bulk Modulus (GPa) = 53.55583 61.51268 57.53425
# Shear Modulus (GPa) = 17.74735 20.20850 18.97793
#
# Velocity S-wave (km/s) = 3.06572 3.27139 3.17022
# Velocity P-wave (km/s) = 6.39481 6.84435 6.62340
#
# Compressibility (1/GPa) = 0.01867210
#
# Stress axis : x y z
#
# Youngs Moduli (GPa) = 54.02074 54.02074 98.40615
#
# Poissons Ratio (x) = 0.27124 0.45441
# Poissons Ratio (y) = 0.27124 0.45441
# Poissons Ratio (z) = 0.24945 0.24945
#
# Static dielectric constant tensor:
#      x y z
#    x 3.503740 0.000000 0.000000 
#    y 0.000000 3.503740 0.000000 
#    z 0.000000 0.000000 3.723080 
# 
# 
# High freq. dielectric constant tensor:
#      x y z
#    x 1.723810 0.000000 0.000000 
#    y 0.000000 1.723810 0.000000 
#    z 0.000000 0.000000 1.723660 
# 
# From -- ./inp_files/4254.got.cif
#   From: 2010.03.12/outbox.cif.g09.slc.cpg/sg84_3_cif.got.tgz:4254.got - 2010.04.08 20:07:29.
