data_PCOD8303380
_publ_section_title
;
Structure prediction by ZEFSAII (Michael W. Deem and Ramdas Pophale) SiO2 
 PCOD8303380
Probable space group: P 42/M
;
_chemical_formula_sum "Si O2"
_cell_formula_units_Z 48
_cell_length_a 8.769733
_cell_length_b 8.769733
_cell_length_c 29.543024
_cell_angle_alpha 90.000000
_cell_angle_beta 90.000000
_cell_angle_gamma 90.000000
_cell_volume 2272.101297
_symmetry_space_group_name_H-M "P 42/M"
_symmetry_group_IT_number 84
_symmetry_cell_setting 'tetragonal'
loop_
_space_group_symop_operation_xyz
x,y,z
-y,x,1/2+z
-x,-y,z
y,-x,1/2+z
-x,-y,-z
y,-x,1/2-z
x,y,-z
-y,x,1/2-z
loop_
_atom_site_type_symbol
_atom_site_label
_atom_site_fract_x
_atom_site_fract_y
_atom_site_fract_z
Si Si1 0.083589 0.644811 0.854111
Si Si2 0.221440 0.107484 0.739958
Si Si3 0.126155 0.114234 0.115977
Si Si4 0.642141 0.596449 0.386768
Si Si5 0.153711 0.589867 0.322124
Si Si6 0.073744 0.336340 0.449478
O O1 0.131002 0.754255 0.813132
O O2 0.237690 0.579001 0.875297
O O3 0.000000 0.500000 0.833173
O O4 0.973946 0.730337 0.891398
O O5 0.367327 0.170863 0.768946
O O6 0.071550 0.204329 0.750506
O O7 0.246192 0.146629 0.154686
O O8 0.211334 0.041623 0.072446
O O9 0.000000 0.000000 0.135522
O O10 0.500000 0.500000 0.407061
O O11 0.706539 0.507936 0.342359
O O12 0.770656 0.632792 0.423370
O O13 0.000000 0.500000 0.333471
O O14 0.108967 0.276177 0.500000
O O15 0.000000 0.500000 0.451250
#
# Coordination Sequence:
#
# PCOD8303380 Si02
#       6
#     8   8   8   8   8   8
#     4  12  26  42  64  99 133 179 225 280 337 398
#     4  11  23  37  64  97 131 173 230 283 322 381
#     4  12  20  41  69  95 129 171 221 276 337 392
#     4  12  25  45  68  93 138 180 217 273 348 413
#     4  12  21  40  65  93 128 182 226 273 329 396
#     4  11  24  44  74 104 129 170 226 279 340 420
#
# _framework density 21.125820000000001
#
# number of rings (size 3 to 8) (size 9 to 14) (size 15 to 20)
#    0.000    0.333    6.667    3.500    0.000    0.667 
#    0.000    0.000    0.000    1.000    0.000    0.000 
#    0.000    0.000    0.000    0.000    0.000    0.000 
#
# Total GULP energy -594858.152628 kJ/mol
# GULP energy per Si atom -12392.878180 kJ/mol
# Density = 2.107774 g / cm^3
# Si number density = 21.125820 Si / 1000 Ang^3
#
#
#
# Elastic Constant Matrix: (Units=GPa)
#
#
# Indices 1 2 3 4 5 6 
#
# 1 102.6304 34.0076 33.9052 0.0000 0.0000 -2.9041
# 2 34.0076 102.6304 33.9052 0.0000 0.0000 2.9041
# 3 33.9052 33.9052 106.1671 0.0000 0.0000 0.0000
# 4 0.0000 0.0000 0.0000 10.8731 0.0000 0.0000
# 5 0.0000 0.0000 0.0000 0.0000 10.8731 0.0000
# 6 -2.9041 2.9041 0.0000 0.0000 0.0000 46.4524
#
#
#
# Elastic Compliance Matrix: (Units=1/GPa)
#
#
# Indices 1 2 3 4 5 6 
#
# 1 0.011673 -0.002976 -0.002777 0.000000 0.000000 0.000916
# 2 -0.002976 0.011673 -0.002777 0.000000 0.000000 -0.000916
# 3 -0.002777 -0.002777 0.011193 0.000000 0.000000 0.000000
# 4 0.000000 0.000000 0.000000 0.091970 0.000000 0.000000
# 5 0.000000 0.000000 0.000000 0.000000 0.091970 0.000000
# 6 0.000916 -0.000916 0.000000 0.000000 0.000000 0.021642
#
#
# Mechanical properties :
#
#
# Convention : Reuss Voigt Hill
#
# Bulk Modulus (GPa) = 57.21706 57.22934 57.22320
# Shear Modulus (GPa) = 19.01068 27.61373 23.31221
#
# Velocity S-wave (km/s) = 3.00305 3.61932 3.32549
# Velocity P-wave (km/s) = 6.25837 6.67941 6.47231
#
# Compressibility (1/GPa) = 0.01747731
#
# Stress axis : x y z
#
# Youngs Moduli (GPa) = 85.66440 85.66440 89.34071
#
# Poissons Ratio (x) = 0.25498 0.24814
# Poissons Ratio (y) = 0.25498 0.24814
# Poissons Ratio (z) = 0.23793 0.23793
#
# Static dielectric constant tensor:
#      x y z
#    x 3.904320 0.000000 0.000000 
#    y 0.000000 3.904320 0.000000 
#    z 0.000000 0.000000 3.900980 
# 
# 
# High freq. dielectric constant tensor:
#      x y z
#    x 1.838630 0.000000 0.000000 
#    y 0.000000 1.838630 0.000000 
#    z 0.000000 0.000000 1.796630 
# 
# From -- ./inp_files/5756.got.cif
#   From: 2010.03.12/outbox.cif.g09.slc.cpg/sg84_3_cif.got.tgz:5756.got - 2010.04.08 20:07:29.
