data_PCOD8303567
_publ_section_title
;
Structure prediction by ZEFSAII (Michael W. Deem and Ramdas Pophale) SiO2 
 PCOD8303567
Probable space group: P 42/N
;
_chemical_formula_sum "Si O2"
_cell_formula_units_Z 48
_cell_length_a 8.815433
_cell_length_b 8.815433
_cell_length_c 29.266115
_cell_angle_alpha 90.000000
_cell_angle_beta 90.000000
_cell_angle_gamma 90.000000
_cell_volume 2274.324202
_symmetry_space_group_name_H-M "P 42/N"
_symmetry_group_IT_number 86
_space_group.IT_coordinate_system_code '2'
_symmetry_cell_setting 'tetragonal'
loop_
_space_group_symop_operation_xyz
x,y,z
-y,1/2+x,1/2+z
1/2-x,1/2-y,z
1/2+y,-x,1/2+z
-x,-y,-z
y,1/2-x,1/2-z
1/2+x,1/2+y,-z
1/2-y,x,1/2-z
loop_
_atom_site_type_symbol
_atom_site_label
_atom_site_fract_x
_atom_site_fract_y
_atom_site_fract_z
Si Si1 0.963555 0.866153 0.667554
Si Si2 0.631627 0.530841 0.256348
Si Si3 0.439809 0.426548 0.434879
Si Si4 0.724359 0.924670 0.026263
Si Si5 0.848652 0.398250 0.583689
Si Si6 0.966520 0.876270 0.822919
O O1 0.996941 0.864074 0.613545
O O2 0.961533 0.693016 0.684614
O O3 0.803837 0.946127 0.676795
O O4 0.092106 0.961898 0.693888
O O5 0.547628 0.689027 0.247480
O O6 0.576669 0.412443 0.218644
O O7 0.464055 0.295670 0.472644
O O8 0.538526 0.572445 0.446273
O O9 0.260586 0.468561 0.435052
O O10 0.750000 0.750000 0.035556
O O11 0.863696 0.024481 0.045500
O O12 0.750000 0.250000 0.595193
O O13 0.929884 0.454608 0.629977
#
# Coordination Sequence:
#
# PCOD8303567 Si02
#       6
#     8   8   8   8   8   8
#     4  10  22  42  65  91 124 161 215 258 305 379
#     4  11  26  42  63  93 129 162 199 257 323 381
#     4   9  21  40  59  88 125 167 207 260 311 369
#     4  10  21  36  61  89 123 166 208 264 309 367
#     4   9  20  38  62  92 121 167 212 253 315 373
#     4  10  22  39  66  95 119 166 208 258 308 378
#
# _framework density 21.105172
#
# number of rings (size 3 to 8) (size 9 to 14) (size 15 to 20)
#    0.000    2.167    0.000    1.000   11.667    5.333 
#    0.000    0.000    7.333    0.000    0.000    0.000 
#    0.000    0.000    0.000    0.000    0.000    0.000 
#
# Total GULP energy -595365.536172 kJ/mol
# GULP energy per Si atom -12403.448670 kJ/mol
# Density = 2.105714 g / cm^3
# Si number density = 21.105172 Si / 1000 Ang^3
#
#
#
# Elastic Constant Matrix: (Units=GPa)
#
#
# Indices 1 2 3 4 5 6 
#
# 1 51.8344 13.0027 36.7732 0.0000 0.0000 8.6244
# 2 13.0027 51.8344 36.7732 0.0000 0.0000 -8.6244
# 3 36.7732 36.7732 135.7422 0.0000 0.0000 0.0000
# 4 0.0000 0.0000 0.0000 33.5224 0.0000 0.0000
# 5 0.0000 0.0000 0.0000 0.0000 33.5224 0.0000
# 6 8.6244 -8.6244 0.0000 0.0000 0.0000 26.8255
#
#
#
# Elastic Compliance Matrix: (Units=1/GPa)
#
#
# Indices 1 2 3 4 5 6 
#
# 1 0.026154 -0.003889 -0.006032 0.000000 0.000000 -0.009659
# 2 -0.003889 0.026154 -0.006032 0.000000 0.000000 0.009659
# 3 -0.006032 -0.006032 0.010635 0.000000 0.000000 0.000000
# 4 0.000000 0.000000 0.000000 0.029831 0.000000 0.000000
# 5 0.000000 0.000000 0.000000 0.000000 0.029831 0.000000
# 6 -0.009659 0.009659 0.000000 0.000000 0.000000 0.043488
#
#
# Mechanical properties :
#
#
# Convention : Reuss Voigt Hill
#
# Bulk Modulus (GPa) = 32.21813 45.83436 39.02625
# Shear Modulus (GPa) = 23.99886 28.96487 26.48186
#
# Velocity S-wave (km/s) = 3.37576 3.70862 3.54610
# Velocity P-wave (km/s) = 5.52205 6.33267 5.94120
#
# Compressibility (1/GPa) = 0.03103842
#
# Stress axis : x y z
#
# Youngs Moduli (GPa) = 38.23524 38.23524 94.02935
#
# Poissons Ratio (x) = 0.14868 0.56716
# Poissons Ratio (y) = 0.14868 0.56716
# Poissons Ratio (z) = 0.23063 0.23063
#
# Static dielectric constant tensor:
#      x y z
#    x 3.756130 0.000000 0.000000 
#    y 0.000000 3.756130 0.000000 
#    z 0.000000 0.000000 3.958320 
# 
# 
# High freq. dielectric constant tensor:
#      x y z
#    x 1.820620 0.000000 0.000000 
#    y 0.000000 1.820620 0.000000 
#    z 0.000000 0.000000 1.836000 
# 
# From -- ./inp_files/5135.got.cif
#   From: 2010.03.12/outbox.cif.g09.slc.cpg/sg86_3_cif.got.tgz:5135.got - 2010.04.08 20:12:58.
