data_PCOD8303740
_publ_section_title
;
Structure prediction by ZEFSAII (Michael W. Deem and Ramdas Pophale) SiO2 
 PCOD8303740
Probable space group: I 4/M
;
_chemical_formula_sum "Si O2"
_cell_formula_units_Z 80
_cell_length_a 15.519703
_cell_length_b 15.519703
_cell_length_c 17.700392
_cell_angle_alpha 90.000000
_cell_angle_beta 90.000000
_cell_angle_gamma 90.000000
_cell_volume 4263.337325
_symmetry_space_group_name_H-M "I 4/M"
_symmetry_group_IT_number 87
_symmetry_cell_setting 'tetragonal'
loop_
_space_group_symop_operation_xyz
x,y,z
-y,x,z
-x,-y,z
y,-x,z
-x,-y,-z
y,-x,-z
x,y,-z
-y,x,-z
1/2+x,1/2+y,1/2+z
1/2-y,1/2+x,1/2+z
1/2-x,1/2-y,1/2+z
1/2+y,1/2-x,1/2+z
1/2-x,1/2-y,1/2-z
1/2+y,1/2-x,1/2-z
1/2+x,1/2+y,1/2-z
1/2-y,1/2+x,1/2-z
loop_
_atom_site_type_symbol
_atom_site_label
_atom_site_fract_x
_atom_site_fract_y
_atom_site_fract_z
Si Si1 0.319882 0.239447 0.685514
Si Si2 0.546667 0.871384 0.231118
Si Si3 0.899450 0.098327 0.790555
Si Si4 0.324832 0.362147 0.872589
Si Si5 0.759284 0.468659 0.917351
O O1 0.250000 0.250000 0.750000
O O2 0.408077 0.199068 0.716905
O O3 0.347471 0.334764 0.654407
O O4 0.272343 0.178511 0.625779
O O5 0.456140 0.893260 0.271571
O O6 0.532042 0.833313 0.146974
O O7 0.871854 0.126016 0.706817
O O8 0.998035 0.120112 0.805241
O O9 0.311517 0.455969 0.907407
O O10 0.381857 0.297035 0.921024
O O11 0.803921 0.477881 0.000000
#
# Coordination Sequence:
#
# PCOD8303740 Si02
#       5
#    16  16  16  16  16
#     4  10  19  31  57  79 108 143 194 241 273 329
#     4  11  22  38  60  84 109 151 197 242 290 334
#     4  10  18  29  50  81 116 141 183 242 286 331
#     4  11  20  36  53  80 113 158 189 227 281 346
#     4  12  24  38  57  85 123 155 190 233 289 354
#
# _framework density 18.764643
#
# number of rings (size 3 to 8) (size 9 to 14) (size 15 to 20)
#    0.000    1.200    8.000    0.600    2.800    0.400 
#    0.000    3.000    0.000    0.000    0.000    0.000 
#    0.000    0.000    0.000   11.000    0.000    0.000 
#
# Total GULP energy -495570.270851 kJ/mol
# GULP energy per Si atom -12389.256771 kJ/mol
# Density = 1.872193 g / cm^3
# Si number density = 18.764643 Si / 1000 Ang^3
#
#
#
# Elastic Constant Matrix: (Units=GPa)
#
#
# Indices 1 2 3 4 5 6 
#
# 1 107.5141 60.4401 28.7603 0.0000 0.0000 -4.7026
# 2 60.4401 107.5141 28.7603 0.0000 0.0000 4.7026
# 3 28.7603 28.7603 62.3348 0.0000 0.0000 0.0000
# 4 0.0000 0.0000 0.0000 7.5589 0.0000 0.0000
# 5 0.0000 0.0000 0.0000 0.0000 7.5589 0.0000
# 6 -4.7026 4.7026 0.0000 0.0000 0.0000 43.2288
#
#
#
# Elastic Compliance Matrix: (Units=1/GPa)
#
#
# Indices 1 2 3 4 5 6 
#
# 1 0.014393 -0.007322 -0.003263 0.000000 0.000000 0.002362
# 2 -0.007322 0.014393 -0.003263 0.000000 0.000000 -0.002362
# 3 -0.003263 -0.003263 0.019053 0.000000 0.000000 0.000000
# 4 0.000000 0.000000 0.000000 0.132295 0.000000 0.000000
# 5 0.000000 0.000000 0.000000 0.000000 0.132295 0.000000
# 6 0.002362 -0.002362 0.000000 0.000000 0.000000 0.023647
#
#
# Mechanical properties :
#
#
# Convention : Reuss Voigt Hill
#
# Bulk Modulus (GPa) = 49.63933 57.03161 53.33547
# Shear Modulus (GPa) = 13.49582 22.29612 17.89597
#
# Velocity S-wave (km/s) = 2.68473 3.45077 3.09156
# Velocity P-wave (km/s) = 6.01011 6.80707 6.42096
#
# Compressibility (1/GPa) = 0.02014532
#
# Stress axis : x y z
#
# Youngs Moduli (GPa) = 69.47706 69.47706 52.48499
#
# Poissons Ratio (x) = 0.50870 0.17124
# Poissons Ratio (y) = 0.50870 0.17124
# Poissons Ratio (z) = 0.22668 0.22668
#
# Static dielectric constant tensor:
#      x y z
#    x 4.572020 0.000000 0.000000 
#    y 0.000000 4.572020 0.000000 
#    z 0.000000 0.000000 3.044350 
# 
# 
# High freq. dielectric constant tensor:
#      x y z
#    x 1.747500 0.000000 0.000000 
#    y 0.000000 1.747500 0.000000 
#    z 0.000000 0.000000 1.661210 
# 
# From -- ./inp_files/5056.got.cif
#   From: 2010.03.12/outbox.cif.g09.slc.cpg/sg87_3_cif.got.tgz:5056.got - 2010.04.08 20:16:13.
