data_PCOD8303000
_publ_section_title
;
Structure prediction by ZEFSAII (Michael W. Deem and Ramdas Pophale) SiO2 
 PCOD8303000
Probable space group: P 4/M
;
_chemical_formula_sum "Si O2"
_cell_formula_units_Z 48
_cell_length_a 8.114708
_cell_length_b 8.114708
_cell_length_c 33.250705
_cell_angle_alpha 90.000000
_cell_angle_beta 90.000000
_cell_angle_gamma 90.000000
_cell_volume 2189.508580
_symmetry_space_group_name_H-M "P 4/M"
_symmetry_group_IT_number 83
_symmetry_cell_setting 'tetragonal'
loop_
_space_group_symop_operation_xyz
x,y,z
-y,x,z
-x,-y,z
y,-x,z
-x,-y,-z
y,-x,-z
x,y,-z
-y,x,-z
loop_
_atom_site_type_symbol
_atom_site_label
_atom_site_fract_x
_atom_site_fract_y
_atom_site_fract_z
Si Si1 0.500000 0.000000 0.316702
Si Si2 0.500000 0.000000 0.891817
Si Si3 0.737913 0.920602 0.750573
Si Si4 0.918077 0.742231 0.044554
Si Si5 0.428437 0.761595 0.383677
Si Si6 0.084207 0.256982 0.545279
Si Si7 0.762124 0.419165 0.174617
O O1 0.369186 0.101843 0.289809
O O2 0.602271 0.126345 0.344541
O O3 0.610927 0.116664 0.920495
O O4 0.609097 0.876468 0.864505
O O5 0.617060 0.877926 0.787297
O O6 0.890697 0.796450 0.752112
O O7 0.796533 0.893522 0.049903
O O8 0.893353 0.664479 0.000000
O O9 0.299127 0.614699 0.382877
O O10 0.401711 0.868049 0.424043
O O11 0.107353 0.324890 0.500000
O O12 0.897434 0.203570 0.552744
O O13 0.704378 0.608563 0.174844
#
# Coordination Sequence:
#
# PCOD8303000 Si02
#       7
#     4   4   8   8   8   8   8
#     4  12  23  42  63  87 122 159 193 242 301 356
#     4  12  20  34  58  87 116 153 202 250 298 366
#     4  11  24  43  68  94 119 155 205 252 296 359
#     4   9  19  35  54  79 113 154 200 250 303 355
#     4  11  24  39  58  88 122 156 195 240 293 353
#     4   9  19  38  63  88 116 154 198 243 294 351
#     4  11  24  41  61  88 124 161 197 248 315 376
#
# _framework density 21.922729
#
# number of rings (size 3 to 8) (size 9 to 14) (size 15 to 20)
#    0.000    1.500    0.000    6.750    0.000    0.667 
#    0.000    7.917    0.000    0.000    0.000    7.000 
#    0.000    0.000    0.000    0.000    0.000    0.000 
#
# Total GULP energy -595270.994495 kJ/mol
# GULP energy per Si atom -12401.479052 kJ/mol
# Density = 2.187283 g / cm^3
# Si number density = 21.922729 Si / 1000 Ang^3
#
#
#
# Elastic Constant Matrix: (Units=GPa)
#
#
# Indices 1 2 3 4 5 6 
#
# 1 85.7403 29.7537 58.6203 0.0000 0.0000 -1.7956
# 2 29.7537 85.7403 58.6203 0.0000 0.0000 1.7956
# 3 58.6203 58.6203 187.9375 0.0000 0.0000 0.0000
# 4 0.0000 0.0000 0.0000 29.7545 0.0000 0.0000
# 5 0.0000 0.0000 0.0000 0.0000 29.7545 0.0000
# 6 -1.7956 1.7956 0.0000 0.0000 0.0000 35.4869
#
#
#
# Elastic Compliance Matrix: (Units=1/GPa)
#
#
# Indices 1 2 3 4 5 6 
#
# 1 0.015295 -0.002625 -0.003952 0.000000 0.000000 0.000907
# 2 -0.002625 0.015295 -0.003952 0.000000 0.000000 -0.000907
# 3 -0.003952 -0.003952 0.007786 0.000000 0.000000 0.000000
# 4 0.000000 0.000000 0.000000 0.033608 0.000000 0.000000
# 5 0.000000 0.000000 0.000000 0.000000 0.033608 0.000000
# 6 0.000907 -0.000907 0.000000 0.000000 0.000000 0.028271
#
#
# Mechanical properties :
#
#
# Convention : Reuss Voigt Hill
#
# Bulk Modulus (GPa) = 57.74106 72.60073 65.17090
# Shear Modulus (GPa) = 31.11499 33.16078 32.13788
#
# Velocity S-wave (km/s) = 3.77145 3.89346 3.83294
# Velocity P-wave (km/s) = 6.73504 7.30757 7.02714
#
# Compressibility (1/GPa) = 0.01731870
#
# Stress axis : x y z
#
# Youngs Moduli (GPa) = 65.38128 65.38128 128.43071
#
# Poissons Ratio (x) = 0.17160 0.50756
# Poissons Ratio (y) = 0.17160 0.50756
# Poissons Ratio (z) = 0.25839 0.25839
#
# Static dielectric constant tensor:
#      x y z
#    x 3.823190 0.000000 0.000000 
#    y 0.000000 3.823190 0.000000 
#    z 0.000000 0.000000 4.065150 
# 
# 
# High freq. dielectric constant tensor:
#      x y z
#    x 1.859680 0.000000 0.000000 
#    y 0.000000 1.859680 0.000000 
#    z 0.000000 0.000000 1.875000 
# 
# From -- ./inp_files/3460.got.cif
#   From: 2010.03.12/outbox.cif.g09.slc.cpg/sg83_2_cif.got.tgz:3460.got - 2010.04.08 20:05:18.
