data_PCOD8303512
_publ_section_title
;
Structure prediction by ZEFSAII (Michael W. Deem and Ramdas Pophale) SiO2 
 PCOD8303512
Probable space group: P 42/N
;
_chemical_formula_sum "Si O2"
_cell_formula_units_Z 52
_cell_length_a 16.217716
_cell_length_b 16.217716
_cell_length_c 9.549142
_cell_angle_alpha 90.000000
_cell_angle_beta 90.000000
_cell_angle_gamma 90.000000
_cell_volume 2511.561016
_symmetry_space_group_name_H-M "P 42/N"
_symmetry_group_IT_number 86
_space_group.IT_coordinate_system_code '2'
_symmetry_cell_setting 'tetragonal'
loop_
_space_group_symop_operation_xyz
x,y,z
-y,1/2+x,1/2+z
1/2-x,1/2-y,z
1/2+y,-x,1/2+z
-x,-y,-z
y,1/2-x,1/2-z
1/2+x,1/2+y,-z
1/2-y,x,1/2-z
loop_
_atom_site_type_symbol
_atom_site_label
_atom_site_fract_x
_atom_site_fract_y
_atom_site_fract_z
Si Si1 0.082315 0.551176 0.213533
Si Si2 0.644398 0.009641 0.500000
Si Si3 0.250000 0.250000 0.250000
Si Si4 0.948824 0.082315 0.713533
Si Si5 0.250000 0.250000 0.750000
Si Si6 0.662637 0.493537 0.500000
Si Si7 0.340575 0.059013 0.000000
Si Si8 0.159826 0.325952 0.500000
O O1 0.112009 0.563949 0.371270
O O2 0.153089 0.499162 0.135525
O O3 1.000000 0.500000 0.205756
O O4 0.060261 0.636588 0.136286
O O5 0.740966 0.998851 0.500000
O O6 0.611608 0.913975 0.500000
O O7 0.612009 0.063949 0.371270
O O8 0.212634 0.319718 0.354788
O O9 0.000838 0.153089 0.635525
O O10 0.863412 0.060261 0.636286
O O11 0.212634 0.319718 0.645212
O O12 0.627334 0.586695 0.500000
O O13 0.250420 0.097637 0.000000
#
# Coordination Sequence:
#
# PCOD8303512 Si02
#       8
#     8   8   2   8   2   8   8   8
#     4   9  20  38  57  81 115 159 196 227 281 351
#     4  12  22  34  61  89 109 143 199 258 285 323
#     4  10  20  30  40  70 128 158 168 214 280 354
#     4   9  20  38  57  81 115 159 196 227 281 351
#     4  10  20  30  40  70 128 158 168 214 280 354
#     4   9  20  40  58  76 115 162 194 226 292 353
#     4   9  18  35  55  79 124 163 184 222 281 355
#     4  11  21  32  50  86 118 150 188 226 288 338
#
# _framework density 20.704256000000001
#
# number of rings (size 3 to 8) (size 9 to 14) (size 15 to 20)
#    0.000    2.154    0.000    6.000    0.000    7.385 
#    0.000    3.077    0.000    2.769    0.000    0.000 
#    0.000    0.000    0.000    0.000    0.000    0.000 
#
# Total GULP energy -644426.102438 kJ/mol
# GULP energy per Si atom -12392.809662 kJ/mol
# Density = 2.065713 g / cm^3
# Si number density = 20.704256 Si / 1000 Ang^3
#
#
#
# Elastic Constant Matrix: (Units=GPa)
#
#
# Indices 1 2 3 4 5 6 
#
# 1 915.4568 -825.7901 24.8754 0.0000 0.0000 139.9660
# 2 -825.7901 915.4568 24.8754 0.0000 0.0000 -139.9660
# 3 24.8754 24.8754 160.2366 0.0000 0.0000 0.0000
# 4 0.0000 0.0000 0.0000 54.0024 0.0000 0.0000
# 5 0.0000 0.0000 0.0000 0.0000 54.0024 0.0000
# 6 139.9660 -139.9660 0.0000 0.0000 0.0000 57.4502
#
#
#
# Elastic Compliance Matrix: (Units=1/GPa)
#
#
# Indices 1 2 3 4 5 6 
#
# 1 0.006574 0.005630 -0.001895 0.000000 0.000000 -0.002300
# 2 0.005630 0.006574 -0.001895 0.000000 0.000000 0.002300
# 3 -0.001895 -0.001895 0.006829 0.000000 0.000000 0.000000
# 4 0.000000 0.000000 0.000000 0.018518 0.000000 0.000000
# 5 0.000000 0.000000 0.000000 0.000000 0.018518 0.000000
# 6 -0.002300 0.002300 0.000000 0.000000 0.000000 0.028614
#
#
# Mechanical properties :
#
#
# Convention : Reuss Voigt Hill
#
# Bulk Modulus (GPa) = 42.26886 48.78576 45.52731
# Shear Modulus (GPa) = 55.66067 217.57031 136.61549
#
# Velocity S-wave (km/s) = 5.19057 10.26221 8.13188
# Velocity P-wave (km/s) = 7.50883 12.80748 10.49796
#
# Compressibility (1/GPa) = 0.02365808
#
# Stress axis : x y z
#
# Youngs Moduli (GPa) = 152.11881 152.11881 146.43464
#
# Poissons Ratio (x) = -0.85639 0.27742
# Poissons Ratio (y) = -0.85639 0.27742
# Poissons Ratio (z) = 0.28819 0.28819
#
# Static dielectric constant tensor:
#      x y z
#    x 3.543390 0.000000 0.000000 
#    y 0.000000 3.543390 0.000000 
#    z 0.000000 0.000000 3.318260 
# 
# 
# High freq. dielectric constant tensor:
#      x y z
#    x 1.782230 0.000000 0.000000 
#    y 0.000000 1.782230 0.000000 
#    z 0.000000 0.000000 1.831140 
# 
# From -- ./inp_files/1431.got.cif
#   From: 2010.03.12/outbox.cif.g09.slc.cpg/sg86_1_cif.got.tgz:1431.got - 2010.04.08 20:12:58.
