data_PCOD8303180
_publ_section_title
;
Structure prediction by ZEFSAII (Michael W. Deem and Ramdas Pophale) SiO2 
 PCOD8303180
Probable space group: P 42/M
;
_chemical_formula_sum "Si O2"
_cell_formula_units_Z 48
_cell_length_a 17.812696
_cell_length_b 17.812696
_cell_length_c 9.286393
_cell_angle_alpha 90.000000
_cell_angle_beta 90.000000
_cell_angle_gamma 90.000000
_cell_volume 2946.499497
_symmetry_space_group_name_H-M "P 42/M"
_symmetry_group_IT_number 84
_symmetry_cell_setting 'tetragonal'
loop_
_space_group_symop_operation_xyz
x,y,z
-y,x,1/2+z
-x,-y,z
y,-x,1/2+z
-x,-y,-z
y,-x,1/2-z
x,y,-z
-y,x,1/2-z
loop_
_atom_site_type_symbol
_atom_site_label
_atom_site_fract_x
_atom_site_fract_y
_atom_site_fract_z
Si Si1 0.184928 0.702639 0.833292
Si Si2 0.203989 0.077225 0.166255
Si Si3 0.586646 0.695773 0.668726
Si Si4 0.417291 0.692348 0.665261
Si Si5 0.070585 0.193982 0.161503
Si Si6 0.801596 0.706109 0.162116
O O1 0.109539 0.720804 0.743397
O O2 0.220879 0.620704 0.800942
O O3 0.248838 0.760717 0.787417
O O4 0.165298 0.713203 0.000000
O O5 0.133612 0.131495 0.194437
O O6 0.183385 0.996031 0.227215
O O7 0.222933 0.068296 0.000000
O O8 0.591571 0.677805 0.500000
O O9 0.501459 0.696733 0.726423
O O10 0.630760 0.630103 0.749480
O O11 0.418387 0.666442 0.500000
O O12 0.380543 0.776154 0.679413
O O13 0.109331 0.276955 0.179053
O O14 0.038905 0.183945 0.000000
O O15 0.777937 0.734759 0.000000
#
# Coordination Sequence:
#
# PCOD8303180 Si02
#       6
#     8   8   8   8   8   8
#     4   9  16  28  46  65  87 115 150 189 222 258
#     4  10  20  32  47  68  92 118 148 180 219 267
#     4   9  18  30  45  68  93 119 153 188 224 267
#     4   9  17  30  47  66  92 123 152 186 226 267
#     4   9  18  31  46  66  90 115 146 182 219 262
#     4   8  15  29  47  65  86 116 153 187 220 261
#
# _framework density 16.290517999999999
#
# number of rings (size 3 to 8) (size 9 to 14) (size 15 to 20)
#    0.000    3.000    0.000    2.000    0.000    5.333 
#    0.000    3.333    0.000    1.000    0.000    7.000 
#    0.000    0.000    0.000    0.000    0.000    0.000 
#
# Total GULP energy -594693.981386 kJ/mol
# GULP energy per Si atom -12389.457946 kJ/mol
# Density = 1.625344 g / cm^3
# Si number density = 16.290518 Si / 1000 Ang^3
#
#
#
# Elastic Constant Matrix: (Units=GPa)
#
#
# Indices 1 2 3 4 5 6 
#
# 1 75.7717 68.3748 49.1183 0.0000 0.0000 -0.7953
# 2 68.3748 75.7717 49.1183 0.0000 0.0000 0.7953
# 3 49.1183 49.1183 80.2271 0.0000 0.0000 0.0000
# 4 0.0000 0.0000 0.0000 24.1037 0.0000 0.0000
# 5 0.0000 0.0000 0.0000 0.0000 24.1037 0.0000
# 6 -0.7953 0.7953 0.0000 0.0000 0.0000 16.0028
#
#
#
# Elastic Compliance Matrix: (Units=1/GPa)
#
#
# Indices 1 2 3 4 5 6 
#
# 1 0.074279 -0.062374 -0.007288 0.000000 0.000000 0.006792
# 2 -0.062374 0.074279 -0.007288 0.000000 0.000000 -0.006792
# 3 -0.007288 -0.007288 0.021389 0.000000 0.000000 0.000000
# 4 0.000000 0.000000 0.000000 0.041487 0.000000 0.000000
# 5 0.000000 0.000000 0.000000 0.000000 0.041487 0.000000
# 6 0.006792 -0.006792 0.000000 0.000000 0.000000 0.063164
#
#
# Mechanical properties :
#
#
# Convention : Reuss Voigt Hill
#
# Bulk Modulus (GPa) = 62.32678 62.77701 62.55189
# Shear Modulus (GPa) = 10.51890 17.18600 13.85245
#
# Velocity S-wave (km/s) = 2.54383 3.25155 2.91922
# Velocity P-wave (km/s) = 6.85352 7.26060 7.06000
#
# Compressibility (1/GPa) = 0.01604447
#
# Stress axis : x y z
#
# Youngs Moduli (GPa) = 13.46283 13.46283 46.75273
#
# Poissons Ratio (x) = 0.83973 0.34075
# Poissons Ratio (y) = 0.83973 0.34075
# Poissons Ratio (z) = 0.09812 0.09812
#
# Static dielectric constant tensor:
#      x y z
#    x 3.106260 0.000000 0.000000 
#    y 0.000000 3.106260 0.000000 
#    z 0.000000 0.000000 3.123660 
# 
# 
# High freq. dielectric constant tensor:
#      x y z
#    x 1.608670 0.000000 0.000000 
#    y 0.000000 1.608670 0.000000 
#    z 0.000000 0.000000 1.635110 
# 
# From -- ./inp_files/972.got.cif
#   From: 2010.03.12/outbox.cif.g09.slc.cpg/sg84_1_cif.got.tgz:972.got - 2010.04.08 20:07:29.
