data_PCOD8303179
_publ_section_title
;
Structure prediction by ZEFSAII (Michael W. Deem and Ramdas Pophale) SiO2 
 PCOD8303179
Probable space group: P 42/M
;
_chemical_formula_sum "Si O2"
_cell_formula_units_Z 48
_cell_length_a 17.708071
_cell_length_b 17.708071
_cell_length_c 8.995220
_cell_angle_alpha 90.000000
_cell_angle_beta 90.000000
_cell_angle_gamma 90.000000
_cell_volume 2820.683115
_symmetry_space_group_name_H-M "P 42/M"
_symmetry_group_IT_number 84
_symmetry_cell_setting 'tetragonal'
loop_
_space_group_symop_operation_xyz
x,y,z
-y,x,1/2+z
-x,-y,z
y,-x,1/2+z
-x,-y,-z
y,-x,1/2-z
x,y,-z
-y,x,1/2-z
loop_
_atom_site_type_symbol
_atom_site_label
_atom_site_fract_x
_atom_site_fract_y
_atom_site_fract_z
Si Si1 0.694672 0.202228 0.665838
Si Si2 0.425638 0.307886 0.832520
Si Si3 0.417931 0.908655 0.173219
Si Si4 0.323986 0.433555 0.840156
Si Si5 0.312487 0.203141 0.675108
Si Si6 0.411725 0.084114 0.173860
O O1 0.719209 0.176366 0.500000
O O2 0.648793 0.134853 0.742893
O O3 0.640009 0.272805 0.656029
O O4 0.769316 0.232037 0.754225
O O5 0.407129 0.397268 0.818401
O O6 0.513633 0.299557 0.794279
O O7 0.378573 0.261474 0.712925
O O8 0.412462 0.276762 0.000000
O O9 0.504028 0.885507 0.221702
O O10 0.406342 0.996134 0.210417
O O11 0.408066 0.892234 0.000000
O O12 0.319329 0.476183 0.000000
O O13 0.300551 0.196445 0.500000
O O14 0.342711 0.123427 0.738863
O O15 0.400723 0.099471 0.000000
#
# Coordination Sequence:
#
# PCOD8303179 Si02
#       6
#     8   8   8   8   8   8
#     4  10  20  33  48  67  93 123 155 193 234 277
#     4  10  20  32  45  60  80 109 145 187 234 278
#     4   9  18  32  51  74  99 129 161 194 237 289
#     4   9  19  32  43  59  81 108 145 186 230 276
#     4  11  21  32  48  68  91 121 157 194 232 278
#     4   9  18  33  51  72 100 130 159 194 239 288
#
# _framework density 17.017154000000001
#
# number of rings (size 3 to 8) (size 9 to 14) (size 15 to 20)
#    0.000    2.333    0.000    5.500    0.000    8.333 
#    0.000    3.333    0.000    0.000    0.000    0.000 
#    0.000    0.667    0.000    7.000    0.000    3.000 
#
# Total GULP energy -594732.718995 kJ/mol
# GULP energy per Si atom -12390.264979 kJ/mol
# Density = 1.697842 g / cm^3
# Si number density = 17.017154 Si / 1000 Ang^3
#
#
#
# Elastic Constant Matrix: (Units=GPa)
#
#
# Indices 1 2 3 4 5 6 
#
# 1 65.2057 28.6020 40.7376 0.0000 0.0000 -1.1192
# 2 28.6020 65.2057 40.7376 0.0000 0.0000 1.1192
# 3 40.7376 40.7376 103.0513 0.0000 0.0000 0.0000
# 4 0.0000 0.0000 0.0000 24.1245 0.0000 0.0000
# 5 0.0000 0.0000 0.0000 0.0000 24.1245 0.0000
# 6 -1.1192 1.1192 0.0000 0.0000 0.0000 30.6748
#
#
#
# Elastic Compliance Matrix: (Units=1/GPa)
#
#
# Indices 1 2 3 4 5 6 
#
# 1 0.021807 -0.005573 -0.006417 0.000000 0.000000 0.000999
# 2 -0.005573 0.021807 -0.006417 0.000000 0.000000 -0.000999
# 3 -0.006417 -0.006417 0.014778 0.000000 0.000000 0.000000
# 4 0.000000 0.000000 0.000000 0.041452 0.000000 0.000000
# 5 0.000000 0.000000 0.000000 0.000000 0.041452 0.000000
# 6 0.000999 -0.000999 0.000000 0.000000 0.000000 0.032673
#
#
# Mechanical properties :
#
#
# Convention : Reuss Voigt Hill
#
# Bulk Modulus (GPa) = 46.34863 50.40192 48.37528
# Shear Modulus (GPa) = 22.93818 24.01047 23.47433
#
# Velocity S-wave (km/s) = 3.67542 3.76035 3.71812
# Velocity P-wave (km/s) = 6.73106 6.96679 6.84994
#
# Compressibility (1/GPa) = 0.02157561
#
# Stress axis : x y z
#
# Youngs Moduli (GPa) = 45.85616 45.85616 67.66927
#
# Poissons Ratio (x) = 0.25558 0.43427
# Poissons Ratio (y) = 0.25558 0.43427
# Poissons Ratio (z) = 0.29428 0.29428
#
# Static dielectric constant tensor:
#      x y z
#    x 3.097790 0.000000 0.000000 
#    y 0.000000 3.097790 0.000000 
#    z 0.000000 0.000000 3.254580 
# 
# 
# High freq. dielectric constant tensor:
#      x y z
#    x 1.632270 0.000000 0.000000 
#    y 0.000000 1.632270 0.000000 
#    z 0.000000 0.000000 1.662760 
# 
# From -- ./inp_files/998.got.cif
#   From: 2010.03.12/outbox.cif.g09.slc.cpg/sg84_1_cif.got.tgz:998.got - 2010.04.08 20:07:29.
