data_PCOD8303025
_publ_section_title
;
Structure prediction by ZEFSAII (Michael W. Deem and Ramdas Pophale) SiO2 
 PCOD8303025
Probable space group: P 4/M
;
_chemical_formula_sum "Si O2"
_cell_formula_units_Z 33
_cell_length_a 8.328855
_cell_length_b 8.328855
_cell_length_c 21.574600
_cell_angle_alpha 90.000000
_cell_angle_beta 90.000000
_cell_angle_gamma 90.000000
_cell_volume 1496.626240
_symmetry_space_group_name_H-M "P 4/M"
_symmetry_group_IT_number 83
_symmetry_cell_setting 'tetragonal'
loop_
_space_group_symop_operation_xyz
x,y,z
-y,x,z
-x,-y,z
y,-x,z
-x,-y,-z
y,-x,-z
x,y,-z
-y,x,-z
loop_
_atom_site_type_symbol
_atom_site_label
_atom_site_fract_x
_atom_site_fract_y
_atom_site_fract_z
Si Si1 0.114245 0.764131 0.629726
Si Si2 0.500000 0.500000 0.500000
Si Si3 0.751407 0.417311 0.740682
Si Si4 0.393059 0.156380 0.500000
Si Si5 0.500000 0.000000 0.835880
Si Si6 0.252333 0.924575 0.930561
O O1 0.173087 0.618736 0.673504
O O2 0.154270 0.719902 0.559795
O O3 0.926718 0.788718 0.643697
O O4 0.306151 0.482757 0.500000
O O5 0.700852 0.601744 0.747697
O O6 0.884670 0.388009 0.793664
O O7 0.500000 0.000000 0.500000
O O8 0.388803 0.888837 0.879891
O O9 0.196539 0.107087 0.920501
O O10 0.322233 0.903342 0.000000
#
# Coordination Sequence:
#
# PCOD8303025 Si02
#       6
#     8   1   8   4   4   8
#     4  11  25  46  70  98 131 171 220 281 342 402
#     4  12  28  44  76 112 132 196 228 284 382 436
#     4  11  26  42  62  91 128 172 222 273 328 402
#     4  12  28  45  72 107 140 173 231 285 349 431
#     4  12  21  38  62  89 126 168 214 268 330 391
#     4   9  19  36  60  91 124 161 209 263 322 393
#
# _framework density 22.049590999999999
#
# number of rings (size 3 to 8) (size 9 to 14) (size 15 to 20)
#    0.000    1.212    0.000    6.182    8.485    0.970 
#    0.000    2.424    0.000    0.000    0.000   10.182 
#    0.000    0.000    0.000    0.000    0.000    0.000 
#
# Total GULP energy -408816.657706 kJ/mol
# GULP energy per Si atom -12388.383567 kJ/mol
# Density = 2.199941 g / cm^3
# Si number density = 22.049591 Si / 1000 Ang^3
#
#
#
# Elastic Constant Matrix: (Units=GPa)
#
#
# Indices 1 2 3 4 5 6 
#
# 1 92.7259 26.7910 38.5185 0.0000 0.0000 5.9913
# 2 26.7910 92.7259 38.5185 0.0000 0.0000 -5.9913
# 3 38.5185 38.5185 153.0391 0.0000 0.0000 0.0000
# 4 0.0000 0.0000 0.0000 26.9795 0.0000 0.0000
# 5 0.0000 0.0000 0.0000 0.0000 26.9795 0.0000
# 6 5.9913 -5.9913 0.0000 0.0000 0.0000 31.4519
#
#
#
# Elastic Compliance Matrix: (Units=1/GPa)
#
#
# Indices 1 2 3 4 5 6 
#
# 1 0.012849 -0.002862 -0.002514 0.000000 0.000000 -0.002993
# 2 -0.002862 0.012849 -0.002514 0.000000 0.000000 0.002993
# 3 -0.002514 -0.002514 0.007800 0.000000 0.000000 0.000000
# 4 0.000000 0.000000 0.000000 0.037065 0.000000 0.000000
# 5 0.000000 0.000000 0.000000 0.000000 0.037065 0.000000
# 6 -0.002993 0.002993 0.000000 0.000000 0.000000 0.032935
#
#
# Mechanical properties :
#
#
# Convention : Reuss Voigt Hill
#
# Bulk Modulus (GPa) = 56.43540 60.68296 58.55918
# Shear Modulus (GPa) = 30.81724 32.72635 31.77180
#
# Velocity S-wave (km/s) = 3.74255 3.85673 3.80007
# Velocity P-wave (km/s) = 6.65777 6.88574 6.77271
#
# Compressibility (1/GPa) = 0.01771937
#
# Stress axis : x y z
#
# Youngs Moduli (GPa) = 77.82819 77.82819 128.21124
#
# Poissons Ratio (x) = 0.22271 0.32228
# Poissons Ratio (y) = 0.22271 0.32228
# Poissons Ratio (z) = 0.19564 0.19564
#
# Static dielectric constant tensor:
#      x y z
#    x 4.021050 0.000000 0.000000 
#    y 0.000000 4.021050 0.000000 
#    z 0.000000 0.000000 4.240030 
# 
# 
# High freq. dielectric constant tensor:
#      x y z
#    x 1.871340 0.000000 0.000000 
#    y 0.000000 1.871340 0.000000 
#    z 0.000000 0.000000 1.868930 
# 
# From -- ./inp_files/2893.got.cif
#   From: 2010.03.12/outbox.cif.g09.slc.cpg/sg83_2_cif.got.tgz:2893.got - 2010.04.08 20:05:18.
