data_PCOD8303114
_publ_section_title
;
Structure prediction by ZEFSAII (Michael W. Deem and Ramdas Pophale) SiO2 
 PCOD8303114
Probable space group: P 42/M
;
_chemical_formula_sum "Si O2"
_cell_formula_units_Z 32
_cell_length_a 12.567196
_cell_length_b 12.567196
_cell_length_c 8.815549
_cell_angle_alpha 90.000000
_cell_angle_beta 90.000000
_cell_angle_gamma 90.000000
_cell_volume 1392.278577
_symmetry_space_group_name_H-M "P 42/M"
_symmetry_group_IT_number 84
_symmetry_cell_setting 'tetragonal'
loop_
_space_group_symop_operation_xyz
x,y,z
-y,x,1/2+z
-x,-y,z
y,-x,1/2+z
-x,-y,-z
y,-x,1/2-z
x,y,-z
-y,x,1/2-z
loop_
_atom_site_type_symbol
_atom_site_label
_atom_site_fract_x
_atom_site_fract_y
_atom_site_fract_z
Si Si1 0.552914 0.635500 0.669273
Si Si2 0.926535 0.293764 0.679358
Si Si3 0.260964 0.862216 0.320033
Si Si4 0.135531 0.500482 0.827724
O O1 0.617830 0.573306 0.797750
O O2 0.579265 0.594110 0.500000
O O3 0.573292 0.759454 0.683613
O O4 0.930718 0.301207 0.500000
O O5 0.818555 0.232387 0.732290
O O6 0.943698 0.416639 0.742471
O O7 0.026145 0.225768 0.743076
O O8 0.256256 0.874371 0.500000
O O9 0.382572 0.841287 0.260329
O O10 0.096619 0.487809 0.000000
#
# Coordination Sequence:
#
# PCOD8303114 Si02
#       4
#     8   8   8   8
#     4  10  19  31  49  76 112 155 200 244 294 352
#     4  11  24  41  64  93 122 156 203 254 297 351
#     4  10  23  43  63  87 124 163 198 245 306 361
#     4  10  21  38  60  85 118 159 196 239 302 364
#
# _framework density 22.983906000000001
#
# number of rings (size 3 to 8) (size 9 to 14) (size 15 to 20)
#    0.000    1.750    0.000    4.500    0.000   10.500 
#    0.000    2.500    0.000    0.000    0.000    0.000 
#    0.000    0.000    0.000    0.000    0.000    0.000 
#
# Total GULP energy -396429.985530 kJ/mol
# GULP energy per Si atom -12388.437048 kJ/mol
# Density = 2.293159 g / cm^3
# Si number density = 22.983906 Si / 1000 Ang^3
#
#
#
# Elastic Constant Matrix: (Units=GPa)
#
#
# Indices 1 2 3 4 5 6 
#
# 1 100.7379 43.5801 17.6934 0.0000 0.0000 0.3508
# 2 43.5801 100.7379 17.6934 0.0000 0.0000 -0.3508
# 3 17.6934 17.6934 48.6519 0.0000 0.0000 0.0000
# 4 0.0000 0.0000 0.0000 29.1090 0.0000 0.0000
# 5 0.0000 0.0000 0.0000 0.0000 29.1090 0.0000
# 6 0.3508 -0.3508 0.0000 0.0000 0.0000 26.2450
#
#
#
# Elastic Compliance Matrix: (Units=1/GPa)
#
#
# Indices 1 2 3 4 5 6 
#
# 1 0.012553 -0.004945 -0.002767 0.000000 0.000000 -0.000234
# 2 -0.004945 0.012553 -0.002767 0.000000 0.000000 0.000234
# 3 -0.002767 -0.002767 0.022566 0.000000 0.000000 0.000000
# 4 0.000000 0.000000 0.000000 0.034354 0.000000 0.000000
# 5 0.000000 0.000000 0.000000 0.000000 0.034354 0.000000
# 6 -0.000234 0.000234 0.000000 0.000000 0.000000 0.038109
#
#
# Mechanical properties :
#
#
# Convention : Reuss Voigt Hill
#
# Bulk Modulus (GPa) = 37.43228 45.34018 41.38623
# Shear Modulus (GPa) = 27.12221 28.30331 27.71276
#
# Velocity S-wave (km/s) = 3.43892 3.51300 3.47615
# Velocity P-wave (km/s) = 5.66479 6.01869 5.84442
#
# Compressibility (1/GPa) = 0.02671491
#
# Stress axis : x y z
#
# Youngs Moduli (GPa) = 79.66274 79.66274 44.31350
#
# Poissons Ratio (x) = 0.39396 0.12260
# Poissons Ratio (y) = 0.39396 0.12260
# Poissons Ratio (z) = 0.22040 0.22040
#
# Static dielectric constant tensor:
#      x y z
#    x 4.337350 0.000000 0.000000 
#    y 0.000000 4.337350 0.000000 
#    z 0.000000 0.000000 3.817270 
# 
# 
# High freq. dielectric constant tensor:
#      x y z
#    x 1.917070 0.000000 0.000000 
#    y 0.000000 1.917070 0.000000 
#    z 0.000000 0.000000 1.884260 
# 
# From -- ./inp_files/600.got.cif
#   From: 2010.03.12/outbox.cif.g09.slc.cpg/sg84_1_cif.got.tgz:600.got - 2010.04.08 20:07:29.
