data_PCOD8303598
_publ_section_title
;
Structure prediction by ZEFSAII (Michael W. Deem and Ramdas Pophale) SiO2 
 PCOD8303598
Probable space group: P 42/N
;
_chemical_formula_sum "Si O2"
_cell_formula_units_Z 48
_cell_length_a 9.422205
_cell_length_b 9.422205
_cell_length_c 26.926944
_cell_angle_alpha 90.000000
_cell_angle_beta 90.000000
_cell_angle_gamma 90.000000
_cell_volume 2390.518809
_symmetry_space_group_name_H-M "P 42/N"
_symmetry_group_IT_number 86
_space_group.IT_coordinate_system_code '2'
_symmetry_cell_setting 'tetragonal'
loop_
_space_group_symop_operation_xyz
x,y,z
-y,1/2+x,1/2+z
1/2-x,1/2-y,z
1/2+y,-x,1/2+z
-x,-y,-z
y,1/2-x,1/2-z
1/2+x,1/2+y,-z
1/2-y,x,1/2-z
loop_
_atom_site_type_symbol
_atom_site_label
_atom_site_fract_x
_atom_site_fract_y
_atom_site_fract_z
Si Si1 0.525056 0.401876 0.808927
Si Si2 0.405813 0.234633 0.626962
Si Si3 0.836165 0.392314 0.041084
Si Si4 0.083905 0.020498 0.703034
Si Si5 0.087779 0.219508 0.342686
Si Si6 0.112616 0.165837 0.455266
O O1 0.427241 0.433327 0.856942
O O2 0.445643 0.459929 0.760689
O O3 0.558900 0.234633 0.803860
O O4 0.669743 0.485423 0.816087
O O5 0.250000 0.250000 0.601746
O O6 0.525193 0.282900 0.589185
O O7 0.408286 0.327083 0.677020
O O8 0.750000 0.250000 0.034666
O O9 0.999845 0.351245 0.047685
O O10 0.806860 0.483167 0.992074
O O11 0.956402 0.933890 0.677618
O O12 0.250000 0.250000 0.327780
O O13 0.066766 0.225471 0.401811
O O14 0.250000 0.250000 0.474987
#
# Coordination Sequence:
#
# PCOD8303598 Si02
#       6
#     8   8   8   8   8   8
#     4  11  24  40  67  94 128 174 219 266 318 377
#     4  10  22  41  67  95 129 166 216 268 316 375
#     4  11  24  43  71  99 123 169 217 262 323 384
#     4  11  22  43  63  94 130 169 222 261 320 380
#     4  11  26  44  63  95 134 172 206 268 327 382
#     4  10  24  47  65  95 136 163 208 267 325 389
#
# _framework density 20.079322999999999
#
# number of rings (size 3 to 8) (size 9 to 14) (size 15 to 20)
#    0.000    1.333    3.333    1.000    7.000    2.000 
#    3.000    0.000    0.000    0.000    0.000    0.000 
#    0.000    0.000    0.000    0.000    0.000    0.000 
#
# Total GULP energy -595446.477710 kJ/mol
# GULP energy per Si atom -12405.134952 kJ/mol
# Density = 2.003362 g / cm^3
# Si number density = 20.079323 Si / 1000 Ang^3
#
#
#
# Elastic Constant Matrix: (Units=GPa)
#
#
# Indices 1 2 3 4 5 6 
#
# 1 100.2803 54.0765 36.9740 0.0000 0.0000 -2.1890
# 2 54.0765 100.2803 36.9740 0.0000 0.0000 2.1890
# 3 36.9740 36.9740 79.0485 0.0000 0.0000 0.0000
# 4 0.0000 0.0000 0.0000 16.3932 0.0000 0.0000
# 5 0.0000 0.0000 0.0000 0.0000 16.3932 0.0000
# 6 -2.1890 2.1890 0.0000 0.0000 0.0000 38.9420
#
#
#
# Elastic Compliance Matrix: (Units=1/GPa)
#
#
# Indices 1 2 3 4 5 6 
#
# 1 0.015054 -0.006705 -0.003905 0.000000 0.000000 0.001223
# 2 -0.006705 0.015054 -0.003905 0.000000 0.000000 -0.001223
# 3 -0.003905 -0.003905 0.016304 0.000000 0.000000 0.000000
# 4 0.000000 0.000000 0.000000 0.061001 0.000000 0.000000
# 5 0.000000 0.000000 0.000000 0.000000 0.061001 0.000000
# 6 0.001223 -0.001223 0.000000 0.000000 0.000000 0.025817
#
#
# Mechanical properties :
#
#
# Convention : Reuss Voigt Hill
#
# Bulk Modulus (GPa) = 57.53310 59.51757 58.52534
# Shear Modulus (GPa) = 21.82874 24.45131 23.14003
#
# Velocity S-wave (km/s) = 3.30074 3.49339 3.39843
# Velocity P-wave (km/s) = 6.57583 6.78066 6.67903
#
# Compressibility (1/GPa) = 0.01738130
#
# Stress axis : x y z
#
# Youngs Moduli (GPa) = 66.42619 66.42619 61.33526
#
# Poissons Ratio (x) = 0.44538 0.23954
# Poissons Ratio (y) = 0.44538 0.23954
# Poissons Ratio (z) = 0.25942 0.25942
#
# Static dielectric constant tensor:
#      x y z
#    x 3.810760 0.000000 0.000000 
#    y 0.000000 3.810760 0.000000 
#    z 0.000000 0.000000 3.576100 
# 
# 
# High freq. dielectric constant tensor:
#      x y z
#    x 1.789860 0.000000 0.000000 
#    y 0.000000 1.789860 0.000000 
#    z 0.000000 0.000000 1.788870 
# 
# From -- ./inp_files/5123.got.cif
#   From: 2010.03.12/outbox.cif.g09.slc.cpg/sg86_3_cif.got.tgz:5123.got - 2010.04.08 20:12:58.
