data_PCOD8303661
_publ_section_title
;
Structure prediction by ZEFSAII (Michael W. Deem and Ramdas Pophale) SiO2 
 PCOD8303661
Probable space group: P 42/N
;
_chemical_formula_sum "Si O2"
_cell_formula_units_Z 40
_cell_length_a 11.006170
_cell_length_b 11.006170
_cell_length_c 13.713779
_cell_angle_alpha 90.000000
_cell_angle_beta 90.000000
_cell_angle_gamma 90.000000
_cell_volume 1661.229289
_symmetry_space_group_name_H-M "P 42/N"
_symmetry_group_IT_number 86
_space_group.IT_coordinate_system_code '2'
_symmetry_cell_setting 'tetragonal'
loop_
_space_group_symop_operation_xyz
x,y,z
-y,1/2+x,1/2+z
1/2-x,1/2-y,z
1/2+y,-x,1/2+z
-x,-y,-z
y,1/2-x,1/2-z
1/2+x,1/2+y,-z
1/2-y,x,1/2-z
loop_
_atom_site_type_symbol
_atom_site_label
_atom_site_fract_x
_atom_site_fract_y
_atom_site_fract_z
Si Si1 0.292915 0.885604 0.496671
Si Si2 0.375101 0.948453 0.288182
Si Si3 0.475795 0.281386 0.728526
Si Si4 0.871438 0.703669 0.085897
Si Si5 0.950792 0.352969 0.330393
O O1 0.250000 0.750000 0.524396
O O2 0.306361 0.895611 0.381882
O O3 0.418372 0.889848 0.558079
O O4 0.205981 0.000311 0.528137
O O5 0.491872 0.863172 0.270379
O O6 0.290655 0.956654 0.192046
O O7 0.420120 0.084961 0.308794
O O8 0.431374 0.337969 0.625569
O O9 0.379755 0.293678 0.818921
O O10 0.600311 0.348420 0.755531
O O11 0.750000 0.750000 0.026562
#
# Coordination Sequence:
#
# PCOD8303661 Si02
#       5
#     8   8   8   8   8
#     4  11  25  45  70 108 147 193 252 316 385 472
#     4  12  25  47  68 104 146 196 244 310 383 460
#     4  11  18  39  70  99 130 181 244 297 359 443
#     4  11  19  37  68 105 134 176 244 311 362 441
#     4  11  24  42  72  97 145 193 240 302 382 452
#
# _framework density 24.078551999999998
#
# number of rings (size 3 to 8) (size 9 to 14) (size 15 to 20)
#    0.000    0.800    4.000    6.000    0.000    0.400 
#    7.200    2.000    0.000    0.000    0.000    0.000 
#    0.000    0.000    0.000    0.000    0.000    0.000 
#
# Total GULP energy -495613.578468 kJ/mol
# GULP energy per Si atom -12390.339462 kJ/mol
# Density = 2.402375 g / cm^3
# Si number density = 24.078552 Si / 1000 Ang^3
#
#
#
# Elastic Constant Matrix: (Units=GPa)
#
#
# Indices 1 2 3 4 5 6 
#
# 1 114.0634 16.9752 5.5551 0.0000 0.0000 -2.5425
# 2 16.9752 114.0634 5.5551 0.0000 0.0000 2.5425
# 3 5.5551 5.5551 60.9595 0.0000 0.0000 0.0000
# 4 0.0000 0.0000 0.0000 20.5087 0.0000 0.0000
# 5 0.0000 0.0000 0.0000 0.0000 20.5087 0.0000
# 6 -2.5425 2.5425 0.0000 0.0000 0.0000 41.0237
#
#
#
# Elastic Compliance Matrix: (Units=1/GPa)
#
#
# Indices 1 2 3 4 5 6 
#
# 1 0.009012 -0.001321 -0.000701 0.000000 0.000000 0.000640
# 2 -0.001321 0.009012 -0.000701 0.000000 0.000000 -0.000640
# 3 -0.000701 -0.000701 0.016532 0.000000 0.000000 0.000000
# 4 0.000000 0.000000 0.000000 0.048760 0.000000 0.000000
# 5 0.000000 0.000000 0.000000 0.000000 0.048760 0.000000
# 6 0.000640 -0.000640 0.000000 0.000000 0.000000 0.024456
#
#
# Mechanical properties :
#
#
# Convention : Reuss Voigt Hill
#
# Bulk Modulus (GPa) = 34.35217 38.36188 36.35703
# Shear Modulus (GPa) = 29.12380 33.80828 31.46604
#
# Velocity S-wave (km/s) = 3.48161 3.75117 3.61890
# Velocity P-wave (km/s) = 5.51904 5.89307 5.70912
#
# Compressibility (1/GPa) = 0.02911024
#
# Stress axis : x y z
#
# Youngs Moduli (GPa) = 110.96179 110.96179 60.48847
#
# Poissons Ratio (x) = 0.14662 0.04239
# Poissons Ratio (y) = 0.14662 0.04239
# Poissons Ratio (z) = 0.07777 0.07777
#
# Static dielectric constant tensor:
#      x y z
#    x 4.257370 0.000000 0.000000 
#    y 0.000000 4.257370 0.000000 
#    z 0.000000 0.000000 3.918570 
# 
# 
# High freq. dielectric constant tensor:
#      x y z
#    x 1.957550 0.000000 0.000000 
#    y 0.000000 1.957550 0.000000 
#    z 0.000000 0.000000 1.922580 
# 
# From -- ./inp_files/2906.got.cif
#   From: 2010.03.12/outbox.cif.g09.slc.cpg/sg86_2_cif.got.tgz:2906.got - 2010.04.08 20:12:58.
