data_PCOD8303793
_publ_section_title
;
Structure prediction by ZEFSAII (Michael W. Deem and Ramdas Pophale) SiO2 
 PCOD8303793
Probable space group: I 4/M
;
_chemical_formula_sum "Si O2"
_cell_formula_units_Z 96
_cell_length_a 23.931536
_cell_length_b 23.931536
_cell_length_c 8.770057
_cell_angle_alpha 90.000000
_cell_angle_beta 90.000000
_cell_angle_gamma 90.000000
_cell_volume 5022.773147
_symmetry_space_group_name_H-M "I 4/M"
_symmetry_group_IT_number 87
_symmetry_cell_setting 'tetragonal'
loop_
_space_group_symop_operation_xyz
x,y,z
-y,x,z
-x,-y,z
y,-x,z
-x,-y,-z
y,-x,-z
x,y,-z
-y,x,-z
1/2+x,1/2+y,1/2+z
1/2-y,1/2+x,1/2+z
1/2-x,1/2-y,1/2+z
1/2+y,1/2-x,1/2+z
1/2-x,1/2-y,1/2-z
1/2+y,1/2-x,1/2-z
1/2+x,1/2+y,1/2-z
1/2-y,1/2+x,1/2-z
loop_
_atom_site_type_symbol
_atom_site_label
_atom_site_fract_x
_atom_site_fract_y
_atom_site_fract_z
Si Si1 0.694275 0.816819 0.670462
Si Si2 0.081648 0.190970 0.679865
Si Si3 0.182606 0.579373 0.179960
Si Si4 0.418544 0.979184 0.818562
Si Si5 0.981365 0.914493 0.681078
Si Si6 0.815733 0.195778 0.170040
O O1 0.686023 0.840998 0.500000
O O2 0.642128 0.835169 0.774322
O O3 0.751089 0.841929 0.741740
O O4 0.700117 0.750678 0.665587
O O5 0.089007 0.191447 0.500000
O O6 0.067612 0.253727 0.735184
O O7 0.033145 0.148420 0.736128
O O8 0.139224 0.166901 0.746120
O O9 0.144363 0.535160 0.268849
O O10 0.175168 0.571723 0.000000
O O11 0.459868 0.933246 0.746285
O O12 0.424568 0.979350 0.000000
O O13 0.980510 0.916190 0.500000
O O14 0.041961 0.933931 0.741790
O O15 0.840469 0.195469 0.000000
#
# Coordination Sequence:
#
# PCOD8303793 Si02
#       6
#    16  16  16  16  16  16
#     4   9  16  27  44  67  95 131 173 211 251 304
#     4   9  17  29  48  74 104 136 171 215 264 313
#     4  10  19  32  50  75 107 139 171 212 262 313
#     4  11  22  39  61  82 104 134 173 214 256 306
#     4   8  14  27  49  75 100 129 170 217 259 300
#     4   9  16  26  42  65  96 133 170 208 253 308
#
# _framework density 19.112947999999999
#
# number of rings (size 3 to 8) (size 9 to 14) (size 15 to 20)
#    0.000    2.667    0.000    4.000    0.000    4.667 
#    0.000    1.667    0.000    5.000    0.000    1.167 
#    0.000    0.000    0.000    0.000    0.000    0.000 
#
# Total GULP energy -595005.751805 kJ/mol
# GULP energy per Si atom -12395.953163 kJ/mol
# Density = 1.906945 g / cm^3
# Si number density = 19.112948 Si / 1000 Ang^3
#
#
#
# Elastic Constant Matrix: (Units=GPa)
#
#
# Indices 1 2 3 4 5 6 
#
# 1 85.7595 51.1488 28.9750 0.0000 0.0000 0.3798
# 2 51.1488 85.7595 28.9750 0.0000 0.0000 -0.3798
# 3 28.9750 28.9750 84.7129 0.0000 0.0000 0.0000
# 4 0.0000 0.0000 0.0000 21.5529 0.0000 0.0000
# 5 0.0000 0.0000 0.0000 0.0000 21.5529 0.0000
# 6 0.3798 -0.3798 0.0000 0.0000 0.0000 23.9205
#
#
#
# Elastic Compliance Matrix: (Units=1/GPa)
#
#
# Indices 1 2 3 4 5 6 
#
# 1 0.018722 -0.010181 -0.002921 0.000000 0.000000 -0.000459
# 2 -0.010181 0.018722 -0.002921 0.000000 0.000000 0.000459
# 3 -0.002921 -0.002921 0.013803 0.000000 0.000000 0.000000
# 4 0.000000 0.000000 0.000000 0.046397 0.000000 0.000000
# 5 0.000000 0.000000 0.000000 0.000000 0.046397 0.000000
# 6 -0.000459 0.000459 0.000000 0.000000 0.000000 0.041820
#
#
# Mechanical properties :
#
#
# Convention : Reuss Voigt Hill
#
# Bulk Modulus (GPa) = 52.08521 52.71439 52.39980
# Shear Modulus (GPa) = 22.29079 23.21414 22.75247
#
# Velocity S-wave (km/s) = 3.41877 3.48886 3.45399
# Velocity P-wave (km/s) = 6.54938 6.62343 6.58651
#
# Compressibility (1/GPa) = 0.01919931
#
# Stress axis : x y z
#
# Youngs Moduli (GPa) = 53.41379 53.41379 72.44846
#
# Poissons Ratio (x) = 0.54381 0.21164
# Poissons Ratio (y) = 0.54381 0.21164
# Poissons Ratio (z) = 0.15603 0.15603
#
# Static dielectric constant tensor:
#      x y z
#    x 3.496500 0.000000 0.000000 
#    y 0.000000 3.496500 0.000000 
#    z 0.000000 0.000000 3.435250 
# 
# 
# High freq. dielectric constant tensor:
#      x y z
#    x 1.725570 0.000000 0.000000 
#    y 0.000000 1.725570 0.000000 
#    z 0.000000 0.000000 1.734830 
# 
# From -- ./inp_files/1407.got.cif
#   From: 2010.03.12/outbox.cif.g09.slc.cpg/sg87_1_cif.got.tgz:1407.got - 2010.04.08 20:16:13.
