data_PCOD8304122
_publ_section_title
;
Structure prediction by ZEFSAII (Michael W. Deem and Ramdas Pophale) SiO2 
 PCOD8304122
Probable space group: I 4/M
;
_chemical_formula_sum "Si O2"
_cell_formula_units_Z 80
_cell_length_a 12.023481
_cell_length_b 12.023481
_cell_length_c 26.801797
_cell_angle_alpha 90.000000
_cell_angle_beta 90.000000
_cell_angle_gamma 90.000000
_cell_volume 3874.577537
_symmetry_space_group_name_H-M "I 4/M"
_symmetry_group_IT_number 87
_symmetry_cell_setting 'tetragonal'
loop_
_space_group_symop_operation_xyz
x,y,z
-y,x,z
-x,-y,z
y,-x,z
-x,-y,-z
y,-x,-z
x,y,-z
-y,x,-z
1/2+x,1/2+y,1/2+z
1/2-y,1/2+x,1/2+z
1/2-x,1/2-y,1/2+z
1/2+y,1/2-x,1/2+z
1/2-x,1/2-y,1/2-z
1/2+y,1/2-x,1/2-z
1/2+x,1/2+y,1/2-z
1/2-y,1/2+x,1/2-z
loop_
_atom_site_type_symbol
_atom_site_label
_atom_site_fract_x
_atom_site_fract_y
_atom_site_fract_z
Si Si1 0.325771 0.533193 0.391648
Si Si2 0.590650 0.266766 0.213074
Si Si3 0.088257 0.407361 0.941336
Si Si4 0.729272 0.412360 0.717117
Si Si5 0.824246 0.965565 0.396810
O O1 0.371066 0.412405 0.408646
O O2 0.207769 0.555722 0.416004
O O3 0.317687 0.528582 0.331887
O O4 0.500714 0.203883 0.248302
O O5 0.630822 0.369980 0.246838
O O6 0.691424 0.186328 0.198906
O O7 0.533633 0.306508 0.162417
O O8 0.211002 0.445480 0.926263
O O9 0.000000 0.500000 0.923353
O O10 0.082781 0.390105 0.000000
O O11 0.913051 0.870658 0.411907
#
# Coordination Sequence:
#
# PCOD8304122 Si02
#       5
#    16  16  16  16  16
#     4  11  24  43  72 103 136 179 228 283 342 413
#     4  11  22  36  60  94 136 180 219 262 326 399
#     4  11  28  50  73  99 135 179 228 294 357 411
#     4  11  22  36  60  94 136 180 219 262 326 399
#     4  11  24  43  72 103 136 179 228 283 342 413
#
# _framework density 20.647411999999999
#
# number of rings (size 3 to 8) (size 9 to 14) (size 15 to 20)
#    0.000    1.000    6.000    0.000    2.800    4.000 
#    0.000    2.000    0.000    0.000    0.000    0.000 
#    0.000    0.000    0.000    0.000    0.000    0.000 
#
# Total GULP energy -496020.212067 kJ/mol
# GULP energy per Si atom -12400.505302 kJ/mol
# Density = 2.060042 g / cm^3
# Si number density = 20.647412 Si / 1000 Ang^3
#
#
#
# Elastic Constant Matrix: (Units=GPa)
#
#
# Indices 1 2 3 4 5 6 
#
# 1 111.1110 39.3345 20.6819 0.0000 0.0000 0.7728
# 2 39.3345 111.1110 20.6819 0.0000 0.0000 -0.7728
# 3 20.6819 20.6819 55.4108 0.0000 0.0000 0.0000
# 4 0.0000 0.0000 0.0000 26.5193 0.0000 0.0000
# 5 0.0000 0.0000 0.0000 0.0000 26.5193 0.0000
# 6 0.7728 -0.7728 0.0000 0.0000 0.0000 22.8379
#
#
#
# Elastic Compliance Matrix: (Units=1/GPa)
#
#
# Indices 1 2 3 4 5 6 
#
# 1 0.010675 -0.003268 -0.002765 0.000000 0.000000 -0.000472
# 2 -0.003268 0.010675 -0.002765 0.000000 0.000000 0.000472
# 3 -0.002765 -0.002765 0.020111 0.000000 0.000000 0.000000
# 4 0.000000 0.000000 0.000000 0.037708 0.000000 0.000000
# 5 0.000000 0.000000 0.000000 0.000000 0.037708 0.000000
# 6 -0.000472 0.000472 0.000000 0.000000 0.000000 0.043819
#
#
# Mechanical properties :
#
#
# Convention : Reuss Voigt Hill
#
# Bulk Modulus (GPa) = 41.90013 48.78107 45.34060
# Shear Modulus (GPa) = 26.84637 28.30428 27.57532
#
# Velocity S-wave (km/s) = 3.60978 3.70650 3.65846
# Velocity P-wave (km/s) = 6.14095 6.48032 6.31292
#
# Compressibility (1/GPa) = 0.02386628
#
# Stress axis : x y z
#
# Youngs Moduli (GPa) = 93.67972 93.67972 49.72452
#
# Poissons Ratio (x) = 0.30611 0.13747
# Poissons Ratio (y) = 0.30611 0.13747
# Poissons Ratio (z) = 0.25899 0.25899
#
# Static dielectric constant tensor:
#      x y z
#    x 3.763310 0.000000 0.000000 
#    y 0.000000 3.763310 0.000000 
#    z 0.000000 0.000000 3.643780 
# 
# 
# High freq. dielectric constant tensor:
#      x y z
#    x 1.813670 0.000000 0.000000 
#    y 0.000000 1.813670 0.000000 
#    z 0.000000 0.000000 1.803860 
# 
# From -- ./inp_files/6474.got.cif
#   From: 2010.03.12/outbox.cif.g09.slc.cpg/sg87_4_cif.got.tgz:6474.got - 2010.04.08 20:16:13.
