data_PCOD8304931
_publ_section_title
;
Structure prediction by ZEFSAII (Michael W. Deem and Ramdas Pophale) SiO2 
 PCOD8304931
Probable space group: P 41 2 2
;
_chemical_formula_sum "Si O2"
_cell_formula_units_Z 36
_cell_length_a 13.154072
_cell_length_b 13.154072
_cell_length_c 10.247029
_cell_angle_alpha 90.000000
_cell_angle_beta 90.000000
_cell_angle_gamma 90.000000
_cell_volume 1773.039433
_symmetry_space_group_name_H-M "P 41 2 2"
_symmetry_group_IT_number 91
_symmetry_cell_setting 'tetragonal'
loop_
_space_group_symop_operation_xyz
x,y,z
-y,x,1/4+z
-x,-y,1/2+z
y,-x,3/4+z
x,-y,1/2-z
-x,y,-z
y,x,3/4-z
-y,-x,1/4-z
loop_
_atom_site_type_symbol
_atom_site_label
_atom_site_fract_x
_atom_site_fract_y
_atom_site_fract_z
Si Si1 0.813611 0.186390 0.125000
Si Si2 0.608909 0.500000 0.250000
Si Si3 0.312985 0.267318 0.113850
Si Si4 0.613334 0.130951 0.454581
Si Si5 0.895797 0.743964 0.935960
Si Si6 0.280603 0.000000 0.750000
O O1 0.784182 0.256112 0.244981
O O2 0.794261 0.068173 0.160324
O O3 0.543043 0.543043 0.375000
O O4 0.683870 0.417399 0.313886
O O5 0.248455 0.356370 0.183196
O O6 0.323728 0.177146 0.219904
O O7 0.500000 0.125825 0.500000
O O8 0.673294 0.073196 0.567280
O O9 0.639726 0.071102 0.324131
O O10 0.842385 0.842385 0.875000
O O11 0.000000 0.781958 0.000000
#
# Coordination Sequence:
#
# PCOD8304931 Si02
#       6
#     4   4   8   8   8   4
#     4  10  20  44  64  94 134 170 216 274 342 386
#     4  12  28  44  72 102 134 184 232 280 352 426
#     4  10  23  42  66  93 137 169 218 282 331 392
#     4  10  23  39  63  97 131 172 218 277 336 401
#     4  10  22  42  69  94 135 176 221 279 336 403
#     4  10  22  40  68  92 132 174 220 278 332 406
#
# _framework density 20.304117999999999
#
# number of rings (size 3 to 8) (size 9 to 14) (size 15 to 20)
#    0.000    1.778    1.111    1.333    6.222    0.889 
#    4.000    0.000   80.667    0.000    0.000    0.000 
#    0.000    0.000    0.000    0.000    0.000    0.000 
#
# Total GULP energy -446119.491986 kJ/mol
# GULP energy per Si atom -12392.208111 kJ/mol
# Density = 2.025791 g / cm^3
# Si number density = 20.304118 Si / 1000 Ang^3
#
#
#
# Elastic Constant Matrix: (Units=GPa)
#
#
# Indices 1 2 3 4 5 6 
#
# 1 113.5795 70.2530 38.6407 0.0000 0.0000 0.0000
# 2 70.2530 113.5785 38.6377 0.0000 0.0000 0.0000
# 3 38.6407 38.6377 96.4011 0.0000 0.0000 0.0000
# 4 0.0000 0.0000 0.0000 32.2685 0.0000 0.0000
# 5 0.0000 0.0000 0.0000 0.0000 32.2697 0.0000
# 6 0.0000 0.0000 0.0000 0.0000 0.0000 10.6588
#
#
#
# Elastic Compliance Matrix: (Units=1/GPa)
#
#
# Indices 1 2 3 4 5 6 
#
# 1 0.014812 -0.008269 -0.002623 0.000000 0.000000 0.000000
# 2 -0.008269 0.014811 -0.002622 0.000000 0.000000 0.000000
# 3 -0.002623 -0.002622 0.012475 0.000000 0.000000 0.000000
# 4 0.000000 0.000000 0.000000 0.030990 0.000000 0.000000
# 5 0.000000 0.000000 0.000000 0.000000 0.030989 0.000000
# 6 0.000000 0.000000 0.000000 0.000000 0.000000 0.093819
#
#
# Mechanical properties :
#
#
# Convention : Reuss Voigt Hill
#
# Bulk Modulus (GPa) = 66.35359 68.73577 67.54468
# Shear Modulus (GPa) = 21.74416 26.77460 24.25938
#
# Velocity S-wave (km/s) = 3.27605 3.63530 3.46034
# Velocity P-wave (km/s) = 6.86009 7.17963 7.02168
#
# Compressibility (1/GPa) = 0.01507078
#
# Stress axis : x y z
#
# Youngs Moduli (GPa) = 67.51492 67.51596 80.15817
#
# Poissons Ratio (x) = 0.55832 0.21022
# Poissons Ratio (y) = 0.55831 0.21015
# Poissons Ratio (z) = 0.17706 0.17701
#
# Static dielectric constant tensor:
#      x y z
#    x 3.692620 0.000000 0.000000 
#    y 0.000000 3.692650 0.000000 
#    z 0.000000 0.000000 3.766630 
# 
# 
# High freq. dielectric constant tensor:
#      x y z
#    x 1.787980 0.000000 0.000000 
#    y 0.000000 1.787980 0.000000 
#    z 0.000000 0.000000 1.821260 
# 
# From -- ./inp_files/3587.got.cif
#   From: 2010.03.12/outbox.cif.g09.slc.cpg/sg91_2_cif.got.tgz:3587.got - 2010.04.08 20:27:58.
