data_PCOD8304968
_publ_section_title
;
Structure prediction by ZEFSAII (Michael W. Deem and Ramdas Pophale) SiO2 
 PCOD8304968
Probable space group: P 41 2 2
;
_chemical_formula_sum "Si O2"
_cell_formula_units_Z 36
_cell_length_a 12.201004
_cell_length_b 12.201004
_cell_length_c 12.087883
_cell_angle_alpha 90.000000
_cell_angle_beta 90.000000
_cell_angle_gamma 90.000000
_cell_volume 1799.456642
_symmetry_space_group_name_H-M "P 41 2 2"
_symmetry_group_IT_number 91
_symmetry_cell_setting 'tetragonal'
loop_
_space_group_symop_operation_xyz
x,y,z
-y,x,1/4+z
-x,-y,1/2+z
y,-x,3/4+z
x,-y,1/2-z
-x,y,-z
y,x,3/4-z
-y,-x,1/4-z
loop_
_atom_site_type_symbol
_atom_site_label
_atom_site_fract_x
_atom_site_fract_y
_atom_site_fract_z
Si Si1 0.514470 0.313907 0.665815
Si Si2 0.124664 0.500000 0.250000
Si Si3 0.844198 0.235985 0.443035
Si Si4 0.936119 0.721803 0.829381
Si Si5 0.422281 0.292421 0.098773
O O1 0.629692 0.370309 0.625000
O O2 0.476736 0.207607 0.599378
O O3 0.514405 0.268271 0.789071
O O4 0.422245 0.406606 0.658499
O O5 0.044521 0.397814 0.275809
O O6 0.794651 0.119459 0.482519
O O7 0.862207 0.299479 0.560265
O O8 0.767387 0.304170 0.359128
O O9 0.954877 0.217349 0.372204
O O10 0.500000 0.248452 0.000000
#
# Coordination Sequence:
#
# PCOD8304968 Si02
#       5
#     8   4   8   8   8
#     4  12  20  35  56  85 131 179 217 257 315 399
#     4  12  20  34  64  88 136 170 222 262 336 400
#     4  10  21  39  62  93 121 162 221 274 330 387
#     4  10  21  39  63  94 120 166 220 277 328 397
#     4  12  23  34  52  91 131 176 213 260 322 401
#
# _framework density 20.006038
#
# number of rings (size 3 to 8) (size 9 to 14) (size 15 to 20)
#    0.000    0.889    6.667    2.000    1.556    0.000 
#    0.000    0.000    0.000    0.000   46.222    0.000 
#    0.000    0.000    0.000    0.000    0.000    0.000 
#
# Total GULP energy -446044.075984 kJ/mol
# GULP energy per Si atom -12390.113222 kJ/mol
# Density = 1.996050 g / cm^3
# Si number density = 20.006038 Si / 1000 Ang^3
#
#
#
# Elastic Constant Matrix: (Units=GPa)
#
#
# Indices 1 2 3 4 5 6 
#
# 1 90.8491 38.7768 45.9454 0.0000 0.0000 0.0000
# 2 38.7768 90.8496 45.9455 0.0000 0.0000 0.0000
# 3 45.9454 45.9455 132.2531 0.0000 0.0000 0.0000
# 4 0.0000 0.0000 0.0000 36.8423 0.0000 0.0000
# 5 0.0000 0.0000 0.0000 0.0000 36.8424 0.0000
# 6 0.0000 0.0000 0.0000 0.0000 0.0000 22.2973
#
#
#
# Elastic Compliance Matrix: (Units=1/GPa)
#
#
# Indices 1 2 3 4 5 6 
#
# 1 0.014720 -0.004484 -0.003556 0.000000 0.000000 0.000000
# 2 -0.004484 0.014720 -0.003556 0.000000 0.000000 0.000000
# 3 -0.003556 -0.003556 0.010032 0.000000 0.000000 0.000000
# 4 0.000000 0.000000 0.000000 0.027143 0.000000 0.000000
# 5 0.000000 0.000000 0.000000 0.000000 0.027143 0.000000
# 6 0.000000 0.000000 0.000000 0.000000 0.000000 0.044848
#
#
# Mechanical properties :
#
#
# Convention : Reuss Voigt Hill
#
# Bulk Modulus (GPa) = 61.42836 63.92079 62.67458
# Shear Modulus (GPa) = 29.90021 31.41534 30.65777
#
# Velocity S-wave (km/s) = 3.87015 3.96699 3.91887
# Velocity P-wave (km/s) = 7.12336 7.28030 7.20226
#
# Compressibility (1/GPa) = 0.01627913
#
# Stress axis : x y z
#
# Youngs Moduli (GPa) = 67.93664 67.93702 99.68273
#
# Poissons Ratio (x) = 0.30466 0.35445
# Poissons Ratio (y) = 0.30466 0.35444
# Poissons Ratio (z) = 0.24157 0.24157
#
# Static dielectric constant tensor:
#      x y z
#    x 3.465430 0.000000 0.000000 
#    y 0.000000 3.465420 0.000000 
#    z 0.000000 0.000000 4.066480 
# 
# 
# High freq. dielectric constant tensor:
#      x y z
#    x 1.763470 0.000000 0.000000 
#    y 0.000000 1.763470 0.000000 
#    z 0.000000 0.000000 1.777370 
# 
# From -- ./inp_files/3562.got.cif
#   From: 2010.03.12/outbox.cif.g09.slc.cpg/sg91_2_cif.got.tgz:3562.got - 2010.04.08 20:27:58.
