data_PCOD8304629
_publ_section_title
;
Structure prediction by ZEFSAII (Michael W. Deem and Ramdas Pophale) SiO2 
 PCOD8304629
Probable space group: P 4 21 2
;
_chemical_formula_sum "Si O2"
_cell_formula_units_Z 56
_cell_length_a 14.697264
_cell_length_b 14.697264
_cell_length_c 12.425471
_cell_angle_alpha 90.000000
_cell_angle_beta 90.000000
_cell_angle_gamma 90.000000
_cell_volume 2684.020636
_symmetry_space_group_name_H-M "P 4 21 2"
_symmetry_group_IT_number 90
_symmetry_cell_setting 'tetragonal'
loop_
_space_group_symop_operation_xyz
x,y,z
1/2-y,1/2+x,z
-x,-y,z
1/2+y,1/2-x,z
1/2+x,1/2-y,-z
1/2-x,1/2+y,-z
y,x,-z
-y,-x,-z
loop_
_atom_site_type_symbol
_atom_site_label
_atom_site_fract_x
_atom_site_fract_y
_atom_site_fract_z
Si Si1 0.567388 0.614238 0.615409
Si Si2 0.125871 0.700536 0.338055
Si Si3 0.637526 0.326923 0.624596
Si Si4 0.787906 0.002615 0.293462
Si Si5 0.647689 0.027010 0.110873
Si Si6 0.641899 0.044620 0.869349
Si Si7 0.535926 0.859520 0.457369
O O1 0.565010 0.565010 0.500000
O O2 0.637504 0.698570 0.615596
O O3 0.466816 0.646605 0.646683
O O4 0.609331 0.542770 0.701879
O O5 0.223482 0.651572 0.337272
O O6 0.080669 0.712138 0.219615
O O7 0.051363 0.650737 0.414654
O O8 0.663584 0.336417 0.500000
O O9 0.702786 0.393309 0.694627
O O10 0.735921 0.033512 0.185937
O O11 0.735179 0.048434 0.395148
O O12 0.571614 0.103461 0.132846
O O13 0.682766 0.046073 0.989731
O O14 0.557856 0.111808 0.850535
O O15 0.435458 0.891556 0.422024
#
# Coordination Sequence:
#
# PCOD8304629 Si02
#       7
#     8   8   8   8   8   8   8
#     4  12  24  42  60  88 130 176 217 259 323 401
#     4  12  23  38  63  96 125 164 219 275 323 393
#     4  12  25  40  63  92 137 181 221 265 330 402
#     4  12  24  38  62  88 130 172 221 261 315 400
#     4   9  20  39  66  96 128 166 208 268 338 389
#     4   9  18  37  65  93 125 162 203 260 334 396
#     4  11  22  35  56  92 131 163 198 266 335 383
#
# _framework density 20.864222000000002
#
# number of rings (size 3 to 8) (size 9 to 14) (size 15 to 20)
#    0.000    1.000    2.857    6.000    4.000    2.286 
#    0.000    0.714    0.000    2.571    0.000    6.000 
#    0.000    0.000    0.000    0.000    0.000    0.000 
#
# Total GULP energy -694019.250707 kJ/mol
# GULP energy per Si atom -12393.200905 kJ/mol
# Density = 2.081673 g / cm^3
# Si number density = 20.864222 Si / 1000 Ang^3
#
#
#
# Elastic Constant Matrix: (Units=GPa)
#
#
# Indices 1 2 3 4 5 6 
#
# 1 88.1786 35.1091 42.4259 0.0000 0.0000 0.0000
# 2 35.1091 88.1787 42.4258 0.0000 0.0000 0.0000
# 3 42.4259 42.4258 129.7956 0.0000 0.0000 0.0000
# 4 0.0000 0.0000 0.0000 23.9571 0.0000 0.0000
# 5 0.0000 0.0000 0.0000 0.0000 23.9571 0.0000
# 6 0.0000 0.0000 0.0000 0.0000 0.0000 32.7701
#
#
#
# Elastic Compliance Matrix: (Units=1/GPa)
#
#
# Indices 1 2 3 4 5 6 
#
# 1 0.014654 -0.004189 -0.003421 0.000000 0.000000 0.000000
# 2 -0.004189 0.014654 -0.003421 0.000000 0.000000 0.000000
# 3 -0.003421 -0.003421 0.009941 0.000000 0.000000 0.000000
# 4 0.000000 0.000000 0.000000 0.041741 0.000000 0.000000
# 5 0.000000 0.000000 0.000000 0.000000 0.041741 0.000000
# 6 0.000000 0.000000 0.000000 0.000000 0.000000 0.030516
#
#
# Mechanical properties :
#
#
# Convention : Reuss Voigt Hill
#
# Bulk Modulus (GPa) = 58.17881 60.67494 59.42687
# Shear Modulus (GPa) = 27.61852 28.54967 28.08409
#
# Velocity S-wave (km/s) = 3.64225 3.70314 3.67282
# Velocity P-wave (km/s) = 6.75522 6.88682 6.82134
#
# Compressibility (1/GPa) = 0.01718839
#
# Stress axis : x y z
#
# Youngs Moduli (GPa) = 68.23913 68.23926 100.59640
#
# Poissons Ratio (x) = 0.28585 0.34412
# Poissons Ratio (y) = 0.28585 0.34412
# Poissons Ratio (z) = 0.23343 0.23343
#
# Static dielectric constant tensor:
#      x y z
#    x 3.832490 0.000000 0.000000 
#    y 0.000000 3.832490 0.000000 
#    z 0.000000 0.000000 3.618110 
# 
# 
# High freq. dielectric constant tensor:
#      x y z
#    x 1.818140 0.000000 0.000000 
#    y 0.000000 1.818140 0.000000 
#    z 0.000000 0.000000 1.789110 
# 
# From -- ./inp_files/2230.got.cif
#   From: 2010.03.12/outbox.cif.g09.slc.cpg/sg90_2_cif.got.tgz:2230.got - 2010.04.08 20:26:03.
