data_PCOD8304476
_publ_section_title
;
Structure prediction by ZEFSAII (Michael W. Deem and Ramdas Pophale) SiO2 
 PCOD8304476
Probable space group: P 4 2 2
;
_chemical_formula_sum "Si O2"
_cell_formula_units_Z 40
_cell_length_a 15.015188
_cell_length_b 15.015188
_cell_length_c 9.486927
_cell_angle_alpha 90.000000
_cell_angle_beta 90.000000
_cell_angle_gamma 90.000000
_cell_volume 2138.883387
_symmetry_space_group_name_H-M "P 4 2 2"
_symmetry_group_IT_number 89
_symmetry_cell_setting 'tetragonal'
loop_
_space_group_symop_operation_xyz
x,y,z
-y,x,z
-x,-y,z
y,-x,z
x,-y,-z
-x,y,-z
y,x,-z
-y,-x,-z
loop_
_atom_site_type_symbol
_atom_site_label
_atom_site_fract_x
_atom_site_fract_y
_atom_site_fract_z
Si Si1 0.579002 0.051413 0.148002
Si Si2 0.746720 0.513082 0.152660
Si Si3 0.808338 0.816828 0.339727
Si Si4 0.990981 0.741330 0.341054
Si Si5 0.693987 0.679539 0.831215
O O1 0.547747 0.152812 0.131153
O O2 0.500000 0.000000 0.229272
O O3 0.664945 0.045085 0.241525
O O4 0.595315 0.000000 0.000000
O O5 0.735168 0.415225 0.223967
O O6 0.689790 0.592019 0.226983
O O7 0.702960 0.500000 0.000000
O O8 0.786713 0.786713 0.500000
O O9 0.779093 0.914908 0.292360
O O10 0.759220 0.750346 0.234834
O O11 0.915629 0.817033 0.327083
O O12 0.000000 0.704826 0.500000
O O13 0.694797 0.694797 0.000000
#
# Coordination Sequence:
#
# PCOD8304476 Si02
#       5
#     8   8   8   8   8
#     4  11  20  33  57  82 115 141 188 231 285 336
#     4  10  19  35  55  86 112 149 183 235 282 330
#     4  10  21  38  56  82 115 149 187 231 279 337
#     4  10  22  37  56  81 113 147 187 230 279 334
#     4  10  21  36  59  82 115 147 192 230 284 335
#
# _framework density 18.701346999999998
#
# number of rings (size 3 to 8) (size 9 to 14) (size 15 to 20)
#    0.000    1.800    4.000    1.200    2.800    1.200 
#    0.000    5.000    0.000    0.000    0.000    4.200 
#    0.000    0.000    0.000    0.000    0.000    0.000 
#
# Total GULP energy -495522.059789 kJ/mol
# GULP energy per Si atom -12388.051495 kJ/mol
# Density = 1.865878 g / cm^3
# Si number density = 18.701347 Si / 1000 Ang^3
#
#
#
# Elastic Constant Matrix: (Units=GPa)
#
#
# Indices 1 2 3 4 5 6 
#
# 1 130.7486 52.5231 37.4894 0.0000 0.0000 0.0000
# 2 52.5231 130.7486 37.4894 0.0000 0.0000 0.0000
# 3 37.4894 37.4894 43.6392 0.0000 0.0000 0.0000
# 4 0.0000 0.0000 0.0000 26.8374 0.0000 0.0000
# 5 0.0000 0.0000 0.0000 0.0000 26.8374 0.0000
# 6 0.0000 0.0000 0.0000 0.0000 0.0000 35.1145
#
#
#
# Elastic Compliance Matrix: (Units=1/GPa)
#
#
# Indices 1 2 3 4 5 6 
#
# 1 0.010598 -0.002185 -0.007228 0.000000 0.000000 0.000000
# 2 -0.002185 0.010598 -0.007228 0.000000 0.000000 0.000000
# 3 -0.007228 -0.007228 0.035333 0.000000 0.000000 0.000000
# 4 0.000000 0.000000 0.000000 0.037261 0.000000 0.000000
# 5 0.000000 0.000000 0.000000 0.000000 0.037261 0.000000
# 6 0.000000 0.000000 0.000000 0.000000 0.000000 0.028478
#
#
# Mechanical properties :
#
#
# Convention : Reuss Voigt Hill
#
# Bulk Modulus (GPa) = 43.01198 62.23778 52.62488
# Shear Modulus (GPa) = 24.92996 29.60019 27.26507
#
# Velocity S-wave (km/s) = 3.65507 3.98274 3.82241
# Velocity P-wave (km/s) = 6.39234 7.38253 6.90520
#
# Compressibility (1/GPa) = 0.02324934
#
# Stress axis : x y z
#
# Youngs Moduli (GPa) = 94.35358 94.35358 28.30186
#
# Poissons Ratio (x) = 0.20617 0.20456
# Poissons Ratio (y) = 0.20617 0.20456
# Poissons Ratio (z) = 0.68196 0.68196
#
# Static dielectric constant tensor:
#      x y z
#    x 3.382990 0.000000 0.000000 
#    y 0.000000 3.382990 0.000000 
#    z 0.000000 0.000000 3.199530 
# 
# 
# High freq. dielectric constant tensor:
#      x y z
#    x 1.737330 0.000000 0.000000 
#    y 0.000000 1.737330 0.000000 
#    z 0.000000 0.000000 1.692160 
# 
# From -- ./inp_files/1005.got.cif
#   From: 2010.03.12/outbox.cif.g09.slc.cpg/sg89_1_cif.got.tgz:1005.got - 2010.04.08 20:24:03.
