data_PCOD8304924
_publ_section_title
;
Structure prediction by ZEFSAII (Michael W. Deem and Ramdas Pophale) SiO2 
 PCOD8304924
Probable space group: P 41 2 2
;
_chemical_formula_sum "Si O2"
_cell_formula_units_Z 40
_cell_length_a 11.377969
_cell_length_b 11.377969
_cell_length_c 14.475820
_cell_angle_alpha 90.000000
_cell_angle_beta 90.000000
_cell_angle_gamma 90.000000
_cell_volume 1874.013290
_symmetry_space_group_name_H-M "P 41 2 2"
_symmetry_group_IT_number 91
_symmetry_cell_setting 'tetragonal'
loop_
_space_group_symop_operation_xyz
x,y,z
-y,x,1/4+z
-x,-y,1/2+z
y,-x,3/4+z
x,-y,1/2-z
-x,y,-z
y,x,3/4-z
-y,-x,1/4-z
loop_
_atom_site_type_symbol
_atom_site_label
_atom_site_fract_x
_atom_site_fract_y
_atom_site_fract_z
Si Si1 0.264529 0.081536 0.836982
Si Si2 0.430202 0.245950 0.411473
Si Si3 0.260959 0.940003 0.009811
Si Si4 0.741193 0.902955 0.678647
Si Si5 0.137753 0.504154 0.517252
O O1 0.151605 0.151605 0.875000
O O2 0.373466 0.171126 0.818679
O O3 0.226241 0.000000 0.750000
O O4 0.311647 0.997420 0.918126
O O5 0.500000 0.295605 0.500000
O O6 0.343748 0.343748 0.375000
O O7 0.363736 0.126919 0.438139
O O8 0.514549 0.210811 0.327679
O O9 0.216600 0.042791 0.080633
O O10 0.161230 0.848577 0.978820
O O11 0.616546 0.829512 0.674804
O O12 0.699697 0.000000 0.750000
O O13 0.000000 0.520366 0.500000
#
# Coordination Sequence:
#
# PCOD8304924 Si02
#       5
#     8   8   8   8   8
#     4  11  25  44  63  97 138 182 221 273 342 407
#     4  12  23  41  68  94 125 169 223 284 335 395
#     4  12  23  39  68  95 136 176 220 274 337 401
#     4  11  21  38  64 101 131 169 222 275 330 398
#     4  10  20  41  65  93 127 165 222 273 320 397
#
# _framework density 21.344567000000001
#
# number of rings (size 3 to 8) (size 9 to 14) (size 15 to 20)
#    0.000    0.800    6.000    4.200    0.000    2.400 
#    0.000    2.000    0.000    0.000    0.000    0.000 
#    0.000    0.000    0.000    0.000    0.000    0.000 
#
# Total GULP energy -495635.245760 kJ/mol
# GULP energy per Si atom -12390.881144 kJ/mol
# Density = 2.129599 g / cm^3
# Si number density = 21.344567 Si / 1000 Ang^3
#
#
#
# Elastic Constant Matrix: (Units=GPa)
#
#
# Indices 1 2 3 4 5 6 
#
# 1 80.3348 39.1830 55.8898 0.0000 0.0000 0.0000
# 2 39.1830 80.3348 55.8898 0.0000 0.0000 0.0000
# 3 55.8898 55.8898 155.1807 0.0000 0.0000 0.0000
# 4 0.0000 0.0000 0.0000 23.0592 0.0000 0.0000
# 5 0.0000 0.0000 0.0000 0.0000 23.0592 0.0000
# 6 0.0000 0.0000 0.0000 0.0000 0.0000 22.3521
#
#
#
# Elastic Compliance Matrix: (Units=1/GPa)
#
#
# Indices 1 2 3 4 5 6 
#
# 1 0.018459 -0.005842 -0.004544 0.000000 0.000000 0.000000
# 2 -0.005842 0.018459 -0.004544 0.000000 0.000000 0.000000
# 3 -0.004544 -0.004544 0.009717 0.000000 0.000000 0.000000
# 4 0.000000 0.000000 0.000000 0.043367 0.000000 0.000000
# 5 0.000000 0.000000 0.000000 0.000000 0.043367 0.000000
# 6 0.000000 0.000000 0.000000 0.000000 0.000000 0.044738
#
#
# Mechanical properties :
#
#
# Convention : Reuss Voigt Hill
#
# Bulk Modulus (GPa) = 59.61377 68.64172 64.12775
# Shear Modulus (GPa) = 23.41289 24.68660 24.04974
#
# Velocity S-wave (km/s) = 3.31554 3.40454 3.36033
# Velocity P-wave (km/s) = 6.53047 6.90530 6.72050
#
# Compressibility (1/GPa) = 0.01677465
#
# Stress axis : x y z
#
# Youngs Moduli (GPa) = 54.17544 54.17544 102.90949
#
# Poissons Ratio (x) = 0.31648 0.46763
# Poissons Ratio (y) = 0.31648 0.46763
# Poissons Ratio (z) = 0.24618 0.24618
#
# Static dielectric constant tensor:
#      x y z
#    x 3.939840 0.000000 0.000000 
#    y 0.000000 3.939840 0.000000 
#    z 0.000000 0.000000 4.381770 
# 
# 
# High freq. dielectric constant tensor:
#      x y z
#    x 1.820800 0.000000 0.000000 
#    y 0.000000 1.820800 0.000000 
#    z 0.000000 0.000000 1.851470 
# 
# From -- ./inp_files/4717.got.cif
#   From: 2010.03.12/outbox.cif.g09.slc.cpg/sg91_3_cif.got.tgz:4717.got - 2010.04.08 20:27:58.
