data_PCOD8304636
_publ_section_title
;
Structure prediction by ZEFSAII (Michael W. Deem and Ramdas Pophale) SiO2 
 PCOD8304636
Probable space group: P 4 21 2
;
_chemical_formula_sum "Si O2"
_cell_formula_units_Z 40
_cell_length_a 9.523268
_cell_length_b 9.523268
_cell_length_c 22.706785
_cell_angle_alpha 90.000000
_cell_angle_beta 90.000000
_cell_angle_gamma 90.000000
_cell_volume 2059.338128
_symmetry_space_group_name_H-M "P 4 21 2"
_symmetry_group_IT_number 90
_symmetry_cell_setting 'tetragonal'
loop_
_space_group_symop_operation_xyz
x,y,z
1/2-y,1/2+x,z
-x,-y,z
1/2+y,1/2-x,z
1/2+x,1/2-y,-z
1/2-x,1/2+y,-z
y,x,-z
-y,-x,-z
loop_
_atom_site_type_symbol
_atom_site_label
_atom_site_fract_x
_atom_site_fract_y
_atom_site_fract_z
Si Si1 0.622275 0.809116 0.039443
Si Si2 0.303626 0.871886 0.737117
Si Si3 0.667733 0.649278 0.386275
Si Si4 0.136647 0.136112 0.567098
Si Si5 0.310512 0.871441 0.176293
O O1 0.458263 0.809410 0.023884
O O2 0.647143 0.776647 0.107769
O O3 0.689139 0.689139 0.000000
O O4 0.459563 0.807504 0.739903
O O5 0.222692 0.819623 0.679001
O O6 0.212220 0.812100 0.790669
O O7 0.721633 0.496048 0.406234
O O8 0.500431 0.659313 0.392628
O O9 0.727966 0.766537 0.430174
O O10 0.098799 0.098799 0.500000
O O11 0.463237 0.807957 0.192580
#
# Coordination Sequence:
#
# PCOD8304636 Si02
#       5
#     8   8   8   8   8
#     4   9  19  37  59  88 125 162 201 249 300 352
#     4  11  24  41  59  85 118 158 199 241 298 358
#     4  11  23  40  60  88 118 153 194 240 296 353
#     4  11  23  41  63  88 119 153 193 241 298 358
#     4   9  21  40  63  88 120 160 203 251 300 350
#
# _framework density 19.423715000000001
#
# number of rings (size 3 to 8) (size 9 to 14) (size 15 to 20)
#    0.000    1.800    2.000    3.600    2.800    3.600 
#    0.000    8.000    0.000    0.000    0.000    0.000 
#    0.000    0.000    0.000    0.000    0.000    0.000 
#
# Total GULP energy -496017.119205 kJ/mol
# GULP energy per Si atom -12400.427980 kJ/mol
# Density = 1.937951 g / cm^3
# Si number density = 19.423715 Si / 1000 Ang^3
#
#
#
# Elastic Constant Matrix: (Units=GPa)
#
#
# Indices 1 2 3 4 5 6 
#
# 1 71.6427 71.1892 43.5636 0.0000 0.0000 0.0000
# 2 71.1892 71.6427 43.5636 0.0000 0.0000 0.0000
# 3 43.5636 43.5636 87.7128 0.0000 0.0000 0.0000
# 4 0.0000 0.0000 0.0000 36.3065 0.0000 0.0000
# 5 0.0000 0.0000 0.0000 0.0000 36.3065 0.0000
# 6 0.0000 0.0000 0.0000 0.0000 0.0000 43.2097
#
#
#
# Elastic Compliance Matrix: (Units=1/GPa)
#
#
# Indices 1 2 3 4 5 6 
#
# 1 1.107358 -1.097313 -0.004989 0.000000 0.000000 0.000000
# 2 -1.097313 1.107358 -0.004989 0.000000 0.000000 0.000000
# 3 -0.004989 -0.004989 0.016356 0.000000 0.000000 0.000000
# 4 0.000000 0.000000 0.000000 0.027543 0.000000 0.000000
# 5 0.000000 0.000000 0.000000 0.000000 0.027543 0.000000
# 6 0.000000 0.000000 0.000000 0.000000 0.000000 0.023143
#
#
# Mechanical properties :
#
#
# Convention : Reuss Voigt Hill
#
# Bulk Modulus (GPa) = 60.64183 60.84789 60.74486
# Shear Modulus (GPa) = 1.10390 28.00999 14.55695
#
# Velocity S-wave (km/s) = 0.75469 3.80155 2.74056
# Velocity P-wave (km/s) = 5.66107 7.11784 6.43084
#
# Compressibility (1/GPa) = 0.01649027
#
# Stress axis : x y z
#
# Youngs Moduli (GPa) = 0.90305 0.90305 61.13912
#
# Poissons Ratio (x) = 0.99093 0.30500
# Poissons Ratio (y) = 0.99093 0.30500
# Poissons Ratio (z) = 0.00450 0.00450
#
# Static dielectric constant tensor:
#      x y z
#    x 3.507170 0.000000 0.000000 
#    y 0.000000 3.507170 0.000000 
#    z 0.000000 0.000000 3.402120 
# 
# 
# High freq. dielectric constant tensor:
#      x y z
#    x 1.758460 0.000000 0.000000 
#    y 0.000000 1.758460 0.000000 
#    z 0.000000 0.000000 1.756300 
# 
# From -- ./inp_files/2887.got.cif
#   From: 2010.03.12/outbox.cif.g09.slc.cpg/sg90_2_cif.got.tgz:2887.got - 2010.04.08 20:26:03.
