data_PCOD8304136
_publ_section_title
;
Structure prediction by ZEFSAII (Michael W. Deem and Ramdas Pophale) SiO2 
 PCOD8304136
Probable space group: I 4/M
;
_chemical_formula_sum "Si O2"
_cell_formula_units_Z 76
_cell_length_a 11.768677
_cell_length_b 11.768677
_cell_length_c 33.306454
_cell_angle_alpha 90.000000
_cell_angle_beta 90.000000
_cell_angle_gamma 90.000000
_cell_volume 4613.002443
_symmetry_space_group_name_H-M "I 4/M"
_symmetry_group_IT_number 87
_symmetry_cell_setting 'tetragonal'
loop_
_space_group_symop_operation_xyz
x,y,z
-y,x,z
-x,-y,z
y,-x,z
-x,-y,-z
y,-x,-z
x,y,-z
-y,x,-z
1/2+x,1/2+y,1/2+z
1/2-y,1/2+x,1/2+z
1/2-x,1/2-y,1/2+z
1/2+y,1/2-x,1/2+z
1/2-x,1/2-y,1/2-z
1/2+y,1/2-x,1/2-z
1/2+x,1/2+y,1/2-z
1/2-y,1/2+x,1/2-z
loop_
_atom_site_type_symbol
_atom_site_label
_atom_site_fract_x
_atom_site_fract_y
_atom_site_fract_z
Si Si1 0.500000 0.000000 0.750000
Si Si2 0.093653 0.164521 0.913324
Si Si3 0.436882 0.776595 0.288317
Si Si4 0.407698 0.337590 0.500000
Si Si5 0.739698 0.169400 0.833178
Si Si6 0.428322 0.669782 0.796959
O O1 0.567673 0.089982 0.722714
O O2 0.142177 0.250905 0.880324
O O3 0.958409 0.151661 0.908252
O O4 0.125191 0.220268 0.957234
O O5 0.337848 0.756816 0.320354
O O6 0.556193 0.742697 0.307468
O O7 0.412100 0.699678 0.249634
O O8 0.541588 0.348904 0.500000
O O9 0.617435 0.226539 0.824449
O O10 0.352703 0.559266 0.806853
#
# Coordination Sequence:
#
# PCOD8304136 Si02
#       6
#     4  16  16   8  16  16
#     4  12  24  36  48  68  96 134 172 224 248 280
#     4   9  16  28  46  73 105 132 160 195 242 305
#     4  12  22  34  50  68  99 130 172 210 252 287
#     4   7  12  24  44  68 100 135 156 184 240 304
#     4  12  22  32  50  76  97 132 169 208 245 295
#     4  11  23  38  50  64  95 138 177 208 243 288
#
# _framework density 16.475171
#
# number of rings (size 3 to 8) (size 9 to 14) (size 15 to 20)
#    0.000    1.368    6.316    3.158    0.000    0.421 
#    0.000    0.000    0.000    0.000    0.000    1.474 
#    0.000    8.421    0.000    0.000    0.000    0.000 
#
# Total GULP energy -471030.503696 kJ/mol
# GULP energy per Si atom -12395.539571 kJ/mol
# Density = 1.643767 g / cm^3
# Si number density = 16.475171 Si / 1000 Ang^3
#
#
#
# Elastic Constant Matrix: (Units=GPa)
#
#
# Indices 1 2 3 4 5 6 
#
# 1 59.6995 17.2213 35.5146 0.0000 0.0000 -4.6068
# 2 17.2213 59.6995 35.5146 0.0000 0.0000 4.6068
# 3 35.5146 35.5146 143.9456 0.0000 0.0000 0.0000
# 4 0.0000 0.0000 0.0000 16.2565 0.0000 0.0000
# 5 0.0000 0.0000 0.0000 0.0000 16.2565 0.0000
# 6 -4.6068 4.6068 0.0000 0.0000 0.0000 25.5684
#
#
#
# Elastic Compliance Matrix: (Units=1/GPa)
#
#
# Indices 1 2 3 4 5 6 
#
# 1 0.020667 -0.003831 -0.004154 0.000000 0.000000 0.004414
# 2 -0.003831 0.020667 -0.004154 0.000000 0.000000 -0.004414
# 3 -0.004154 -0.004154 0.008997 0.000000 0.000000 0.000000
# 4 0.000000 0.000000 0.000000 0.061514 0.000000 0.000000
# 5 0.000000 0.000000 0.000000 0.000000 0.061514 0.000000
# 6 0.004414 -0.004414 0.000000 0.000000 0.000000 0.040701
#
#
# Mechanical properties :
#
#
# Convention : Reuss Voigt Hill
#
# Bulk Modulus (GPa) = 38.38246 48.87173 43.62710
# Shear Modulus (GPa) = 20.24096 23.28920 21.76508
#
# Velocity S-wave (km/s) = 3.50890 3.76386 3.63861
# Velocity P-wave (km/s) = 6.30589 6.97260 6.64761
#
# Compressibility (1/GPa) = 0.02605356
#
# Stress axis : x y z
#
# Youngs Moduli (GPa) = 48.38516 48.38515 111.15106
#
# Poissons Ratio (x) = 0.18538 0.46170
# Poissons Ratio (y) = 0.18538 0.46170
# Poissons Ratio (z) = 0.20098 0.20098
#
# Static dielectric constant tensor:
#      x y z
#    x 3.009420 0.000000 0.000000 
#    y 0.000000 3.009420 0.000000 
#    z 0.000000 0.000000 3.273790 
# 
# 
# High freq. dielectric constant tensor:
#      x y z
#    x 1.618860 0.000000 0.000000 
#    y 0.000000 1.618860 0.000000 
#    z 0.000000 0.000000 1.616820 
# 
# From -- ./inp_files/6505.got.cif
#   From: 2010.03.12/outbox.cif.g09.slc.cpg/sg87_4_cif.got.tgz:6505.got - 2010.04.08 20:16:13.
