data_PCOD8304049
_publ_section_title
;
Structure prediction by ZEFSAII (Michael W. Deem and Ramdas Pophale) SiO2 
 PCOD8304049
Probable space group: I 4/M
;
_chemical_formula_sum "Si O2"
_cell_formula_units_Z 96
_cell_length_a 25.201959
_cell_length_b 25.201959
_cell_length_c 7.718528
_cell_angle_alpha 90.000000
_cell_angle_beta 90.000000
_cell_angle_gamma 90.000000
_cell_volume 4902.336129
_symmetry_space_group_name_H-M "I 4/M"
_symmetry_group_IT_number 87
_symmetry_cell_setting 'tetragonal'
loop_
_space_group_symop_operation_xyz
x,y,z
-y,x,z
-x,-y,z
y,-x,z
-x,-y,-z
y,-x,-z
x,y,-z
-y,x,-z
1/2+x,1/2+y,1/2+z
1/2-y,1/2+x,1/2+z
1/2-x,1/2-y,1/2+z
1/2+y,1/2-x,1/2+z
1/2-x,1/2-y,1/2-z
1/2+y,1/2-x,1/2-z
1/2+x,1/2+y,1/2-z
1/2-y,1/2+x,1/2-z
loop_
_atom_site_type_symbol
_atom_site_label
_atom_site_fract_x
_atom_site_fract_y
_atom_site_fract_z
Si Si1 0.793126 0.793034 0.798680
Si Si2 0.799292 0.499776 0.205943
Si Si3 0.587632 0.720027 0.700005
Si Si4 0.644327 0.557267 0.000000
Si Si5 0.006601 0.581209 0.304732
Si Si6 0.144595 0.943051 0.500000
Si Si7 0.087677 0.779875 0.799285
O O1 0.750000 0.750000 0.750000
O O2 0.851363 0.774699 0.731291
O O3 0.774736 0.851249 0.731464
O O4 0.796952 0.796782 0.000000
O O5 0.774239 0.445868 0.284498
O O6 0.859906 0.499664 0.270272
O O7 0.774291 0.554362 0.279556
O O8 0.793222 0.498166 0.000000
O O9 0.586210 0.700513 0.500000
O O10 0.559493 0.678241 0.824220
O O11 0.677843 0.559897 0.176034
O O12 0.616328 0.500097 0.000000
O O13 0.601336 0.601628 0.000000
O O14 0.027561 0.584263 0.500000
O O15 0.950336 0.550653 0.304139
O O16 0.085723 0.798607 0.000000
#
# Coordination Sequence:
#
# PCOD8304049 Si02
#       7
#    16  16  16   8  16   8  16
#     4  10  24  38  58  90 124 165 207 251 317 373
#     4  11  22  38  63  93 120 159 214 264 317 375
#     4  11  22  39  62  91 122 167 210 250 312 379
#     4  12  24  41  68  94 126 166 206 258 312 372
#     4  10  22  39  60  84 121 165 212 265 328 380
#     4  12  24  41  68  94 126 166 206 258 312 372
#     4  11  22  39  62  91 122 167 210 250 312 379
#
# _framework density 19.582501000000001
#
# number of rings (size 3 to 8) (size 9 to 14) (size 15 to 20)
#    0.000    1.167    5.000    1.500    2.333    4.167 
#    0.000    6.667    0.000    0.000    0.000    2.333 
#    0.000    0.000    0.000    0.000    0.000    0.000 
#
# Total GULP energy -595013.480685 kJ/mol
# GULP energy per Si atom -12396.114181 kJ/mol
# Density = 1.953793 g / cm^3
# Si number density = 19.582501 Si / 1000 Ang^3
#
#
#
# Elastic Constant Matrix: (Units=GPa)
#
#
# Indices 1 2 3 4 5 6 
#
# 1 150.9991 66.5291 19.0174 0.0000 0.0000 1.0035
# 2 66.5291 150.9991 19.0174 0.0000 0.0000 -1.0035
# 3 19.0174 19.0174 90.8641 0.0000 0.0000 0.0000
# 4 0.0000 0.0000 0.0000 25.8023 0.0000 0.0000
# 5 0.0000 0.0000 0.0000 0.0000 25.8023 0.0000
# 6 1.0035 -1.0035 0.0000 0.0000 0.0000 22.4275
#
#
#
# Elastic Compliance Matrix: (Units=1/GPa)
#
#
# Indices 1 2 3 4 5 6 
#
# 1 0.008311 -0.003540 -0.000999 0.000000 0.000000 -0.000530
# 2 -0.003540 0.008311 -0.000999 0.000000 0.000000 0.000530
# 3 -0.000999 -0.000999 0.011423 0.000000 0.000000 0.000000
# 4 0.000000 0.000000 0.000000 0.038756 0.000000 0.000000
# 5 0.000000 0.000000 0.000000 0.000000 0.038756 0.000000
# 6 -0.000530 0.000530 0.000000 0.000000 0.000000 0.044635
#
#
# Mechanical properties :
#
#
# Convention : Reuss Voigt Hill
#
# Bulk Modulus (GPa) = 58.92007 66.88783 62.90395
# Shear Modulus (GPa) = 29.95342 34.02632 31.98987
#
# Velocity S-wave (km/s) = 3.91525 4.17296 4.04616
# Velocity P-wave (km/s) = 7.11283 7.57953 7.34989
#
# Compressibility (1/GPa) = 0.01697215
#
# Stress axis : x y z
#
# Youngs Moduli (GPa) = 120.31633 120.31633 87.53886
#
# Poissons Ratio (x) = 0.42588 0.08743
# Poissons Ratio (y) = 0.42588 0.08743
# Poissons Ratio (z) = 0.12016 0.12016
#
# Static dielectric constant tensor:
#      x y z
#    x 3.805720 0.000000 0.000000 
#    y 0.000000 3.805720 0.000000 
#    z 0.000000 0.000000 3.723680 
# 
# 
# High freq. dielectric constant tensor:
#      x y z
#    x 1.760300 0.000000 0.000000 
#    y 0.000000 1.760300 0.000000 
#    z 0.000000 0.000000 1.775700 
# 
# From -- ./inp_files/1456.got.cif
#   From: 2010.03.12/outbox.cif.g09.slc.cpg/sg87_1_cif.got.tgz:1456.got - 2010.04.08 20:16:13.
