data_PCOD8304923
_publ_section_title
;
Structure prediction by ZEFSAII (Michael W. Deem and Ramdas Pophale) SiO2 
 PCOD8304923
Probable space group: P 41 2 2
;
_chemical_formula_sum "Si O2"
_cell_formula_units_Z 60
_cell_length_a 12.127552
_cell_length_b 12.127552
_cell_length_c 18.618301
_cell_angle_alpha 90.000000
_cell_angle_beta 90.000000
_cell_angle_gamma 90.000000
_cell_volume 2738.333491
_symmetry_space_group_name_H-M "P 41 2 2"
_symmetry_group_IT_number 91
_symmetry_cell_setting 'tetragonal'
loop_
_space_group_symop_operation_xyz
x,y,z
-y,x,1/4+z
-x,-y,1/2+z
y,-x,3/4+z
x,-y,1/2-z
-x,y,-z
y,x,3/4-z
-y,-x,1/4-z
loop_
_atom_site_type_symbol
_atom_site_label
_atom_site_fract_x
_atom_site_fract_y
_atom_site_fract_z
Si Si1 0.896833 0.728681 0.958214
Si Si2 0.819393 0.493514 0.999589
Si Si3 0.889224 0.701324 0.793821
Si Si4 0.720454 0.455790 0.147684
Si Si5 0.631107 0.544967 0.612626
Si Si6 0.895001 0.262061 0.034807
Si Si7 0.500000 0.752685 0.000000
Si Si8 0.888212 0.696787 0.298052
O O1 0.923190 0.734826 0.873859
O O2 0.792569 0.801756 0.983418
O O3 0.888376 0.600402 0.978994
O O4 0.000000 0.780534 0.000000
O O5 0.778047 0.510821 0.079920
O O6 0.888406 0.380710 0.995287
O O7 0.718641 0.481479 0.946550
O O8 0.828061 0.584070 0.794848
O O9 0.997489 0.688973 0.744503
O O10 0.655555 0.344446 0.125000
O O11 0.637554 0.551409 0.173698
O O12 0.814598 0.416928 0.204872
O O13 0.567052 0.432949 0.625000
O O14 0.682518 0.571291 0.691500
O O15 0.791728 0.186663 0.013408
O O16 0.912845 0.275410 0.119456
O O17 0.000000 0.201322 0.000000
#
# Coordination Sequence:
#
# PCOD8304923 Si02
#       8
#     8   8   8   8   8   8   4   8
#     4  11  25  48  69  97 137 182 229 282 343 417
#     4  11  21  41  66  95 131 181 218 268 342 412
#     4  11  26  45  70  98 139 176 231 290 339 407
#     4  10  20  41  63  98 138 172 222 280 340 413
#     4  11  22  36  66  96 134 182 219 271 337 410
#     4  10  22  41  71  93 133 178 227 279 352 420
#     4  12  24  44  64 104 134 180 230 276 336 412
#     4  10  22  46  65  99 135 172 225 294 340 398
#
# _framework density 21.911138000000001
#
# number of rings (size 3 to 8) (size 9 to 14) (size 15 to 20)
#    0.000    1.333    4.000    2.800    1.867    5.333 
#    4.800    2.667    0.000    0.000    0.000    0.000 
#    0.000    0.000    0.000    0.000    0.000    0.000 
#
# Total GULP energy -743780.083671 kJ/mol
# GULP energy per Si atom -12396.334728 kJ/mol
# Density = 2.186127 g / cm^3
# Si number density = 21.911138 Si / 1000 Ang^3
#
#
#
# Elastic Constant Matrix: (Units=GPa)
#
#
# Indices 1 2 3 4 5 6 
#
# 1 122.9730 44.8321 51.2319 0.0000 0.0000 0.0000
# 2 44.8321 122.9748 51.2304 0.0000 0.0000 0.0000
# 3 51.2319 51.2304 53.5585 0.0000 0.0000 0.0000
# 4 0.0000 0.0000 0.0000 26.1347 0.0000 0.0000
# 5 0.0000 0.0000 0.0000 0.0000 26.2045 0.0000
# 6 0.0000 0.0000 0.0000 0.0000 0.0000 31.9717
#
#
#
# Elastic Compliance Matrix: (Units=1/GPa)
#
#
# Indices 1 2 3 4 5 6 
#
# 1 0.013563 0.000765 -0.013705 0.000000 0.000000 0.000000
# 2 0.000765 0.013562 -0.013704 0.000000 0.000000 0.000000
# 3 -0.013705 -0.013704 0.044890 0.000000 0.000000 0.000000
# 4 0.000000 0.000000 0.000000 0.038263 0.000000 0.000000
# 5 0.000000 0.000000 0.000000 0.000000 0.038161 0.000000
# 6 0.000000 0.000000 0.000000 0.000000 0.000000 0.031278
#
#
# Mechanical properties :
#
#
# Convention : Reuss Voigt Hill
#
# Bulk Modulus (GPa) = 53.40372 66.01057 59.70715
# Shear Modulus (GPa) = 20.89883 27.00965 23.95424
#
# Velocity S-wave (km/s) = 3.09171 3.51478 3.31001
# Velocity P-wave (km/s) = 6.09678 6.83106 6.47434
#
# Compressibility (1/GPa) = 0.01872529
#
# Stress axis : x y z
#
# Youngs Moduli (GPa) = 73.73123 73.73580 22.27675
#
# Poissons Ratio (x) = -0.05642 0.30531
# Poissons Ratio (y) = -0.05641 0.30529
# Poissons Ratio (z) = 1.01052 1.01050
#
# Static dielectric constant tensor:
#      x y z
#    x 4.953530 0.000000 0.000000 
#    y 0.000000 4.948830 0.000000 
#    z 0.000000 0.000000 4.504730 
# 
# 
# High freq. dielectric constant tensor:
#      x y z
#    x 1.863100 0.000000 0.000000 
#    y 0.000000 1.863100 0.000000 
#    z 0.000000 0.000000 1.859960 
# 
# From -- ./inp_files/17361.got.cif
#   From: 2010.03.12/outbox.cif.g09.slc.cpg/sg91_9_cif.got.tgz:17361.got - 2010.04.08 20:27:58.
