data_PCOD8304137
_publ_section_title
;
Structure prediction by ZEFSAII (Michael W. Deem and Ramdas Pophale) SiO2 
 PCOD8304137
Probable space group: I 4/M
;
_chemical_formula_sum "Si O2"
_cell_formula_units_Z 56
_cell_length_a 10.266790
_cell_length_b 10.266790
_cell_length_c 29.459673
_cell_angle_alpha 90.000000
_cell_angle_beta 90.000000
_cell_angle_gamma 90.000000
_cell_volume 3105.255072
_symmetry_space_group_name_H-M "I 4/M"
_symmetry_group_IT_number 87
_symmetry_cell_setting 'tetragonal'
loop_
_space_group_symop_operation_xyz
x,y,z
-y,x,z
-x,-y,z
y,-x,z
-x,-y,-z
y,-x,-z
x,y,-z
-y,x,-z
1/2+x,1/2+y,1/2+z
1/2-y,1/2+x,1/2+z
1/2-x,1/2-y,1/2+z
1/2+y,1/2-x,1/2+z
1/2-x,1/2-y,1/2-z
1/2+y,1/2-x,1/2-z
1/2+x,1/2+y,1/2-z
1/2-y,1/2+x,1/2-z
loop_
_atom_site_type_symbol
_atom_site_label
_atom_site_fract_x
_atom_site_fract_y
_atom_site_fract_z
Si Si1 0.615428 0.082593 0.323714
Si Si2 0.214541 0.023916 0.752831
Si Si3 0.193354 0.907669 0.500000
Si Si4 0.092988 0.195481 0.597919
O O1 0.549096 0.202722 0.297784
O O2 0.707424 0.140121 0.362951
O O3 0.500000 0.000000 0.346917
O O4 0.690739 0.981438 0.290530
O O5 0.114453 0.142721 0.751115
O O6 0.262313 0.874922 0.548357
O O7 0.059839 0.830811 0.500000
O O8 0.939061 0.170372 0.603344
#
# Coordination Sequence:
#
# PCOD8304137 Si02
#       4
#    16  16   8  16
#     4  12  22  34  51  78 105 138 174 212 259 309
#     4  11  23  38  54  71 101 141 178 218 258 301
#     4   7  12  28  51  78 104 129 166 210 262 311
#     4   9  18  32  55  80 105 136 169 213 264 311
#
# _framework density 18.033944999999999
#
# number of rings (size 3 to 8) (size 9 to 14) (size 15 to 20)
#    0.000    1.857    2.857    4.286    4.000    2.286 
#    0.000    0.714    0.000    0.000    0.000    0.000 
#    0.000    2.286    0.000    0.000    0.000    0.000 
#
# Total GULP energy -346894.054174 kJ/mol
# GULP energy per Si atom -12389.073363 kJ/mol
# Density = 1.799290 g / cm^3
# Si number density = 18.033945 Si / 1000 Ang^3
#
#
#
# Elastic Constant Matrix: (Units=GPa)
#
#
# Indices 1 2 3 4 5 6 
#
# 1 56.3666 18.9705 17.7974 0.0000 0.0000 7.8373
# 2 18.9705 56.3666 17.7974 0.0000 0.0000 -7.8373
# 3 17.7974 17.7974 88.6628 0.0000 0.0000 0.0000
# 4 0.0000 0.0000 0.0000 14.7593 0.0000 0.0000
# 5 0.0000 0.0000 0.0000 0.0000 14.7593 0.0000
# 6 7.8373 -7.8373 0.0000 0.0000 0.0000 13.4908
#
#
#
# Elastic Compliance Matrix: (Units=1/GPa)
#
#
# Indices 1 2 3 4 5 6 
#
# 1 0.025006 -0.010342 -0.002944 0.000000 0.000000 -0.020535
# 2 -0.010342 0.025006 -0.002944 0.000000 0.000000 0.020535
# 3 -0.002944 -0.002944 0.012460 0.000000 0.000000 0.000000
# 4 0.000000 0.000000 0.000000 0.067754 0.000000 0.000000
# 5 0.000000 0.000000 0.000000 0.000000 0.067754 0.000000
# 6 -0.020535 0.020535 0.000000 0.000000 0.000000 0.097984
#
#
# Mechanical properties :
#
#
# Convention : Reuss Voigt Hill
#
# Bulk Modulus (GPa) = 33.31680 34.50296 33.90988
# Shear Modulus (GPa) = 14.77420 18.39060 16.58240
#
# Velocity S-wave (km/s) = 2.86535 3.19686 3.03563
# Velocity P-wave (km/s) = 5.42785 5.72716 5.57951
#
# Compressibility (1/GPa) = 0.03001489
#
# Stress axis : x y z
#
# Youngs Moduli (GPa) = 39.98988 39.98988 80.25396
#
# Poissons Ratio (x) = 0.41357 0.23624
# Poissons Ratio (y) = 0.41357 0.23624
# Poissons Ratio (z) = 0.11772 0.11772
#
# Static dielectric constant tensor:
#      x y z
#    x 3.270590 0.000000 0.000000 
#    y 0.000000 3.270590 0.000000 
#    z 0.000000 0.000000 3.689180 
# 
# 
# High freq. dielectric constant tensor:
#      x y z
#    x 1.677850 0.000000 0.000000 
#    y 0.000000 1.677850 0.000000 
#    z 0.000000 0.000000 1.700530 
# 
# From -- ./inp_files/6104.got.cif
#   From: 2010.03.12/outbox.cif.g09.slc.cpg/sg87_4_cif.got.tgz:6104.got - 2010.04.08 20:16:13.
