data_PCOD8304009
_publ_section_title
;
Structure prediction by ZEFSAII (Michael W. Deem and Ramdas Pophale) SiO2 
 PCOD8304009
Probable space group: I 4/M
;
_chemical_formula_sum "Si O2"
_cell_formula_units_Z 96
_cell_length_a 23.598778
_cell_length_b 23.598778
_cell_length_c 8.833198
_cell_angle_alpha 90.000000
_cell_angle_beta 90.000000
_cell_angle_gamma 90.000000
_cell_volume 4919.228487
_symmetry_space_group_name_H-M "I 4/M"
_symmetry_group_IT_number 87
_symmetry_cell_setting 'tetragonal'
loop_
_space_group_symop_operation_xyz
x,y,z
-y,x,z
-x,-y,z
y,-x,z
-x,-y,-z
y,-x,-z
x,y,-z
-y,x,-z
1/2+x,1/2+y,1/2+z
1/2-y,1/2+x,1/2+z
1/2-x,1/2-y,1/2+z
1/2+y,1/2-x,1/2+z
1/2-x,1/2-y,1/2-z
1/2+y,1/2-x,1/2-z
1/2+x,1/2+y,1/2-z
1/2-y,1/2+x,1/2-z
loop_
_atom_site_type_symbol
_atom_site_label
_atom_site_fract_x
_atom_site_fract_y
_atom_site_fract_z
Si Si1 0.959009 0.300550 0.675996
Si Si2 0.049433 0.204932 0.326220
Si Si3 0.090374 0.980419 0.826569
Si Si4 0.728145 0.333715 0.322362
Si Si5 0.237135 0.335743 0.178069
Si Si6 0.010849 0.583852 0.820245
O O1 0.959287 0.318716 0.500000
O O2 0.896008 0.286103 0.733684
O O3 0.983250 0.350769 0.778056
O O4 0.996812 0.245686 0.705701
O O5 0.068086 0.206306 0.500000
O O6 0.030699 0.141968 0.284560
O O7 0.101692 0.226150 0.227535
O O8 0.042619 0.933735 0.793188
O O9 0.110735 0.975703 0.000000
O O10 0.721420 0.330315 0.500000
O O11 0.676357 0.298293 0.251269
O O12 0.788125 0.307644 0.268775
O O13 0.246133 0.335803 0.000000
O O14 0.061971 0.548962 0.744300
O O15 0.012143 0.575622 0.000000
#
# Coordination Sequence:
#
# PCOD8304009 Si02
#       6
#    16  16  16  16  16  16
#     4  10  23  41  60  89 123 157 199 248 298 353
#     4  11  24  38  58  88 124 158 196 245 295 352
#     4   9  20  40  63  87 118 155 196 246 299 352
#     4  10  21  38  61  88 117 156 200 243 297 354
#     4   9  20  40  63  86 118 156 196 245 298 352
#     4  11  23  41  65  91 121 159 201 246 299 356
#
# _framework density 19.515256999999998
#
# number of rings (size 3 to 8) (size 9 to 14) (size 15 to 20)
#    0.000    2.000    0.000    3.500    4.667    3.333 
#    0.000    0.833    0.000    0.000    0.000    0.000 
#    0.000    0.000    0.000    0.000    0.000    0.000 
#
# Total GULP energy -595438.071407 kJ/mol
# GULP energy per Si atom -12404.959821 kJ/mol
# Density = 1.947084 g / cm^3
# Si number density = 19.515257 Si / 1000 Ang^3
#
#
#
# Elastic Constant Matrix: (Units=GPa)
#
#
# Indices 1 2 3 4 5 6 
#
# 1 103.8688 31.7419 26.7016 0.0000 0.0000 -2.4502
# 2 31.7419 103.8688 26.7016 0.0000 0.0000 2.4502
# 3 26.7016 26.7016 55.6848 0.0000 0.0000 0.0000
# 4 0.0000 0.0000 0.0000 31.9232 0.0000 0.0000
# 5 0.0000 0.0000 0.0000 0.0000 31.9232 0.0000
# 6 -2.4502 2.4502 0.0000 0.0000 0.0000 22.5194
#
#
#
# Elastic Compliance Matrix: (Units=1/GPa)
#
#
# Indices 1 2 3 4 5 6 
#
# 1 0.011529 -0.002439 -0.004359 0.000000 0.000000 0.001520
# 2 -0.002439 0.011529 -0.004359 0.000000 0.000000 -0.001520
# 3 -0.004359 -0.004359 0.022139 0.000000 0.000000 0.000000
# 4 0.000000 0.000000 0.000000 0.031325 0.000000 0.000000
# 5 0.000000 0.000000 0.000000 0.000000 0.031325 0.000000
# 6 0.001520 -0.001520 0.000000 0.000000 0.000000 0.044737
#
#
# Mechanical properties :
#
#
# Convention : Reuss Voigt Hill
#
# Bulk Modulus (GPa) = 43.69931 48.19029 45.94480
# Shear Modulus (GPa) = 27.39344 29.15833 28.27589
#
# Velocity S-wave (km/s) = 3.75065 3.86959 3.81059
# Velocity P-wave (km/s) = 6.41853 6.68672 6.55400
#
# Compressibility (1/GPa) = 0.02288366
#
# Stress axis : x y z
#
# Youngs Moduli (GPa) = 86.73651 86.73651 45.16977
#
# Poissons Ratio (x) = 0.21151 0.19690
# Poissons Ratio (y) = 0.21151 0.19690
# Poissons Ratio (z) = 0.37809 0.37809
#
# Static dielectric constant tensor:
#      x y z
#    x 3.599410 0.000000 0.000000 
#    y 0.000000 3.599410 0.000000 
#    z 0.000000 0.000000 3.521300 
# 
# 
# High freq. dielectric constant tensor:
#      x y z
#    x 1.766070 0.000000 0.000000 
#    y 0.000000 1.766070 0.000000 
#    z 0.000000 0.000000 1.760860 
# 
# From -- ./inp_files/1385.got.cif
#   From: 2010.03.12/outbox.cif.g09.slc.cpg/sg87_1_cif.got.tgz:1385.got - 2010.04.08 20:16:13.
