data_PCOD8304769
_publ_section_title
;
Structure prediction by ZEFSAII (Michael W. Deem and Ramdas Pophale) SiO2 
 PCOD8304769
Probable space group: P 41 2 2
;
_chemical_formula_sum "Si O2"
_cell_formula_units_Z 56
_cell_length_a 11.419615
_cell_length_b 11.419615
_cell_length_c 19.920455
_cell_angle_alpha 90.000000
_cell_angle_beta 90.000000
_cell_angle_gamma 90.000000
_cell_volume 2597.778862
_symmetry_space_group_name_H-M "P 41 2 2"
_symmetry_group_IT_number 91
_symmetry_cell_setting 'tetragonal'
loop_
_space_group_symop_operation_xyz
x,y,z
-y,x,1/4+z
-x,-y,1/2+z
y,-x,3/4+z
x,-y,1/2-z
-x,y,-z
y,x,3/4-z
-y,-x,1/4-z
loop_
_atom_site_type_symbol
_atom_site_label
_atom_site_fract_x
_atom_site_fract_y
_atom_site_fract_z
Si Si1 0.393689 0.127287 0.278607
Si Si2 0.883777 0.609433 0.620291
Si Si3 0.722952 0.877233 0.418609
Si Si4 0.318742 0.785531 0.358353
Si Si5 0.265135 0.983716 0.450005
Si Si6 0.911486 0.500000 0.750000
Si Si7 0.535878 0.325473 0.072150
Si Si8 0.807953 0.807953 0.875000
O O1 0.530051 0.128254 0.302777
O O2 0.363537 0.218179 0.218667
O O3 0.318550 0.170670 0.342171
O O4 0.360794 0.000000 0.250000
O O5 0.799513 0.719401 0.621800
O O6 0.837653 0.532119 0.683799
O O7 0.017915 0.653626 0.629741
O O8 0.830457 0.830457 0.375000
O O9 0.635306 0.771873 0.435748
O O10 0.790523 0.913157 0.487742
O O11 0.420093 0.735811 0.403105
O O12 0.287581 0.917636 0.380060
O O13 0.391396 0.008287 0.481533
O O14 0.182421 0.095183 0.433986
O O15 0.574331 0.425670 0.125000
O O16 0.500000 0.381684 0.000000
#
# Coordination Sequence:
#
# PCOD8304769 Si02
#       8
#     8   8   8   8   8   4   8   4
#     4  12  24  44  70 101 137 186 239 291 350 439
#     4  11  25  41  71  99 137 184 232 283 362 430
#     4  10  22  44  75 105 131 180 244 300 350 422
#     4  12  25  43  65 105 143 179 231 288 358 427
#     4  11  21  41  71  96 138 182 227 286 353 422
#     4  10  18  44  66  94 118 184 232 262 326 416
#     4  11  24  45  75 102 138 185 241 295 355 421
#     4  12  24  44  68 100 134 182 240 282 352 426
#
# _framework density 21.556878999999999
#
# number of rings (size 3 to 8) (size 9 to 14) (size 15 to 20)
#    0.000    0.857    4.286    4.286    3.000    1.143 
#    3.857    0.000    0.000    0.000    0.000    0.000 
#    0.000    0.000    0.000    0.000    0.000    0.000 
#
# Total GULP energy -693934.985630 kJ/mol
# GULP energy per Si atom -12391.696172 kJ/mol
# Density = 2.150781 g / cm^3
# Si number density = 21.556879 Si / 1000 Ang^3
#
#
#
# Elastic Constant Matrix: (Units=GPa)
#
#
# Indices 1 2 3 4 5 6 
#
# 1 113.1539 -2.5913 47.7803 0.0000 0.0000 0.0000
# 2 -2.5913 113.1600 47.7798 0.0000 0.0000 0.0000
# 3 47.7803 47.7798 141.2633 0.0000 0.0000 0.0000
# 4 0.0000 0.0000 0.0000 56.8343 0.0000 0.0000
# 5 0.0000 0.0000 0.0000 0.0000 56.8372 0.0000
# 6 0.0000 0.0000 0.0000 0.0000 0.0000 17.9886
#
#
#
# Elastic Compliance Matrix: (Units=1/GPa)
#
#
# Indices 1 2 3 4 5 6 
#
# 1 0.010710 0.002071 -0.004323 0.000000 0.000000 0.000000
# 2 0.002071 0.010710 -0.004323 0.000000 0.000000 0.000000
# 3 -0.004323 -0.004323 0.010003 0.000000 0.000000 0.000000
# 4 0.000000 0.000000 0.000000 0.017595 0.000000 0.000000
# 5 0.000000 0.000000 0.000000 0.000000 0.017594 0.000000
# 6 0.000000 0.000000 0.000000 0.000000 0.000000 0.055591
#
#
# Mechanical properties :
#
#
# Convention : Reuss Voigt Hill
#
# Bulk Modulus (GPa) = 54.72538 61.50163 58.11351
# Shear Modulus (GPa) = 35.34958 44.63922 39.99440
#
# Velocity S-wave (km/s) = 4.05387 4.55550 4.31199
# Velocity P-wave (km/s) = 6.88138 7.50080 7.19776
#
# Compressibility (1/GPa) = 0.01827306
#
# Stress axis : x y z
#
# Youngs Moduli (GPa) = 93.36766 93.37381 99.96775
#
# Poissons Ratio (x) = -0.19334 0.43216
# Poissons Ratio (y) = -0.19332 0.43213
# Poissons Ratio (z) = 0.40362 0.40363
#
# Static dielectric constant tensor:
#      x y z
#    x 4.069370 0.000000 0.000000 
#    y 0.000000 4.069430 0.000000 
#    z 0.000000 0.000000 4.174100 
# 
# 
# High freq. dielectric constant tensor:
#      x y z
#    x 1.830600 0.000000 0.000000 
#    y 0.000000 1.830600 0.000000 
#    z 0.000000 0.000000 1.871290 
# 
# From -- ./inp_files/21545.got.cif
#   From: 2010.03.12/outbox.cif.g09.slc.cpg/sg91_11_cif.got.tgz:21545.got - 2010.04.08 20:27:58.
