data_PCOD8304743
_publ_section_title
;
Structure prediction by ZEFSAII (Michael W. Deem and Ramdas Pophale) SiO2 
 PCOD8304743
Probable space group: P 41 2 2
;
_chemical_formula_sum "Si O2"
_cell_formula_units_Z 28
_cell_length_a 14.484898
_cell_length_b 14.484898
_cell_length_c 7.539144
_cell_angle_alpha 90.000000
_cell_angle_beta 90.000000
_cell_angle_gamma 90.000000
_cell_volume 1581.804917
_symmetry_space_group_name_H-M "P 41 2 2"
_symmetry_group_IT_number 91
_symmetry_cell_setting 'tetragonal'
loop_
_space_group_symop_operation_xyz
x,y,z
-y,x,1/4+z
-x,-y,1/2+z
y,-x,3/4+z
x,-y,1/2-z
-x,y,-z
y,x,3/4-z
-y,-x,1/4-z
loop_
_atom_site_type_symbol
_atom_site_label
_atom_site_fract_x
_atom_site_fract_y
_atom_site_fract_z
Si Si1 0.000000 0.645506 0.000000
Si Si2 0.071101 0.500000 0.250000
Si Si3 0.306194 0.796717 0.276019
Si Si4 0.512825 0.206649 0.196805
Si Si5 0.693007 0.693007 0.375000
O O1 0.991476 0.581759 0.825590
O O2 0.092212 0.705304 0.974332
O O3 0.131453 0.546051 0.409729
O O4 0.411126 0.761745 0.236478
O O5 0.275478 0.759120 0.466202
O O6 0.240241 0.759760 0.125000
O O7 0.585744 0.291360 0.182192
O O8 0.500000 0.162363 0.000000
#
# Coordination Sequence:
#
# PCOD8304743 Si02
#       5
#     4   4   8   8   4
#     4  10  22  34  56  84 112 140 184 236 286 328
#     4  10  20  32  50  80 112 142 178 232 278 324
#     4  10  21  37  53  81 113 146 183 233 275 324
#     4   9  19  34  53  78 111 149 181 219 271 318
#     4  10  18  32  58  76 114 148 182 218 264 334
#
# _framework density 17.701297
#
# number of rings (size 3 to 8) (size 9 to 14) (size 15 to 20)
#    0.000    2.286    0.000    3.429   16.000    0.000 
#    0.000    0.000   28.286    0.000    3.714    0.000 
#    0.000    0.000    0.000    0.000    0.000    0.000 
#
# Total GULP energy -346943.407206 kJ/mol
# GULP energy per Si atom -12390.835972 kJ/mol
# Density = 1.766101 g / cm^3
# Si number density = 17.701297 Si / 1000 Ang^3
#
#
#
# Elastic Constant Matrix: (Units=GPa)
#
#
# Indices 1 2 3 4 5 6 
#
# 1 108.3271 56.4348 54.3218 0.0000 0.0000 0.0000
# 2 56.4348 108.3284 54.3202 0.0000 0.0000 0.0000
# 3 54.3218 54.3202 127.3043 0.0000 0.0000 0.0000
# 4 0.0000 0.0000 0.0000 33.1526 0.0000 0.0000
# 5 0.0000 0.0000 0.0000 0.0000 33.1527 0.0000
# 6 0.0000 0.0000 0.0000 0.0000 0.0000 17.7529
#
#
#
# Elastic Compliance Matrix: (Units=1/GPa)
#
#
# Indices 1 2 3 4 5 6 
#
# 1 0.013858 -0.005412 -0.003604 0.000000 0.000000 0.000000
# 2 -0.005412 0.013858 -0.003604 0.000000 0.000000 0.000000
# 3 -0.003604 -0.003604 0.010931 0.000000 0.000000 0.000000
# 4 0.000000 0.000000 0.000000 0.030164 0.000000 0.000000
# 5 0.000000 0.000000 0.000000 0.000000 0.030163 0.000000
# 6 0.000000 0.000000 0.000000 0.000000 0.000000 0.056329
#
#
# Mechanical properties :
#
#
# Convention : Reuss Voigt Hill
#
# Bulk Modulus (GPa) = 74.58881 74.90150 74.74515
# Shear Modulus (GPa) = 27.02536 28.73717 27.88126
#
# Velocity S-wave (km/s) = 3.91160 4.03358 3.97305
# Velocity P-wave (km/s) = 7.91390 8.00618 7.96017
#
# Compressibility (1/GPa) = 0.01340684
#
# Stress axis : x y z
#
# Youngs Moduli (GPa) = 72.15923 72.16149 91.48584
#
# Poissons Ratio (x) = 0.39057 0.32971
# Poissons Ratio (y) = 0.39056 0.32967
# Poissons Ratio (z) = 0.26006 0.26004
#
# Static dielectric constant tensor:
#      x y z
#    x 3.176360 0.000000 0.000000 
#    y 0.000000 3.176360 0.000000 
#    z 0.000000 0.000000 3.639140 
# 
# 
# High freq. dielectric constant tensor:
#      x y z
#    x 1.657690 0.000000 0.000000 
#    y 0.000000 1.657690 0.000000 
#    z 0.000000 0.000000 1.711640 
# 
# From -- ./inp_files/19216.got.cif
#   From: 2010.03.12/outbox.cif.g09.slc.cpg/sg91_10_cif.got.tgz:19216.got - 2010.04.08 20:27:58.
