data_PCOD8304759
_publ_section_title
;
Structure prediction by ZEFSAII (Michael W. Deem and Ramdas Pophale) SiO2 
 PCOD8304759
Probable space group: P 41 2 2
;
_chemical_formula_sum "Si O2"
_cell_formula_units_Z 48
_cell_length_a 11.681496
_cell_length_b 11.681496
_cell_length_c 17.587066
_cell_angle_alpha 90.000000
_cell_angle_beta 90.000000
_cell_angle_gamma 90.000000
_cell_volume 2399.884399
_symmetry_space_group_name_H-M "P 41 2 2"
_symmetry_group_IT_number 91
_symmetry_cell_setting 'tetragonal'
loop_
_space_group_symop_operation_xyz
x,y,z
-y,x,1/4+z
-x,-y,1/2+z
y,-x,3/4+z
x,-y,1/2-z
-x,y,-z
y,x,3/4-z
-y,-x,1/4-z
loop_
_atom_site_type_symbol
_atom_site_label
_atom_site_fract_x
_atom_site_fract_y
_atom_site_fract_z
Si Si1 0.515325 0.000000 0.750000
Si Si2 0.171654 0.346754 0.938700
Si Si3 0.097016 0.734286 0.713793
Si Si4 0.500000 0.530581 0.500000
Si Si5 0.077388 0.926238 0.320349
Si Si6 0.459510 0.676206 0.356370
Si Si7 0.329410 0.098385 0.126378
O O1 0.428932 0.109356 0.749300
O O2 0.599241 0.004458 0.824317
O O3 0.199789 0.220338 0.970776
O O4 0.089570 0.336417 0.864522
O O5 0.284027 0.408980 0.906491
O O6 0.081125 0.649426 0.786037
O O7 0.989136 0.818284 0.713393
O O8 0.443230 0.613599 0.436959
O O9 0.411718 0.441335 0.537360
O O10 0.192996 0.898391 0.364868
O O11 0.119088 0.000000 0.250000
O O12 0.991188 0.991188 0.375000
O O13 0.370321 0.777438 0.347135
#
# Coordination Sequence:
#
# PCOD8304759 Si02
#       7
#     4   8   8   4   8   8   8
#     4  10  24  38  56  84 136 170 202 248 320 394
#     4  10  21  37  60  99 128 153 209 272 334 370
#     4  11  22  36  68  98 122 158 211 279 328 374
#     4  10  18  36  64  92 112 154 210 258 316 362
#     4  12  23  39  64  94 126 168 212 257 315 395
#     4  10  20  36  63  88 123 160 200 264 312 380
#     4  11  23  40  60  88 129 173 205 250 324 390
#
# _framework density 20.000964
#
# number of rings (size 3 to 8) (size 9 to 14) (size 15 to 20)
#    0.000    1.333    4.167    4.000    3.500    2.000 
#    0.000    0.000   22.000    0.000    0.000    0.000 
#    0.000    0.000    0.000    0.000    0.000    0.000 
#
# Total GULP energy -594805.972742 kJ/mol
# GULP energy per Si atom -12391.791099 kJ/mol
# Density = 1.995544 g / cm^3
# Si number density = 20.000964 Si / 1000 Ang^3
#
#
#
# Elastic Constant Matrix: (Units=GPa)
#
#
# Indices 1 2 3 4 5 6 
#
# 1 65.6530 32.9964 33.3872 0.0000 0.0000 0.0000
# 2 32.9964 65.6530 33.3872 0.0000 0.0000 0.0000
# 3 33.3872 33.3872 126.8830 0.0000 0.0000 0.0000
# 4 0.0000 0.0000 0.0000 28.1948 0.0000 0.0000
# 5 0.0000 0.0000 0.0000 0.0000 28.1948 0.0000
# 6 0.0000 0.0000 0.0000 0.0000 0.0000 18.0349
#
#
#
# Elastic Compliance Matrix: (Units=1/GPa)
#
#
# Indices 1 2 3 4 5 6 
#
# 1 0.021478 -0.009144 -0.003245 0.000000 0.000000 0.000000
# 2 -0.009144 0.021478 -0.003245 0.000000 0.000000 0.000000
# 3 -0.003245 -0.003245 0.009589 0.000000 0.000000 0.000000
# 4 0.000000 0.000000 0.000000 0.035468 0.000000 0.000000
# 5 0.000000 0.000000 0.000000 0.000000 0.035468 0.000000
# 6 0.000000 0.000000 0.000000 0.000000 0.000000 0.055448
#
#
# Mechanical properties :
#
#
# Convention : Reuss Voigt Hill
#
# Bulk Modulus (GPa) = 47.00360 50.85895 48.93127
# Shear Modulus (GPa) = 23.01083 25.44611 24.22847
#
# Velocity S-wave (km/s) = 3.39556 3.57072 3.48424
# Velocity P-wave (km/s) = 6.23897 6.51794 6.37998
#
# Compressibility (1/GPa) = 0.02127497
#
# Stress axis : x y z
#
# Youngs Moduli (GPa) = 46.55991 46.55991 104.28365
#
# Poissons Ratio (x) = 0.42574 0.33844
# Poissons Ratio (y) = 0.42574 0.33844
# Poissons Ratio (z) = 0.15111 0.15111
#
# Static dielectric constant tensor:
#      x y z
#    x 3.575560 0.000000 0.000000 
#    y 0.000000 3.575560 0.000000 
#    z 0.000000 0.000000 3.441550 
# 
# 
# High freq. dielectric constant tensor:
#      x y z
#    x 1.770370 0.000000 0.000000 
#    y 0.000000 1.770370 0.000000 
#    z 0.000000 0.000000 1.788920 
# 
# From -- ./inp_files/5637.got.cif
#   From: 2010.03.12/outbox.cif.g09.slc.cpg/sg91_3_cif.got.tgz:5637.got - 2010.04.08 20:27:58.
