data_PCOD8304343
_publ_section_title
;
Structure prediction by ZEFSAII (Michael W. Deem and Ramdas Pophale) SiO2 
 PCOD8304343
Probable space group: I 41/A
;
_chemical_formula_sum "Si O2"
_cell_formula_units_Z 112
_cell_length_a 15.435415
_cell_length_b 15.435415
_cell_length_c 22.281145
_cell_angle_alpha 90.000000
_cell_angle_beta 90.000000
_cell_angle_gamma 90.000000
_cell_volume 5308.528166
_symmetry_space_group_name_H-M "I 41/A"
_symmetry_group_IT_number 88
_space_group.IT_coordinate_system_code '2'
_symmetry_cell_setting 'tetragonal'
loop_
_space_group_symop_operation_xyz
x,y,z
3/4-y,1/4+x,1/4+z
-x,1/2-y,z
1/4+y,1/4-x,1/4+z
-x,-y,-z
1/4+y,3/4-x,3/4-z
x,1/2+y,-z
3/4-y,3/4+x,3/4-z
1/2+x,1/2+y,1/2+z
1/4-y,3/4+x,3/4+z
1/2-x,-y,1/2+z
3/4+y,3/4-x,3/4+z
1/2-x,1/2-y,1/2-z
3/4+y,1/4-x,1/4-z
1/2+x,y,1/2-z
1/4-y,1/4+x,1/4-z
loop_
_atom_site_type_symbol
_atom_site_label
_atom_site_fract_x
_atom_site_fract_y
_atom_site_fract_z
Si Si1 0.964946 0.437080 0.449754
Si Si2 0.607084 0.433081 0.768765
Si Si3 0.643098 0.052730 0.335364
Si Si4 0.820683 0.037186 0.610852
Si Si5 0.919456 0.314114 0.893604
Si Si6 0.760076 0.823389 0.023966
Si Si7 0.048055 0.490195 0.136627
O O1 0.900388 0.364171 0.476199
O O2 0.914270 0.498220 0.403782
O O3 0.000000 0.500000 0.500000
O O4 0.040779 0.386171 0.415696
O O5 0.641069 0.518792 0.733454
O O6 0.667047 0.412755 0.826417
O O7 0.507696 0.446986 0.786436
O O8 0.678972 0.150523 0.339813
O O9 0.548864 0.045741 0.364381
O O10 0.709830 0.995565 0.373807
O O11 0.784289 0.096368 0.557629
O O12 0.856857 0.307061 0.951269
O O13 0.953479 0.411209 0.885951
O O14 0.000000 0.250000 0.903525
O O15 0.766555 0.840653 0.952877
#
# Coordination Sequence:
#
# PCOD8304343 Si02
#       7
#    16  16  16  16  16  16  16
#     4  11  23  39  66  97 134 182 223 275 338 406
#     4  10  23  41  64  98 139 174 228 279 333 411
#     4  10  24  43  66  94 128 178 218 291 338 402
#     4  11  21  39  66  96 131 178 219 268 340 406
#     4  12  23  43  67 101 134 180 228 278 348 411
#     4  11  23  42  66  96 133 179 221 286 331 412
#     4  11  25  47  68  97 137 174 235 283 349 402
#
# _framework density 21.098127000000002
#
# number of rings (size 3 to 8) (size 9 to 14) (size 15 to 20)
#    0.000    1.143    2.857    4.286    4.000    0.286 
#    5.143    1.429    0.000    0.000    0.000    0.000 
#    0.000    0.000    0.000    0.000    0.000    0.000 
#
# Total GULP energy -694418.811392 kJ/mol
# GULP energy per Si atom -12400.335918 kJ/mol
# Density = 2.105011 g / cm^3
# Si number density = 21.098127 Si / 1000 Ang^3
#
#
#
# Elastic Constant Matrix: (Units=GPa)
#
#
# Indices 1 2 3 4 5 6 
#
# 1 111.9533 47.7257 19.3852 0.0000 0.0000 0.0828
# 2 47.7257 111.9533 19.3851 0.0000 0.0000 -0.0828
# 3 19.3852 19.3851 52.7044 0.0000 0.0000 0.0000
# 4 0.0000 0.0000 0.0000 26.3711 0.0000 0.0000
# 5 0.0000 0.0000 0.0000 0.0000 26.3711 0.0000
# 6 0.0828 -0.0828 0.0000 0.0000 0.0000 38.1549
#
#
#
# Elastic Compliance Matrix: (Units=1/GPa)
#
#
# Indices 1 2 3 4 5 6 
#
# 1 0.011223 -0.004347 -0.002529 0.000000 0.000000 -0.000034
# 2 -0.004347 0.011223 -0.002529 0.000000 0.000000 0.000034
# 3 -0.002529 -0.002529 0.020834 0.000000 0.000000 0.000000
# 4 0.000000 0.000000 0.000000 0.037920 0.000000 0.000000
# 5 0.000000 0.000000 0.000000 0.000000 0.037920 0.000000
# 6 -0.000034 0.000034 0.000000 0.000000 0.000000 0.026209
#
#
# Mechanical properties :
#
#
# Convention : Reuss Voigt Hill
#
# Bulk Modulus (GPa) = 40.86555 49.95590 45.41073
# Shear Modulus (GPa) = 29.01955 30.85374 29.93664
#
# Velocity S-wave (km/s) = 3.71274 3.82827 3.77095
# Velocity P-wave (km/s) = 6.14740 6.57801 6.36635
#
# Compressibility (1/GPa) = 0.02447049
#
# Stress axis : x y z
#
# Youngs Moduli (GPa) = 89.10114 89.10113 47.99767
#
# Poissons Ratio (x) = 0.38728 0.12140
# Poissons Ratio (y) = 0.38728 0.12140
# Poissons Ratio (z) = 0.22536 0.22536
#
# Static dielectric constant tensor:
#      x y z
#    x 5.339170 0.000000 0.000000 
#    y 0.000000 5.339170 0.000000 
#    z 0.000000 0.000000 4.025600 
# 
# 
# High freq. dielectric constant tensor:
#      x y z
#    x 1.831230 0.000000 0.000000 
#    y 0.000000 1.831230 0.000000 
#    z 0.000000 0.000000 1.822690 
# 
# From -- ./inp_files/5352.got.cif
#   From: 2010.03.12/outbox.cif.g09.slc.cpg/sg88_3_cif.got.tgz:5352.got - 2010.04.08 20:20:55.
