data_PCOD8304782
_publ_section_title
;
Structure prediction by ZEFSAII (Michael W. Deem and Ramdas Pophale) SiO2 
 PCOD8304782
Probable space group: P 41 2 2
;
_chemical_formula_sum "Si O2"
_cell_formula_units_Z 32
_cell_length_a 19.352895
_cell_length_b 19.352895
_cell_length_c 4.982445
_cell_angle_alpha 90.000000
_cell_angle_beta 90.000000
_cell_angle_gamma 90.000000
_cell_volume 1866.097770
_symmetry_space_group_name_H-M "P 41 2 2"
_symmetry_group_IT_number 91
_symmetry_cell_setting 'tetragonal'
loop_
_space_group_symop_operation_xyz
x,y,z
-y,x,1/4+z
-x,-y,1/2+z
y,-x,3/4+z
x,-y,1/2-z
-x,y,-z
y,x,3/4-z
-y,-x,1/4-z
loop_
_atom_site_type_symbol
_atom_site_label
_atom_site_fract_x
_atom_site_fract_y
_atom_site_fract_z
Si Si1 0.142537 0.750391 0.655816
Si Si2 0.857019 0.453949 0.493926
Si Si3 0.706806 0.000000 0.250000
Si Si4 0.315253 0.794423 0.096525
Si Si5 0.383807 0.000000 0.250000
O O1 0.173175 0.826826 0.625000
O O2 0.180740 0.695466 0.459498
O O3 0.061832 0.755721 0.595762
O O4 0.153378 0.726299 0.960338
O O5 0.869996 0.500000 0.750000
O O6 0.799811 0.395517 0.568049
O O7 0.932473 0.425884 0.405573
O O8 0.827261 0.500000 0.250000
O O9 0.660230 0.025799 0.496568
O O10 0.283722 0.716279 0.125000
#
# Coordination Sequence:
#
# PCOD8304782 Si02
#       5
#     8   8   4   8   4
#     4  10  19  32  51  71  93 128 171 217 257 291
#     4  12  22  34  49  74 106 140 170 201 248 305
#     4  12  18  33  52  70 101 128 178 214 252 302
#     4  10  20  36  52  70  96 132 173 211 244 287
#     4  12  22  33  48  72 107 144 166 198 246 304
#
# _framework density 17.148083
#
# number of rings (size 3 to 8) (size 9 to 14) (size 15 to 20)
#    0.000    1.000    5.000    3.750    0.000    0.000 
#    0.000    0.000    0.000    0.000    0.000    7.000 
#    0.000    2.000    0.000    0.000    0.000    0.000 
#
# Total GULP energy -396785.484711 kJ/mol
# GULP energy per Si atom -12399.546397 kJ/mol
# Density = 1.710905 g / cm^3
# Si number density = 17.148083 Si / 1000 Ang^3
#
#
#
# Elastic Constant Matrix: (Units=GPa)
#
#
# Indices 1 2 3 4 5 6 
#
# 1 83.8457 45.8880 12.4321 0.0000 0.0000 0.0000
# 2 45.8880 83.8453 12.4319 0.0000 0.0000 0.0000
# 3 12.4321 12.4319 78.3494 0.0000 0.0000 0.0000
# 4 0.0000 0.0000 0.0000 11.9396 0.0000 0.0000
# 5 0.0000 0.0000 0.0000 0.0000 11.9391 0.0000
# 6 0.0000 0.0000 0.0000 0.0000 0.0000 20.1140
#
#
#
# Elastic Compliance Matrix: (Units=1/GPa)
#
#
# Indices 1 2 3 4 5 6 
#
# 1 0.017148 -0.009198 -0.001261 0.000000 0.000000 0.000000
# 2 -0.009198 0.017148 -0.001261 0.000000 0.000000 0.000000
# 3 -0.001261 -0.001261 0.013164 0.000000 0.000000 0.000000
# 4 0.000000 0.000000 0.000000 0.083755 0.000000 0.000000
# 5 0.000000 0.000000 0.000000 0.000000 0.083758 0.000000
# 6 0.000000 0.000000 0.000000 0.000000 0.000000 0.049717
#
#
# Mechanical properties :
#
#
# Convention : Reuss Voigt Hill
#
# Bulk Modulus (GPa) = 41.63607 43.06051 42.34829
# Shear Modulus (GPa) = 16.88417 20.48444 18.68430
#
# Velocity S-wave (km/s) = 3.14125 3.45999 3.30447
# Velocity P-wave (km/s) = 6.12288 6.41308 6.26966
#
# Compressibility (1/GPa) = 0.02401763
#
# Stress axis : x y z
#
# Youngs Moduli (GPa) = 58.31746 58.31720 75.96677
#
# Poissons Ratio (x) = 0.53638 0.09583
# Poissons Ratio (y) = 0.53639 0.09583
# Poissons Ratio (z) = 0.07357 0.07356
#
# Static dielectric constant tensor:
#      x y z
#    x 3.535080 0.000000 0.000000 
#    y 0.000000 3.535130 0.000000 
#    z 0.000000 0.000000 3.406880 
# 
# 
# High freq. dielectric constant tensor:
#      x y z
#    x 1.632940 0.000000 0.000000 
#    y 0.000000 1.632940 0.000000 
#    z 0.000000 0.000000 1.692570 
# 
# From -- ./inp_files/753.got.cif
#   From: 2010.03.12/outbox.cif.g09.slc.cpg/sg91_1_cif.got.tgz:753.got - 2010.04.08 20:27:58.
