data_PCOD8305605
_publ_section_title
;
Structure prediction by ZEFSAII (Michael W. Deem and Ramdas Pophale) SiO2 
 PCOD8305605
Probable space group: P 42 2 2
;
_chemical_formula_sum "Si O2"
_cell_formula_units_Z 56
_cell_length_a 17.367571
_cell_length_b 17.367571
_cell_length_c 12.018043
_cell_angle_alpha 90.000000
_cell_angle_beta 90.000000
_cell_angle_gamma 90.000000
_cell_volume 3625.032625
_symmetry_space_group_name_H-M "P 42 2 2"
_symmetry_group_IT_number 93
_symmetry_cell_setting 'tetragonal'
loop_
_space_group_symop_operation_xyz
x,y,z
-y,x,1/2+z
-x,-y,z
y,-x,1/2+z
x,-y,-z
-x,y,-z
y,x,1/2-z
-y,-x,1/2-z
loop_
_atom_site_type_symbol
_atom_site_label
_atom_site_fract_x
_atom_site_fract_y
_atom_site_fract_z
Si Si1 0.911584 0.585156 0.635766
Si Si2 0.004225 0.762233 0.875298
Si Si3 0.954497 0.921716 0.868655
Si Si4 0.144184 0.733713 0.278736
Si Si5 0.855749 0.737587 0.282467
Si Si6 0.195157 0.915748 0.002506
Si Si7 0.587626 0.088726 0.873338
O O1 0.854601 0.640526 0.707249
O O2 0.900477 0.593846 0.504660
O O3 0.891054 0.497760 0.670526
O O4 0.000744 0.606164 0.663208
O O5 0.015551 0.853915 0.885235
O O6 0.923191 0.751123 0.810220
O O7 0.080957 0.733330 0.815354
O O8 0.000000 0.725413 0.000000
O O9 0.910864 0.910864 0.750000
O O10 0.894805 0.919960 0.969680
O O11 0.000000 0.000000 0.871433
O O12 0.226784 0.773217 0.250000
O O13 0.130250 0.761253 0.403485
O O14 0.771370 0.771370 0.250000
O O15 0.880999 0.794883 0.380633
O O16 0.850959 0.648955 0.321942
O O17 0.233043 0.000000 0.000000
#
# Coordination Sequence:
#
# PCOD8305605 Si02
#       7
#     8   8   8   8   8   8   8
#     4   9  17  32  57  80  95 122 166 222 268 298
#     4  12  24  35  41  62  93 131 171 204 249 303
#     4  11  23  33  41  55  85 129 173 211 244 285
#     4  12  21  34  51  71 100 131 161 212 262 298
#     4  12  24  33  51  71  98 131 163 215 260 297
#     4  12  20  34  47  63  90 129 173 216 251 281
#     4   9  17  33  56  79  97 119 168 224 266 298
#
# _framework density 15.448136
#
# number of rings (size 3 to 8) (size 9 to 14) (size 15 to 20)
#    0.000    1.000    7.143    1.714    6.000    0.000 
#    0.000    0.000    0.000    1.714    0.000    0.000 
#    0.000    0.571    0.000    3.143    0.000    0.000 
#
# Total GULP energy -693816.106701 kJ/mol
# GULP energy per Si atom -12389.573334 kJ/mol
# Density = 1.541298 g / cm^3
# Si number density = 15.448136 Si / 1000 Ang^3
#
#
#
# Elastic Constant Matrix: (Units=GPa)
#
#
# Indices 1 2 3 4 5 6 
#
# 1 88.3953 40.2696 20.8280 0.0000 0.0000 0.0000
# 2 40.2696 88.3957 20.8280 0.0000 0.0000 0.0000
# 3 20.8280 20.8280 77.3494 0.0000 0.0000 0.0000
# 4 0.0000 0.0000 0.0000 14.3356 0.0000 0.0000
# 5 0.0000 0.0000 0.0000 0.0000 14.3343 0.0000
# 6 0.0000 0.0000 0.0000 0.0000 0.0000 14.1018
#
#
#
# Elastic Compliance Matrix: (Units=1/GPa)
#
#
# Indices 1 2 3 4 5 6 
#
# 1 0.014647 -0.006132 -0.002293 0.000000 0.000000 0.000000
# 2 -0.006132 0.014647 -0.002293 0.000000 0.000000 0.000000
# 3 -0.002293 -0.002293 0.014163 0.000000 0.000000 0.000000
# 4 0.000000 0.000000 0.000000 0.069757 0.000000 0.000000
# 5 0.000000 0.000000 0.000000 0.000000 0.069763 0.000000
# 6 0.000000 0.000000 0.000000 0.000000 0.000000 0.070913
#
#
# Mechanical properties :
#
#
# Convention : Reuss Voigt Hill
#
# Bulk Modulus (GPa) = 45.41100 46.44351 45.92726
# Shear Modulus (GPa) = 17.68882 20.03530 18.86206
#
# Velocity S-wave (km/s) = 3.38752 3.60521 3.49806
# Velocity P-wave (km/s) = 6.69029 6.88909 6.79042
#
# Compressibility (1/GPa) = 0.02202110
#
# Stress axis : x y z
#
# Youngs Moduli (GPa) = 68.27501 68.27538 70.60622
#
# Poissons Ratio (x) = 0.41868 0.16188
# Poissons Ratio (y) = 0.41868 0.16188
# Poissons Ratio (z) = 0.15653 0.15653
#
# Static dielectric constant tensor:
#      x y z
#    x 2.989010 0.000000 0.000000 
#    y 0.000000 2.989010 0.000000 
#    z 0.000000 0.000000 3.504160 
# 
# 
# High freq. dielectric constant tensor:
#      x y z
#    x 1.558250 0.000000 0.000000 
#    y 0.000000 1.558250 0.000000 
#    z 0.000000 0.000000 1.602380 
# 
# From -- ./inp_files/3554.got.cif
#   From: 2010.03.12/outbox.cif.g09.slc.cpg/sg93_2_cif.got.tgz:3554.got - 2010.04.08 20:44:19.
