data_PCOD8305190
_publ_section_title
;
Structure prediction by ZEFSAII (Michael W. Deem and Ramdas Pophale) SiO2 
 PCOD8305190
Probable space group: P 41 2 2
;
_chemical_formula_sum "Si O2"
_cell_formula_units_Z 48
_cell_length_a 19.721658
_cell_length_b 19.721658
_cell_length_c 9.169890
_cell_angle_alpha 90.000000
_cell_angle_beta 90.000000
_cell_angle_gamma 90.000000
_cell_volume 3566.571810
_symmetry_space_group_name_H-M "P 41 2 2"
_symmetry_group_IT_number 91
_symmetry_cell_setting 'tetragonal'
loop_
_space_group_symop_operation_xyz
x,y,z
-y,x,1/4+z
-x,-y,1/2+z
y,-x,3/4+z
x,-y,1/2-z
-x,y,-z
y,x,3/4-z
-y,-x,1/4-z
loop_
_atom_site_type_symbol
_atom_site_label
_atom_site_fract_x
_atom_site_fract_y
_atom_site_fract_z
Si Si1 0.305091 0.072049 0.930666
Si Si2 0.432695 0.083813 0.420521
Si Si3 0.095967 0.155257 0.231736
Si Si4 0.823966 0.041924 0.898839
Si Si5 0.564509 0.078034 0.909105
Si Si6 0.912644 0.304740 0.855670
O O1 0.304865 0.110210 0.774812
O O2 0.311980 0.992762 0.903004
O O3 0.239614 0.081960 0.033045
O O4 0.367873 0.105287 0.014637
O O5 0.500000 0.110764 0.500000
O O6 0.435585 0.109064 0.253486
O O7 0.367611 0.114884 0.507595
O O8 0.432768 0.002933 0.413597
O O9 0.136722 0.136722 0.375000
O O10 0.119275 0.100178 0.112826
O O11 0.114997 0.233255 0.203057
O O12 0.014626 0.147143 0.240891
O O13 0.804835 0.000000 0.750000
O O14 0.500000 0.104755 0.000000
#
# Coordination Sequence:
#
# PCOD8305190 Si02
#       6
#     8   8   8   8   8   8
#     4   9  17  26  42  55  75  94 122 148 191 235
#     4   9  16  24  38  55  79  99 118 139 176 219
#     4   9  18  30  47  56  73  93 130 162 211 255
#     4   9  18  30  47  56  71  95 127 167 208 258
#     4   9  16  23  36  57  78  98 118 141 170 220
#     4   9  17  28  40  57  74  97 119 154 187 237
#
# _framework density 13.458301000000001
#
# number of rings (size 3 to 8) (size 9 to 14) (size 15 to 20)
#    0.000    3.000    0.000    1.000    9.333    4.667 
#    0.000    0.000   55.000    0.000    0.000    0.000 
#    0.000    0.000    0.000    0.000    0.000    0.000 
#
# Total GULP energy -594655.410326 kJ/mol
# GULP energy per Si atom -12388.654382 kJ/mol
# Density = 1.342767 g / cm^3
# Si number density = 13.458301 Si / 1000 Ang^3
#
#
#
# Elastic Constant Matrix: (Units=GPa)
#
#
# Indices 1 2 3 4 5 6 
#
# 1 72.4941 35.5749 40.2776 0.0000 0.0000 0.0000
# 2 35.5749 72.4941 40.2776 0.0000 0.0000 0.0000
# 3 40.2776 40.2776 87.9112 0.0000 0.0000 0.0000
# 4 0.0000 0.0000 0.0000 18.3775 0.0000 0.0000
# 5 0.0000 0.0000 0.0000 0.0000 18.3775 0.0000
# 6 0.0000 0.0000 0.0000 0.0000 0.0000 0.5885
#
#
#
# Elastic Compliance Matrix: (Units=1/GPa)
#
#
# Indices 1 2 3 4 5 6 
#
# 1 0.020569 -0.006517 -0.006438 0.000000 0.000000 0.000000
# 2 -0.006517 0.020569 -0.006438 0.000000 0.000000 0.000000
# 3 -0.006438 -0.006438 0.017275 0.000000 0.000000 0.000000
# 4 0.000000 0.000000 0.000000 0.054414 0.000000 0.000000
# 5 0.000000 0.000000 0.000000 0.000000 0.054414 0.000000
# 6 0.000000 0.000000 0.000000 0.000000 0.000000 1.699158
#
#
# Mechanical properties :
#
#
# Convention : Reuss Voigt Hill
#
# Bulk Modulus (GPa) = 50.95175 51.68441 51.31808
# Shear Modulus (GPa) = 2.61543 15.25331 8.93437
#
# Velocity S-wave (km/s) = 1.39556 3.37022 2.57934
# Velocity P-wave (km/s) = 6.36694 7.32333 6.86182
#
# Compressibility (1/GPa) = 0.01962641
#
# Stress axis : x y z
#
# Youngs Moduli (GPa) = 48.61605 48.61605 57.88809
#
# Poissons Ratio (x) = 0.31682 0.37270
# Poissons Ratio (y) = 0.31682 0.37270
# Poissons Ratio (z) = 0.31301 0.31301
#
# Static dielectric constant tensor:
#      x y z
#    x 2.529870 0.000000 0.000000 
#    y 0.000000 2.529870 0.000000 
#    z 0.000000 0.000000 2.994980 
# 
# 
# High freq. dielectric constant tensor:
#      x y z
#    x 1.469420 0.000000 0.000000 
#    y 0.000000 1.469420 0.000000 
#    z 0.000000 0.000000 1.532950 
# 
# From -- ./inp_files/10086.got.cif
#   From: 2010.03.12/outbox.cif.g09.slc.cpg/sg91_6_cif.got.tgz:10086.got - 2010.04.08 20:27:58.
