data_PCOD8305435
_publ_section_title
;
Structure prediction by ZEFSAII (Michael W. Deem and Ramdas Pophale) SiO2 
 PCOD8305435
Probable space group: P 41 21 2
;
_chemical_formula_sum "Si O2"
_cell_formula_units_Z 32
_cell_length_a 19.742147
_cell_length_b 19.742147
_cell_length_c 4.832081
_cell_angle_alpha 90.000000
_cell_angle_beta 90.000000
_cell_angle_gamma 90.000000
_cell_volume 1883.315013
_symmetry_space_group_name_H-M "P 41 21 2"
_symmetry_group_IT_number 92
_symmetry_cell_setting 'tetragonal'
loop_
_space_group_symop_operation_xyz
x,y,z
1/2-y,1/2+x,1/4+z
-x,-y,1/2+z
1/2+y,1/2-x,3/4+z
1/2+x,1/2-y,3/4-z
1/2-x,1/2+y,1/4-z
y,x,-z
-y,-x,1/2-z
loop_
_atom_site_type_symbol
_atom_site_label
_atom_site_fract_x
_atom_site_fract_y
_atom_site_fract_z
Si Si1 0.346758 0.041003 0.618427
Si Si2 0.735708 0.836099 0.067988
Si Si3 0.049902 0.649809 0.387625
Si Si4 0.228672 0.329349 0.934510
O O1 0.281713 0.085131 0.515829
O O2 0.405416 0.087380 0.751814
O O3 0.376218 0.000527 0.354227
O O4 0.320075 0.990728 0.853845
O O5 0.720160 0.819967 0.386865
O O6 0.813651 0.813651 0.000000
O O7 0.684107 0.790055 0.884720
O O8 0.093349 0.712355 0.263641
O O9 0.306880 0.306880 0.000000
#
# Coordination Sequence:
#
# PCOD8305435 Si02
#       4
#     8   8   8   8
#     4  11  21  33  46  65  94 127 158 184 216 265
#     4   9  17  31  49  65  83 113 154 198 236 259
#     4  11  21  33  46  65  94 127 158 184 216 265
#     4   9  17  31  49  65  83 113 154 198 236 259
#
# _framework density 16.991313999999999
#
# number of rings (size 3 to 8) (size 9 to 14) (size 15 to 20)
#    0.000    2.000    0.000    7.500    0.000    2.000 
#    0.000    2.500    0.000    0.000    0.000    0.000 
#    0.000    4.000    0.000    7.000    0.000    0.000 
#
# Total GULP energy -396485.182575 kJ/mol
# GULP energy per Si atom -12390.161955 kJ/mol
# Density = 1.695264 g / cm^3
# Si number density = 16.991314 Si / 1000 Ang^3
#
#
#
# Elastic Constant Matrix: (Units=GPa)
#
#
# Indices 1 2 3 4 5 6 
#
# 1 62.5632 58.8135 21.2887 0.0000 0.0000 0.0000
# 2 58.8135 62.5632 21.2887 0.0000 0.0000 0.0000
# 3 21.2887 21.2887 78.0366 0.0000 0.0000 0.0000
# 4 0.0000 0.0000 0.0000 26.1569 0.0000 0.0000
# 5 0.0000 0.0000 0.0000 0.0000 26.1569 0.0000
# 6 0.0000 0.0000 0.0000 0.0000 0.0000 13.5015
#
#
#
# Elastic Compliance Matrix: (Units=1/GPa)
#
#
# Indices 1 2 3 4 5 6 
#
# 1 0.137900 -0.128789 -0.002485 0.000000 0.000000 0.000000
# 2 -0.128789 0.137900 -0.002485 0.000000 0.000000 0.000000
# 3 -0.002485 -0.002485 0.014171 0.000000 0.000000 0.000000
# 4 0.000000 0.000000 0.000000 0.038231 0.000000 0.000000
# 5 0.000000 0.000000 0.000000 0.000000 0.038231 0.000000
# 6 0.000000 0.000000 0.000000 0.000000 0.000000 0.074066
#
#
# Mechanical properties :
#
#
# Convention : Reuss Voigt Hill
#
# Bulk Modulus (GPa) = 44.54303 45.10498 44.82400
# Shear Modulus (GPa) = 6.98811 19.94786 13.46798
#
# Velocity S-wave (km/s) = 2.03019 3.43009 2.81844
# Velocity P-wave (km/s) = 5.63628 6.50314 6.08517
#
# Compressibility (1/GPa) = 0.02245020
#
# Stress axis : x y z
#
# Youngs Moduli (GPa) = 7.25164 7.25164 70.56881
#
# Poissons Ratio (x) = 0.93393 0.17539
# Poissons Ratio (y) = 0.93393 0.17539
# Poissons Ratio (z) = 0.01802 0.01802
#
# Static dielectric constant tensor:
#      x y z
#    x 3.205930 0.000000 0.000000 
#    y 0.000000 3.205930 0.000000 
#    z 0.000000 0.000000 3.457880 
# 
# 
# High freq. dielectric constant tensor:
#      x y z
#    x 1.618700 0.000000 0.000000 
#    y 0.000000 1.618700 0.000000 
#    z 0.000000 0.000000 1.691020 
# 
# From -- ./inp_files/326.got.cif
#   From: 2010.03.12/outbox.cif.g09.slc.cpg/sg92_1_cif.got.tgz:326.got - 2010.04.08 20:41:11.
