data_PCOD8305097
_publ_section_title
;
Structure prediction by ZEFSAII (Michael W. Deem and Ramdas Pophale) SiO2 
 PCOD8305097
Probable space group: P 41 2 2
;
_chemical_formula_sum "Si O2"
_cell_formula_units_Z 60
_cell_length_a 11.640217
_cell_length_b 11.640217
_cell_length_c 20.194909
_cell_angle_alpha 90.000000
_cell_angle_beta 90.000000
_cell_angle_gamma 90.000000
_cell_volume 2736.302163
_symmetry_space_group_name_H-M "P 41 2 2"
_symmetry_group_IT_number 91
_symmetry_cell_setting 'tetragonal'
loop_
_space_group_symop_operation_xyz
x,y,z
-y,x,1/4+z
-x,-y,1/2+z
y,-x,3/4+z
x,-y,1/2-z
-x,y,-z
y,x,3/4-z
-y,-x,1/4-z
loop_
_atom_site_type_symbol
_atom_site_label
_atom_site_fract_x
_atom_site_fract_y
_atom_site_fract_z
Si Si1 0.780099 0.808922 0.582491
Si Si2 0.178384 0.418610 0.904285
Si Si3 0.969498 0.315760 0.851605
Si Si4 0.339908 0.884803 0.291598
Si Si5 0.780837 0.723161 0.803828
Si Si6 0.698946 0.618533 0.271473
Si Si7 0.887298 0.500000 0.750000
Si Si8 0.867888 0.014358 0.507390
O O1 0.851053 0.697181 0.607162
O O2 0.740950 0.886591 0.644314
O O3 0.670162 0.767981 0.540682
O O4 0.862989 0.888062 0.538597
O O5 0.123257 0.531812 0.933298
O O6 0.214005 0.424992 0.827708
O O7 0.285340 0.385817 0.950375
O O8 0.073778 0.327303 0.903980
O O9 0.963736 0.427511 0.802962
O O10 0.987990 0.196229 0.813102
O O11 0.310200 0.772427 0.248735
O O12 0.319860 0.000000 0.250000
O O13 0.722961 0.722961 0.875000
O O14 0.807546 0.590755 0.788034
O O15 0.894807 0.801577 0.803672
O O16 0.633571 0.500000 0.250000
O O17 0.000000 0.052481 0.500000
#
# Coordination Sequence:
#
# PCOD8305097 Si02
#       8
#     8   8   8   8   8   8   4   8
#     4  12  25  44  71 104 150 190 242 300 375 448
#     4  11  27  46  74 107 140 194 251 305 370 444
#     4  11  26  44  71 108 148 191 243 299 369 453
#     4  12  26  46  73 109 142 191 254 306 364 458
#     4  11  25  46  71 105 143 192 240 303 368 443
#     4  11  25  47  72 101 146 192 240 307 375 436
#     4  10  24  46  70 106 144 194 242 302 374 432
#     4  11  25  41  67 105 152 188 228 294 374 439
#
# _framework density 21.927403000000002
#
# number of rings (size 3 to 8) (size 9 to 14) (size 15 to 20)
#    0.000    0.800    5.333    1.200   12.133    0.000 
#    1.200    0.000    0.000    0.000    0.000    0.000 
#    0.000    0.000    0.000    0.000    0.000    0.000 
#
# Total GULP energy -743886.423579 kJ/mol
# GULP energy per Si atom -12398.107060 kJ/mol
# Density = 2.187750 g / cm^3
# Si number density = 21.927403 Si / 1000 Ang^3
#
#
#
# Elastic Constant Matrix: (Units=GPa)
#
#
# Indices 1 2 3 4 5 6 
#
# 1 137.3135 47.1370 44.3417 0.0000 0.0000 0.0000
# 2 47.1370 137.3135 44.3417 0.0000 0.0000 0.0000
# 3 44.3417 44.3417 104.8191 0.0000 0.0000 0.0000
# 4 0.0000 0.0000 0.0000 37.7258 0.0000 0.0000
# 5 0.0000 0.0000 0.0000 0.0000 37.7258 0.0000
# 6 0.0000 0.0000 0.0000 0.0000 0.0000 28.8520
#
#
#
# Elastic Compliance Matrix: (Units=1/GPa)
#
#
# Indices 1 2 3 4 5 6 
#
# 1 0.008948 -0.002142 -0.002879 0.000000 0.000000 0.000000
# 2 -0.002142 0.008948 -0.002879 0.000000 0.000000 0.000000
# 3 -0.002879 -0.002879 0.011976 0.000000 0.000000 0.000000
# 4 0.000000 0.000000 0.000000 0.026507 0.000000 0.000000
# 5 0.000000 0.000000 0.000000 0.000000 0.026507 0.000000
# 6 0.000000 0.000000 0.000000 0.000000 0.000000 0.034660
#
#
# Mechanical properties :
#
#
# Convention : Reuss Voigt Hill
#
# Bulk Modulus (GPa) = 71.06599 72.34297 71.70448
# Shear Modulus (GPa) = 36.22266 37.10245 36.66256
#
# Velocity S-wave (km/s) = 4.06881 4.11793 4.09344
# Velocity P-wave (km/s) = 7.38604 7.46146 7.42385
#
# Compressibility (1/GPa) = 0.01407143
#
# Stress axis : x y z
#
# Youngs Moduli (GPa) = 111.76246 111.76246 83.49972
#
# Poissons Ratio (x) = 0.23937 0.24040
# Poissons Ratio (y) = 0.23937 0.24040
# Poissons Ratio (z) = 0.32177 0.32177
#
# Static dielectric constant tensor:
#      x y z
#    x 3.872690 0.000000 0.000000 
#    y 0.000000 3.872690 0.000000 
#    z 0.000000 0.000000 4.316880 
# 
# 
# High freq. dielectric constant tensor:
#      x y z
#    x 1.857960 0.000000 0.000000 
#    y 0.000000 1.857960 0.000000 
#    z 0.000000 0.000000 1.873850 
# 
# From -- ./inp_files/12515.got.cif
#   From: 2010.03.12/outbox.cif.g09.slc.cpg/sg91_7_cif.got.tgz:12515.got - 2010.04.08 20:27:58.
