data_PCOD8305689
_publ_section_title
;
Structure prediction by ZEFSAII (Michael W. Deem and Ramdas Pophale) SiO2 
 PCOD8305689
Probable space group: P 42 21 2
;
_chemical_formula_sum "Si O2"
_cell_formula_units_Z 58
_cell_length_a 17.160973
_cell_length_b 17.160973
_cell_length_c 9.180637
_cell_angle_alpha 90.000000
_cell_angle_beta 90.000000
_cell_angle_gamma 90.000000
_cell_volume 2703.688364
_symmetry_space_group_name_H-M "P 42 21 2"
_symmetry_group_IT_number 94
_symmetry_cell_setting 'tetragonal'
loop_
_space_group_symop_operation_xyz
x,y,z
1/2-y,1/2+x,1/2+z
-x,-y,z
1/2+y,1/2-x,1/2+z
1/2+x,1/2-y,1/2-z
1/2-x,1/2+y,1/2-z
y,x,-z
-y,-x,-z
loop_
_atom_site_type_symbol
_atom_site_label
_atom_site_fract_x
_atom_site_fract_y
_atom_site_fract_z
Si Si1 0.656056 0.531436 0.830647
Si Si2 0.498566 0.372199 0.486071
Si Si3 0.334482 0.172051 0.717183
Si Si4 0.500000 0.500000 0.000000
Si Si5 0.035184 0.299684 0.499148
Si Si6 0.812721 0.234165 0.343461
Si Si7 0.120165 0.619648 0.472005
Si Si8 0.505981 0.222866 0.677801
O O1 0.667900 0.494633 0.671744
O O2 0.722394 0.502938 0.937473
O O3 0.664572 0.625008 0.816460
O O4 0.573639 0.503466 0.893364
O O5 0.413314 0.413314 0.500000
O O6 0.563457 0.436544 0.500000
O O7 0.519127 0.306996 0.605408
O O8 0.317056 0.115426 0.582962
O O9 0.270817 0.242271 0.725556
O O10 0.414746 0.215520 0.692222
O O11 0.339361 0.127840 0.870667
O O12 0.050855 0.281427 0.668016
O O13 0.973876 0.372057 0.483527
O O14 0.775642 0.224359 0.500000
O O15 0.851349 0.319398 0.347074
O O16 0.149179 0.535656 0.417774
#
# Coordination Sequence:
#
# PCOD8305689 Si02
#       8
#     8   8   8   2   8   8   8   8
#     4  11  23  39  65  93 132 170 219 270 328 401
#     4  11  25  41  61  91 132 174 212 264 328 398
#     4  10  21  40  67  92 125 171 219 270 331 401
#     4  12  24  36  74 100 132 180 218 280 336 396
#     4  10  24  42  63  96 128 165 220 280 334 398
#     4   9  18  39  63  89 123 171 217 264 332 396
#     4   9  21  40  63  88 125 169 211 271 336 392
#     4  11  24  42  66  93 128 167 221 275 331 410
#
# _framework density 21.452176999999999
#
# number of rings (size 3 to 8) (size 9 to 14) (size 15 to 20)
#    0.000    1.793    0.690    3.310    3.862    6.621 
#    0.000    4.138    0.000    0.000    0.000    0.000 
#    0.000    0.000    0.000    0.000    0.000    0.000 
#
# Total GULP energy -718941.559603 kJ/mol
# GULP energy per Si atom -12395.544131 kJ/mol
# Density = 2.140335 g / cm^3
# Si number density = 21.452177 Si / 1000 Ang^3
#
#
#
# Elastic Constant Matrix: (Units=GPa)
#
#
# Indices 1 2 3 4 5 6 
#
# 1 46.7649 25.6219 44.1250 0.0000 0.0000 0.0000
# 2 25.6219 46.7635 44.1256 0.0000 0.0000 0.0000
# 3 44.1250 44.1256 128.6728 0.0000 0.0000 0.0000
# 4 0.0000 0.0000 0.0000 22.5839 0.0000 0.0000
# 5 0.0000 0.0000 0.0000 0.0000 22.5902 0.0000
# 6 0.0000 0.0000 0.0000 0.0000 0.0000 29.9654
#
#
#
# Elastic Compliance Matrix: (Units=1/GPa)
#
#
# Indices 1 2 3 4 5 6 
#
# 1 0.035518 -0.011779 -0.008141 0.000000 0.000000 0.000000
# 2 -0.011779 0.035520 -0.008142 0.000000 0.000000 0.000000
# 3 -0.008141 -0.008142 0.013355 0.000000 0.000000 0.000000
# 4 0.000000 0.000000 0.000000 0.044279 0.000000 0.000000
# 5 0.000000 0.000000 0.000000 0.000000 0.044267 0.000000
# 6 0.000000 0.000000 0.000000 0.000000 0.000000 0.033372
#
#
# Mechanical properties :
#
#
# Convention : Reuss Voigt Hill
#
# Bulk Modulus (GPa) = 35.37175 49.99401 42.68288
# Shear Modulus (GPa) = 18.39188 22.24979 20.32084
#
# Velocity S-wave (km/s) = 2.93122 3.22402 3.08110
# Velocity P-wave (km/s) = 5.28966 6.10037 5.70943
#
# Compressibility (1/GPa) = 0.02827115
#
# Stress axis : x y z
#
# Youngs Moduli (GPa) = 28.15443 28.15279 74.87664
#
# Poissons Ratio (x) = 0.33162 0.60955
# Poissons Ratio (y) = 0.33164 0.60962
# Poissons Ratio (z) = 0.22920 0.22921
#
# Static dielectric constant tensor:
#      x y z
#    x 3.909730 0.000000 0.000000 
#    y 0.000000 3.909730 0.000000 
#    z 0.000000 0.000000 4.190920 
# 
# 
# High freq. dielectric constant tensor:
#      x y z
#    x 1.835830 0.000000 0.000000 
#    y 0.000000 1.835830 0.000000 
#    z 0.000000 0.000000 1.847330 
# 
# From -- ./inp_files/1746.got.cif
#   From: 2010.03.12/outbox.cif.g09.slc.cpg/sg94_1_cif.got.tgz:1746.got - 2010.04.08 20:48:32.
