data_PCOD8305712
_publ_section_title
;
Structure prediction by ZEFSAII (Michael W. Deem and Ramdas Pophale) SiO2 
 PCOD8305712
Probable space group: P 42 21 2
;
_chemical_formula_sum "Si O2"
_cell_formula_units_Z 56
_cell_length_a 15.010398
_cell_length_b 15.010398
_cell_length_c 11.545842
_cell_angle_alpha 90.000000
_cell_angle_beta 90.000000
_cell_angle_gamma 90.000000
_cell_volume 2601.417308
_symmetry_space_group_name_H-M "P 42 21 2"
_symmetry_group_IT_number 94
_symmetry_cell_setting 'tetragonal'
loop_
_space_group_symop_operation_xyz
x,y,z
1/2-y,1/2+x,1/2+z
-x,-y,z
1/2+y,1/2-x,1/2+z
1/2+x,1/2-y,1/2-z
1/2-x,1/2+y,1/2-z
y,x,-z
-y,-x,-z
loop_
_atom_site_type_symbol
_atom_site_label
_atom_site_fract_x
_atom_site_fract_y
_atom_site_fract_z
Si Si1 0.506158 0.899560 0.400389
Si Si2 0.850874 0.347309 0.268308
Si Si3 0.660959 0.159473 0.269427
Si Si4 0.167752 0.171717 0.637992
Si Si5 0.166895 0.847052 0.632792
Si Si6 0.999265 0.898732 0.781070
Si Si7 0.221077 0.493619 0.394082
O O1 0.570325 0.903193 0.290366
O O2 0.411566 0.862976 0.363723
O O3 0.542965 0.824442 0.489287
O O4 0.500000 0.000000 0.453566
O O5 0.776340 0.331114 0.169300
O O6 0.894433 0.258255 0.324667
O O7 0.812475 0.406207 0.372772
O O8 0.630582 0.238108 0.181668
O O9 0.744571 0.191348 0.344302
O O10 0.687203 0.068763 0.207597
O O11 0.158729 0.158729 0.500000
O O12 0.087072 0.121126 0.702083
O O13 0.140449 0.859552 0.500000
O O14 0.086164 0.887529 0.703583
O O15 0.005022 0.829822 0.890527
O O16 0.000000 0.000000 0.828533
#
# Coordination Sequence:
#
# PCOD8305712 Si02
#       7
#     8   8   8   8   8   8   8
#     4  12  24  37  68 100 131 171 215 265 344 391
#     4  10  22  41  61  94 129 164 217 270 321 412
#     4  10  22  41  61  94 129 164 217 270 321 412
#     4  10  22  40  65  89 126 170 218 270 335 381
#     4  10  22  40  65  89 126 170 218 270 335 381
#     4  10  24  41  63  93 129 168 226 277 316 400
#     4  10  22  44  63  93 134 167 215 272 332 401
#
# _framework density 21.526729
#
# number of rings (size 3 to 8) (size 9 to 14) (size 15 to 20)
#    0.000    1.714    1.429    1.714    6.000    0.000 
#    0.000    0.000    3.143    0.000    0.000    0.000 
#    0.000    0.000    0.000    0.000    0.000    0.000 
#
# Total GULP energy -694220.299986 kJ/mol
# GULP energy per Si atom -12396.791071 kJ/mol
# Density = 2.147773 g / cm^3
# Si number density = 21.526729 Si / 1000 Ang^3
#
#
#
# Elastic Constant Matrix: (Units=GPa)
#
#
# Indices 1 2 3 4 5 6 
#
# 1 114.4943 28.0095 24.7222 0.0000 0.0000 0.0000
# 2 28.0095 114.4942 24.7221 0.0000 0.0000 0.0000
# 3 24.7222 24.7221 59.2460 0.0000 0.0000 0.0000
# 4 0.0000 0.0000 0.0000 20.5185 0.0000 0.0000
# 5 0.0000 0.0000 0.0000 0.0000 20.5185 0.0000
# 6 0.0000 0.0000 0.0000 0.0000 0.0000 23.6703
#
#
#
# Elastic Compliance Matrix: (Units=1/GPa)
#
#
# Indices 1 2 3 4 5 6 
#
# 1 0.009884 -0.001679 -0.003424 0.000000 0.000000 0.000000
# 2 -0.001679 0.009884 -0.003424 0.000000 0.000000 0.000000
# 3 -0.003424 -0.003424 0.019736 0.000000 0.000000 0.000000
# 4 0.000000 0.000000 0.000000 0.048737 0.000000 0.000000
# 5 0.000000 0.000000 0.000000 0.000000 0.048736 0.000000
# 6 0.000000 0.000000 0.000000 0.000000 0.000000 0.042247
#
#
# Mechanical properties :
#
#
# Convention : Reuss Voigt Hill
#
# Bulk Modulus (GPa) = 44.54096 49.23800 46.88948
# Shear Modulus (GPa) = 24.53851 26.99349 25.76600
#
# Velocity S-wave (km/s) = 3.37992 3.54496 3.46342
# Velocity P-wave (km/s) = 5.99731 6.29907 6.15004
#
# Compressibility (1/GPa) = 0.02245124
#
# Stress axis : x y z
#
# Youngs Moduli (GPa) = 101.17312 101.17313 50.66816
#
# Poissons Ratio (x) = 0.16984 0.17349
# Poissons Ratio (y) = 0.16984 0.17348
# Poissons Ratio (z) = 0.34641 0.34641
#
# Static dielectric constant tensor:
#      x y z
#    x 4.044990 0.000000 0.000000 
#    y 0.000000 4.044990 0.000000 
#    z 0.000000 0.000000 3.570170 
# 
# 
# High freq. dielectric constant tensor:
#      x y z
#    x 1.853510 0.000000 0.000000 
#    y 0.000000 1.853510 0.000000 
#    z 0.000000 0.000000 1.823510 
# 
# From -- ./inp_files/2725.got.cif
#   From: 2010.03.12/outbox.cif.g09.slc.cpg/sg94_2_cif.got.tgz:2725.got - 2010.04.08 20:48:32.
