data_PCOD8305086
_publ_section_title
;
Structure prediction by ZEFSAII (Michael W. Deem and Ramdas Pophale) SiO2 
 PCOD8305086
Probable space group: P 41 2 2
;
_chemical_formula_sum "Si O2"
_cell_formula_units_Z 40
_cell_length_a 17.404312
_cell_length_b 17.404312
_cell_length_c 6.359548
_cell_angle_alpha 90.000000
_cell_angle_beta 90.000000
_cell_angle_gamma 90.000000
_cell_volume 1926.371169
_symmetry_space_group_name_H-M "P 41 2 2"
_symmetry_group_IT_number 91
_symmetry_cell_setting 'tetragonal'
loop_
_space_group_symop_operation_xyz
x,y,z
-y,x,1/4+z
-x,-y,1/2+z
y,-x,3/4+z
x,-y,1/2-z
-x,y,-z
y,x,3/4-z
-y,-x,1/4-z
loop_
_atom_site_type_symbol
_atom_site_label
_atom_site_fract_x
_atom_site_fract_y
_atom_site_fract_z
Si Si1 0.421222 0.899463 0.576885
Si Si2 0.923646 0.796867 0.871019
Si Si3 0.232919 0.578002 0.356388
Si Si4 0.671917 0.190968 0.778696
Si Si5 0.691329 0.691329 0.375000
Si Si6 0.710473 0.000000 0.250000
O O1 0.500000 0.942545 0.500000
O O2 0.432946 0.851672 0.792341
O O3 0.404857 0.842070 0.385103
O O4 0.347948 0.954832 0.596301
O O5 0.875938 0.875938 0.875000
O O6 0.944550 0.765596 0.636838
O O7 0.875072 0.733057 0.989771
O O8 0.000000 0.814195 0.000000
O O9 0.262755 0.500000 0.250000
O O10 0.294926 0.605204 0.533769
O O11 0.230818 0.646061 0.185945
O O12 0.711477 0.250343 0.937539
#
# Coordination Sequence:
#
# PCOD8305086 Si02
#       6
#     8   8   8   8   4   4
#     4  11  23  38  64 101 134 172 216 258 330 424
#     4  12  27  46  69  93 126 175 230 295 352 406
#     4  11  21  38  63  93 140 173 212 274 325 393
#     4  11  22  41  66  95 133 170 216 278 341 403
#     4  10  24  36  62 102 132 170 226 268 334 404
#     4  12  26  44  68  96 134 180 218 268 350 418
#
# _framework density 20.764429
#
# number of rings (size 3 to 8) (size 9 to 14) (size 15 to 20)
#    0.000    0.800    6.000    1.800    2.800    3.200 
#    1.800    0.000    0.000    0.000    0.000    0.000 
#   42.000    0.000    0.000    0.000    0.000    0.000 
#
# Total GULP energy -495791.253739 kJ/mol
# GULP energy per Si atom -12394.781343 kJ/mol
# Density = 2.071717 g / cm^3
# Si number density = 20.764429 Si / 1000 Ang^3
#
#
#
# Elastic Constant Matrix: (Units=GPa)
#
#
# Indices 1 2 3 4 5 6 
#
# 1 106.2184 68.6623 55.0424 0.0000 0.0000 0.0000
# 2 68.6623 106.2184 55.0424 0.0000 0.0000 0.0000
# 3 55.0424 55.0424 113.8836 0.0000 0.0000 0.0000
# 4 0.0000 0.0000 0.0000 30.7953 0.0000 0.0000
# 5 0.0000 0.0000 0.0000 0.0000 30.7953 0.0000
# 6 0.0000 0.0000 0.0000 0.0000 0.0000 12.2066
#
#
#
# Elastic Compliance Matrix: (Units=1/GPa)
#
#
# Indices 1 2 3 4 5 6 
#
# 1 0.017423 -0.009204 -0.003972 0.000000 0.000000 0.000000
# 2 -0.009204 0.017423 -0.003972 0.000000 0.000000 0.000000
# 3 -0.003972 -0.003972 0.012621 0.000000 0.000000 0.000000
# 4 0.000000 0.000000 0.000000 0.032473 0.000000 0.000000
# 5 0.000000 0.000000 0.000000 0.000000 0.032473 0.000000
# 6 0.000000 0.000000 0.000000 0.000000 0.000000 0.081923
#
#
# Mechanical properties :
#
#
# Convention : Reuss Voigt Hill
#
# Bulk Modulus (GPa) = 75.93622 75.97940 75.95781
# Shear Modulus (GPa) = 21.45730 24.59766 23.02748
#
# Velocity S-wave (km/s) = 3.21809 3.44554 3.33376
# Velocity P-wave (km/s) = 7.10337 7.24566 7.17487
#
# Compressibility (1/GPa) = 0.01316895
#
# Stress axis : x y z
#
# Youngs Moduli (GPa) = 57.39623 57.39623 79.23531
#
# Poissons Ratio (x) = 0.52828 0.31474
# Poissons Ratio (y) = 0.52828 0.31474
# Poissons Ratio (z) = 0.22799 0.22799
#
# Static dielectric constant tensor:
#      x y z
#    x 3.689870 0.000000 0.000000 
#    y 0.000000 3.689870 0.000000 
#    z 0.000000 0.000000 4.025590 
# 
# 
# High freq. dielectric constant tensor:
#      x y z
#    x 1.798460 0.000000 0.000000 
#    y 0.000000 1.798460 0.000000 
#    z 0.000000 0.000000 1.835400 
# 
# From -- ./inp_files/8576.got.cif
#   From: 2010.03.12/outbox.cif.g09.slc.cpg/sg91_5_cif.got.tgz:8576.got - 2010.04.08 20:27:58.
