data_PCOD8305318
_publ_section_title
;
Structure prediction by ZEFSAII (Michael W. Deem and Ramdas Pophale) SiO2 
 PCOD8305318
Probable space group: P 41 21 2
;
_chemical_formula_sum "Si O2"
_cell_formula_units_Z 40
_cell_length_a 8.281460
_cell_length_b 8.281460
_cell_length_c 25.916028
_cell_angle_alpha 90.000000
_cell_angle_beta 90.000000
_cell_angle_gamma 90.000000
_cell_volume 1777.388057
_symmetry_space_group_name_H-M "P 41 21 2"
_symmetry_group_IT_number 92
_symmetry_cell_setting 'tetragonal'
loop_
_space_group_symop_operation_xyz
x,y,z
1/2-y,1/2+x,1/4+z
-x,-y,1/2+z
1/2+y,1/2-x,3/4+z
1/2+x,1/2-y,3/4-z
1/2-x,1/2+y,1/4-z
y,x,-z
-y,-x,1/2-z
loop_
_atom_site_type_symbol
_atom_site_label
_atom_site_fract_x
_atom_site_fract_y
_atom_site_fract_z
Si Si1 0.624711 0.940332 0.590471
Si Si2 0.656444 0.163503 0.678754
Si Si3 0.656504 0.642004 0.166747
Si Si4 0.402502 0.942824 0.503399
Si Si5 0.400111 0.737957 0.661803
O O1 0.748584 0.828067 0.558391
O O2 0.543821 0.808101 0.627585
O O3 0.707435 0.082125 0.623816
O O4 0.505026 0.026931 0.549697
O O5 0.472599 0.218938 0.675833
O O6 0.674183 0.023335 0.721603
O O7 0.771512 0.666061 0.216575
O O8 0.593635 0.457080 0.163227
O O9 0.736032 0.691800 0.112265
O O10 0.311449 0.077790 0.469397
#
# Coordination Sequence:
#
# PCOD8305318 Si02
#       5
#     8   8   8   8   8
#     4  10  22  40  62  91 125 161 211 263 317 383
#     4  11  23  40  63  91 124 165 208 261 321 378
#     4  11  22  40  63  88 125 164 207 263 316 381
#     4  10  22  37  59  90 120 157 207 252 308 380
#     4  10  21  39  60  88 122 163 208 257 315 376
#
# _framework density 22.504935
#
# number of rings (size 3 to 8) (size 9 to 14) (size 15 to 20)
#    0.000    1.600    0.000    6.000    0.000    6.400 
#    0.000    2.000    0.000    9.600    0.000    0.000 
#    0.000    0.000    0.000    0.000    0.000    0.000 
#
# Total GULP energy -495586.635331 kJ/mol
# GULP energy per Si atom -12389.665883 kJ/mol
# Density = 2.245371 g / cm^3
# Si number density = 22.504935 Si / 1000 Ang^3
#
#
#
# Elastic Constant Matrix: (Units=GPa)
#
#
# Indices 1 2 3 4 5 6 
#
# 1 85.5602 20.2173 26.4867 0.0000 0.0000 0.0000
# 2 20.2173 85.5602 26.4867 0.0000 0.0000 0.0000
# 3 26.4867 26.4867 106.9621 0.0000 0.0000 0.0000
# 4 0.0000 0.0000 0.0000 27.7934 0.0000 0.0000
# 5 0.0000 0.0000 0.0000 0.0000 27.7934 0.0000
# 6 0.0000 0.0000 0.0000 0.0000 0.0000 41.2671
#
#
#
# Elastic Compliance Matrix: (Units=1/GPa)
#
#
# Indices 1 2 3 4 5 6 
#
# 1 0.013048 -0.002256 -0.002672 0.000000 0.000000 0.000000
# 2 -0.002256 0.013048 -0.002672 0.000000 0.000000 0.000000
# 3 -0.002672 -0.002672 0.010673 0.000000 0.000000 0.000000
# 4 0.000000 0.000000 0.000000 0.035980 0.000000 0.000000
# 5 0.000000 0.000000 0.000000 0.000000 0.035980 0.000000
# 6 0.000000 0.000000 0.000000 0.000000 0.000000 0.024232
#
#
# Mechanical properties :
#
#
# Convention : Reuss Voigt Hill
#
# Bulk Modulus (GPa) = 46.36662 47.16265 46.76463
# Shear Modulus (GPa) = 32.18517 33.03024 32.60771
#
# Velocity S-wave (km/s) = 3.78582 3.83520 3.81059
# Velocity P-wave (km/s) = 6.30536 6.37289 6.33921
#
# Compressibility (1/GPa) = 0.02156724
#
# Stress axis : x y z
#
# Youngs Moduli (GPa) = 76.63993 76.63993 93.69748
#
# Poissons Ratio (x) = 0.17289 0.25040
# Poissons Ratio (y) = 0.17289 0.25040
# Poissons Ratio (z) = 0.20482 0.20482
#
# Static dielectric constant tensor:
#      x y z
#    x 3.941500 0.000000 0.000000 
#    y 0.000000 3.941500 0.000000 
#    z 0.000000 0.000000 4.329070 
# 
# 
# High freq. dielectric constant tensor:
#      x y z
#    x 1.877740 0.000000 0.000000 
#    y 0.000000 1.877740 0.000000 
#    z 0.000000 0.000000 1.900440 
# 
# From -- ./inp_files/3786.got.cif
#   From: 2010.03.12/outbox.cif.g09.slc.cpg/sg92_2_cif.got.tgz:3786.got - 2010.04.08 20:41:11.
