data_PCOD8305669
_publ_section_title
;
Structure prediction by ZEFSAII (Michael W. Deem and Ramdas Pophale) SiO2 
 PCOD8305669
Probable space group: P 42 21 2
;
_chemical_formula_sum "Si O2"
_cell_formula_units_Z 58
_cell_length_a 17.805990
_cell_length_b 17.805990
_cell_length_c 9.619561
_cell_angle_alpha 90.000000
_cell_angle_beta 90.000000
_cell_angle_gamma 90.000000
_cell_volume 3049.913366
_symmetry_space_group_name_H-M "P 42 21 2"
_symmetry_group_IT_number 94
_symmetry_cell_setting 'tetragonal'
loop_
_space_group_symop_operation_xyz
x,y,z
1/2-y,1/2+x,1/2+z
-x,-y,z
1/2+y,1/2-x,1/2+z
1/2+x,1/2-y,1/2-z
1/2-x,1/2+y,1/2-z
y,x,-z
-y,-x,-z
loop_
_atom_site_type_symbol
_atom_site_label
_atom_site_fract_x
_atom_site_fract_y
_atom_site_fract_z
Si Si1 0.827005 0.061434 0.554686
Si Si2 0.364703 0.531666 0.690198
Si Si3 0.417065 0.659990 0.881294
Si Si4 0.000000 0.000000 0.000000
Si Si5 0.071191 0.667403 0.335813
Si Si6 0.462301 0.080784 0.915267
Si Si7 0.702460 0.970153 0.915088
Si Si8 0.945783 0.690421 0.776754
O O1 0.861461 0.138540 0.500000
O O2 0.738337 0.074708 0.561287
O O3 0.854436 0.037983 0.706628
O O4 0.854282 0.997687 0.448886
O O5 0.405762 0.602563 0.756846
O O6 0.420915 0.497959 0.578515
O O7 0.283607 0.561932 0.633786
O O8 0.418090 0.742684 0.820141
O O9 0.352505 0.647496 0.000000
O O10 0.020827 0.607990 0.425740
O O11 0.153203 0.633413 0.315292
O O12 0.041955 0.685390 0.181448
O O13 0.371326 0.082233 0.892884
O O14 0.498095 0.135886 0.803362
O O15 0.500000 0.000000 0.895547
O O16 0.712436 0.988714 0.079430
#
# Coordination Sequence:
#
# PCOD8305669 Si02
#       8
#     8   8   8   2   8   8   8   8
#     4  10  20  39  63  87 120 158 210 260 312 379
#     4  10  22  38  61  93 125 163 213 267 320 374
#     4  10  21  41  64  89 122 168 214 262 313 387
#     4  12  20  36  66  88 120 172 208 258 318 384
#     4  10  22  39  58  90 127 160 204 265 312 377
#     4  11  22  38  65  91 120 171 215 259 311 388
#     4  10  23  37  58  95 130 156 203 280 315 371
#     4  11  22  39  62  92 126 166 217 255 322 386
#
# _framework density 19.016933999999999
#
# number of rings (size 3 to 8) (size 9 to 14) (size 15 to 20)
#    0.000    1.655    2.759    1.655    3.862    1.931 
#    4.966    0.000    6.069    0.000    0.000    0.000 
#    0.000    0.000    0.000    0.000    0.000    0.000 
#
# Total GULP energy -718619.535971 kJ/mol
# GULP energy per Si atom -12389.991999 kJ/mol
# Density = 1.897365 g / cm^3
# Si number density = 19.016934 Si / 1000 Ang^3
#
#
#
# Elastic Constant Matrix: (Units=GPa)
#
#
# Indices 1 2 3 4 5 6 
#
# 1 102.0063 58.8724 57.6187 0.0000 0.0000 0.0000
# 2 58.8724 102.0014 57.6175 0.0000 0.0000 0.0000
# 3 57.6187 57.6175 126.5985 0.0000 0.0000 0.0000
# 4 0.0000 0.0000 0.0000 29.5699 0.0000 0.0000
# 5 0.0000 0.0000 0.0000 0.0000 29.5686 0.0000
# 6 0.0000 0.0000 0.0000 0.0000 0.0000 22.6173
#
#
#
# Elastic Compliance Matrix: (Units=1/GPa)
#
#
# Indices 1 2 3 4 5 6 
#
# 1 0.016203 -0.006981 -0.004197 0.000000 0.000000 0.000000
# 2 -0.006981 0.016204 -0.004198 0.000000 0.000000 0.000000
# 3 -0.004197 -0.004198 0.011720 0.000000 0.000000 0.000000
# 4 0.000000 0.000000 0.000000 0.033818 0.000000 0.000000
# 5 0.000000 0.000000 0.000000 0.000000 0.033820 0.000000
# 6 0.000000 0.000000 0.000000 0.000000 0.000000 0.044214
#
#
# Mechanical properties :
#
#
# Convention : Reuss Voigt Hill
#
# Bulk Modulus (GPa) = 74.76546 75.42482 75.09514
# Shear Modulus (GPa) = 26.15207 26.78433 26.46820
#
# Velocity S-wave (km/s) = 3.71239 3.75700 3.73476
# Velocity P-wave (km/s) = 7.60108 7.65298 7.62707
#
# Compressibility (1/GPa) = 0.01337516
#
# Stress axis : x y z
#
# Youngs Moduli (GPa) = 61.71555 61.71245 85.32639
#
# Poissons Ratio (x) = 0.43083 0.35815
# Poissons Ratio (y) = 0.43085 0.35816
# Poissons Ratio (z) = 0.25904 0.25904
#
# Static dielectric constant tensor:
#      x y z
#    x 3.552700 0.000000 0.000000 
#    y 0.000000 3.552710 0.000000 
#    z 0.000000 0.000000 3.858950 
# 
# 
# High freq. dielectric constant tensor:
#      x y z
#    x 1.729770 0.000000 0.000000 
#    y 0.000000 1.729770 0.000000 
#    z 0.000000 0.000000 1.760270 
# 
# From -- ./inp_files/1729.got.cif
#   From: 2010.03.12/outbox.cif.g09.slc.cpg/sg94_1_cif.got.tgz:1729.got - 2010.04.08 20:48:32.
