data_PCOD8305152
_publ_section_title
;
Structure prediction by ZEFSAII (Michael W. Deem and Ramdas Pophale) SiO2 
 PCOD8305152
Probable space group: P 41 2 2
;
_chemical_formula_sum "Si O2"
_cell_formula_units_Z 32
_cell_length_a 8.996645
_cell_length_b 8.996645
_cell_length_c 16.614166
_cell_angle_alpha 90.000000
_cell_angle_beta 90.000000
_cell_angle_gamma 90.000000
_cell_volume 1344.744304
_symmetry_space_group_name_H-M "P 41 2 2"
_symmetry_group_IT_number 91
_symmetry_cell_setting 'tetragonal'
loop_
_space_group_symop_operation_xyz
x,y,z
-y,x,1/4+z
-x,-y,1/2+z
y,-x,3/4+z
x,-y,1/2-z
-x,y,-z
y,x,3/4-z
-y,-x,1/4-z
loop_
_atom_site_type_symbol
_atom_site_label
_atom_site_fract_x
_atom_site_fract_y
_atom_site_fract_z
Si Si1 0.709904 0.482259 0.571416
Si Si2 0.085680 0.868686 0.921416
Si Si3 0.577530 0.236833 0.863262
Si Si4 0.976648 0.407654 0.828309
O O1 0.658423 0.341578 0.625000
O O2 0.591835 0.616204 0.582553
O O3 0.714114 0.430823 0.479483
O O4 0.870539 0.540351 0.599102
O O5 0.129774 0.720569 0.872263
O O6 0.234243 0.960995 0.941697
O O7 0.974914 0.974914 0.875000
O O8 0.000000 0.812930 0.000000
O O9 0.433987 0.146932 0.893854
O O10 0.932752 0.500000 0.750000
#
# Coordination Sequence:
#
# PCOD8305152 Si02
#       4
#     8   8   8   8
#     4  11  23  44  69  98 132 178 229 284 351 423
#     4  11  24  42  66  95 131 177 227 279 340 414
#     4  11  25  43  68  99 137 179 229 291 353 422
#     4  11  24  41  65  98 136 178 226 284 348 419
#
# _framework density 23.796346
#
# number of rings (size 3 to 8) (size 9 to 14) (size 15 to 20)
#    0.000    1.000    0.000    7.500    0.000   11.000 
#    0.000    0.000    0.000    0.000    0.000    0.000 
#    0.000    0.000    0.000    0.000    0.000    0.000 
#
# Total GULP energy -396942.660314 kJ/mol
# GULP energy per Si atom -12404.458135 kJ/mol
# Density = 2.374218 g / cm^3
# Si number density = 23.796346 Si / 1000 Ang^3
#
#
#
# Elastic Constant Matrix: (Units=GPa)
#
#
# Indices 1 2 3 4 5 6 
#
# 1 90.3240 18.7733 14.9724 0.0000 0.0000 0.0000
# 2 18.7733 90.3255 14.9720 0.0000 0.0000 0.0000
# 3 14.9724 14.9720 48.8943 0.0000 0.0000 0.0000
# 4 0.0000 0.0000 0.0000 37.7119 0.0000 0.0000
# 5 0.0000 0.0000 0.0000 0.0000 37.7119 0.0000
# 6 0.0000 0.0000 0.0000 0.0000 0.0000 50.2042
#
#
#
# Elastic Compliance Matrix: (Units=1/GPa)
#
#
# Indices 1 2 3 4 5 6 
#
# 1 0.011992 -0.001984 -0.003064 0.000000 0.000000 0.000000
# 2 -0.001984 0.011991 -0.003064 0.000000 0.000000 0.000000
# 3 -0.003064 -0.003064 0.022329 0.000000 0.000000 0.000000
# 4 0.000000 0.000000 0.000000 0.026517 0.000000 0.000000
# 5 0.000000 0.000000 0.000000 0.000000 0.026517 0.000000
# 6 0.000000 0.000000 0.000000 0.000000 0.000000 0.019919
#
#
# Mechanical properties :
#
#
# Convention : Reuss Voigt Hill
#
# Bulk Modulus (GPa) = 33.23817 36.33103 34.78460
# Shear Modulus (GPa) = 34.35970 37.18066 35.77018
#
# Velocity S-wave (km/s) = 3.80400 3.95708 3.88129
# Velocity P-wave (km/s) = 5.76992 6.01486 5.89366
#
# Compressibility (1/GPa) = 0.03008590
#
# Stress axis : x y z
#
# Youngs Moduli (GPa) = 83.39124 83.39283 44.78479
#
# Poissons Ratio (x) = 0.16549 0.13724
# Poissons Ratio (y) = 0.16548 0.13723
# Poissons Ratio (z) = 0.25555 0.25554
#
# Static dielectric constant tensor:
#      x y z
#    x 4.397230 0.000000 0.000000 
#    y 0.000000 4.397220 0.000000 
#    z 0.000000 0.000000 4.208230 
# 
# 
# High freq. dielectric constant tensor:
#      x y z
#    x 1.953350 0.000000 0.000000 
#    y 0.000000 1.953350 0.000000 
#    z 0.000000 0.000000 1.935140 
# 
# From -- ./inp_files/6008.got.cif
#   From: 2010.03.12/outbox.cif.g09.slc.cpg/sg91_4_cif.got.tgz:6008.got - 2010.04.08 20:27:58.
