data_PCOD8305429
_publ_section_title
;
Structure prediction by ZEFSAII (Michael W. Deem and Ramdas Pophale) SiO2 
 PCOD8305429
Probable space group: P 41 21 2
;
_chemical_formula_sum "Si O2"
_cell_formula_units_Z 36
_cell_length_a 11.462984
_cell_length_b 11.462984
_cell_length_c 11.546194
_cell_angle_alpha 90.000000
_cell_angle_beta 90.000000
_cell_angle_gamma 90.000000
_cell_volume 1517.169917
_symmetry_space_group_name_H-M "P 41 21 2"
_symmetry_group_IT_number 92
_symmetry_cell_setting 'tetragonal'
loop_
_space_group_symop_operation_xyz
x,y,z
1/2-y,1/2+x,1/4+z
-x,-y,1/2+z
1/2+y,1/2-x,3/4+z
1/2+x,1/2-y,3/4-z
1/2-x,1/2+y,1/4-z
y,x,-z
-y,-x,1/2-z
loop_
_atom_site_type_symbol
_atom_site_label
_atom_site_fract_x
_atom_site_fract_y
_atom_site_fract_z
Si Si1 0.960488 0.534198 0.611186
Si Si2 0.600596 0.297019 0.635418
Si Si3 0.995855 0.004146 0.250000
Si Si4 0.460105 0.698547 0.674246
Si Si5 0.671075 0.842604 0.736410
O O1 0.015199 0.526808 0.741769
O O2 0.943725 0.669365 0.584266
O O3 0.849824 0.446293 0.608448
O O4 0.633577 0.366424 0.750000
O O5 0.501685 0.373883 0.570023
O O6 0.711145 0.277706 0.551463
O O7 0.009897 0.893313 0.167076
O O8 0.360975 0.639026 0.750000
O O9 0.568702 0.746522 0.748647
O O10 0.402984 0.810883 0.611334
#
# Coordination Sequence:
#
# PCOD8305429 Si02
#       5
#     8   8   4   8   8
#     4  12  26  47  77 111 150 201 257 314 381 460
#     4  11  23  44  77 110 144 203 257 312 377 464
#     4  10  26  44  72 112 144 194 246 318 382 446
#     4  11  25  47  72 107 154 195 250 316 379 458
#     4  11  24  45  77 105 146 204 255 313 380 452
#
# _framework density 23.728390999999998
#
# number of rings (size 3 to 8) (size 9 to 14) (size 15 to 20)
#    0.000    0.889    4.444    0.667    7.778    5.333 
#    2.000    0.000    0.000    0.000    0.000    0.000 
#    0.000    0.000    0.000    0.000    0.000    0.000 
#
# Total GULP energy -446079.704152 kJ/mol
# GULP energy per Si atom -12391.102893 kJ/mol
# Density = 2.367438 g / cm^3
# Si number density = 23.728391 Si / 1000 Ang^3
#
#
#
# Elastic Constant Matrix: (Units=GPa)
#
#
# Indices 1 2 3 4 5 6 
#
# 1 82.2325 45.4341 39.3841 0.0000 0.0000 0.0000
# 2 45.4341 82.2304 39.3820 0.0000 0.0000 0.0000
# 3 39.3841 39.3820 144.7748 0.0000 0.0000 0.0000
# 4 0.0000 0.0000 0.0000 33.0739 0.0000 0.0000
# 5 0.0000 0.0000 0.0000 0.0000 33.0719 0.0000
# 6 0.0000 0.0000 0.0000 0.0000 0.0000 31.0365
#
#
#
# Elastic Compliance Matrix: (Units=1/GPa)
#
#
# Indices 1 2 3 4 5 6 
#
# 1 0.018294 -0.008882 -0.002561 0.000000 0.000000 0.000000
# 2 -0.008882 0.018294 -0.002560 0.000000 0.000000 0.000000
# 3 -0.002561 -0.002560 0.008300 0.000000 0.000000 0.000000
# 4 0.000000 0.000000 0.000000 0.030235 0.000000 0.000000
# 5 0.000000 0.000000 0.000000 0.000000 0.030237 0.000000
# 6 0.000000 0.000000 0.000000 0.000000 0.000000 0.032220
#
#
# Mechanical properties :
#
#
# Convention : Reuss Voigt Hill
#
# Bulk Modulus (GPa) = 59.22878 61.95978 60.59428
# Shear Modulus (GPa) = 29.20307 31.77230 30.48769
#
# Velocity S-wave (km/s) = 3.51197 3.66320 3.58838
# Velocity P-wave (km/s) = 6.43899 6.63784 6.53917
#
# Compressibility (1/GPa) = 0.01688368
#
# Stress axis : x y z
#
# Youngs Moduli (GPa) = 54.66207 54.66135 120.47653
#
# Poissons Ratio (x) = 0.48548 0.30851
# Poissons Ratio (y) = 0.48549 0.30847
# Poissons Ratio (z) = 0.13997 0.13995
#
# Static dielectric constant tensor:
#      x y z
#    x 4.215180 0.000000 0.000000 
#    y 0.000000 4.215170 0.000000 
#    z 0.000000 0.000000 4.549610 
# 
# 
# High freq. dielectric constant tensor:
#      x y z
#    x 1.931520 0.000000 0.000000 
#    y 0.000000 1.931520 0.000000 
#    z 0.000000 0.000000 1.955530 
# 
# From -- ./inp_files/2008.got.cif
#   From: 2010.03.12/outbox.cif.g09.slc.cpg/sg92_2_cif.got.tgz:2008.got - 2010.04.08 20:41:11.
