data_PCOD8305582
_publ_section_title
;
Structure prediction by ZEFSAII (Michael W. Deem and Ramdas Pophale) SiO2 
 PCOD8305582
Probable space group: P 42 2 2
;
_chemical_formula_sum "Si O2"
_cell_formula_units_Z 24
_cell_length_a 11.358239
_cell_length_b 11.358239
_cell_length_c 8.275103
_cell_angle_alpha 90.000000
_cell_angle_beta 90.000000
_cell_angle_gamma 90.000000
_cell_volume 1067.567672
_symmetry_space_group_name_H-M "P 42 2 2"
_symmetry_group_IT_number 93
_symmetry_cell_setting 'tetragonal'
loop_
_space_group_symop_operation_xyz
x,y,z
-y,x,1/2+z
-x,-y,z
y,-x,1/2+z
x,-y,-z
-x,y,-z
y,x,1/2-z
-y,-x,1/2-z
loop_
_atom_site_type_symbol
_atom_site_label
_atom_site_fract_x
_atom_site_fract_y
_atom_site_fract_z
Si Si1 0.283942 0.887833 0.705040
Si Si2 0.678556 0.845621 0.667902
Si Si3 0.461378 0.287362 0.179464
O O1 0.147105 0.852896 0.750000
O O2 0.313823 0.847536 0.524132
O O3 0.360604 0.811292 0.829392
O O4 0.321887 0.021425 0.735073
O O5 0.793881 0.793881 0.750000
O O6 0.566949 0.765611 0.713261
O O7 0.409699 0.409699 0.250000
O O8 0.500000 0.316529 0.000000
#
# Coordination Sequence:
#
# PCOD8305582 Si02
#       3
#     8   8   8
#     4  10  23  42  65  95 126 167 217 260 318 383
#     4  11  23  41  65  93 131 168 207 266 321 378
#     4  11  24  43  66  93 127 168 217 266 318 382
#
# _framework density 22.481010000000001
#
# number of rings (size 3 to 8) (size 9 to 14) (size 15 to 20)
#    0.000    1.333    0.000    6.000    0.000   10.667 
#    0.000   10.000    0.000    0.000    0.000    0.000 
#    0.000    0.000    0.000    0.000    0.000    0.000 
#
# Total GULP energy -297487.837714 kJ/mol
# GULP energy per Si atom -12395.326571 kJ/mol
# Density = 2.242984 g / cm^3
# Si number density = 22.481010 Si / 1000 Ang^3
#
#
#
# Elastic Constant Matrix: (Units=GPa)
#
#
# Indices 1 2 3 4 5 6 
#
# 1 71.9403 152.7988 69.7049 0.0000 0.0000 0.0000
# 2 152.7988 71.9346 69.7032 0.0000 0.0000 0.0000
# 3 69.7049 69.7032 102.0796 0.0000 0.0000 0.0000
# 4 0.0000 0.0000 0.0000 36.3625 0.0000 0.0000
# 5 0.0000 0.0000 0.0000 0.0000 36.3628 0.0000
# 6 0.0000 0.0000 0.0000 0.0000 0.0000 35.0825
#
#
#
# Elastic Compliance Matrix: (Units=1/GPa)
#
#
# Indices 1 2 3 4 5 6 
#
# 1 -0.002324 0.010043 -0.005271 0.000000 0.000000 0.000000
# 2 0.010043 -0.002324 -0.005271 0.000000 0.000000 0.000000
# 3 -0.005271 -0.005271 0.016995 0.000000 0.000000 0.000000
# 4 0.000000 0.000000 0.000000 0.027501 0.000000 0.000000
# 5 0.000000 0.000000 0.000000 0.000000 0.027501 0.000000
# 6 0.000000 0.000000 0.000000 0.000000 0.000000 0.028504
#
#
# Mechanical properties :
#
#
# Convention : Reuss Voigt Hill
#
# Bulk Modulus (GPa) = 88.11129 92.26315 90.18722
# Shear Modulus (GPa) = 49.68463 18.47806 34.08135
#
# Velocity S-wave (km/s) = 4.70624 2.87006 3.89782
# Velocity P-wave (km/s) = 8.29520 7.21890 7.77570
#
# Compressibility (1/GPa) = 0.01134928
#
# Stress axis : x y z
#
# Youngs Moduli (GPa) = -430.37800 -430.31943 58.84087
#
# Poissons Ratio (x) = 4.32176 0.31016
# Poissons Ratio (y) = 4.32235 0.31016
# Poissons Ratio (z) = -2.26859 -2.26828
#
# Static dielectric constant tensor:
#      x y z
#    x 4.427690 0.000000 0.000000 
#    y 0.000000 4.427690 0.000000 
#    z 0.000000 0.000000 4.124460 
# 
# 
# High freq. dielectric constant tensor:
#      x y z
#    x 1.894230 0.000000 0.000000 
#    y 0.000000 1.894230 0.000000 
#    z 0.000000 0.000000 1.891520 
# 
# From -- ./inp_files/1241.got.cif
#   From: 2010.03.12/outbox.cif.g09.slc.cpg/sg93_1_cif.got.tgz:1241.got - 2010.04.08 20:44:19.
