data_PCOD8305768
_publ_section_title
;
Structure prediction by ZEFSAII (Michael W. Deem and Ramdas Pophale) SiO2 
 PCOD8305768
Probable space group: P 42 21 2
;
_chemical_formula_sum "Si O2"
_cell_formula_units_Z 64
_cell_length_a 24.371326
_cell_length_b 24.371326
_cell_length_c 5.414873
_cell_angle_alpha 90.000000
_cell_angle_beta 90.000000
_cell_angle_gamma 90.000000
_cell_volume 3216.226257
_symmetry_space_group_name_H-M "P 42 21 2"
_symmetry_group_IT_number 94
_symmetry_cell_setting 'tetragonal'
loop_
_space_group_symop_operation_xyz
x,y,z
1/2-y,1/2+x,1/2+z
-x,-y,z
1/2+y,1/2-x,1/2+z
1/2+x,1/2-y,1/2-z
1/2-x,1/2+y,1/2-z
y,x,-z
-y,-x,-z
loop_
_atom_site_type_symbol
_atom_site_label
_atom_site_fract_x
_atom_site_fract_y
_atom_site_fract_z
Si Si1 0.254750 0.035977 0.717242
Si Si2 0.167214 0.634419 0.265163
Si Si3 0.870406 0.452686 0.626215
Si Si4 0.971292 0.249215 0.773653
Si Si5 0.131459 0.824759 0.748514
Si Si6 0.645596 0.267065 0.038313
Si Si7 0.932290 0.366042 0.909247
Si Si8 0.278212 0.796989 0.368934
O O1 0.319598 0.049259 0.682470
O O2 0.236188 0.003530 0.476155
O O3 0.222158 0.093993 0.718640
O O4 0.242955 0.005465 0.973359
O O5 0.149523 0.575733 0.374141
O O6 0.163415 0.684708 0.459846
O O7 0.232177 0.625673 0.200703
O O8 0.123023 0.648986 0.055619
O O9 0.921639 0.418146 0.731177
O O10 0.885274 0.516366 0.577842
O O11 0.928342 0.200161 0.774825
O O12 0.945901 0.310484 0.758903
O O13 0.137822 0.862179 0.500000
O O14 0.173698 0.775139 0.732691
O O15 0.141574 0.858427 0.000000
O O16 0.687295 0.221555 0.136381
O O17 0.674256 0.325745 0.000000
O O18 0.259456 0.740545 0.500000
#
# Coordination Sequence:
#
# PCOD8305768 Si02
#       8
#     8   8   8   8   8   8   8   8
#     4  11  24  42  64  88 125 168 213 252 311 392
#     4  12  22  41  60  85 118 159 210 259 328 393
#     4  11  25  41  63  83 112 160 219 281 325 377
#     4  11  25  43  66  90 126 173 209 256 324 373
#     4  11  24  39  62  95 131 161 209 257 309 380
#     4  12  22  37  60  92 125 164 201 255 313 387
#     4  11  26  40  66  77 120 158 227 270 337 368
#     4  11  23  33  58  89 127 157 202 256 319 383
#
# _framework density 19.899097999999999
#
# number of rings (size 3 to 8) (size 9 to 14) (size 15 to 20)
#    0.000    0.750    3.750    4.125   12.250    0.000 
#    0.000    1.875    0.000    0.000    0.000    0.000 
#    0.000    7.500    0.000    0.000    0.000    0.000 
#
# Total GULP energy -793340.610757 kJ/mol
# GULP energy per Si atom -12395.947043 kJ/mol
# Density = 1.985381 g / cm^3
# Si number density = 19.899098 Si / 1000 Ang^3
#
#
#
# Elastic Constant Matrix: (Units=GPa)
#
#
# Indices 1 2 3 4 5 6 
#
# 1 90.7898 57.4487 33.8978 0.0000 0.0000 0.0000
# 2 57.4487 90.7881 33.8962 0.0000 0.0000 0.0000
# 3 33.8978 33.8962 100.8400 0.0000 0.0000 0.0000
# 4 0.0000 0.0000 0.0000 25.5434 0.0000 0.0000
# 5 0.0000 0.0000 0.0000 0.0000 25.5432 0.0000
# 6 0.0000 0.0000 0.0000 0.0000 0.0000 33.7542
#
#
#
# Elastic Compliance Matrix: (Units=1/GPa)
#
#
# Indices 1 2 3 4 5 6 
#
# 1 0.018982 -0.011011 -0.002680 0.000000 0.000000 0.000000
# 2 -0.011011 0.018983 -0.002679 0.000000 0.000000 0.000000
# 3 -0.002680 -0.002679 0.011718 0.000000 0.000000 0.000000
# 4 0.000000 0.000000 0.000000 0.039149 0.000000 0.000000
# 5 0.000000 0.000000 0.000000 0.000000 0.039149 0.000000
# 6 0.000000 0.000000 0.000000 0.000000 0.000000 0.029626
#
#
# Mechanical properties :
#
#
# Convention : Reuss Voigt Hill
#
# Bulk Modulus (GPa) = 59.02250 59.21148 59.11699
# Shear Modulus (GPa) = 25.51075 27.44650 26.47863
#
# Velocity S-wave (km/s) = 3.58439 3.71790 3.65176
# Velocity P-wave (km/s) = 6.84513 6.94628 6.89589
#
# Compressibility (1/GPa) = 0.01694269
#
# Stress axis : x y z
#
# Youngs Moduli (GPa) = 52.68012 52.67969 85.33778
#
# Poissons Ratio (x) = 0.58007 0.22868
# Poissons Ratio (y) = 0.58007 0.22865
# Poissons Ratio (z) = 0.14117 0.14115
#
# Static dielectric constant tensor:
#      x y z
#    x 3.770910 0.000000 0.000000 
#    y 0.000000 3.770910 0.000000 
#    z 0.000000 0.000000 3.729370 
# 
# 
# High freq. dielectric constant tensor:
#      x y z
#    x 1.758040 0.000000 0.000000 
#    y 0.000000 1.758040 0.000000 
#    z 0.000000 0.000000 1.788980 
# 
# From -- ./inp_files/671.got.cif
#   From: 2010.03.12/outbox.cif.g09.slc.cpg/sg94_1_cif.got.tgz:671.got - 2010.04.08 20:48:32.
