data_PCOD8305189
_publ_section_title
;
Structure prediction by ZEFSAII (Michael W. Deem and Ramdas Pophale) SiO2 
 PCOD8305189
Probable space group: P 41 2 2
;
_chemical_formula_sum "Si O2"
_cell_formula_units_Z 48
_cell_length_a 8.294526
_cell_length_b 8.294526
_cell_length_c 30.700815
_cell_angle_alpha 90.000000
_cell_angle_beta 90.000000
_cell_angle_gamma 90.000000
_cell_volume 2112.190331
_symmetry_space_group_name_H-M "P 41 2 2"
_symmetry_group_IT_number 91
_symmetry_cell_setting 'tetragonal'
loop_
_space_group_symop_operation_xyz
x,y,z
-y,x,1/4+z
-x,-y,1/2+z
y,-x,3/4+z
x,-y,1/2-z
-x,y,-z
y,x,3/4-z
-y,-x,1/4-z
loop_
_atom_site_type_symbol
_atom_site_label
_atom_site_fract_x
_atom_site_fract_y
_atom_site_fract_z
Si Si1 0.262237 0.863327 0.543637
Si Si2 0.051598 0.051598 0.875000
Si Si3 0.651227 0.000000 0.250000
Si Si4 0.561502 0.814422 0.812725
Si Si5 0.150995 0.659770 0.231015
Si Si6 0.671526 0.474587 0.340538
Si Si7 0.015840 0.310578 0.642025
O O1 0.186600 0.918561 0.589082
O O2 0.150273 0.757040 0.513314
O O3 0.423045 0.756021 0.551607
O O4 0.283426 0.028246 0.517745
O O5 0.876746 0.060764 0.896928
O O6 0.547806 0.952933 0.207773
O O7 0.703696 0.782343 0.777974
O O8 0.457651 0.653917 0.822232
O O9 0.648642 0.883086 0.855617
O O10 0.234448 0.500000 0.250000
O O11 0.053833 0.621418 0.186988
O O12 0.589170 0.589170 0.375000
O O13 0.813430 0.391507 0.368143
#
# Coordination Sequence:
#
# PCOD8305189 Si02
#       7
#     8   4   4   8   8   8   8
#     4  12  27  48  76 112 147 210 249 317 394 460
#     4  12  26  48  78 104 156 196 256 300 382 470
#     4  12  30  46  72 110 156 188 260 320 386 472
#     4  12  29  49  76 114 151 201 261 320 388 464
#     4  12  26  47  78 109 150 199 257 312 380 454
#     4  12  26  47  78 109 154 193 256 319 387 457
#     4  12  26  50  76 107 152 204 251 314 386 468
#
# _framework density 22.725221999999999
#
# number of rings (size 3 to 8) (size 9 to 14) (size 15 to 20)
#    0.000    0.000    4.167    5.000    7.000    1.333 
#    0.000    0.000    0.000    0.000    0.000    0.000 
#    0.000    0.000    0.000    0.000    0.000    0.000 
#
# Total GULP energy -595281.537600 kJ/mol
# GULP energy per Si atom -12401.698700 kJ/mol
# Density = 2.267350 g / cm^3
# Si number density = 22.725222 Si / 1000 Ang^3
#
#
#
# Elastic Constant Matrix: (Units=GPa)
#
#
# Indices 1 2 3 4 5 6 
#
# 1 100.0722 51.4615 27.5240 0.0000 0.0000 0.0000
# 2 51.4615 100.0722 27.5240 0.0000 0.0000 0.0000
# 3 27.5240 27.5240 109.6151 0.0000 0.0000 0.0000
# 4 0.0000 0.0000 0.0000 39.5622 0.0000 0.0000
# 5 0.0000 0.0000 0.0000 0.0000 39.5622 0.0000
# 6 0.0000 0.0000 0.0000 0.0000 0.0000 34.1896
#
#
#
# Elastic Compliance Matrix: (Units=1/GPa)
#
#
# Indices 1 2 3 4 5 6 
#
# 1 0.013917 -0.006655 -0.001823 0.000000 0.000000 0.000000
# 2 -0.006655 0.013917 -0.001823 0.000000 0.000000 0.000000
# 3 -0.001823 -0.001823 0.010039 0.000000 0.000000 0.000000
# 4 0.000000 0.000000 0.000000 0.025277 0.000000 0.000000
# 5 0.000000 0.000000 0.000000 0.000000 0.025277 0.000000
# 6 0.000000 0.000000 0.000000 0.000000 0.000000 0.029249
#
#
# Mechanical properties :
#
#
# Convention : Reuss Voigt Hill
#
# Bulk Modulus (GPa) = 57.90984 58.08649 57.99817
# Shear Modulus (GPa) = 34.71422 36.21280 35.46351
#
# Velocity S-wave (km/s) = 3.91265 3.99621 3.95465
# Velocity P-wave (km/s) = 6.77862 6.84900 6.81390
#
# Compressibility (1/GPa) = 0.01726822
#
# Stress axis : x y z
#
# Youngs Moduli (GPa) = 71.85665 71.85665 99.61644
#
# Poissons Ratio (x) = 0.47821 0.18164
# Poissons Ratio (y) = 0.47821 0.18164
# Poissons Ratio (z) = 0.13102 0.13102
#
# Static dielectric constant tensor:
#      x y z
#    x 4.346180 0.000000 0.000000 
#    y 0.000000 4.346180 0.000000 
#    z 0.000000 0.000000 4.128570 
# 
# 
# High freq. dielectric constant tensor:
#      x y z
#    x 1.913860 0.000000 0.000000 
#    y 0.000000 1.913860 0.000000 
#    z 0.000000 0.000000 1.900940 
# 
# From -- ./inp_files/18211.got.cif
#   From: 2010.03.12/outbox.cif.g09.slc.cpg/sg91_10_cif.got.tgz:18211.got - 2010.04.08 20:27:58.
