data_PCOD8305046
_publ_section_title
;
Structure prediction by ZEFSAII (Michael W. Deem and Ramdas Pophale) SiO2 
 PCOD8305046
Probable space group: P 41 2 2
;
_chemical_formula_sum "Si O2"
_cell_formula_units_Z 40
_cell_length_a 15.146872
_cell_length_b 15.146872
_cell_length_c 8.208871
_cell_angle_alpha 90.000000
_cell_angle_beta 90.000000
_cell_angle_gamma 90.000000
_cell_volume 1883.342651
_symmetry_space_group_name_H-M "P 41 2 2"
_symmetry_group_IT_number 91
_symmetry_cell_setting 'tetragonal'
loop_
_space_group_symop_operation_xyz
x,y,z
-y,x,1/4+z
-x,-y,1/2+z
y,-x,3/4+z
x,-y,1/2-z
-x,y,-z
y,x,3/4-z
-y,-x,1/4-z
loop_
_atom_site_type_symbol
_atom_site_label
_atom_site_fract_x
_atom_site_fract_y
_atom_site_fract_z
Si Si1 0.276319 0.723682 0.625000
Si Si2 0.000000 0.114514 0.500000
Si Si3 0.881696 0.730677 0.125675
Si Si4 0.415627 0.040839 0.915617
Si Si5 0.369373 0.223959 0.380579
Si Si6 0.789458 0.442512 0.977110
O O1 0.255694 0.794699 0.484340
O O2 0.277714 0.624955 0.558549
O O3 0.071098 0.175871 0.593853
O O4 0.948004 0.051997 0.625000
O O5 0.951755 0.666406 0.212704
O O6 0.854043 0.685026 0.956243
O O7 0.455980 0.132827 0.855653
O O8 0.378209 0.000000 0.750000
O O9 0.500000 0.990513 0.000000
O O10 0.313056 0.313056 0.375000
O O11 0.395313 0.183274 0.556258
O O12 0.460725 0.251963 0.293265
#
# Coordination Sequence:
#
# PCOD8305046 Si02
#       6
#     4   4   8   8   8   8
#     4  10  22  42  68 100 138 184 232 286 348 424
#     4  12  32  52  76  98 138 184 234 304 352 434
#     4  11  25  45  72  99 134 180 238 284 359 419
#     4  11  25  39  64 105 143 176 223 292 363 432
#     4  11  21  41  69  97 138 183 240 278 343 415
#     4  10  23  39  66  98 139 189 225 291 345 409
#
# _framework density 21.238833
#
# number of rings (size 3 to 8) (size 9 to 14) (size 15 to 20)
#    0.000    1.200    4.000    0.600    8.400    1.600 
#    0.000    0.000    8.800    0.000    0.000    0.000 
#    0.000    0.000    0.000    0.000    0.000    0.000 
#
# Total GULP energy -495747.749235 kJ/mol
# GULP energy per Si atom -12393.693731 kJ/mol
# Density = 2.119049 g / cm^3
# Si number density = 21.238833 Si / 1000 Ang^3
#
#
#
# Elastic Constant Matrix: (Units=GPa)
#
#
# Indices 1 2 3 4 5 6 
#
# 1 104.1616 60.7436 48.5515 0.0000 0.0000 0.0000
# 2 60.7436 104.1619 48.5517 0.0000 0.0000 0.0000
# 3 48.5515 48.5517 105.8372 0.0000 0.0000 0.0000
# 4 0.0000 0.0000 0.0000 37.8197 0.0000 0.0000
# 5 0.0000 0.0000 0.0000 0.0000 37.8197 0.0000
# 6 0.0000 0.0000 0.0000 0.0000 0.0000 22.5447
#
#
#
# Elastic Compliance Matrix: (Units=1/GPa)
#
#
# Indices 1 2 3 4 5 6 
#
# 1 0.015670 -0.007362 -0.003811 0.000000 0.000000 0.000000
# 2 -0.007362 0.015670 -0.003811 0.000000 0.000000 0.000000
# 3 -0.003811 -0.003811 0.012945 0.000000 0.000000 0.000000
# 4 0.000000 0.000000 0.000000 0.026441 0.000000 0.000000
# 5 0.000000 0.000000 0.000000 0.000000 0.026441 0.000000
# 6 0.000000 0.000000 0.000000 0.000000 0.000000 0.044356
#
#
# Mechanical properties :
#
#
# Convention : Reuss Voigt Hill
#
# Bulk Modulus (GPa) = 69.84904 69.98381 69.91642
# Shear Modulus (GPa) = 28.36632 30.05775 29.21203
#
# Velocity S-wave (km/s) = 3.65853 3.76603 3.71267
# Velocity P-wave (km/s) = 7.12778 7.20646 7.16723
#
# Compressibility (1/GPa) = 0.01431659
#
# Stress axis : x y z
#
# Youngs Moduli (GPa) = 63.81575 63.81586 77.24794
#
# Poissons Ratio (x) = 0.46979 0.29442
# Poissons Ratio (y) = 0.46979 0.29442
# Poissons Ratio (z) = 0.24323 0.24323
#
# Static dielectric constant tensor:
#      x y z
#    x 3.820620 0.000000 0.000000 
#    y 0.000000 3.820620 0.000000 
#    z 0.000000 0.000000 4.535070 
# 
# 
# High freq. dielectric constant tensor:
#      x y z
#    x 1.825750 0.000000 0.000000 
#    y 0.000000 1.825750 0.000000 
#    z 0.000000 0.000000 1.857230 
# 
# From -- ./inp_files/19460.got.cif
#   From: 2010.03.12/outbox.cif.g09.slc.cpg/sg91_10_cif.got.tgz:19460.got - 2010.04.08 20:27:58.
