data_PCOD8306996
_publ_section_title
;
Structure prediction by ZEFSAII (Michael W. Deem and Ramdas Pophale) SiO2 
 PCOD8306996
Probable space group: P 4 C C
;
_chemical_formula_sum "Si O2"
_cell_formula_units_Z 60
_cell_length_a 11.819065
_cell_length_b 11.819065
_cell_length_c 18.863533
_cell_angle_alpha 90.000000
_cell_angle_beta 90.000000
_cell_angle_gamma 90.000000
_cell_volume 2635.052536
_symmetry_space_group_name_H-M "P 4 C C"
_symmetry_group_IT_number 103
_symmetry_cell_setting 'tetragonal'
loop_
_space_group_symop_operation_xyz
x,y,z
-y,x,z
-x,-y,z
y,-x,z
-x,y,1/2+z
x,-y,1/2+z
-y,-x,1/2+z
y,x,1/2+z
loop_
_atom_site_type_symbol
_atom_site_label
_atom_site_fract_x
_atom_site_fract_y
_atom_site_fract_z
Si Si1 0.473439 0.791783 0.191680
Si Si2 0.324269 0.439427 0.568101
Si Si3 0.121236 0.322004 0.373824
Si Si4 0.895740 0.726560 0.108712
Si Si5 0.428338 0.669515 0.327020
Si Si6 0.000000 0.500000 0.786563
Si Si7 0.846757 0.900422 0.756424
Si Si8 0.131463 0.282754 0.529726
O O1 0.565006 0.711226 0.151978
O O2 0.393954 0.842224 0.129343
O O3 0.405338 0.714798 0.247487
O O4 0.531015 0.893894 0.235961
O O5 0.430488 0.358026 0.550359
O O6 0.210471 0.395253 0.529815
O O7 0.235140 0.396231 0.384400
O O8 0.020887 0.393896 0.337819
O O9 0.156722 0.226637 0.317738
O O10 0.083374 0.271801 0.449578
O O11 0.881713 0.804000 0.177354
O O12 0.825333 0.790407 0.047516
O O13 0.024837 0.708566 0.082958
O O14 0.353654 0.559896 0.339939
O O15 0.966588 0.845008 0.768227
#
# Coordination Sequence:
#
# PCOD8306996 Si02
#       8
#     8   8   8   8   8   4   8   8
#     4  11  21  41  70 113 137 187 241 310 361 421
#     4  11  24  44  72 105 149 193 243 302 369 444
#     4  11  27  47  70 105 147 198 232 300 368 445
#     4  12  24  47  76 108 143 189 246 314 364 441
#     4  10  22  41  70 103 138 184 241 294 349 420
#     4  10  22  42  70 106 144 192 242 298 370 434
#     4  11  24  45  74 104 133 181 241 303 365 428
#     4  12  29  47  71 111 151 197 244 300 380 443
#
# _framework density 22.769943999999999
#
# number of rings (size 3 to 8) (size 9 to 14) (size 15 to 20)
#    0.000    0.933    5.333    1.600    1.867    5.600 
#    0.000    1.333    0.000    0.000    0.000    0.000 
#    0.000    0.000    0.000    0.000    0.000    0.000 
#
# Total GULP energy -743661.068323 kJ/mol
# GULP energy per Si atom -12394.351139 kJ/mol
# Density = 2.271812 g / cm^3
# Si number density = 22.769944 Si / 1000 Ang^3
#
#
#
# Elastic Constant Matrix: (Units=GPa)
#
#
# Indices 1 2 3 4 5 6 
#
# 1 86.1296 32.8300 17.6664 0.0000 0.0000 0.0000
# 2 32.8300 86.1296 17.6664 0.0000 0.0000 0.0000
# 3 17.6664 17.6664 106.3097 0.0000 0.0000 0.0000
# 4 0.0000 0.0000 0.0000 19.9976 0.0000 0.0000
# 5 0.0000 0.0000 0.0000 0.0000 19.9976 0.0000
# 6 0.0000 0.0000 0.0000 0.0000 0.0000 34.2066
#
#
#
# Elastic Compliance Matrix: (Units=1/GPa)
#
#
# Indices 1 2 3 4 5 6 
#
# 1 0.013802 -0.004960 -0.001469 0.000000 0.000000 0.000000
# 2 -0.004960 0.013802 -0.001469 0.000000 0.000000 0.000000
# 3 -0.001469 -0.001469 0.009895 0.000000 0.000000 0.000000
# 4 0.000000 0.000000 0.000000 0.050006 0.000000 0.000000
# 5 0.000000 0.000000 0.000000 0.000000 0.050006 0.000000
# 6 0.000000 0.000000 0.000000 0.000000 0.000000 0.029234
#
#
# Mechanical properties :
#
#
# Convention : Reuss Voigt Hill
#
# Bulk Modulus (GPa) = 46.07799 46.09942 46.08871
# Shear Modulus (GPa) = 26.34674 28.86743 27.60708
#
# Velocity S-wave (km/s) = 3.40528 3.56446 3.48578
# Velocity P-wave (km/s) = 5.97842 6.10166 6.04035
#
# Compressibility (1/GPa) = 0.02170233
#
# Stress axis : x y z
#
# Youngs Moduli (GPa) = 72.45189 72.45189 101.06251
#
# Poissons Ratio (x) = 0.35933 0.14851
# Poissons Ratio (y) = 0.35933 0.14851
# Poissons Ratio (z) = 0.10647 0.10647
#
# Static dielectric constant tensor:
#      x y z
#    x 4.244320 0.000000 0.000000 
#    y 0.000000 4.244320 0.000000 
#    z 0.000000 0.000000 3.946470 
# 
# 
# High freq. dielectric constant tensor:
#      x y z
#    x 1.901250 0.000000 0.000000 
#    y 0.000000 1.901250 0.000000 
#    z 0.000000 0.000000 1.891020 
# 
# From -- ./inp_files/1334.got.cif
#   From: 2010.03.12/outbox.cif.g09.slc.cpg/sg103_cif.got.tgz:1334.got - 2010.04.14 01:42:52.
