data_PCOD8306846
_publ_section_title
;
Structure prediction by ZEFSAII (Michael W. Deem and Ramdas Pophale) SiO2 
 PCOD8306846
Probable space group: P 42 N M
;
_chemical_formula_sum "Si O2"
_cell_formula_units_Z 48
_cell_length_a 25.721304
_cell_length_b 25.721304
_cell_length_c 5.212451
_cell_angle_alpha 90.000000
_cell_angle_beta 90.000000
_cell_angle_gamma 90.000000
_cell_volume 3448.481894
_symmetry_space_group_name_H-M "P 42 N M"
_symmetry_group_IT_number 102
_symmetry_cell_setting 'tetragonal'
loop_
_space_group_symop_operation_xyz
x,y,z
1/2-y,1/2+x,1/2+z
-x,-y,z
1/2+y,1/2-x,1/2+z
1/2-x,1/2+y,1/2+z
1/2+x,1/2-y,1/2+z
-y,-x,z
y,x,z
loop_
_atom_site_type_symbol
_atom_site_label
_atom_site_fract_x
_atom_site_fract_y
_atom_site_fract_z
Si Si1 0.645944 0.440996 0.947550
Si Si2 0.810104 0.897095 0.947550
Si Si3 0.441001 0.354062 0.947547
Si Si4 0.727216 0.185048 0.947553
Si Si5 0.227211 0.685052 0.447553
Si Si6 0.689892 0.602901 0.447548
O O1 0.595213 0.404788 0.947552
O O2 0.681940 0.431682 0.700050
O O3 0.625706 0.499997 0.947552
O O4 0.681941 0.431681 0.195047
O O5 0.850867 0.850867 0.947551
O O6 0.752525 0.872349 0.947551
O O7 0.404795 0.404795 0.947546
O O8 0.431686 0.318065 0.700048
O O9 0.431684 0.318065 0.195043
O O10 0.771768 0.228233 0.947552
O O11 0.691237 0.191233 0.697555
O O12 0.752529 0.127647 0.947550
O O13 0.691238 0.191232 0.197554
O O14 0.271763 0.728238 0.447552
O O15 0.649130 0.649130 0.447554
#
# Coordination Sequence:
#
# PCOD8306846 Si02
#       6
#     8   8   8   8   8   8
#     4  10  19  30  42  54  70  95 128 167 208 239
#     4   9  17  28  40  55  74  93 116 150 193 236
#     4  10  19  30  42  54  70  95 128 167 208 239
#     4   9  15  23  37  56  75  93 111 134 174 229
#     4   9  15  23  37  56  75  93 111 134 174 229
#     4   9  17  28  40  55  74  93 116 150 193 236
#
# _framework density 13.919168000000001
#
# number of rings (size 3 to 8) (size 9 to 14) (size 15 to 20)
#    0.000    2.667    0.000    3.000    0.000    8.333 
#    0.000    0.000    0.000    6.000    0.000    0.000 
#    0.000    0.000    0.000    0.000    0.000    0.000 
#
# Total GULP energy -595128.846819 kJ/mol
# GULP energy per Si atom -12398.517642 kJ/mol
# Density = 1.388749 g / cm^3
# Si number density = 13.919168 Si / 1000 Ang^3
#
#
#
# Elastic Constant Matrix: (Units=GPa)
#
#
# Indices 1 2 3 4 5 6 
#
# 1 51.5796 47.9000 41.7939 0.0000 0.0000 0.0002
# 2 47.9000 51.5796 41.7939 0.0000 0.0000 -0.0002
# 3 41.7939 41.7939 148.2623 0.0000 0.0000 0.0000
# 4 0.0000 0.0000 0.0000 12.6869 0.0000 0.0000
# 5 0.0000 0.0000 0.0000 0.0000 12.6869 0.0000
# 6 0.0002 -0.0002 0.0000 0.0000 0.0000 14.2885
#
#
#
# Elastic Compliance Matrix: (Units=1/GPa)
#
#
# Indices 1 2 3 4 5 6 
#
# 1 0.142473 -0.129300 -0.003713 0.000000 0.000000 -0.000003
# 2 -0.129300 0.142473 -0.003713 0.000000 0.000000 0.000003
# 3 -0.003713 -0.003713 0.008838 0.000000 0.000000 0.000000
# 4 0.000000 0.000000 0.000000 0.078821 0.000000 0.000000
# 5 0.000000 0.000000 0.000000 0.000000 0.078821 0.000000
# 6 -0.000003 0.000003 0.000000 0.000000 0.000000 0.069986
#
#
# Mechanical properties :
#
#
# Convention : Reuss Voigt Hill
#
# Bulk Modulus (GPa) = 49.18796 57.15523 53.17160
# Shear Modulus (GPa) = 6.23719 15.92803 11.08261
#
# Velocity S-wave (km/s) = 2.11914 3.38645 2.82478
# Velocity P-wave (km/s) = 6.43449 7.51280 6.99446
#
# Compressibility (1/GPa) = 0.02033018
#
# Stress axis : x y z
#
# Youngs Moduli (GPa) = 7.01889 7.01889 113.14495
#
# Poissons Ratio (x) = 0.90755 0.42013
# Poissons Ratio (y) = 0.90755 0.42013
# Poissons Ratio (z) = 0.02606 0.02606
#
# Static dielectric constant tensor:
#      x y z
#    x 2.514640 0.000000 0.000000 
#    y 0.000000 2.514640 0.000000 
#    z 0.000000 0.000000 3.071370 
# 
# 
# High freq. dielectric constant tensor:
#      x y z
#    x 1.491440 0.000000 0.000000 
#    y 0.000000 1.491440 0.000000 
#    z 0.000000 0.000000 1.557950 
# 
# From -- ./inp_files/343.got.cif
#   From: 2010.03.12/outbox.cif.g09.slc.cpg/sg102_1_cif.got.tgz:343.got - 2010.04.14 01:40:42.
