data_PCOD8306384
_publ_section_title
;
Structure prediction by ZEFSAII (Michael W. Deem and Ramdas Pophale) SiO2 
 PCOD8306384
Probable space group: I 41 2 2
;
_chemical_formula_sum "Si O2"
_cell_formula_units_Z 40
_cell_length_a 12.761573
_cell_length_b 12.761573
_cell_length_c 10.186159
_cell_angle_alpha 90.000000
_cell_angle_beta 90.000000
_cell_angle_gamma 90.000000
_cell_volume 1658.894889
_symmetry_space_group_name_H-M "I 41 2 2"
_symmetry_group_IT_number 98
_symmetry_cell_setting 'tetragonal'
loop_
_space_group_symop_operation_xyz
x,y,z
-y,1/2+x,1/4+z
-x,-y,z
y,1/2-x,1/4+z
x,1/2-y,1/4-z
-x,1/2+y,1/4-z
y,x,-z
-y,-x,-z
1/2+x,1/2+y,1/2+z
1/2-y,x,3/4+z
1/2-x,1/2-y,1/2+z
1/2+y,-x,3/4+z
1/2+x,-y,3/4-z
1/2-x,y,3/4-z
1/2+y,1/2+x,1/2-z
1/2-y,1/2-x,1/2-z
loop_
_atom_site_type_symbol
_atom_site_label
_atom_site_fract_x
_atom_site_fract_y
_atom_site_fract_z
Si Si1 0.254634 0.915258 0.017357
Si Si2 0.382752 0.985243 0.508024
Si Si3 0.750000 0.849737 0.375000
O O1 0.200493 0.991082 0.122899
O O2 0.371512 0.882427 0.061926
O O3 0.192362 0.807639 0.000000
O O4 0.250000 0.973699 0.875000
O O5 0.500000 0.000000 0.563086
O O6 0.350435 0.076130 0.406508
O O7 0.777663 0.777663 0.500000
#
# Coordination Sequence:
#
# PCOD8306384 Si02
#       3
#    16  16   8
#     4   9  21  40  67 113 158 187 243 311 363 445
#     4  11  24  45  76 110 145 203 253 311 386 444
#     4  12  30  56  74 106 154 198 254 322 386 464
#
# _framework density 24.112438999999998
#
# number of rings (size 3 to 8) (size 9 to 14) (size 15 to 20)
#    0.000    1.600    0.000    2.400    8.400   11.200 
#   36.000    0.000    0.000    0.000    0.000    0.000 
#    0.000    0.000    0.000    0.000    0.000    0.000 
#
# Total GULP energy -247964.045722 kJ/mol
# GULP energy per Si atom -12398.202286 kJ/mol
# Density = 2.405756 g / cm^3
# Si number density = 24.112439 Si / 1000 Ang^3
#
#
#
# Elastic Constant Matrix: (Units=GPa)
#
#
# Indices 1 2 3 4 5 6 
#
# 1 114.8922 22.2612 51.5230 0.0000 0.0000 0.0000
# 2 22.2612 114.8925 51.5229 0.0000 0.0000 0.0000
# 3 51.5230 51.5229 141.5070 0.0000 0.0000 0.0000
# 4 0.0000 0.0000 0.0000 32.5775 0.0000 0.0000
# 5 0.0000 0.0000 0.0000 0.0000 32.5771 0.0000
# 6 0.0000 0.0000 0.0000 0.0000 0.0000 30.2521
#
#
#
# Elastic Compliance Matrix: (Units=1/GPa)
#
#
# Indices 1 2 3 4 5 6 
#
# 1 0.010416 -0.000379 -0.003654 0.000000 0.000000 0.000000
# 2 -0.000379 0.010416 -0.003654 0.000000 0.000000 0.000000
# 3 -0.003654 -0.003654 0.009728 0.000000 0.000000 0.000000
# 4 0.000000 0.000000 0.000000 0.030696 0.000000 0.000000
# 5 0.000000 0.000000 0.000000 0.000000 0.030696 0.000000
# 6 0.000000 0.000000 0.000000 0.000000 0.000000 0.033056
#
#
# Mechanical properties :
#
#
# Convention : Reuss Voigt Hill
#
# Bulk Modulus (GPa) = 65.85969 69.10066 67.48018
# Shear Modulus (GPa) = 34.37710 35.48032 34.92871
#
# Velocity S-wave (km/s) = 3.77994 3.84011 3.81015
# Velocity P-wave (km/s) = 6.81348 6.95571 6.88496
#
# Compressibility (1/GPa) = 0.01518379
#
# Stress axis : x y z
#
# Youngs Moduli (GPa) = 96.00506 96.00540 102.79688
#
# Poissons Ratio (x) = 0.03643 0.37566
# Poissons Ratio (y) = 0.03642 0.37566
# Poissons Ratio (z) = 0.35084 0.35084
#
# Static dielectric constant tensor:
#      x y z
#    x 4.320030 0.000000 0.000000 
#    y 0.000000 4.320020 0.000000 
#    z 0.000000 0.000000 4.978040 
# 
# 
# High freq. dielectric constant tensor:
#      x y z
#    x 1.956400 0.000000 0.000000 
#    y 0.000000 1.956400 0.000000 
#    z 0.000000 0.000000 1.946920 
# 
# From -- ./inp_files/2566.got.cif
#   From: 2010.03.12/outbox.cif.g09.slc.cpg/sg98_2_cif.got.tgz:2566.got - 2010.04.08 21:04:41.
