data_PCOD8306535
_publ_section_title
;
Structure prediction by ZEFSAII (Michael W. Deem and Ramdas Pophale) SiO2 
 PCOD8306535
Probable space group: P 4 M M
;
_chemical_formula_sum "Si O2"
_cell_formula_units_Z 56
_cell_length_a 13.223596
_cell_length_b 13.223596
_cell_length_c 18.365149
_cell_angle_alpha 90.000000
_cell_angle_beta 90.000000
_cell_angle_gamma 90.000000
_cell_volume 3211.394070
_symmetry_space_group_name_H-M "P 4 M M"
_symmetry_group_IT_number 99
_symmetry_cell_setting 'tetragonal'
loop_
_space_group_symop_operation_xyz
x,y,z
-y,x,z
-x,-y,z
y,-x,z
-x,y,z
x,-y,z
-y,-x,z
y,x,z
loop_
_atom_site_type_symbol
_atom_site_label
_atom_site_fract_x
_atom_site_fract_y
_atom_site_fract_z
Si Si1 0.879248 0.613043 0.213110
Si Si2 0.380015 0.112629 0.368217
Si Si3 0.783526 0.382552 0.936945
Si Si4 0.881176 0.279343 0.067951
Si Si5 0.620031 0.886093 0.524539
Si Si6 0.283738 0.117399 0.799930
Si Si7 0.220644 0.618824 0.668840
O O1 0.837397 0.500000 0.198329
O O2 0.836664 0.656411 0.291512
O O3 0.844614 0.684477 0.147532
O O4 0.000000 0.609385 0.217669
O O5 0.500000 0.108227 0.362726
O O6 0.347608 0.163775 0.445650
O O7 0.335435 0.000000 0.372625
O O8 0.756341 0.500000 0.930766
O O9 0.678323 0.321678 0.938306
O O10 0.851987 0.349510 0.869424
O O11 0.848241 0.363485 0.009794
O O12 0.826590 0.173411 0.050020
O O13 0.000000 0.260684 0.063810
O O14 0.500000 0.892007 0.528952
O O15 0.659497 0.817760 0.590579
O O16 0.663685 0.000000 0.532280
O O17 0.179095 0.179095 0.796966
O O18 0.351610 0.137598 0.728758
O O19 0.255558 0.000000 0.804246
O O20 0.240799 0.500000 0.669954
O O21 0.326500 0.673501 0.686875
#
# Coordination Sequence:
#
# PCOD8306535 Si02
#       7
#     8   8   8   8   8   8   8
#     4   8  13  23  41  63  86 113 145 185 235 285
#     4   7  10  18  35  60  86 110 139 179 230 284
#     4  10  21  36  54  77 102 127 157 191 228 273
#     4  10  20  32  46  66  92 123 161 201 239 281
#     4   8  13  23  41  63  86 113 145 185 235 285
#     4  10  21  36  54  77 102 127 157 191 228 273
#     4  10  20  32  46  66  92 123 161 201 239 281
#
# _framework density 17.437909999999999
#
# number of rings (size 3 to 8) (size 9 to 14) (size 15 to 20)
#    0.000    3.000    0.000    3.429    0.000    3.714 
#    0.000    0.714    0.000    5.143    0.000    0.000 
#    0.000    0.000    0.000   18.000    0.000    0.571 
#
# Total GULP energy -693788.095110 kJ/mol
# GULP energy per Si atom -12389.073127 kJ/mol
# Density = 1.739822 g / cm^3
# Si number density = 17.437910 Si / 1000 Ang^3
#
#
#
# Elastic Constant Matrix: (Units=GPa)
#
#
# Indices 1 2 3 4 5 6 
#
# 1 73.0259 34.0801 35.4195 0.0000 0.0000 0.0002
# 2 34.0801 73.0259 35.4195 0.0000 0.0000 -0.0002
# 3 35.4195 35.4195 152.4540 0.0000 0.0000 0.0000
# 4 0.0000 0.0000 0.0000 10.9279 0.0000 0.0000
# 5 0.0000 0.0000 0.0000 0.0000 10.9279 0.0000
# 6 0.0002 -0.0002 0.0000 0.0000 0.0000 11.0123
#
#
#
# Elastic Compliance Matrix: (Units=1/GPa)
#
#
# Indices 1 2 3 4 5 6 
#
# 1 0.018354 -0.007323 -0.002563 0.000000 0.000000 0.000000
# 2 -0.007323 0.018354 -0.002563 0.000000 0.000000 0.000000
# 3 -0.002563 -0.002563 0.007750 0.000000 0.000000 0.000000
# 4 0.000000 0.000000 0.000000 0.091509 0.000000 0.000000
# 5 0.000000 0.000000 0.000000 0.000000 0.091509 0.000000
# 6 0.000000 0.000000 0.000000 0.000000 0.000000 0.090808
#
#
# Mechanical properties :
#
#
# Convention : Reuss Voigt Hill
#
# Bulk Modulus (GPa) = 51.12032 56.48268 53.80150
# Shear Modulus (GPa) = 14.29792 19.47941 16.88866
#
# Velocity S-wave (km/s) = 2.86655 3.34589 3.11545
# Velocity P-wave (km/s) = 6.35102 6.88387 6.62281
#
# Compressibility (1/GPa) = 0.01956169
#
# Stress axis : x y z
#
# Youngs Moduli (GPa) = 54.48345 54.48345 129.02785
#
# Poissons Ratio (x) = 0.39896 0.33070
# Poissons Ratio (y) = 0.39896 0.33070
# Poissons Ratio (z) = 0.13964 0.13964
#
# Static dielectric constant tensor:
#      x y z
#    x 2.870750 0.000000 0.000000 
#    y 0.000000 2.870750 0.000000 
#    z 0.000000 0.000000 3.878600 
# 
# 
# High freq. dielectric constant tensor:
#      x y z
#    x 1.638590 0.000000 0.000000 
#    y 0.000000 1.638590 0.000000 
#    z 0.000000 0.000000 1.708080 
# 
# From -- ./inp_files/1990.got.cif
#   From: 2010.03.12/outbox.cif.g09.slc.cpg/sg99_cif.got.tgz:1990.got - 2010.04.08 21:11:30.
