data_PCOD8306262
_publ_section_title
;
Structure prediction by ZEFSAII (Michael W. Deem and Ramdas Pophale) SiO2 
 PCOD8306262
Probable space group: I 41 2 2
;
_chemical_formula_sum "Si O2"
_cell_formula_units_Z 84
_cell_length_a 11.700865
_cell_length_b 11.700865
_cell_length_c 29.583548
_cell_angle_alpha 90.000000
_cell_angle_beta 90.000000
_cell_angle_gamma 90.000000
_cell_volume 4050.290708
_symmetry_space_group_name_H-M "I 41 2 2"
_symmetry_group_IT_number 98
_symmetry_cell_setting 'tetragonal'
loop_
_space_group_symop_operation_xyz
x,y,z
-y,1/2+x,1/4+z
-x,-y,z
y,1/2-x,1/4+z
x,1/2-y,1/4-z
-x,1/2+y,1/4-z
y,x,-z
-y,-x,-z
1/2+x,1/2+y,1/2+z
1/2-y,x,3/4+z
1/2-x,1/2-y,1/2+z
1/2+y,-x,3/4+z
1/2+x,-y,3/4-z
1/2-x,y,3/4-z
1/2+y,1/2+x,1/2-z
1/2-y,1/2-x,1/2-z
loop_
_atom_site_type_symbol
_atom_site_label
_atom_site_fract_x
_atom_site_fract_y
_atom_site_fract_z
Si Si1 0.916191 0.332212 0.887433
Si Si2 0.337119 0.352140 0.250687
Si Si3 0.256666 0.539201 0.042173
Si Si4 0.780351 0.384749 0.514437
Si Si5 0.000000 0.000000 0.500000
Si Si6 0.653223 0.583924 0.845572
O O1 0.899494 0.259098 0.841654
O O2 0.860130 0.277600 0.931811
O O3 0.867444 0.459706 0.882891
O O4 0.049060 0.331961 0.897939
O O5 0.219699 0.280301 0.250000
O O6 0.421090 0.318227 0.292224
O O7 0.307673 0.486417 0.251261
O O8 0.417066 0.318854 0.207637
O O9 0.386758 0.502110 0.030886
O O10 0.201845 0.628385 0.007501
O O11 0.652537 0.347463 0.500000
O O12 0.750000 0.643917 0.875000
#
# Coordination Sequence:
#
# PCOD8306262 Si02
#       6
#    16  16  16  16   4  16
#     4  10  23  37  62  96 130 176 211 273 346 413
#     4  11  23  42  69  95 134 182 227 285 343 413
#     4  12  23  40  67 105 142 168 225 286 362 419
#     4  11  25  44  66  94 133 188 233 280 340 414
#     4  12  24  36  64 116 132 168 212 288 356 428
#     4  10  20  36  61  97 133 164 212 267 350 411
#
# _framework density 20.739250999999999
#
# number of rings (size 3 to 8) (size 9 to 14) (size 15 to 20)
#    0.000    1.143    3.810    2.857    5.333    0.381 
#    0.000    0.000   29.333    0.000    0.000    0.000 
#    0.000    0.000    0.000    0.000    0.000    0.000 
#
# Total GULP energy -520449.960681 kJ/mol
# GULP energy per Si atom -12391.665731 kJ/mol
# Density = 2.069205 g / cm^3
# Si number density = 20.739251 Si / 1000 Ang^3
#
#
#
# Elastic Constant Matrix: (Units=GPa)
#
#
# Indices 1 2 3 4 5 6 
#
# 1 107.9966 46.7225 53.6675 0.0000 0.0000 0.0000
# 2 46.7225 107.9952 53.6675 0.0000 0.0000 0.0000
# 3 53.6675 53.6675 150.3722 0.0000 0.0000 0.0000
# 4 0.0000 0.0000 0.0000 31.1701 0.0000 0.0000
# 5 0.0000 0.0000 0.0000 0.0000 31.1702 0.0000
# 6 0.0000 0.0000 0.0000 0.0000 0.0000 28.3892
#
#
#
# Elastic Compliance Matrix: (Units=1/GPa)
#
#
# Indices 1 2 3 4 5 6 
#
# 1 0.012455 -0.003865 -0.003066 0.000000 0.000000 0.000000
# 2 -0.003865 0.012455 -0.003066 0.000000 0.000000 0.000000
# 3 -0.003066 -0.003066 0.008839 0.000000 0.000000 0.000000
# 4 0.000000 0.000000 0.000000 0.032082 0.000000 0.000000
# 5 0.000000 0.000000 0.000000 0.000000 0.032082 0.000000
# 6 0.000000 0.000000 0.000000 0.000000 0.000000 0.035225
#
#
# Mechanical properties :
#
#
# Convention : Reuss Voigt Hill
#
# Bulk Modulus (GPa) = 72.69712 74.94210 73.81961
# Shear Modulus (GPa) = 31.70247 32.29966 32.00106
#
# Velocity S-wave (km/s) = 3.91400 3.95069 3.93239
# Velocity P-wave (km/s) = 7.45351 7.55146 7.50264
#
# Compressibility (1/GPa) = 0.01375570
#
# Stress axis : x y z
#
# Youngs Moduli (GPa) = 80.28783 80.28652 113.14067
#
# Poissons Ratio (x) = 0.31031 0.34687
# Poissons Ratio (y) = 0.31031 0.34688
# Poissons Ratio (z) = 0.24615 0.24615
#
# Static dielectric constant tensor:
#      x y z
#    x -8.145500 0.000020 0.000000 
#    y 0.000020 -8.003590 0.000000 
#    z 0.000000 0.000000 4.099780 
# 
# 
# High freq. dielectric constant tensor:
#      x y z
#    x 1.803980 0.000000 0.000000 
#    y 0.000000 1.803980 0.000000 
#    z 0.000000 0.000000 1.811200 
# 
# From -- ./inp_files/11964.got.cif
#   From: 2010.03.12/outbox.cif.g09.slc.cpg/sg98_6_cif.got.tgz:11964.got - 2010.04.08 21:04:41.
