data_PCOD8306794
_publ_section_title
;
Structure prediction by ZEFSAII (Michael W. Deem and Ramdas Pophale) SiO2 
 PCOD8306794
Probable space group: P 42 C M
;
_chemical_formula_sum "Si O2"
_cell_formula_units_Z 40
_cell_length_a 13.301555
_cell_length_b 13.301555
_cell_length_c 10.685115
_cell_angle_alpha 90.000000
_cell_angle_beta 90.000000
_cell_angle_gamma 90.000000
_cell_volume 1890.531987
_symmetry_space_group_name_H-M "P 42 C M"
_symmetry_group_IT_number 101
_symmetry_cell_setting 'tetragonal'
loop_
_space_group_symop_operation_xyz
x,y,z
-y,x,1/2+z
-x,-y,z
y,-x,1/2+z
-x,y,1/2+z
x,-y,1/2+z
-y,-x,z
y,x,z
loop_
_atom_site_type_symbol
_atom_site_label
_atom_site_fract_x
_atom_site_fract_y
_atom_site_fract_z
Si Si1 0.706029 0.000001 0.058710
Si Si2 0.341940 0.500000 0.558706
Si Si3 0.355452 0.193928 0.449267
Si Si4 0.355452 0.806072 0.668148
Si Si5 0.003244 0.164484 0.308710
O O1 0.636135 0.900673 0.073657
O O2 0.771856 0.009811 0.183001
O O3 0.771859 0.990193 0.934421
O O4 0.636133 0.099328 0.043760
O O5 0.413439 0.586562 0.497511
O O6 0.413439 0.413439 0.619901
O O7 0.268944 0.450845 0.455626
O O8 0.268944 0.549155 0.661787
O O9 0.254545 0.254545 0.484090
O O10 0.349154 0.151475 0.308708
O O11 0.254545 0.745456 0.633326
O O12 0.918546 0.081455 0.308711
O O13 0.113313 0.113313 0.308706
#
# Coordination Sequence:
#
# PCOD8306794 Si02
#       5
#     8   8   8   8   8
#     4  12  22  38  60  92 130 172 212 259 314 381
#     4   9  20  41  68  94 118 155 212 269 326 392
#     4  10  21  40  64  91 129 170 208 263 324 376
#     4  10  21  40  64  91 129 170 208 263 324 376
#     4  11  22  36  58  87 124 172 224 269 306 359
#
# _framework density 21.158066999999999
#
# number of rings (size 3 to 8) (size 9 to 14) (size 15 to 20)
#    0.000    1.600    2.000    3.600    0.000    3.200 
#    3.600    6.000    0.000    0.000    0.000    0.000 
#    0.000    0.000    0.000    0.000    0.000    0.000 
#
# Total GULP energy -495735.030578 kJ/mol
# GULP energy per Si atom -12393.375764 kJ/mol
# Density = 2.110991 g / cm^3
# Si number density = 21.158067 Si / 1000 Ang^3
#
#
#
# Elastic Constant Matrix: (Units=GPa)
#
#
# Indices 1 2 3 4 5 6 
#
# 1 129.7830 72.5915 54.7219 0.0000 0.0000 -0.0002
# 2 72.5915 129.7830 54.7219 0.0000 0.0000 0.0002
# 3 54.7219 54.7219 125.0829 0.0000 0.0000 0.0000
# 4 0.0000 0.0000 0.0000 26.6690 0.0000 0.0000
# 5 0.0000 0.0000 0.0000 0.0000 26.6690 0.0000
# 6 -0.0002 0.0002 0.0000 0.0000 0.0000 41.7767
#
#
#
# Elastic Compliance Matrix: (Units=1/GPa)
#
#
# Indices 1 2 3 4 5 6 
#
# 1 0.011979 -0.005506 -0.002832 0.000000 0.000000 0.000000
# 2 -0.005506 0.011979 -0.002832 0.000000 0.000000 0.000000
# 3 -0.002832 -0.002832 0.010472 0.000000 0.000000 0.000000
# 4 0.000000 0.000000 0.000000 0.037497 0.000000 0.000000
# 5 0.000000 0.000000 0.000000 0.000000 0.037497 0.000000
# 6 0.000000 0.000000 0.000000 0.000000 0.000000 0.023937
#
#
# Mechanical properties :
#
#
# Convention : Reuss Voigt Hill
#
# Bulk Modulus (GPa) = 82.70657 83.19104 82.94881
# Shear Modulus (GPa) = 31.30280 32.53049 31.91664
#
# Velocity S-wave (km/s) = 3.85057 3.92535 3.88814
# Velocity P-wave (km/s) = 7.67749 7.74265 7.71014
#
# Compressibility (1/GPa) = 0.01209094
#
# Stress axis : x y z
#
# Youngs Moduli (GPa) = 83.48001 83.48001 95.48934
#
# Poissons Ratio (x) = 0.45966 0.27040
# Poissons Ratio (y) = 0.45966 0.27040
# Poissons Ratio (z) = 0.23639 0.23639
#
# Static dielectric constant tensor:
#      x y z
#    x 4.060590 0.000000 0.000000 
#    y 0.000000 4.060590 0.000000 
#    z 0.000000 0.000000 3.631870 
# 
# 
# High freq. dielectric constant tensor:
#      x y z
#    x 1.838510 0.000000 0.000000 
#    y 0.000000 1.838510 0.000000 
#    z 0.000000 0.000000 1.805000 
# 
# From -- ./inp_files/567.got.cif
#   From: 2010.03.12/outbox.cif.g09.slc.cpg/sg101_1_cif.got.tgz:567.got - 2010.04.14 01:38:52.
