data_PCOD8306093
_publ_section_title
;
Structure prediction by ZEFSAII (Michael W. Deem and Ramdas Pophale) SiO2 
 PCOD8306093
Probable space group: I 4 2 2 
;
_chemical_formula_sum "Si O2"
_cell_formula_units_Z 60
_cell_length_a 14.909105
_cell_length_b 14.909105
_cell_length_c 14.535828
_cell_angle_alpha 90.000000
_cell_angle_beta 90.000000
_cell_angle_gamma 90.000000
_cell_volume 3231.044371
_symmetry_space_group_name_H-M "I 4 2 2 "
_symmetry_group_IT_number 97
_symmetry_cell_setting 'tetragonal'
loop_
_space_group_symop_operation_xyz
x,y,z
-y,x,z
-x,-y,z
y,-x,z
x,-y,-z
-x,y,-z
y,x,-z
-y,-x,-z
1/2+x,1/2+y,1/2+z
1/2-y,1/2+x,1/2+z
1/2-x,1/2-y,1/2+z
1/2+y,1/2-x,1/2+z
1/2+x,1/2-y,1/2-z
1/2-x,1/2+y,1/2-z
1/2+y,1/2+x,1/2-z
1/2-y,1/2-x,1/2-z
loop_
_atom_site_type_symbol
_atom_site_label
_atom_site_fract_x
_atom_site_fract_y
_atom_site_fract_z
Si Si1 0.212808 0.847431 0.303574
Si Si2 0.251280 0.050069 0.260598
Si Si3 0.354496 0.115225 0.101029
Si Si4 0.767891 0.767891 0.500000
Si Si5 0.500000 0.000000 0.500000
O O1 0.283590 0.783590 0.250000
O O2 0.113296 0.837173 0.258914
O O3 0.210026 0.830065 0.412756
O O4 0.237634 0.950383 0.293737
O O5 0.294625 0.045534 0.159161
O O6 0.311933 0.104152 0.331905
O O7 0.437332 0.062737 0.059745
O O8 0.289162 0.164025 0.026698
#
# Coordination Sequence:
#
# PCOD8306093 Si02
#       5
#    16  16  16   8   4
#     4  11  22  40  63  88 121 166 200 258 308 368
#     4  10  22  40  60  85 123 162 205 250 317 372
#     4  10  22  37  56  93 121 160 206 253 315 378
#     4  10  20  42  62  83 127 164 202 240 320 376
#     4  12  24  30  56 100 120 158 216 272 302 364
#
# _framework density 18.569849000000001
#
# number of rings (size 3 to 8) (size 9 to 14) (size 15 to 20)
#    0.000    1.600    5.333    1.600    7.467    4.800 
#    0.000    0.000    0.000    6.400    0.000    1.867 
#    0.000    0.000    0.000    0.000    0.000    0.000 
#
# Total GULP energy -371766.797349 kJ/mol
# GULP energy per Si atom -12392.226578 kJ/mol
# Density = 1.852758 g / cm^3
# Si number density = 18.569849 Si / 1000 Ang^3
#
#
#
# Elastic Constant Matrix: (Units=GPa)
#
#
# Indices 1 2 3 4 5 6 
#
# 1 81.4632 43.4679 48.7712 0.0000 0.0000 0.0000
# 2 43.4679 81.4632 48.7712 0.0000 0.0000 0.0000
# 3 48.7712 48.7712 114.3724 0.0000 0.0000 0.0000
# 4 0.0000 0.0000 0.0000 26.5800 0.0000 0.0000
# 5 0.0000 0.0000 0.0000 0.0000 26.5800 0.0000
# 6 0.0000 0.0000 0.0000 0.0000 0.0000 34.6161
#
#
#
# Elastic Compliance Matrix: (Units=1/GPa)
#
#
# Indices 1 2 3 4 5 6 
#
# 1 0.019159 -0.007160 -0.005117 0.000000 0.000000 0.000000
# 2 -0.007160 0.019159 -0.005117 0.000000 0.000000 0.000000
# 3 -0.005117 -0.005117 0.013107 0.000000 0.000000 0.000000
# 4 0.000000 0.000000 0.000000 0.037622 0.000000 0.000000
# 5 0.000000 0.000000 0.000000 0.000000 0.037622 0.000000
# 6 0.000000 0.000000 0.000000 0.000000 0.000000 0.028888
#
#
# Mechanical properties :
#
#
# Convention : Reuss Voigt Hill
#
# Bulk Modulus (GPa) = 60.10051 62.14658 61.12354
# Shear Modulus (GPa) = 25.52424 26.64110 26.08267
#
# Velocity S-wave (km/s) = 3.71145 3.79178 3.75183
# Velocity P-wave (km/s) = 7.12750 7.26011 7.19411
#
# Compressibility (1/GPa) = 0.01663879
#
# Stress axis : x y z
#
# Youngs Moduli (GPa) = 52.19399 52.19399 76.29342
#
# Poissons Ratio (x) = 0.37370 0.39038
# Poissons Ratio (y) = 0.37370 0.39038
# Poissons Ratio (z) = 0.26707 0.26707
#
# Static dielectric constant tensor:
#      x y z
#    x 3.281720 0.000000 0.000000 
#    y 0.000000 3.281720 0.000000 
#    z 0.000000 0.000000 3.627190 
# 
# 
# High freq. dielectric constant tensor:
#      x y z
#    x 1.715740 0.000000 0.000000 
#    y 0.000000 1.715740 0.000000 
#    z 0.000000 0.000000 1.733540 
# 
# From -- ./inp_files/4616.got.cif
#   From: 2010.03.12/outbox.cif.g09.slc.cpg/sg97_3_cif.got.tgz:4616.got - 2010.04.08 20:59:42.
