data_PCOD8306326
_publ_section_title
;
Structure prediction by ZEFSAII (Michael W. Deem and Ramdas Pophale) SiO2 
 PCOD8306326
Probable space group: I 41 2 2
;
_chemical_formula_sum "Si O2"
_cell_formula_units_Z 56
_cell_length_a 13.213899
_cell_length_b 13.213899
_cell_length_c 12.935933
_cell_angle_alpha 90.000000
_cell_angle_beta 90.000000
_cell_angle_gamma 90.000000
_cell_volume 2258.706093
_symmetry_space_group_name_H-M "I 41 2 2"
_symmetry_group_IT_number 98
_symmetry_cell_setting 'tetragonal'
loop_
_space_group_symop_operation_xyz
x,y,z
-y,1/2+x,1/4+z
-x,-y,z
y,1/2-x,1/4+z
x,1/2-y,1/4-z
-x,1/2+y,1/4-z
y,x,-z
-y,-x,-z
1/2+x,1/2+y,1/2+z
1/2-y,x,3/4+z
1/2-x,1/2-y,1/2+z
1/2+y,-x,3/4+z
1/2+x,-y,3/4-z
1/2-x,y,3/4-z
1/2+y,1/2+x,1/2-z
1/2-y,1/2-x,1/2-z
loop_
_atom_site_type_symbol
_atom_site_label
_atom_site_fract_x
_atom_site_fract_y
_atom_site_fract_z
Si Si1 0.104240 0.895761 0.000000
Si Si2 0.142299 0.071876 0.839027
Si Si3 0.423238 0.680496 0.838664
Si Si4 0.220143 0.996807 0.269794
O O1 0.204363 0.887438 0.069255
O O2 0.005450 0.897526 0.073506
O O3 0.250000 0.118604 0.875000
O O4 0.060995 0.159336 0.817231
O O5 0.153181 0.018733 0.730127
O O6 0.336897 0.600474 0.815887
O O7 0.458308 0.679970 0.958888
O O8 0.250000 0.059248 0.375000
#
# Coordination Sequence:
#
# PCOD8306326 Si02
#       4
#     8  16  16  16
#     4  10  22  43  76 110 146 191 258 330 372 463
#     4  10  24  48  77 108 144 204 260 316 379 463
#     4  11  24  43  74 111 152 191 253 320 388 451
#     4  12  27  45  72 112 158 202 249 317 391 461
#
# _framework density 24.792956
#
# number of rings (size 3 to 8) (size 9 to 14) (size 15 to 20)
#    0.000    1.143    2.857    1.714    4.000    6.857 
#    0.000    7.143    0.000    0.000    0.000    0.000 
#    0.000    0.000    0.000    0.000    0.000    0.000 
#
# Total GULP energy -347018.748788 kJ/mol
# GULP energy per Si atom -12393.526742 kJ/mol
# Density = 2.473653 g / cm^3
# Si number density = 24.792956 Si / 1000 Ang^3
#
#
#
# Elastic Constant Matrix: (Units=GPa)
#
#
# Indices 1 2 3 4 5 6 
#
# 1 96.3938 53.8205 41.8652 0.0000 0.0000 0.0000
# 2 53.8205 96.3941 41.8647 0.0000 0.0000 0.0000
# 3 41.8652 41.8647 160.6641 0.0000 0.0000 0.0000
# 4 0.0000 0.0000 0.0000 30.5477 0.0000 0.0000
# 5 0.0000 0.0000 0.0000 0.0000 30.5482 0.0000
# 6 0.0000 0.0000 0.0000 0.0000 0.0000 -20.4920
#
#
#
# Elastic Compliance Matrix: (Units=1/GPa)
#
#
# Indices 1 2 3 4 5 6 
#
# 1 0.015639 -0.007850 -0.002029 0.000000 0.000000 0.000000
# 2 -0.007850 0.015639 -0.002029 0.000000 0.000000 0.000000
# 3 -0.002029 -0.002029 0.007282 0.000000 0.000000 0.000000
# 4 0.000000 0.000000 0.000000 0.032736 0.000000 0.000000
# 5 0.000000 0.000000 0.000000 0.000000 0.032735 0.000000
# 6 0.000000 0.000000 0.000000 0.000000 0.000000 -0.048800
#
#
# Mechanical properties :
#
#
# Convention : Reuss Voigt Hill
#
# Bulk Modulus (GPa) = 67.83916 69.83921 68.83918
# Shear Modulus (GPa) = 59.55070 22.51422 41.03246
#
# Velocity S-wave (km/s) = 4.90626 3.01672 4.07259
# Velocity P-wave (km/s) = 7.71471 6.35329 7.06686
#
# Compressibility (1/GPa) = 0.01474075
#
# Stress axis : x y z
#
# Youngs Moduli (GPa) = 63.94414 63.94453 137.32848
#
# Poissons Ratio (x) = 0.50198 0.27871
# Poissons Ratio (y) = 0.50198 0.27869
# Poissons Ratio (z) = 0.12977 0.12977
#
# Static dielectric constant tensor:
#      x y z
#    x 4.517410 0.000000 0.000000 
#    y 0.000000 4.517420 0.000000 
#    z 0.000000 0.000000 5.012260 
# 
# 
# High freq. dielectric constant tensor:
#      x y z
#    x 1.972130 0.000000 0.000000 
#    y 0.000000 1.972130 0.000000 
#    z 0.000000 0.000000 2.021450 
# 
# From -- ./inp_files/4673.got.cif
#   From: 2010.03.12/outbox.cif.g09.slc.cpg/sg98_3_cif.got.tgz:4673.got - 2010.04.08 21:04:41.
