data_PCOD8306927
_publ_section_title
;
Structure prediction by ZEFSAII (Michael W. Deem and Ramdas Pophale) SiO2 
 PCOD8306927
Probable space group: P 42 N M
;
_chemical_formula_sum "Si O2"
_cell_formula_units_Z 24
_cell_length_a 9.459897
_cell_length_b 9.459897
_cell_length_c 13.701881
_cell_angle_alpha 90.000000
_cell_angle_beta 90.000000
_cell_angle_gamma 90.000000
_cell_volume 1226.176552
_symmetry_space_group_name_H-M "P 42 N M"
_symmetry_group_IT_number 102
_symmetry_cell_setting 'tetragonal'
loop_
_space_group_symop_operation_xyz
x,y,z
1/2-y,1/2+x,1/2+z
-x,-y,z
1/2+y,1/2-x,1/2+z
1/2-x,1/2+y,1/2+z
1/2+x,1/2-y,1/2+z
-y,-x,z
y,x,z
loop_
_atom_site_type_symbol
_atom_site_label
_atom_site_fract_x
_atom_site_fract_y
_atom_site_fract_z
Si Si1 0.584174 0.814717 0.905860
Si Si2 0.993800 0.770659 0.610277
Si Si3 0.584174 0.814717 0.314696
O O1 0.671929 0.671929 0.887405
O O2 0.452623 0.817592 0.830472
O O3 0.682408 0.952622 0.890083
O O4 0.520597 0.823610 0.014726
O O5 0.100825 0.899176 0.610276
O O6 0.020598 0.676391 0.705829
O O7 0.834284 0.834284 0.610278
O O8 0.671929 0.671929 0.333151
#
# Coordination Sequence:
#
# PCOD8306927 Si02
#       3
#     8   8   8
#     4  10  21  36  56  82 110 143 185 228 272 325
#     4   9  18  35  57  79 110 151 183 214 273 341
#     4  10  21  36  56  82 110 143 185 228 272 325
#
# _framework density 19.573036999999999
#
# number of rings (size 3 to 8) (size 9 to 14) (size 15 to 20)
#    0.000    2.333    0.000    2.000    0.000    9.333 
#    0.000    5.000    0.000    6.000    0.000    0.000 
#    0.000    0.000    0.000    0.000    0.000    0.000 
#
# Total GULP energy -297514.933147 kJ/mol
# GULP energy per Si atom -12396.455548 kJ/mol
# Density = 1.952849 g / cm^3
# Si number density = 19.573037 Si / 1000 Ang^3
#
#
#
# Elastic Constant Matrix: (Units=GPa)
#
#
# Indices 1 2 3 4 5 6 
#
# 1 92.9552 45.4604 75.5477 0.0000 0.0000 0.0000
# 2 45.4604 92.9552 75.5477 0.0000 0.0000 0.0000
# 3 75.5477 75.5477 167.2648 0.0000 0.0000 0.0000
# 4 0.0000 0.0000 0.0000 34.5496 0.0000 0.0000
# 5 0.0000 0.0000 0.0000 0.0000 34.5496 0.0000
# 6 0.0000 0.0000 0.0000 0.0000 0.0000 53.6844
#
#
#
# Elastic Compliance Matrix: (Units=1/GPa)
#
#
# Indices 1 2 3 4 5 6 
#
# 1 0.017653 -0.003402 -0.006437 0.000000 0.000000 0.000000
# 2 -0.003402 0.017653 -0.006437 0.000000 0.000000 0.000000
# 3 -0.006437 -0.006437 0.011793 0.000000 0.000000 0.000000
# 4 0.000000 0.000000 0.000000 0.028944 0.000000 0.000000
# 5 0.000000 0.000000 0.000000 0.000000 0.028944 0.000000
# 6 0.000000 0.000000 0.000000 0.000000 0.000000 0.018627
#
#
# Mechanical properties :
#
#
# Convention : Reuss Voigt Hill
#
# Bulk Modulus (GPa) = 68.73703 82.92076 75.82889
# Shear Modulus (GPa) = 31.05320 34.99800 33.02560
#
# Velocity S-wave (km/s) = 3.98745 4.23315 4.11213
# Velocity P-wave (km/s) = 7.50960 8.14552 7.83402
#
# Compressibility (1/GPa) = 0.01454820
#
# Stress axis : x y z
#
# Youngs Moduli (GPa) = 56.64784 56.64784 84.79647
#
# Poissons Ratio (x) = 0.19272 0.54580
# Poissons Ratio (y) = 0.19272 0.54580
# Poissons Ratio (z) = 0.36462 0.36462
#
# Static dielectric constant tensor:
#      x y z
#    x 3.562000 0.000000 0.000000 
#    y 0.000000 3.562000 0.000000 
#    z 0.000000 0.000000 3.802540 
# 
# 
# High freq. dielectric constant tensor:
#      x y z
#    x 1.756310 0.000000 0.000000 
#    y 0.000000 1.756310 0.000000 
#    z 0.000000 0.000000 1.762830 
# 
# From -- ./inp_files/1350.got.cif
#   From: 2010.03.12/outbox.cif.g09.slc.cpg/sg102_1_cif.got.tgz:1350.got - 2010.04.14 01:40:42.
