data_PCOD8306097
_publ_section_title
;
Structure prediction by ZEFSAII (Michael W. Deem and Ramdas Pophale) SiO2 
 PCOD8306097
Probable space group: I 4 2 2 
;
_chemical_formula_sum "Si O2"
_cell_formula_units_Z 88
_cell_length_a 18.223408
_cell_length_b 18.223408
_cell_length_c 14.817580
_cell_angle_alpha 90.000000
_cell_angle_beta 90.000000
_cell_angle_gamma 90.000000
_cell_volume 4920.808655
_symmetry_space_group_name_H-M "I 4 2 2 "
_symmetry_group_IT_number 97
_symmetry_cell_setting 'tetragonal'
loop_
_space_group_symop_operation_xyz
x,y,z
-y,x,z
-x,-y,z
y,-x,z
x,-y,-z
-x,y,-z
y,x,-z
-y,-x,-z
1/2+x,1/2+y,1/2+z
1/2-y,1/2+x,1/2+z
1/2-x,1/2-y,1/2+z
1/2+y,1/2-x,1/2+z
1/2+x,1/2-y,1/2-z
1/2-x,1/2+y,1/2-z
1/2+y,1/2+x,1/2-z
1/2-y,1/2-x,1/2-z
loop_
_atom_site_type_symbol
_atom_site_label
_atom_site_fract_x
_atom_site_fract_y
_atom_site_fract_z
Si Si1 0.765038 0.336615 0.830616
Si Si2 0.824626 0.500000 0.500000
Si Si3 0.229390 0.343976 0.500703
Si Si4 0.563410 0.057594 0.147243
Si Si5 0.213253 0.511929 0.898538
Si Si6 0.780814 0.352849 0.169343
O O1 0.821180 0.321180 0.750000
O O2 0.814693 0.310328 0.912822
O O3 0.745085 0.421999 0.846496
O O4 0.687288 0.296898 0.812948
O O5 0.769973 0.568647 0.513402
O O6 0.871904 0.481440 0.589736
O O7 0.312888 0.312888 0.500000
O O8 0.179842 0.312417 0.579096
O O9 0.583496 0.083496 0.250000
O O10 0.533084 0.127703 0.093528
O O11 0.500000 0.000000 0.154028
O O12 0.228837 0.439871 0.838966
O O13 0.243755 0.500000 0.000000
O O14 0.837466 0.337466 0.250000
#
# Coordination Sequence:
#
# PCOD8306097 Si02
#       6
#    16   8  16  16  16  16
#     4  10  21  39  54  80 113 148 193 236 283 347
#     4  12  21  36  54  75 112 150 184 228 288 345
#     4  10  21  36  54  78 108 146 193 235 279 340
#     4  11  23  32  48  79 116 142 174 221 279 345
#     4  12  21  34  55  80 110 148 190 235 288 339
#     4  10  22  36  57  80 112 152 191 232 286 355
#
# _framework density 17.883239
#
# number of rings (size 3 to 8) (size 9 to 14) (size 15 to 20)
#    0.000    1.273    3.636    3.000    5.091    0.000 
#    0.000    0.000    0.000    0.818    0.000    1.273 
#    0.000    8.727    0.000    0.000    0.000    0.727 
#
# Total GULP energy -545297.402915 kJ/mol
# GULP energy per Si atom -12393.122794 kJ/mol
# Density = 1.784254 g / cm^3
# Si number density = 17.883239 Si / 1000 Ang^3
#
#
#
# Elastic Constant Matrix: (Units=GPa)
#
#
# Indices 1 2 3 4 5 6 
#
# 1 114.3241 61.5545 30.8282 0.0000 0.0000 0.0000
# 2 61.5545 114.3241 30.8282 0.0000 0.0000 0.0000
# 3 30.8282 30.8282 124.8664 0.0000 0.0000 0.0000
# 4 0.0000 0.0000 0.0000 23.9528 0.0000 0.0000
# 5 0.0000 0.0000 0.0000 0.0000 23.9528 0.0000
# 6 0.0000 0.0000 0.0000 0.0000 0.0000 30.5858
#
#
#
# Elastic Compliance Matrix: (Units=1/GPa)
#
#
# Indices 1 2 3 4 5 6 
#
# 1 0.012587 -0.006363 -0.001537 0.000000 0.000000 0.000000
# 2 -0.006363 0.012587 -0.001537 0.000000 0.000000 0.000000
# 3 -0.001537 -0.001537 0.008767 0.000000 0.000000 0.000000
# 4 0.000000 0.000000 0.000000 0.041749 0.000000 0.000000
# 5 0.000000 0.000000 0.000000 0.000000 0.041749 0.000000
# 6 0.000000 0.000000 0.000000 0.000000 0.000000 0.032695
#
#
# Mechanical properties :
#
#
# Convention : Reuss Voigt Hill
#
# Bulk Modulus (GPa) = 66.36011 66.65959 66.50985
# Shear Modulus (GPa) = 28.73059 31.05187 29.89123
#
# Velocity S-wave (km/s) = 4.01255 4.17149 4.09279
# Velocity P-wave (km/s) = 7.65868 7.78188 7.72052
#
# Compressibility (1/GPa) = 0.01506929
#
# Stress axis : x y z
#
# Youngs Moduli (GPa) = 79.44463 79.44463 114.05924
#
# Poissons Ratio (x) = 0.50550 0.17528
# Poissons Ratio (y) = 0.50550 0.17528
# Poissons Ratio (z) = 0.12209 0.12209
#
# Static dielectric constant tensor:
#      x y z
#    x 3.422460 0.000000 0.000000 
#    y 0.000000 3.422460 0.000000 
#    z 0.000000 0.000000 3.664480 
# 
# 
# High freq. dielectric constant tensor:
#      x y z
#    x 1.674820 0.000000 0.000000 
#    y 0.000000 1.674820 0.000000 
#    z 0.000000 0.000000 1.713960 
# 
# From -- ./inp_files/4829.got.cif
#   From: 2010.03.12/outbox.cif.g09.slc.cpg/sg97_3_cif.got.tgz:4829.got - 2010.04.08 20:59:42.
