data_PCOD8306292
_publ_section_title
;
Structure prediction by ZEFSAII (Michael W. Deem and Ramdas Pophale) SiO2 
 PCOD8306292
Probable space group: I 41 2 2
;
_chemical_formula_sum "Si O2"
_cell_formula_units_Z 72
_cell_length_a 11.623603
_cell_length_b 11.623603
_cell_length_c 25.855219
_cell_angle_alpha 90.000000
_cell_angle_beta 90.000000
_cell_angle_gamma 90.000000
_cell_volume 3493.250722
_symmetry_space_group_name_H-M "I 41 2 2"
_symmetry_group_IT_number 98
_symmetry_cell_setting 'tetragonal'
loop_
_space_group_symop_operation_xyz
x,y,z
-y,1/2+x,1/4+z
-x,-y,z
y,1/2-x,1/4+z
x,1/2-y,1/4-z
-x,1/2+y,1/4-z
y,x,-z
-y,-x,-z
1/2+x,1/2+y,1/2+z
1/2-y,x,3/4+z
1/2-x,1/2-y,1/2+z
1/2+y,-x,3/4+z
1/2+x,-y,3/4-z
1/2-x,y,3/4-z
1/2+y,1/2+x,1/2-z
1/2-y,1/2-x,1/2-z
loop_
_atom_site_type_symbol
_atom_site_label
_atom_site_fract_x
_atom_site_fract_y
_atom_site_fract_z
Si Si1 0.448676 0.875207 0.934751
Si Si2 0.356773 0.312270 0.944003
Si Si3 0.371728 0.383384 0.166953
Si Si4 0.774036 0.250000 0.125000
Si Si5 0.872439 0.127073 0.704216
O O1 0.562835 0.798224 0.939586
O O2 0.365386 0.847286 0.886331
O O3 0.500000 0.000000 0.927169
O O4 0.364449 0.862686 0.984099
O O5 0.389330 0.392662 0.895175
O O6 0.219246 0.285690 0.936010
O O7 0.374098 0.374098 0.000000
O O8 0.320963 0.504016 0.186532
O O9 0.494107 0.360052 0.191726
O O10 0.696121 0.271929 0.175682
#
# Coordination Sequence:
#
# PCOD8306292 Si02
#       5
#    16  16  16   8  16
#     4  12  25  44  66  92 133 177 223 276 328 395
#     4  11  20  38  65 100 123 168 219 260 330 395
#     4  10  21  38  68  93 135 162 207 272 329 397
#     4  12  26  42  66  96 132 180 216 270 330 408
#     4  11  21  44  63  96 136 168 205 271 347 384
#
# _framework density 20.611173999999998
#
# number of rings (size 3 to 8) (size 9 to 14) (size 15 to 20)
#    0.000    0.889    6.667    2.000    0.000    1.778 
#    0.000    2.222    0.000    1.333    0.000    0.000 
#    0.000    0.000    0.000    0.000    0.000    0.000 
#
# Total GULP energy -446110.691945 kJ/mol
# GULP energy per Si atom -12391.963665 kJ/mol
# Density = 2.056426 g / cm^3
# Si number density = 20.611174 Si / 1000 Ang^3
#
#
#
# Elastic Constant Matrix: (Units=GPa)
#
#
# Indices 1 2 3 4 5 6 
#
# 1 84.1592 58.8219 20.4843 0.0000 0.0000 0.0000
# 2 58.8219 84.1592 20.4843 0.0000 0.0000 0.0000
# 3 20.4843 20.4843 100.6114 0.0000 0.0000 0.0000
# 4 0.0000 0.0000 0.0000 29.0915 0.0000 0.0000
# 5 0.0000 0.0000 0.0000 0.0000 29.0915 0.0000
# 6 0.0000 0.0000 0.0000 0.0000 0.0000 12.1938
#
#
#
# Elastic Compliance Matrix: (Units=1/GPa)
#
#
# Indices 1 2 3 4 5 6 
#
# 1 0.023447 -0.016020 -0.001512 0.000000 0.000000 0.000000
# 2 -0.016020 0.023447 -0.001512 0.000000 0.000000 0.000000
# 3 -0.001512 -0.001512 0.010555 0.000000 0.000000 0.000000
# 4 0.000000 0.000000 0.000000 0.034374 0.000000 0.000000
# 5 0.000000 0.000000 0.000000 0.000000 0.034374 0.000000
# 6 0.000000 0.000000 0.000000 0.000000 0.000000 0.082009
#
#
# Mechanical properties :
#
#
# Convention : Reuss Voigt Hill
#
# Bulk Modulus (GPa) = 51.65091 52.05675 51.85383
# Shear Modulus (GPa) = 19.78243 25.35131 22.56687
#
# Velocity S-wave (km/s) = 3.10141 3.51091 3.31249
# Velocity P-wave (km/s) = 6.15947 6.46117 6.31212
#
# Compressibility (1/GPa) = 0.01936074
#
# Stress axis : x y z
#
# Youngs Moduli (GPa) = 42.64870 42.64870 94.74206
#
# Poissons Ratio (x) = 0.68324 0.14327
# Poissons Ratio (y) = 0.68324 0.14327
# Poissons Ratio (z) = 0.06449 0.06449
#
# Static dielectric constant tensor:
#      x y z
#    x 3.684280 0.000000 0.000000 
#    y 0.000000 3.684280 0.000000 
#    z 0.000000 0.000000 4.075820 
# 
# 
# High freq. dielectric constant tensor:
#      x y z
#    x 1.789840 0.000000 0.000000 
#    y 0.000000 1.789840 0.000000 
#    z 0.000000 0.000000 1.823040 
# 
# From -- ./inp_files/10828.got.cif
#   From: 2010.03.12/outbox.cif.g09.slc.cpg/sg98_6_cif.got.tgz:10828.got - 2010.04.08 21:04:41.
