data_PCOD8306494
_publ_section_title
;
Structure prediction by ZEFSAII (Michael W. Deem and Ramdas Pophale) SiO2 
 PCOD8306494
Probable space group: P 4 M M
;
_chemical_formula_sum "Si O2"
_cell_formula_units_Z 64
_cell_length_a 13.496034
_cell_length_b 13.496034
_cell_length_c 20.898964
_cell_angle_alpha 90.000000
_cell_angle_beta 90.000000
_cell_angle_gamma 90.000000
_cell_volume 3806.598615
_symmetry_space_group_name_H-M "P 4 M M"
_symmetry_group_IT_number 99
_symmetry_cell_setting 'tetragonal'
loop_
_space_group_symop_operation_xyz
x,y,z
-y,x,z
-x,-y,z
y,-x,z
-x,y,z
x,-y,z
-y,-x,z
y,x,z
loop_
_atom_site_type_symbol
_atom_site_label
_atom_site_fract_x
_atom_site_fract_y
_atom_site_fract_z
Si Si1 0.115315 0.276154 0.640470
Si Si2 0.384051 0.220472 0.029884
Si Si3 0.883361 0.280105 0.917661
Si Si4 0.726376 0.883236 0.393686
Si Si5 0.390746 0.882353 0.517711
Si Si6 0.117260 0.389879 0.269124
Si Si7 0.117137 0.722944 0.142586
Si Si8 0.111659 0.729717 0.778429
O O1 0.172400 0.172400 0.635613
O O2 0.155725 0.348876 0.585596
O O3 0.133872 0.327808 0.711040
O O4 0.000000 0.252718 0.629132
O O5 0.500000 0.245863 0.033477
O O6 0.323420 0.323420 0.032436
O O7 0.354160 0.149026 0.088113
O O8 0.362033 0.160318 0.965041
O O9 0.823880 0.176121 0.926495
O O10 0.866225 0.326424 0.845693
O O11 0.000000 0.260961 0.931399
O O12 0.833752 0.833752 0.387836
O O13 0.676197 0.845809 0.459091
O O14 0.658249 0.846543 0.335242
O O15 0.743679 0.000000 0.392170
O O16 0.500000 0.836716 0.509427
O O17 0.396508 0.000000 0.516778
O O18 0.163685 0.500000 0.263378
O O19 0.151878 0.322992 0.209903
O O20 0.000000 0.398189 0.268894
O O21 0.171989 0.828012 0.132777
O O22 0.000000 0.742319 0.139183
O O23 0.168370 0.831631 0.778138
O O24 0.000000 0.764927 0.778210
#
# Coordination Sequence:
#
# PCOD8306494 Si02
#       8
#     8   8   8   8   8   8   8   8
#     4   9  16  26  41  62  89 119 148 179 216 261
#     4  10  21  36  53  72  93 119 154 197 244 290
#     4   9  17  29  45  67  95 126 159 192 227 271
#     4  10  19  30  45  66  92 120 149 182 223 275
#     4   9  17  29  43  58  80 112 148 186 225 261
#     4   9  17  30  48  68  91 122 159 195 226 256
#     4  10  20  33  50  74 103 133 163 193 227 271
#     4   8  14  24  38  58  87 121 153 184 216 254
#
# _framework density 16.812909999999999
#
# number of rings (size 3 to 8) (size 9 to 14) (size 15 to 20)
#    0.000    2.750    0.000    1.875    0.000    3.750 
#    0.000    3.125    0.000    9.000    0.000    0.000 
#    0.000   19.750    0.000    0.000    0.000    0.000 
#
# Total GULP energy -793014.499807 kJ/mol
# GULP energy per Si atom -12390.851559 kJ/mol
# Density = 1.677464 g / cm^3
# Si number density = 16.812910 Si / 1000 Ang^3
#
#
#
# Elastic Constant Matrix: (Units=GPa)
#
#
# Indices 1 2 3 4 5 6 
#
# 1 77.0071 35.8168 41.5823 0.0000 0.0000 0.0000
# 2 35.8168 77.0071 41.5823 0.0000 0.0000 0.0000
# 3 41.5823 41.5823 148.5007 0.0000 0.0000 0.0000
# 4 0.0000 0.0000 0.0000 18.4228 0.0000 0.0000
# 5 0.0000 0.0000 0.0000 0.0000 18.4228 0.0000
# 6 0.0000 0.0000 0.0000 0.0000 0.0000 9.1646
#
#
#
# Elastic Compliance Matrix: (Units=1/GPa)
#
#
# Indices 1 2 3 4 5 6 
#
# 1 0.017723 -0.006554 -0.003127 0.000000 0.000000 0.000000
# 2 -0.006554 0.017723 -0.003127 0.000000 0.000000 0.000000
# 3 -0.003127 -0.003127 0.008485 0.000000 0.000000 0.000000
# 4 0.000000 0.000000 0.000000 0.054281 0.000000 0.000000
# 5 0.000000 0.000000 0.000000 0.000000 0.054281 0.000000
# 6 0.000000 0.000000 0.000000 0.000000 0.000000 0.109116
#
#
# Mechanical properties :
#
#
# Convention : Reuss Voigt Hill
#
# Bulk Modulus (GPa) = 54.60559 60.05306 57.32932
# Shear Modulus (GPa) = 17.04558 21.43761 19.24159
#
# Velocity S-wave (km/s) = 3.18754 3.57468 3.38665
# Velocity P-wave (km/s) = 6.78941 7.26868 7.03313
#
# Compressibility (1/GPa) = 0.01831314
#
# Stress axis : x y z
#
# Youngs Moduli (GPa) = 56.42365 56.42365 117.84968
#
# Poissons Ratio (x) = 0.36983 0.36856
# Poissons Ratio (y) = 0.36983 0.36856
# Poissons Ratio (z) = 0.17646 0.17646
#
# Static dielectric constant tensor:
#      x y z
#    x 2.919840 0.000000 0.000000 
#    y 0.000000 2.919840 0.000000 
#    z 0.000000 0.000000 3.725850 
# 
# 
# High freq. dielectric constant tensor:
#      x y z
#    x 1.618200 0.000000 0.000000 
#    y 0.000000 1.618200 0.000000 
#    z 0.000000 0.000000 1.679240 
# 
# From -- ./inp_files/2291.got.cif
#   From: 2010.03.12/outbox.cif.g09.slc.cpg/sg99_cif.got.tgz:2291.got - 2010.04.08 21:11:30.
