data_PCOD8306600
_publ_section_title
;
Structure prediction by ZEFSAII (Michael W. Deem and Ramdas Pophale) SiO2 
 PCOD8306600
Probable space group: P 4 M M
;
_chemical_formula_sum "Si O2"
_cell_formula_units_Z 48
_cell_length_a 13.438446
_cell_length_b 13.438446
_cell_length_c 15.697562
_cell_angle_alpha 90.000000
_cell_angle_beta 90.000000
_cell_angle_gamma 90.000000
_cell_volume 2834.851462
_symmetry_space_group_name_H-M "P 4 M M"
_symmetry_group_IT_number 99
_symmetry_cell_setting 'tetragonal'
loop_
_space_group_symop_operation_xyz
x,y,z
-y,x,z
-x,-y,z
y,-x,z
-x,y,z
x,-y,z
-y,-x,z
y,x,z
loop_
_atom_site_type_symbol
_atom_site_label
_atom_site_fract_x
_atom_site_fract_y
_atom_site_fract_z
Si Si1 0.387798 0.771551 0.383190
Si Si2 0.382817 0.776794 0.898162
Si Si3 0.382091 0.109493 0.730948
Si Si4 0.777444 0.615875 0.566855
Si Si5 0.279991 0.884261 0.047592
Si Si6 0.780940 0.383124 0.197961
O O1 0.500000 0.736346 0.383540
O O2 0.330832 0.669169 0.383450
O O3 0.365418 0.829292 0.472900
O O4 0.365545 0.827960 0.293598
O O5 0.500000 0.757287 0.903065
O O6 0.328042 0.671959 0.914332
O O7 0.347801 0.818733 0.806909
O O8 0.351325 0.856443 0.969123
O O9 0.500000 0.101848 0.730845
O O10 0.343433 0.149419 0.639900
O O11 0.335566 0.000000 0.744710
O O12 0.753966 0.500000 0.581941
O O13 0.673189 0.673189 0.573217
O O14 0.177472 0.822529 0.044207
O O15 0.340850 0.862797 0.133776
O O16 0.252476 0.000000 0.043495
O O17 0.760689 0.500000 0.180317
O O18 0.676865 0.323136 0.186284
#
# Coordination Sequence:
#
# PCOD8306600 Si02
#       6
#     8   8   8   8   8   8
#     4   8  14  24  38  58  87 121 154 188 224 266
#     4  10  20  33  50  73  99 126 155 186 224 274
#     4   9  17  29  44  61  84 117 155 192 227 263
#     4   9  16  26  41  62  89 120 152 187 228 275
#     4  10  21  36  53  72  93 119 154 196 239 280
#     4   9  17  29  45  67  95 126 159 193 231 278
#
# _framework density 16.932103999999999
#
# number of rings (size 3 to 8) (size 9 to 14) (size 15 to 20)
#    0.000    2.833    0.000    1.500    0.000    2.833 
#    0.000    4.167    0.000    9.000    0.000    0.000 
#    0.000    3.000    0.000    0.000    0.000    3.333 
#
# Total GULP energy -594644.385408 kJ/mol
# GULP energy per Si atom -12388.424696 kJ/mol
# Density = 1.689357 g / cm^3
# Si number density = 16.932104 Si / 1000 Ang^3
#
#
#
# Elastic Constant Matrix: (Units=GPa)
#
#
# Indices 1 2 3 4 5 6 
#
# 1 76.5176 30.6166 41.0955 0.0000 0.0000 -0.0001
# 2 30.6166 76.5176 41.0955 0.0000 0.0000 0.0001
# 3 41.0955 41.0955 149.5398 0.0000 0.0000 0.0000
# 4 0.0000 0.0000 0.0000 15.8199 0.0000 0.0000
# 5 0.0000 0.0000 0.0000 0.0000 15.8199 0.0000
# 6 -0.0001 0.0001 0.0000 0.0000 0.0000 9.4093
#
#
#
# Elastic Compliance Matrix: (Units=1/GPa)
#
#
# Indices 1 2 3 4 5 6 
#
# 1 0.016807 -0.004979 -0.003250 0.000000 0.000000 0.000000
# 2 -0.004979 0.016807 -0.003250 0.000000 0.000000 0.000000
# 3 -0.003250 -0.003250 0.008474 0.000000 0.000000 0.000000
# 4 0.000000 0.000000 0.000000 0.063211 0.000000 0.000000
# 5 0.000000 0.000000 0.000000 0.000000 0.063211 0.000000
# 6 0.000000 0.000000 0.000000 0.000000 0.000000 0.106278
#
#
# Mechanical properties :
#
#
# Convention : Reuss Voigt Hill
#
# Bulk Modulus (GPa) = 52.28076 58.68780 55.48428
# Shear Modulus (GPa) = 16.44064 20.86098 18.65081
#
# Velocity S-wave (km/s) = 3.11943 3.51385 3.32249
# Velocity P-wave (km/s) = 6.62708 7.15533 6.89626
#
# Compressibility (1/GPa) = 0.01912750
#
# Stress axis : x y z
#
# Youngs Moduli (GPa) = 59.49947 59.49947 118.01228
#
# Poissons Ratio (x) = 0.29626 0.38359
# Poissons Ratio (y) = 0.29626 0.38359
# Poissons Ratio (z) = 0.19340 0.19340
#
# Static dielectric constant tensor:
#      x y z
#    x 2.914290 0.000000 0.000000 
#    y 0.000000 2.914290 0.000000 
#    z 0.000000 0.000000 3.830090 
# 
# 
# High freq. dielectric constant tensor:
#      x y z
#    x 1.622470 0.000000 0.000000 
#    y 0.000000 1.622470 0.000000 
#    z 0.000000 0.000000 1.685930 
# 
# From -- ./inp_files/1715.got.cif
#   From: 2010.03.12/outbox.cif.g09.slc.cpg/sg99_cif.got.tgz:1715.got - 2010.04.08 21:11:30.
