data_PCOD8306730
_publ_section_title
;
Structure prediction by ZEFSAII (Michael W. Deem and Ramdas Pophale) SiO2 
 PCOD8306730
Probable space group: P 42 C M
;
_chemical_formula_sum "Si O2"
_cell_formula_units_Z 64
_cell_length_a 11.993305
_cell_length_b 11.993305
_cell_length_c 22.948821
_cell_angle_alpha 90.000000
_cell_angle_beta 90.000000
_cell_angle_gamma 90.000000
_cell_volume 3300.943836
_symmetry_space_group_name_H-M "P 42 C M"
_symmetry_group_IT_number 101
_symmetry_cell_setting 'tetragonal'
loop_
_space_group_symop_operation_xyz
x,y,z
-y,x,1/2+z
-x,-y,z
y,-x,1/2+z
-x,y,1/2+z
x,-y,1/2+z
-y,-x,z
y,x,z
loop_
_atom_site_type_symbol
_atom_site_label
_atom_site_fract_x
_atom_site_fract_y
_atom_site_fract_z
Si Si1 0.389392 0.934144 0.911980
Si Si2 0.359146 0.822408 0.031281
Si Si3 0.628666 0.986271 0.122011
Si Si4 0.493888 0.324886 0.703219
Si Si5 0.241117 0.424556 0.086556
Si Si6 0.164445 0.525407 0.799534
Si Si7 0.907161 0.722405 0.828510
Si Si8 0.736370 0.925609 0.236498
O O1 0.420811 0.839027 0.863955
O O2 0.500000 0.000000 0.931043
O O3 0.296295 0.021141 0.887624
O O4 0.339905 0.871954 0.967254
O O5 0.271363 0.728638 0.043811
O O6 0.481075 0.765467 0.036883
O O7 0.337851 0.915484 0.079255
O O8 0.646288 0.872149 0.085248
O O9 0.718620 0.983719 0.174148
O O10 0.500000 0.000000 0.142410
O O11 0.572675 0.427326 0.691203
O O12 0.365897 0.365897 0.697877
O O13 0.518498 0.238386 0.651285
O O14 0.513474 0.284357 0.769477
O O15 0.348081 0.348081 0.073838
O O16 0.113726 0.401171 0.802061
O O17 0.101441 0.611098 0.757310
O O18 0.794923 0.794923 0.840917
O O19 0.983529 0.788052 0.781271
O O20 0.816185 0.816185 0.232898
#
# Coordination Sequence:
#
# PCOD8306730 Si02
#       8
#     8   8   8   8   8   8   8   8
#     4   9  20  41  62  82 112 152 205 248 290 350
#     4  11  24  40  60  88 119 155 201 251 301 352
#     4  10  20  36  58  85 116 156 204 242 284 346
#     4  10  19  30  50  87 128 157 185 229 293 360
#     4  10  20  37  62  88 119 158 197 242 297 357
#     4  10  19  36  61  88 116 149 191 239 291 351
#     4  10  22  38  61  89 117 151 196 250 303 353
#     4  11  21  35  57  86 121 158 198 240 293 361
#
# _framework density 19.388394000000002
#
# number of rings (size 3 to 8) (size 9 to 14) (size 15 to 20)
#    0.000    1.875    1.250    4.500    1.750    4.000 
#    0.000    6.875    0.000    2.625    0.000    0.000 
#    0.000    0.000    0.000    0.000    0.000    0.000 
#
# Total GULP energy -792971.121968 kJ/mol
# GULP energy per Si atom -12390.173781 kJ/mol
# Density = 1.934426 g / cm^3
# Si number density = 19.388394 Si / 1000 Ang^3
#
#
#
# Elastic Constant Matrix: (Units=GPa)
#
#
# Indices 1 2 3 4 5 6 
#
# 1 76.4678 39.2393 39.7578 0.0000 0.0000 -0.0010
# 2 39.2393 76.4678 39.7578 0.0000 0.0000 0.0010
# 3 39.7578 39.7578 94.1562 0.0000 0.0000 0.0000
# 4 0.0000 0.0000 0.0000 22.7594 0.0000 0.0000
# 5 0.0000 0.0000 0.0000 0.0000 22.7594 0.0000
# 6 -0.0010 0.0010 0.0000 0.0000 0.0000 18.1239
#
#
#
# Elastic Compliance Matrix: (Units=1/GPa)
#
#
# Indices 1 2 3 4 5 6 
#
# 1 0.019518 -0.007343 -0.005141 0.000000 0.000000 0.000002
# 2 -0.007343 0.019518 -0.005141 0.000000 0.000000 -0.000002
# 3 -0.005141 -0.005141 0.014962 0.000000 0.000000 0.000000
# 4 0.000000 0.000000 0.000000 0.043938 0.000000 0.000000
# 5 0.000000 0.000000 0.000000 0.000000 0.043938 0.000000
# 6 0.000002 -0.000002 0.000000 0.000000 0.000000 0.055176
#
#
# Mechanical properties :
#
#
# Convention : Reuss Voigt Hill
#
# Bulk Modulus (GPa) = 53.33656 53.84464 53.59060
# Shear Modulus (GPa) = 20.95992 21.28435 21.12214
#
# Velocity S-wave (km/s) = 3.29151 3.31688 3.30422
# Velocity P-wave (km/s) = 6.48187 6.51927 6.50059
#
# Compressibility (1/GPa) = 0.01874886
#
# Stress axis : x y z
#
# Youngs Moduli (GPa) = 51.23369 51.23369 66.83405
#
# Poissons Ratio (x) = 0.37620 0.34361
# Poissons Ratio (y) = 0.37620 0.34361
# Poissons Ratio (z) = 0.26340 0.26340
#
# Static dielectric constant tensor:
#      x y z
#    x 3.659440 0.000000 0.000000 
#    y 0.000000 3.659440 0.000000 
#    z 0.000000 0.000000 3.501470 
# 
# 
# High freq. dielectric constant tensor:
#      x y z
#    x 1.745990 0.000000 0.000000 
#    y 0.000000 1.745990 0.000000 
#    z 0.000000 0.000000 1.745800 
# 
# From -- ./inp_files/2753.got.cif
#   From: 2010.03.12/outbox.cif.g09.slc.cpg/sg101_2_cif.got.tgz:2753.got - 2010.04.14 01:38:52.
