data_PCOD8306004
_publ_section_title
;
Structure prediction by ZEFSAII (Michael W. Deem and Ramdas Pophale) SiO2 
 PCOD8306004
Probable space group: P 43 21 2
;
_chemical_formula_sum "Si O2"
_cell_formula_units_Z 40
_cell_length_a 14.106012
_cell_length_b 14.106012
_cell_length_c 9.412629
_cell_angle_alpha 90.000000
_cell_angle_beta 90.000000
_cell_angle_gamma 90.000000
_cell_volume 1872.920914
_symmetry_space_group_name_H-M "P 43 21 2"
_symmetry_group_IT_number 96
_symmetry_cell_setting 'tetragonal'
loop_
_space_group_symop_operation_xyz
x,y,z
1/2-y,1/2+x,3/4+z
-x,-y,1/2+z
1/2+y,1/2-x,1/4+z
1/2+x,1/2-y,1/4-z
1/2-x,1/2+y,3/4-z
y,x,-z
-y,-x,1/2-z
loop_
_atom_site_type_symbol
_atom_site_label
_atom_site_fract_x
_atom_site_fract_y
_atom_site_fract_z
Si Si1 0.969922 0.328488 0.480618
Si Si2 0.609805 0.182677 0.511245
Si Si3 0.179495 0.820177 0.413593
Si Si4 0.843955 0.498324 0.422782
Si Si5 0.467267 0.685918 0.783446
O O1 0.890635 0.260396 0.540159
O O2 0.935100 0.434874 0.453698
O O3 0.058276 0.338793 0.588582
O O4 0.990914 0.288831 0.322991
O O5 0.715407 0.215449 0.548785
O O6 0.555422 0.270793 0.438745
O O7 0.616098 0.092902 0.404560
O O8 0.164369 0.835632 0.250000
O O9 0.077594 0.841643 0.485302
O O10 0.769248 0.441979 0.326205
O O11 0.406673 0.593328 0.750000
#
# Coordination Sequence:
#
# PCOD8306004 Si02
#       5
#     8   8   8   8   8
#     4  12  25  43  69 102 137 176 224 284 343 403
#     4  11  25  42  71  99 137 177 224 281 346 398
#     4  11  24  47  66 100 136 179 228 282 330 407
#     4  11  26  40  70 104 134 176 224 282 348 408
#     4  11  24  47  68  97 135 183 225 280 337 407
#
# _framework density 21.357016000000002
#
# number of rings (size 3 to 8) (size 9 to 14) (size 15 to 20)
#    0.000    0.800    4.000    2.400    5.600    2.400 
#    3.600    1.000    0.000    0.000    0.000    0.000 
#    0.000    0.000    0.000    0.000    0.000    0.000 
#
# Total GULP energy -495867.258863 kJ/mol
# GULP energy per Si atom -12396.681472 kJ/mol
# Density = 2.130841 g / cm^3
# Si number density = 21.357016 Si / 1000 Ang^3
#
#
#
# Elastic Constant Matrix: (Units=GPa)
#
#
# Indices 1 2 3 4 5 6 
#
# 1 79.1482 37.5978 24.1452 0.0000 0.0000 0.0000
# 2 37.5978 79.1493 24.1458 0.0000 0.0000 0.0000
# 3 24.1452 24.1458 129.7942 0.0000 0.0000 0.0000
# 4 0.0000 0.0000 0.0000 30.0220 0.0000 0.0000
# 5 0.0000 0.0000 0.0000 0.0000 30.0221 0.0000
# 6 0.0000 0.0000 0.0000 0.0000 0.0000 31.7916
#
#
#
# Elastic Compliance Matrix: (Units=1/GPa)
#
#
# Indices 1 2 3 4 5 6 
#
# 1 0.016673 -0.007394 -0.001726 0.000000 0.000000 0.000000
# 2 -0.007394 0.016673 -0.001726 0.000000 0.000000 0.000000
# 3 -0.001726 -0.001726 0.008347 0.000000 0.000000 0.000000
# 4 0.000000 0.000000 0.000000 0.033309 0.000000 0.000000
# 5 0.000000 0.000000 0.000000 0.000000 0.033309 0.000000
# 6 0.000000 0.000000 0.000000 0.000000 0.000000 0.031455
#
#
# Mechanical properties :
#
#
# Convention : Reuss Voigt Hill
#
# Bulk Modulus (GPa) = 49.99774 51.09659 50.54716
# Shear Modulus (GPa) = 29.73976 31.84733 30.79354
#
# Velocity S-wave (km/s) = 3.73568 3.86578 3.80129
# Velocity P-wave (km/s) = 6.48601 6.62590 6.55633
#
# Compressibility (1/GPa) = 0.02000090
#
# Stress axis : x y z
#
# Youngs Moduli (GPa) = 59.97603 59.97674 119.80670
#
# Poissons Ratio (x) = 0.44344 0.20682
# Poissons Ratio (y) = 0.44344 0.20682
# Poissons Ratio (z) = 0.10353 0.10354
#
# Static dielectric constant tensor:
#      x y z
#    x 3.378200 0.000000 0.000000 
#    y 0.000000 3.378240 0.000000 
#    z 0.000000 0.000000 2.960070 
# 
# 
# High freq. dielectric constant tensor:
#      x y z
#    x 1.833380 0.000000 0.000000 
#    y 0.000000 1.833380 0.000000 
#    z 0.000000 0.000000 1.861380 
# 
# From -- ./inp_files/1315.got.cif
#   From: 2010.03.12/outbox.cif.g09.slc.cpg/sg96_1_cif.got.tgz:1315.got - 2010.04.08 20:56:49.
