data_PCOD8306634
_publ_section_title
;
Structure prediction by ZEFSAII (Michael W. Deem and Ramdas Pophale) SiO2 
 PCOD8306634
Probable space group: P 4 B M
;
_chemical_formula_sum "Si O2"
_cell_formula_units_Z 48
_cell_length_a 15.250460
_cell_length_b 15.250460
_cell_length_c 11.813352
_cell_angle_alpha 90.000000
_cell_angle_beta 90.000000
_cell_angle_gamma 90.000000
_cell_volume 2747.508418
_symmetry_space_group_name_H-M "P 4 B M"
_symmetry_group_IT_number 100
_symmetry_cell_setting 'tetragonal'
loop_
_space_group_symop_operation_xyz
x,y,z
-y,x,z
-x,-y,z
y,-x,z
1/2-x,1/2+y,z
1/2+x,1/2-y,z
1/2-y,1/2-x,z
1/2+y,1/2+x,z
loop_
_atom_site_type_symbol
_atom_site_label
_atom_site_fract_x
_atom_site_fract_y
_atom_site_fract_z
Si Si1 0.408654 0.232733 0.834140
Si Si2 0.526969 0.640342 0.391793
Si Si3 0.359658 0.526969 0.652947
Si Si4 0.327823 0.681238 0.022370
Si Si5 0.468377 0.821473 0.022371
Si Si6 0.591347 0.767268 0.210601
O O1 0.327667 0.172334 0.793344
O O2 0.457772 0.271917 0.725429
O O3 0.377190 0.315386 0.910051
O O4 0.473447 0.172334 0.909168
O O5 0.431549 0.601231 0.364058
O O6 0.532216 0.668089 0.522370
O O7 0.542228 0.728083 0.319311
O O8 0.398769 0.431549 0.680682
O O9 0.251531 0.751531 0.022366
O O10 0.421955 0.726376 0.022371
O O11 0.315385 0.622813 0.134691
O O12 0.401160 0.901160 0.022372
O O13 0.526555 0.827666 0.135572
O O14 0.672334 0.827667 0.251400
#
# Coordination Sequence:
#
# PCOD8306634 Si02
#       6
#     8   8   8   8   8   8
#     4  10  19  30  47  72  99 127 160 195 235 283
#     4   9  18  33  52  72  94 122 158 200 243 283
#     4   9  18  33  52  72  94 122 158 200 243 283
#     4   8  16  29  44  66  94 123 158 197 230 267
#     4  10  19  32  50  70  97 131 161 192 234 282
#     4  10  19  30  47  72  99 127 160 195 235 283
#
# _framework density 17.470376000000002
#
# number of rings (size 3 to 8) (size 9 to 14) (size 15 to 20)
#    0.000    2.667    0.000    4.500    0.000    2.000 
#    0.000    0.000    0.000   11.000    0.000    2.333 
#    0.000    0.000    0.000    0.000    0.000    0.000 
#
# Total GULP energy -595140.796988 kJ/mol
# GULP energy per Si atom -12398.766604 kJ/mol
# Density = 1.743061 g / cm^3
# Si number density = 17.470376 Si / 1000 Ang^3
#
#
#
# Elastic Constant Matrix: (Units=GPa)
#
#
# Indices 1 2 3 4 5 6 
#
# 1 68.3014 25.5211 41.5484 0.0000 0.0000 0.0000
# 2 25.5211 68.3014 41.5484 0.0000 0.0000 0.0000
# 3 41.5484 41.5484 101.7461 0.0000 0.0000 0.0000
# 4 0.0000 0.0000 0.0000 15.8434 0.0000 0.0000
# 5 0.0000 0.0000 0.0000 0.0000 15.8434 0.0000
# 6 0.0000 0.0000 0.0000 0.0000 0.0000 32.3553
#
#
#
# Elastic Compliance Matrix: (Units=1/GPa)
#
#
# Indices 1 2 3 4 5 6 
#
# 1 0.020036 -0.003339 -0.006818 0.000000 0.000000 0.000000
# 2 -0.003339 0.020036 -0.006818 0.000000 0.000000 0.000000
# 3 -0.006818 -0.006818 0.015397 0.000000 0.000000 0.000000
# 4 0.000000 0.000000 0.000000 0.063118 0.000000 0.000000
# 5 0.000000 0.000000 0.000000 0.000000 0.063118 0.000000
# 6 0.000000 0.000000 0.000000 0.000000 0.000000 0.030907
#
#
# Mechanical properties :
#
#
# Convention : Reuss Voigt Hill
#
# Bulk Modulus (GPa) = 46.47260 50.62054 48.54657
# Shear Modulus (GPa) = 19.70550 21.45716 20.58133
#
# Velocity S-wave (km/s) = 3.36212 3.50837 3.43603
# Velocity P-wave (km/s) = 6.45990 6.74163 6.60227
#
# Compressibility (1/GPa) = 0.02151806
#
# Stress axis : x y z
#
# Youngs Moduli (GPa) = 49.90940 49.90940 64.94751
#
# Poissons Ratio (x) = 0.16664 0.44284
# Poissons Ratio (y) = 0.16664 0.44284
# Poissons Ratio (z) = 0.34030 0.34030
#
# Static dielectric constant tensor:
#      x y z
#    x 3.151300 0.000000 0.000000 
#    y 0.000000 3.151300 0.000000 
#    z 0.000000 0.000000 3.095710 
# 
# 
# High freq. dielectric constant tensor:
#      x y z
#    x 1.666020 0.000000 0.000000 
#    y 0.000000 1.666020 0.000000 
#    z 0.000000 0.000000 1.666360 
# 
# From -- ./inp_files/1249.got.cif
#   From: 2010.03.12/outbox.cif.g09.slc.cpg/sg100_cif.got.tgz:1249.got - 2010.04.14 01:37:57.
