data_PCOD8306935
_publ_section_title
;
Structure prediction by ZEFSAII (Michael W. Deem and Ramdas Pophale) SiO2 
 PCOD8306935
Probable space group: P 42 N M
;
_chemical_formula_sum "Si O2"
_cell_formula_units_Z 56
_cell_length_a 15.238295
_cell_length_b 15.238295
_cell_length_c 10.293309
_cell_angle_alpha 90.000000
_cell_angle_beta 90.000000
_cell_angle_gamma 90.000000
_cell_volume 2390.164348
_symmetry_space_group_name_H-M "P 42 N M"
_symmetry_group_IT_number 102
_symmetry_cell_setting 'tetragonal'
loop_
_space_group_symop_operation_xyz
x,y,z
1/2-y,1/2+x,1/2+z
-x,-y,z
1/2+y,1/2-x,1/2+z
1/2-x,1/2+y,1/2+z
1/2+x,1/2-y,1/2+z
-y,-x,z
y,x,z
loop_
_atom_site_type_symbol
_atom_site_label
_atom_site_fract_x
_atom_site_fract_y
_atom_site_fract_z
Si Si1 0.400178 0.991723 0.333060
Si Si2 0.156623 0.364354 0.195226
Si Si3 0.681278 0.822037 0.708997
Si Si4 0.397072 0.259489 0.452726
Si Si5 0.768565 0.479083 0.048738
Si Si6 0.569363 0.291659 0.581013
Si Si7 0.495758 0.361178 0.830411
O O1 0.360228 0.893552 0.307849
O O2 0.348072 0.037405 0.449897
O O3 0.500000 0.000000 0.380400
O O4 0.395781 0.054921 0.206607
O O5 0.199574 0.358030 0.337675
O O6 0.218691 0.427869 0.115821
O O7 0.149234 0.275089 0.111644
O O8 0.750557 0.750557 0.772185
O O9 0.635462 0.779988 0.586461
O O10 0.737587 0.904806 0.658585
O O11 0.357450 0.357450 0.435703
O O12 0.504220 0.265646 0.461602
O O13 0.678490 0.481631 0.969670
O O14 0.614962 0.385039 0.548105
O O15 0.509155 0.293185 0.712478
O O16 0.558823 0.441178 0.803821
O O17 0.395081 0.395081 0.827731
#
# Coordination Sequence:
#
# PCOD8306935 Si02
#       7
#     8   8   8   8   8   8   8
#     4  12  25  41  66 100 136 180 232 291 352 416
#     4  12  25  41  66  96 136 177 224 282 359 421
#     4  11  23  42  68  99 131 176 230 287 348 421
#     4  11  23  42  66  94 133 176 220 281 353 416
#     4  12  25  41  67  95 136 180 227 280 348 430
#     4  11  23  43  70 101 131 174 235 289 341 416
#     4  10  21  41  69  98 129 170 225 285 342 411
#
# _framework density 23.429348999999998
#
# number of rings (size 3 to 8) (size 9 to 14) (size 15 to 20)
#    0.000    0.714    5.714    1.286    4.000    6.000 
#    0.000    2.857    0.000    0.000    0.000    0.000 
#    0.000    0.000    0.000    0.000    0.000    0.000 
#
# Total GULP energy -693961.396670 kJ/mol
# GULP energy per Si atom -12392.167798 kJ/mol
# Density = 2.337602 g / cm^3
# Si number density = 23.429349 Si / 1000 Ang^3
#
#
#
# Elastic Constant Matrix: (Units=GPa)
#
#
# Indices 1 2 3 4 5 6 
#
# 1 103.6629 44.8789 23.6309 0.0000 0.0000 0.0003
# 2 44.8789 103.6629 23.6309 0.0000 0.0000 -0.0003
# 3 23.6309 23.6309 46.1274 0.0000 0.0000 0.0000
# 4 0.0000 0.0000 0.0000 30.8174 0.0000 0.0000
# 5 0.0000 0.0000 0.0000 0.0000 30.8174 0.0000
# 6 0.0003 -0.0003 0.0000 0.0000 0.0000 36.1752
#
#
#
# Elastic Compliance Matrix: (Units=1/GPa)
#
#
# Indices 1 2 3 4 5 6 
#
# 1 0.012527 -0.004484 -0.004120 0.000000 0.000000 0.000000
# 2 -0.004484 0.012527 -0.004120 0.000000 0.000000 0.000000
# 3 -0.004120 -0.004120 0.025901 0.000000 0.000000 0.000000
# 4 0.000000 0.000000 0.000000 0.032449 0.000000 0.000000
# 5 0.000000 0.000000 0.000000 0.000000 0.032449 0.000000
# 6 0.000000 0.000000 0.000000 0.000000 0.000000 0.027643
#
#
# Mechanical properties :
#
#
# Convention : Reuss Voigt Hill
#
# Bulk Modulus (GPa) = 39.20754 48.63715 43.92235
# Shear Modulus (GPa) = 28.17710 30.31615 29.24663
#
# Velocity S-wave (km/s) = 3.47167 3.60104 3.53695
# Velocity P-wave (km/s) = 5.73068 6.17204 5.95545
#
# Compressibility (1/GPa) = 0.02550530
#
# Stress axis : x y z
#
# Youngs Moduli (GPa) = 79.82584 79.82584 38.60872
#
# Poissons Ratio (x) = 0.35795 0.15909
# Poissons Ratio (y) = 0.35795 0.15909
# Poissons Ratio (z) = 0.32892 0.32892
#
# Static dielectric constant tensor:
#      x y z
#    x 4.355330 0.000000 0.000000 
#    y 0.000000 4.355330 0.000000 
#    z 0.000000 0.000000 4.284750 
# 
# 
# High freq. dielectric constant tensor:
#      x y z
#    x 1.930870 0.000000 0.000000 
#    y 0.000000 1.930870 0.000000 
#    z 0.000000 0.000000 1.904260 
# 
# From -- ./inp_files/1853.got.cif
#   From: 2010.03.12/outbox.cif.g09.slc.cpg/sg102_1_cif.got.tgz:1853.got - 2010.04.14 01:40:42.
