data_PCOD8306679
_publ_section_title
;
Structure prediction by ZEFSAII (Michael W. Deem and Ramdas Pophale) SiO2 
 PCOD8306679
Probable space group: P 4 B M
;
_chemical_formula_sum "Si O2"
_cell_formula_units_Z 64
_cell_length_a 13.269127
_cell_length_b 13.269127
_cell_length_c 19.901506
_cell_angle_alpha 90.000000
_cell_angle_beta 90.000000
_cell_angle_gamma 90.000000
_cell_volume 3504.052815
_symmetry_space_group_name_H-M "P 4 B M"
_symmetry_group_IT_number 100
_symmetry_cell_setting 'tetragonal'
loop_
_space_group_symop_operation_xyz
x,y,z
-y,x,z
-x,-y,z
y,-x,z
1/2-x,1/2+y,z
1/2+x,1/2-y,z
1/2-y,1/2-x,z
1/2+y,1/2+x,z
loop_
_atom_site_type_symbol
_atom_site_label
_atom_site_fract_x
_atom_site_fract_y
_atom_site_fract_z
Si Si1 0.756655 0.420112 0.279680
Si Si2 0.111226 0.223797 0.355596
Si Si3 0.163533 0.495979 0.745361
Si Si4 0.161597 0.043812 0.142616
Si Si5 0.162961 0.030931 0.998390
Si Si6 0.661124 0.529169 0.496015
Si Si7 0.166311 0.018605 0.853538
Si Si8 0.662535 0.994940 0.595930
O O1 0.855653 0.355653 0.294612
O O2 0.660688 0.372234 0.318536
O O3 0.775914 0.533154 0.304878
O O4 0.739954 0.425947 0.199928
O O5 0.196494 0.303507 0.377080
O O6 0.044144 0.192208 0.419124
O O7 0.076175 0.576175 0.754511
O O8 0.250347 0.522991 0.796983
O O9 0.210775 0.506109 0.670524
O O10 0.115582 0.384419 0.757468
O O11 0.069365 0.121181 0.149926
O O12 0.220149 0.049930 0.069670
O O13 0.221983 0.034187 0.926911
O O14 0.078193 0.114834 0.998709
O O15 0.580519 0.615789 0.511480
O O16 0.757518 0.536985 0.543182
O O17 0.087458 0.109383 0.845798
O O18 0.615790 0.884211 0.576957
O O19 0.570888 0.070888 0.597249
#
# Coordination Sequence:
#
# PCOD8306679 Si02
#       8
#     8   8   8   8   8   8   8   8
#     4  11  22  35  55  81 108 142 182 223 268 316
#     4  11  23  39  58  80 109 142 178 220 267 320
#     4   9  19  36  55  75 103 143 188 224 260 318
#     4   9  15  27  52  77 100 135 177 223 269 314
#     4   7  12  24  44  73 104 134 170 214 268 319
#     4  11  23  38  59  84 111 140 173 218 267 317
#     4   9  17  30  50  78 112 140 171 223 275 319
#     4   9  20  39  59  78 105 142 181 223 270 320
#
# _framework density 18.264565000000001
#
# number of rings (size 3 to 8) (size 9 to 14) (size 15 to 20)
#    0.000    2.500    2.500    2.625    0.000    3.500 
#    0.000    4.375    0.000    5.250    0.000    0.000 
#    0.000    0.000    0.000    0.000    0.000    0.000 
#
# Total GULP energy -792865.077668 kJ/mol
# GULP energy per Si atom -12388.516839 kJ/mol
# Density = 1.822299 g / cm^3
# Si number density = 18.264565 Si / 1000 Ang^3
#
#
#
# Elastic Constant Matrix: (Units=GPa)
#
#
# Indices 1 2 3 4 5 6 
#
# 1 51.6832 3.3714 30.8666 0.0000 0.0000 -0.0002
# 2 3.3714 51.6832 30.8666 0.0000 0.0000 0.0002
# 3 30.8666 30.8666 137.5511 0.0000 0.0000 0.0000
# 4 0.0000 0.0000 0.0000 18.5751 0.0000 0.0000
# 5 0.0000 0.0000 0.0000 0.0000 18.5751 0.0000
# 6 -0.0002 0.0002 0.0000 0.0000 0.0000 9.7609
#
#
#
# Elastic Compliance Matrix: (Units=1/GPa)
#
#
# Indices 1 2 3 4 5 6 
#
# 1 0.022485 0.001786 -0.005446 0.000000 0.000000 0.000000
# 2 0.001786 0.022485 -0.005446 0.000000 0.000000 0.000000
# 3 -0.005446 -0.005446 0.009714 0.000000 0.000000 0.000000
# 4 0.000000 0.000000 0.000000 0.053835 0.000000 0.000000
# 5 0.000000 0.000000 0.000000 0.000000 0.053835 0.000000
# 6 0.000000 0.000000 0.000000 0.000000 0.000000 0.102450
#
#
# Mechanical properties :
#
#
# Convention : Reuss Voigt Hill
#
# Bulk Modulus (GPa) = 27.41936 41.23628 34.32782
# Shear Modulus (GPa) = 16.93908 21.10308 19.02108
#
# Velocity S-wave (km/s) = 3.04868 3.40282 3.23060
# Velocity P-wave (km/s) = 5.23808 6.16970 5.72288
#
# Compressibility (1/GPa) = 0.03647058
#
# Stress axis : x y z
#
# Youngs Moduli (GPa) = 44.47429 44.47429 102.94012
#
# Poissons Ratio (x) = -0.07943 0.56065
# Poissons Ratio (y) = -0.07943 0.56065
# Poissons Ratio (z) = 0.24223 0.24223
#
# Static dielectric constant tensor:
#      x y z
#    x 3.134640 0.000000 0.000000 
#    y 0.000000 3.134640 0.000000 
#    z 0.000000 0.000000 3.818850 
# 
# 
# High freq. dielectric constant tensor:
#      x y z
#    x 1.683030 0.000000 0.000000 
#    y 0.000000 1.683030 0.000000 
#    z 0.000000 0.000000 1.727720 
# 
# From -- ./inp_files/1484.got.cif
#   From: 2010.03.12/outbox.cif.g09.slc.cpg/sg100_cif.got.tgz:1484.got - 2010.04.14 01:37:57.
