data_PCOD8306540
_publ_section_title
;
Structure prediction by ZEFSAII (Michael W. Deem and Ramdas Pophale) SiO2 
 PCOD8306540
Probable space group: P 4 M M
;
_chemical_formula_sum "Si O2"
_cell_formula_units_Z 64
_cell_length_a 13.577061
_cell_length_b 13.577061
_cell_length_c 20.669331
_cell_angle_alpha 90.000000
_cell_angle_beta 90.000000
_cell_angle_gamma 90.000000
_cell_volume 3810.113899
_symmetry_space_group_name_H-M "P 4 M M"
_symmetry_group_IT_number 99
_symmetry_cell_setting 'tetragonal'
loop_
_space_group_symop_operation_xyz
x,y,z
-y,x,z
-x,-y,z
y,-x,z
-x,y,z
x,-y,z
-y,-x,z
y,x,z
loop_
_atom_site_type_symbol
_atom_site_label
_atom_site_fract_x
_atom_site_fract_y
_atom_site_fract_z
Si Si1 0.275758 0.115441 0.542740
Si Si2 0.883659 0.722949 0.287139
Si Si3 0.612025 0.766025 0.793953
Si Si4 0.389756 0.116494 0.415601
Si Si5 0.613967 0.775383 0.649336
Si Si6 0.616993 0.109289 0.910556
Si Si7 0.889942 0.383487 0.052455
Si Si8 0.225035 0.616561 0.177125
O O1 0.172237 0.172237 0.547930
O O2 0.333432 0.153131 0.479398
O O3 0.344893 0.137981 0.604140
O O4 0.251870 0.000000 0.540094
O O5 0.826412 0.826412 0.279321
O O6 0.849265 0.671824 0.353493
O O7 0.855608 0.647460 0.230214
O O8 0.000000 0.744893 0.285496
O O9 0.500000 0.748358 0.811585
O O10 0.658686 0.658686 0.793540
O O11 0.625788 0.814824 0.723110
O O12 0.662842 0.830237 0.850655
O O13 0.500000 0.162502 0.413649
O O14 0.398566 0.000000 0.416559
O O15 0.500000 0.753256 0.633416
O O16 0.674808 0.674808 0.637327
O O17 0.500000 0.106486 0.903911
O O18 0.660311 0.000000 0.904709
O O19 0.647281 0.151882 0.981379
O O20 0.898384 0.500000 0.056625
O O21 0.816198 0.346692 0.107857
O O22 0.000000 0.339279 0.062796
O O23 0.243628 0.500000 0.180209
O O24 0.328614 0.671387 0.189837
#
# Coordination Sequence:
#
# PCOD8306540 Si02
#       8
#     8   8   8   8   8   8   8   8
#     4  10  20  33  49  70  96 125 158 196 238 285
#     4  10  20  33  50  73  99 127 161 199 239 284
#     4   9  17  28  42  62  89 119 150 184 223 272
#     4   9  17  30  49  71  94 122 155 189 225 266
#     4   9  18  31  46  66  91 120 156 196 238 284
#     4   8  14  25  41  61  84 111 145 185 227 268
#     4   8  14  26  44  63  83 110 146 188 231 273
#     4  10  20  32  47  68  93 123 159 197 238 285
#
# _framework density 16.797398999999999
#
# number of rings (size 3 to 8) (size 9 to 14) (size 15 to 20)
#    0.000    2.875    0.000    2.250    0.000    3.625 
#    0.000    2.500    0.000    2.250    0.000    3.500 
#    0.000    9.250    0.000    2.750    0.000    4.750 
#
# Total GULP energy -793233.443451 kJ/mol
# GULP energy per Si atom -12394.272554 kJ/mol
# Density = 1.675917 g / cm^3
# Si number density = 16.797399 Si / 1000 Ang^3
#
#
#
# Elastic Constant Matrix: (Units=GPa)
#
#
# Indices 1 2 3 4 5 6 
#
# 1 72.5032 31.9150 43.3298 0.0000 0.0000 0.0000
# 2 31.9150 72.5032 43.3298 0.0000 0.0000 0.0000
# 3 43.3298 43.3298 135.1225 0.0000 0.0000 0.0000
# 4 0.0000 0.0000 0.0000 24.2797 0.0000 0.0000
# 5 0.0000 0.0000 0.0000 0.0000 24.2797 0.0000
# 6 0.0000 0.0000 0.0000 0.0000 0.0000 12.5374
#
#
#
# Elastic Compliance Matrix: (Units=1/GPa)
#
#
# Indices 1 2 3 4 5 6 
#
# 1 0.018844 -0.005794 -0.004185 0.000000 0.000000 0.000000
# 2 -0.005794 0.018844 -0.004185 0.000000 0.000000 0.000000
# 3 -0.004185 -0.004185 0.010085 0.000000 0.000000 0.000000
# 4 0.000000 0.000000 0.000000 0.041187 0.000000 0.000000
# 5 0.000000 0.000000 0.000000 0.000000 0.041187 0.000000
# 6 0.000000 0.000000 0.000000 0.000000 0.000000 0.079761
#
#
# Mechanical properties :
#
#
# Convention : Reuss Voigt Hill
#
# Bulk Modulus (GPa) = 51.42595 57.47533 54.45064
# Shear Modulus (GPa) = 20.43194 22.98968 21.71081
#
# Velocity S-wave (km/s) = 3.49144 3.70353 3.59905
# Velocity P-wave (km/s) = 6.85094 7.25116 7.05389
#
# Compressibility (1/GPa) = 0.01944544
#
# Stress axis : x y z
#
# Youngs Moduli (GPa) = 53.06793 53.06793 99.16196
#
# Poissons Ratio (x) = 0.30747 0.41496
# Poissons Ratio (y) = 0.30747 0.41496
# Poissons Ratio (z) = 0.22207 0.22207
#
# Static dielectric constant tensor:
#      x y z
#    x 2.951530 0.000000 0.000000 
#    y 0.000000 2.951530 0.000000 
#    z 0.000000 0.000000 3.551520 
# 
# 
# High freq. dielectric constant tensor:
#      x y z
#    x 1.623780 0.000000 0.000000 
#    y 0.000000 1.623780 0.000000 
#    z 0.000000 0.000000 1.669470 
# 
# From -- ./inp_files/2349.got.cif
#   From: 2010.03.12/outbox.cif.g09.slc.cpg/sg99_cif.got.tgz:2349.got - 2010.04.08 21:11:30.
