data_PCOD8306113
_publ_section_title
;
Structure prediction by ZEFSAII (Michael W. Deem and Ramdas Pophale) SiO2 
 PCOD8306113
Probable space group: I 4 2 2 
;
_chemical_formula_sum "Si O2"
_cell_formula_units_Z 64
_cell_length_a 11.133254
_cell_length_b 11.133254
_cell_length_c 27.491047
_cell_angle_alpha 90.000000
_cell_angle_beta 90.000000
_cell_angle_gamma 90.000000
_cell_volume 3407.497259
_symmetry_space_group_name_H-M "I 4 2 2 "
_symmetry_group_IT_number 97
_symmetry_cell_setting 'tetragonal'
loop_
_space_group_symop_operation_xyz
x,y,z
-y,x,z
-x,-y,z
y,-x,z
x,-y,-z
-x,y,-z
y,x,-z
-y,-x,-z
1/2+x,1/2+y,1/2+z
1/2-y,1/2+x,1/2+z
1/2-x,1/2-y,1/2+z
1/2+y,1/2-x,1/2+z
1/2+x,1/2-y,1/2-z
1/2-x,1/2+y,1/2-z
1/2+y,1/2+x,1/2-z
1/2-y,1/2-x,1/2-z
loop_
_atom_site_type_symbol
_atom_site_label
_atom_site_fract_x
_atom_site_fract_y
_atom_site_fract_z
Si Si1 0.195447 0.992950 0.444093
Si Si2 0.816544 0.056185 0.168919
Si Si3 0.187782 0.493905 0.761470
Si Si4 0.628060 0.059704 0.361659
O O1 0.315265 0.981745 0.412349
O O2 0.113540 0.877751 0.432230
O O3 0.235810 0.000000 0.500000
O O4 0.702180 0.105730 0.140003
O O5 0.921184 0.147644 0.153668
O O6 0.795847 0.041984 0.227429
O O7 0.144788 0.355213 0.750000
O O8 0.217957 0.513259 0.818637
O O9 0.074224 0.574224 0.750000
O O10 0.500000 0.000000 0.354178
#
# Coordination Sequence:
#
# PCOD8306113 Si02
#       4
#    16  16  16  16
#     4   9  21  41  62  88 118 144 184 248 305 345
#     4  10  22  36  52  81 121 159 192 235 284 342
#     4   9  16  33  49  76 110 147 189 234 275 320
#     4  11  21  35  60  86 113 150 201 235 288 355
#
# _framework density 18.782115000000001
#
# number of rings (size 3 to 8) (size 9 to 14) (size 15 to 20)
#    0.000    2.250    5.000    0.750    3.500    5.500 
#    0.000    2.500    0.000    0.000    0.000    0.000 
#    0.000    0.000    0.000    0.000    0.000    0.000 
#
# Total GULP energy -396500.000554 kJ/mol
# GULP energy per Si atom -12390.625017 kJ/mol
# Density = 1.873937 g / cm^3
# Si number density = 18.782115 Si / 1000 Ang^3
#
#
#
# Elastic Constant Matrix: (Units=GPa)
#
#
# Indices 1 2 3 4 5 6 
#
# 1 55.5848 21.8772 31.5461 0.0000 0.0000 0.0000
# 2 21.8772 55.5854 31.5463 0.0000 0.0000 0.0000
# 3 31.5461 31.5463 94.6162 0.0000 0.0000 0.0000
# 4 0.0000 0.0000 0.0000 20.8173 0.0000 0.0000
# 5 0.0000 0.0000 0.0000 0.0000 20.8176 0.0000
# 6 0.0000 0.0000 0.0000 0.0000 0.0000 19.5902
#
#
#
# Elastic Compliance Matrix: (Units=1/GPa)
#
#
# Indices 1 2 3 4 5 6 
#
# 1 0.023695 -0.005972 -0.005909 0.000000 0.000000 0.000000
# 2 -0.005972 0.023694 -0.005909 0.000000 0.000000 0.000000
# 3 -0.005909 -0.005909 0.014509 0.000000 0.000000 0.000000
# 4 0.000000 0.000000 0.000000 0.048037 0.000000 0.000000
# 5 0.000000 0.000000 0.000000 0.000000 0.048036 0.000000
# 6 0.000000 0.000000 0.000000 0.000000 0.000000 0.051046
#
#
# Mechanical properties :
#
#
# Convention : Reuss Voigt Hill
#
# Bulk Modulus (GPa) = 37.99636 41.74729 39.87182
# Shear Modulus (GPa) = 19.73403 20.29948 20.01676
#
# Velocity S-wave (km/s) = 3.24494 3.29110 3.26810
# Velocity P-wave (km/s) = 5.85777 6.05947 5.95948
#
# Compressibility (1/GPa) = 0.02631831
#
# Stress axis : x y z
#
# Youngs Moduli (GPa) = 42.20386 42.20425 68.92212
#
# Poissons Ratio (x) = 0.25205 0.40725
# Poissons Ratio (y) = 0.25205 0.40725
# Poissons Ratio (z) = 0.24937 0.24938
#
# Static dielectric constant tensor:
#      x y z
#    x 3.879930 0.000000 0.000000 
#    y 0.000000 3.879920 0.000000 
#    z 0.000000 0.000000 3.697240 
# 
# 
# High freq. dielectric constant tensor:
#      x y z
#    x 1.723240 0.000000 0.000000 
#    y 0.000000 1.723240 0.000000 
#    z 0.000000 0.000000 1.705380 
# 
# From -- ./inp_files/7032.got.cif
#   From: 2010.03.12/outbox.cif.g09.slc.cpg/sg97_4_cif.got.tgz:7032.got - 2010.04.08 20:59:42.
