data_PCOD8307025
_publ_section_title
;
Structure prediction by ZEFSAII (Michael W. Deem and Ramdas Pophale) SiO2 
 PCOD8307025
Probable space group: P 4 C C
;
_chemical_formula_sum "Si O2"
_cell_formula_units_Z 36
_cell_length_a 7.976537
_cell_length_b 7.976537
_cell_length_c 24.397828
_cell_angle_alpha 90.000000
_cell_angle_beta 90.000000
_cell_angle_gamma 90.000000
_cell_volume 1552.315283
_symmetry_space_group_name_H-M "P 4 C C"
_symmetry_group_IT_number 103
_symmetry_cell_setting 'tetragonal'
loop_
_space_group_symop_operation_xyz
x,y,z
-y,x,z
-x,-y,z
y,-x,z
-x,y,1/2+z
x,-y,1/2+z
-y,-x,1/2+z
y,x,1/2+z
loop_
_atom_site_type_symbol
_atom_site_label
_atom_site_fract_x
_atom_site_fract_y
_atom_site_fract_z
Si Si1 0.500000 0.000000 0.901810
Si Si2 0.737378 0.090430 0.705031
Si Si3 0.409568 0.237378 0.098590
Si Si4 0.584257 0.235992 0.810320
Si Si5 0.915742 0.735993 0.493300
O O1 0.612816 0.122839 0.864181
O O2 0.377161 0.112817 0.939439
O O3 0.626179 0.126174 0.651810
O O4 0.620838 0.124256 0.757275
O O5 0.897924 0.210255 0.705402
O O6 0.602075 0.289745 0.098221
O O7 0.375744 0.120842 0.046345
O O8 0.708742 0.391669 0.810323
O O9 0.108330 0.791257 0.493297
#
# Coordination Sequence:
#
# PCOD8307025 Si02
#       5
#     4   8   8   8   8
#     4  12  24  44  66  92 128 172 216 270 324 380
#     4  11  24  42  66  97 132 170 214 267 329 395
#     4  11  24  42  66  97 132 170 214 267 329 395
#     4  11  24  42  66  96 129 169 217 267 324 389
#     4  11  24  42  66  96 129 169 217 267 324 389
#
# _framework density 23.191165000000002
#
# number of rings (size 3 to 8) (size 9 to 14) (size 15 to 20)
#    0.000    0.889    0.000    6.667    0.000    8.000 
#    0.000    4.444    0.000    0.000    0.000    0.000 
#    0.000    0.000    0.000    0.000    0.000    0.000 
#
# Total GULP energy -446643.049286 kJ/mol
# GULP energy per Si atom -12406.751369 kJ/mol
# Density = 2.313838 g / cm^3
# Si number density = 23.191165 Si / 1000 Ang^3
#
#
#
# Elastic Constant Matrix: (Units=GPa)
#
#
# Indices 1 2 3 4 5 6 
#
# 1 96.3469 36.7186 53.1599 0.0000 0.0000 0.0000
# 2 36.7186 96.3469 53.1599 0.0000 0.0000 0.0000
# 3 53.1599 53.1599 206.8580 0.0000 0.0000 0.0000
# 4 0.0000 0.0000 0.0000 57.3745 0.0000 0.0000
# 5 0.0000 0.0000 0.0000 0.0000 57.3745 0.0000
# 6 0.0000 0.0000 0.0000 0.0000 0.0000 39.6349
#
#
#
# Elastic Compliance Matrix: (Units=1/GPa)
#
#
# Indices 1 2 3 4 5 6 
#
# 1 0.013114 -0.003657 -0.002430 0.000000 0.000000 0.000000
# 2 -0.003657 0.013114 -0.002430 0.000000 0.000000 0.000000
# 3 -0.002430 -0.002430 0.006083 0.000000 0.000000 0.000000
# 4 0.000000 0.000000 0.000000 0.017429 0.000000 0.000000
# 5 0.000000 0.000000 0.000000 0.000000 0.017429 0.000000
# 6 0.000000 0.000000 0.000000 0.000000 0.000000 0.025230
#
#
# Mechanical properties :
#
#
# Convention : Reuss Voigt Hill
#
# Bulk Modulus (GPa) = 65.46237 76.18099 70.82168
# Shear Modulus (GPa) = 43.65795 47.97767 45.81781
#
# Velocity S-wave (km/s) = 4.34351 4.55333 4.44966
# Velocity P-wave (km/s) = 7.31050 7.78230 7.55009
#
# Compressibility (1/GPa) = 0.01527595
#
# Stress axis : x y z
#
# Youngs Moduli (GPa) = 76.25587 76.25587 164.38303
#
# Poissons Ratio (x) = 0.27885 0.39950
# Poissons Ratio (y) = 0.27885 0.39950
# Poissons Ratio (z) = 0.18533 0.18533
#
# Static dielectric constant tensor:
#      x y z
#    x 4.179540 0.000000 0.000000 
#    y 0.000000 4.179540 0.000000 
#    z 0.000000 0.000000 4.255730 
# 
# 
# High freq. dielectric constant tensor:
#      x y z
#    x 1.930030 0.000000 0.000000 
#    y 0.000000 1.930030 0.000000 
#    z 0.000000 0.000000 1.927330 
# 
# From -- ./inp_files/1166.got.cif
#   From: 2010.03.12/outbox.cif.g09.slc.cpg/sg103_cif.got.tgz:1166.got - 2010.04.14 01:42:52.
