data_PCOD8307064
_publ_section_title
;
Structure prediction by ZEFSAII (Michael W. Deem and Ramdas Pophale) SiO2 
 PCOD8307064
Probable space group: P 4 N C 
;
_chemical_formula_sum "Si O2"
_cell_formula_units_Z 40
_cell_length_a 7.948178
_cell_length_b 7.948178
_cell_length_c 28.277994
_cell_angle_alpha 90.000000
_cell_angle_beta 90.000000
_cell_angle_gamma 90.000000
_cell_volume 1786.420802
_symmetry_space_group_name_H-M "P 4 N C "
_symmetry_group_IT_number 104
_symmetry_cell_setting 'tetragonal'
loop_
_space_group_symop_operation_xyz
x,y,z
-y,x,z
-x,-y,z
y,-x,z
1/2-x,1/2+y,1/2+z
1/2+x,1/2-y,1/2+z
1/2-y,1/2-x,1/2+z
1/2+y,1/2+x,1/2+z
loop_
_atom_site_type_symbol
_atom_site_label
_atom_site_fract_x
_atom_site_fract_y
_atom_site_fract_z
Si Si1 0.735508 0.088554 0.082800
Si Si2 0.264741 0.915287 0.899545
Si Si3 0.500000 0.000000 0.820079
Si Si4 0.236522 0.409496 0.990778
Si Si5 0.233934 0.581813 0.739933
Si Si6 0.500000 0.000000 0.660627
O O1 0.613856 0.121681 0.127550
O O2 0.894267 0.210372 0.085060
O O3 0.630939 0.119266 0.035332
O O4 0.379541 0.875984 0.944603
O O5 0.108505 0.790487 0.900268
O O6 0.375290 0.888284 0.852468
O O7 0.390639 0.126338 0.787556
O O8 0.397292 0.288855 0.991610
O O9 0.291310 0.387597 0.738673
O O10 0.118456 0.615465 0.694009
#
# Coordination Sequence:
#
# PCOD8307064 Si02
#       6
#     8   8   4   8   8   4
#     4  11  23  40  64  92 124 165 209 253 307 369
#     4  11  23  39  61  90 126 168 210 253 307 369
#     4  11  22  39  64  92 122 157 204 261 310 364
#     4  11  24  41  62  91 127 165 207 256 307 364
#     4  10  22  41  64  90 120 157 201 252 316 381
#     4  11  22  37  62  90 120 153 198 253 300 364
#
# _framework density 22.391143
#
# number of rings (size 3 to 8) (size 9 to 14) (size 15 to 20)
#    0.000    1.200    0.000    6.000    0.000    5.600 
#    0.000    2.000    0.000   22.200    0.000    0.000 
#    0.000    0.000    0.000    0.000    0.000    0.000 
#
# Total GULP energy -496144.309342 kJ/mol
# GULP energy per Si atom -12403.607734 kJ/mol
# Density = 2.234018 g / cm^3
# Si number density = 22.391143 Si / 1000 Ang^3
#
#
#
# Elastic Constant Matrix: (Units=GPa)
#
#
# Indices 1 2 3 4 5 6 
#
# 1 108.0077 33.9894 59.6653 0.0000 0.0000 0.0000
# 2 33.9894 108.0077 59.6653 0.0000 0.0000 0.0000
# 3 59.6653 59.6653 201.8638 0.0000 0.0000 0.0000
# 4 0.0000 0.0000 0.0000 31.8625 0.0000 0.0000
# 5 0.0000 0.0000 0.0000 0.0000 31.8625 0.0000
# 6 0.0000 0.0000 0.0000 0.0000 0.0000 30.8657
#
#
#
# Elastic Compliance Matrix: (Units=1/GPa)
#
#
# Indices 1 2 3 4 5 6 
#
# 1 0.011440 -0.002070 -0.002769 0.000000 0.000000 0.000000
# 2 -0.002070 0.011440 -0.002769 0.000000 0.000000 0.000000
# 3 -0.002769 -0.002769 0.006591 0.000000 0.000000 0.000000
# 4 0.000000 0.000000 0.000000 0.031385 0.000000 0.000000
# 5 0.000000 0.000000 0.000000 0.000000 0.031385 0.000000
# 6 0.000000 0.000000 0.000000 0.000000 0.000000 0.032398
#
#
# Mechanical properties :
#
#
# Convention : Reuss Voigt Hill
#
# Bulk Modulus (GPa) = 70.16196 80.50212 75.33204
# Shear Modulus (GPa) = 34.57618 36.55539 35.56579
#
# Velocity S-wave (km/s) = 3.93388 4.04491 3.98978
# Velocity P-wave (km/s) = 7.21364 7.60564 7.41223
#
# Compressibility (1/GPa) = 0.01425274
#
# Stress axis : x y z
#
# Youngs Moduli (GPa) = 87.41278 87.41278 151.72265
#
# Poissons Ratio (x) = 0.18096 0.42019
# Poissons Ratio (y) = 0.18096 0.42019
# Poissons Ratio (z) = 0.24208 0.24208
#
# Static dielectric constant tensor:
#      x y z
#    x 3.987670 0.000000 0.000000 
#    y 0.000000 3.987670 0.000000 
#    z 0.000000 0.000000 4.213580 
# 
# 
# High freq. dielectric constant tensor:
#      x y z
#    x 1.881780 0.000000 0.000000 
#    y 0.000000 1.881780 0.000000 
#    z 0.000000 0.000000 1.900200 
# 
# From -- ./inp_files/1860.got.cif
#   From: 2010.03.12/outbox.cif.g09.slc.cpg/sg104_cif.got.tgz:1860.got - 2010.04.14 01:44:05.
