data_PCOD8307966
_publ_section_title
;
Structure prediction by ZEFSAII (Michael W. Deem and Ramdas Pophale) SiO2 
 PCOD8307966
Probable space group: I 41 M D
;
_chemical_formula_sum "Si O2"
_cell_formula_units_Z 112
_cell_length_a 29.736945
_cell_length_b 29.736945
_cell_length_c 5.628825
_cell_angle_alpha 90.000000
_cell_angle_beta 90.000000
_cell_angle_gamma 90.000000
_cell_volume 4977.490569
_symmetry_space_group_name_H-M "I 41 M D"
_symmetry_group_IT_number 109
_symmetry_cell_setting 'tetragonal'
loop_
_space_group_symop_operation_xyz
x,y,z
-y,1/2+x,1/4+z
-x,-y,z
y,1/2-x,1/4+z
-x,y,z
x,-y,z
-y,1/2-x,1/4+z
y,1/2+x,1/4+z
1/2+x,1/2+y,1/2+z
1/2-y,x,3/4+z
1/2-x,1/2-y,1/2+z
1/2+y,-x,3/4+z
1/2-x,1/2+y,1/2+z
1/2+x,1/2-y,1/2+z
1/2-y,-x,3/4+z
1/2+y,x,3/4+z
loop_
_atom_site_type_symbol
_atom_site_label
_atom_site_fract_x
_atom_site_fract_y
_atom_site_fract_z
Si Si1 0.300699 0.707807 0.280630
Si Si2 0.052663 0.948326 0.575728
Si Si3 0.450206 0.235819 0.423313
Si Si4 0.111772 0.682603 0.219220
Si Si5 0.680867 0.048417 0.990015
Si Si6 0.613059 0.270200 0.031402
Si Si7 0.093891 0.415655 0.323205
O O1 0.301712 0.749407 0.461822
O O2 0.322580 0.663311 0.388843
O O3 0.333669 0.720956 0.064034
O O4 0.068223 0.927311 0.323817
O O5 0.000000 0.940635 0.599109
O O6 0.066118 0.000000 0.559908
O O7 0.073953 0.930432 0.823176
O O8 0.500000 0.223835 0.312364
O O9 0.424309 0.190555 0.506388
O O10 0.458942 0.269853 0.636086
O O11 0.415289 0.263124 0.266254
O O12 0.107869 0.724776 0.388337
O O13 0.097525 0.637814 0.354121
O O14 0.642649 0.061021 0.799357
O O15 0.668255 0.000000 0.111784
O O16 0.685135 0.090582 0.168822
#
# Coordination Sequence:
#
# PCOD8307966 Si02
#       7
#    16  16  16  16  16  16  16
#     4  12  25  43  70  99 140 196 249 315 379 455
#     4  11  26  50  76 109 152 196 247 312 384 457
#     4  10  22  44  68  96 139 185 232 297 372 438
#     4  11  27  44  64 105 141 185 246 309 367 448
#     4  10  23  41  67 103 136 178 236 302 371 439
#     4  11  24  43  69  96 141 185 241 299 370 444
#     4  12  27  44  78 110 147 192 249 310 371 454
#
# _framework density 22.501297999999998
#
# number of rings (size 3 to 8) (size 9 to 14) (size 15 to 20)
#    0.000    1.000    1.429    3.857   10.000    2.857 
#    0.000    0.000    0.000    0.000    0.000    0.000 
#    0.000    0.000    0.000    0.000    0.000    0.000 
#
# Total GULP energy -693759.505278 kJ/mol
# GULP energy per Si atom -12388.562594 kJ/mol
# Density = 2.245008 g / cm^3
# Si number density = 22.501298 Si / 1000 Ang^3
#
#
#
# Elastic Constant Matrix: (Units=GPa)
#
#
# Indices 1 2 3 4 5 6 
#
# 1 123.8851 45.7901 34.5829 0.0000 0.0000 0.0000
# 2 45.7901 123.8851 34.5829 0.0000 0.0000 0.0000
# 3 34.5829 34.5829 102.1555 0.0000 0.0000 0.0000
# 4 0.0000 0.0000 0.0000 30.6913 0.0000 0.0000
# 5 0.0000 0.0000 0.0000 0.0000 30.6913 0.0000
# 6 0.0000 0.0000 0.0000 0.0000 0.0000 16.8192
#
#
#
# Elastic Compliance Matrix: (Units=1/GPa)
#
#
# Indices 1 2 3 4 5 6 
#
# 1 0.009821 -0.002984 -0.002315 0.000000 0.000000 0.000000
# 2 -0.002984 0.009821 -0.002315 0.000000 0.000000 0.000000
# 3 -0.002315 -0.002315 0.011356 0.000000 0.000000 0.000000
# 4 0.000000 0.000000 0.000000 0.032583 0.000000 0.000000
# 5 0.000000 0.000000 0.000000 0.000000 0.032583 0.000000
# 6 0.000000 0.000000 0.000000 0.000000 0.000000 0.059456
#
#
# Mechanical properties :
#
#
# Convention : Reuss Voigt Hill
#
# Bulk Modulus (GPa) = 63.40337 64.42637 63.91487
# Shear Modulus (GPa) = 28.39254 31.30500 29.84877
#
# Velocity S-wave (km/s) = 3.55606 3.73400 3.64611
# Velocity P-wave (km/s) = 6.71562 6.87639 6.79648
#
# Compressibility (1/GPa) = 0.01577203
#
# Stress axis : x y z
#
# Youngs Moduli (GPa) = 101.82240 101.82240 88.05824
#
# Poissons Ratio (x) = 0.30383 0.20382
# Poissons Ratio (y) = 0.30383 0.20382
# Poissons Ratio (z) = 0.23568 0.23568
#
# Static dielectric constant tensor:
#      x y z
#    x 4.470490 0.000000 0.000000 
#    y 0.000000 4.470490 0.000000 
#    z 0.000000 0.000000 4.085270 
# 
# 
# High freq. dielectric constant tensor:
#      x y z
#    x 1.903250 0.000000 0.000000 
#    y 0.000000 1.903250 0.000000 
#    z 0.000000 0.000000 1.872340 
# 
# From -- ./inp_files/713.got.cif
#   From: 2010.03.12/outbox.cif.g09.slc.cpg/sg109_1_cif.got.tgz:713.got - 2010.04.14 01:55:16.
