data_PCOD8307771
_publ_section_title
;
Structure prediction by ZEFSAII (Michael W. Deem and Ramdas Pophale) SiO2 
 PCOD8307771
Probable space group: I 4 C M
;
_chemical_formula_sum "Si O2"
_cell_formula_units_Z 112
_cell_length_a 13.604381
_cell_length_b 13.604381
_cell_length_c 32.064565
_cell_angle_alpha 90.000000
_cell_angle_beta 90.000000
_cell_angle_gamma 90.000000
_cell_volume 5934.483474
_symmetry_space_group_name_H-M "I 4 C M"
_symmetry_group_IT_number 108
_symmetry_cell_setting 'tetragonal'
loop_
_space_group_symop_operation_xyz
x,y,z
-y,x,z
-x,-y,z
y,-x,z
-x,y,1/2+z
x,-y,1/2+z
-y,-x,1/2+z
y,x,1/2+z
1/2+x,1/2+y,1/2+z
1/2-y,1/2+x,1/2+z
1/2-x,1/2-y,1/2+z
1/2+y,1/2-x,1/2+z
1/2-x,1/2+y,z
1/2+x,1/2-y,z
1/2-y,1/2-x,z
1/2+y,1/2+x,z
loop_
_atom_site_type_symbol
_atom_site_label
_atom_site_fract_x
_atom_site_fract_y
_atom_site_fract_z
Si Si1 0.598045 0.629313 0.479460
Si Si2 0.116970 0.773008 0.393715
Si Si3 0.995388 0.340371 0.683756
Si Si4 0.495388 0.840371 0.775162
Si Si5 0.383032 0.273008 0.565204
Si Si6 0.255924 0.082916 0.854352
Si Si7 0.244079 0.417083 0.604566
O O1 0.481159 0.635683 0.479461
O O2 0.640846 0.682294 0.438792
O O3 0.640848 0.682297 0.520127
O O4 0.167368 0.667368 0.389784
O O5 0.161268 0.846147 0.358121
O O6 0.001390 0.756419 0.388781
O O7 0.070578 0.429423 0.684460
O O8 0.028778 0.260393 0.649525
O O9 0.886690 0.386690 0.673906
O O10 0.000001 0.289145 0.729459
O O11 0.570579 0.929422 0.774456
O O12 0.528779 0.760394 0.809393
O O13 0.386690 0.886690 0.785012
O O14 0.332633 0.167368 0.569137
O O15 0.338736 0.346149 0.600798
O O16 0.498611 0.256418 0.570137
O O17 0.355370 0.144630 0.863251
O O18 0.144635 0.355366 0.595668
#
# Coordination Sequence:
#
# PCOD8307771 Si02
#       7
#    16  16  16  16  16  16  16
#     4  11  21  38  60  79 106 146 186 223 278 330
#     4  11  22  37  58  82 110 144 181 230 279 323
#     4   8  14  28  52  79 109 146 183 221 267 320
#     4   8  14  28  52  79 109 146 183 221 267 320
#     4  11  22  37  58  82 110 144 181 230 279 323
#     4  10  21  36  55  82 112 143 186 228 271 328
#     4  10  21  36  55  82 112 143 186 228 271 328
#
# _framework density 18.872747
#
# number of rings (size 3 to 8) (size 9 to 14) (size 15 to 20)
#    0.000    2.143    2.857    2.143    0.000    2.286 
#    0.000    2.143    0.000    8.571    0.000    2.000 
#    0.000    0.000    0.000    0.000    0.000    0.000 
#
# Total GULP energy -694153.270744 kJ/mol
# GULP energy per Si atom -12395.594120 kJ/mol
# Density = 1.882979 g / cm^3
# Si number density = 18.872747 Si / 1000 Ang^3
#
#
#
# Elastic Constant Matrix: (Units=GPa)
#
#
# Indices 1 2 3 4 5 6 
#
# 1 73.7656 33.3013 21.8522 0.0000 0.0000 -0.0001
# 2 33.3013 73.7656 21.8522 0.0000 0.0000 0.0001
# 3 21.8522 21.8522 103.5758 0.0000 0.0000 0.0000
# 4 0.0000 0.0000 0.0000 24.7771 0.0000 0.0000
# 5 0.0000 0.0000 0.0000 0.0000 24.7771 0.0000
# 6 -0.0001 0.0001 0.0000 0.0000 0.0000 14.2513
#
#
#
# Elastic Compliance Matrix: (Units=1/GPa)
#
#
# Indices 1 2 3 4 5 6 
#
# 1 0.017467 -0.007247 -0.002156 0.000000 0.000000 0.000000
# 2 -0.007247 0.017467 -0.002156 0.000000 0.000000 0.000000
# 3 -0.002156 -0.002156 0.010565 0.000000 0.000000 0.000000
# 4 0.000000 0.000000 0.000000 0.040360 0.000000 0.000000
# 5 0.000000 0.000000 0.000000 0.000000 0.040360 0.000000
# 6 0.000000 0.000000 0.000000 0.000000 0.000000 0.070169
#
#
# Mechanical properties :
#
#
# Convention : Reuss Voigt Hill
#
# Bulk Modulus (GPa) = 44.68282 45.01313 44.84797
# Shear Modulus (GPa) = 22.02988 24.36786 23.19887
#
# Velocity S-wave (km/s) = 3.42026 3.59718 3.50984
# Velocity P-wave (km/s) = 6.27095 6.41526 6.34352
#
# Compressibility (1/GPa) = 0.02237997
#
# Stress axis : x y z
#
# Youngs Moduli (GPa) = 57.25202 57.25202 94.65578
#
# Poissons Ratio (x) = 0.41488 0.20410
# Poissons Ratio (y) = 0.41488 0.20410
# Poissons Ratio (z) = 0.12345 0.12345
#
# Static dielectric constant tensor:
#      x y z
#    x 3.287970 0.000000 0.000000 
#    y 0.000000 3.287970 0.000000 
#    z 0.000000 0.000000 3.769100 
# 
# 
# High freq. dielectric constant tensor:
#      x y z
#    x 1.718120 0.000000 0.000000 
#    y 0.000000 1.718120 0.000000 
#    z 0.000000 0.000000 1.735690 
# 
# From -- ./inp_files/3541.got.cif
#   From: 2010.03.12/outbox.cif.g09.slc.cpg/sg108_2_cif.got.tgz:3541.got - 2010.04.14 01:53:11.
