data_PCOD8307432
_publ_section_title
;
Structure prediction by ZEFSAII (Michael W. Deem and Ramdas Pophale) SiO2 
 PCOD8307432
Probable space group: P 42 B C
;
_chemical_formula_sum "Si O2"
_cell_formula_units_Z 60
_cell_length_a 12.533406
_cell_length_b 12.533406
_cell_length_c 18.031164
_cell_angle_alpha 90.000000
_cell_angle_beta 90.000000
_cell_angle_gamma 90.000000
_cell_volume 2832.448224
_symmetry_space_group_name_H-M "P 42 B C"
_symmetry_group_IT_number 106
_symmetry_cell_setting 'tetragonal'
loop_
_space_group_symop_operation_xyz
x,y,z
-y,x,1/2+z
-x,-y,z
y,-x,1/2+z
1/2-x,1/2+y,z
1/2+x,1/2-y,z
1/2-y,1/2-x,1/2+z
1/2+y,1/2+x,1/2+z
loop_
_atom_site_type_symbol
_atom_site_label
_atom_site_fract_x
_atom_site_fract_y
_atom_site_fract_z
Si Si1 0.566540 0.343705 0.940660
Si Si2 0.878724 0.234630 0.031577
Si Si3 0.000000 0.000000 0.322345
Si Si4 0.723181 0.775461 0.384332
Si Si5 0.109314 0.554981 0.783912
Si Si6 0.998306 0.121568 0.566620
Si Si7 0.719053 0.867358 0.160984
Si Si8 0.296992 0.396984 0.767892
O O1 0.496126 0.398281 0.876951
O O2 0.647864 0.281192 0.887898
O O3 0.499179 0.267230 0.996710
O O4 0.625322 0.431853 0.990652
O O5 0.859159 0.302980 0.105601
O O6 0.840847 0.116110 0.048465
O O7 0.804025 0.283159 0.970007
O O8 0.980423 0.897239 0.268726
O O9 0.620563 0.832102 0.348411
O O10 0.834476 0.801905 0.345645
O O11 0.078924 0.637419 0.718512
O O12 0.189948 0.464067 0.755743
O O13 0.000000 0.500000 0.812334
O O14 0.958008 0.210333 0.623167
O O15 0.000000 0.000000 0.599526
O O16 0.807735 0.795238 0.202865
#
# Coordination Sequence:
#
# PCOD8307432 Si02
#       8
#     8   8   4   8   8   8   8   8
#     4  11  20  40  69 101 133 166 230 296 350 417
#     4  11  23  40  70 100 135 175 228 295 355 415
#     4  12  20  42  70 102 130 174 244 284 348 400
#     4  11  23  43  69 102 132 176 237 288 357 421
#     4  11  28  47  65  98 146 186 230 286 359 430
#     4  10  22  41  66  97 133 174 224 288 343 415
#     4  11  27  44  65 102 139 185 236 277 357 436
#     4  11  26  43  70  98 137 190 230 296 347 430
#
# _framework density 21.183088999999999
#
# number of rings (size 3 to 8) (size 9 to 14) (size 15 to 20)
#    0.000    1.067    6.000    0.000    8.400    0.000 
#    0.000    0.667    0.000    0.000    0.000    0.000 
#    0.000    0.000    0.000    0.000    0.000    0.000 
#
# Total GULP energy -743437.328643 kJ/mol
# GULP energy per Si atom -12390.622144 kJ/mol
# Density = 2.113488 g / cm^3
# Si number density = 21.183089 Si / 1000 Ang^3
#
#
#
# Elastic Constant Matrix: (Units=GPa)
#
#
# Indices 1 2 3 4 5 6 
#
# 1 113.2856 55.2127 37.2462 0.0000 0.0000 0.0000
# 2 55.2127 113.2856 37.2462 0.0000 0.0000 0.0000
# 3 37.2462 37.2462 86.7925 0.0000 0.0000 0.0000
# 4 0.0000 0.0000 0.0000 36.2926 0.0000 0.0000
# 5 0.0000 0.0000 0.0000 0.0000 36.2926 0.0000
# 6 0.0000 0.0000 0.0000 0.0000 0.0000 44.0678
#
#
#
# Elastic Compliance Matrix: (Units=1/GPa)
#
#
# Indices 1 2 3 4 5 6 
#
# 1 0.012272 -0.004948 -0.003143 0.000000 0.000000 0.000000
# 2 -0.004948 0.012272 -0.003143 0.000000 0.000000 0.000000
# 3 -0.003143 -0.003143 0.014219 0.000000 0.000000 0.000000
# 4 0.000000 0.000000 0.000000 0.027554 0.000000 0.000000
# 5 0.000000 0.000000 0.000000 0.000000 0.027554 0.000000
# 6 0.000000 0.000000 0.000000 0.000000 0.000000 0.022692
#
#
# Mechanical properties :
#
#
# Convention : Reuss Voigt Hill
#
# Bulk Modulus (GPa) = 61.36677 63.64155 62.50416
# Shear Modulus (GPa) = 34.61085 35.57453 35.09269
#
# Velocity S-wave (km/s) = 4.04653 4.10247 4.07460
# Velocity P-wave (km/s) = 7.13198 7.24908 7.19077
#
# Compressibility (1/GPa) = 0.01629546
#
# Stress axis : x y z
#
# Youngs Moduli (GPa) = 81.48602 81.48602 70.32613
#
# Poissons Ratio (x) = 0.40317 0.22105
# Poissons Ratio (y) = 0.40317 0.22105
# Poissons Ratio (z) = 0.25613 0.25613
#
# Static dielectric constant tensor:
#      x y z
#    x 3.771670 0.000000 0.000000 
#    y 0.000000 3.771670 0.000000 
#    z 0.000000 0.000000 3.891510 
# 
# 
# High freq. dielectric constant tensor:
#      x y z
#    x 1.826920 0.000000 0.000000 
#    y 0.000000 1.826920 0.000000 
#    z 0.000000 0.000000 1.833500 
# 
# From -- ./inp_files/1646.got.cif
#   From: 2010.03.12/outbox.cif.g09.slc.cpg/sg106_cif.got.tgz:1646.got - 2010.04.14 01:48:02.
