data_PCOD8307751
_publ_section_title
;
Structure prediction by ZEFSAII (Michael W. Deem and Ramdas Pophale) SiO2 
 PCOD8307751
Probable space group: I 4 C M
;
_chemical_formula_sum "Si O2"
_cell_formula_units_Z 112
_cell_length_a 21.284340
_cell_length_b 21.284340
_cell_length_c 12.751795
_cell_angle_alpha 90.000000
_cell_angle_beta 90.000000
_cell_angle_gamma 90.000000
_cell_volume 5776.858074
_symmetry_space_group_name_H-M "I 4 C M"
_symmetry_group_IT_number 108
_symmetry_cell_setting 'tetragonal'
loop_
_space_group_symop_operation_xyz
x,y,z
-y,x,z
-x,-y,z
y,-x,z
-x,y,1/2+z
x,-y,1/2+z
-y,-x,1/2+z
y,x,1/2+z
1/2+x,1/2+y,1/2+z
1/2-y,1/2+x,1/2+z
1/2-x,1/2-y,1/2+z
1/2+y,1/2-x,1/2+z
1/2-x,1/2+y,z
1/2+x,1/2-y,z
1/2-y,1/2-x,z
1/2+y,1/2+x,z
loop_
_atom_site_type_symbol
_atom_site_label
_atom_site_fract_x
_atom_site_fract_y
_atom_site_fract_z
Si Si1 0.013970 0.706403 0.213100
Si Si2 0.726581 0.121746 0.142818
Si Si3 0.033702 0.165103 0.614574
Si Si4 0.000344 0.598701 0.070158
Si Si5 0.459479 0.596945 0.407988
Si Si6 0.641734 0.405736 0.702925
Si Si7 0.320360 0.078068 0.425173
O O1 0.937699 0.707813 0.216160
O O2 0.036946 0.760298 0.132687
O O3 0.048414 0.716118 0.325383
O O4 0.031375 0.639053 0.163845
O O5 0.680209 0.180209 0.165521
O O6 0.797800 0.138750 0.177813
O O7 0.725187 0.103190 0.018547
O O8 0.059952 0.141654 0.504066
O O9 0.078408 0.134196 0.701713
O O10 0.962568 0.140073 0.619754
O O11 0.939713 0.560288 0.113992
O O12 0.979393 0.640154 0.972106
O O13 0.052232 0.552232 0.024872
O O14 0.419249 0.533147 0.406563
O O15 0.440801 0.643583 0.314110
O O16 0.365160 0.134841 0.387115
#
# Coordination Sequence:
#
# PCOD8307751 Si02
#       7
#    16  16  16  16  16  16  16
#     4  10  20  33  56  84 118 151 201 248 293 363
#     4   9  21  39  58  80 118 164 201 245 293 357
#     4  11  23  37  57  89 122 153 194 250 299 356
#     4   9  18  33  54  83 117 151 195 255 311 355
#     4  11  22  37  63  90 125 159 189 244 311 366
#     4  11  22  38  61  88 120 152 205 243 301 355
#     4   9  18  35  57  82 112 156 201 241 306 364
#
# _framework density 19.387701
#
# number of rings (size 3 to 8) (size 9 to 14) (size 15 to 20)
#    0.000    2.000    2.857    1.714    0.000    9.429 
#    0.000    2.857    0.000    1.714    0.000    0.000 
#    0.000    0.000    0.000    0.000    0.000    0.000 
#
# Total GULP energy -693888.893344 kJ/mol
# GULP energy per Si atom -12390.873095 kJ/mol
# Density = 1.934357 g / cm^3
# Si number density = 19.387701 Si / 1000 Ang^3
#
#
#
# Elastic Constant Matrix: (Units=GPa)
#
#
# Indices 1 2 3 4 5 6 
#
# 1 92.2420 48.0312 36.8937 0.0000 0.0000 0.0001
# 2 48.0312 92.2420 36.8937 0.0000 0.0000 -0.0001
# 3 36.8937 36.8937 96.4010 0.0000 0.0000 0.0000
# 4 0.0000 0.0000 0.0000 24.8532 0.0000 0.0000
# 5 0.0000 0.0000 0.0000 0.0000 24.8532 0.0000
# 6 0.0001 -0.0001 0.0000 0.0000 0.0000 28.0198
#
#
#
# Elastic Compliance Matrix: (Units=1/GPa)
#
#
# Indices 1 2 3 4 5 6 
#
# 1 0.015772 -0.006847 -0.003416 0.000000 0.000000 0.000000
# 2 -0.006847 0.015772 -0.003416 0.000000 0.000000 0.000000
# 3 -0.003416 -0.003416 0.012988 0.000000 0.000000 0.000000
# 4 0.000000 0.000000 0.000000 0.040236 0.000000 0.000000
# 5 0.000000 0.000000 0.000000 0.000000 0.040236 0.000000
# 6 0.000000 0.000000 0.000000 0.000000 0.000000 0.035689
#
#
# Mechanical properties :
#
#
# Convention : Reuss Voigt Hill
#
# Bulk Modulus (GPa) = 58.22191 58.28025 58.25108
# Shear Modulus (GPa) = 25.80287 26.14965 25.97626
#
# Velocity S-wave (km/s) = 3.65209 3.67655 3.66434
# Velocity P-wave (km/s) = 6.91948 6.93890 6.92920
#
# Compressibility (1/GPa) = 0.01717566
#
# Stress axis : x y z
#
# Youngs Moduli (GPa) = 63.40198 63.40198 76.99388
#
# Poissons Ratio (x) = 0.43408 0.26301
# Poissons Ratio (y) = 0.43408 0.26301
# Poissons Ratio (z) = 0.21658 0.21658
#
# Static dielectric constant tensor:
#      x y z
#    x 3.513500 0.000000 0.000000 
#    y 0.000000 3.513500 0.000000 
#    z 0.000000 0.000000 3.409930 
# 
# 
# High freq. dielectric constant tensor:
#      x y z
#    x 1.746290 0.000000 0.000000 
#    y 0.000000 1.746290 0.000000 
#    z 0.000000 0.000000 1.743280 
# 
# From -- ./inp_files/1593.got.cif
#   From: 2010.03.12/outbox.cif.g09.slc.cpg/sg108_1_cif.got.tgz:1593.got - 2010.04.14 01:53:11.
