data_PCOD8307752
_publ_section_title
;
Structure prediction by ZEFSAII (Michael W. Deem and Ramdas Pophale) SiO2 
 PCOD8307752
Probable space group: I 4 C M
;
_chemical_formula_sum "Si O2"
_cell_formula_units_Z 112
_cell_length_a 14.252223
_cell_length_b 14.252223
_cell_length_c 28.065814
_cell_angle_alpha 90.000000
_cell_angle_beta 90.000000
_cell_angle_gamma 90.000000
_cell_volume 5700.892618
_symmetry_space_group_name_H-M "I 4 C M"
_symmetry_group_IT_number 108
_symmetry_cell_setting 'tetragonal'
loop_
_space_group_symop_operation_xyz
x,y,z
-y,x,z
-x,-y,z
y,-x,z
-x,y,1/2+z
x,-y,1/2+z
-y,-x,1/2+z
y,x,1/2+z
1/2+x,1/2+y,1/2+z
1/2-y,1/2+x,1/2+z
1/2-x,1/2-y,1/2+z
1/2+y,1/2-x,1/2+z
1/2-x,1/2+y,z
1/2+x,1/2-y,z
1/2-y,1/2-x,z
1/2+y,1/2+x,z
loop_
_atom_site_type_symbol
_atom_site_label
_atom_site_fract_x
_atom_site_fract_y
_atom_site_fract_z
Si Si1 0.396860 0.612333 0.359780
Si Si2 0.054083 0.144948 0.531994
Si Si3 0.099207 0.755609 0.672397
Si Si4 0.748526 0.398787 0.936622
Si Si5 0.602971 0.258648 0.626333
Si Si6 0.256210 0.399622 0.281674
Si Si7 0.495248 0.149811 0.358080
O O1 0.369289 0.507009 0.368388
O O2 0.347398 0.677547 0.399482
O O3 0.369667 0.645228 0.306354
O O4 0.061124 0.190821 0.480457
O O5 0.088760 0.219593 0.570799
O O6 0.945731 0.119028 0.538518
O O7 0.162435 0.662435 0.665423
O O8 0.153376 0.846403 0.652011
O O9 0.073729 0.774324 0.727344
O O10 0.999726 0.739960 0.647475
O O11 0.822445 0.322445 0.955296
O O12 0.800466 0.483323 0.908552
O O13 0.664975 0.164975 0.632338
O O14 0.188119 0.311882 0.285430
O O15 0.217003 0.488107 0.312284
O O16 0.563386 0.063386 0.351357
O O17 0.387848 0.112153 0.357957
#
# Coordination Sequence:
#
# PCOD8307752 Si02
#       7
#    16  16  16  16  16  16  16
#     4  10  20  34  52  80 114 151 195 240 288 353
#     4  11  22  40  64  88 115 154 202 256 318 382
#     4  10  23  41  63  93 127 166 214 266 320 384
#     4  10  20  36  57  82 115 152 193 246 303 362
#     4  11  23  42  66  93 126 162 209 267 323 387
#     4   9  19  36  56  82 117 152 194 246 299 358
#     4   8  15  31  54  79 113 156 196 235 288 362
#
# _framework density 19.646045000000001
#
# number of rings (size 3 to 8) (size 9 to 14) (size 15 to 20)
#    0.000    2.143    1.429    2.571    2.000    2.286 
#    0.000   12.143    0.000    1.714    0.000    0.000 
#    0.000    0.000    0.000    0.000    0.000    0.000 
#
# Total GULP energy -694080.720616 kJ/mol
# GULP energy per Si atom -12394.298582 kJ/mol
# Density = 1.960133 g / cm^3
# Si number density = 19.646045 Si / 1000 Ang^3
#
#
#
# Elastic Constant Matrix: (Units=GPa)
#
#
# Indices 1 2 3 4 5 6 
#
# 1 70.9169 43.9275 35.7070 0.0000 0.0000 -0.0002
# 2 43.9275 70.9169 35.7070 0.0000 0.0000 0.0002
# 3 35.7070 35.7070 125.9586 0.0000 0.0000 0.0000
# 4 0.0000 0.0000 0.0000 25.7235 0.0000 0.0000
# 5 0.0000 0.0000 0.0000 0.0000 25.7235 0.0000
# 6 -0.0002 0.0002 0.0000 0.0000 0.0000 0.0351
#
#
#
# Elastic Compliance Matrix: (Units=1/GPa)
#
#
# Indices 1 2 3 4 5 6 
#
# 1 0.023811 -0.013240 -0.002997 0.000000 0.000000 0.000256
# 2 -0.013240 0.023811 -0.002997 0.000000 0.000000 -0.000256
# 3 -0.002997 -0.002997 0.009638 0.000000 0.000000 0.000000
# 4 0.000000 0.000000 0.000000 0.038875 0.000000 0.000000
# 5 0.000000 0.000000 0.000000 0.000000 0.038875 0.000000
# 6 0.000256 -0.000256 0.000000 0.000000 0.000000 28.498275
#
#
# Mechanical properties :
#
#
# Convention : Reuss Voigt Hill
#
# Bulk Modulus (GPa) = 53.21065 55.38612 54.29839
# Shear Modulus (GPa) = 0.17435 20.45982 10.31709
#
# Velocity S-wave (km/s) = 0.29822 3.23061 2.29410
# Velocity P-wave (km/s) = 5.22131 6.49376 5.89199
#
# Compressibility (1/GPa) = 0.01879323
#
# Stress axis : x y z
#
# Youngs Moduli (GPa) = 41.99707 41.99707 103.75482
#
# Poissons Ratio (x) = 0.55606 0.31092
# Poissons Ratio (y) = 0.55606 0.31092
# Poissons Ratio (z) = 0.12585 0.12585
#
# Static dielectric constant tensor:
#      x y z
#    x 3.675730 0.000000 0.000000 
#    y 0.000000 3.675730 0.000000 
#    z 0.000000 0.000000 3.688330 
# 
# 
# High freq. dielectric constant tensor:
#      x y z
#    x 1.765840 0.000000 0.000000 
#    y 0.000000 1.765840 0.000000 
#    z 0.000000 0.000000 1.767210 
# 
# From -- ./inp_files/3230.got.cif
#   From: 2010.03.12/outbox.cif.g09.slc.cpg/sg108_2_cif.got.tgz:3230.got - 2010.04.14 01:53:11.
