data_PCOD8307923
_publ_section_title
;
Structure prediction by ZEFSAII (Michael W. Deem and Ramdas Pophale) SiO2 
 PCOD8307923
Probable space group: I 41 M D
;
_chemical_formula_sum "Si O2"
_cell_formula_units_Z 48
_cell_length_a 7.836803
_cell_length_b 7.836803
_cell_length_c 37.442010
_cell_angle_alpha 90.000000
_cell_angle_beta 90.000000
_cell_angle_gamma 90.000000
_cell_volume 2299.519064
_symmetry_space_group_name_H-M "I 41 M D"
_symmetry_group_IT_number 109
_symmetry_cell_setting 'tetragonal'
loop_
_space_group_symop_operation_xyz
x,y,z
-y,1/2+x,1/4+z
-x,-y,z
y,1/2-x,1/4+z
-x,y,z
x,-y,z
-y,1/2-x,1/4+z
y,1/2+x,1/4+z
1/2+x,1/2+y,1/2+z
1/2-y,x,3/4+z
1/2-x,1/2-y,1/2+z
1/2+y,-x,3/4+z
1/2-x,1/2+y,1/2+z
1/2+x,1/2-y,1/2+z
1/2-y,-x,3/4+z
1/2+y,x,3/4+z
loop_
_atom_site_type_symbol
_atom_site_label
_atom_site_fract_x
_atom_site_fract_y
_atom_site_fract_z
Si Si1 0.000000 0.298596 0.606750
Si Si2 0.302117 0.809001 0.905127
Si Si3 0.300507 0.689384 0.229898
Si Si4 0.000000 0.197377 0.525678
O O1 0.829994 0.232158 0.626906
O O2 0.000000 0.223508 0.567545
O O3 0.000000 0.500000 0.603764
O O4 0.500000 0.772416 0.913045
O O5 0.202823 0.794247 0.942192
O O6 0.273435 0.000000 0.889563
O O7 0.500000 0.719842 0.222951
O O8 0.266137 0.500000 0.245649
O O9 0.224296 0.828777 0.257654
O O10 0.000000 0.000000 0.517110
#
# Coordination Sequence:
#
# PCOD8307923 Si02
#       4
#     8  16  16   8
#     4  10  22  38  58  84 124 164 202 254 314 368
#     4  10  20  36  61  88 115 156 208 254 303 366
#     4  10  20  36  61  88 115 156 208 254 303 366
#     4  10  22  38  58  84 124 164 202 254 314 368
#
# _framework density 20.873930000000001
#
# number of rings (size 3 to 8) (size 9 to 14) (size 15 to 20)
#    0.000    2.000    3.333    0.000    0.000    4.667 
#    0.000    0.000    0.000    0.000    0.000    0.000 
#    0.000    0.000    0.000    0.000    0.000    0.000 
#
# Total GULP energy -297581.357816 kJ/mol
# GULP energy per Si atom -12399.223242 kJ/mol
# Density = 2.082642 g / cm^3
# Si number density = 20.873930 Si / 1000 Ang^3
#
#
#
# Elastic Constant Matrix: (Units=GPa)
#
#
# Indices 1 2 3 4 5 6 
#
# 1 108.6965 39.8945 50.5598 0.0000 0.0000 0.0000
# 2 39.8945 108.6965 50.5598 0.0000 0.0000 0.0000
# 3 50.5598 50.5598 138.0292 0.0000 0.0000 0.0000
# 4 0.0000 0.0000 0.0000 25.2231 0.0000 0.0000
# 5 0.0000 0.0000 0.0000 0.0000 25.2231 0.0000
# 6 0.0000 0.0000 0.0000 0.0000 0.0000 14.9588
#
#
#
# Elastic Compliance Matrix: (Units=1/GPa)
#
#
# Indices 1 2 3 4 5 6 
#
# 1 0.011749 -0.002785 -0.003284 0.000000 0.000000 0.000000
# 2 -0.002785 0.011749 -0.003284 0.000000 0.000000 0.000000
# 3 -0.003284 -0.003284 0.009650 0.000000 0.000000 0.000000
# 4 0.000000 0.000000 0.000000 0.039646 0.000000 0.000000
# 5 0.000000 0.000000 0.000000 0.000000 0.039646 0.000000
# 6 0.000000 0.000000 0.000000 0.000000 0.000000 0.066850
#
#
# Mechanical properties :
#
#
# Convention : Reuss Voigt Hill
#
# Bulk Modulus (GPa) = 69.22933 70.82782 70.02858
# Shear Modulus (GPa) = 24.65338 27.37486 26.01412
#
# Velocity S-wave (km/s) = 3.44039 3.62531 3.53406
# Velocity P-wave (km/s) = 7.00137 7.17835 7.09041
#
# Compressibility (1/GPa) = 0.01444474
#
# Stress axis : x y z
#
# Youngs Moduli (GPa) = 85.11019 85.11019 103.62208
#
# Poissons Ratio (x) = 0.23703 0.34026
# Poissons Ratio (y) = 0.23703 0.34026
# Poissons Ratio (z) = 0.27947 0.27947
#
# Static dielectric constant tensor:
#      x y z
#    x 3.886950 0.000000 0.000000 
#    y 0.000000 3.886950 0.000000 
#    z 0.000000 0.000000 3.595280 
# 
# 
# High freq. dielectric constant tensor:
#      x y z
#    x 1.816090 0.000000 0.000000 
#    y 0.000000 1.816090 0.000000 
#    z 0.000000 0.000000 1.795880 
# 
# From -- ./inp_files/5257.got.cif
#   From: 2010.03.12/outbox.cif.g09.slc.cpg/sg109_3_cif.got.tgz:5257.got - 2010.04.14 01:55:16.
