data_PCOD8307922
_publ_section_title
;
Structure prediction by ZEFSAII (Michael W. Deem and Ramdas Pophale) SiO2 
 PCOD8307922
Probable space group: I 41 M D
;
_chemical_formula_sum "Si O2"
_cell_formula_units_Z 112
_cell_length_a 13.894991
_cell_length_b 13.894991
_cell_length_c 26.371396
_cell_angle_alpha 90.000000
_cell_angle_beta 90.000000
_cell_angle_gamma 90.000000
_cell_volume 5091.545861
_symmetry_space_group_name_H-M "I 41 M D"
_symmetry_group_IT_number 109
_symmetry_cell_setting 'tetragonal'
loop_
_space_group_symop_operation_xyz
x,y,z
-y,1/2+x,1/4+z
-x,-y,z
y,1/2-x,1/4+z
-x,y,z
x,-y,z
-y,1/2-x,1/4+z
y,1/2+x,1/4+z
1/2+x,1/2+y,1/2+z
1/2-y,x,3/4+z
1/2-x,1/2-y,1/2+z
1/2+y,-x,3/4+z
1/2-x,1/2+y,1/2+z
1/2+x,1/2-y,1/2+z
1/2-y,-x,3/4+z
1/2+y,x,3/4+z
loop_
_atom_site_type_symbol
_atom_site_label
_atom_site_fract_x
_atom_site_fract_y
_atom_site_fract_z
Si Si1 0.801427 0.105343 0.268120
Si Si2 0.781808 0.611761 0.132892
Si Si3 0.608640 0.698923 0.176438
Si Si4 0.707076 0.292415 0.281043
Si Si5 0.220103 0.603407 0.428449
Si Si6 0.652748 0.609611 0.585788
Si Si7 0.363840 0.106377 0.121718
O O1 0.713435 0.176112 0.281373
O O2 0.857886 0.148818 0.220895
O O3 0.870154 0.092110 0.316802
O O4 0.761207 0.000000 0.253153
O O5 0.803479 0.500000 0.145384
O O6 0.667816 0.636242 0.135285
O O7 0.822895 0.637897 0.077407
O O8 0.830075 0.685328 0.173038
O O9 0.500000 0.660997 0.176543
O O10 0.656642 0.672399 0.230235
O O11 0.608822 0.813165 0.163492
O O12 0.816976 0.335604 0.287625
O O13 0.258589 0.500000 0.446529
O O14 0.160006 0.583625 0.376519
O O15 0.621061 0.500000 0.569377
O O16 0.750041 0.605686 0.617723
O O17 0.400900 0.000000 0.138591
#
# Coordination Sequence:
#
# PCOD8307922 Si02
#       7
#    16  16  16  16  16  16  16
#     4  11  20  34  61  97 138 172 201 240 301 382
#     4  11  24  46  68  90 122 164 217 276 330 372
#     4  12  23  40  63  91 123 163 216 269 320 374
#     4  10  21  41  61  93 126 167 205 263 320 374
#     4  11  22  38  64  98 134 171 210 252 308 379
#     4   9  18  36  61  89 128 170 207 250 305 372
#     4  10  20  36  58  90 134 176 207 242 302 382
#
# _framework density 21.997249
#
# number of rings (size 3 to 8) (size 9 to 14) (size 15 to 20)
#    0.000    1.429    5.714    1.714    0.000    5.714 
#    0.000    2.857    0.000    6.000    0.000    0.000 
#    0.000    0.000    0.000    0.000    0.000    0.000 
#
# Total GULP energy -693818.178488 kJ/mol
# GULP energy per Si atom -12389.610330 kJ/mol
# Density = 2.194718 g / cm^3
# Si number density = 21.997249 Si / 1000 Ang^3
#
#
#
# Elastic Constant Matrix: (Units=GPa)
#
#
# Indices 1 2 3 4 5 6 
#
# 1 93.7795 2.5618 8.5224 0.0000 0.0000 0.0000
# 2 2.5618 93.7795 8.5224 0.0000 0.0000 0.0000
# 3 8.5224 8.5224 93.2536 0.0000 0.0000 0.0000
# 4 0.0000 0.0000 0.0000 6.0848 0.0000 0.0000
# 5 0.0000 0.0000 0.0000 0.0000 6.0848 0.0000
# 6 0.0000 0.0000 0.0000 0.0000 0.0000 5.4218
#
#
#
# Elastic Compliance Matrix: (Units=1/GPa)
#
#
# Indices 1 2 3 4 5 6 
#
# 1 0.010757 -0.000206 -0.000964 0.000000 0.000000 0.000000
# 2 -0.000206 0.010757 -0.000964 0.000000 0.000000 0.000000
# 3 -0.000964 -0.000964 0.010900 0.000000 0.000000 0.000000
# 4 0.000000 0.000000 0.000000 0.164343 0.000000 0.000000
# 5 0.000000 0.000000 0.000000 0.000000 0.164343 0.000000
# 6 0.000000 0.000000 0.000000 0.000000 0.000000 0.184441
#
#
# Mechanical properties :
#
#
# Convention : Reuss Voigt Hill
#
# Bulk Modulus (GPa) = 35.53202 35.55841 35.54522
# Shear Modulus (GPa) = 8.94149 20.93201 14.93675
#
# Velocity S-wave (km/s) = 2.01833 3.08811 2.60864
# Velocity P-wave (km/s) = 4.64968 5.37729 5.02667
#
# Compressibility (1/GPa) = 0.02814363
#
# Stress axis : x y z
#
# Youngs Moduli (GPa) = 92.96641 92.96641 91.74577
#
# Poissons Ratio (x) = 0.01917 0.08846
# Poissons Ratio (y) = 0.01917 0.08846
# Poissons Ratio (z) = 0.08964 0.08964
#
# Static dielectric constant tensor:
#      x y z
#    x 3.958000 0.000000 0.000000 
#    y 0.000000 3.958000 0.000000 
#    z 0.000000 0.000000 3.931770 
# 
# 
# High freq. dielectric constant tensor:
#      x y z
#    x 1.847970 0.000000 0.000000 
#    y 0.000000 1.847970 0.000000 
#    z 0.000000 0.000000 1.863520 
# 
# From -- ./inp_files/5066.got.cif
#   From: 2010.03.12/outbox.cif.g09.slc.cpg/sg109_3_cif.got.tgz:5066.got - 2010.04.14 01:55:16.
