data_PCOD8307161
_publ_section_title
;
Structure prediction by ZEFSAII (Michael W. Deem and Ramdas Pophale) SiO2 
 PCOD8307161
Probable space group: P 42 M C
;
_chemical_formula_sum "Si O2"
_cell_formula_units_Z 40
_cell_length_a 8.034879
_cell_length_b 8.034879
_cell_length_c 28.690674
_cell_angle_alpha 90.000000
_cell_angle_beta 90.000000
_cell_angle_gamma 90.000000
_cell_volume 1852.249272
_symmetry_space_group_name_H-M "P 42 M C"
_symmetry_group_IT_number 105
_symmetry_cell_setting 'tetragonal'
loop_
_space_group_symop_operation_xyz
x,y,z
-y,x,1/2+z
-x,-y,z
y,-x,1/2+z
-x,y,z
x,-y,z
-y,-x,1/2+z
y,x,1/2+z
loop_
_atom_site_type_symbol
_atom_site_label
_atom_site_fract_x
_atom_site_fract_y
_atom_site_fract_z
Si Si1 0.804941 0.309894 0.512370
Si Si2 0.309500 0.500000 0.263086
Si Si3 0.813953 0.691116 0.918416
Si Si4 0.814829 0.803405 0.110250
Si Si5 0.185908 0.500000 0.363404
Si Si6 0.692234 0.185553 0.209526
O O1 0.766600 0.500000 0.500391
O O2 0.713806 0.197619 0.474040
O O3 0.730643 0.269616 0.563533
O O4 0.000000 0.270520 0.510192
O O5 0.500000 0.500000 0.246399
O O6 0.304747 0.500000 0.318818
O O7 0.226660 0.670794 0.242560
O O8 0.788736 0.500000 0.905046
O O9 0.667591 0.792590 0.893430
O O10 0.000000 0.749656 0.902642
O O11 0.712570 0.753459 0.156212
O O12 0.000000 0.730207 0.114900
O O13 0.817864 0.000000 0.105398
O O14 0.000000 0.500000 0.343893
O O15 0.500000 0.167559 0.221641
O O16 0.774844 0.000000 0.217262
#
# Coordination Sequence:
#
# PCOD8307161 Si02
#       6
#     8   4   8   8   4   8
#     4  10  19  33  57  88 121 161 205 250 305 368
#     4  10  22  40  62  88 118 154 200 256 312 373
#     4  11  24  42  64  90 123 161 203 255 314 376
#     4   9  17  30  51  81 118 159 201 245 297 360
#     4  12  26  44  66  92 122 160 206 258 318 375
#     4   9  18  35  58  83 114 154 199 247 304 370
#
# _framework density 21.595362999999999
#
# number of rings (size 3 to 8) (size 9 to 14) (size 15 to 20)
#    0.000    2.000    1.000    2.700    0.000    6.400 
#    1.800    2.000    0.000    0.000    0.000    0.000 
#    0.000    0.000    0.000    0.000    0.000    0.000 
#
# Total GULP energy -495814.260735 kJ/mol
# GULP energy per Si atom -12395.356518 kJ/mol
# Density = 2.154621 g / cm^3
# Si number density = 21.595363 Si / 1000 Ang^3
#
#
#
# Elastic Constant Matrix: (Units=GPa)
#
#
# Indices 1 2 3 4 5 6 
#
# 1 83.8093 30.6870 30.2093 0.0000 0.0000 0.0000
# 2 30.6870 83.8093 30.2093 0.0000 0.0000 0.0000
# 3 30.2093 30.2093 124.9492 0.0000 0.0000 0.0000
# 4 0.0000 0.0000 0.0000 23.7149 0.0000 0.0000
# 5 0.0000 0.0000 0.0000 0.0000 23.7149 0.0000
# 6 0.0000 0.0000 0.0000 0.0000 0.0000 14.3419
#
#
#
# Elastic Compliance Matrix: (Units=1/GPa)
#
#
# Indices 1 2 3 4 5 6 
#
# 1 0.014418 -0.004407 -0.002420 0.000000 0.000000 0.000000
# 2 -0.004407 0.014418 -0.002420 0.000000 0.000000 0.000000
# 3 -0.002420 -0.002420 0.009174 0.000000 0.000000 0.000000
# 4 0.000000 0.000000 0.000000 0.042168 0.000000 0.000000
# 5 0.000000 0.000000 0.000000 0.000000 0.042168 0.000000
# 6 0.000000 0.000000 0.000000 0.000000 0.000000 0.069726
#
#
# Mechanical properties :
#
#
# Convention : Reuss Voigt Hill
#
# Bulk Modulus (GPa) = 51.24464 52.75322 51.99893
# Shear Modulus (GPa) = 23.03401 25.78512 24.40957
#
# Velocity S-wave (km/s) = 3.26946 3.45920 3.36566
# Velocity P-wave (km/s) = 6.16712 6.35891 6.26375
#
# Compressibility (1/GPa) = 0.01951424
#
# Stress axis : x y z
#
# Youngs Moduli (GPa) = 69.35858 69.35858 109.00800
#
# Poissons Ratio (x) = 0.30564 0.26385
# Poissons Ratio (y) = 0.30564 0.26385
# Poissons Ratio (z) = 0.16788 0.16788
#
# Static dielectric constant tensor:
#      x y z
#    x 3.870080 0.000000 0.000000 
#    y 0.000000 3.870080 0.000000 
#    z 0.000000 0.000000 3.802580 
# 
# 
# High freq. dielectric constant tensor:
#      x y z
#    x 1.835510 0.000000 0.000000 
#    y 0.000000 1.835510 0.000000 
#    z 0.000000 0.000000 1.843680 
# 
# From -- ./inp_files/4315.got.cif
#   From: 2010.03.12/outbox.cif.g09.slc.cpg/sg105_3_cif.got.tgz:4315.got - 2010.04.14 01:45:32.
