data_PCOD8307688
_publ_section_title
;
Structure prediction by ZEFSAII (Michael W. Deem and Ramdas Pophale) SiO2 
 PCOD8307688
Probable space group: I 4 M M
;
_chemical_formula_sum "Si O2"
_cell_formula_units_Z 112
_cell_length_a 13.939267
_cell_length_b 13.939267
_cell_length_c 35.087112
_cell_angle_alpha 90.000000
_cell_angle_beta 90.000000
_cell_angle_gamma 90.000000
_cell_volume 6817.536895
_symmetry_space_group_name_H-M "I 4 M M"
_symmetry_group_IT_number 107
_symmetry_cell_setting 'tetragonal'
loop_
_space_group_symop_operation_xyz
x,y,z
-y,x,z
-x,-y,z
y,-x,z
-x,y,z
x,-y,z
-y,-x,z
y,x,z
1/2+x,1/2+y,1/2+z
1/2-y,1/2+x,1/2+z
1/2-x,1/2-y,1/2+z
1/2+y,1/2-x,1/2+z
1/2-x,1/2+y,1/2+z
1/2+x,1/2-y,1/2+z
1/2-y,1/2-x,1/2+z
1/2+y,1/2+x,1/2+z
loop_
_atom_site_type_symbol
_atom_site_label
_atom_site_fract_x
_atom_site_fract_y
_atom_site_fract_z
Si Si1 0.612151 0.229250 0.107640
Si Si2 0.890401 0.735258 0.799925
Si Si3 0.265045 0.890181 0.887884
Si Si4 0.890181 0.265045 0.161627
Si Si5 0.112151 0.270751 0.441870
Si Si6 0.239394 0.392055 0.024755
Si Si7 0.264742 0.109599 0.249585
O O1 0.500000 0.251686 0.114682
O O2 0.672713 0.327288 0.113721
O O3 0.645925 0.148360 0.137087
O O4 0.630395 0.184852 0.064754
O O5 0.831364 0.831364 0.790259
O O6 0.878548 0.705863 0.843889
O O7 0.853110 0.646890 0.774755
O O8 0.000000 0.756789 0.789353
O O9 0.168714 0.831287 0.897559
O O10 0.354076 0.851641 0.912423
O O11 0.244147 0.000000 0.898511
O O12 0.831289 0.168712 0.151952
O O13 0.878549 0.294137 0.205621
O O14 0.000000 0.244148 0.150999
O O15 0.172714 0.172714 0.435789
O O16 0.130393 0.315150 0.484757
O O17 0.000000 0.248313 0.434828
O O18 0.272842 0.500000 0.024756
O O19 0.339144 0.339144 0.024754
O O20 0.168636 0.168636 0.259252
O O21 0.243211 0.000000 0.260157
#
# Coordination Sequence:
#
# PCOD8307688 Si02
#       7
#    16  16  16  16  16  16  16
#     4   9  17  29  45  66  92 120 150 183 219 262
#     4   9  18  32  49  69  92 117 147 183 221 262
#     4   9  18  32  49  68  89 115 148 186 226 264
#     4   9  18  32  49  68  89 115 148 186 226 264
#     4   9  17  29  45  66  92 120 150 183 219 262
#     4   8  14  25  41  61  86 116 148 182 219 258
#     4   9  18  32  49  69  92 117 147 183 221 262
#
# _framework density 16.42822
#
# number of rings (size 3 to 8) (size 9 to 14) (size 15 to 20)
#    0.000    3.143    0.000    0.000    0.000    3.000 
#    0.000    9.286    0.000    2.571    0.000    8.000 
#    0.000    5.714    0.000    0.000    0.000    0.000 
#
# Total GULP energy -693950.192493 kJ/mol
# GULP energy per Si atom -12391.967723 kJ/mol
# Density = 1.639083 g / cm^3
# Si number density = 16.428220 Si / 1000 Ang^3
#
#
#
# Elastic Constant Matrix: (Units=GPa)
#
#
# Indices 1 2 3 4 5 6 
#
# 1 99.1892 42.6469 55.7418 0.0000 0.0000 -0.0001
# 2 42.6469 99.1892 55.7418 0.0000 0.0000 0.0001
# 3 55.7418 55.7418 83.7108 0.0000 0.0000 0.0000
# 4 0.0000 0.0000 0.0000 24.9646 0.0000 0.0000
# 5 0.0000 0.0000 0.0000 0.0000 24.9646 0.0000
# 6 -0.0001 0.0001 0.0000 0.0000 0.0000 12.2472
#
#
#
# Elastic Compliance Matrix: (Units=1/GPa)
#
#
# Indices 1 2 3 4 5 6 
#
# 1 0.016239 -0.001447 -0.009850 0.000000 0.000000 0.000000
# 2 -0.001447 0.016239 -0.009850 0.000000 0.000000 0.000000
# 3 -0.009850 -0.009850 0.025064 0.000000 0.000000 0.000000
# 4 0.000000 0.000000 0.000000 0.040057 0.000000 0.000000
# 5 0.000000 0.000000 0.000000 0.000000 0.040057 0.000000
# 6 0.000000 0.000000 0.000000 0.000000 0.000000 0.081651
#
#
# Mechanical properties :
#
#
# Convention : Reuss Voigt Hill
#
# Bulk Modulus (GPa) = 65.57985 65.59448 65.58716
# Shear Modulus (GPa) = 18.74877 20.96588 19.85732
#
# Velocity S-wave (km/s) = 3.38191 3.57629 3.48045
# Velocity P-wave (km/s) = 7.43340 7.55432 7.49410
#
# Compressibility (1/GPa) = 0.01524859
#
# Stress axis : x y z
#
# Youngs Moduli (GPa) = 61.57906 61.57906 39.89763
#
# Poissons Ratio (x) = 0.08908 0.39300
# Poissons Ratio (y) = 0.08908 0.39300
# Poissons Ratio (z) = 0.60657 0.60657
#
# Static dielectric constant tensor:
#      x y z
#    x 2.996440 0.000000 0.000000 
#    y 0.000000 2.996440 0.000000 
#    z 0.000000 0.000000 3.439850 
# 
# 
# High freq. dielectric constant tensor:
#      x y z
#    x 1.619210 0.000000 0.000000 
#    y 0.000000 1.619210 0.000000 
#    z 0.000000 0.000000 1.644600 
# 
# From -- ./inp_files/5789.got.cif
#   From: 2010.03.12/outbox.cif.g09.slc.cpg/sg107_3_cif.got.tgz:5789.got - 2010.04.14 01:49:11.
