data_PCOD8307445
_publ_section_title
;
Structure prediction by ZEFSAII (Michael W. Deem and Ramdas Pophale) SiO2 
 PCOD8307445
Probable space group: P 42 B C
;
_chemical_formula_sum "Si O2"
_cell_formula_units_Z 60
_cell_length_a 17.159903
_cell_length_b 17.159903
_cell_length_c 9.491077
_cell_angle_alpha 90.000000
_cell_angle_beta 90.000000
_cell_angle_gamma 90.000000
_cell_volume 2794.764087
_symmetry_space_group_name_H-M "P 42 B C"
_symmetry_group_IT_number 106
_symmetry_cell_setting 'tetragonal'
loop_
_space_group_symop_operation_xyz
x,y,z
-y,x,1/2+z
-x,-y,z
y,-x,1/2+z
1/2-x,1/2+y,z
1/2+x,1/2-y,z
1/2-y,1/2-x,1/2+z
1/2+y,1/2+x,1/2+z
loop_
_atom_site_type_symbol
_atom_site_label
_atom_site_fract_x
_atom_site_fract_y
_atom_site_fract_z
Si Si1 0.000000 0.000000 0.418780
Si Si2 0.157177 0.185412 0.563990
Si Si3 0.682633 0.142212 0.641124
Si Si4 0.008299 0.117159 0.668892
Si Si5 0.322371 0.654623 0.249706
Si Si6 0.071664 0.396408 0.896825
Si Si7 0.571680 0.896392 0.408874
Si Si8 0.852162 0.320575 0.166297
O O1 0.017416 0.070705 0.523214
O O2 0.928891 0.019338 0.314616
O O3 0.174051 0.276842 0.557318
O O4 0.080566 0.176517 0.661162
O O5 0.146869 0.150338 0.408649
O O6 0.230031 0.138964 0.629738
O O7 0.772879 0.131735 0.680719
O O8 0.660746 0.074923 0.530993
O O9 0.624656 0.137780 0.773208
O O10 0.924402 0.157991 0.667039
O O11 0.229968 0.665900 0.244191
O O12 0.101695 0.480961 0.949678
O O13 0.981168 0.399542 0.854796
O O14 0.623059 0.861192 0.533332
O O15 0.579314 0.839373 0.275735
#
# Coordination Sequence:
#
# PCOD8307445 Si02
#       8
#     4   8   8   8   8   8   8   8
#     4  10  24  46  64 102 136 170 232 298 348 410
#     4  11  24  45  69 101 139 177 234 283 348 417
#     4  11  24  43  69 101 138 181 228 287 341 422
#     4  11  24  46  72  98 139 178 228 294 345 414
#     4  11  24  45  69 101 139 177 234 283 348 417
#     4  11  24  43  67 102 140 179 232 287 350 420
#     4  11  24  43  67 102 140 179 232 287 350 420
#     4  11  24  43  69 101 138 181 228 287 341 422
#
# _framework density 21.468717999999999
#
# number of rings (size 3 to 8) (size 9 to 14) (size 15 to 20)
#    0.000    1.067    4.000    1.600    3.733    4.267 
#    9.600    0.000    0.000    0.000    0.000    0.000 
#    0.000    0.000    0.000    0.000    0.000    0.000 
#
# Total GULP energy -744035.278041 kJ/mol
# GULP energy per Si atom -12400.587967 kJ/mol
# Density = 2.141985 g / cm^3
# Si number density = 21.468718 Si / 1000 Ang^3
#
#
#
# Elastic Constant Matrix: (Units=GPa)
#
#
# Indices 1 2 3 4 5 6 
#
# 1 99.8113 22.2645 34.2144 0.0000 0.0000 0.0000
# 2 22.2645 99.8113 34.2144 0.0000 0.0000 0.0000
# 3 34.2144 34.2144 122.3517 0.0000 0.0000 0.0000
# 4 0.0000 0.0000 0.0000 29.6293 0.0000 0.0000
# 5 0.0000 0.0000 0.0000 0.0000 29.6293 0.0000
# 6 0.0000 0.0000 0.0000 0.0000 0.0000 33.0652
#
#
#
# Elastic Compliance Matrix: (Units=1/GPa)
#
#
# Indices 1 2 3 4 5 6 
#
# 1 0.011305 -0.001591 -0.002717 0.000000 0.000000 0.000000
# 2 -0.001591 0.011305 -0.002717 0.000000 0.000000 0.000000
# 3 -0.002717 -0.002717 0.009692 0.000000 0.000000 0.000000
# 4 0.000000 0.000000 0.000000 0.033750 0.000000 0.000000
# 5 0.000000 0.000000 0.000000 0.000000 0.033750 0.000000
# 6 0.000000 0.000000 0.000000 0.000000 0.000000 0.030243
#
#
# Mechanical properties :
#
#
# Convention : Reuss Voigt Hill
#
# Bulk Modulus (GPa) = 54.77923 55.92898 55.35411
# Shear Modulus (GPa) = 33.29375 33.88353 33.58864
#
# Velocity S-wave (km/s) = 3.94230 3.97706 3.95972
# Velocity P-wave (km/s) = 6.80393 6.87003 6.83706
#
# Compressibility (1/GPa) = 0.01825509
#
# Stress axis : x y z
#
# Youngs Moduli (GPa) = 88.45726 88.45726 103.17311
#
# Poissons Ratio (x) = 0.14069 0.28027
# Poissons Ratio (y) = 0.14069 0.28027
# Poissons Ratio (z) = 0.24030 0.24030
#
# Static dielectric constant tensor:
#      x y z
#    x 3.888000 0.000000 0.000000 
#    y 0.000000 3.888000 0.000000 
#    z 0.000000 0.000000 3.953630 
# 
# 
# High freq. dielectric constant tensor:
#      x y z
#    x 1.843670 0.000000 0.000000 
#    y 0.000000 1.843670 0.000000 
#    z 0.000000 0.000000 1.852440 
# 
# From -- ./inp_files/564.got.cif
#   From: 2010.03.12/outbox.cif.g09.slc.cpg/sg106_cif.got.tgz:564.got - 2010.04.14 01:48:02.
