data_PCOD8307349
_publ_section_title
;
Structure prediction by ZEFSAII (Michael W. Deem and Ramdas Pophale) SiO2 
 PCOD8307349
Probable space group: P 42 M C
;
_chemical_formula_sum "Si O2"
_cell_formula_units_Z 48
_cell_length_a 8.100246
_cell_length_b 8.100246
_cell_length_c 34.314853
_cell_angle_alpha 90.000000
_cell_angle_beta 90.000000
_cell_angle_gamma 90.000000
_cell_volume 2251.534259
_symmetry_space_group_name_H-M "P 42 M C"
_symmetry_group_IT_number 105
_symmetry_cell_setting 'tetragonal'
loop_
_space_group_symop_operation_xyz
x,y,z
-y,x,1/2+z
-x,-y,z
y,-x,1/2+z
-x,y,z
x,-y,z
-y,-x,1/2+z
y,x,1/2+z
loop_
_atom_site_type_symbol
_atom_site_label
_atom_site_fract_x
_atom_site_fract_y
_atom_site_fract_z
Si Si1 0.314635 0.307385 0.064470
Si Si2 0.810087 0.000000 0.191501
Si Si3 0.000000 0.312931 0.775965
Si Si4 0.684196 0.809372 0.647619
Si Si5 0.689966 0.188510 0.823371
Si Si6 0.809510 0.313321 0.484272
Si Si7 0.317106 0.693577 0.404914
O O1 0.500000 0.237000 0.070525
O O2 0.317856 0.500000 0.057420
O O3 0.210295 0.261814 0.102658
O O4 0.227175 0.229807 0.025840
O O5 0.799963 0.000000 0.237904
O O6 0.728737 0.169790 0.174169
O O7 0.000000 0.000000 0.178363
O O8 0.170170 0.284106 0.799381
O O9 0.000000 0.500000 0.761807
O O10 0.500000 0.728157 0.654897
O O11 0.668336 0.000000 0.658102
O O12 0.500000 0.257288 0.816974
O O13 0.741716 0.199896 0.868873
O O14 0.695465 0.000000 0.810066
O O15 0.740655 0.500000 0.488362
O O16 0.729357 0.222516 0.446454
O O17 0.000000 0.311059 0.475253
O O18 0.500000 0.749067 0.392738
O O19 0.302415 0.500000 0.412150
#
# Coordination Sequence:
#
# PCOD8307349 Si02
#       7
#     8   4   4   8   8   8   8
#     4   9  17  29  47  73 104 138 178 226 280 336
#     4  10  22  40  60  82 108 144 190 234 286 350
#     4  12  26  42  62  92 126 156 190 246 308 368
#     4   9  19  36  57  79 106 143 184 229 284 346
#     4  10  21  39  64  90 118 158 203 247 297 360
#     4   9  16  25  41  70 106 144 186 232 279 336
#     4   9  16  28  49  77 110 148 191 238 289 344
#
# _framework density 21.318795999999999
#
# number of rings (size 3 to 8) (size 9 to 14) (size 15 to 20)
#    0.000    2.500    0.000    2.250    1.167    6.333 
#    0.000    1.667    1.833    0.000    0.000    0.000 
#    0.000    0.000    0.000    0.000    0.000    0.000 
#
# Total GULP energy -594685.675347 kJ/mol
# GULP energy per Si atom -12389.284903 kJ/mol
# Density = 2.127027 g / cm^3
# Si number density = 21.318796 Si / 1000 Ang^3
#
#
#
# Elastic Constant Matrix: (Units=GPa)
#
#
# Indices 1 2 3 4 5 6 
#
# 1 64.2081 21.3944 35.2819 0.0000 0.0000 0.0000
# 2 21.3944 64.2081 35.2819 0.0000 0.0000 0.0000
# 3 35.2819 35.2819 137.4054 0.0000 0.0000 0.0000
# 4 0.0000 0.0000 0.0000 27.1180 0.0000 0.0000
# 5 0.0000 0.0000 0.0000 0.0000 27.1180 0.0000
# 6 0.0000 0.0000 0.0000 0.0000 0.0000 14.7707
#
#
#
# Elastic Compliance Matrix: (Units=1/GPa)
#
#
# Indices 1 2 3 4 5 6 
#
# 1 0.019088 -0.004269 -0.003805 0.000000 0.000000 0.000000
# 2 -0.004269 0.019088 -0.003805 0.000000 0.000000 0.000000
# 3 -0.003805 -0.003805 0.009232 0.000000 0.000000 0.000000
# 4 0.000000 0.000000 0.000000 0.036876 0.000000 0.000000
# 5 0.000000 0.000000 0.000000 0.000000 0.036876 0.000000
# 6 0.000000 0.000000 0.000000 0.000000 0.000000 0.067702
#
#
# Mechanical properties :
#
#
# Convention : Reuss Voigt Hill
#
# Bulk Modulus (GPa) = 42.28558 49.97089 46.12823
# Shear Modulus (GPa) = 22.67555 25.39225 24.03390
#
# Velocity S-wave (km/s) = 3.26489 3.45494 3.36126
# Velocity P-wave (km/s) = 5.83872 6.27743 6.06204
#
# Compressibility (1/GPa) = 0.02364873
#
# Stress axis : x y z
#
# Youngs Moduli (GPa) = 52.38973 52.38973 108.32194
#
# Poissons Ratio (x) = 0.22367 0.41216
# Poissons Ratio (y) = 0.22367 0.41216
# Poissons Ratio (z) = 0.19934 0.19934
#
# Static dielectric constant tensor:
#      x y z
#    x 3.713610 0.000000 0.000000 
#    y 0.000000 3.713610 0.000000 
#    z 0.000000 0.000000 3.887530 
# 
# 
# High freq. dielectric constant tensor:
#      x y z
#    x 1.811480 0.000000 0.000000 
#    y 0.000000 1.811480 0.000000 
#    z 0.000000 0.000000 1.842140 
# 
# From -- ./inp_files/4785.got.cif
#   From: 2010.03.12/outbox.cif.g09.slc.cpg/sg105_3_cif.got.tgz:4785.got - 2010.04.14 01:45:32.
