data_PCOD8307852
_publ_section_title
;
Structure prediction by ZEFSAII (Michael W. Deem and Ramdas Pophale) SiO2 
 PCOD8307852
Probable space group: I 41 M D
;
_chemical_formula_sum "Si O2"
_cell_formula_units_Z 48
_cell_length_a 13.237141
_cell_length_b 13.237141
_cell_length_c 16.119671
_cell_angle_alpha 90.000000
_cell_angle_beta 90.000000
_cell_angle_gamma 90.000000
_cell_volume 2824.519410
_symmetry_space_group_name_H-M "I 41 M D"
_symmetry_group_IT_number 109
_symmetry_cell_setting 'tetragonal'
loop_
_space_group_symop_operation_xyz
x,y,z
-y,1/2+x,1/4+z
-x,-y,z
y,1/2-x,1/4+z
-x,y,z
x,-y,z
-y,1/2-x,1/4+z
y,1/2+x,1/4+z
1/2+x,1/2+y,1/2+z
1/2-y,x,3/4+z
1/2-x,1/2-y,1/2+z
1/2+y,-x,3/4+z
1/2-x,1/2+y,1/2+z
1/2+x,1/2-y,1/2+z
1/2-y,-x,3/4+z
1/2+y,x,3/4+z
loop_
_atom_site_type_symbol
_atom_site_label
_atom_site_fract_x
_atom_site_fract_y
_atom_site_fract_z
Si Si1 0.807586 0.692414 0.280920
Si Si2 0.614058 0.882237 0.951873
Si Si3 0.114059 0.117763 0.859966
O O1 0.824242 0.811359 0.264307
O O2 0.873646 0.658541 0.358958
O O3 0.841460 0.626355 0.202882
O O4 0.688642 0.675758 0.297533
O O5 0.500000 0.862521 0.981960
O O6 0.641654 0.000000 0.952728
O O7 0.000000 0.137480 0.829880
O O8 0.141655 0.000000 0.859111
#
# Coordination Sequence:
#
# PCOD8307852 Si02
#       3
#    16  16  16
#     4  10  18  31  50  71  96 122 154 196 236 275
#     4  10  19  31  49  72  96 123 156 194 235 277
#     4  10  19  31  49  72  96 123 156 194 235 277
#
# _framework density 16.994042
#
# number of rings (size 3 to 8) (size 9 to 14) (size 15 to 20)
#    0.000    2.000    0.000    8.000    0.000    2.667 
#    0.000    6.667    0.000    5.000    0.000    0.000 
#    0.000    0.000    0.000    0.000    0.000    0.000 
#
# Total GULP energy -297629.469191 kJ/mol
# GULP energy per Si atom -12401.227883 kJ/mol
# Density = 1.695536 g / cm^3
# Si number density = 16.994042 Si / 1000 Ang^3
#
#
#
# Elastic Constant Matrix: (Units=GPa)
#
#
# Indices 1 2 3 4 5 6 
#
# 1 129.9340 79.0331 54.3171 0.0000 0.0000 0.0000
# 2 79.0331 129.9340 54.3171 0.0000 0.0000 0.0000
# 3 54.3171 54.3171 73.1128 0.0000 0.0000 0.0000
# 4 0.0000 0.0000 0.0000 22.4700 0.0000 0.0000
# 5 0.0000 0.0000 0.0000 0.0000 22.4700 0.0000
# 6 0.0000 0.0000 0.0000 0.0000 0.0000 32.0681
#
#
#
# Elastic Compliance Matrix: (Units=1/GPa)
#
#
# Indices 1 2 3 4 5 6 
#
# 1 0.013721 -0.005925 -0.005792 0.000000 0.000000 0.000000
# 2 -0.005925 0.013721 -0.005792 0.000000 0.000000 0.000000
# 3 -0.005792 -0.005792 0.022284 0.000000 0.000000 0.000000
# 4 0.000000 0.000000 0.000000 0.044504 0.000000 0.000000
# 5 0.000000 0.000000 0.000000 0.000000 0.044504 0.000000
# 6 0.000000 0.000000 0.000000 0.000000 0.000000 0.031184
#
#
# Mechanical properties :
#
#
# Convention : Reuss Voigt Hill
#
# Bulk Modulus (GPa) = 67.99002 78.70170 73.34586
# Shear Modulus (GPa) = 23.82778 25.08918 24.45848
#
# Velocity S-wave (km/s) = 3.74856 3.84650 3.79785
# Velocity P-wave (km/s) = 7.67011 8.13261 7.90474
#
# Compressibility (1/GPa) = 0.01470804
#
# Stress axis : x y z
#
# Youngs Moduli (GPa) = 72.87930 72.87930 44.87546
#
# Poissons Ratio (x) = 0.43179 0.25993
# Poissons Ratio (y) = 0.43179 0.25993
# Poissons Ratio (z) = 0.42214 0.42214
#
# Static dielectric constant tensor:
#      x y z
#    x 3.236760 0.000000 0.000000 
#    y 0.000000 3.236760 0.000000 
#    z 0.000000 0.000000 2.969400 
# 
# 
# High freq. dielectric constant tensor:
#      x y z
#    x 1.660470 0.000000 0.000000 
#    y 0.000000 1.660470 0.000000 
#    z 0.000000 0.000000 1.636780 
# 
# From -- ./inp_files/1750.got.cif
#   From: 2010.03.12/outbox.cif.g09.slc.cpg/sg109_1_cif.got.tgz:1750.got - 2010.04.14 01:55:16.
