data_PCOD8307145
_publ_section_title
;
Structure prediction by ZEFSAII (Michael W. Deem and Ramdas Pophale) SiO2 
 PCOD8307145
Probable space group: P 42 M C
;
_chemical_formula_sum "Si O2"
_cell_formula_units_Z 64
_cell_length_a 13.822877
_cell_length_b 13.822877
_cell_length_c 19.733483
_cell_angle_alpha 90.000000
_cell_angle_beta 90.000000
_cell_angle_gamma 90.000000
_cell_volume 3770.514654
_symmetry_space_group_name_H-M "P 42 M C"
_symmetry_group_IT_number 105
_symmetry_cell_setting 'tetragonal'
loop_
_space_group_symop_operation_xyz
x,y,z
-y,x,1/2+z
-x,-y,z
y,-x,1/2+z
-x,y,z
x,-y,z
-y,-x,1/2+z
y,x,1/2+z
loop_
_atom_site_type_symbol
_atom_site_label
_atom_site_fract_x
_atom_site_fract_y
_atom_site_fract_z
Si Si1 0.738160 0.614155 0.932540
Si Si2 0.256187 0.611969 0.089661
Si Si3 0.614021 0.727603 0.833749
Si Si4 0.614296 0.393591 0.705178
Si Si5 0.885704 0.106409 0.034923
Si Si6 0.238160 0.885845 0.807562
Si Si7 0.227603 0.885979 0.406353
Si Si8 0.888031 0.756187 0.150441
O O1 0.747356 0.500000 0.917574
O O2 0.643788 0.658855 0.896323
O O3 0.833540 0.668008 0.903525
O O4 0.724920 0.636083 0.011745
O O5 0.235438 0.500000 0.100975
O O6 0.349587 0.645764 0.132799
O O7 0.162211 0.662211 0.120051
O O8 0.500000 0.745769 0.835793
O O9 0.650761 0.674790 0.765585
O O10 0.666460 0.831992 0.836576
O O11 0.500000 0.402852 0.710440
O O12 0.661763 0.500000 0.711826
O O13 0.854236 0.150413 0.107303
O O14 0.000000 0.097148 0.029661
O O15 0.838237 0.000000 0.028276
O O16 0.849239 0.174790 0.974517
O O17 0.143788 0.841145 0.843779
O O18 0.224920 0.863917 0.728356
O O19 0.247356 0.000000 0.822527
O O20 0.245769 0.000000 0.404309
O O21 0.000000 0.735438 0.139126
#
# Coordination Sequence:
#
# PCOD8307145 Si02
#       8
#     8   8   8   8   8   8   8   8
#     4  10  21  34  52  78 107 138 174 218 264 310
#     4  10  19  32  49  74 106 134 164 205 254 311
#     4  10  20  35  53  75 105 139 176 217 262 312
#     4   9  17  30  49  71  97 133 172 208 251 304
#     4   9  17  30  49  71  97 133 172 208 251 304
#     4  10  21  34  52  78 107 138 174 218 264 310
#     4  10  20  35  53  75 105 139 176 217 262 312
#     4  10  19  32  49  74 106 134 164 205 254 311
#
# _framework density 16.97381
#
# number of rings (size 3 to 8) (size 9 to 14) (size 15 to 20)
#    0.000    2.250    2.500    0.750    0.000    3.250 
#    0.000    5.000    0.000    0.000    0.000    0.000 
#    0.000    0.500    0.000    0.000    0.000    0.000 
#
# Total GULP energy -793488.632121 kJ/mol
# GULP energy per Si atom -12398.259877 kJ/mol
# Density = 1.693518 g / cm^3
# Si number density = 16.973810 Si / 1000 Ang^3
#
#
#
# Elastic Constant Matrix: (Units=GPa)
#
#
# Indices 1 2 3 4 5 6 
#
# 1 70.5243 29.7165 33.6583 0.0000 0.0000 0.0000
# 2 29.7165 70.5243 33.6583 0.0000 0.0000 0.0000
# 3 33.6583 33.6583 107.6055 0.0000 0.0000 0.0000
# 4 0.0000 0.0000 0.0000 24.9823 0.0000 0.0000
# 5 0.0000 0.0000 0.0000 0.0000 24.9823 0.0000
# 6 0.0000 0.0000 0.0000 0.0000 0.0000 18.5416
#
#
#
# Elastic Compliance Matrix: (Units=1/GPa)
#
#
# Indices 1 2 3 4 5 6 
#
# 1 0.018567 -0.005938 -0.003950 0.000000 0.000000 0.000000
# 2 -0.005938 0.018567 -0.003950 0.000000 0.000000 0.000000
# 3 -0.003950 -0.003950 0.011764 0.000000 0.000000 0.000000
# 4 0.000000 0.000000 0.000000 0.040028 0.000000 0.000000
# 5 0.000000 0.000000 0.000000 0.000000 0.040028 0.000000
# 6 0.000000 0.000000 0.000000 0.000000 0.000000 0.053933
#
#
# Mechanical properties :
#
#
# Convention : Reuss Voigt Hill
#
# Bulk Modulus (GPa) = 47.12294 49.19116 48.15705
# Shear Modulus (GPa) = 22.97386 23.80929 23.39158
#
# Velocity S-wave (km/s) = 3.68297 3.74934 3.71630
# Velocity P-wave (km/s) = 6.77555 6.91281 6.84452
#
# Compressibility (1/GPa) = 0.02122109
#
# Stress axis : x y z
#
# Youngs Moduli (GPa) = 53.85924 53.85924 85.00226
#
# Poissons Ratio (x) = 0.31983 0.33577
# Poissons Ratio (y) = 0.31983 0.33577
# Poissons Ratio (z) = 0.21275 0.21275
#
# Static dielectric constant tensor:
#      x y z
#    x 3.133950 0.000000 0.000000 
#    y 0.000000 3.133950 0.000000 
#    z 0.000000 0.000000 3.378820 
# 
# 
# High freq. dielectric constant tensor:
#      x y z
#    x 1.642700 0.000000 0.000000 
#    y 0.000000 1.642700 0.000000 
#    z 0.000000 0.000000 1.666940 
# 
# From -- ./inp_files/3200.got.cif
#   From: 2010.03.12/outbox.cif.g09.slc.cpg/sg105_2_cif.got.tgz:3200.got - 2010.04.14 01:45:32.
