data_PCOD8307439
_publ_section_title
;
Structure prediction by ZEFSAII (Michael W. Deem and Ramdas Pophale) SiO2 
 PCOD8307439
Probable space group: P 42 B C
;
_chemical_formula_sum "Si O2"
_cell_formula_units_Z 36
_cell_length_a 9.190582
_cell_length_b 9.190582
_cell_length_c 20.257649
_cell_angle_alpha 90.000000
_cell_angle_beta 90.000000
_cell_angle_gamma 90.000000
_cell_volume 1711.098736
_symmetry_space_group_name_H-M "P 42 B C"
_symmetry_group_IT_number 106
_symmetry_cell_setting 'tetragonal'
loop_
_space_group_symop_operation_xyz
x,y,z
-y,x,1/2+z
-x,-y,z
y,-x,1/2+z
1/2-x,1/2+y,z
1/2+x,1/2-y,z
1/2-y,1/2-x,1/2+z
1/2+y,1/2+x,1/2+z
loop_
_atom_site_type_symbol
_atom_site_label
_atom_site_fract_x
_atom_site_fract_y
_atom_site_fract_z
Si Si1 0.500000 0.500000 0.440390
Si Si2 0.589686 0.678962 0.060516
Si Si3 0.215310 0.096912 0.113573
Si Si4 0.119834 0.893087 0.314299
Si Si5 0.354634 0.080359 0.251691
O O1 0.379084 0.578973 0.485590
O O2 0.414162 0.385813 0.393228
O O3 0.659328 0.838662 0.065151
O O4 0.435062 0.678542 0.097030
O O5 0.700945 0.574111 0.100089
O O6 0.255568 0.121682 0.189426
O O7 0.108774 0.730203 0.288251
O O8 0.275291 0.967916 0.301106
O O9 0.000000 0.000000 0.279793
O O10 0.500000 0.000000 0.227373
#
# Coordination Sequence:
#
# PCOD8307439 Si02
#       5
#     4   8   8   8   8
#     4   8  22  46  68  90 140 172 230 268 324 408
#     4  10  23  44  68  97 132 176 218 275 335 385
#     4  10  24  39  67  97 133 169 217 278 331 399
#     4  10  24  42  68  95 138 179 219 279 330 409
#     4  12  25  41  67 104 134 179 225 280 349 399
#
# _framework density 21.039111999999999
#
# number of rings (size 3 to 8) (size 9 to 14) (size 15 to 20)
#    0.667    1.333    0.000    2.667   12.444    3.556 
#    0.000    0.000    0.000    0.000    0.000    0.000 
#    0.000    0.000    0.000    0.000    0.000    0.000 
#
# Total GULP energy -446219.266701 kJ/mol
# GULP energy per Si atom -12394.979631 kJ/mol
# Density = 2.099123 g / cm^3
# Si number density = 21.039112 Si / 1000 Ang^3
#
#
#
# Elastic Constant Matrix: (Units=GPa)
#
#
# Indices 1 2 3 4 5 6 
#
# 1 98.4877 47.6681 45.2100 0.0000 0.0000 0.0000
# 2 47.6681 98.4877 45.2100 0.0000 0.0000 0.0000
# 3 45.2100 45.2100 155.7334 0.0000 0.0000 0.0000
# 4 0.0000 0.0000 0.0000 29.0854 0.0000 0.0000
# 5 0.0000 0.0000 0.0000 0.0000 29.0854 0.0000
# 6 0.0000 0.0000 0.0000 0.0000 0.0000 48.3827
#
#
#
# Elastic Compliance Matrix: (Units=1/GPa)
#
#
# Indices 1 2 3 4 5 6 
#
# 1 0.014009 -0.005669 -0.002421 0.000000 0.000000 0.000000
# 2 -0.005669 0.014009 -0.002421 0.000000 0.000000 0.000000
# 3 -0.002421 -0.002421 0.007827 0.000000 0.000000 0.000000
# 4 0.000000 0.000000 0.000000 0.034382 0.000000 0.000000
# 5 0.000000 0.000000 0.000000 0.000000 0.034382 0.000000
# 6 0.000000 0.000000 0.000000 0.000000 0.000000 0.020669
#
#
# Mechanical properties :
#
#
# Convention : Reuss Voigt Hill
#
# Bulk Modulus (GPa) = 67.46611 69.87609 68.67110
# Shear Modulus (GPa) = 33.06035 35.61873 34.33954
#
# Velocity S-wave (km/s) = 3.96836 4.11904 4.04440
# Velocity P-wave (km/s) = 7.28929 7.47707 7.38378
#
# Compressibility (1/GPa) = 0.01482226
#
# Stress axis : x y z
#
# Youngs Moduli (GPa) = 71.38454 71.38454 127.76404
#
# Poissons Ratio (x) = 0.40467 0.30933
# Poissons Ratio (y) = 0.40467 0.30933
# Poissons Ratio (z) = 0.17283 0.17283
#
# Static dielectric constant tensor:
#      x y z
#    x 3.761360 0.000000 0.000000 
#    y 0.000000 3.761360 0.000000 
#    z 0.000000 0.000000 3.650910 
# 
# 
# High freq. dielectric constant tensor:
#      x y z
#    x 1.825100 0.000000 0.000000 
#    y 0.000000 1.825100 0.000000 
#    z 0.000000 0.000000 1.816340 
# 
# From -- ./inp_files/1561.got.cif
#   From: 2010.03.12/outbox.cif.g09.slc.cpg/sg106_cif.got.tgz:1561.got - 2010.04.14 01:48:02.
