data_PCOD8307121
_publ_section_title
;
Structure prediction by ZEFSAII (Michael W. Deem and Ramdas Pophale) SiO2 
 PCOD8307121
Probable space group: P 42 M C
;
_chemical_formula_sum "Si O2"
_cell_formula_units_Z 48
_cell_length_a 9.766340
_cell_length_b 9.766340
_cell_length_c 28.219044
_cell_angle_alpha 90.000000
_cell_angle_beta 90.000000
_cell_angle_gamma 90.000000
_cell_volume 2691.571839
_symmetry_space_group_name_H-M "P 42 M C"
_symmetry_group_IT_number 105
_symmetry_cell_setting 'tetragonal'
loop_
_space_group_symop_operation_xyz
x,y,z
-y,x,1/2+z
-x,-y,z
y,-x,1/2+z
-x,y,z
x,-y,z
-y,-x,1/2+z
y,x,1/2+z
loop_
_atom_site_type_symbol
_atom_site_label
_atom_site_fract_x
_atom_site_fract_y
_atom_site_fract_z
Si Si1 0.652227 0.160768 0.020070
Si Si2 0.160276 0.847018 0.600995
Si Si3 0.668216 0.000000 0.374520
Si Si4 0.500000 0.836343 0.748807
Si Si5 0.000000 0.162852 0.778269
Si Si6 0.839513 0.500000 0.354072
Si Si7 0.838580 0.758279 0.415858
Si Si8 0.838319 0.226056 0.204038
O O1 0.500000 0.226360 0.022544
O O2 0.748232 0.225856 0.061064
O O3 0.638724 0.000000 0.028056
O O4 0.719748 0.190882 0.969738
O O5 0.186858 0.778606 0.652582
O O6 0.000000 0.859578 0.592340
O O7 0.225388 0.000000 0.596691
O O8 0.737033 0.000000 0.322851
O O9 0.728726 0.127374 0.403085
O O10 0.500000 0.000000 0.372610
O O11 0.500000 0.772637 0.801699
O O12 0.627278 0.781489 0.718966
O O13 0.500000 0.000000 0.751839
O O14 0.128592 0.205217 0.746699
O O15 0.000000 0.000000 0.792639
O O16 0.795242 0.633348 0.382513
O O17 0.000000 0.500000 0.347939
O O18 0.000000 0.799915 0.408561
O O19 0.000000 0.218570 0.198678
#
# Coordination Sequence:
#
# PCOD8307121 Si02
#       8
#     8   8   4   4   4   4   8   8
#     4   9  17  30  51  81 108 131 171 227 275 317
#     4   9  16  27  46  74 106 138 171 211 264 318
#     4  12  26  38  50  78 118 148 182 222 275 338
#     4   9  16  24  42  73 107 131 161 209 268 309
#     4  10  18  34  58  78 102 142 182 222 267 326
#     4   9  16  30  55  87 107 131 175 233 276 317
#     4  10  19  35  59  82 108 137 180 231 279 326
#     4   9  16  28  48  75 107 134 171 218 264 314
#
# _framework density 17.833445000000001
#
# number of rings (size 3 to 8) (size 9 to 14) (size 15 to 20)
#    0.000    2.500    1.667    1.750    1.167    2.667 
#    0.000    1.250    1.833    0.000    0.000    1.167 
#    0.000    0.000    0.000    0.000    0.000    0.000 
#
# Total GULP energy -594784.811068 kJ/mol
# GULP energy per Si atom -12391.350231 kJ/mol
# Density = 1.779285 g / cm^3
# Si number density = 17.833445 Si / 1000 Ang^3
#
#
#
# Elastic Constant Matrix: (Units=GPa)
#
#
# Indices 1 2 3 4 5 6 
#
# 1 89.4211 37.5884 48.8017 0.0000 0.0000 0.0000
# 2 37.5884 89.4211 48.8017 0.0000 0.0000 0.0000
# 3 48.8017 48.8017 145.3097 0.0000 0.0000 0.0000
# 4 0.0000 0.0000 0.0000 23.7190 0.0000 0.0000
# 5 0.0000 0.0000 0.0000 0.0000 23.7190 0.0000
# 6 0.0000 0.0000 0.0000 0.0000 0.0000 21.3747
#
#
#
# Elastic Compliance Matrix: (Units=1/GPa)
#
#
# Indices 1 2 3 4 5 6 
#
# 1 0.014953 -0.004340 -0.003564 0.000000 0.000000 0.000000
# 2 -0.004340 0.014953 -0.003564 0.000000 0.000000 0.000000
# 3 -0.003564 -0.003564 0.009276 0.000000 0.000000 0.000000
# 4 0.000000 0.000000 0.000000 0.042160 0.000000 0.000000
# 5 0.000000 0.000000 0.000000 0.000000 0.042160 0.000000
# 6 0.000000 0.000000 0.000000 0.000000 0.000000 0.046784
#
#
# Mechanical properties :
#
#
# Convention : Reuss Voigt Hill
#
# Bulk Modulus (GPa) = 61.56089 66.05951 63.81020
# Shear Modulus (GPa) = 25.17146 26.35986 25.76566
#
# Velocity S-wave (km/s) = 3.76104 3.84880 3.80517
# Velocity P-wave (km/s) = 7.31132 7.54148 7.42729
#
# Compressibility (1/GPa) = 0.01624408
#
# Stress axis : x y z
#
# Youngs Moduli (GPa) = 66.87801 66.87801 107.80681
#
# Poissons Ratio (x) = 0.29027 0.38424
# Poissons Ratio (y) = 0.29027 0.38424
# Poissons Ratio (z) = 0.23836 0.23836
#
# Static dielectric constant tensor:
#      x y z
#    x 3.192440 0.000000 0.000000 
#    y 0.000000 3.192440 0.000000 
#    z 0.000000 0.000000 3.585240 
# 
# 
# High freq. dielectric constant tensor:
#      x y z
#    x 1.654170 0.000000 0.000000 
#    y 0.000000 1.654170 0.000000 
#    z 0.000000 0.000000 1.712300 
# 
# From -- ./inp_files/4930.got.cif
#   From: 2010.03.12/outbox.cif.g09.slc.cpg/sg105_3_cif.got.tgz:4930.got - 2010.04.14 01:45:32.
