data_PCOD8307269
_publ_section_title
;
Structure prediction by ZEFSAII (Michael W. Deem and Ramdas Pophale) SiO2 
 PCOD8307269
Probable space group: P 42 M C
;
_chemical_formula_sum "Si O2"
_cell_formula_units_Z 32
_cell_length_a 8.914778
_cell_length_b 8.914778
_cell_length_c 20.657518
_cell_angle_alpha 90.000000
_cell_angle_beta 90.000000
_cell_angle_gamma 90.000000
_cell_volume 1641.720439
_symmetry_space_group_name_H-M "P 42 M C"
_symmetry_group_IT_number 105
_symmetry_cell_setting 'tetragonal'
loop_
_space_group_symop_operation_xyz
x,y,z
-y,x,1/2+z
-x,-y,z
y,-x,1/2+z
-x,y,z
x,-y,z
-y,-x,1/2+z
y,x,1/2+z
loop_
_atom_site_type_symbol
_atom_site_label
_atom_site_fract_x
_atom_site_fract_y
_atom_site_fract_z
Si Si1 0.321816 0.831256 0.678000
Si Si2 0.825981 0.825981 0.928000
Si Si3 0.672492 0.676697 0.808050
Si Si4 0.323303 0.672492 0.047950
O O1 0.500000 0.828100 0.678000
O O2 0.263112 0.747765 0.742005
O O3 0.263112 0.747765 0.613995
O O4 0.258736 0.000000 0.678000
O O5 0.774080 0.733299 0.866155
O O6 0.000000 0.793717 0.940909
O O7 0.793717 0.000000 0.915090
O O8 0.733299 0.774080 0.989845
O O9 0.500000 0.724572 0.820515
O O10 0.687161 0.500000 0.802002
O O11 0.500000 0.687161 0.053998
O O12 0.275429 0.500000 0.035485
#
# Coordination Sequence:
#
# PCOD8307269 Si02
#       4
#     8   8   8   8
#     4   9  17  31  54  83 114 147 180 218 268 323
#     4  11  24  39  54  76 108 145 184 227 276 328
#     4  10  20  35  57  84 111 141 181 227 272 322
#     4  10  20  35  57  84 111 141 181 227 272 322
#
# _framework density 19.49175
#
# number of rings (size 3 to 8) (size 9 to 14) (size 15 to 20)
#    0.000    2.000    0.000    3.750    0.000   11.000 
#    0.000    1.250    0.000    7.500    0.000    0.000 
#    0.000    0.000    0.000    0.000    0.000    0.000 
#
# Total GULP energy -396925.665219 kJ/mol
# GULP energy per Si atom -12403.927038 kJ/mol
# Density = 1.944739 g / cm^3
# Si number density = 19.491750 Si / 1000 Ang^3
#
#
#
# Elastic Constant Matrix: (Units=GPa)
#
#
# Indices 1 2 3 4 5 6 
#
# 1 70.9797 26.7177 38.3672 0.0000 0.0000 0.0000
# 2 26.7177 70.9797 38.3672 0.0000 0.0000 0.0000
# 3 38.3672 38.3672 154.5708 0.0000 0.0000 0.0000
# 4 0.0000 0.0000 0.0000 -41.2815 0.0000 0.0000
# 5 0.0000 0.0000 0.0000 0.0000 -41.2815 0.0000
# 6 0.0000 0.0000 0.0000 0.0000 0.0000 25.6720
#
#
#
# Elastic Compliance Matrix: (Units=1/GPa)
#
#
# Indices 1 2 3 4 5 6 
#
# 1 0.017654 -0.004939 -0.003156 0.000000 0.000000 0.000000
# 2 -0.004939 0.017654 -0.003156 0.000000 0.000000 0.000000
# 3 -0.003156 -0.003156 0.008036 0.000000 0.000000 0.000000
# 4 0.000000 0.000000 0.000000 -0.024224 0.000000 0.000000
# 5 0.000000 0.000000 0.000000 0.000000 -0.024224 0.000000
# 6 0.000000 0.000000 0.000000 0.000000 0.000000 0.038953
#
#
# Mechanical properties :
#
#
# Convention : Reuss Voigt Hill
#
# Bulk Modulus (GPa) = 47.98149 55.93715 51.95932
# Shear Modulus (GPa) = 78.99167 1.49366 40.24267
#
# Velocity S-wave (km/s) = 6.37289 0.87634 4.54872
# Velocity P-wave (km/s) = 8.87814 5.45748 7.36904
#
# Compressibility (1/GPa) = 0.02084137
#
# Stress axis : x y z
#
# Youngs Moduli (GPa) = 56.64560 56.64560 124.43603
#
# Poissons Ratio (x) = 0.27978 0.39271
# Poissons Ratio (y) = 0.27978 0.39271
# Poissons Ratio (z) = 0.17877 0.17877
#
# Static dielectric constant tensor:
#      x y z
#    x 3.499050 0.000000 0.000000 
#    y 0.000000 3.499050 0.000000 
#    z 0.000000 0.000000 3.840330 
# 
# 
# High freq. dielectric constant tensor:
#      x y z
#    x 1.750020 0.000000 0.000000 
#    y 0.000000 1.750020 0.000000 
#    z 0.000000 0.000000 1.777740 
# 
# From -- ./inp_files/3333.got.cif
#   From: 2010.03.12/outbox.cif.g09.slc.cpg/sg105_2_cif.got.tgz:3333.got - 2010.04.14 01:45:32.
