data_PCOD8307316
_publ_section_title
;
Structure prediction by ZEFSAII (Michael W. Deem and Ramdas Pophale) SiO2 
 PCOD8307316
Probable space group: P 42 M C
;
_chemical_formula_sum "Si O2"
_cell_formula_units_Z 48
_cell_length_a 9.192110
_cell_length_b 9.192110
_cell_length_c 30.422932
_cell_angle_alpha 90.000000
_cell_angle_beta 90.000000
_cell_angle_gamma 90.000000
_cell_volume 2570.582179
_symmetry_space_group_name_H-M "P 42 M C"
_symmetry_group_IT_number 105
_symmetry_cell_setting 'tetragonal'
loop_
_space_group_symop_operation_xyz
x,y,z
-y,x,1/2+z
-x,-y,z
y,-x,1/2+z
-x,y,z
x,-y,z
-y,-x,1/2+z
y,x,1/2+z
loop_
_atom_site_type_symbol
_atom_site_label
_atom_site_fract_x
_atom_site_fract_y
_atom_site_fract_z
Si Si1 0.670298 0.833095 0.582180
Si Si2 0.171264 0.831813 0.417211
Si Si3 0.835880 0.670148 0.756505
Si Si4 0.666905 0.170298 0.830306
Si Si5 0.331813 0.671264 0.995275
Si Si6 0.335880 0.829852 0.155981
O O1 0.500000 0.813781 0.589453
O O2 0.724321 0.738745 0.540854
O O3 0.747411 0.778647 0.625971
O O4 0.712921 0.000000 0.573459
O O5 0.224321 0.761254 0.371633
O O6 0.250000 0.750000 0.456243
O O7 0.000000 0.811555 0.423469
O O8 0.217351 0.000000 0.417199
O O9 0.823955 0.500000 0.765868
O O10 0.721353 0.752589 0.786515
O O11 0.795189 0.704811 0.706243
O O12 0.000000 0.724021 0.766633
O O13 0.500000 0.212921 0.839027
O O14 0.686218 0.000000 0.823033
O O15 0.500000 0.717351 0.995287
O O16 0.311556 0.500000 0.989017
O O17 0.500000 0.775979 0.145853
O O18 0.323955 0.000000 0.146619
#
# Coordination Sequence:
#
# PCOD8307316 Si02
#       6
#     8   8   8   8   8   8
#     4  10  21  36  54  78 108 140 175 216 262 313
#     4  10  21  37  57  80 106 139 178 218 263 315
#     4   9  19  36  56  78 105 138 177 219 262 310
#     4  10  21  36  54  78 108 140 175 216 262 313
#     4  10  21  37  57  80 106 139 178 218 263 315
#     4   9  19  36  56  78 105 138 177 219 262 310
#
# _framework density 18.672812
#
# number of rings (size 3 to 8) (size 9 to 14) (size 15 to 20)
#    0.000    2.333    0.000    3.000    0.000    7.333 
#    0.000    5.000    0.000    0.000    0.000    0.000 
#    0.000    0.000    0.000    0.000    0.000    0.000 
#
# Total GULP energy -595366.115348 kJ/mol
# GULP energy per Si atom -12403.460736 kJ/mol
# Density = 1.863031 g / cm^3
# Si number density = 18.672812 Si / 1000 Ang^3
#
#
#
# Elastic Constant Matrix: (Units=GPa)
#
#
# Indices 1 2 3 4 5 6 
#
# 1 92.1726 53.9689 72.1328 0.0000 0.0000 0.0000
# 2 53.9689 92.1726 72.1328 0.0000 0.0000 0.0000
# 3 72.1328 72.1328 140.5330 0.0000 0.0000 0.0000
# 4 0.0000 0.0000 0.0000 40.6225 0.0000 0.0000
# 5 0.0000 0.0000 0.0000 0.0000 40.6225 0.0000
# 6 0.0000 0.0000 0.0000 0.0000 0.0000 33.6731
#
#
#
# Elastic Compliance Matrix: (Units=1/GPa)
#
#
# Indices 1 2 3 4 5 6 
#
# 1 0.020023 -0.006152 -0.007120 0.000000 0.000000 0.000000
# 2 -0.006152 0.020023 -0.007120 0.000000 0.000000 0.000000
# 3 -0.007120 -0.007120 0.014425 0.000000 0.000000 0.000000
# 4 0.000000 0.000000 0.000000 0.024617 0.000000 0.000000
# 5 0.000000 0.000000 0.000000 0.000000 0.024617 0.000000
# 6 0.000000 0.000000 0.000000 0.000000 0.000000 0.029697
#
#
# Mechanical properties :
#
#
# Convention : Reuss Voigt Hill
#
# Bulk Modulus (GPa) = 73.05805 80.14970 76.60387
# Shear Modulus (GPa) = 27.97230 31.42650 29.69940
#
# Velocity S-wave (km/s) = 3.87463 4.10690 3.99245
# Velocity P-wave (km/s) = 7.69593 8.09353 7.89723
#
# Compressibility (1/GPa) = 0.01368775
#
# Stress axis : x y z
#
# Youngs Moduli (GPa) = 49.94189 49.94189 69.32604
#
# Poissons Ratio (x) = 0.30725 0.49358
# Poissons Ratio (y) = 0.30725 0.49358
# Poissons Ratio (z) = 0.35557 0.35557
#
# Static dielectric constant tensor:
#      x y z
#    x 3.382320 0.000000 0.000000 
#    y 0.000000 3.382320 0.000000 
#    z 0.000000 0.000000 3.490640 
# 
# 
# High freq. dielectric constant tensor:
#      x y z
#    x 1.724610 0.000000 0.000000 
#    y 0.000000 1.724610 0.000000 
#    z 0.000000 0.000000 1.735930 
# 
# From -- ./inp_files/4676.got.cif
#   From: 2010.03.12/outbox.cif.g09.slc.cpg/sg105_3_cif.got.tgz:4676.got - 2010.04.14 01:45:32.
