data_PCOD8307770
_publ_section_title
;
Structure prediction by ZEFSAII (Michael W. Deem and Ramdas Pophale) SiO2 
 PCOD8307770
Probable space group: I 4 C M
;
_chemical_formula_sum "Si O2"
_cell_formula_units_Z 96
_cell_length_a 16.270833
_cell_length_b 16.270833
_cell_length_c 19.353923
_cell_angle_alpha 90.000000
_cell_angle_beta 90.000000
_cell_angle_gamma 90.000000
_cell_volume 5123.757701
_symmetry_space_group_name_H-M "I 4 C M"
_symmetry_group_IT_number 108
_symmetry_cell_setting 'tetragonal'
loop_
_space_group_symop_operation_xyz
x,y,z
-y,x,z
-x,-y,z
y,-x,z
-x,y,1/2+z
x,-y,1/2+z
-y,-x,1/2+z
y,x,1/2+z
1/2+x,1/2+y,1/2+z
1/2-y,1/2+x,1/2+z
1/2-x,1/2-y,1/2+z
1/2+y,1/2-x,1/2+z
1/2-x,1/2+y,z
1/2+x,1/2-y,z
1/2-y,1/2-x,z
1/2+y,1/2+x,z
loop_
_atom_site_type_symbol
_atom_site_label
_atom_site_fract_x
_atom_site_fract_y
_atom_site_fract_z
Si Si1 0.729642 0.904306 0.765860
Si Si2 0.692492 0.672640 0.017103
Si Si3 0.674292 0.960698 0.167056
Si Si4 0.229642 0.404305 0.418000
Si Si5 0.172641 0.807510 0.166754
Si Si6 0.039302 0.325710 0.016801
O O1 0.677034 0.822967 0.776534
O O2 0.754743 0.938375 0.841930
O O3 0.812212 0.880296 0.722657
O O4 0.673400 0.969533 0.725051
O O5 0.742700 0.757301 0.023337
O O6 0.652986 0.652983 0.091929
O O7 0.750394 0.597841 0.995364
O O8 0.619705 0.687787 0.961202
O O9 0.588455 0.911546 0.168197
O O10 0.749611 0.902162 0.188492
O O11 0.687432 0.000003 0.091930
O O12 0.177036 0.322965 0.407325
O O13 0.173400 0.469530 0.458809
O O14 0.257299 0.757299 0.160522
O O15 0.088451 0.411550 0.015659
#
# Coordination Sequence:
#
# PCOD8307770 Si02
#       6
#    16  16  16  16  16  16
#     4  10  21  36  53  78 113 147 180 225 278 327
#     4   9  17  33  55  76 101 139 186 229 264 310
#     4  11  21  33  55  84 113 144 183 226 272 329
#     4  10  21  36  53  78 113 147 180 225 278 327
#     4   9  17  33  55  76 101 139 186 229 264 310
#     4  11  21  33  55  84 113 144 183 226 272 329
#
# _framework density 18.736249000000001
#
# number of rings (size 3 to 8) (size 9 to 14) (size 15 to 20)
#    0.000    2.000    3.333    1.000    0.000    4.333 
#    0.000    5.000    0.000    1.000    0.000    2.333 
#    0.000    0.000    0.000    0.000    0.000    0.000 
#
# Total GULP energy -594973.940869 kJ/mol
# GULP energy per Si atom -12395.290435 kJ/mol
# Density = 1.869360 g / cm^3
# Si number density = 18.736249 Si / 1000 Ang^3
#
#
#
# Elastic Constant Matrix: (Units=GPa)
#
#
# Indices 1 2 3 4 5 6 
#
# 1 47.6054 40.3705 41.5864 0.0000 0.0000 0.0011
# 2 40.3705 47.6054 41.5864 0.0000 0.0000 -0.0011
# 3 41.5864 41.5864 180.1939 0.0000 0.0000 0.0000
# 4 0.0000 0.0000 0.0000 21.9510 0.0000 0.0000
# 5 0.0000 0.0000 0.0000 0.0000 21.9510 0.0000
# 6 0.0011 -0.0011 0.0000 0.0000 0.0000 32.6799
#
#
#
# Elastic Compliance Matrix: (Units=1/GPa)
#
#
# Indices 1 2 3 4 5 6 
#
# 1 0.076379 -0.061840 -0.003355 0.000000 0.000000 -0.000005
# 2 -0.061840 0.076379 -0.003355 0.000000 0.000000 0.000005
# 3 -0.003355 -0.003355 0.007098 0.000000 0.000000 0.000000
# 4 0.000000 0.000000 0.000000 0.045556 0.000000 0.000000
# 5 0.000000 0.000000 0.000000 0.000000 0.045556 0.000000
# 6 -0.000005 0.000005 0.000000 0.000000 0.000000 0.030600
#
#
# Mechanical properties :
#
#
# Convention : Reuss Voigt Hill
#
# Bulk Modulus (GPa) = 43.94707 58.05458 51.00082
# Shear Modulus (GPa) = 11.73009 25.44050 18.58529
#
# Velocity S-wave (km/s) = 2.50484 3.68886 3.15293
# Velocity P-wave (km/s) = 5.64555 7.01399 6.36664
#
# Compressibility (1/GPa) = 0.02275465
#
# Stress axis : x y z
#
# Youngs Moduli (GPa) = 13.09262 13.09262 140.87801
#
# Poissons Ratio (x) = 0.80965 0.47270
# Poissons Ratio (y) = 0.80965 0.47270
# Poissons Ratio (z) = 0.04393 0.04393
#
# Static dielectric constant tensor:
#      x y z
#    x 3.232030 0.000000 0.000000 
#    y 0.000000 3.232030 0.000000 
#    z 0.000000 0.000000 3.872130 
# 
# 
# High freq. dielectric constant tensor:
#      x y z
#    x 1.701630 0.000000 0.000000 
#    y 0.000000 1.701630 0.000000 
#    z 0.000000 0.000000 1.738240 
# 
# From -- ./inp_files/2458.got.cif
#   From: 2010.03.12/outbox.cif.g09.slc.cpg/sg108_2_cif.got.tgz:2458.got - 2010.04.14 01:53:11.
