data_PCOD8307693
_publ_section_title
;
Structure prediction by ZEFSAII (Michael W. Deem and Ramdas Pophale) SiO2 
 PCOD8307693
Probable space group: I 4 M M
;
_chemical_formula_sum "Si O2"
_cell_formula_units_Z 96
_cell_length_a 19.137276
_cell_length_b 19.137276
_cell_length_c 20.763610
_cell_angle_alpha 90.000000
_cell_angle_beta 90.000000
_cell_angle_gamma 90.000000
_cell_volume 7604.367616
_symmetry_space_group_name_H-M "I 4 M M"
_symmetry_group_IT_number 107
_symmetry_cell_setting 'tetragonal'
loop_
_space_group_symop_operation_xyz
x,y,z
-y,x,z
-x,-y,z
y,-x,z
-x,y,z
x,-y,z
-y,-x,z
y,x,z
1/2+x,1/2+y,1/2+z
1/2-y,1/2+x,1/2+z
1/2-x,1/2-y,1/2+z
1/2+y,1/2-x,1/2+z
1/2-x,1/2+y,1/2+z
1/2+x,1/2-y,1/2+z
1/2-y,1/2-x,1/2+z
1/2+y,1/2+x,1/2+z
loop_
_atom_site_type_symbol
_atom_site_label
_atom_site_fract_x
_atom_site_fract_y
_atom_site_fract_z
Si Si1 0.081664 0.418336 0.806390
Si Si2 0.917372 0.659313 0.679438
Si Si3 0.692733 0.420250 0.131401
Si Si4 0.159313 0.582628 0.933342
Si Si5 0.692733 0.420250 0.981379
Si Si6 0.916486 0.578798 0.556390
O O1 0.094997 0.500000 0.792289
O O2 0.109835 0.373686 0.745975
O O3 0.126314 0.390165 0.866805
O O4 0.000000 0.405003 0.820491
O O5 0.895990 0.740565 0.673347
O O6 0.885422 0.616439 0.619603
O O7 0.000000 0.651697 0.676481
O O8 0.671958 0.500000 0.146967
O O9 0.627321 0.372680 0.151019
O O10 0.712488 0.412369 0.056390
O O11 0.151697 0.500000 0.936299
O O12 0.240565 0.604010 0.939433
O O13 0.116439 0.614578 0.993177
O O14 0.671958 0.500000 0.965813
O O15 0.627321 0.372680 0.961761
O O16 0.888910 0.500000 0.556390
O O17 0.000000 0.581818 0.556390
#
# Coordination Sequence:
#
# PCOD8307693 Si02
#       6
#    16  16  16  16  16  16
#     4   9  16  24  35  52  74  98 121 144 170 201
#     4   9  15  24  35  50  71  93 117 145 176 207
#     4   9  16  26  39  53  69  90 116 147 183 217
#     4   9  15  24  35  50  71  93 117 145 176 207
#     4   9  16  26  39  53  69  90 116 147 183 217
#     4   9  14  20  33  50  67  89 118 147 171 200
#
# _framework density 12.624324
#
# number of rings (size 3 to 8) (size 9 to 14) (size 15 to 20)
#    0.000    3.000    1.667    1.000    0.000    4.333 
#    0.000    2.500    0.000    0.000    0.000    0.000 
#    0.000    0.000    0.000    0.000    0.000    0.000 
#
# Total GULP energy -595013.357324 kJ/mol
# GULP energy per Si atom -12396.111611 kJ/mol
# Density = 1.259559 g / cm^3
# Si number density = 12.624324 Si / 1000 Ang^3
#
#
#
# Elastic Constant Matrix: (Units=GPa)
#
#
# Indices 1 2 3 4 5 6 
#
# 1 62.8609 41.4297 43.5407 0.0000 0.0000 0.0007
# 2 41.4297 62.8609 43.5407 0.0000 0.0000 -0.0007
# 3 43.5407 43.5407 93.8566 0.0000 0.0000 0.0000
# 4 0.0000 0.0000 0.0000 11.2453 0.0000 0.0000
# 5 0.0000 0.0000 0.0000 0.0000 11.2453 0.0000
# 6 0.0007 -0.0007 0.0000 0.0000 0.0000 8.1420
#
#
#
# Elastic Compliance Matrix: (Units=1/GPa)
#
#
# Indices 1 2 3 4 5 6 
#
# 1 0.031156 -0.015505 -0.007261 0.000000 0.000000 -0.000004
# 2 -0.015505 0.031156 -0.007261 0.000000 0.000000 0.000004
# 3 -0.007261 -0.007261 0.017391 0.000000 0.000000 0.000000
# 4 0.000000 0.000000 0.000000 0.088926 0.000000 0.000000
# 5 0.000000 0.000000 0.000000 0.000000 0.088926 0.000000
# 6 -0.000004 0.000004 0.000000 0.000000 0.000000 0.122819
#
#
# Mechanical properties :
#
#
# Convention : Reuss Voigt Hill
#
# Bulk Modulus (GPa) = 50.88870 52.95563 51.92216
# Shear Modulus (GPa) = 11.18626 12.19770 11.69198
#
# Velocity S-wave (km/s) = 2.97995 3.11176 3.04657
# Velocity P-wave (km/s) = 7.22757 7.41276 7.32075
#
# Compressibility (1/GPa) = 0.01965073
#
# Stress axis : x y z
#
# Youngs Moduli (GPa) = 32.09653 32.09653 57.50057
#
# Poissons Ratio (x) = 0.49765 0.41749
# Poissons Ratio (y) = 0.49765 0.41749
# Poissons Ratio (z) = 0.23304 0.23304
#
# Static dielectric constant tensor:
#      x y z
#    x 2.399720 0.000000 0.000000 
#    y 0.000000 2.399720 0.000000 
#    z 0.000000 0.000000 2.682160 
# 
# 
# High freq. dielectric constant tensor:
#      x y z
#    x 1.452640 0.000000 0.000000 
#    y 0.000000 1.452640 0.000000 
#    z 0.000000 0.000000 1.474030 
# 
# From -- ./inp_files/4037.got.cif
#   From: 2010.03.12/outbox.cif.g09.slc.cpg/sg107_3_cif.got.tgz:4037.got - 2010.04.14 01:49:11.
