data_PCOD8307356
_publ_section_title
;
Structure prediction by ZEFSAII (Michael W. Deem and Ramdas Pophale) SiO2 
 PCOD8307356
Probable space group: P 42 M C
;
_chemical_formula_sum "Si O2"
_cell_formula_units_Z 40
_cell_length_a 7.741604
_cell_length_b 7.741604
_cell_length_c 33.082014
_cell_angle_alpha 90.000000
_cell_angle_beta 90.000000
_cell_angle_gamma 90.000000
_cell_volume 1982.685571
_symmetry_space_group_name_H-M "P 42 M C"
_symmetry_group_IT_number 105
_symmetry_cell_setting 'tetragonal'
loop_
_space_group_symop_operation_xyz
x,y,z
-y,x,1/2+z
-x,-y,z
y,-x,1/2+z
-x,y,z
x,-y,z
-y,-x,1/2+z
y,x,1/2+z
loop_
_atom_site_type_symbol
_atom_site_label
_atom_site_fract_x
_atom_site_fract_y
_atom_site_fract_z
Si Si1 0.292991 0.000000 0.409070
Si Si2 0.699274 0.000000 0.116820
Si Si3 0.000000 0.799985 0.709217
Si Si4 0.000000 0.298129 0.998861
Si Si5 0.693412 0.705178 0.854140
Si Si6 0.311628 0.298467 0.764813
Si Si7 0.300192 0.702072 0.559305
O O1 0.213694 0.000000 0.454287
O O2 0.219925 0.169284 0.386049
O O3 0.500000 0.000000 0.409370
O O4 0.766552 0.823090 0.095964
O O5 0.500000 0.000000 0.109308
O O6 0.737770 0.000000 0.163681
O O7 0.828261 0.737107 0.730890
O O8 0.000000 0.000000 0.709889
O O9 0.823574 0.244923 0.021845
O O10 0.000000 0.500000 0.992819
O O11 0.500000 0.766351 0.866084
O O12 0.703973 0.500000 0.854596
O O13 0.740417 0.775712 0.809015
O O14 0.500000 0.222979 0.751665
O O15 0.330462 0.500000 0.770160
O O16 0.500000 0.734532 0.571975
O O17 0.272374 0.500000 0.547670
#
# Coordination Sequence:
#
# PCOD8307356 Si02
#       7
#     4   4   4   4   8   8   8
#     4   9  15  23  40  73 111 138 169 219 270 316
#     4  10  22  39  59  80 101 137 181 220 275 331
#     4  12  25  35  51  83 113 139 179 231 281 339
#     4   9  18  30  48  76 110 145 175 216 276 331
#     4   8  14  25  45  74 105 139 178 221 269 315
#     4   9  18  35  57  78 107 149 190 229 274 324
#     4   9  19  36  56  78 105 139 180 224 274 336
#
# _framework density 20.174658000000001
#
# number of rings (size 3 to 8) (size 9 to 14) (size 15 to 20)
#    0.000    2.800    0.000    2.700    1.400    3.600 
#    0.000    6.000    0.000    0.000   10.400    0.000 
#    0.000    0.000    0.000    0.000    0.000    0.000 
#
# Total GULP energy -495607.092332 kJ/mol
# GULP energy per Si atom -12390.177308 kJ/mol
# Density = 2.012874 g / cm^3
# Si number density = 20.174658 Si / 1000 Ang^3
#
#
#
# Elastic Constant Matrix: (Units=GPa)
#
#
# Indices 1 2 3 4 5 6 
#
# 1 93.2287 31.0450 69.9810 0.0000 0.0000 0.0000
# 2 31.0450 93.2287 69.9810 0.0000 0.0000 0.0000
# 3 69.9810 69.9810 194.3246 0.0000 0.0000 0.0000
# 4 0.0000 0.0000 0.0000 -93.6115 0.0000 0.0000
# 5 0.0000 0.0000 0.0000 0.0000 -93.6115 0.0000
# 6 0.0000 0.0000 0.0000 0.0000 0.0000 -25.4225
#
#
#
# Elastic Compliance Matrix: (Units=1/GPa)
#
#
# Indices 1 2 3 4 5 6 
#
# 1 0.014809 -0.001272 -0.004875 0.000000 0.000000 0.000000
# 2 -0.001272 0.014809 -0.004875 0.000000 0.000000 0.000000
# 3 -0.004875 -0.004875 0.008657 0.000000 0.000000 0.000000
# 4 0.000000 0.000000 0.000000 -0.010682 0.000000 0.000000
# 5 0.000000 0.000000 0.000000 0.000000 -0.010682 0.000000
# 6 0.000000 0.000000 0.000000 0.000000 0.000000 -0.039335
#
#
# Mechanical properties :
#
#
# Convention : Reuss Voigt Hill
#
# Bulk Modulus (GPa) = 61.60868 80.31068 70.95968
# Shear Modulus (GPa) = 993.86579 -28.54412 482.66084
#
# Velocity S-wave (km/s) = 22.21937 -3.76553 15.48420
# Velocity P-wave (km/s) = 26.24635 4.58132 18.83958
#
# Compressibility (1/GPa) = 0.01623148
#
# Stress axis : x y z
#
# Youngs Moduli (GPa) = 67.52494 67.52494 115.50911
#
# Poissons Ratio (x) = 0.08589 0.56312
# Poissons Ratio (y) = 0.08589 0.56312
# Poissons Ratio (z) = 0.32919 0.32919
#
# Static dielectric constant tensor:
#      x y z
#    x 3.754730 0.000000 0.000000 
#    y 0.000000 3.754730 0.000000 
#    z 0.000000 0.000000 3.667040 
# 
# 
# High freq. dielectric constant tensor:
#      x y z
#    x 1.781030 0.000000 0.000000 
#    y 0.000000 1.781030 0.000000 
#    z 0.000000 0.000000 1.777770 
# 
# From -- ./inp_files/4361.got.cif
#   From: 2010.03.12/outbox.cif.g09.slc.cpg/sg105_3_cif.got.tgz:4361.got - 2010.04.14 01:45:32.
