data_PCOD8307438
_publ_section_title
;
Structure prediction by ZEFSAII (Michael W. Deem and Ramdas Pophale) SiO2 
 PCOD8307438
Probable space group: P 42 B C
;
_chemical_formula_sum "Si O2"
_cell_formula_units_Z 40
_cell_length_a 12.864898
_cell_length_b 12.864898
_cell_length_c 10.213849
_cell_angle_alpha 90.000000
_cell_angle_beta 90.000000
_cell_angle_gamma 90.000000
_cell_volume 1690.449213
_symmetry_space_group_name_H-M "P 42 B C"
_symmetry_group_IT_number 106
_symmetry_cell_setting 'tetragonal'
loop_
_space_group_symop_operation_xyz
x,y,z
-y,x,1/2+z
-x,-y,z
y,-x,1/2+z
1/2-x,1/2+y,z
1/2+x,1/2-y,z
1/2-y,1/2-x,1/2+z
1/2+y,1/2+x,1/2+z
loop_
_atom_site_type_symbol
_atom_site_label
_atom_site_fract_x
_atom_site_fract_y
_atom_site_fract_z
Si Si1 0.517533 0.808727 0.245710
Si Si2 0.675196 0.245000 0.108479
Si Si3 0.423350 0.213829 0.746200
Si Si4 0.943971 0.786594 0.507339
Si Si5 0.822997 0.976575 0.509746
O O1 0.401309 0.832659 0.191477
O O2 0.588035 0.912605 0.249256
O O3 0.512226 0.758373 0.389819
O O4 0.569956 0.727376 0.143559
O O5 0.742270 0.309205 0.212144
O O6 0.741081 0.174569 0.008151
O O7 0.602711 0.330317 0.028195
O O8 0.506150 0.255603 0.643885
O O9 0.457469 0.246901 0.889142
O O10 0.931315 0.912702 0.491015
#
# Coordination Sequence:
#
# PCOD8307438 Si02
#       5
#     8   8   8   8   8
#     4  10  24  44  68 101 139 182 241 283 372 432
#     4  10  24  45  68 100 145 182 239 296 367 428
#     4  12  24  45  74  97 144 189 237 305 361 436
#     4  12  25  44  75 101 144 193 234 310 358 436
#     4  10  23  44  67 103 134 186 239 282 362 428
#
# _framework density 23.66235
#
# number of rings (size 3 to 8) (size 9 to 14) (size 15 to 20)
#    1.200    0.000    4.000    1.200    2.800    3.200 
#    0.000    2.000    0.000    0.000    0.000    0.000 
#    0.000    0.000    0.000    0.000    0.000    0.000 
#
# Total GULP energy -495590.440340 kJ/mol
# GULP energy per Si atom -12389.761008 kJ/mol
# Density = 2.360849 g / cm^3
# Si number density = 23.662350 Si / 1000 Ang^3
#
#
#
# Elastic Constant Matrix: (Units=GPa)
#
#
# Indices 1 2 3 4 5 6 
#
# 1 54.4582 14.7121 24.8769 0.0000 0.0000 0.0000
# 2 14.7121 54.4582 24.8769 0.0000 0.0000 0.0000
# 3 24.8769 24.8769 132.1871 0.0000 0.0000 0.0000
# 4 0.0000 0.0000 0.0000 31.0768 0.0000 0.0000
# 5 0.0000 0.0000 0.0000 0.0000 31.0768 0.0000
# 6 0.0000 0.0000 0.0000 0.0000 0.0000 26.8136
#
#
#
# Elastic Compliance Matrix: (Units=1/GPa)
#
#
# Indices 1 2 3 4 5 6 
#
# 1 0.020940 -0.004220 -0.003147 0.000000 0.000000 0.000000
# 2 -0.004220 0.020940 -0.003147 0.000000 0.000000 0.000000
# 3 -0.003147 -0.003147 0.008749 0.000000 0.000000 0.000000
# 4 0.000000 0.000000 0.000000 0.032178 0.000000 0.000000
# 5 0.000000 0.000000 0.000000 0.000000 0.032178 0.000000
# 6 0.000000 0.000000 0.000000 0.000000 0.000000 0.037295
#
#
# Mechanical properties :
#
#
# Convention : Reuss Voigt Hill
#
# Bulk Modulus (GPa) = 33.77972 41.11504 37.44738
# Shear Modulus (GPa) = 27.29636 29.56929 28.43282
#
# Velocity S-wave (km/s) = 3.40012 3.53885 3.47018
# Velocity P-wave (km/s) = 5.45171 5.84050 5.64945
#
# Compressibility (1/GPa) = 0.02960356
#
# Stress axis : x y z
#
# Youngs Moduli (GPa) = 47.75529 47.75529 114.29323
#
# Poissons Ratio (x) = 0.20151 0.35965
# Poissons Ratio (y) = 0.20151 0.35965
# Poissons Ratio (z) = 0.15027 0.15027
#
# Static dielectric constant tensor:
#      x y z
#    x 4.157490 0.000000 0.000000 
#    y 0.000000 4.157490 0.000000 
#    z 0.000000 0.000000 4.022800 
# 
# 
# High freq. dielectric constant tensor:
#      x y z
#    x 1.928800 0.000000 0.000000 
#    y 0.000000 1.928800 0.000000 
#    z 0.000000 0.000000 1.938820 
# 
# From -- ./inp_files/393.got.cif
#   From: 2010.03.12/outbox.cif.g09.slc.cpg/sg106_cif.got.tgz:393.got - 2010.04.14 01:48:02.
